=
 OpenBabel11042414163D

 45 50  0  0  1  0  0  0  0  0999 V2000
  189.7450  177.6760  146.3440 C   0  0  0  0  0  2  0  0  0  0  0  0
  189.7260  173.4890  145.7670 C   0  0  0  0  0  2  0  0  0  0  0  0
  191.0940  173.4120  143.5990 C   0  0  0  0  0  0  0  0  0  0  0  0
  190.5950  177.1650  145.3480 O   0  0  0  0  0  0  0  0  0  0  0  0
  189.5690  174.9860  145.4850 C   0  0  1  0  0  3  0  0  0  0  0  0
  193.0570  176.4680  143.1170 O   0  0  0  0  0  0  0  0  0  0  0  0
  188.4570  175.5480  146.3640 C   0  0  0  0  0  2  0  0  0  0  0  0
  192.0950  175.2840  144.9290 C   0  0  2  0  0  3  0  0  0  0  0  0
  192.2960  175.4520  142.5780 C   0  0  0  0  0  0  0  0  0  0  0  0
  190.8590  175.8220  145.6910 C   0  0  1  0  0  3  0  0  0  0  0  0
  193.0880  176.4040  144.5390 C   0  0  1  0  0  3  0  0  0  0  0  0
  188.3520  177.0610  146.1950 C   0  0  1  0  0  3  0  0  0  0  0  0
  191.7360  174.6100  143.6300 C   0  0  0  0  0  0  0  0  0  0  0  0
  190.7970  172.7690  144.9320 C   0  0  0  0  0  2  0  0  0  0  0  0
  192.1130  175.3390  141.3400 O   0  0  0  0  0  0  0  0  0  0  0  0
  189.4640  172.9050  141.5870 C   0  0  1  0  0  3  0  0  0  0  0  0
  189.5380  171.6660  142.4890 C   0  0  0  0  0  2  0  0  0  0  0  0
  190.7210  172.5880  142.3790 C   0  0  2  0  0  0  0  0  0  0  0  0
  191.7770  172.0130  141.6590 O   0  0  0  0  0  1  0  0  0  0  0  0
  189.5590  172.4790  140.1600 C   0  0  0  0  0  3  0  0  0  0  0  0
  189.6210  173.3870  139.1950 C   0  0  0  0  0  3  0  0  0  0  0  0
  189.7220  173.0030  137.7840 C   0  0  0  0  0  0  0  0  0  0  0  0
  190.1300  171.8510  137.4840 O   0  0  0  0  0  0  0  0  0  0  0  0
  189.3640  173.9150  136.7470 N   0  0  0  0  0  1  0  0  0  0  0  0
  194.5090  176.1090  145.0190 C   0  0  1  0  0  3  0  0  0  0  0  0
  194.5080  175.7640  146.5000 C   0  0  0  0  0  1  0  0  0  0  0  0
  195.1040  175.0230  144.2460 N   0  0  0  0  0  2  0  0  0  0  0  0
  194.4680  168.9910  145.4720 C   0  0  0  0  0  2  0  0  0  0  0  0
  195.4790  173.7590  144.7980 C   0  0  0  0  0  0  0  0  0  0  0  0
  195.4430  168.9940  146.6470 C   0  0  0  0  0  2  0  0  0  0  0  0
  196.4900  169.9920  146.4330 N   0  0  0  0  0  2  0  0  0  0  0  0
  194.5680  172.7000  144.7490 C   0  0  0  0  0  3  0  0  0  0  0  0
  196.7470  173.5600  145.3690 C   0  0  0  0  0  3  0  0  0  0  0  0
  194.9160  171.4520  145.2710 C   0  0  0  0  0  0  0  0  0  0  0  0
  196.1700  171.2640  145.8660 C   0  0  0  0  0  0  0  0  0  0  0  0
  194.0060  170.3500  145.1970 N   0  0  0  0  0  2  0  0  0  0  0  0
  197.0910  172.3140  145.9040 C   0  0  0  0  0  3  0  0  0  0  0  0
  187.4970  177.5780  147.1720 O   0  0  0  0  0  0  0  0  0  0  0  0
  186.0870  178.0490  146.3540 P   0  0  2  0  0  0  0  0  0  0  0  0
  185.4970  179.2780  147.0090 O   0  0  0  0  0  1  0  0  0  0  0  0
  184.9620  176.7880  146.4300 O   0  0  0  0  0  0  0  0  0  0  0  0
  184.0310  178.9710  144.1040 C   0  0  0  0  0  1  0  0  0  0  0  0
  185.8110  179.0650  142.5390 O   0  0  0  0  0  0  0  0  0  0  0  0
  185.4650  178.8200  143.7230 C   0  0  0  0  0  0  0  0  0  0  0  0
  186.4510  178.3970  144.6690 N   0  0  0  0  0  2  0  0  0  0  0  0
  3 13  2  0  0  0  0
  3 14  1  0  0  0  0
  4  1  1  0  0  0  0
  5 10  1  0  0  0  0
  5  2  1  1  0  0  0
  5  7  1  0  0  0  0
  6 11  1  0  0  0  0
  8 13  1  6  0  0  0
  8 10  1  0  0  0  0
  9  6  1  0  0  0  0
  9 13  1  0  0  0  0
 10  4  1  6  0  0  0
 11  8  1  0  0  0  0
 11 25  1  6  0  0  0
 12  1  1  0  0  0  0
 12  7  1  0  0  0  0
 12 38  1  1  0  0  0
 14  2  1  0  0  0  0
 15  9  2  0  0  0  0
 16 20  1  6  0  0  0
 16 18  1  0  0  0  0
 16 17  1  0  0  0  0
 18 19  1  6  0  0  0
 18 17  1  0  0  0  0
 18  3  1  0  0  0  0
 21 20  2  0  0  0  0
 22 21  1  0  0  0  0
 23 22  2  0  0  0  0
 24 22  1  0  0  0  0
 25 26  1  1  0  0  0
 27 29  1  0  0  0  0
 27 25  1  0  0  0  0
 28 30  1  0  0  0  0
 29 33  1  0  0  0  0
 31 30  1  0  0  0  0
 32 29  2  0  0  0  0
 32 34  1  0  0  0  0
 33 37  2  0  0  0  0
 34 35  2  0  0  0  0
 35 37  1  0  0  0  0
 35 31  1  0  0  0  0
 36 34  1  0  0  0  0
 36 28  1  0  0  0  0
 39 41  2  1  0  0  0
 39 40  1  0  0  0  0
 39 38  1  0  0  0  0
 43 44  2  0  0  0  0
 44 42  1  0  0  0  0
 44 45  1  0  0  0  0
 45 39  1  0  0  0  0
M  END
>  <MODEL>
1

>  <REMARK>
 VINA RESULT:      -7.9      0.000      0.000
  Name = 
  9 active torsions:
  status: ('A' for Active; 'I' for Inactive)
    1  A    between atoms: C_2  and  C_3
    2  A    between atoms: C_7  and  N_30
    3  A    between atoms: C_9  and  N_30
    4  A    between atoms: C_9  and  C_33
    5  A    between atoms: P_10  and  N_41
    6  A    between atoms: P_10  and  O_43
    7  A    between atoms: C_11  and  C_13
    8  A    between atoms: C_15  and  C_26
    9  A    between atoms: C_34  and  O_43
                            x       y       z     vdW  Elec       q    Type
                         _______ _______ _______ _____ _____    ______ ____

>  <TORSDO>
F 9

$$$$
=
 OpenBabel11042414163D

 45 50  0  0  1  0  0  0  0  0999 V2000
  191.9750  173.5090  143.4840 C   0  0  0  0  0  2  0  0  0  0  0  0
  189.7300  176.8660  142.2390 C   0  0  0  0  0  2  0  0  0  0  0  0
  188.3840  177.2260  144.3930 C   0  0  0  0  0  0  0  0  0  0  0  0
  191.2370  174.1850  144.4710 O   0  0  0  0  0  0  0  0  0  0  0  0
  190.0660  175.4860  142.8120 C   0  0  1  0  0  3  0  0  0  0  0  0
  189.9730  175.6200  147.2770 O   0  0  0  0  0  0  0  0  0  0  0  0
  190.6340  174.6070  141.7010 C   0  0  0  0  0  2  0  0  0  0  0  0
  190.6380  176.4510  145.1610 C   0  0  2  0  0  3  0  0  0  0  0  0
  188.8230  175.9620  146.5970 C   0  0  0  0  0  0  0  0  0  0  0  0
  191.0540  175.5050  144.0070 C   0  0  1  0  0  3  0  0  0  0  0  0
  191.1420  175.9630  146.5400 C   0  0  1  0  0  3  0  0  0  0  0  0
  191.0910  173.2630  142.2600 C   0  0  1  0  0  3  0  0  0  0  0  0
  189.1450  176.5720  145.3110 C   0  0  0  0  0  0  0  0  0  0  0  0
  189.1170  177.8620  143.2360 C   0  0  0  0  0  2  0  0  0  0  0  0
  187.6790  175.7210  147.0560 O   0  0  0  0  0  0  0  0  0  0  0  0
  186.3060  178.7650  143.8670 C   0  0  1  0  0  3  0  0  0  0  0  0
  186.3810  178.5340  145.3830 C   0  0  0  0  0  2  0  0  0  0  0  0
  186.8870  177.4810  144.4360 C   0  0  2  0  0  0  0  0  0  0  0  0
  186.0540  176.3550  144.3990 O   0  0  0  0  0  1  0  0  0  0  0  0
  184.8920  178.6070  143.4180 C   0  0  0  0  0  3  0  0  0  0  0  0
  184.6140  178.4660  142.1280 C   0  0  0  0  0  3  0  0  0  0  0  0
  183.2370  178.3010  141.6520 C   0  0  0  0  0  0  0  0  0  0  0  0
  182.2800  178.5690  142.4230 O   0  0  0  0  0  0  0  0  0  0  0  0
  182.9680  177.8420  140.3290 N   0  0  0  0  0  1  0  0  0  0  0  0
  191.9300  177.0440  147.2810 C   0  0  1  0  0  3  0  0  0  0  0  0
  191.4010  177.2100  148.6970 C   0  0  0  0  0  1  0  0  0  0  0  0
  193.3540  176.7230  147.3060 N   0  0  0  0  0  2  0  0  0  0  0  0
  195.8620  172.0560  144.1100 C   0  0  0  0  0  2  0  0  0  0  0  0
  194.0580  176.1190  146.2190 C   0  0  0  0  0  0  0  0  0  0  0  0
  196.7860  172.9470  143.2820 C   0  0  0  0  0  2  0  0  0  0  0  0
  196.1670  174.2530  143.0630 N   0  0  0  0  0  2  0  0  0  0  0  0
  194.4090  174.7680  146.3050 C   0  0  0  0  0  3  0  0  0  0  0  0
  194.3830  176.8500  145.0640 C   0  0  0  0  0  3  0  0  0  0  0  0
  195.0870  174.1520  145.2510 C   0  0  0  0  0  0  0  0  0  0  0  0
  195.4350  174.8920  144.1120 C   0  0  0  0  0  0  0  0  0  0  0  0
  195.4220  172.7630  145.3110 N   0  0  0  0  0  2  0  0  0  0  0  0
  195.0730  176.2370  144.0130 C   0  0  0  0  0  3  0  0  0  0  0  0
  191.8130  172.5760  141.2830 O   0  0  0  0  0  0  0  0  0  0  0  0
  190.8260  171.2840  140.7970 P   0  0  2  0  0  0  0  0  0  0  0  0
  190.4180  170.4670  142.0030 O   0  0  0  0  0  1  0  0  0  0  0  0
  191.6960  170.3000  139.7310 O   0  0  0  0  0  0  0  0  0  0  0  0
  190.7320  173.0690  138.1620 C   0  0  0  0  0  1  0  0  0  0  0  0
  188.3630  173.0620  138.2610 O   0  0  0  0  0  0  0  0  0  0  0  0
  189.4380  172.6790  138.7910 C   0  0  0  0  0  0  0  0  0  0  0  0
  189.3910  171.8900  139.9830 N   0  0  0  0  0  2  0  0  0  0  0  0
  1  4  1  0  0  0  0
  2  5  1  0  0  0  0
  2 14  1  0  0  0  0
  3 18  1  0  0  0  0
  3 13  2  0  0  0  0
  5  7  1  6  0  0  0
  5 10  1  0  0  0  0
  7 12  1  0  0  0  0
  8 13  1  1  0  0  0
  8 11  1  0  0  0  0
  9 15  2  0  0  0  0
  9  6  1  0  0  0  0
 10  4  1  1  0  0  0
 10  8  1  0  0  0  0
 11  6  1  0  0  0  0
 11 25  1  1  0  0  0
 12 38  1  6  0  0  0
 12  1  1  0  0  0  0
 13  9  1  0  0  0  0
 14  3  1  0  0  0  0
 16 20  1  6  0  0  0
 16 18  1  0  0  0  0
 16 17  1  0  0  0  0
 18 19  1  6  0  0  0
 18 17  1  0  0  0  0
 21 20  2  0  0  0  0
 22 21  1  0  0  0  0
 22 23  2  0  0  0  0
 24 22  1  0  0  0  0
 25 27  1  0  0  0  0
 25 26  1  1  0  0  0
 28 36  1  0  0  0  0
 29 32  1  0  0  0  0
 29 27  1  0  0  0  0
 30 28  1  0  0  0  0
 31 30  1  0  0  0  0
 31 35  1  0  0  0  0
 33 29  2  0  0  0  0
 34 36  1  0  0  0  0
 34 32  2  0  0  0  0
 35 34  1  0  0  0  0
 37 35  2  0  0  0  0
 37 33  1  0  0  0  0
 39 41  2  6  0  0  0
 39 38  1  0  0  0  0
 39 40  1  0  0  0  0
 42 44  1  0  0  0  0
 43 44  2  0  0  0  0
 44 45  1  0  0  0  0
 45 39  1  0  0  0  0
M  END
>  <MODEL>
2

>  <REMARK>
 VINA RESULT:      -7.6      2.680      6.543
  Name = 
  9 active torsions:
  status: ('A' for Active; 'I' for Inactive)
    1  A    between atoms: C_2  and  C_3
    2  A    between atoms: C_7  and  N_30
    3  A    between atoms: C_9  and  N_30
    4  A    between atoms: C_9  and  C_33
    5  A    between atoms: P_10  and  N_41
    6  A    between atoms: P_10  and  O_43
    7  A    between atoms: C_11  and  C_13
    8  A    between atoms: C_15  and  C_26
    9  A    between atoms: C_34  and  O_43
                            x       y       z     vdW  Elec       q    Type
                         _______ _______ _______ _____ _____    ______ ____

>  <TORSDO>
F 9

$$$$
=
 OpenBabel11042414163D

 45 50  0  0  1  0  0  0  0  0999 V2000
  187.9710  176.8970  143.7740 C   0  0  0  0  0  2  0  0  0  0  0  0
  189.4570  173.0840  142.7210 C   0  0  0  0  0  2  0  0  0  0  0  0
  191.9220  173.7230  142.4130 C   0  0  0  0  0  0  0  0  0  0  0  0
  189.3680  176.7470  143.7250 O   0  0  0  0  0  0  0  0  0  0  0  0
  189.1750  174.5880  142.6680 C   0  0  1  0  0  3  0  0  0  0  0  0
  192.7380  176.8620  144.1170 O   0  0  0  0  0  0  0  0  0  0  0  0
  187.6820  174.8110  142.4510 C   0  0  0  0  0  2  0  0  0  0  0  0
  191.1170  175.1460  144.3100 C   0  0  2  0  0  3  0  0  0  0  0  0
  192.9030  176.0250  143.0330 C   0  0  0  0  0  0  0  0  0  0  0  0
  189.6350  175.3760  143.9220 C   0  0  1  0  0  3  0  0  0  0  0  0
  191.7450  176.3730  145.0130 C   0  0  1  0  0  3  0  0  0  0  0  0
  187.3460  176.2980  142.5120 C   0  0  1  0  0  3  0  0  0  0  0  0
  192.0010  174.8820  143.1190 C   0  0  0  0  0  0  0  0  0  0  0  0
  190.9320  172.6950  142.9060 C   0  0  0  0  0  2  0  0  0  0  0  0
  193.7110  176.2840  142.1060 O   0  0  0  0  0  0  0  0  0  0  0  0
  192.5130  173.8390  139.8430 C   0  0  1  0  0  3  0  0  0  0  0  0
  192.1540  172.3910  140.2040 C   0  0  0  0  0  2  0  0  0  0  0  0
  192.7790  173.2910  141.2360 C   0  0  2  0  0  0  0  0  0  0  0  0
  194.1040  172.9350  141.5170 O   0  0  0  0  0  1  0  0  0  0  0  0
  193.7320  173.8420  138.9830 C   0  0  0  0  0  3  0  0  0  0  0  0
  194.4300  174.9580  138.8190 C   0  0  0  0  0  3  0  0  0  0  0  0
  195.6360  174.9940  137.9860 C   0  0  0  0  0  0  0  0  0  0  0  0
  196.7310  174.5970  138.4640 O   0  0  0  0  0  0  0  0  0  0  0  0
  195.5870  175.4700  136.6430 N   0  0  0  0  0  1  0  0  0  0  0  0
  192.3830  176.0060  146.3530 C   0  0  1  0  0  3  0  0  0  0  0  0
  191.4280  176.3080  147.4960 C   0  0  0  0  0  1  0  0  0  0  0  0
  192.7730  174.5990  146.3750 N   0  0  0  0  0  2  0  0  0  0  0  0
  196.6960  170.5520  143.8210 C   0  0  0  0  0  2  0  0  0  0  0  0
  194.0460  174.1150  145.9430 C   0  0  0  0  0  0  0  0  0  0  0  0
  197.9390  171.1410  144.4840 C   0  0  0  0  0  2  0  0  0  0  0  0
  197.7780  172.5820  144.6730 N   0  0  0  0  0  2  0  0  0  0  0  0
  194.1500  172.7980  145.4840 C   0  0  0  0  0  3  0  0  0  0  0  0
  195.1830  174.9390  145.9540 C   0  0  0  0  0  3  0  0  0  0  0  0
  195.3810  172.3040  145.0460 C   0  0  0  0  0  0  0  0  0  0  0  0
  196.5190  173.1200  145.0850 C   0  0  0  0  0  0  0  0  0  0  0  0
  195.4950  170.9700  144.5420 N   0  0  0  0  0  2  0  0  0  0  0  0
  196.4190  174.4410  145.5270 C   0  0  0  0  0  3  0  0  0  0  0  0
  185.9590  176.4600  142.5470 O   0  0  0  0  0  0  0  0  0  0  0  0
  185.6320  177.8610  141.6480 P   0  0  2  0  0  0  0  0  0  0  0  0
  184.2050  177.8290  141.1460 O   0  0  0  0  0  1  0  0  0  0  0  0
  186.6830  177.9210  140.3240 O   0  0  0  0  0  0  0  0  0  0  0  0
  184.3540  178.4400  144.5060 C   0  0  0  0  0  1  0  0  0  0  0  0
  185.5060  180.5120  144.5840 O   0  0  0  0  0  0  0  0  0  0  0  0
  185.2690  179.4650  143.9270 C   0  0  0  0  0  0  0  0  0  0  0  0
  185.8740  179.2900  142.6430 N   0  0  0  0  0  2  0  0  0  0  0  0
  2 14  1  0  0  0  0
  3 14  1  0  0  0  0
  3 13  2  0  0  0  0
  4  1  1  0  0  0  0
  5  7  1  1  0  0  0
  5  2  1  0  0  0  0
  5 10  1  0  0  0  0
  6 11  1  0  0  0  0
  7 12  1  0  0  0  0
  8 13  1  6  0  0  0
  8 11  1  0  0  0  0
  9 13  1  0  0  0  0
  9  6  1  0  0  0  0
 10  4  1  6  0  0  0
 10  8  1  0  0  0  0
 11 25  1  1  0  0  0
 12 38  1  1  0  0  0
 12  1  1  0  0  0  0
 15  9  2  0  0  0  0
 16 20  1  6  0  0  0
 16 17  1  0  0  0  0
 16 18  1  0  0  0  0
 17 18  1  0  0  0  0
 18 19  1  1  0  0  0
 18  3  1  0  0  0  0
 21 20  2  0  0  0  0
 22 23  2  0  0  0  0
 22 21  1  0  0  0  0
 24 22  1  0  0  0  0
 25 27  1  0  0  0  0
 25 26  1  1  0  0  0
 28 30  1  0  0  0  0
 28 36  1  0  0  0  0
 29 33  1  0  0  0  0
 29 27  1  0  0  0  0
 30 31  1  0  0  0  0
 31 35  1  0  0  0  0
 32 29  2  0  0  0  0
 34 35  2  0  0  0  0
 34 32  1  0  0  0  0
 35 37  1  0  0  0  0
 36 34  1  0  0  0  0
 37 33  2  0  0  0  0
 39 41  2  6  0  0  0
 39 38  1  0  0  0  0
 39 45  1  0  0  0  0
 40 39  1  0  0  0  0
 44 42  1  0  0  0  0
 44 43  2  0  0  0  0
 45 44  1  0  0  0  0
M  END
>  <MODEL>
3

>  <REMARK>
 VINA RESULT:      -7.6      2.653      3.426
  Name = 
  9 active torsions:
  status: ('A' for Active; 'I' for Inactive)
    1  A    between atoms: C_2  and  C_3
    2  A    between atoms: C_7  and  N_30
    3  A    between atoms: C_9  and  N_30
    4  A    between atoms: C_9  and  C_33
    5  A    between atoms: P_10  and  N_41
    6  A    between atoms: P_10  and  O_43
    7  A    between atoms: C_11  and  C_13
    8  A    between atoms: C_15  and  C_26
    9  A    between atoms: C_34  and  O_43
                            x       y       z     vdW  Elec       q    Type
                         _______ _______ _______ _____ _____    ______ ____

>  <TORSDO>
F 9

$$$$
=
 OpenBabel11042414163D

 45 50  0  0  1  0  0  0  0  0999 V2000
  188.5700  176.6780  143.5120 C   0  0  0  0  0  2  0  0  0  0  0  0
  190.0190  172.9440  142.1650 C   0  0  0  0  0  2  0  0  0  0  0  0
  192.4610  173.6200  141.7680 C   0  0  0  0  0  0  0  0  0  0  0  0
  189.9630  176.5430  143.3820 O   0  0  0  0  0  0  0  0  0  0  0  0
  189.7270  174.4470  142.2140 C   0  0  1  0  0  3  0  0  0  0  0  0
  193.3490  176.6620  143.6070 O   0  0  0  0  0  0  0  0  0  0  0  0
  188.2230  174.6690  142.0880 C   0  0  0  0  0  2  0  0  0  0  0  0
  191.7480  174.9250  143.7830 C   0  0  2  0  0  3  0  0  0  0  0  0
  193.4620  175.8900  142.4690 C   0  0  0  0  0  0  0  0  0  0  0  0
  190.2470  175.1650  143.4860 C   0  0  1  0  0  3  0  0  0  0  0  0
  192.4060  176.1150  144.5220 C   0  0  1  0  0  3  0  0  0  0  0  0
  187.8840  176.1480  142.2510 C   0  0  1  0  0  3  0  0  0  0  0  0
  192.5710  174.7360  142.5360 C   0  0  0  0  0  0  0  0  0  0  0  0
  191.5040  172.5570  142.2520 C   0  0  0  0  0  2  0  0  0  0  0  0
  194.2190  176.2080  141.5190 O   0  0  0  0  0  0  0  0  0  0  0  0
  192.9570  173.9320  139.1950 C   0  0  1  0  0  3  0  0  0  0  0  0
  192.5670  172.4700  139.4510 C   0  0  0  0  0  2  0  0  0  0  0  0
  193.2580  173.2630  140.5260 C   0  0  2  0  0  0  0  0  0  0  0  0
  194.5820  172.8470  140.7230 O   0  0  0  0  0  1  0  0  0  0  0  0
  194.1410  173.9720  138.2890 C   0  0  0  0  0  3  0  0  0  0  0  0
  194.7570  175.1220  138.0460 C   0  0  0  0  0  3  0  0  0  0  0  0
  195.9280  175.1950  137.1670 C   0  0  0  0  0  0  0  0  0  0  0  0
  195.8090  175.6890  136.0160 O   0  0  0  0  0  0  0  0  0  0  0  0
  197.2000  174.7140  137.5970 N   0  0  0  0  0  1  0  0  0  0  0  0
  193.1140  175.6770  145.8050 C   0  0  1  0  0  3  0  0  0  0  0  0
  194.5150  176.2640  145.8650 C   0  0  0  0  0  1  0  0  0  0  0  0
  192.3480  176.0720  146.9820 N   0  0  0  0  0  2  0  0  0  0  0  0
  186.6200  178.4120  146.9380 C   0  0  0  0  0  2  0  0  0  0  0  0
  190.9220  176.0270  147.0610 C   0  0  0  0  0  0  0  0  0  0  0  0
  185.9880  177.2240  147.6600 C   0  0  0  0  0  2  0  0  0  0  0  0
  186.7000  175.9910  147.3250 N   0  0  0  0  0  2  0  0  0  0  0  0
  190.2060  177.2270  147.0960 C   0  0  0  0  0  3  0  0  0  0  0  0
  190.2310  174.8040  147.0860 C   0  0  0  0  0  3  0  0  0  0  0  0
  188.8110  177.2090  147.1610 C   0  0  0  0  0  0  0  0  0  0  0  0
  188.1260  175.9880  147.2150 C   0  0  0  0  0  0  0  0  0  0  0  0
  188.0640  178.4290  147.1620 N   0  0  0  0  0  2  0  0  0  0  0  0
  188.8340  174.7850  147.1640 C   0  0  0  0  0  3  0  0  0  0  0  0
  186.5000  176.2950  142.3660 O   0  0  0  0  0  0  0  0  0  0  0  0
  186.1020  177.6720  141.4560 P   0  0  2  0  0  0  0  0  0  0  0  0
  184.6930  177.5450  140.9200 O   0  0  0  0  0  1  0  0  0  0  0  0
  187.1780  177.8000  140.1580 O   0  0  0  0  0  0  0  0  0  0  0  0
  184.3200  178.4010  143.9920 C   0  0  0  0  0  1  0  0  0  0  0  0
  185.5510  180.4100  144.2600 O   0  0  0  0  0  0  0  0  0  0  0  0
  185.3890  179.3580  143.5890 C   0  0  0  0  0  0  0  0  0  0  0  0
  186.2250  179.1140  142.4540 N   0  0  0  0  0  2  0  0  0  0  0  0
  2  5  1  0  0  0  0
  2 14  1  0  0  0  0
  3 14  1  0  0  0  0
  3 13  2  0  0  0  0
  4  1  1  0  0  0  0
  5  7  1  1  0  0  0
  5 10  1  0  0  0  0
  6 11  1  0  0  0  0
  7 12  1  0  0  0  0
  8 13  1  6  0  0  0
  8 11  1  0  0  0  0
  9 13  1  0  0  0  0
  9  6  1  0  0  0  0
 10  4  1  6  0  0  0
 10  8  1  0  0  0  0
 11 25  1  1  0  0  0
 12 38  1  1  0  0  0
 12  1  1  0  0  0  0
 15  9  2  0  0  0  0
 16 20  1  6  0  0  0
 16 17  1  0  0  0  0
 16 18  1  0  0  0  0
 17 18  1  0  0  0  0
 18 19  1  1  0  0  0
 18  3  1  0  0  0  0
 21 20  2  0  0  0  0
 22 24  1  0  0  0  0
 22 21  1  0  0  0  0
 23 22  2  0  0  0  0
 25 26  1  1  0  0  0
 25 27  1  0  0  0  0
 27 29  1  0  0  0  0
 28 36  1  0  0  0  0
 28 30  1  0  0  0  0
 29 33  2  0  0  0  0
 29 32  1  0  0  0  0
 31 30  1  0  0  0  0
 32 34  2  0  0  0  0
 33 37  1  0  0  0  0
 34 36  1  0  0  0  0
 34 35  1  0  0  0  0
 35 31  1  0  0  0  0
 37 35  2  0  0  0  0
 39 41  2  6  0  0  0
 39 38  1  0  0  0  0
 39 45  1  0  0  0  0
 40 39  1  0  0  0  0
 44 42  1  0  0  0  0
 44 43  2  0  0  0  0
 45 44  1  0  0  0  0
M  END
>  <MODEL>
4

>  <REMARK>
 VINA RESULT:      -7.5      3.472      5.680
  Name = 
  9 active torsions:
  status: ('A' for Active; 'I' for Inactive)
    1  A    between atoms: C_2  and  C_3
    2  A    between atoms: C_7  and  N_30
    3  A    between atoms: C_9  and  N_30
    4  A    between atoms: C_9  and  C_33
    5  A    between atoms: P_10  and  N_41
    6  A    between atoms: P_10  and  O_43
    7  A    between atoms: C_11  and  C_13
    8  A    between atoms: C_15  and  C_26
    9  A    between atoms: C_34  and  O_43
                            x       y       z     vdW  Elec       q    Type
                         _______ _______ _______ _____ _____    ______ ____

>  <TORSDO>
F 9

$$$$
=
 OpenBabel11042414163D

 45 50  0  0  1  0  0  0  0  0999 V2000
  188.1560  174.8990  140.5920 C   0  0  0  0  0  2  0  0  0  0  0  0
  189.7660  172.1080  143.3260 C   0  0  0  0  0  2  0  0  0  0  0  0
  191.3040  173.7040  144.6160 C   0  0  0  0  0  0  0  0  0  0  0  0
  188.9130  175.4140  141.6590 O   0  0  0  0  0  0  0  0  0  0  0  0
  189.6880  173.2140  142.2700 C   0  0  1  0  0  3  0  0  0  0  0  0
  190.3070  177.2030  144.1850 O   0  0  0  0  0  0  0  0  0  0  0  0
  189.1120  172.6360  140.9810 C   0  0  0  0  0  2  0  0  0  0  0  0
  189.2840  175.0700  144.0480 C   0  0  2  0  0  3  0  0  0  0  0  0
  191.3090  176.2640  144.3110 C   0  0  0  0  0  0  0  0  0  0  0  0
  188.8600  174.4550  142.6920 C   0  0  1  0  0  3  0  0  0  0  0  0
  189.0220  176.5940  144.1180 C   0  0  1  0  0  3  0  0  0  0  0  0
  188.9090  173.7360  139.9430 C   0  0  1  0  0  3  0  0  0  0  0  0
  190.7550  174.9140  144.3300 C   0  0  0  0  0  0  0  0  0  0  0  0
  190.3570  172.5290  144.6800 C   0  0  0  0  0  2  0  0  0  0  0  0
  192.5230  176.5850  144.3600 O   0  0  0  0  0  0  0  0  0  0  0  0
  193.7550  173.0390  143.8970 C   0  0  1  0  0  3  0  0  0  0  0  0
  193.2150  171.9730  144.8600 C   0  0  0  0  0  2  0  0  0  0  0  0
  192.7470  173.3980  144.9770 C   0  0  2  0  0  0  0  0  0  0  0  0
  193.2610  174.0330  146.1150 O   0  0  0  0  0  1  0  0  0  0  0  0
  195.1550  173.3810  144.2800 C   0  0  0  0  0  3  0  0  0  0  0  0
  195.8390  174.2770  143.5800 C   0  0  0  0  0  3  0  0  0  0  0  0
  197.2150  174.6410  143.9340 C   0  0  0  0  0  0  0  0  0  0  0  0
  197.7820  174.0580  144.8930 O   0  0  0  0  0  0  0  0  0  0  0  0
  197.9180  175.6450  143.2050 N   0  0  0  0  0  1  0  0  0  0  0  0
  188.1930  176.9810  145.3430 C   0  0  1  0  0  3  0  0  0  0  0  0
  189.1010  177.4090  146.4850 C   0  0  0  0  0  1  0  0  0  0  0  0
  187.2510  178.0480  145.0170 N   0  0  0  0  0  2  0  0  0  0  0  0
  182.1490  178.6790  141.5730 C   0  0  0  0  0  2  0  0  0  0  0  0
  186.4970  178.1070  143.8040 C   0  0  0  0  0  0  0  0  0  0  0  0
  182.7410  178.0040  140.3380 C   0  0  0  0  0  2  0  0  0  0  0  0
  184.1810  178.2520  140.2680 N   0  0  0  0  0  2  0  0  0  0  0  0
  185.1020  178.1580  143.8750 C   0  0  0  0  0  3  0  0  0  0  0  0
  187.1310  178.1320  142.5510 C   0  0  0  0  0  3  0  0  0  0  0  0
  184.3430  178.2280  142.7050 C   0  0  0  0  0  0  0  0  0  0  0  0
  184.9770  178.2240  141.4550 C   0  0  0  0  0  0  0  0  0  0  0  0
  182.9160  178.3160  142.7630 N   0  0  0  0  0  2  0  0  0  0  0  0
  186.3720  178.1890  141.3780 C   0  0  0  0  0  3  0  0  0  0  0  0
  188.1710  173.2310  138.8700 O   0  0  0  0  0  0  0  0  0  0  0  0
  189.1150  173.5040  137.4870 P   0  0  2  0  0  0  0  0  0  0  0  0
  189.1800  172.2440  136.6520 O   0  0  0  0  0  0  0  0  0  0  0  0
  190.6790  173.9320  137.9660 O   0  0  0  0  0  1  0  0  0  0  0  0
  190.3210  174.7670  134.8240 C   0  0  0  0  0  1  0  0  0  0  0  0
  188.4640  176.2370  134.7000 O   0  0  0  0  0  0  0  0  0  0  0  0
  189.0290  175.3100  135.3350 C   0  0  0  0  0  0  0  0  0  0  0  0
  188.4260  174.8090  136.5310 N   0  0  0  0  0  2  0  0  0  0  0  0
  1  4  1  0  0  0  0
  2 14  1  0  0  0  0
  3 14  1  0  0  0  0
  3 18  1  0  0  0  0
  5  7  1  6  0  0  0
  5 10  1  0  0  0  0
  5  2  1  0  0  0  0
  6  9  1  0  0  0  0
  8 11  1  0  0  0  0
  8 13  1  6  0  0  0
  9 13  1  0  0  0  0
  9 15  2  0  0  0  0
 10  4  1  6  0  0  0
 10  8  1  0  0  0  0
 11  6  1  0  0  0  0
 11 25  1  1  0  0  0
 12 38  1  6  0  0  0
 12  1  1  0  0  0  0
 12  7  1  0  0  0  0
 13  3  2  0  0  0  0
 16 20  1  1  0  0  0
 16 17  1  0  0  0  0
 16 18  1  0  0  0  0
 17 18  1  0  0  0  0
 18 19  1  1  0  0  0
 21 22  1  0  0  0  0
 21 20  2  0  0  0  0
 22 23  2  0  0  0  0
 24 22  1  0  0  0  0
 25 26  1  1  0  0  0
 27 25  1  0  0  0  0
 28 36  1  0  0  0  0
 29 32  1  0  0  0  0
 29 27  1  0  0  0  0
 30 28  1  0  0  0  0
 31 30  1  0  0  0  0
 31 35  1  0  0  0  0
 33 29  2  0  0  0  0
 34 36  1  0  0  0  0
 34 32  2  0  0  0  0
 35 34  1  0  0  0  0
 37 35  2  0  0  0  0
 37 33  1  0  0  0  0
 39 40  2  6  0  0  0
 39 41  1  0  0  0  0
 39 38  1  0  0  0  0
 42 44  1  0  0  0  0
 43 44  2  0  0  0  0
 44 45  1  0  0  0  0
 45 39  1  0  0  0  0
M  END
>  <MODEL>
5

>  <REMARK>
 VINA RESULT:      -7.5      3.209      9.002
  Name = 
  9 active torsions:
  status: ('A' for Active; 'I' for Inactive)
    1  A    between atoms: C_2  and  C_3
    2  A    between atoms: C_7  and  N_30
    3  A    between atoms: C_9  and  N_30
    4  A    between atoms: C_9  and  C_33
    5  A    between atoms: P_10  and  N_41
    6  A    between atoms: P_10  and  O_43
    7  A    between atoms: C_11  and  C_13
    8  A    between atoms: C_15  and  C_26
    9  A    between atoms: C_34  and  O_43
                            x       y       z     vdW  Elec       q    Type
                         _______ _______ _______ _____ _____    ______ ____

>  <TORSDO>
F 9

$$$$
=
 OpenBabel11042414163D

 45 50  0  0  1  0  0  0  0  0999 V2000
  192.0250  173.4900  143.4000 C   0  0  0  0  0  2  0  0  0  0  0  0
  189.7550  176.8610  142.2410 C   0  0  0  0  0  2  0  0  0  0  0  0
  188.4580  177.1990  144.4290 C   0  0  0  0  0  0  0  0  0  0  0  0
  191.3100  174.1560  144.4100 O   0  0  0  0  0  0  0  0  0  0  0  0
  190.1030  175.4750  142.7920 C   0  0  1  0  0  3  0  0  0  0  0  0
  190.1110  175.5610  147.2590 O   0  0  0  0  0  0  0  0  0  0  0  0
  190.6450  174.6080  141.6590 C   0  0  0  0  0  2  0  0  0  0  0  0
  190.7280  176.4140  145.1370 C   0  0  2  0  0  3  0  0  0  0  0  0
  188.9460  175.9110  146.6080 C   0  0  0  0  0  0  0  0  0  0  0  0
  191.1170  175.4800  143.9640 C   0  0  1  0  0  3  0  0  0  0  0  0
  191.2630  175.9120  146.5000 C   0  0  1  0  0  3  0  0  0  0  0  0
  191.1130  173.2580  142.1930 C   0  0  1  0  0  3  0  0  0  0  0  0
  189.2390  176.5350  145.3220 C   0  0  0  0  0  0  0  0  0  0  0  0
  189.1660  177.8470  143.2630 C   0  0  0  0  0  2  0  0  0  0  0  0
  187.8120  175.6660  147.0900 O   0  0  0  0  0  0  0  0  0  0  0  0
  186.3750  178.7620  144.0050 C   0  0  1  0  0  3  0  0  0  0  0  0
  186.4750  178.4660  145.5080 C   0  0  0  0  0  2  0  0  0  0  0  0
  186.9630  177.4540  144.5080 C   0  0  2  0  0  0  0  0  0  0  0  0
  186.1270  176.3320  144.4360 O   0  0  0  0  0  1  0  0  0  0  0  0
  184.9530  178.6250  143.5730 C   0  0  0  0  0  3  0  0  0  0  0  0
  184.6550  178.5190  142.2840 C   0  0  0  0  0  3  0  0  0  0  0  0
  183.2700  178.3760  141.8250 C   0  0  0  0  0  0  0  0  0  0  0  0
  182.3260  178.6660  142.6050 O   0  0  0  0  0  0  0  0  0  0  0  0
  182.9770  177.9150  140.5080 N   0  0  0  0  0  1  0  0  0  0  0  0
  192.0680  176.9840  147.2350 C   0  0  1  0  0  3  0  0  0  0  0  0
  191.5410  177.1680  148.6480 C   0  0  0  0  0  1  0  0  0  0  0  0
  193.4860  176.6400  147.2630 N   0  0  0  0  0  2  0  0  0  0  0  0
  196.8450  176.1630  142.0880 C   0  0  0  0  0  2  0  0  0  0  0  0
  194.1640  175.9530  146.2080 C   0  0  0  0  0  0  0  0  0  0  0  0
  196.4130  174.7300  141.7840 C   0  0  0  0  0  2  0  0  0  0  0  0
  196.1580  174.0040  143.0280 N   0  0  0  0  0  2  0  0  0  0  0  0
  194.6700  176.6910  145.1340 C   0  0  0  0  0  3  0  0  0  0  0  0
  194.3450  174.5600  146.2430 C   0  0  0  0  0  3  0  0  0  0  0  0
  195.3470  176.0440  144.0970 C   0  0  0  0  0  0  0  0  0  0  0  0
  195.5010  174.6510  144.1200 C   0  0  0  0  0  0  0  0  0  0  0  0
  195.9000  176.7900  143.0090 N   0  0  0  0  0  2  0  0  0  0  0  0
  195.0110  173.9100  145.1980 C   0  0  0  0  0  3  0  0  0  0  0  0
  191.8130  172.5810  141.1930 O   0  0  0  0  0  0  0  0  0  0  0  0
  191.0060  171.1040  140.9780 P   0  0  2  0  0  0  0  0  0  0  0  0
  190.1030  171.1820  139.7660 O   0  0  0  0  0  0  0  0  0  0  0  0
  190.0660  170.7890  142.3480 O   0  0  0  0  0  1  0  0  0  0  0  0
  193.0130  169.9520  143.1650 C   0  0  0  0  0  1  0  0  0  0  0  0
  193.8220  168.3890  141.5760 O   0  0  0  0  0  0  0  0  0  0  0  0
  193.0270  169.3360  141.8080 C   0  0  0  0  0  0  0  0  0  0  0  0
  192.1680  169.8030  140.7630 N   0  0  0  0  0  2  0  0  0  0  0  0
  1  4  1  0  0  0  0
  2  5  1  0  0  0  0
  2 14  1  0  0  0  0
  3 18  1  0  0  0  0
  3 13  2  0  0  0  0
  5  7  1  6  0  0  0
  5 10  1  0  0  0  0
  7 12  1  0  0  0  0
  8 13  1  1  0  0  0
  8 11  1  0  0  0  0
  9 15  2  0  0  0  0
  9  6  1  0  0  0  0
 10  4  1  1  0  0  0
 10  8  1  0  0  0  0
 11 25  1  1  0  0  0
 11  6  1  0  0  0  0
 12 38  1  6  0  0  0
 12  1  1  0  0  0  0
 13  9  1  0  0  0  0
 14  3  1  0  0  0  0
 16 20  1  6  0  0  0
 16 18  1  0  0  0  0
 16 17  1  0  0  0  0
 18 19  1  6  0  0  0
 18 17  1  0  0  0  0
 21 20  2  0  0  0  0
 22 21  1  0  0  0  0
 22 23  2  0  0  0  0
 24 22  1  0  0  0  0
 25 27  1  0  0  0  0
 25 26  1  1  0  0  0
 28 36  1  0  0  0  0
 29 33  1  0  0  0  0
 29 27  1  0  0  0  0
 30 28  1  0  0  0  0
 30 31  1  0  0  0  0
 31 35  1  0  0  0  0
 32 29  2  0  0  0  0
 34 35  2  0  0  0  0
 34 32  1  0  0  0  0
 35 37  1  0  0  0  0
 36 34  1  0  0  0  0
 37 33  2  0  0  0  0
 39 40  2  6  0  0  0
 39 38  1  0  0  0  0
 39 41  1  0  0  0  0
 43 44  2  0  0  0  0
 44 42  1  0  0  0  0
 45 39  1  0  0  0  0
 45 44  1  0  0  0  0
M  END
>  <MODEL>
6

>  <REMARK>
 VINA RESULT:      -7.3      3.065      7.146
  Name = 
  9 active torsions:
  status: ('A' for Active; 'I' for Inactive)
    1  A    between atoms: C_2  and  C_3
    2  A    between atoms: C_7  and  N_30
    3  A    between atoms: C_9  and  N_30
    4  A    between atoms: C_9  and  C_33
    5  A    between atoms: P_10  and  N_41
    6  A    between atoms: P_10  and  O_43
    7  A    between atoms: C_11  and  C_13
    8  A    between atoms: C_15  and  C_26
    9  A    between atoms: C_34  and  O_43
                            x       y       z     vdW  Elec       q    Type
                         _______ _______ _______ _____ _____    ______ ____

>  <TORSDO>
F 9

$$$$
=
 OpenBabel11042414163D

 45 50  0  0  1  0  0  0  0  0999 V2000
  188.1300  174.4250  140.1810 C   0  0  0  0  0  2  0  0  0  0  0  0
  190.2390  173.1430  143.6110 C   0  0  0  0  0  2  0  0  0  0  0  0
  190.8960  175.4490  144.5200 C   0  0  0  0  0  0  0  0  0  0  0  0
  188.4900  175.4120  141.1150 O   0  0  0  0  0  0  0  0  0  0  0  0
  189.9160  173.8730  142.3040 C   0  0  1  0  0  3  0  0  0  0  0  0
  188.7710  178.1060  143.1620 O   0  0  0  0  0  0  0  0  0  0  0  0
  189.7750  172.8510  141.1800 C   0  0  0  0  0  2  0  0  0  0  0  0
  188.6200  175.7700  143.5270 C   0  0  2  0  0  3  0  0  0  0  0  0
  190.0170  177.6790  143.5700 C   0  0  0  0  0  0  0  0  0  0  0  0
  188.6440  174.7580  142.3550 C   0  0  1  0  0  3  0  0  0  0  0  0
  187.8170  177.0500  143.1920 C   0  0  1  0  0  3  0  0  0  0  0  0
  189.3370  173.5320  139.8870 C   0  0  1  0  0  3  0  0  0  0  0  0
  189.9930  176.2590  143.9080 C   0  0  0  0  0  0  0  0  0  0  0  0
  190.4410  174.0460  144.8380 C   0  0  0  0  0  2  0  0  0  0  0  0
  191.0120  178.4460  143.5920 O   0  0  0  0  0  0  0  0  0  0  0  0
  192.9230  175.0430  146.1610 C   0  0  1  0  0  3  0  0  0  0  0  0
  192.4040  176.4740  146.3600 C   0  0  0  0  0  2  0  0  0  0  0  0
  192.2860  175.8120  145.0150 C   0  0  2  0  0  0  0  0  0  0  0  0
  193.1680  176.3610  144.0740 O   0  0  0  0  0  1  0  0  0  0  0  0
  194.4140  175.0670  146.1120 C   0  0  0  0  0  3  0  0  0  0  0  0
  195.0850  173.9960  145.7080 C   0  0  0  0  0  3  0  0  0  0  0  0
  196.5500  173.9870  145.6400 C   0  0  0  0  0  0  0  0  0  0  0  0
  197.2090  173.4300  146.5560 O   0  0  0  0  0  0  0  0  0  0  0  0
  197.2380  174.6000  144.5510 N   0  0  0  0  0  1  0  0  0  0  0  0
  186.7400  177.3460  144.2370 C   0  0  1  0  0  3  0  0  0  0  0  0
  187.3740  177.5940  145.5960 C   0  0  0  0  0  1  0  0  0  0  0  0
  185.9300  178.4930  143.8380 N   0  0  0  0  0  2  0  0  0  0  0  0
  180.1510  179.3750  141.8100 C   0  0  0  0  0  2  0  0  0  0  0  0
  184.8550  178.4250  142.8990 C   0  0  0  0  0  0  0  0  0  0  0  0
  180.2360  178.3180  140.7110 C   0  0  0  0  0  2  0  0  0  0  0  0
  181.6030  178.2270  140.2010 N   0  0  0  0  0  2  0  0  0  0  0  0
  183.5700  178.7900  143.3130 C   0  0  0  0  0  3  0  0  0  0  0  0
  185.0680  178.0170  141.5720 C   0  0  0  0  0  3  0  0  0  0  0  0
  182.5040  178.7430  142.4110 C   0  0  0  0  0  0  0  0  0  0  0  0
  182.7150  178.3090  141.0960 C   0  0  0  0  0  0  0  0  0  0  0  0
  181.1910  179.1470  142.8110 N   0  0  0  0  0  2  0  0  0  0  0  0
  183.9990  177.9580  140.6720 C   0  0  0  0  0  3  0  0  0  0  0  0
  188.9900  172.5600  138.9460 O   0  0  0  0  0  0  0  0  0  0  0  0
  189.9700  172.8530  137.5920 P   0  0  2  0  0  0  0  0  0  0  0  0
  189.6490  174.2110  137.0090 O   0  0  0  0  0  1  0  0  0  0  0  0
  189.6660  171.6650  136.4280 O   0  0  0  0  0  0  0  0  0  0  0  0
  191.5260  170.3790  138.8580 C   0  0  0  0  0  1  0  0  0  0  0  0
  193.5170  171.6680  138.8880 O   0  0  0  0  0  0  0  0  0  0  0  0
  192.2930  171.6320  138.6020 C   0  0  0  0  0  0  0  0  0  0  0  0
  191.6670  172.7940  138.0490 N   0  0  0  0  0  2  0  0  0  0  0  0
  1  4  1  0  0  0  0
  2 14  1  0  0  0  0
  3 14  1  0  0  0  0
  3 18  1  0  0  0  0
  5  7  1  6  0  0  0
  5 10  1  0  0  0  0
  5  2  1  0  0  0  0
  6 11  1  0  0  0  0
  6  9  1  0  0  0  0
  8 13  1  6  0  0  0
  9 15  2  0  0  0  0
  9 13  1  0  0  0  0
 10  4  1  6  0  0  0
 10  8  1  0  0  0  0
 11  8  1  0  0  0  0
 11 25  1  1  0  0  0
 12 38  1  6  0  0  0
 12  1  1  0  0  0  0
 12  7  1  0  0  0  0
 13  3  2  0  0  0  0
 16 20  1  6  0  0  0
 16 17  1  0  0  0  0
 18 19  1  6  0  0  0
 18 16  1  0  0  0  0
 18 17  1  0  0  0  0
 21 20  2  0  0  0  0
 22 21  1  0  0  0  0
 22 23  2  0  0  0  0
 24 22  1  0  0  0  0
 25 26  1  1  0  0  0
 27 25  1  0  0  0  0
 28 36  1  0  0  0  0
 29 32  1  0  0  0  0
 29 27  1  0  0  0  0
 30 28  1  0  0  0  0
 31 30  1  0  0  0  0
 31 35  1  0  0  0  0
 33 29  2  0  0  0  0
 34 36  1  0  0  0  0
 34 32  2  0  0  0  0
 35 34  1  0  0  0  0
 37 35  2  0  0  0  0
 37 33  1  0  0  0  0
 39 41  2  6  0  0  0
 39 45  1  0  0  0  0
 39 38  1  0  0  0  0
 40 39  1  0  0  0  0
 44 42  1  0  0  0  0
 44 43  2  0  0  0  0
 45 44  1  0  0  0  0
M  END
>  <MODEL>
7

>  <REMARK>
 VINA RESULT:      -7.1      3.176     10.105
  Name = 
  9 active torsions:
  status: ('A' for Active; 'I' for Inactive)
    1  A    between atoms: C_2  and  C_3
    2  A    between atoms: C_7  and  N_30
    3  A    between atoms: C_9  and  N_30
    4  A    between atoms: C_9  and  C_33
    5  A    between atoms: P_10  and  N_41
    6  A    between atoms: P_10  and  O_43
    7  A    between atoms: C_11  and  C_13
    8  A    between atoms: C_15  and  C_26
    9  A    between atoms: C_34  and  O_43
                            x       y       z     vdW  Elec       q    Type
                         _______ _______ _______ _____ _____    ______ ____

>  <TORSDO>
F 9

$$$$
=
 OpenBabel11042414163D

 45 50  0  0  1  0  0  0  0  0999 V2000
  188.5510  174.7010  140.7820 C   0  0  0  0  0  2  0  0  0  0  0  0
  190.7200  172.0720  143.2820 C   0  0  0  0  0  2  0  0  0  0  0  0
  192.2220  173.8090  144.4240 C   0  0  0  0  0  0  0  0  0  0  0  0
  189.3640  175.2840  141.7700 O   0  0  0  0  0  0  0  0  0  0  0  0
  190.4170  173.1700  142.2580 C   0  0  1  0  0  3  0  0  0  0  0  0
  190.8390  177.1920  144.1590 O   0  0  0  0  0  0  0  0  0  0  0  0
  189.7650  172.5440  141.0290 C   0  0  0  0  0  2  0  0  0  0  0  0
  190.0250  174.9680  144.0990 C   0  0  2  0  0  3  0  0  0  0  0  0
  191.9380  176.3580  144.1610 C   0  0  0  0  0  0  0  0  0  0  0  0
  189.5200  174.3190  142.7870 C   0  0  1  0  0  3  0  0  0  0  0  0
  189.6210  176.4560  144.2210 C   0  0  1  0  0  3  0  0  0  0  0  0
  189.3410  173.6230  140.0370 C   0  0  1  0  0  3  0  0  0  0  0  0
  191.5270  174.9590  144.2180 C   0  0  0  0  0  0  0  0  0  0  0  0
  191.4100  172.5450  144.5710 C   0  0  0  0  0  2  0  0  0  0  0  0
  193.1110  176.8000  144.0840 O   0  0  0  0  0  0  0  0  0  0  0  0
  194.2620  172.7680  145.7360 C   0  0  1  0  0  3  0  0  0  0  0  0
  194.3420  174.2980  145.8280 C   0  0  0  0  0  2  0  0  0  0  0  0
  193.7190  173.6500  144.6220 C   0  0  2  0  0  0  0  0  0  0  0  0
  194.5230  173.7690  143.4810 O   0  0  0  0  0  1  0  0  0  0  0  0
  195.6170  172.2250  145.4300 C   0  0  0  0  0  3  0  0  0  0  0  0
  195.8100  170.9140  145.3620 C   0  0  0  0  0  3  0  0  0  0  0  0
  197.1280  170.3460  145.0580 C   0  0  0  0  0  0  0  0  0  0  0  0
  197.6780  169.5770  145.8870 O   0  0  0  0  0  0  0  0  0  0  0  0
  197.7930  170.6520  143.8340 N   0  0  0  0  0  1  0  0  0  0  0  0
  188.8960  176.7520  145.5350 C   0  0  1  0  0  3  0  0  0  0  0  0
  189.8980  176.9470  146.6610 C   0  0  0  0  0  1  0  0  0  0  0  0
  188.0440  177.9290  145.4040 N   0  0  0  0  0  2  0  0  0  0  0  0
  184.9820  177.8370  140.0270 C   0  0  0  0  0  2  0  0  0  0  0  0
  186.8920  177.9940  144.5590 C   0  0  0  0  0  0  0  0  0  0  0  0
  183.7440  178.5480  140.5700 C   0  0  0  0  0  2  0  0  0  0  0  0
  183.5470  178.2150  141.9810 N   0  0  0  0  0  2  0  0  0  0  0  0
  187.0700  178.0260  143.1720 C   0  0  0  0  0  3  0  0  0  0  0  0
  185.5940  178.0060  145.0950 C   0  0  0  0  0  3  0  0  0  0  0  0
  185.9610  178.0770  142.3250 C   0  0  0  0  0  0  0  0  0  0  0  0
  184.6670  178.1190  142.8630 C   0  0  0  0  0  0  0  0  0  0  0  0
  186.1260  178.0760  140.9050 N   0  0  0  0  0  2  0  0  0  0  0  0
  184.4830  178.0710  144.2480 C   0  0  0  0  0  3  0  0  0  0  0  0
  188.5450  173.0520  139.0430 O   0  0  0  0  0  0  0  0  0  0  0  0
  189.2650  173.4800  137.5670 P   0  0  2  0  0  0  0  0  0  0  0  0
  190.6330  174.0770  137.8150 O   0  0  0  0  0  1  0  0  0  0  0  0
  188.2920  174.6290  136.7960 O   0  0  0  0  0  0  0  0  0  0  0  0
  191.2110  170.9980  138.0000 C   0  0  0  0  0  1  0  0  0  0  0  0
  190.3510  170.0010  136.0270 O   0  0  0  0  0  0  0  0  0  0  0  0
  190.3130  170.9850  136.8100 C   0  0  0  0  0  0  0  0  0  0  0  0
  189.4180  172.0660  136.5340 N   0  0  0  0  0  2  0  0  0  0  0  0
  1  4  1  0  0  0  0
  2 14  1  0  0  0  0
  3 14  1  0  0  0  0
  3 18  1  0  0  0  0
  5  7  1  6  0  0  0
  5 10  1  0  0  0  0
  5  2  1  0  0  0  0
  6  9  1  0  0  0  0
  6 11  1  0  0  0  0
  8 13  1  6  0  0  0
  8 11  1  0  0  0  0
  9 13  1  0  0  0  0
 10  4  1  6  0  0  0
 10  8  1  0  0  0  0
 11 25  1  1  0  0  0
 12 38  1  6  0  0  0
 12  1  1  0  0  0  0
 12  7  1  0  0  0  0
 13  3  2  0  0  0  0
 15  9  2  0  0  0  0
 16 20  1  6  0  0  0
 16 17  1  0  0  0  0
 18 19  1  6  0  0  0
 18 16  1  0  0  0  0
 18 17  1  0  0  0  0
 21 20  2  0  0  0  0
 22 21  1  0  0  0  0
 22 23  2  0  0  0  0
 24 22  1  0  0  0  0
 25 26  1  1  0  0  0
 27 25  1  0  0  0  0
 28 30  1  0  0  0  0
 28 36  1  0  0  0  0
 29 33  1  0  0  0  0
 29 27  1  0  0  0  0
 30 31  1  0  0  0  0
 31 35  1  0  0  0  0
 32 29  2  0  0  0  0
 34 35  2  0  0  0  0
 34 32  1  0  0  0  0
 35 37  1  0  0  0  0
 36 34  1  0  0  0  0
 37 33  2  0  0  0  0
 39 41  2  6  0  0  0
 39 40  1  0  0  0  0
 39 38  1  0  0  0  0
 43 44  2  0  0  0  0
 44 42  1  0  0  0  0
 45 44  1  0  0  0  0
 45 39  1  0  0  0  0
M  END
>  <MODEL>
8

>  <REMARK>
 VINA RESULT:      -7.1      2.941      9.021
  Name = 
  9 active torsions:
  status: ('A' for Active; 'I' for Inactive)
    1  A    between atoms: C_2  and  C_3
    2  A    between atoms: C_7  and  N_30
    3  A    between atoms: C_9  and  N_30
    4  A    between atoms: C_9  and  C_33
    5  A    between atoms: P_10  and  N_41
    6  A    between atoms: P_10  and  O_43
    7  A    between atoms: C_11  and  C_13
    8  A    between atoms: C_15  and  C_26
    9  A    between atoms: C_34  and  O_43
                            x       y       z     vdW  Elec       q    Type
                         _______ _______ _______ _____ _____    ______ ____

>  <TORSDO>
F 9

$$$$
=
 OpenBabel11042414163D

 45 50  0  0  1  0  0  0  0  0999 V2000
  188.4780  176.7250  143.4100 C   0  0  0  0  0  2  0  0  0  0  0  0
  189.6220  172.7470  142.5570 C   0  0  0  0  0  2  0  0  0  0  0  0
  192.0690  173.1950  141.9340 C   0  0  0  0  0  0  0  0  0  0  0  0
  189.8500  176.4800  143.2280 O   0  0  0  0  0  0  0  0  0  0  0  0
  189.4200  174.2570  142.3980 C   0  0  1  0  0  3  0  0  0  0  0  0
  193.2440  176.4060  143.2490 O   0  0  0  0  0  0  0  0  0  0  0  0
  187.9270  174.5580  142.3210 C   0  0  0  0  0  2  0  0  0  0  0  0
  191.5600  174.8220  143.7680 C   0  0  2  0  0  3  0  0  0  0  0  0
  193.2410  175.4720  142.2350 C   0  0  0  0  0  0  0  0  0  0  0  0
  190.0600  175.1160  143.5190 C   0  0  1  0  0  3  0  0  0  0  0  0
  192.3310  176.0610  144.2850 C   0  0  1  0  0  3  0  0  0  0  0  0
  187.6840  176.0640  142.2820 C   0  0  1  0  0  3  0  0  0  0  0  0
  192.2900  174.4010  142.5190 C   0  0  0  0  0  0  0  0  0  0  0  0
  191.0840  172.2800  142.6210 C   0  0  0  0  0  2  0  0  0  0  0  0
  193.9540  175.5980  141.2080 O   0  0  0  0  0  0  0  0  0  0  0  0
  193.0270  171.1150  140.6210 C   0  0  1  0  0  3  0  0  0  0  0  0
  194.1710  172.1040  140.8860 C   0  0  0  0  0  2  0  0  0  0  0  0
  192.7640  172.6090  140.7170 C   0  0  2  0  0  0  0  0  0  0  0  0
  192.5850  173.2840  139.5020 O   0  0  0  0  0  1  0  0  0  0  0  0
  193.1120  170.6350  139.2120 C   0  0  0  0  0  3  0  0  0  0  0  0
  192.2530  169.7280  138.7630 C   0  0  0  0  0  3  0  0  0  0  0  0
  192.3040  169.2400  137.3810 C   0  0  0  0  0  0  0  0  0  0  0  0
  193.0960  169.7750  136.5640 O   0  0  0  0  0  0  0  0  0  0  0  0
  191.4700  168.1660  136.9520 N   0  0  0  0  0  1  0  0  0  0  0  0
  193.0930  175.7670  145.5780 C   0  0  1  0  0  3  0  0  0  0  0  0
  194.4840  176.3760  145.5250 C   0  0  0  0  0  1  0  0  0  0  0  0
  192.3620  176.2720  146.7370 N   0  0  0  0  0  2  0  0  0  0  0  0
  186.5140  178.2920  146.7640 C   0  0  0  0  0  2  0  0  0  0  0  0
  190.9470  176.1620  146.9010 C   0  0  0  0  0  0  0  0  0  0  0  0
  185.9890  177.1610  147.6460 C   0  0  0  0  0  2  0  0  0  0  0  0
  186.7530  175.9370  147.4060 N   0  0  0  0  0  2  0  0  0  0  0  0
  190.1650  177.3200  146.8460 C   0  0  0  0  0  3  0  0  0  0  0  0
  190.3300  174.9150  147.0980 C   0  0  0  0  0  3  0  0  0  0  0  0
  188.7790  177.2370  146.9920 C   0  0  0  0  0  0  0  0  0  0  0  0
  188.1690  175.9950  147.2160 C   0  0  0  0  0  0  0  0  0  0  0  0
  187.9640  178.4090  146.9030 N   0  0  0  0  0  2  0  0  0  0  0  0
  188.9420  174.8330  147.2560 C   0  0  0  0  0  3  0  0  0  0  0  0
  186.3210  176.3180  142.4480 O   0  0  0  0  0  0  0  0  0  0  0  0
  185.9910  177.7050  141.5280 P   0  0  2  0  0  0  0  0  0  0  0  0
  184.5730  177.6510  141.0040 O   0  0  0  0  0  1  0  0  0  0  0  0
  187.0620  177.7630  140.2200 O   0  0  0  0  0  0  0  0  0  0  0  0
  184.1550  178.6540  143.9510 C   0  0  0  0  0  1  0  0  0  0  0  0
  185.5630  180.5380  144.2580 O   0  0  0  0  0  0  0  0  0  0  0  0
  185.3340  179.4950  143.5940 C   0  0  0  0  0  0  0  0  0  0  0  0
  186.2020  179.1480  142.5110 N   0  0  0  0  0  2  0  0  0  0  0  0
  2 14  1  0  0  0  0
  3 13  2  0  0  0  0
  3 14  1  0  0  0  0
  4  1  1  0  0  0  0
  5  7  1  1  0  0  0
  5  2  1  0  0  0  0
  5 10  1  0  0  0  0
  6 11  1  0  0  0  0
  8 13  1  6  0  0  0
  8 11  1  0  0  0  0
  9 13  1  0  0  0  0
  9  6  1  0  0  0  0
 10  4  1  6  0  0  0
 10  8  1  0  0  0  0
 11 25  1  1  0  0  0
 12  7  1  0  0  0  0
 12 38  1  1  0  0  0
 12  1  1  0  0  0  0
 15  9  2  0  0  0  0
 16 20  1  6  0  0  0
 16 18  1  0  0  0  0
 16 17  1  0  0  0  0
 18 19  1  6  0  0  0
 18 17  1  0  0  0  0
 18  3  1  0  0  0  0
 21 20  2  0  0  0  0
 22 21  1  0  0  0  0
 23 22  2  0  0  0  0
 24 22  1  0  0  0  0
 25 26  1  6  0  0  0
 25 27  1  0  0  0  0
 27 29  1  0  0  0  0
 28 36  1  0  0  0  0
 28 30  1  0  0  0  0
 29 33  1  0  0  0  0
 31 30  1  0  0  0  0
 32 29  2  0  0  0  0
 32 34  1  0  0  0  0
 33 37  2  0  0  0  0
 34 35  2  0  0  0  0
 35 37  1  0  0  0  0
 35 31  1  0  0  0  0
 36 34  1  0  0  0  0
 39 41  2  6  0  0  0
 39 38  1  0  0  0  0
 39 45  1  0  0  0  0
 40 39  1  0  0  0  0
 44 42  1  0  0  0  0
 44 43  2  0  0  0  0
 45 44  1  0  0  0  0
M  END
>  <MODEL>
9

>  <REMARK>
 VINA RESULT:      -7.0      3.342      5.428
  Name = 
  9 active torsions:
  status: ('A' for Active; 'I' for Inactive)
    1  A    between atoms: C_2  and  C_3
    2  A    between atoms: C_7  and  N_30
    3  A    between atoms: C_9  and  N_30
    4  A    between atoms: C_9  and  C_33
    5  A    between atoms: P_10  and  N_41
    6  A    between atoms: P_10  and  O_43
    7  A    between atoms: C_11  and  C_13
    8  A    between atoms: C_15  and  C_26
    9  A    between atoms: C_34  and  O_43
                            x       y       z     vdW  Elec       q    Type
                         _______ _______ _______ _____ _____    ______ ____

>  <TORSDO>
F 9

$$$$
