=
 OpenBabel11042416463D

 37 39  0  0  1  0  0  0  0  0999 V2000
  189.1730  175.6120  143.5990 C   0  0  0  0  0  2  0  0  0  0  0  0
  189.1080  175.0230  146.4120 C   0  0  0  0  0  0  0  0  0  0  0  0
  188.8140  176.7160  144.5910 C   0  0  0  0  0  2  0  0  0  0  0  0
  190.1200  174.6050  144.2090 C   0  0  0  0  0  0  0  0  0  0  0  0
  188.9180  174.5630  147.6050 N   0  0  0  0  0  2  0  0  0  0  0  0
  190.0360  174.3160  145.5160 C   0  0  0  0  0  3  0  0  0  0  0  0
  188.2190  176.1150  145.8650 C   0  0  2  0  0  3  0  0  0  0  0  0
  193.4820  173.1630  143.0850 C   0  0  1  0  0  3  0  0  0  0  0  0
  192.4800  172.3300  141.0360 N   0  0  0  0  0  0  0  0  0  0  0  0
  191.0690  173.8660  143.3410 C   0  0  0  0  0  0  0  0  0  0  0  0
  191.3960  173.0460  140.9610 C   0  0  0  0  0  0  0  0  0  0  0  0
  190.7590  173.6950  142.0820 N   0  0  0  0  0  0  0  0  0  0  0  0
  193.2340  171.9580  142.2200 C   0  0  0  0  0  2  0  0  0  0  0  0
  192.2930  173.2930  143.9980 C   0  0  0  0  0  2  0  0  0  0  0  0
  190.8080  173.2260  139.6780 N   0  0  0  0  0  1  0  0  0  0  0  0
  195.0210  172.9690  144.0540 S   0  0  0  0  0  0  0  0  0  0  0  0
  196.5530  176.7370  143.3820 C   0  0  0  0  0  2  0  0  0  0  0  0
  196.7220  176.0690  142.1350 O   0  0  0  0  0  0  0  0  0  0  0  0
  195.7600  174.4930  143.5190 N   0  0  0  0  0  0  0  0  0  0  0  0
  195.8830  175.7050  144.3170 C   0  0  2  0  0  3  0  0  0  0  0  0
  196.2620  173.9200  141.2170 C   0  0  0  0  0  2  0  0  0  0  0  0
  196.2570  174.7780  142.2290 C   0  0  0  0  0  0  0  0  0  0  0  0
  194.5210  176.1980  144.8080 C   0  0  0  0  0  2  0  0  0  0  0  0
  192.8860  176.2690  146.6660 C   0  0  0  0  0  1  0  0  0  0  0  0
  194.3290  175.9930  146.3030 C   0  0  0  0  0  2  0  0  0  0  0  0
  187.9700  177.2020  146.8720 C   0  0  0  0  0  0  0  0  0  0  0  0
  188.9040  177.8280  147.3530 O   0  0  0  0  0  0  0  0  0  0  0  0
  186.5740  177.4960  147.3170 C   0  0  0  0  0  2  0  0  0  0  0  0
  185.9700  178.9120  145.4620 N   0  0  0  0  0  0  0  0  0  0  0  0
  185.7130  177.8630  146.1530 C   0  0  0  0  0  3  0  0  0  0  0  0
  185.1330  179.2640  144.3480 C   0  0  0  0  0  2  0  0  0  0  0  0
  185.8840  179.1310  143.1090 N   0  0  0  0  0  2  0  0  0  0  0  0
  185.5230  176.8330  142.9080 O   0  0  0  0  0  0  0  0  0  0  0  0
  186.0320  177.8810  142.4270 C   0  0  0  0  0  0  0  0  0  0  0  0
  186.0740  177.6120  139.8720 C   0  0  0  0  0  1  0  0  0  0  0  0
  186.7820  177.8160  141.1660 C   0  0  0  0  0  0  0  0  0  0  0  0
  188.0350  177.9310  141.1690 O   0  0  0  0  0  0  0  0  0  0  0  0
  1  4  1  0  0  0  0
  1  3  1  0  0  0  0
  2  5  2  0  0  0  0
  3  7  1  0  0  0  0
  4  6  2  0  0  0  0
  6  2  1  0  0  0  0
  7  2  1  0  0  0  0
  7 26  1  1  0  0  0
  8 14  1  0  0  0  0
  8 16  1  1  0  0  0
  9 13  1  0  0  0  0
 10 14  1  0  0  0  0
 10  4  1  0  0  0  0
 11  9  2  0  0  0  0
 11 12  1  0  0  0  0
 12 10  2  0  0  0  0
 13  8  1  0  0  0  0
 15 11  1  0  0  0  0
 17 20  1  0  0  0  0
 18 22  1  0  0  0  0
 18 17  1  0  0  0  0
 19 16  1  0  0  0  0
 19 20  1  0  0  0  0
 20 23  1  6  0  0  0
 21 22  2  0  0  0  0
 22 19  1  0  0  0  0
 23 25  1  0  0  0  0
 25 24  1  0  0  0  0
 26 28  1  0  0  0  0
 26 27  2  0  0  0  0
 29 30  2  0  0  0  0
 30 28  1  0  0  0  0
 31 29  1  0  0  0  0
 32 31  1  0  0  0  0
 34 33  2  0  0  0  0
 34 32  1  0  0  0  0
 35 36  1  0  0  0  0
 36 37  2  0  0  0  0
 36 34  1  0  0  0  0
M  END
>  <MODEL>
1

>  <REMARK>
 VINA RESULT:      -6.9      0.000      0.000
  Name = 
  11 active torsions:
  status: ('A' for Active; 'I' for Inactive)
    1  A    between atoms: C_2  and  C_7
    2  A    between atoms: C_2  and  C_33
    3  A    between atoms: C_3  and  S_37
    4  A    between atoms: N_6  and  C_16
    5  A    between atoms: C_7  and  C_24
    6  A    between atoms: C_8  and  C_27
    7  A    between atoms: C_10  and  C_25
    8  A    between atoms: C_12  and  C_28
    9  A    between atoms: C_16  and  N_18
   10  A    between atoms: N_26  and  S_37
   11  A    between atoms: C_27  and  C_31
                            x       y       z     vdW  Elec       q    Type
                         _______ _______ _______ _____ _____    ______ ____

>  <TORSDO>
F 11

$$$$
=
 OpenBabel11042416463D

 37 39  0  0  1  0  0  0  0  0999 V2000
  187.4950  175.9760  143.4270 C   0  0  0  0  0  2  0  0  0  0  0  0
  186.2610  177.4950  141.3220 C   0  0  0  0  0  0  0  0  0  0  0  0
  186.0930  176.5440  143.6320 C   0  0  0  0  0  2  0  0  0  0  0  0
  187.7580  175.6540  141.9750 C   0  0  0  0  0  0  0  0  0  0  0  0
  185.9280  178.3190  140.3830 N   0  0  0  0  0  2  0  0  0  0  0  0
  187.2050  176.4090  141.0140 C   0  0  0  0  0  3  0  0  0  0  0  0
  185.8850  177.7810  142.7570 C   0  0  2  0  0  3  0  0  0  0  0  0
  190.6800  173.2290  142.4470 C   0  0  1  0  0  3  0  0  0  0  0  0
  190.3970  172.3920  140.1850 N   0  0  0  0  0  0  0  0  0  0  0  0
  188.7060  174.5710  141.6190 C   0  0  0  0  0  0  0  0  0  0  0  0
  189.7080  173.3490  139.6320 C   0  0  0  0  0  0  0  0  0  0  0  0
  188.8980  174.3020  140.3530 N   0  0  0  0  0  0  0  0  0  0  0  0
  190.4540  172.0170  141.5850 C   0  0  0  0  0  2  0  0  0  0  0  0
  189.3220  173.8010  142.7530 C   0  0  0  0  0  2  0  0  0  0  0  0
  189.7760  173.4830  138.2180 N   0  0  0  0  0  1  0  0  0  0  0  0
  191.5550  172.7850  143.9900 S   0  0  0  0  0  0  0  0  0  0  0  0
  194.0470  176.0660  144.1430 C   0  0  0  0  0  2  0  0  0  0  0  0
  194.5920  175.2670  143.0960 O   0  0  0  0  0  0  0  0  0  0  0  0
  192.7830  174.0620  143.8700 N   0  0  0  0  0  0  0  0  0  0  0  0
  192.8150  175.2880  144.6570 C   0  0  2  0  0  3  0  0  0  0  0  0
  194.1070  173.1900  142.0360 C   0  0  0  0  0  2  0  0  0  0  0  0
  193.8520  174.1180  142.9490 C   0  0  0  0  0  0  0  0  0  0  0  0
  191.5300  176.1010  144.4870 C   0  0  0  0  0  2  0  0  0  0  0  0
  190.5510  177.9440  143.1550 C   0  0  0  0  0  1  0  0  0  0  0  0
  191.7840  177.4810  143.9000 C   0  0  0  0  0  2  0  0  0  0  0  0
  184.4680  178.2640  142.8870 C   0  0  0  0  0  0  0  0  0  0  0  0
  183.5700  177.7290  142.2530 O   0  0  0  0  0  0  0  0  0  0  0  0
  184.1600  179.4300  143.7690 C   0  0  0  0  0  2  0  0  0  0  0  0
  184.4670  178.8850  146.0970 N   0  0  0  0  0  0  0  0  0  0  0  0
  184.9690  179.3740  145.0230 C   0  0  0  0  0  3  0  0  0  0  0  0
  185.2480  178.8400  147.3030 C   0  0  0  0  0  2  0  0  0  0  0  0
  186.6000  178.4020  146.9960 N   0  0  0  0  0  2  0  0  0  0  0  0
  186.2650  176.2090  147.7220 O   0  0  0  0  0  0  0  0  0  0  0  0
  187.0470  177.0610  147.2190 C   0  0  0  0  0  0  0  0  0  0  0  0
  188.8140  175.2380  146.8170 C   0  0  0  0  0  1  0  0  0  0  0  0
  188.4190  176.6730  146.8650 C   0  0  0  0  0  0  0  0  0  0  0  0
  189.2760  177.5560  146.5990 O   0  0  0  0  0  0  0  0  0  0  0  0
  1  3  1  0  0  0  0
  2  7  1  0  0  0  0
  4  1  1  0  0  0  0
  5  2  2  0  0  0  0
  6  2  1  0  0  0  0
  6  4  2  0  0  0  0
  7 26  1  6  0  0  0
  7  3  1  0  0  0  0
  8 14  1  0  0  0  0
  8 16  1  1  0  0  0
  9 13  1  0  0  0  0
 10  4  1  0  0  0  0
 10 14  1  0  0  0  0
 11  9  2  0  0  0  0
 11 12  1  0  0  0  0
 12 10  2  0  0  0  0
 13  8  1  0  0  0  0
 15 11  1  0  0  0  0
 17 20  1  0  0  0  0
 18 17  1  0  0  0  0
 19 16  1  0  0  0  0
 19 20  1  0  0  0  0
 20 23  1  6  0  0  0
 21 22  2  0  0  0  0
 22 18  1  0  0  0  0
 22 19  1  0  0  0  0
 24 25  1  0  0  0  0
 25 23  1  0  0  0  0
 26 28  1  0  0  0  0
 27 26  2  0  0  0  0
 28 30  1  0  0  0  0
 29 31  1  0  0  0  0
 30 29  2  0  0  0  0
 32 34  1  0  0  0  0
 32 31  1  0  0  0  0
 34 33  2  0  0  0  0
 35 36  1  0  0  0  0
 36 34  1  0  0  0  0
 37 36  2  0  0  0  0
M  END
>  <MODEL>
2

>  <REMARK>
 VINA RESULT:      -6.8      2.109      4.228
  Name = 
  11 active torsions:
  status: ('A' for Active; 'I' for Inactive)
    1  A    between atoms: C_2  and  C_7
    2  A    between atoms: C_2  and  C_33
    3  A    between atoms: C_3  and  S_37
    4  A    between atoms: N_6  and  C_16
    5  A    between atoms: C_7  and  C_24
    6  A    between atoms: C_8  and  C_27
    7  A    between atoms: C_10  and  C_25
    8  A    between atoms: C_12  and  C_28
    9  A    between atoms: C_16  and  N_18
   10  A    between atoms: N_26  and  S_37
   11  A    between atoms: C_27  and  C_31
                            x       y       z     vdW  Elec       q    Type
                         _______ _______ _______ _____ _____    ______ ____

>  <TORSDO>
F 11

$$$$
=
 OpenBabel11042416463D

 37 39  0  0  1  0  0  0  0  0999 V2000
  191.3120  173.8790  145.3690 C   0  0  0  0  0  2  0  0  0  0  0  0
  190.9310  176.1970  147.0260 C   0  0  0  0  0  0  0  0  0  0  0  0
  190.0930  174.7700  145.1470 C   0  0  0  0  0  2  0  0  0  0  0  0
  192.4900  174.6690  145.8900 C   0  0  0  0  0  0  0  0  0  0  0  0
  190.7870  177.0680  147.9690 N   0  0  0  0  0  2  0  0  0  0  0  0
  192.2840  175.7180  146.7000 C   0  0  0  0  0  3  0  0  0  0  0  0
  189.7250  175.5030  146.4380 C   0  0  2  0  0  3  0  0  0  0  0  0
  195.9570  174.7670  144.2740 C   0  0  1  0  0  3  0  0  0  0  0  0
  196.5390  172.6490  145.3080 N   0  0  0  0  0  0  0  0  0  0  0  0
  193.8710  174.2200  145.5890 C   0  0  0  0  0  0  0  0  0  0  0  0
  195.3660  172.1680  145.6060 C   0  0  0  0  0  0  0  0  0  0  0  0
  194.1700  172.9590  145.7720 N   0  0  0  0  0  0  0  0  0  0  0  0
  196.9310  174.0380  145.1580 C   0  0  0  0  0  2  0  0  0  0  0  0
  194.8560  175.2720  145.1670 C   0  0  0  0  0  2  0  0  0  0  0  0
  195.2450  170.7580  145.7520 N   0  0  0  0  0  1  0  0  0  0  0  0
  196.7720  176.1550  143.4050 S   0  0  0  0  0  0  0  0  0  0  0  0
  195.0480  175.4440  139.7280 C   0  0  0  0  0  2  0  0  0  0  0  0
  196.1350  174.5240  139.7840 O   0  0  0  0  0  0  0  0  0  0  0  0
  196.2440  175.6790  141.7780 N   0  0  0  0  0  0  0  0  0  0  0  0
  195.0870  176.2100  141.0700 C   0  0  2  0  0  3  0  0  0  0  0  0
  197.8590  173.9320  141.3160 C   0  0  0  0  0  2  0  0  0  0  0  0
  196.8120  174.6700  140.9710 C   0  0  0  0  0  0  0  0  0  0  0  0
  193.7960  176.0070  141.8660 C   0  0  0  0  0  2  0  0  0  0  0  0
  191.7420  174.6310  141.7400 C   0  0  0  0  0  1  0  0  0  0  0  0
  193.2550  174.5910  141.7530 C   0  0  0  0  0  2  0  0  0  0  0  0
  188.5930  176.4560  146.1780 C   0  0  0  0  0  0  0  0  0  0  0  0
  188.6860  177.3060  145.3050 O   0  0  0  0  0  0  0  0  0  0  0  0
  187.3580  176.3870  147.0160 C   0  0  0  0  0  2  0  0  0  0  0  0
  185.6230  178.0540  146.8680 N   0  0  0  0  0  0  0  0  0  0  0  0
  186.2120  177.0510  146.3270 C   0  0  0  0  0  3  0  0  0  0  0  0
  184.5160  178.6850  146.2030 C   0  0  0  0  0  2  0  0  0  0  0  0
  184.4300  178.2090  144.8320 N   0  0  0  0  0  2  0  0  0  0  0  0
  185.5010  180.0690  143.9130 O   0  0  0  0  0  0  0  0  0  0  0  0
  184.9570  178.9470  143.7240 C   0  0  0  0  0  0  0  0  0  0  0  0
  186.0720  178.2930  141.5030 C   0  0  0  0  0  1  0  0  0  0  0  0
  184.8620  178.4010  142.3640 C   0  0  0  0  0  0  0  0  0  0  0  0
  183.7510  178.0200  141.9120 O   0  0  0  0  0  0  0  0  0  0  0  0
  1  4  1  0  0  0  0
  2  5  2  0  0  0  0
  3  1  1  0  0  0  0
  3  7  1  0  0  0  0
  4  6  2  0  0  0  0
  6  2  1  0  0  0  0
  7 26  1  6  0  0  0
  7  2  1  0  0  0  0
  8 16  1  1  0  0  0
  8 13  1  0  0  0  0
  8 14  1  0  0  0  0
  9 11  2  0  0  0  0
 10 12  2  0  0  0  0
 10  4  1  0  0  0  0
 11 15  1  0  0  0  0
 11 12  1  0  0  0  0
 13  9  1  0  0  0  0
 14 10  1  0  0  0  0
 17 18  1  0  0  0  0
 17 20  1  0  0  0  0
 18 22  1  0  0  0  0
 19 16  1  0  0  0  0
 20 19  1  0  0  0  0
 20 23  1  1  0  0  0
 22 21  2  0  0  0  0
 22 19  1  0  0  0  0
 24 25  1  0  0  0  0
 25 23  1  0  0  0  0
 26 28  1  0  0  0  0
 27 26  2  0  0  0  0
 30 29  2  0  0  0  0
 30 28  1  0  0  0  0
 31 29  1  0  0  0  0
 32 31  1  0  0  0  0
 34 33  2  0  0  0  0
 34 32  1  0  0  0  0
 35 36  1  0  0  0  0
 36 34  1  0  0  0  0
 37 36  2  0  0  0  0
M  END
>  <MODEL>
3

>  <REMARK>
 VINA RESULT:      -6.5      2.416      3.526
  Name = 
  11 active torsions:
  status: ('A' for Active; 'I' for Inactive)
    1  A    between atoms: C_2  and  C_7
    2  A    between atoms: C_2  and  C_33
    3  A    between atoms: C_3  and  S_37
    4  A    between atoms: N_6  and  C_16
    5  A    between atoms: C_7  and  C_24
    6  A    between atoms: C_8  and  C_27
    7  A    between atoms: C_10  and  C_25
    8  A    between atoms: C_12  and  C_28
    9  A    between atoms: C_16  and  N_18
   10  A    between atoms: N_26  and  S_37
   11  A    between atoms: C_27  and  C_31
                            x       y       z     vdW  Elec       q    Type
                         _______ _______ _______ _____ _____    ______ ____

>  <TORSDO>
F 11

$$$$
=
 OpenBabel11042416463D

 37 39  0  0  1  0  0  0  0  0999 V2000
  188.8040  173.9100  142.3480 C   0  0  0  0  0  2  0  0  0  0  0  0
  189.2240  176.6830  142.9790 C   0  0  0  0  0  0  0  0  0  0  0  0
  187.7460  174.9390  141.9570 C   0  0  0  0  0  2  0  0  0  0  0  0
  190.1910  174.5110  142.3450 C   0  0  0  0  0  0  0  0  0  0  0  0
  189.4520  177.8400  143.5060 N   0  0  0  0  0  2  0  0  0  0  0  0
  190.3610  175.7960  142.6890 C   0  0  0  0  0  3  0  0  0  0  0  0
  187.8120  176.1520  142.8860 C   0  0  2  0  0  3  0  0  0  0  0  0
  193.6740  173.0170  142.8700 C   0  0  1  0  0  3  0  0  0  0  0  0
  193.4760  171.7410  140.8140 N   0  0  0  0  0  0  0  0  0  0  0  0
  191.3670  173.6520  142.0630 C   0  0  0  0  0  0  0  0  0  0  0  0
  192.5240  172.3790  140.1970 C   0  0  0  0  0  0  0  0  0  0  0  0
  191.5400  173.2150  140.8420 N   0  0  0  0  0  0  0  0  0  0  0  0
  193.7220  171.6520  142.2420 C   0  0  0  0  0  2  0  0  0  0  0  0
  192.2360  173.2790  143.2290 C   0  0  0  0  0  2  0  0  0  0  0  0
  192.4620  172.2670  138.7800 N   0  0  0  0  0  1  0  0  0  0  0  0
  194.7350  173.0930  144.3590 S   0  0  0  0  0  0  0  0  0  0  0  0
  196.4830  176.7340  143.5310 C   0  0  0  0  0  2  0  0  0  0  0  0
  197.1550  175.8230  142.6640 O   0  0  0  0  0  0  0  0  0  0  0  0
  195.6620  174.5160  143.8420 N   0  0  0  0  0  0  0  0  0  0  0  0
  195.4570  175.8800  144.3110 C   0  0  2  0  0  3  0  0  0  0  0  0
  197.0880  173.4950  142.1690 C   0  0  0  0  0  2  0  0  0  0  0  0
  196.6690  174.5510  142.8530 C   0  0  0  0  0  0  0  0  0  0  0  0
  194.0260  176.3560  144.0540 C   0  0  0  0  0  2  0  0  0  0  0  0
  194.0700  176.4970  146.5260 C   0  0  0  0  0  1  0  0  0  0  0  0
  193.1740  176.3550  145.3140 C   0  0  0  0  0  2  0  0  0  0  0  0
  186.8410  177.2000  142.4240 C   0  0  0  0  0  0  0  0  0  0  0  0
  186.9680  177.7240  141.3270 O   0  0  0  0  0  0  0  0  0  0  0  0
  185.7310  177.6320  143.3270 C   0  0  0  0  0  2  0  0  0  0  0  0
  186.5310  177.9830  145.5740 N   0  0  0  0  0  0  0  0  0  0  0  0
  185.9860  177.1870  144.7300 C   0  0  0  0  0  3  0  0  0  0  0  0
  186.7810  177.5460  146.9200 C   0  0  0  0  0  2  0  0  0  0  0  0
  187.6640  176.3910  146.9060 N   0  0  0  0  0  2  0  0  0  0  0  0
  189.6300  177.6480  146.9760 O   0  0  0  0  0  0  0  0  0  0  0  0
  189.0900  176.5090  146.9480 C   0  0  0  0  0  0  0  0  0  0  0  0
  189.6770  174.1960  145.9950 C   0  0  0  0  0  1  0  0  0  0  0  0
  189.9290  175.3040  146.9570 C   0  0  0  0  0  0  0  0  0  0  0  0
  190.8740  175.1980  147.7820 O   0  0  0  0  0  0  0  0  0  0  0  0
  2  5  2  0  0  0  0
  3  1  1  0  0  0  0
  3  7  1  0  0  0  0
  4  1  1  0  0  0  0
  4  6  2  0  0  0  0
  6  2  1  0  0  0  0
  7 26  1  6  0  0  0
  7  2  1  0  0  0  0
  8 14  1  0  0  0  0
  8 16  1  1  0  0  0
  9 13  1  0  0  0  0
 10  4  1  0  0  0  0
 10 14  1  0  0  0  0
 11  9  2  0  0  0  0
 11 12  1  0  0  0  0
 12 10  2  0  0  0  0
 13  8  1  0  0  0  0
 15 11  1  0  0  0  0
 17 20  1  0  0  0  0
 18 22  1  0  0  0  0
 18 17  1  0  0  0  0
 19 20  1  0  0  0  0
 19 16  1  0  0  0  0
 20 23  1  6  0  0  0
 21 22  2  0  0  0  0
 22 19  1  0  0  0  0
 23 25  1  0  0  0  0
 25 24  1  0  0  0  0
 26 28  1  0  0  0  0
 27 26  2  0  0  0  0
 28 30  1  0  0  0  0
 29 31  1  0  0  0  0
 30 29  2  0  0  0  0
 32 31  1  0  0  0  0
 32 34  1  0  0  0  0
 34 36  1  0  0  0  0
 34 33  2  0  0  0  0
 35 36  1  0  0  0  0
 36 37  2  0  0  0  0
M  END
>  <MODEL>
4

>  <REMARK>
 VINA RESULT:      -6.4      1.466      3.520
  Name = 
  11 active torsions:
  status: ('A' for Active; 'I' for Inactive)
    1  A    between atoms: C_2  and  C_7
    2  A    between atoms: C_2  and  C_33
    3  A    between atoms: C_3  and  S_37
    4  A    between atoms: N_6  and  C_16
    5  A    between atoms: C_7  and  C_24
    6  A    between atoms: C_8  and  C_27
    7  A    between atoms: C_10  and  C_25
    8  A    between atoms: C_12  and  C_28
    9  A    between atoms: C_16  and  N_18
   10  A    between atoms: N_26  and  S_37
   11  A    between atoms: C_27  and  C_31
                            x       y       z     vdW  Elec       q    Type
                         _______ _______ _______ _____ _____    ______ ____

>  <TORSDO>
F 11

$$$$
=
 OpenBabel11042416463D

 37 39  0  0  1  0  0  0  0  0999 V2000
  188.6560  175.7870  143.4120 C   0  0  0  0  0  2  0  0  0  0  0  0
  189.0480  175.1070  146.1770 C   0  0  0  0  0  0  0  0  0  0  0  0
  188.6460  176.8910  144.4670 C   0  0  0  0  0  2  0  0  0  0  0  0
  189.5550  174.6430  143.8150 C   0  0  0  0  0  0  0  0  0  0  0  0
  189.0280  174.6320  147.3790 N   0  0  0  0  0  2  0  0  0  0  0  0
  189.6830  174.3180  145.1100 C   0  0  0  0  0  3  0  0  0  0  0  0
  188.2280  176.3270  145.8250 C   0  0  2  0  0  3  0  0  0  0  0  0
  192.4470  173.0440  141.8840 C   0  0  1  0  0  3  0  0  0  0  0  0
  190.8930  172.0780  140.2870 N   0  0  0  0  0  0  0  0  0  0  0  0
  190.2120  173.8180  142.7710 C   0  0  0  0  0  0  0  0  0  0  0  0
  189.8330  172.8100  140.4730 C   0  0  0  0  0  0  0  0  0  0  0  0
  189.5490  173.5580  141.6740 N   0  0  0  0  0  0  0  0  0  0  0  0
  191.9590  171.7820  141.2270 C   0  0  0  0  0  2  0  0  0  0  0  0
  191.5740  173.2700  143.0890 C   0  0  0  0  0  2  0  0  0  0  0  0
  188.8970  172.9030  139.4050 N   0  0  0  0  0  1  0  0  0  0  0  0
  194.2010  172.8920  142.3770 S   0  0  0  0  0  0  0  0  0  0  0  0
  194.1900  176.4130  144.5220 C   0  0  0  0  0  2  0  0  0  0  0  0
  194.2630  175.4000  145.5220 O   0  0  0  0  0  0  0  0  0  0  0  0
  194.1800  174.2470  143.5250 N   0  0  0  0  0  0  0  0  0  0  0  0
  194.1620  175.6600  143.1730 C   0  0  2  0  0  3  0  0  0  0  0  0
  194.3410  173.0220  145.6110 C   0  0  0  0  0  2  0  0  0  0  0  0
  194.2590  174.1580  144.9320 C   0  0  0  0  0  0  0  0  0  0  0  0
  195.3580  176.0380  142.2970 C   0  0  0  0  0  2  0  0  0  0  0  0
  197.6240  175.6150  143.2020 C   0  0  0  0  0  1  0  0  0  0  0  0
  196.5070  176.6310  143.0990 C   0  0  0  0  0  2  0  0  0  0  0  0
  188.3270  177.3980  146.8740 C   0  0  0  0  0  0  0  0  0  0  0  0
  189.4110  177.8780  147.1710 O   0  0  0  0  0  0  0  0  0  0  0  0
  187.0940  177.8560  147.5850 C   0  0  0  0  0  2  0  0  0  0  0  0
  185.8350  178.9830  145.8660 N   0  0  0  0  0  0  0  0  0  0  0  0
  185.9450  177.9640  146.6370 C   0  0  0  0  0  3  0  0  0  0  0  0
  184.7230  179.0850  144.9610 C   0  0  0  0  0  2  0  0  0  0  0  0
  185.2080  179.1380  143.5910 N   0  0  0  0  0  2  0  0  0  0  0  0
  185.3250  176.8200  143.3350 O   0  0  0  0  0  0  0  0  0  0  0  0
  185.4800  177.9620  142.8220 C   0  0  0  0  0  0  0  0  0  0  0  0
  184.9750  178.2870  140.3230 C   0  0  0  0  0  1  0  0  0  0  0  0
  185.9450  178.0800  141.4340 C   0  0  0  0  0  0  0  0  0  0  0  0
  187.1740  178.0060  141.1710 O   0  0  0  0  0  0  0  0  0  0  0  0
  1  4  1  0  0  0  0
  1  3  1  0  0  0  0
  2  5  2  0  0  0  0
  3  7  1  0  0  0  0
  4  6  2  0  0  0  0
  6  2  1  0  0  0  0
  7  2  1  0  0  0  0
  7 26  1  1  0  0  0
  8 16  1  1  0  0  0
  8 14  1  0  0  0  0
  9 11  2  0  0  0  0
  9 13  1  0  0  0  0
 10 14  1  0  0  0  0
 10  4  1  0  0  0  0
 11 12  1  0  0  0  0
 12 10  2  0  0  0  0
 13  8  1  0  0  0  0
 15 11  1  0  0  0  0
 16 19  1  0  0  0  0
 17 18  1  0  0  0  0
 19 22  1  0  0  0  0
 20 23  1  6  0  0  0
 20 19  1  0  0  0  0
 20 17  1  0  0  0  0
 22 18  1  0  0  0  0
 22 21  2  0  0  0  0
 23 25  1  0  0  0  0
 25 24  1  0  0  0  0
 26 27  2  0  0  0  0
 26 28  1  0  0  0  0
 29 30  2  0  0  0  0
 30 28  1  0  0  0  0
 31 29  1  0  0  0  0
 32 31  1  0  0  0  0
 34 33  2  0  0  0  0
 34 32  1  0  0  0  0
 35 36  1  0  0  0  0
 36 34  1  0  0  0  0
 37 36  2  0  0  0  0
M  END
>  <MODEL>
5

>  <REMARK>
 VINA RESULT:      -6.4      1.363      2.048
  Name = 
  11 active torsions:
  status: ('A' for Active; 'I' for Inactive)
    1  A    between atoms: C_2  and  C_7
    2  A    between atoms: C_2  and  C_33
    3  A    between atoms: C_3  and  S_37
    4  A    between atoms: N_6  and  C_16
    5  A    between atoms: C_7  and  C_24
    6  A    between atoms: C_8  and  C_27
    7  A    between atoms: C_10  and  C_25
    8  A    between atoms: C_12  and  C_28
    9  A    between atoms: C_16  and  N_18
   10  A    between atoms: N_26  and  S_37
   11  A    between atoms: C_27  and  C_31
                            x       y       z     vdW  Elec       q    Type
                         _______ _______ _______ _____ _____    ______ ____

>  <TORSDO>
F 11

$$$$
=
 OpenBabel11042416463D

 37 39  0  0  1  0  0  0  0  0999 V2000
  190.0820  176.7960  144.0210 C   0  0  0  0  0  2  0  0  0  0  0  0
  189.3050  175.4230  146.4240 C   0  0  0  0  0  0  0  0  0  0  0  0
  189.1030  177.4620  144.9850 C   0  0  0  0  0  2  0  0  0  0  0  0
  191.0460  175.8880  144.7480 C   0  0  0  0  0  0  0  0  0  0  0  0
  188.8960  174.6100  147.3410 N   0  0  0  0  0  2  0  0  0  0  0  0
  190.6410  175.2230  145.8410 C   0  0  0  0  0  3  0  0  0  0  0  0
  188.3470  176.4060  145.7920 C   0  0  2  0  0  3  0  0  0  0  0  0
  193.6660  174.8640  142.1540 C   0  0  1  0  0  3  0  0  0  0  0  0
  195.4540  175.2710  143.7460 N   0  0  0  0  0  0  0  0  0  0  0  0
  192.4010  175.6540  144.1930 C   0  0  0  0  0  0  0  0  0  0  0  0
  194.8110  175.2460  144.8790 C   0  0  0  0  0  0  0  0  0  0  0  0
  193.3950  175.4820  145.0270 N   0  0  0  0  0  0  0  0  0  0  0  0
  194.9450  175.6070  142.4300 C   0  0  0  0  0  2  0  0  0  0  0  0
  192.5480  175.7110  142.6990 C   0  0  0  0  0  2  0  0  0  0  0  0
  195.5510  174.9360  146.0540 N   0  0  0  0  0  1  0  0  0  0  0  0
  193.4450  174.5800  140.3610 S   0  0  0  0  0  0  0  0  0  0  0  0
  190.9920  171.2720  140.5330 C   0  0  0  0  0  2  0  0  0  0  0  0
  192.2030  170.8350  141.1430 O   0  0  0  0  0  0  0  0  0  0  0  0
  192.6120  173.0220  140.5300 N   0  0  0  0  0  0  0  0  0  0  0  0
  191.2360  172.7460  140.1400 C   0  0  2  0  0  3  0  0  0  0  0  0
  194.3410  171.7500  141.6580 C   0  0  0  0  0  2  0  0  0  0  0  0
  193.1260  171.8550  141.1360 C   0  0  0  0  0  0  0  0  0  0  0  0
  190.2510  173.6820  140.8440 C   0  0  0  0  0  2  0  0  0  0  0  0
  188.5310  173.2610  142.5750 C   0  0  0  0  0  1  0  0  0  0  0  0
  190.0180  173.3000  142.2980 C   0  0  0  0  0  2  0  0  0  0  0  0
  187.4680  177.0760  146.8100 C   0  0  0  0  0  0  0  0  0  0  0  0
  187.9250  177.9240  147.5630 O   0  0  0  0  0  0  0  0  0  0  0  0
  186.0320  176.6780  146.9270 C   0  0  0  0  0  2  0  0  0  0  0  0
  184.8390  178.2900  145.5900 N   0  0  0  0  0  0  0  0  0  0  0  0
  185.2680  177.0880  145.7110 C   0  0  0  0  0  3  0  0  0  0  0  0
  184.0970  178.6780  144.4220 C   0  0  0  0  0  2  0  0  0  0  0  0
  184.5770  177.9350  143.2670 N   0  0  0  0  0  2  0  0  0  0  0  0
  186.3100  179.4220  142.7840 O   0  0  0  0  0  0  0  0  0  0  0  0
  185.7040  178.3560  142.4920 C   0  0  0  0  0  0  0  0  0  0  0  0
  187.1920  176.4940  141.5300 C   0  0  0  0  0  1  0  0  0  0  0  0
  186.1560  177.5490  141.3510 C   0  0  0  0  0  0  0  0  0  0  0  0
  185.6690  177.7440  140.2070 O   0  0  0  0  0  0  0  0  0  0  0  0
  1  4  1  0  0  0  0
  1  3  1  0  0  0  0
  2  5  2  0  0  0  0
  3  7  1  0  0  0  0
  4  6  2  0  0  0  0
  6  2  1  0  0  0  0
  7  2  1  0  0  0  0
  7 26  1  1  0  0  0
  8 16  1  6  0  0  0
  8 13  1  0  0  0  0
  8 14  1  0  0  0  0
  9 11  2  0  0  0  0
 10  4  1  0  0  0  0
 10 12  2  0  0  0  0
 11 12  1  0  0  0  0
 11 15  1  0  0  0  0
 13  9  1  0  0  0  0
 14 10  1  0  0  0  0
 16 19  1  0  0  0  0
 17 18  1  0  0  0  0
 19 22  1  0  0  0  0
 20 19  1  0  0  0  0
 20 17  1  0  0  0  0
 20 23  1  1  0  0  0
 22 18  1  0  0  0  0
 22 21  2  0  0  0  0
 23 25  1  0  0  0  0
 25 24  1  0  0  0  0
 26 28  1  0  0  0  0
 26 27  2  0  0  0  0
 29 30  2  0  0  0  0
 30 28  1  0  0  0  0
 31 29  1  0  0  0  0
 32 31  1  0  0  0  0
 34 33  2  0  0  0  0
 34 32  1  0  0  0  0
 36 35  1  0  0  0  0
 36 34  1  0  0  0  0
 37 36  2  0  0  0  0
M  END
>  <MODEL>
6

>  <REMARK>
 VINA RESULT:      -6.4      2.046      3.934
  Name = 
  11 active torsions:
  status: ('A' for Active; 'I' for Inactive)
    1  A    between atoms: C_2  and  C_7
    2  A    between atoms: C_2  and  C_33
    3  A    between atoms: C_3  and  S_37
    4  A    between atoms: N_6  and  C_16
    5  A    between atoms: C_7  and  C_24
    6  A    between atoms: C_8  and  C_27
    7  A    between atoms: C_10  and  C_25
    8  A    between atoms: C_12  and  C_28
    9  A    between atoms: C_16  and  N_18
   10  A    between atoms: N_26  and  S_37
   11  A    between atoms: C_27  and  C_31
                            x       y       z     vdW  Elec       q    Type
                         _______ _______ _______ _____ _____    ______ ____

>  <TORSDO>
F 11

$$$$
=
 OpenBabel11042416463D

 37 39  0  0  1  0  0  0  0  0999 V2000
  190.9820  173.2530  144.6920 C   0  0  0  0  0  2  0  0  0  0  0  0
  191.1760  175.2550  146.7460 C   0  0  0  0  0  0  0  0  0  0  0  0
  190.0680  174.4740  144.6410 C   0  0  0  0  0  2  0  0  0  0  0  0
  192.3060  173.5770  145.3440 C   0  0  0  0  0  0  0  0  0  0  0  0
  191.2330  175.9520  147.8320 N   0  0  0  0  0  2  0  0  0  0  0  0
  192.3590  174.4830  146.3320 C   0  0  0  0  0  3  0  0  0  0  0  0
  189.8550  175.0400  146.0450 C   0  0  2  0  0  3  0  0  0  0  0  0
  195.9870  173.0360  144.4500 C   0  0  1  0  0  3  0  0  0  0  0  0
  195.5750  170.6800  144.0300 N   0  0  0  0  0  0  0  0  0  0  0  0
  193.5230  172.8200  144.9610 C   0  0  0  0  0  0  0  0  0  0  0  0
  194.2840  170.6610  143.8640 C   0  0  0  0  0  0  0  0  0  0  0  0
  193.3750  171.6640  144.3660 N   0  0  0  0  0  0  0  0  0  0  0  0
  196.3720  171.6230  144.7930 C   0  0  0  0  0  2  0  0  0  0  0  0
  194.8470  173.4070  145.3590 C   0  0  0  0  0  2  0  0  0  0  0  0
  193.7280  169.5910  143.1110 N   0  0  0  0  0  1  0  0  0  0  0  0
  197.3970  174.1760  144.6840 S   0  0  0  0  0  0  0  0  0  0  0  0
  196.3750  176.8150  141.6860 C   0  0  0  0  0  2  0  0  0  0  0  0
  196.9690  175.7200  140.9940 O   0  0  0  0  0  0  0  0  0  0  0  0
  197.0910  175.1390  143.2240 N   0  0  0  0  0  0  0  0  0  0  0  0
  196.4210  176.4320  143.1820 C   0  0  2  0  0  3  0  0  0  0  0  0
  197.9410  173.6160  141.5410 C   0  0  0  0  0  2  0  0  0  0  0  0
  197.3740  174.7610  141.8930 C   0  0  0  0  0  0  0  0  0  0  0  0
  195.0170  176.3590  143.7840 C   0  0  0  0  0  2  0  0  0  0  0  0
  192.6430  176.5830  143.1170 C   0  0  0  0  0  1  0  0  0  0  0  0
  193.9660  175.9360  142.7700 C   0  0  0  0  0  2  0  0  0  0  0  0
  189.0430  176.3020  145.9670 C   0  0  0  0  0  0  0  0  0  0  0  0
  188.0090  176.4150  146.6090 O   0  0  0  0  0  0  0  0  0  0  0  0
  189.4840  177.4140  145.0710 C   0  0  0  0  0  2  0  0  0  0  0  0
  189.0490  177.8590  142.7420 N   0  0  0  0  0  0  0  0  0  0  0  0
  188.5790  177.5330  143.8890 C   0  0  0  0  0  3  0  0  0  0  0  0
  188.1720  177.9790  141.6100 C   0  0  0  0  0  2  0  0  0  0  0  0
  186.8100  178.2040  142.0660 N   0  0  0  0  0  2  0  0  0  0  0  0
  185.8220  177.5900  140.0410 O   0  0  0  0  0  0  0  0  0  0  0  0
  185.6690  177.9770  141.2310 C   0  0  0  0  0  0  0  0  0  0  0  0
  184.1000  178.4770  143.2040 C   0  0  0  0  0  1  0  0  0  0  0  0
  184.3160  178.1980  141.7580 C   0  0  0  0  0  0  0  0  0  0  0  0
  183.3220  178.1520  140.9860 O   0  0  0  0  0  0  0  0  0  0  0  0
  1  4  1  0  0  0  0
  2  5  2  0  0  0  0
  3  1  1  0  0  0  0
  3  7  1  0  0  0  0
  4  6  2  0  0  0  0
  6  2  1  0  0  0  0
  7 26  1  6  0  0  0
  7  2  1  0  0  0  0
  8 16  1  1  0  0  0
  8 13  1  0  0  0  0
  8 14  1  0  0  0  0
  9 13  1  0  0  0  0
 10  4  1  0  0  0  0
 10 14  1  0  0  0  0
 11  9  2  0  0  0  0
 11 12  1  0  0  0  0
 12 10  2  0  0  0  0
 15 11  1  0  0  0  0
 17 20  1  0  0  0  0
 18 17  1  0  0  0  0
 18 22  1  0  0  0  0
 19 16  1  0  0  0  0
 20 19  1  0  0  0  0
 20 23  1  6  0  0  0
 21 22  2  0  0  0  0
 22 19  1  0  0  0  0
 25 24  1  0  0  0  0
 25 23  1  0  0  0  0
 26 27  2  0  0  0  0
 28 26  1  0  0  0  0
 29 30  2  0  0  0  0
 30 28  1  0  0  0  0
 31 32  1  0  0  0  0
 31 29  1  0  0  0  0
 33 34  2  0  0  0  0
 34 36  1  0  0  0  0
 34 32  1  0  0  0  0
 36 35  1  0  0  0  0
 37 36  2  0  0  0  0
M  END
>  <MODEL>
7

>  <REMARK>
 VINA RESULT:      -6.4      2.293      3.104
  Name = 
  11 active torsions:
  status: ('A' for Active; 'I' for Inactive)
    1  A    between atoms: C_2  and  C_7
    2  A    between atoms: C_2  and  C_33
    3  A    between atoms: C_3  and  S_37
    4  A    between atoms: N_6  and  C_16
    5  A    between atoms: C_7  and  C_24
    6  A    between atoms: C_8  and  C_27
    7  A    between atoms: C_10  and  C_25
    8  A    between atoms: C_12  and  C_28
    9  A    between atoms: C_16  and  N_18
   10  A    between atoms: N_26  and  S_37
   11  A    between atoms: C_27  and  C_31
                            x       y       z     vdW  Elec       q    Type
                         _______ _______ _______ _____ _____    ______ ____

>  <TORSDO>
F 11

$$$$
=
 OpenBabel11042416463D

 37 39  0  0  1  0  0  0  0  0999 V2000
  187.2480  176.1080  143.4510 C   0  0  0  0  0  2  0  0  0  0  0  0
  186.1530  177.5440  141.2140 C   0  0  0  0  0  0  0  0  0  0  0  0
  185.7920  176.5630  143.4900 C   0  0  0  0  0  2  0  0  0  0  0  0
  187.7020  175.8190  142.0390 C   0  0  0  0  0  0  0  0  0  0  0  0
  185.8680  178.3460  140.2430 N   0  0  0  0  0  2  0  0  0  0  0  0
  187.2080  176.5370  141.0190 C   0  0  0  0  0  3  0  0  0  0  0  0
  185.5920  177.7880  142.5960 C   0  0  2  0  0  3  0  0  0  0  0  0
  190.8810  173.8090  142.7460 C   0  0  1  0  0  3  0  0  0  0  0  0
  190.6910  172.6870  140.6000 N   0  0  0  0  0  0  0  0  0  0  0  0
  188.7670  174.8140  141.7970 C   0  0  0  0  0  0  0  0  0  0  0  0
  189.8970  173.4890  139.9510 C   0  0  0  0  0  0  0  0  0  0  0  0
  188.9860  174.4230  140.5690 N   0  0  0  0  0  0  0  0  0  0  0  0
  190.7930  172.4870  142.0340 C   0  0  0  0  0  2  0  0  0  0  0  0
  189.4680  174.2570  143.0030 C   0  0  0  0  0  2  0  0  0  0  0  0
  189.9470  173.4640  138.5290 N   0  0  0  0  0  1  0  0  0  0  0  0
  191.8040  173.6490  144.3160 S   0  0  0  0  0  0  0  0  0  0  0  0
  195.3940  175.2360  143.0550 C   0  0  0  0  0  2  0  0  0  0  0  0
  194.5880  176.3790  143.3260 O   0  0  0  0  0  0  0  0  0  0  0  0
  193.2210  174.5770  143.7830 N   0  0  0  0  0  0  0  0  0  0  0  0
  194.5040  174.0160  143.3830 C   0  0  2  0  0  3  0  0  0  0  0  0
  192.3800  176.8290  144.0950 C   0  0  0  0  0  2  0  0  0  0  0  0
  193.3400  175.9840  143.7470 C   0  0  0  0  0  0  0  0  0  0  0  0
  195.1160  173.1600  144.4920 C   0  0  0  0  0  2  0  0  0  0  0  0
  196.9340  173.5180  146.1360 C   0  0  0  0  0  1  0  0  0  0  0  0
  195.5660  173.9850  145.6880 C   0  0  0  0  0  2  0  0  0  0  0  0
  184.1360  178.1590  142.5590 C   0  0  0  0  0  0  0  0  0  0  0  0
  183.4120  177.7420  141.6670 O   0  0  0  0  0  0  0  0  0  0  0  0
  183.5780  179.0740  143.6010 C   0  0  0  0  0  2  0  0  0  0  0  0
  184.3590  178.7880  145.8630 N   0  0  0  0  0  0  0  0  0  0  0  0
  184.5650  179.2890  144.7010 C   0  0  0  0  0  3  0  0  0  0  0  0
  185.3080  179.0040  146.9200 C   0  0  0  0  0  2  0  0  0  0  0  0
  186.5740  178.3740  146.5800 N   0  0  0  0  0  2  0  0  0  0  0  0
  186.2790  176.5570  148.0150 O   0  0  0  0  0  0  0  0  0  0  0  0
  186.9990  177.1360  147.1570 C   0  0  0  0  0  0  0  0  0  0  0  0
  189.4420  177.3940  146.4030 C   0  0  0  0  0  1  0  0  0  0  0  0
  188.2780  176.5360  146.7540 C   0  0  0  0  0  0  0  0  0  0  0  0
  188.4000  175.2840  146.7020 O   0  0  0  0  0  0  0  0  0  0  0  0
  1  3  1  0  0  0  0
  2  7  1  0  0  0  0
  4  1  1  0  0  0  0
  5  2  2  0  0  0  0
  6  2  1  0  0  0  0
  6  4  2  0  0  0  0
  7 26  1  6  0  0  0
  7  3  1  0  0  0  0
  8 14  1  0  0  0  0
  8 16  1  1  0  0  0
  9 13  1  0  0  0  0
 10  4  1  0  0  0  0
 10 14  1  0  0  0  0
 11 12  1  0  0  0  0
 11  9  2  0  0  0  0
 12 10  2  0  0  0  0
 13  8  1  0  0  0  0
 15 11  1  0  0  0  0
 17 18  1  0  0  0  0
 17 20  1  0  0  0  0
 18 22  1  0  0  0  0
 19 16  1  0  0  0  0
 20 19  1  0  0  0  0
 20 23  1  1  0  0  0
 22 19  1  0  0  0  0
 22 21  2  0  0  0  0
 23 25  1  0  0  0  0
 25 24  1  0  0  0  0
 26 28  1  0  0  0  0
 27 26  2  0  0  0  0
 28 30  1  0  0  0  0
 29 31  1  0  0  0  0
 30 29  2  0  0  0  0
 32 31  1  0  0  0  0
 32 34  1  0  0  0  0
 34 33  2  0  0  0  0
 35 36  1  0  0  0  0
 36 34  1  0  0  0  0
 37 36  2  0  0  0  0
M  END
>  <MODEL>
8

>  <REMARK>
 VINA RESULT:      -6.4      2.124      4.322
  Name = 
  11 active torsions:
  status: ('A' for Active; 'I' for Inactive)
    1  A    between atoms: C_2  and  C_7
    2  A    between atoms: C_2  and  C_33
    3  A    between atoms: C_3  and  S_37
    4  A    between atoms: N_6  and  C_16
    5  A    between atoms: C_7  and  C_24
    6  A    between atoms: C_8  and  C_27
    7  A    between atoms: C_10  and  C_25
    8  A    between atoms: C_12  and  C_28
    9  A    between atoms: C_16  and  N_18
   10  A    between atoms: N_26  and  S_37
   11  A    between atoms: C_27  and  C_31
                            x       y       z     vdW  Elec       q    Type
                         _______ _______ _______ _____ _____    ______ ____

>  <TORSDO>
F 11

$$$$
=
 OpenBabel11042416463D

 37 39  0  0  1  0  0  0  0  0999 V2000
  189.6160  177.2480  144.0220 C   0  0  0  0  0  2  0  0  0  0  0  0
  188.9710  175.8230  146.4330 C   0  0  0  0  0  0  0  0  0  0  0  0
  188.7510  177.9210  145.0850 C   0  0  0  0  0  2  0  0  0  0  0  0
  190.5910  176.2710  144.6360 C   0  0  0  0  0  0  0  0  0  0  0  0
  188.5980  174.9950  147.3530 N   0  0  0  0  0  2  0  0  0  0  0  0
  190.2450  175.5850  145.7360 C   0  0  0  0  0  3  0  0  0  0  0  0
  188.0130  176.8700  145.9150 C   0  0  2  0  0  3  0  0  0  0  0  0
  192.9840  174.6900  142.1030 C   0  0  1  0  0  3  0  0  0  0  0  0
  194.8780  175.7900  143.1530 N   0  0  0  0  0  0  0  0  0  0  0  0
  191.8850  175.9970  143.9640 C   0  0  0  0  0  0  0  0  0  0  0  0
  194.3960  176.0880  144.3250 C   0  0  0  0  0  0  0  0  0  0  0  0
  192.9900  176.2190  144.6270 N   0  0  0  0  0  0  0  0  0  0  0  0
  194.1620  175.6050  141.9040 C   0  0  0  0  0  2  0  0  0  0  0  0
  191.8300  175.5560  142.5290 C   0  0  0  0  0  2  0  0  0  0  0  0
  195.3170  176.2720  145.3930 N   0  0  0  0  0  1  0  0  0  0  0  0
  192.5830  173.7920  140.5620 S   0  0  0  0  0  0  0  0  0  0  0  0
  189.4190  171.8860  142.3930 C   0  0  0  0  0  2  0  0  0  0  0  0
  188.8410  172.4730  141.2300 O   0  0  0  0  0  0  0  0  0  0  0  0
  191.0630  173.0910  141.1560 N   0  0  0  0  0  0  0  0  0  0  0  0
  190.9160  172.2660  142.3470 C   0  0  2  0  0  3  0  0  0  0  0  0
  189.5650  173.7930  139.3850 C   0  0  0  0  0  2  0  0  0  0  0  0
  189.8020  173.1610  140.5260 C   0  0  0  0  0  0  0  0  0  0  0  0
  191.8060  171.0230  142.2860 C   0  0  0  0  0  2  0  0  0  0  0  0
  192.8550  169.7380  144.1250 C   0  0  0  0  0  1  0  0  0  0  0  0
  192.8990  171.0340  143.3430 C   0  0  0  0  0  2  0  0  0  0  0  0
  187.2520  177.5410  147.0240 C   0  0  0  0  0  0  0  0  0  0  0  0
  187.8420  178.1700  147.8900 O   0  0  0  0  0  0  0  0  0  0  0  0
  185.7650  177.4080  147.0880 C   0  0  0  0  0  2  0  0  0  0  0  0
  184.8400  178.5240  145.1620 N   0  0  0  0  0  0  0  0  0  0  0  0
  185.1720  177.4170  145.7170 C   0  0  0  0  0  3  0  0  0  0  0  0
  184.2640  178.5270  143.8450 C   0  0  0  0  0  2  0  0  0  0  0  0
  184.9410  177.5480  143.0100 N   0  0  0  0  0  2  0  0  0  0  0  0
  186.6740  178.9850  142.3920 O   0  0  0  0  0  0  0  0  0  0  0  0
  186.1590  177.8370  142.3150 C   0  0  0  0  0  0  0  0  0  0  0  0
  187.2430  175.5140  142.1250 C   0  0  0  0  0  1  0  0  0  0  0  0
  186.8100  176.7980  141.5070 C   0  0  0  0  0  0  0  0  0  0  0  0
  187.0080  176.9850  140.2780 O   0  0  0  0  0  0  0  0  0  0  0  0
  1  4  1  0  0  0  0
  1  3  1  0  0  0  0
  2  5  2  0  0  0  0
  3  7  1  0  0  0  0
  4  6  2  0  0  0  0
  6  2  1  0  0  0  0
  7  2  1  0  0  0  0
  7 26  1  1  0  0  0
  8 16  1  6  0  0  0
  8 14  1  0  0  0  0
  9 11  2  0  0  0  0
 10 12  2  0  0  0  0
 10  4  1  0  0  0  0
 11 12  1  0  0  0  0
 11 15  1  0  0  0  0
 13  8  1  0  0  0  0
 13  9  1  0  0  0  0
 14 10  1  0  0  0  0
 16 19  1  0  0  0  0
 18 17  1  0  0  0  0
 19 20  1  0  0  0  0
 20 23  1  6  0  0  0
 20 17  1  0  0  0  0
 21 22  2  0  0  0  0
 22 19  1  0  0  0  0
 22 18  1  0  0  0  0
 23 25  1  0  0  0  0
 25 24  1  0  0  0  0
 26 28  1  0  0  0  0
 26 27  2  0  0  0  0
 29 30  2  0  0  0  0
 30 28  1  0  0  0  0
 31 29  1  0  0  0  0
 32 31  1  0  0  0  0
 34 33  2  0  0  0  0
 34 32  1  0  0  0  0
 36 35  1  0  0  0  0
 36 34  1  0  0  0  0
 37 36  2  0  0  0  0
M  END
>  <MODEL>
9

>  <REMARK>
 VINA RESULT:      -6.4      2.261      4.241
  Name = 
  11 active torsions:
  status: ('A' for Active; 'I' for Inactive)
    1  A    between atoms: C_2  and  C_7
    2  A    between atoms: C_2  and  C_33
    3  A    between atoms: C_3  and  S_37
    4  A    between atoms: N_6  and  C_16
    5  A    between atoms: C_7  and  C_24
    6  A    between atoms: C_8  and  C_27
    7  A    between atoms: C_10  and  C_25
    8  A    between atoms: C_12  and  C_28
    9  A    between atoms: C_16  and  N_18
   10  A    between atoms: N_26  and  S_37
   11  A    between atoms: C_27  and  C_31
                            x       y       z     vdW  Elec       q    Type
                         _______ _______ _______ _____ _____    ______ ____

>  <TORSDO>
F 11

$$$$
