=
 OpenBabel11042419453D

 40 45  0  0  1  0  0  0  0  0999 V2000
  188.7520  176.8540  143.0380 C   0  0  0  0  0  0  0  0  0  0  0  0
  188.6590  174.5260  142.2610 C   0  0  0  0  0  3  0  0  0  0  0  0
  188.0970  177.9800  143.4190 N   0  0  0  0  0  0  0  0  0  0  0  0
  192.2320  174.1020  142.1370 C   0  0  0  0  0  3  0  0  0  0  0  0
  190.7750  175.6390  142.6180 C   0  0  0  0  0  0  0  0  0  0  0  0
  190.0540  174.5310  142.2520 C   0  0  0  0  0  0  0  0  0  0  0  0
  190.1570  176.8250  143.0210 C   0  0  0  0  0  3  0  0  0  0  0  0
  192.0940  175.3890  142.5410 N   0  0  0  0  0  0  0  0  0  0  0  0
  186.6180  175.7770  142.6940 C   0  0  0  0  0  3  0  0  0  0  0  0
  190.9700  173.5430  141.9380 C   0  0  0  0  0  0  0  0  0  0  0  0
  186.7380  178.0220  143.4440 C   0  0  0  0  0  0  0  0  0  0  0  0
  186.0120  176.9290  143.0840 N   0  0  0  0  0  0  0  0  0  0  0  0
  186.0730  179.2130  143.8470 N   0  0  0  0  0  1  0  0  0  0  0  0
  188.0080  175.7050  142.6580 C   0  0  0  0  0  0  0  0  0  0  0  0
  193.0950  168.9370  139.9370 C   0  0  1  0  0  3  0  0  0  0  0  0
  193.4570  169.0430  141.7130 S   0  0  0  0  0  0  0  0  0  0  0  0
  191.0330  171.1580  142.2430 N   0  0  0  0  0  2  0  0  0  0  0  0
  192.2810  170.1510  139.5340 C   0  0  0  0  0  2  0  0  0  0  0  0
  191.7110  168.7760  142.1530 C   0  0  0  0  0  2  0  0  0  0  0  0
  190.1190  171.7420  139.8570 S   0  0  0  0  0  0  0  0  0  0  0  0
  190.8560  170.0970  140.0910 C   0  0  2  0  0  3  0  0  0  0  0  0
  194.3980  168.9320  139.1650 C   0  0  0  0  0  1  0  0  0  0  0  0
  190.8010  169.8760  141.6080 C   0  0  2  0  0  3  0  0  0  0  0  0
  190.7110  172.1610  141.4970 C   0  0  2  0  0  3  0  0  0  0  0  0
  194.2590  176.3530  141.8560 C   0  0  0  0  0  1  0  0  0  0  0  0
  193.1710  176.3090  142.9190 C   0  0  2  0  0  3  0  0  0  0  0  0
  193.7540  175.9860  144.2690 C   0  0  0  0  0  0  0  0  0  0  0  0
  194.8310  175.4130  144.3280 O   0  0  0  0  0  0  0  0  0  0  0  0
  193.0640  176.3850  145.5440 C   0  0  0  0  0  2  0  0  0  0  0  0
  192.1380  175.2930  146.0860 C   0  0  1  0  0  3  0  0  0  0  0  0
  192.6820  174.6930  147.2090 F   0  0  0  0  0  0  0  0  0  0  0  0
  188.1220  176.6980  146.7660 C   0  0  0  0  0  0  0  0  0  0  0  0
  188.3610  175.3660  146.3960 C   0  0  0  0  0  3  0  0  0  0  0  0
  190.7470  175.7880  146.3380 C   0  0  0  0  0  0  0  0  0  0  0  0
  190.5120  177.1220  146.6990 C   0  0  0  0  0  3  0  0  0  0  0  0
  189.2060  177.5730  146.9140 C   0  0  0  0  0  3  0  0  0  0  0  0
  189.6660  174.9150  146.1830 C   0  0  0  0  0  3  0  0  0  0  0  0
  186.7460  177.1730  146.9970 C   0  0  0  0  0  0  0  0  0  0  0  0
  186.5050  178.3160  147.8110 N   0  0  0  0  0  1  0  0  0  0  0  0
  185.7700  176.5670  146.4800 O   0  0  0  0  0  0  0  0  0  0  0  0
  1  3  1  0  0  0  0
  2 14  1  0  0  0  0
  3 11  2  0  0  0  0
  4  8  1  0  0  0  0
  5  7  2  0  0  0  0
  6  2  2  0  0  0  0
  6  5  1  0  0  0  0
  7  1  1  0  0  0  0
  8  5  1  0  0  0  0
  8 26  1  0  0  0  0
  9 12  2  0  0  0  0
 10  4  2  0  0  0  0
 10  6  1  0  0  0  0
 11 13  1  0  0  0  0
 12 11  1  0  0  0  0
 14  9  1  0  0  0  0
 14  1  2  0  0  0  0
 15 22  1  6  0  0  0
 15 16  1  0  0  0  0
 16 19  1  0  0  0  0
 18 15  1  0  0  0  0
 20 21  1  0  0  0  0
 20 24  1  0  0  0  0
 21 18  1  1  0  0  0
 21 23  1  0  0  0  0
 23 19  1  1  0  0  0
 23 17  1  0  0  0  0
 24 10  1  6  0  0  0
 24 17  1  0  0  0  0
 26 25  1  6  0  0  0
 26 27  1  0  0  0  0
 27 28  2  0  0  0  0
 27 29  1  0  0  0  0
 29 30  1  0  0  0  0
 30 34  1  0  0  0  0
 30 31  1  1  0  0  0
 32 36  1  0  0  0  0
 32 38  1  0  0  0  0
 33 32  2  0  0  0  0
 34 35  1  0  0  0  0
 35 36  2  0  0  0  0
 37 34  2  0  0  0  0
 37 33  1  0  0  0  0
 38 39  1  0  0  0  0
 40 38  2  0  0  0  0
M  END
>  <MODEL>
1

>  <REMARK>
 VINA RESULT:      -7.4      0.000      0.000
  Name = 
  7 active torsions:
  status: ('A' for Active; 'I' for Inactive)
    1  A    between atoms: C_1  and  C_5
    2  A    between atoms: C_7  and  C_21
    3  A    between atoms: C_7  and  C_23
    4  A    between atoms: C_14  and  N_20
    5  A    between atoms: C_14  and  C_23
    6  A    between atoms: C_16  and  C_21
    7  A    between atoms: C_27  and  C_40
                            x       y       z     vdW  Elec       q    Type
                         _______ _______ _______ _____ _____    ______ ____

>  <TORSDO>
F 7

$$$$
=
 OpenBabel11042419453D

 40 45  0  0  1  0  0  0  0  0999 V2000
  187.7220  177.5880  143.0930 C   0  0  0  0  0  0  0  0  0  0  0  0
  187.5160  175.8530  141.3660 C   0  0  0  0  0  3  0  0  0  0  0  0
  187.1660  178.6190  143.7780 N   0  0  0  0  0  0  0  0  0  0  0  0
  190.8300  174.5350  141.8610 C   0  0  0  0  0  3  0  0  0  0  0  0
  189.5560  176.1130  142.6380 C   0  0  0  0  0  0  0  0  0  0  0  0
  188.8240  175.4740  141.6700 C   0  0  0  0  0  0  0  0  0  0  0  0
  189.0360  177.1780  143.3760 C   0  0  0  0  0  3  0  0  0  0  0  0
  190.7740  175.5550  142.7520 N   0  0  0  0  0  0  0  0  0  0  0  0
  185.6670  177.3600  141.8450 C   0  0  0  0  0  3  0  0  0  0  0  0
  189.6250  174.4660  141.1610 C   0  0  0  0  0  0  0  0  0  0  0  0
  185.8940  179.0240  143.5180 C   0  0  0  0  0  0  0  0  0  0  0  0
  185.1580  178.3970  142.5600 N   0  0  0  0  0  0  0  0  0  0  0  0
  185.3310  180.1070  144.2480 N   0  0  0  0  0  1  0  0  0  0  0  0
  186.9670  176.9250  142.0890 C   0  0  0  0  0  0  0  0  0  0  0  0
  191.4640  171.6320  136.8820 C   0  0  1  0  0  3  0  0  0  0  0  0
  192.0360  170.8440  138.4140 S   0  0  0  0  0  0  0  0  0  0  0  0
  189.7080  172.2630  140.2010 N   0  0  0  0  0  2  0  0  0  0  0  0
  190.6160  172.8360  137.2420 C   0  0  0  0  0  2  0  0  0  0  0  0
  190.3540  170.2960  138.8400 C   0  0  0  0  0  2  0  0  0  0  0  0
  188.5190  173.9240  138.5580 S   0  0  0  0  0  0  0  0  0  0  0  0
  189.2680  172.4290  137.8420 C   0  0  2  0  0  3  0  0  0  0  0  0
  192.6660  172.0890  136.0810 C   0  0  0  0  0  1  0  0  0  0  0  0
  189.3920  171.4680  139.0310 C   0  0  2  0  0  3  0  0  0  0  0  0
  189.3060  173.4860  140.1090 C   0  0  2  0  0  3  0  0  0  0  0  0
  193.0720  176.4060  143.0350 C   0  0  0  0  0  1  0  0  0  0  0  0
  191.8060  175.9240  143.7260 C   0  0  2  0  0  3  0  0  0  0  0  0
  192.1110  174.8080  144.6880 C   0  0  0  0  0  0  0  0  0  0  0  0
  193.2020  174.2610  144.6340 O   0  0  0  0  0  0  0  0  0  0  0  0
  191.1260  174.3770  145.7380 C   0  0  0  0  0  2  0  0  0  0  0  0
  191.0660  175.3370  146.9280 C   0  0  1  0  0  3  0  0  0  0  0  0
  192.1550  176.1930  146.9320 F   0  0  0  0  0  0  0  0  0  0  0  0
  187.3240  177.4680  147.0960 C   0  0  0  0  0  0  0  0  0  0  0  0
  187.3490  176.0800  146.8930 C   0  0  0  0  0  3  0  0  0  0  0  0
  189.7700  176.0850  147.0020 C   0  0  0  0  0  0  0  0  0  0  0  0
  189.7510  177.4740  147.1960 C   0  0  0  0  0  3  0  0  0  0  0  0
  188.5340  178.1600  147.2450 C   0  0  0  0  0  3  0  0  0  0  0  0
  188.5650  175.3940  146.8460 C   0  0  0  0  0  3  0  0  0  0  0  0
  186.0420  178.1910  147.1520 C   0  0  0  0  0  0  0  0  0  0  0  0
  184.8400  177.5650  146.7120 N   0  0  0  0  0  1  0  0  0  0  0  0
  185.9980  179.3740  147.5830 O   0  0  0  0  0  0  0  0  0  0  0  0
  1  7  1  0  0  0  0
  1  3  1  0  0  0  0
  2  6  2  0  0  0  0
  2 14  1  0  0  0  0
  4  8  1  0  0  0  0
  5  8  1  0  0  0  0
  5  7  2  0  0  0  0
  6  5  1  0  0  0  0
  8 26  1  0  0  0  0
  9 14  1  0  0  0  0
  9 12  2  0  0  0  0
 10  6  1  0  0  0  0
 10  4  2  0  0  0  0
 11  3  2  0  0  0  0
 11 13  1  0  0  0  0
 12 11  1  0  0  0  0
 14  1  2  0  0  0  0
 15 22  1  6  0  0  0
 15 18  1  0  0  0  0
 15 16  1  0  0  0  0
 16 19  1  0  0  0  0
 20 24  1  0  0  0  0
 21 18  1  1  0  0  0
 21 20  1  0  0  0  0
 21 23  1  0  0  0  0
 23 19  1  6  0  0  0
 23 17  1  0  0  0  0
 24 17  1  0  0  0  0
 24 10  1  6  0  0  0
 26 25  1  6  0  0  0
 26 27  1  0  0  0  0
 27 29  1  0  0  0  0
 28 27  2  0  0  0  0
 29 30  1  0  0  0  0
 30 31  1  6  0  0  0
 30 34  1  0  0  0  0
 32 38  1  0  0  0  0
 32 36  1  0  0  0  0
 33 32  2  0  0  0  0
 34 35  1  0  0  0  0
 35 36  2  0  0  0  0
 37 33  1  0  0  0  0
 37 34  2  0  0  0  0
 38 40  2  0  0  0  0
 39 38  1  0  0  0  0
M  END
>  <MODEL>
2

>  <REMARK>
 VINA RESULT:      -7.2      1.946      2.332
  Name = 
  7 active torsions:
  status: ('A' for Active; 'I' for Inactive)
    1  A    between atoms: C_1  and  C_5
    2  A    between atoms: C_7  and  C_21
    3  A    between atoms: C_7  and  C_23
    4  A    between atoms: C_14  and  N_20
    5  A    between atoms: C_14  and  C_23
    6  A    between atoms: C_16  and  C_21
    7  A    between atoms: C_27  and  C_40
                            x       y       z     vdW  Elec       q    Type
                         _______ _______ _______ _____ _____    ______ ____

>  <TORSDO>
F 7

$$$$
=
 OpenBabel11042419453D

 40 45  0  0  1  0  0  0  0  0999 V2000
  189.2450  176.8000  143.3240 C   0  0  0  0  0  0  0  0  0  0  0  0
  189.5250  174.5530  142.3740 C   0  0  0  0  0  3  0  0  0  0  0  0
  188.4420  177.8650  143.5760 N   0  0  0  0  0  0  0  0  0  0  0  0
  192.9880  174.2530  143.3120 C   0  0  0  0  0  3  0  0  0  0  0  0
  191.3670  175.6930  143.4470 C   0  0  0  0  0  0  0  0  0  0  0  0
  190.8550  174.6020  142.7910 C   0  0  0  0  0  0  0  0  0  0  0  0
  190.5890  176.8160  143.7350 C   0  0  0  0  0  3  0  0  0  0  0  0
  192.6610  175.4920  143.7560 N   0  0  0  0  0  0  0  0  0  0  0  0
  187.3800  175.6950  142.2610 C   0  0  0  0  0  3  0  0  0  0  0  0
  191.8800  173.6760  142.6940 C   0  0  0  0  0  0  0  0  0  0  0  0
  187.1390  177.8630  143.1880 C   0  0  0  0  0  0  0  0  0  0  0  0
  186.6190  176.7860  142.5380 N   0  0  0  0  0  0  0  0  0  0  0  0
  186.3160  178.9890  143.4630 N   0  0  0  0  0  1  0  0  0  0  0  0
  188.7180  175.6690  142.6450 C   0  0  0  0  0  0  0  0  0  0  0  0
  190.7840  170.7300  138.2380 C   0  0  1  0  0  3  0  0  0  0  0  0
  192.3960  171.5400  138.0410 S   0  0  0  0  0  0  0  0  0  0  0  0
  192.7580  171.9620  141.2530 N   0  0  0  0  0  2  0  0  0  0  0  0
  190.2240  171.0890  139.6010 C   0  0  0  0  0  2  0  0  0  0  0  0
  193.1600  170.4800  139.3080 C   0  0  0  0  0  2  0  0  0  0  0  0
  190.4770  171.1920  142.2910 S   0  0  0  0  0  0  0  0  0  0  0  0
  190.9960  170.4080  140.7350 C   0  0  2  0  0  3  0  0  0  0  0  0
  189.8420  171.2320  137.1640 C   0  0  0  0  0  1  0  0  0  0  0  0
  192.5090  170.6550  140.6790 C   0  0  2  0  0  3  0  0  0  0  0  0
  191.8460  172.3340  142.0870 C   0  0  2  0  0  3  0  0  0  0  0  0
  194.9120  176.4870  143.9120 C   0  0  0  0  0  1  0  0  0  0  0  0
  193.5190  176.4050  144.5160 C   0  0  2  0  0  3  0  0  0  0  0  0
  193.5880  176.0440  145.9770 C   0  0  0  0  0  0  0  0  0  0  0  0
  194.5210  175.3650  146.3750 O   0  0  0  0  0  0  0  0  0  0  0  0
  192.5620  176.5310  146.9610 C   0  0  0  0  0  2  0  0  0  0  0  0
  191.4520  175.5100  147.2180 C   0  0  1  0  0  3  0  0  0  0  0  0
  191.6500  174.8540  148.4220 F   0  0  0  0  0  0  0  0  0  0  0  0
  187.5060  177.2130  146.9170 C   0  0  0  0  0  0  0  0  0  0  0  0
  187.7110  175.8420  146.7060 C   0  0  0  0  0  3  0  0  0  0  0  0
  190.0820  176.1100  147.1300 C   0  0  0  0  0  0  0  0  0  0  0  0
  189.8830  177.4820  147.3330 C   0  0  0  0  0  3  0  0  0  0  0  0
  188.6010  178.0300  147.2300 C   0  0  0  0  0  3  0  0  0  0  0  0
  188.9920  175.2940  146.8110 C   0  0  0  0  0  3  0  0  0  0  0  0
  186.1540  177.7910  146.8130 C   0  0  0  0  0  0  0  0  0  0  0  0
  185.1020  177.0560  146.1940 N   0  0  0  0  0  1  0  0  0  0  0  0
  185.9190  178.9430  147.2640 O   0  0  0  0  0  0  0  0  0  0  0  0
  1  3  1  0  0  0  0
  1  7  1  0  0  0  0
  2 14  1  0  0  0  0
  2  6  2  0  0  0  0
  4  8  1  0  0  0  0
  5  7  2  0  0  0  0
  5  8  1  0  0  0  0
  6  5  1  0  0  0  0
  8 26  1  0  0  0  0
  9 12  2  0  0  0  0
  9 14  1  0  0  0  0
 10  6  1  0  0  0  0
 10  4  2  0  0  0  0
 11 13  1  0  0  0  0
 11  3  2  0  0  0  0
 12 11  1  0  0  0  0
 14  1  2  0  0  0  0
 15 22  1  6  0  0  0
 15 18  1  0  0  0  0
 16 15  1  0  0  0  0
 16 19  1  0  0  0  0
 17 24  1  0  0  0  0
 21 18  1  6  0  0  0
 21 20  1  0  0  0  0
 23 19  1  6  0  0  0
 23 21  1  0  0  0  0
 23 17  1  0  0  0  0
 24 20  1  0  0  0  0
 24 10  1  6  0  0  0
 26 25  1  6  0  0  0
 26 27  1  0  0  0  0
 27 28  2  0  0  0  0
 27 29  1  0  0  0  0
 29 30  1  0  0  0  0
 30 31  1  1  0  0  0
 32 36  1  0  0  0  0
 33 37  1  0  0  0  0
 33 32  2  0  0  0  0
 34 30  1  0  0  0  0
 34 35  1  0  0  0  0
 36 35  2  0  0  0  0
 37 34  2  0  0  0  0
 38 32  1  0  0  0  0
 38 40  2  0  0  0  0
 39 38  1  0  0  0  0
M  END
>  <MODEL>
3

>  <REMARK>
 VINA RESULT:      -7.2      1.461      1.932
  Name = 
  7 active torsions:
  status: ('A' for Active; 'I' for Inactive)
    1  A    between atoms: C_1  and  C_5
    2  A    between atoms: C_7  and  C_21
    3  A    between atoms: C_7  and  C_23
    4  A    between atoms: C_14  and  N_20
    5  A    between atoms: C_14  and  C_23
    6  A    between atoms: C_16  and  C_21
    7  A    between atoms: C_27  and  C_40
                            x       y       z     vdW  Elec       q    Type
                         _______ _______ _______ _____ _____    ______ ____

>  <TORSDO>
F 7

$$$$
=
 OpenBabel11042419453D

 40 45  0  0  1  0  0  0  0  0999 V2000
  188.9600  175.9780  145.8450 C   0  0  0  0  0  0  0  0  0  0  0  0
  191.3960  176.2880  145.8960 C   0  0  0  0  0  3  0  0  0  0  0  0
  187.7300  176.3630  146.2700 N   0  0  0  0  0  0  0  0  0  0  0  0
  192.0900  173.6310  143.5660 C   0  0  0  0  0  3  0  0  0  0  0  0
  190.3850  174.5610  144.5400 C   0  0  0  0  0  0  0  0  0  0  0  0
  191.4940  175.2230  144.9990 C   0  0  0  0  0  0  0  0  0  0  0  0
  189.0940  174.9120  144.9400 C   0  0  0  0  0  3  0  0  0  0  0  0
  190.7390  173.5890  143.6790 N   0  0  0  0  0  0  0  0  0  0  0  0
  189.9320  177.7160  147.2130 C   0  0  0  0  0  3  0  0  0  0  0  0
  192.5920  174.6380  144.3900 C   0  0  0  0  0  0  0  0  0  0  0  0
  187.5840  177.3950  147.1430 C   0  0  0  0  0  0  0  0  0  0  0  0
  188.6780  178.0610  147.6050 N   0  0  0  0  0  0  0  0  0  0  0  0
  186.2860  177.7810  147.5750 N   0  0  0  0  0  1  0  0  0  0  0  0
  190.1110  176.6620  146.3200 C   0  0  0  0  0  0  0  0  0  0  0  0
  197.5690  174.4540  142.1730 C   0  0  1  0  0  3  0  0  0  0  0  0
  196.6080  175.7750  141.3810 S   0  0  0  0  0  0  0  0  0  0  0  0
  194.5250  175.9750  143.8800 N   0  0  0  0  0  2  0  0  0  0  0  0
  196.7120  173.8040  143.2430 C   0  0  0  0  0  2  0  0  0  0  0  0
  196.6420  176.7950  142.8890 C   0  0  0  0  0  2  0  0  0  0  0  0
  195.1850  173.9940  145.4650 S   0  0  0  0  0  0  0  0  0  0  0  0
  196.5010  174.7260  144.4460 C   0  0  2  0  0  3  0  0  0  0  0  0
  197.9390  173.4180  141.1320 C   0  0  0  0  0  1  0  0  0  0  0  0
  195.9550  176.1090  144.0690 C   0  0  2  0  0  3  0  0  0  0  0  0
  194.0150  174.9880  144.5380 C   0  0  2  0  0  3  0  0  0  0  0  0
  190.4580  171.3660  142.6490 C   0  0  0  0  0  1  0  0  0  0  0  0
  189.8250  172.7200  142.9340 C   0  0  2  0  0  3  0  0  0  0  0  0
  189.3320  173.3590  141.6640 C   0  0  0  0  0  0  0  0  0  0  0  0
  190.0060  173.2590  140.6500 O   0  0  0  0  0  0  0  0  0  0  0  0
  188.0160  174.0830  141.6010 C   0  0  0  0  0  2  0  0  0  0  0  0
  188.1540  175.5280  141.1150 C   0  0  1  0  0  3  0  0  0  0  0  0
  187.8150  175.6360  139.7770 F   0  0  0  0  0  0  0  0  0  0  0  0
  185.9130  178.3000  143.5360 C   0  0  0  0  0  0  0  0  0  0  0  0
  185.6100  176.9300  143.5510 C   0  0  0  0  0  3  0  0  0  0  0  0
  187.3900  176.4980  141.9630 C   0  0  0  0  0  0  0  0  0  0  0  0
  187.6900  177.8670  141.9380 C   0  0  0  0  0  3  0  0  0  0  0  0
  186.9570  178.7620  142.7230 C   0  0  0  0  0  3  0  0  0  0  0  0
  186.3450  176.0350  142.7680 C   0  0  0  0  0  3  0  0  0  0  0  0
  185.1420  179.2440  144.3650 C   0  0  0  0  0  0  0  0  0  0  0  0
  184.1530  178.7650  145.2720 N   0  0  0  0  0  1  0  0  0  0  0  0
  185.3480  180.4830  144.2750 O   0  0  0  0  0  0  0  0  0  0  0  0
  1  3  1  0  0  0  0
  1 14  1  0  0  0  0
  2 14  2  0  0  0  0
  3 11  2  0  0  0  0
  4  8  1  0  0  0  0
  4 10  2  0  0  0  0
  5  7  1  0  0  0  0
  5  6  2  0  0  0  0
  6  2  1  0  0  0  0
  7  1  2  0  0  0  0
  8  5  1  0  0  0  0
  9 12  2  0  0  0  0
 10  6  1  0  0  0  0
 11 13  1  0  0  0  0
 11 12  1  0  0  0  0
 14  9  1  0  0  0  0
 15 22  1  6  0  0  0
 15 18  1  0  0  0  0
 16 15  1  0  0  0  0
 16 19  1  0  0  0  0
 17 23  1  0  0  0  0
 17 24  1  0  0  0  0
 21 18  1  6  0  0  0
 21 20  1  0  0  0  0
 23 19  1  6  0  0  0
 23 21  1  0  0  0  0
 24 10  1  6  0  0  0
 24 20  1  0  0  0  0
 26 25  1  6  0  0  0
 26  8  1  0  0  0  0
 27 26  1  0  0  0  0
 28 27  2  0  0  0  0
 29 27  1  0  0  0  0
 30 31  1  6  0  0  0
 30 29  1  0  0  0  0
 30 34  1  0  0  0  0
 32 33  1  0  0  0  0
 32 38  1  0  0  0  0
 34 37  1  0  0  0  0
 35 34  2  0  0  0  0
 35 36  1  0  0  0  0
 36 32  2  0  0  0  0
 37 33  2  0  0  0  0
 38 39  1  0  0  0  0
 40 38  2  0  0  0  0
M  END
>  <MODEL>
4

>  <REMARK>
 VINA RESULT:      -7.1      3.272      5.595
  Name = 
  7 active torsions:
  status: ('A' for Active; 'I' for Inactive)
    1  A    between atoms: C_1  and  C_5
    2  A    between atoms: C_7  and  C_21
    3  A    between atoms: C_7  and  C_23
    4  A    between atoms: C_14  and  N_20
    5  A    between atoms: C_14  and  C_23
    6  A    between atoms: C_16  and  C_21
    7  A    between atoms: C_27  and  C_40
                            x       y       z     vdW  Elec       q    Type
                         _______ _______ _______ _____ _____    ______ ____

>  <TORSDO>
F 7

$$$$
=
 OpenBabel11042419453D

 40 45  0  0  1  0  0  0  0  0999 V2000
  189.3210  176.5080  143.1560 C   0  0  0  0  0  0  0  0  0  0  0  0
  189.4950  174.0740  142.8710 C   0  0  0  0  0  3  0  0  0  0  0  0
  188.5800  177.6400  143.0550 N   0  0  0  0  0  0  0  0  0  0  0  0
  192.8790  173.8670  144.0840 C   0  0  0  0  0  3  0  0  0  0  0  0
  191.3550  175.3690  143.7150 C   0  0  0  0  0  0  0  0  0  0  0  0
  190.8040  174.1680  143.3470 C   0  0  0  0  0  0  0  0  0  0  0  0
  190.6410  176.5670  143.6350 C   0  0  0  0  0  3  0  0  0  0  0  0
  192.6150  175.1950  144.1520 N   0  0  0  0  0  0  0  0  0  0  0  0
  187.4410  175.2500  142.3100 C   0  0  0  0  0  3  0  0  0  0  0  0
  191.7670  173.2000  143.5730 C   0  0  0  0  0  0  0  0  0  0  0  0
  187.3010  177.5990  142.5970 C   0  0  0  0  0  0  0  0  0  0  0  0
  186.7430  176.4130  142.2300 N   0  0  0  0  0  0  0  0  0  0  0  0
  186.5430  178.7980  142.5000 N   0  0  0  0  0  1  0  0  0  0  0  0
  188.7530  175.2630  142.7750 C   0  0  0  0  0  0  0  0  0  0  0  0
  194.1480  168.7550  141.4980 C   0  0  1  0  0  3  0  0  0  0  0  0
  194.9250  169.1660  143.0860 S   0  0  0  0  0  0  0  0  0  0  0  0
  192.3600  170.9220  144.0680 N   0  0  0  0  0  2  0  0  0  0  0  0
  193.0410  169.7550  141.2260 C   0  0  0  0  0  2  0  0  0  0  0  0
  193.4340  168.6900  144.0160 C   0  0  0  0  0  2  0  0  0  0  0  0
  190.7710  171.0120  141.9850 S   0  0  0  0  0  0  0  0  0  0  0  0
  191.8440  169.5540  142.1580 C   0  0  2  0  0  3  0  0  0  0  0  0
  195.1860  168.8480  140.4000 C   0  0  0  0  0  1  0  0  0  0  0  0
  192.2220  169.5430  143.6450 C   0  0  2  0  0  3  0  0  0  0  0  0
  191.6720  171.7460  143.3510 C   0  0  2  0  0  3  0  0  0  0  0  0
  194.8040  176.3070  143.9230 C   0  0  0  0  0  1  0  0  0  0  0  0
  193.4940  176.2360  144.6920 C   0  0  2  0  0  3  0  0  0  0  0  0
  193.7460  176.0670  146.1660 C   0  0  0  0  0  0  0  0  0  0  0  0
  194.8100  175.5960  146.5350 O   0  0  0  0  0  0  0  0  0  0  0  0
  192.7380  176.4980  147.1950 C   0  0  0  0  0  2  0  0  0  0  0  0
  191.6340  175.4630  147.4180 C   0  0  1  0  0  3  0  0  0  0  0  0
  191.7130  174.9180  148.6890 F   0  0  0  0  0  0  0  0  0  0  0  0
  187.7030  176.9940  146.5400 C   0  0  0  0  0  0  0  0  0  0  0  0
  187.9730  175.6200  146.4460 C   0  0  0  0  0  3  0  0  0  0  0  0
  190.2670  176.0040  147.1280 C   0  0  0  0  0  0  0  0  0  0  0  0
  190.0040  177.3780  147.2160 C   0  0  0  0  0  3  0  0  0  0  0  0
  188.7280  177.8690  146.9260 C   0  0  0  0  0  3  0  0  0  0  0  0
  189.2490  175.1290  146.7380 C   0  0  0  0  0  3  0  0  0  0  0  0
  186.3570  177.5120  146.2380 C   0  0  0  0  0  0  0  0  0  0  0  0
  185.2130  176.6740  146.3800 N   0  0  0  0  0  1  0  0  0  0  0  0
  186.2070  178.6990  145.8450 O   0  0  0  0  0  0  0  0  0  0  0  0
  1  7  1  0  0  0  0
  2  6  2  0  0  0  0
  3  1  1  0  0  0  0
  4  8  1  0  0  0  0
  5  8  1  0  0  0  0
  6 10  1  0  0  0  0
  6  5  1  0  0  0  0
  7  5  2  0  0  0  0
  8 26  1  0  0  0  0
  9 14  1  0  0  0  0
 10  4  2  0  0  0  0
 11  3  2  0  0  0  0
 12  9  2  0  0  0  0
 12 11  1  0  0  0  0
 13 11  1  0  0  0  0
 14  2  1  0  0  0  0
 14  1  2  0  0  0  0
 15 22  1  6  0  0  0
 15 16  1  0  0  0  0
 16 19  1  0  0  0  0
 18 15  1  0  0  0  0
 20 21  1  0  0  0  0
 20 24  1  0  0  0  0
 21 18  1  6  0  0  0
 21 23  1  0  0  0  0
 23 19  1  6  0  0  0
 23 17  1  0  0  0  0
 24 10  1  6  0  0  0
 24 17  1  0  0  0  0
 26 25  1  6  0  0  0
 26 27  1  0  0  0  0
 27 28  2  0  0  0  0
 27 29  1  0  0  0  0
 29 30  1  0  0  0  0
 30 31  1  1  0  0  0
 32 36  1  0  0  0  0
 33 32  2  0  0  0  0
 33 37  1  0  0  0  0
 34 35  1  0  0  0  0
 34 30  1  0  0  0  0
 36 35  2  0  0  0  0
 37 34  2  0  0  0  0
 38 39  1  0  0  0  0
 38 32  1  0  0  0  0
 40 38  2  0  0  0  0
M  END
>  <MODEL>
5

>  <REMARK>
 VINA RESULT:      -7.1      1.508      1.661
  Name = 
  7 active torsions:
  status: ('A' for Active; 'I' for Inactive)
    1  A    between atoms: C_1  and  C_5
    2  A    between atoms: C_7  and  C_21
    3  A    between atoms: C_7  and  C_23
    4  A    between atoms: C_14  and  N_20
    5  A    between atoms: C_14  and  C_23
    6  A    between atoms: C_16  and  C_21
    7  A    between atoms: C_27  and  C_40
                            x       y       z     vdW  Elec       q    Type
                         _______ _______ _______ _____ _____    ______ ____

>  <TORSDO>
F 7

$$$$
=
 OpenBabel11042419453D

 40 45  0  0  1  0  0  0  0  0999 V2000
  189.7590  175.2520  142.3690 C   0  0  0  0  0  0  0  0  0  0  0  0
  190.8700  173.0680  142.1980 C   0  0  0  0  0  3  0  0  0  0  0  0
  188.8390  176.1290  141.8940 N   0  0  0  0  0  0  0  0  0  0  0  0
  192.9960  173.5820  145.0580 C   0  0  0  0  0  3  0  0  0  0  0  0
  191.4680  174.6400  143.9340 C   0  0  0  0  0  0  0  0  0  0  0  0
  191.6290  173.4290  143.3120 C   0  0  0  0  0  0  0  0  0  0  0  0
  190.5370  175.5820  143.4920 C   0  0  0  0  0  3  0  0  0  0  0  0
  192.3000  174.7440  144.9860 N   0  0  0  0  0  0  0  0  0  0  0  0
  189.1320  173.7090  140.6210 C   0  0  0  0  0  3  0  0  0  0  0  0
  192.6050  172.7430  144.0150 C   0  0  0  0  0  0  0  0  0  0  0  0
  188.0760  175.8220  140.8110 C   0  0  0  0  0  0  0  0  0  0  0  0
  188.2260  174.6230  140.1860 N   0  0  0  0  0  0  0  0  0  0  0  0
  187.1180  176.7570  140.3310 N   0  0  0  0  0  1  0  0  0  0  0  0
  189.9280  173.9970  141.7260 C   0  0  0  0  0  0  0  0  0  0  0  0
  196.2150  168.9330  145.4890 C   0  0  1  0  0  3  0  0  0  0  0  0
  194.8210  168.9210  146.6520 S   0  0  0  0  0  0  0  0  0  0  0  0
  192.8360  170.4070  144.5370 N   0  0  0  0  0  2  0  0  0  0  0  0
  195.9530  169.9840  144.4270 C   0  0  0  0  0  2  0  0  0  0  0  0
  193.6910  168.2460  145.3950 C   0  0  0  0  0  2  0  0  0  0  0  0
  194.3690  171.0390  142.5060 S   0  0  0  0  0  0  0  0  0  0  0  0
  194.8260  169.5700  143.4770 C   0  0  2  0  0  3  0  0  0  0  0  0
  197.4830  169.2850  146.2380 C   0  0  0  0  0  1  0  0  0  0  0  0
  193.5300  169.1810  144.1980 C   0  0  2  0  0  3  0  0  0  0  0  0
  193.1380  171.3930  143.7610 C   0  0  2  0  0  3  0  0  0  0  0  0
  193.7850  176.0870  146.4250 C   0  0  0  0  0  1  0  0  0  0  0  0
  192.3650  175.8630  145.9300 C   0  0  2  0  0  3  0  0  0  0  0  0
  191.4140  175.6950  147.0850 C   0  0  0  0  0  0  0  0  0  0  0  0
  191.7010  174.9150  147.9800 O   0  0  0  0  0  0  0  0  0  0  0  0
  190.1430  176.4910  147.1860 C   0  0  0  0  0  2  0  0  0  0  0  0
  188.9210  175.7290  146.6670 C   0  0  1  0  0  3  0  0  0  0  0  0
  188.3680  174.9400  147.6630 F   0  0  0  0  0  0  0  0  0  0  0  0
  185.9570  178.2780  144.8560 C   0  0  0  0  0  0  0  0  0  0  0  0
  185.6180  177.4340  145.9240 C   0  0  0  0  0  3  0  0  0  0  0  0
  187.9020  176.6290  146.0390 C   0  0  0  0  0  0  0  0  0  0  0  0
  188.2430  177.4650  144.9670 C   0  0  0  0  0  3  0  0  0  0  0  0
  187.2760  178.2860  144.3810 C   0  0  0  0  0  3  0  0  0  0  0  0
  186.5860  176.6130  146.5110 C   0  0  0  0  0  3  0  0  0  0  0  0
  184.9390  179.1470  144.2400 C   0  0  0  0  0  0  0  0  0  0  0  0
  183.8020  178.5810  143.5960 N   0  0  0  0  0  1  0  0  0  0  0  0
  185.0700  180.3990  144.2710 O   0  0  0  0  0  0  0  0  0  0  0  0
  1  7  1  0  0  0  0
  2  6  2  0  0  0  0
  3  1  1  0  0  0  0
  5  8  1  0  0  0  0
  6  5  1  0  0  0  0
  6 10  1  0  0  0  0
  7  5  2  0  0  0  0
  8  4  1  0  0  0  0
  8 26  1  0  0  0  0
  9 14  1  0  0  0  0
 10  4  2  0  0  0  0
 11  3  2  0  0  0  0
 12  9  2  0  0  0  0
 12 11  1  0  0  0  0
 13 11  1  0  0  0  0
 14  2  1  0  0  0  0
 14  1  2  0  0  0  0
 15 22  1  1  0  0  0
 15 16  1  0  0  0  0
 18 15  1  0  0  0  0
 19 16  1  0  0  0  0
 20 21  1  0  0  0  0
 20 24  1  0  0  0  0
 21 23  1  0  0  0  0
 21 18  1  1  0  0  0
 23 17  1  0  0  0  0
 23 19  1  1  0  0  0
 24 10  1  1  0  0  0
 24 17  1  0  0  0  0
 26 25  1  1  0  0  0
 26 27  1  0  0  0  0
 27 29  1  0  0  0  0
 27 28  2  0  0  0  0
 30 29  1  0  0  0  0
 30 31  1  1  0  0  0
 32 33  1  0  0  0  0
 33 37  2  0  0  0  0
 34 37  1  0  0  0  0
 34 30  1  0  0  0  0
 35 34  2  0  0  0  0
 36 32  2  0  0  0  0
 36 35  1  0  0  0  0
 38 40  2  0  0  0  0
 38 32  1  0  0  0  0
 39 38  1  0  0  0  0
M  END
>  <MODEL>
6

>  <REMARK>
 VINA RESULT:      -6.9      2.941      3.949
  Name = 
  7 active torsions:
  status: ('A' for Active; 'I' for Inactive)
    1  A    between atoms: C_1  and  C_5
    2  A    between atoms: C_7  and  C_21
    3  A    between atoms: C_7  and  C_23
    4  A    between atoms: C_14  and  N_20
    5  A    between atoms: C_14  and  C_23
    6  A    between atoms: C_16  and  C_21
    7  A    between atoms: C_27  and  C_40
                            x       y       z     vdW  Elec       q    Type
                         _______ _______ _______ _____ _____    ______ ____

>  <TORSDO>
F 7

$$$$
=
 OpenBabel11042419453D

 40 45  0  0  1  0  0  0  0  0999 V2000
  194.7010  174.7440  140.0400 C   0  0  0  0  0  0  0  0  0  0  0  0
  194.0030  175.9560  142.0590 C   0  0  0  0  0  3  0  0  0  0  0  0
  195.6660  174.4620  139.1280 N   0  0  0  0  0  0  0  0  0  0  0  0
  190.6790  174.5730  142.1110 C   0  0  0  0  0  3  0  0  0  0  0  0
  192.4820  174.4720  140.9050 C   0  0  0  0  0  0  0  0  0  0  0  0
  192.7550  175.3450  141.9270 C   0  0  0  0  0  0  0  0  0  0  0  0
  193.4340  174.1430  139.9380 C   0  0  0  0  0  3  0  0  0  0  0  0
  191.2240  174.0080  141.0050 N   0  0  0  0  0  0  0  0  0  0  0  0
  196.2500  176.2170  141.1640 C   0  0  0  0  0  3  0  0  0  0  0  0
  191.6120  175.4240  142.7030 C   0  0  0  0  0  0  0  0  0  0  0  0
  196.8960  175.0330  139.2150 C   0  0  0  0  0  0  0  0  0  0  0  0
  197.1790  175.9000  140.2250 N   0  0  0  0  0  0  0  0  0  0  0  0
  197.8920  174.7230  138.2480 N   0  0  0  0  0  1  0  0  0  0  0  0
  194.9800  175.6480  141.0990 C   0  0  0  0  0  0  0  0  0  0  0  0
  188.1220  176.7640  146.6730 C   0  0  1  0  0  3  0  0  0  0  0  0
  188.8330  175.1310  147.0240 S   0  0  0  0  0  0  0  0  0  0  0  0
  191.4020  175.6550  145.0880 N   0  0  0  0  0  2  0  0  0  0  0  0
  188.7300  177.2910  145.3870 C   0  0  0  0  0  2  0  0  0  0  0  0
  190.4700  175.8450  147.3760 C   0  0  0  0  0  2  0  0  0  0  0  0
  190.8970  177.9410  143.9070 S   0  0  0  0  0  0  0  0  0  0  0  0
  190.1990  177.6830  145.5660 C   0  0  2  0  0  3  0  0  0  0  0  0
  186.6250  176.6240  146.4960 C   0  0  0  0  0  1  0  0  0  0  0  0
  191.0620  176.5640  146.1640 C   0  0  2  0  0  3  0  0  0  0  0  0
  191.3870  176.2150  143.9250 C   0  0  2  0  0  3  0  0  0  0  0  0
  189.1360  173.3310  139.8800 C   0  0  0  0  0  1  0  0  0  0  0  0
  190.6000  173.0080  140.1350 C   0  0  2  0  0  3  0  0  0  0  0  0
  190.7550  171.6080  140.6670 C   0  0  0  0  0  0  0  0  0  0  0  0
  190.5080  170.6640  139.9330 O   0  0  0  0  0  0  0  0  0  0  0  0
  191.2420  171.3430  142.0640 C   0  0  0  0  0  2  0  0  0  0  0  0
  192.7220  170.9560  142.1150 C   0  0  1  0  0  3  0  0  0  0  0  0
  193.2800  170.9570  140.8460 F   0  0  0  0  0  0  0  0  0  0  0  0
  195.0230  173.3560  144.8560 C   0  0  0  0  0  0  0  0  0  0  0  0
  195.5740  172.9360  143.6360 C   0  0  0  0  0  3  0  0  0  0  0  0
  193.5090  171.8020  143.0690 C   0  0  0  0  0  0  0  0  0  0  0  0
  192.9570  172.2130  144.2900 C   0  0  0  0  0  3  0  0  0  0  0  0
  193.7090  172.9870  145.1770 C   0  0  0  0  0  3  0  0  0  0  0  0
  194.8210  172.1620  142.7490 C   0  0  0  0  0  3  0  0  0  0  0  0
  195.8140  174.1760  145.7900 C   0  0  0  0  0  0  0  0  0  0  0  0
  197.0620  173.7000  146.2880 N   0  0  0  0  0  1  0  0  0  0  0  0
  195.3920  175.3030  146.1610 O   0  0  0  0  0  0  0  0  0  0  0  0
  1 14  1  0  0  0  0
  3 11  2  0  0  0  0
  3  1  1  0  0  0  0
  4 10  2  0  0  0  0
  5  8  1  0  0  0  0
  5  6  2  0  0  0  0
  6  2  1  0  0  0  0
  6 10  1  0  0  0  0
  7  1  2  0  0  0  0
  7  5  1  0  0  0  0
  8  4  1  0  0  0  0
 11 12  1  0  0  0  0
 12  9  2  0  0  0  0
 13 11  1  0  0  0  0
 14  9  1  0  0  0  0
 14  2  2  0  0  0  0
 15 22  1  6  0  0  0
 15 16  1  0  0  0  0
 16 19  1  0  0  0  0
 17 23  1  0  0  0  0
 18 15  1  0  0  0  0
 20 24  1  0  0  0  0
 20 21  1  0  0  0  0
 21 18  1  6  0  0  0
 21 23  1  0  0  0  0
 23 19  1  1  0  0  0
 24 10  1  6  0  0  0
 24 17  1  0  0  0  0
 26 25  1  1  0  0  0
 26 27  1  0  0  0  0
 26  8  1  0  0  0  0
 27 29  1  0  0  0  0
 28 27  2  0  0  0  0
 29 30  1  0  0  0  0
 30 31  1  6  0  0  0
 30 34  1  0  0  0  0
 32 36  1  0  0  0  0
 32 38  1  0  0  0  0
 33 32  2  0  0  0  0
 34 35  1  0  0  0  0
 35 36  2  0  0  0  0
 37 34  2  0  0  0  0
 37 33  1  0  0  0  0
 38 40  2  0  0  0  0
 38 39  1  0  0  0  0
M  END
>  <MODEL>
7

>  <REMARK>
 VINA RESULT:      -6.8      3.733      7.999
  Name = 
  7 active torsions:
  status: ('A' for Active; 'I' for Inactive)
    1  A    between atoms: C_1  and  C_5
    2  A    between atoms: C_7  and  C_21
    3  A    between atoms: C_7  and  C_23
    4  A    between atoms: C_14  and  N_20
    5  A    between atoms: C_14  and  C_23
    6  A    between atoms: C_16  and  C_21
    7  A    between atoms: C_27  and  C_40
                            x       y       z     vdW  Elec       q    Type
                         _______ _______ _______ _____ _____    ______ ____

>  <TORSDO>
F 7

$$$$
=
 OpenBabel11042419453D

 40 45  0  0  1  0  0  0  0  0999 V2000
  190.6390  173.2790  140.5580 C   0  0  0  0  0  0  0  0  0  0  0  0
  192.8760  173.9900  141.2800 C   0  0  0  0  0  3  0  0  0  0  0  0
  189.8640  172.4170  139.8530 N   0  0  0  0  0  0  0  0  0  0  0  0
  191.6940  176.7490  143.2680 C   0  0  0  0  0  3  0  0  0  0  0  0
  190.8980  175.1830  141.9900 C   0  0  0  0  0  0  0  0  0  0  0  0
  192.2590  175.0220  141.9890 C   0  0  0  0  0  0  0  0  0  0  0  0
  190.0490  174.3270  141.2860 C   0  0  0  0  0  3  0  0  0  0  0  0
  190.5490  176.2330  142.7560 N   0  0  0  0  0  0  0  0  0  0  0  0
  192.5910  172.0600  139.8270 C   0  0  0  0  0  3  0  0  0  0  0  0
  192.7830  176.0160  142.7960 C   0  0  0  0  0  0  0  0  0  0  0  0
  190.4190  171.3960  139.1470 C   0  0  0  0  0  0  0  0  0  0  0  0
  191.7690  171.2250  139.1390 N   0  0  0  0  0  0  0  0  0  0  0  0
  189.5870  170.5040  138.4160 N   0  0  0  0  0  1  0  0  0  0  0  0
  192.0500  173.1150  140.5570 C   0  0  0  0  0  0  0  0  0  0  0  0
  197.6820  173.8510  143.8120 C   0  0  1  0  0  3  0  0  0  0  0  0
  197.3850  173.8510  142.0210 S   0  0  0  0  0  0  0  0  0  0  0  0
  195.1160  176.1800  142.2360 N   0  0  0  0  0  2  0  0  0  0  0  0
  196.4880  174.4810  144.5020 C   0  0  0  0  0  2  0  0  0  0  0  0
  197.5200  175.6640  141.9310 C   0  0  0  0  0  2  0  0  0  0  0  0
  194.7740  176.5490  144.8090 S   0  0  0  0  0  0  0  0  0  0  0  0
  196.4120  175.9900  144.2530 C   0  0  2  0  0  3  0  0  0  0  0  0
  197.8370  172.4220  144.2890 C   0  0  0  0  0  1  0  0  0  0  0  0
  196.4510  176.3670  142.7670 C   0  0  2  0  0  3  0  0  0  0  0  0
  194.1930  176.2750  143.1340 C   0  0  2  0  0  3  0  0  0  0  0  0
  188.8160  177.9180  142.2630 C   0  0  0  0  0  1  0  0  0  0  0  0
  189.1820  176.6700  143.0520 C   0  0  2  0  0  3  0  0  0  0  0  0
  188.9540  176.8810  144.5260 C   0  0  0  0  0  0  0  0  0  0  0  0
  189.1970  177.9750  145.0120 O   0  0  0  0  0  0  0  0  0  0  0  0
  188.4000  175.7950  145.4040 C   0  0  0  0  0  2  0  0  0  0  0  0
  189.3870  175.3390  146.4810 C   0  0  1  0  0  3  0  0  0  0  0  0
  188.7210  174.7940  147.5670 F   0  0  0  0  0  0  0  0  0  0  0  0
  192.4320  172.7120  144.9340 C   0  0  0  0  0  0  0  0  0  0  0  0
  192.7710  173.7840  145.7720 C   0  0  0  0  0  3  0  0  0  0  0  0
  190.4360  174.4110  145.9490 C   0  0  0  0  0  0  0  0  0  0  0  0
  190.0940  173.3460  145.1050 C   0  0  0  0  0  3  0  0  0  0  0  0
  191.0860  172.5000  144.6030 C   0  0  0  0  0  3  0  0  0  0  0  0
  191.7780  174.6290  146.2760 C   0  0  0  0  0  3  0  0  0  0  0  0
  193.4770  171.8170  144.4080 C   0  0  0  0  0  0  0  0  0  0  0  0
  194.5660  171.4140  145.2340 N   0  0  0  0  0  1  0  0  0  0  0  0
  193.4210  171.4040  143.2190 O   0  0  0  0  0  0  0  0  0  0  0  0
  1  7  1  0  0  0  0
  2  6  2  0  0  0  0
  3  1  1  0  0  0  0
  5  8  1  0  0  0  0
  6  5  1  0  0  0  0
  6 10  1  0  0  0  0
  7  5  2  0  0  0  0
  8 26  1  0  0  0  0
  8  4  1  0  0  0  0
  9 14  1  0  0  0  0
 10  4  2  0  0  0  0
 11  3  2  0  0  0  0
 12 11  1  0  0  0  0
 12  9  2  0  0  0  0
 13 11  1  0  0  0  0
 14  1  2  0  0  0  0
 14  2  1  0  0  0  0
 15 22  1  1  0  0  0
 15 18  1  0  0  0  0
 16 15  1  0  0  0  0
 17 23  1  0  0  0  0
 17 24  1  0  0  0  0
 19 16  1  0  0  0  0
 21 18  1  6  0  0  0
 21 20  1  0  0  0  0
 23 19  1  6  0  0  0
 23 21  1  0  0  0  0
 24 10  1  1  0  0  0
 24 20  1  0  0  0  0
 26 25  1  6  0  0  0
 26 27  1  0  0  0  0
 27 28  2  0  0  0  0
 27 29  1  0  0  0  0
 29 30  1  0  0  0  0
 30 31  1  1  0  0  0
 32 33  1  0  0  0  0
 33 37  2  0  0  0  0
 34 37  1  0  0  0  0
 34 30  1  0  0  0  0
 35 34  2  0  0  0  0
 36 32  2  0  0  0  0
 36 35  1  0  0  0  0
 38 32  1  0  0  0  0
 38 39  1  0  0  0  0
 40 38  2  0  0  0  0
M  END
>  <MODEL>
8

>  <REMARK>
 VINA RESULT:      -6.8      3.101      6.420
  Name = 
  7 active torsions:
  status: ('A' for Active; 'I' for Inactive)
    1  A    between atoms: C_1  and  C_5
    2  A    between atoms: C_7  and  C_21
    3  A    between atoms: C_7  and  C_23
    4  A    between atoms: C_14  and  N_20
    5  A    between atoms: C_14  and  C_23
    6  A    between atoms: C_16  and  C_21
    7  A    between atoms: C_27  and  C_40
                            x       y       z     vdW  Elec       q    Type
                         _______ _______ _______ _____ _____    ______ ____

>  <TORSDO>
F 7

$$$$
=
 OpenBabel11042419453D

 40 45  0  0  1  0  0  0  0  0999 V2000
  193.9550  175.7180  143.3140 C   0  0  0  0  0  0  0  0  0  0  0  0
  192.4890  174.7590  141.5920 C   0  0  0  0  0  3  0  0  0  0  0  0
  195.1550  176.2510  143.6540 N   0  0  0  0  0  0  0  0  0  0  0  0
  189.6920  174.2730  143.8080 C   0  0  0  0  0  3  0  0  0  0  0  0
  191.7330  175.0140  143.8740 C   0  0  0  0  0  0  0  0  0  0  0  0
  191.5110  174.6230  142.5790 C   0  0  0  0  0  0  0  0  0  0  0  0
  192.9470  175.5700  144.2830 C   0  0  0  0  0  3  0  0  0  0  0  0
  190.6390  174.7960  144.6260 N   0  0  0  0  0  0  0  0  0  0  0  0
  194.7470  175.4800  141.0450 C   0  0  0  0  0  3  0  0  0  0  0  0
  190.2140  174.1440  142.5210 C   0  0  0  0  0  0  0  0  0  0  0  0
  196.1390  176.4030  142.7270 C   0  0  0  0  0  0  0  0  0  0  0  0
  195.9300  176.0200  141.4380 N   0  0  0  0  0  0  0  0  0  0  0  0
  197.3890  176.9650  143.1050 N   0  0  0  0  0  1  0  0  0  0  0  0
  193.7220  175.3110  141.9730 C   0  0  0  0  0  0  0  0  0  0  0  0
  190.4430  172.8090  137.2390 C   0  0  1  0  0  3  0  0  0  0  0  0
  191.2240  171.4990  138.2240 S   0  0  0  0  0  0  0  0  0  0  0  0
  189.6790  172.4050  140.9480 N   0  0  0  0  0  2  0  0  0  0  0  0
  189.9290  173.8820  138.1800 C   0  0  0  0  0  2  0  0  0  0  0  0
  189.6260  170.9780  138.9230 C   0  0  0  0  0  2  0  0  0  0  0  0
  188.4330  174.6210  140.3080 S   0  0  0  0  0  0  0  0  0  0  0  0
  188.7160  173.4060  138.9840 C   0  0  2  0  0  3  0  0  0  0  0  0
  191.4750  173.4120  136.3100 C   0  0  0  0  0  1  0  0  0  0  0  0
  188.9570  172.0880  139.7320 C   0  0  2  0  0  3  0  0  0  0  0  0
  189.4850  173.6130  141.3550 C   0  0  2  0  0  3  0  0  0  0  0  0
  189.4560  174.2510  146.7200 C   0  0  0  0  0  1  0  0  0  0  0  0
  190.4770  175.1500  146.0390 C   0  0  2  0  0  3  0  0  0  0  0  0
  190.1260  176.6010  146.2300 C   0  0  0  0  0  0  0  0  0  0  0  0
  190.6490  177.2220  147.1420 O   0  0  0  0  0  0  0  0  0  0  0  0
  189.1800  177.3150  145.3050 C   0  0  0  0  0  2  0  0  0  0  0  0
  187.7130  177.1490  145.7090 C   0  0  1  0  0  3  0  0  0  0  0  0
  187.4260  177.8830  146.8490 F   0  0  0  0  0  0  0  0  0  0  0  0
  184.9530  178.0680  142.5300 C   0  0  0  0  0  0  0  0  0  0  0  0
  185.1950  178.9930  143.5580 C   0  0  0  0  0  3  0  0  0  0  0  0
  186.7660  177.4640  144.5920 C   0  0  0  0  0  0  0  0  0  0  0  0
  186.5210  176.5340  143.5720 C   0  0  0  0  0  3  0  0  0  0  0  0
  185.6220  176.8360  142.5460 C   0  0  0  0  0  3  0  0  0  0  0  0
  186.0960  178.6910  144.5830 C   0  0  0  0  0  3  0  0  0  0  0  0
  184.0080  178.3870  141.4460 C   0  0  0  0  0  0  0  0  0  0  0  0
  182.6030  178.2880  141.6610 N   0  0  0  0  0  1  0  0  0  0  0  0
  184.4340  178.7460  140.3170 O   0  0  0  0  0  0  0  0  0  0  0  0
  1  3  1  0  0  0  0
  1  7  1  0  0  0  0
  2 14  1  0  0  0  0
  2  6  2  0  0  0  0
  4  8  1  0  0  0  0
  5  7  2  0  0  0  0
  5  8  1  0  0  0  0
  6  5  1  0  0  0  0
  8 26  1  0  0  0  0
  9 12  2  0  0  0  0
  9 14  1  0  0  0  0
 10  6  1  0  0  0  0
 10  4  2  0  0  0  0
 11 13  1  0  0  0  0
 11  3  2  0  0  0  0
 12 11  1  0  0  0  0
 14  1  2  0  0  0  0
 15 22  1  6  0  0  0
 15 18  1  0  0  0  0
 15 16  1  0  0  0  0
 16 19  1  0  0  0  0
 17 24  1  0  0  0  0
 20 24  1  0  0  0  0
 21 18  1  1  0  0  0
 21 23  1  0  0  0  0
 21 20  1  0  0  0  0
 23 19  1  6  0  0  0
 23 17  1  0  0  0  0
 24 10  1  6  0  0  0
 26 27  1  0  0  0  0
 26 25  1  6  0  0  0
 27 28  2  0  0  0  0
 29 30  1  0  0  0  0
 29 27  1  0  0  0  0
 30 31  1  1  0  0  0
 32 36  2  0  0  0  0
 32 33  1  0  0  0  0
 33 37  2  0  0  0  0
 34 30  1  0  0  0  0
 35 34  2  0  0  0  0
 36 35  1  0  0  0  0
 37 34  1  0  0  0  0
 38 39  1  0  0  0  0
 38 32  1  0  0  0  0
 40 38  2  0  0  0  0
M  END
>  <MODEL>
9

>  <REMARK>
 VINA RESULT:      -6.8      2.976      5.565
  Name = 
  7 active torsions:
  status: ('A' for Active; 'I' for Inactive)
    1  A    between atoms: C_1  and  C_5
    2  A    between atoms: C_7  and  C_21
    3  A    between atoms: C_7  and  C_23
    4  A    between atoms: C_14  and  N_20
    5  A    between atoms: C_14  and  C_23
    6  A    between atoms: C_16  and  C_21
    7  A    between atoms: C_27  and  C_40
                            x       y       z     vdW  Elec       q    Type
                         _______ _______ _______ _____ _____    ______ ____

>  <TORSDO>
F 7

$$$$
