=
 OpenBabel11042414233D

 27 28  0  0  1  0  0  0  0  0999 V2000
  187.3590  177.6650  143.1830 C   0  0  0  0  0  0  0  0  0  0  0  0
  186.5370  177.2940  145.2820 C   0  0  0  0  0  0  0  0  0  0  0  0
  186.0440  177.4720  143.8840 C   0  0  1  0  0  3  0  0  0  0  0  0
  187.8570  177.4110  145.2920 C   0  0  0  0  0  0  0  0  0  0  0  0
  188.3710  177.6300  143.9880 N   0  0  0  0  0  0  0  0  0  0  0  0
  186.5000  177.3680  140.8440 N   0  0  0  0  0  2  0  0  0  0  0  0
  187.5140  177.8380  141.7310 C   0  0  0  0  0  0  0  0  0  0  0  0
  188.5450  178.3990  141.2710 O   0  0  0  0  0  0  0  0  0  0  0  0
  186.6240  177.5230  139.4590 N   0  0  0  0  0  2  0  0  0  0  0  0
  186.7090  176.5200  138.7240 O   0  0  0  0  0  1  0  0  0  0  0  0
  185.6370  179.8390  144.0000 O   0  0  0  0  0  1  0  0  0  0  0  0
  183.8430  178.5450  143.4100 O   0  0  0  0  0  0  0  0  0  0  0  0
  185.1760  178.6900  143.7670 C   0  0  0  0  0  0  0  0  0  0  0  0
  185.6790  176.9750  146.4680 C   0  0  0  0  0  2  0  0  0  0  0  0
  185.1030  178.2180  147.0540 C   0  0  0  0  0  0  0  0  0  0  0  0
  183.8730  178.4530  146.9460 O   0  0  0  0  0  0  0  0  0  0  0  0
  185.9490  179.1530  147.7140 N   0  0  0  0  0  1  0  0  0  0  0  0
  188.7350  177.2160  146.4850 C   0  0  0  0  0  2  0  0  0  0  0  0
  190.7900  174.3560  145.6360 C   0  0  0  0  0  3  0  0  0  0  0  0
  189.7740  176.2450  146.1840 N   0  0  0  0  0  0  0  0  0  0  0  0
  193.1200  175.1680  146.0920 N   0  0  0  0  0  0  0  0  0  0  0  0
  189.5620  174.9870  145.7570 C   0  0  0  0  0  3  0  0  0  0  0  0
  191.0620  176.4690  146.3620 N   0  0  0  0  0  0  0  0  0  0  0  0
  193.7460  173.9420  145.6240 C   0  0  0  0  0  1  0  0  0  0  0  0
  191.6950  175.3320  146.0290 C   0  0  0  0  0  0  0  0  0  0  0  0
  194.6830  176.8800  145.3280 C   0  0  0  0  0  1  0  0  0  0  0  0
  193.9810  176.2600  146.5230 C   0  0  0  0  0  2  0  0  0  0  0  0
  1  3  1  0  0  0  0
  1  5  2  0  0  0  0
  2  4  2  0  0  0  0
  2 14  1  0  0  0  0
  3 13  1  1  0  0  0
  3  2  1  0  0  0  0
  4 18  1  0  0  0  0
  5  4  1  0  0  0  0
  6  7  1  0  0  0  0
  7  1  1  0  0  0  0
  8  7  2  0  0  0  0
  9  6  1  0  0  0  0
 10  9  1  0  0  0  0
 12 13  2  0  0  0  0
 13 11  1  0  0  0  0
 14 15  1  0  0  0  0
 15 17  1  0  0  0  0
 16 15  2  0  0  0  0
 19 22  2  0  0  0  0
 19 25  1  0  0  0  0
 20 23  1  0  0  0  0
 20 18  1  0  0  0  0
 21 27  1  0  0  0  0
 22 20  1  0  0  0  0
 24 21  1  0  0  0  0
 25 21  1  0  0  0  0
 25 23  2  0  0  0  0
 26 27  1  0  0  0  0
M  END
>  <MODEL>
1

>  <REMARK>
 VINA RESULT:      -6.6      0.000      0.000
  Name = 
  8 active torsions:
  status: ('A' for Active; 'I' for Inactive)
    1  A    between atoms: N_1  and  N_13
    2  A    between atoms: C_2  and  C_3
    3  A    between atoms: C_4  and  C_8
    4  A    between atoms: C_8  and  C_9
    5  A    between atoms: N_11  and  C_19
    6  A    between atoms: N_14  and  C_22
    7  A    between atoms: C_17  and  C_26
    8  A    between atoms: C_19  and  C_21
                            x       y       z     vdW  Elec       q    Type
                         _______ _______ _______ _____ _____    ______ ____

>  <TORSDO>
F 8

$$$$
=
 OpenBabel11042414233D

 27 28  0  0  1  0  0  0  0  0999 V2000
  187.2720  177.6100  143.1080 C   0  0  0  0  0  0  0  0  0  0  0  0
  186.4920  177.2130  145.2190 C   0  0  0  0  0  0  0  0  0  0  0  0
  185.9700  177.4330  143.8370 C   0  0  1  0  0  3  0  0  0  0  0  0
  187.8150  177.2970  145.1990 C   0  0  0  0  0  0  0  0  0  0  0  0
  188.3020  177.5320  143.8870 N   0  0  0  0  0  0  0  0  0  0  0  0
  186.3890  177.3130  140.7780 N   0  0  0  0  0  2  0  0  0  0  0  0
  187.3970  177.8110  141.6580 C   0  0  0  0  0  0  0  0  0  0  0  0
  188.3970  178.4210  141.1900 O   0  0  0  0  0  0  0  0  0  0  0  0
  186.4850  177.4940  139.3940 N   0  0  0  0  0  2  0  0  0  0  0  0
  186.6900  176.5150  138.6500 O   0  0  0  0  0  1  0  0  0  0  0  0
  183.9110  178.6140  143.4540 O   0  0  0  0  0  0  0  0  0  0  0  0
  185.7090  179.9050  144.0400 O   0  0  0  0  0  1  0  0  0  0  0  0
  185.1300  178.6740  143.7680 C   0  0  0  0  0  0  0  0  0  0  0  0
  185.6550  176.8890  146.4180 C   0  0  0  0  0  2  0  0  0  0  0  0
  185.1190  178.1320  147.0410 C   0  0  0  0  0  0  0  0  0  0  0  0
  183.8910  178.3920  146.9690 O   0  0  0  0  0  0  0  0  0  0  0  0
  186.0000  179.0380  147.6940 N   0  0  0  0  0  1  0  0  0  0  0  0
  188.7160  177.0550  146.3660 C   0  0  0  0  0  2  0  0  0  0  0  0
  191.7610  175.2930  145.5030 C   0  0  0  0  0  3  0  0  0  0  0  0
  189.7700  176.1260  145.9950 N   0  0  0  0  0  0  0  0  0  0  0  0
  190.9350  173.0310  144.8010 N   0  0  0  0  0  0  0  0  0  0  0  0
  191.0830  176.4150  145.9540 C   0  0  0  0  0  3  0  0  0  0  0  0
  189.5480  174.8910  145.5880 N   0  0  0  0  0  0  0  0  0  0  0  0
  192.2710  172.4980  144.5890 C   0  0  0  0  0  1  0  0  0  0  0  0
  190.7490  174.3680  145.2880 C   0  0  0  0  0  0  0  0  0  0  0  0
  189.3640  172.1500  143.1540 C   0  0  0  0  0  1  0  0  0  0  0  0
  189.8000  172.1400  144.6070 C   0  0  0  0  0  2  0  0  0  0  0  0
  1  3  1  0  0  0  0
  1  5  2  0  0  0  0
  2 14  1  0  0  0  0
  3 13  1  1  0  0  0
  3  2  1  0  0  0  0
  4  2  2  0  0  0  0
  4 18  1  0  0  0  0
  5  4  1  0  0  0  0
  6  7  1  0  0  0  0
  7  1  1  0  0  0  0
  8  7  2  0  0  0  0
  9  6  1  0  0  0  0
 10  9  1  0  0  0  0
 11 13  2  0  0  0  0
 13 12  1  0  0  0  0
 14 15  1  0  0  0  0
 15 17  1  0  0  0  0
 16 15  2  0  0  0  0
 19 22  2  0  0  0  0
 20 18  1  0  0  0  0
 21 25  1  0  0  0  0
 22 20  1  0  0  0  0
 23 20  1  0  0  0  0
 24 21  1  0  0  0  0
 25 19  1  0  0  0  0
 25 23  2  0  0  0  0
 26 27  1  0  0  0  0
 27 21  1  0  0  0  0
M  END
>  <MODEL>
2

>  <REMARK>
 VINA RESULT:      -6.5      1.231      2.233
  Name = 
  8 active torsions:
  status: ('A' for Active; 'I' for Inactive)
    1  A    between atoms: N_1  and  N_13
    2  A    between atoms: C_2  and  C_3
    3  A    between atoms: C_4  and  C_8
    4  A    between atoms: C_8  and  C_9
    5  A    between atoms: N_11  and  C_19
    6  A    between atoms: N_14  and  C_22
    7  A    between atoms: C_17  and  C_26
    8  A    between atoms: C_19  and  C_21
                            x       y       z     vdW  Elec       q    Type
                         _______ _______ _______ _____ _____    ______ ____

>  <TORSDO>
F 8

$$$$
=
 OpenBabel11042414233D

 27 28  0  0  1  0  0  0  0  0999 V2000
  185.7580  178.1810  142.3000 C   0  0  0  0  0  0  0  0  0  0  0  0
  187.3410  178.0050  143.9380 C   0  0  0  0  0  0  0  0  0  0  0  0
  185.8570  178.0870  143.7960 C   0  0  1  0  0  3  0  0  0  0  0  0
  187.8940  178.0780  142.7350 C   0  0  0  0  0  0  0  0  0  0  0  0
  186.9120  178.1760  141.7150 N   0  0  0  0  0  0  0  0  0  0  0  0
  183.2490  178.1770  142.2410 N   0  0  0  0  0  2  0  0  0  0  0  0
  184.4960  178.2330  141.5480 C   0  0  0  0  0  0  0  0  0  0  0  0
  184.5150  178.3230  140.2900 O   0  0  0  0  0  0  0  0  0  0  0  0
  182.0350  178.2280  141.5470 N   0  0  0  0  0  2  0  0  0  0  0  0
  181.1250  178.9850  141.9380 O   0  0  0  0  0  1  0  0  0  0  0  0
  185.6340  180.4690  144.0470 O   0  0  0  0  0  0  0  0  0  0  0  0
  184.4710  179.1930  145.5520 O   0  0  0  0  0  1  0  0  0  0  0  0
  185.3180  179.3210  144.4600 C   0  0  0  0  0  0  0  0  0  0  0  0
  188.0780  177.8100  145.2270 C   0  0  0  0  0  2  0  0  0  0  0  0
  187.7240  176.5010  145.8460 C   0  0  0  0  0  0  0  0  0  0  0  0
  186.6610  176.3850  146.5080 O   0  0  0  0  0  0  0  0  0  0  0  0
  188.6020  175.3900  145.7120 N   0  0  0  0  0  1  0  0  0  0  0  0
  189.3530  177.9490  142.4430 C   0  0  0  0  0  2  0  0  0  0  0  0
  190.9300  174.7120  142.8330 C   0  0  0  0  0  3  0  0  0  0  0  0
  189.7480  176.5520  142.4900 N   0  0  0  0  0  0  0  0  0  0  0  0
  189.3340  173.1540  141.6850 N   0  0  0  0  0  0  0  0  0  0  0  0
  190.8870  176.0820  143.0320 C   0  0  0  0  0  3  0  0  0  0  0  0
  189.0530  175.5740  141.9390 N   0  0  0  0  0  0  0  0  0  0  0  0
  190.0960  171.9630  142.0250 C   0  0  0  0  0  1  0  0  0  0  0  0
  189.7560  174.4470  142.1420 C   0  0  0  0  0  0  0  0  0  0  0  0
  188.3490  172.7180  139.4950 C   0  0  0  0  0  1  0  0  0  0  0  0
  188.0800  172.9870  140.9650 C   0  0  0  0  0  2  0  0  0  0  0  0
  1  3  1  0  0  0  0
  2 14  1  0  0  0  0
  3  2  1  0  0  0  0
  3 13  1  1  0  0  0
  4  2  2  0  0  0  0
  5  1  2  0  0  0  0
  5  4  1  0  0  0  0
  7  6  1  0  0  0  0
  7  1  1  0  0  0  0
  8  7  2  0  0  0  0
  9 10  1  0  0  0  0
  9  6  1  0  0  0  0
 11 13  2  0  0  0  0
 13 12  1  0  0  0  0
 14 15  1  0  0  0  0
 15 16  2  0  0  0  0
 17 15  1  0  0  0  0
 18 20  1  0  0  0  0
 18  4  1  0  0  0  0
 19 22  2  0  0  0  0
 20 22  1  0  0  0  0
 21 24  1  0  0  0  0
 21 25  1  0  0  0  0
 23 25  2  0  0  0  0
 23 20  1  0  0  0  0
 25 19  1  0  0  0  0
 26 27  1  0  0  0  0
 27 21  1  0  0  0  0
M  END
>  <MODEL>
3

>  <REMARK>
 VINA RESULT:      -6.4      2.964      4.420
  Name = 
  8 active torsions:
  status: ('A' for Active; 'I' for Inactive)
    1  A    between atoms: N_1  and  N_13
    2  A    between atoms: C_2  and  C_3
    3  A    between atoms: C_4  and  C_8
    4  A    between atoms: C_8  and  C_9
    5  A    between atoms: N_11  and  C_19
    6  A    between atoms: N_14  and  C_22
    7  A    between atoms: C_17  and  C_26
    8  A    between atoms: C_19  and  C_21
                            x       y       z     vdW  Elec       q    Type
                         _______ _______ _______ _____ _____    ______ ____

>  <TORSDO>
F 8

$$$$
=
 OpenBabel11042414233D

 27 28  0  0  1  0  0  0  0  0999 V2000
  186.1670  177.6920  142.9210 C   0  0  0  0  0  0  0  0  0  0  0  0
  186.7490  177.1470  145.0630 C   0  0  0  0  0  0  0  0  0  0  0  0
  185.5350  177.5140  144.2730 C   0  0  1  0  0  3  0  0  0  0  0  0
  187.8070  177.1700  144.2640 C   0  0  0  0  0  0  0  0  0  0  0  0
  187.4460  177.4960  142.9300 N   0  0  0  0  0  0  0  0  0  0  0  0
  184.0020  178.0110  141.6930 N   0  0  0  0  0  2  0  0  0  0  0  0
  185.4300  178.0140  141.6910 C   0  0  0  0  0  0  0  0  0  0  0  0
  186.0590  178.2890  140.6330 O   0  0  0  0  0  0  0  0  0  0  0  0
  183.2790  178.3170  140.5350 N   0  0  0  0  0  2  0  0  0  0  0  0
  182.1050  177.9160  140.4080 O   0  0  0  0  0  1  0  0  0  0  0  0
  185.5110  179.8990  144.5800 O   0  0  0  0  0  0  0  0  0  0  0  0
  183.7300  178.7600  145.4600 O   0  0  0  0  0  1  0  0  0  0  0  0
  184.9330  178.7950  144.7700 C   0  0  0  0  0  0  0  0  0  0  0  0
  186.7550  176.7590  146.5090 C   0  0  0  0  0  2  0  0  0  0  0  0
  187.1350  177.9170  147.3670 C   0  0  0  0  0  0  0  0  0  0  0  0
  188.3470  178.1640  147.5900 O   0  0  0  0  0  0  0  0  0  0  0  0
  186.1250  178.7280  147.9560 N   0  0  0  0  0  1  0  0  0  0  0  0
  189.1960  176.7830  144.6540 C   0  0  0  0  0  2  0  0  0  0  0  0
  189.8950  173.2290  144.6110 C   0  0  0  0  0  3  0  0  0  0  0  0
  189.4200  175.3760  144.3630 N   0  0  0  0  0  0  0  0  0  0  0  0
  189.8560  172.6650  142.1670 N   0  0  0  0  0  0  0  0  0  0  0  0
  189.6900  174.4260  145.2770 C   0  0  0  0  0  3  0  0  0  0  0  0
  189.4480  174.8750  143.1430 N   0  0  0  0  0  0  0  0  0  0  0  0
  190.0690  171.2440  142.3890 C   0  0  0  0  0  1  0  0  0  0  0  0
  189.7310  173.5680  143.2760 C   0  0  0  0  0  0  0  0  0  0  0  0
  188.2040  173.0270  140.4070 C   0  0  0  0  0  1  0  0  0  0  0  0
  189.6670  173.1280  140.8000 C   0  0  0  0  0  2  0  0  0  0  0  0
  1  5  2  0  0  0  0
  1  3  1  0  0  0  0
  2 14  1  0  0  0  0
  3 13  1  1  0  0  0
  3  2  1  0  0  0  0
  4 18  1  0  0  0  0
  4  2  2  0  0  0  0
  5  4  1  0  0  0  0
  7  6  1  0  0  0  0
  7  1  1  0  0  0  0
  8  7  2  0  0  0  0
  9  6  1  0  0  0  0
 10  9  1  0  0  0  0
 11 13  2  0  0  0  0
 13 12  1  0  0  0  0
 14 15  1  0  0  0  0
 15 16  2  0  0  0  0
 15 17  1  0  0  0  0
 19 22  2  0  0  0  0
 20 18  1  0  0  0  0
 20 22  1  0  0  0  0
 21 24  1  0  0  0  0
 21 25  1  0  0  0  0
 23 25  2  0  0  0  0
 23 20  1  0  0  0  0
 25 19  1  0  0  0  0
 26 27  1  0  0  0  0
 27 21  1  0  0  0  0
M  END
>  <MODEL>
4

>  <REMARK>
 VINA RESULT:      -6.1      2.754      3.559
  Name = 
  8 active torsions:
  status: ('A' for Active; 'I' for Inactive)
    1  A    between atoms: N_1  and  N_13
    2  A    between atoms: C_2  and  C_3
    3  A    between atoms: C_4  and  C_8
    4  A    between atoms: C_8  and  C_9
    5  A    between atoms: N_11  and  C_19
    6  A    between atoms: N_14  and  C_22
    7  A    between atoms: C_17  and  C_26
    8  A    between atoms: C_19  and  C_21
                            x       y       z     vdW  Elec       q    Type
                         _______ _______ _______ _____ _____    ______ ____

>  <TORSDO>
F 8

$$$$
=
 OpenBabel11042414233D

 27 28  0  0  1  0  0  0  0  0999 V2000
  186.3310  177.9670  142.4800 C   0  0  0  0  0  0  0  0  0  0  0  0
  187.6740  177.8740  144.3260 C   0  0  0  0  0  0  0  0  0  0  0  0
  186.2220  177.8790  143.9760 C   0  0  1  0  0  3  0  0  0  0  0  0
  188.3860  177.9750  143.2120 C   0  0  0  0  0  0  0  0  0  0  0  0
  187.5540  178.0210  142.0640 N   0  0  0  0  0  0  0  0  0  0  0  0
  183.8710  178.2120  142.0480 N   0  0  0  0  0  0  0  0  0  0  0  0
  185.1860  177.9540  141.5570 C   0  0  0  0  0  0  0  0  0  0  0  0
  185.3670  177.7110  140.3330 O   0  0  0  0  0  0  0  0  0  0  0  0
  182.7660  178.2070  141.1890 N   0  0  0  0  0  0  0  0  0  0  0  0
  181.6330  178.4860  141.6280 O   0  0  0  0  0  1  0  0  0  0  0  0
  185.7690  180.2380  144.1000 O   0  0  0  0  0  0  0  0  0  0  0  0
  184.6340  178.9230  145.5920 O   0  0  0  0  0  1  0  0  0  0  0  0
  185.5330  179.0830  144.5470 C   0  0  0  0  0  0  0  0  0  0  0  0
  188.2300  177.7170  145.7070 C   0  0  0  0  0  2  0  0  0  0  0  0
  187.7530  176.4510  146.3310 C   0  0  0  0  0  0  0  0  0  0  0  0
  186.6410  176.4180  146.9170 O   0  0  0  0  0  0  0  0  0  0  0  0
  188.5670  175.2850  146.2870 N   0  0  0  0  0  1  0  0  0  0  0  0
  189.8770  177.9220  143.1300 C   0  0  0  0  0  2  0  0  0  0  0  0
  190.5100  174.3550  143.0860 C   0  0  0  0  0  3  0  0  0  0  0  0
  190.3350  176.5520  143.2930 N   0  0  0  0  0  0  0  0  0  0  0  0
  192.2310  174.0560  144.8870 N   0  0  0  0  0  0  0  0  0  0  0  0
  189.8700  175.4890  142.6110 C   0  0  0  0  0  3  0  0  0  0  0  0
  191.2280  176.1800  144.1900 N   0  0  0  0  0  0  0  0  0  0  0  0
  192.3840  172.6310  144.6420 C   0  0  0  0  0  1  0  0  0  0  0  0
  191.3500  174.8470  144.0750 C   0  0  0  0  0  0  0  0  0  0  0  0
  194.5370  174.4670  145.5710 C   0  0  0  0  0  1  0  0  0  0  0  0
  193.0700  174.6740  145.9030 C   0  0  0  0  0  2  0  0  0  0  0  0
  1  3  1  0  0  0  0
  2 14  1  0  0  0  0
  3  2  1  0  0  0  0
  3 13  1  1  0  0  0
  4  2  2  0  0  0  0
  5  1  2  0  0  0  0
  5  4  1  0  0  0  0
  7  6  1  0  0  0  0
  7  1  1  0  0  0  0
  8  7  2  0  0  0  0
  9 10  1  0  0  0  0
  9  6  2  0  0  0  0
 11 13  2  0  0  0  0
 13 12  1  0  0  0  0
 14 15  1  0  0  0  0
 15 16  2  0  0  0  0
 17 15  1  0  0  0  0
 18  4  1  0  0  0  0
 18 20  1  0  0  0  0
 19 25  1  0  0  0  0
 20 23  1  0  0  0  0
 21 27  1  0  0  0  0
 22 19  2  0  0  0  0
 22 20  1  0  0  0  0
 24 21  1  0  0  0  0
 25 23  2  0  0  0  0
 25 21  1  0  0  0  0
 26 27  1  0  0  0  0
M  END
>  <MODEL>
5

>  <REMARK>
 VINA RESULT:      -6.0      2.081      2.868
  Name = 
  8 active torsions:
  status: ('A' for Active; 'I' for Inactive)
    1  A    between atoms: N_1  and  N_13
    2  A    between atoms: C_2  and  C_3
    3  A    between atoms: C_4  and  C_8
    4  A    between atoms: C_8  and  C_9
    5  A    between atoms: N_11  and  C_19
    6  A    between atoms: N_14  and  C_22
    7  A    between atoms: C_17  and  C_26
    8  A    between atoms: C_19  and  C_21
                            x       y       z     vdW  Elec       q    Type
                         _______ _______ _______ _____ _____    ______ ____

>  <TORSDO>
F 8

$$$$
=
 OpenBabel11042414233D

 27 28  0  0  1  0  0  0  0  0999 V2000
  187.6480  177.3640  143.7800 C   0  0  0  0  0  0  0  0  0  0  0  0
  189.1620  177.1610  145.4800 C   0  0  0  0  0  0  0  0  0  0  0  0
  187.7450  176.8030  145.1710 C   0  0  1  0  0  3  0  0  0  0  0  0
  189.6770  177.8140  144.4470 C   0  0  0  0  0  0  0  0  0  0  0  0
  188.7420  177.9310  143.3860 N   0  0  0  0  0  0  0  0  0  0  0  0
  185.9570  178.4180  142.2550 N   0  0  0  0  0  2  0  0  0  0  0  0
  186.4620  177.2590  142.9180 C   0  0  0  0  0  0  0  0  0  0  0  0
  185.8890  176.1460  142.7690 O   0  0  0  0  0  0  0  0  0  0  0  0
  184.8310  178.3420  141.4270 N   0  0  0  0  0  2  0  0  0  0  0  0
  184.9700  178.2000  140.1960 O   0  0  0  0  0  1  0  0  0  0  0  0
  186.3800  178.6560  145.8670 O   0  0  0  0  0  0  0  0  0  0  0  0
  186.3850  176.8410  147.2620 O   0  0  0  0  0  1  0  0  0  0  0  0
  186.7970  177.4920  146.1080 C   0  0  0  0  0  0  0  0  0  0  0  0
  189.8960  176.7870  146.7300 C   0  0  0  0  0  2  0  0  0  0  0  0
  190.0410  175.3080  146.8380 C   0  0  0  0  0  0  0  0  0  0  0  0
  191.0220  174.7310  146.3030 O   0  0  0  0  0  0  0  0  0  0  0  0
  189.0540  174.5440  147.5210 N   0  0  0  0  0  1  0  0  0  0  0  0
  191.0940  178.2710  144.3300 C   0  0  0  0  0  2  0  0  0  0  0  0
  192.6870  175.4640  142.6860 C   0  0  0  0  0  3  0  0  0  0  0  0
  191.9320  177.1780  143.8650 N   0  0  0  0  0  0  0  0  0  0  0  0
  194.6190  174.9340  144.1970 N   0  0  0  0  0  0  0  0  0  0  0  0
  191.7070  176.4400  142.7630 C   0  0  0  0  0  3  0  0  0  0  0  0
  192.9900  176.7370  144.5170 N   0  0  0  0  0  0  0  0  0  0  0  0
  195.1340  173.8830  143.3350 C   0  0  0  0  0  1  0  0  0  0  0  0
  193.4650  175.6970  143.8110 C   0  0  0  0  0  0  0  0  0  0  0  0
  196.3220  174.1380  145.7520 C   0  0  0  0  0  1  0  0  0  0  0  0
  195.3640  175.2620  145.4040 C   0  0  0  0  0  2  0  0  0  0  0  0
  1  3  1  0  0  0  0
  2 14  1  0  0  0  0
  3  2  1  0  0  0  0
  3 13  1  1  0  0  0
  4  2  2  0  0  0  0
  5  1  2  0  0  0  0
  5  4  1  0  0  0  0
  6  7  1  0  0  0  0
  7  1  1  0  0  0  0
  8  7  2  0  0  0  0
  9  6  1  0  0  0  0
 10  9  1  0  0  0  0
 11 13  2  0  0  0  0
 13 12  1  0  0  0  0
 14 15  1  0  0  0  0
 15 17  1  0  0  0  0
 16 15  2  0  0  0  0
 18  4  1  0  0  0  0
 19 22  2  0  0  0  0
 19 25  1  0  0  0  0
 20 18  1  0  0  0  0
 20 23  1  0  0  0  0
 21 27  1  0  0  0  0
 22 20  1  0  0  0  0
 24 21  1  0  0  0  0
 25 21  1  0  0  0  0
 25 23  2  0  0  0  0
 27 26  1  0  0  0  0
M  END
>  <MODEL>
6

>  <REMARK>
 VINA RESULT:      -6.0      2.568      3.519
  Name = 
  8 active torsions:
  status: ('A' for Active; 'I' for Inactive)
    1  A    between atoms: N_1  and  N_13
    2  A    between atoms: C_2  and  C_3
    3  A    between atoms: C_4  and  C_8
    4  A    between atoms: C_8  and  C_9
    5  A    between atoms: N_11  and  C_19
    6  A    between atoms: N_14  and  C_22
    7  A    between atoms: C_17  and  C_26
    8  A    between atoms: C_19  and  C_21
                            x       y       z     vdW  Elec       q    Type
                         _______ _______ _______ _____ _____    ______ ____

>  <TORSDO>
F 8

$$$$
=
 OpenBabel11042414233D

 27 28  0  0  1  0  0  0  0  0999 V2000
  187.9810  175.7140  142.8490 C   0  0  0  0  0  0  0  0  0  0  0  0
  187.3880  177.3130  144.3700 C   0  0  0  0  0  0  0  0  0  0  0  0
  186.7680  176.4800  143.2970 C   0  0  1  0  0  3  0  0  0  0  0  0
  188.6850  177.0420  144.4310 C   0  0  0  0  0  0  0  0  0  0  0  0
  189.0530  176.0410  143.4960 N   0  0  0  0  0  0  0  0  0  0  0  0
  188.5630  174.9190  140.5410 N   0  0  0  0  0  2  0  0  0  0  0  0
  187.9740  174.6670  141.8170 C   0  0  0  0  0  0  0  0  0  0  0  0
  187.4450  173.5480  142.0580 O   0  0  0  0  0  0  0  0  0  0  0  0
  188.5700  173.9380  139.5440 N   0  0  0  0  0  2  0  0  0  0  0  0
  188.1170  174.1970  138.4110 O   0  0  0  0  0  1  0  0  0  0  0  0
  184.9850  177.5350  142.0770 O   0  0  0  0  0  1  0  0  0  0  0  0
  187.0990  177.9120  141.2810 O   0  0  0  0  0  0  0  0  0  0  0  0
  186.2240  177.3380  142.1930 C   0  0  0  0  0  0  0  0  0  0  0  0
  186.6500  178.2550  145.2700 C   0  0  0  0  0  2  0  0  0  0  0  0
  185.8640  177.5060  146.2910 C   0  0  0  0  0  0  0  0  0  0  0  0
  186.4490  176.7350  147.0930 O   0  0  0  0  0  0  0  0  0  0  0  0
  184.4490  177.6410  146.3400 N   0  0  0  0  0  1  0  0  0  0  0  0
  189.6420  177.6070  145.4300 C   0  0  0  0  0  2  0  0  0  0  0  0
  191.9300  175.0080  146.4930 C   0  0  0  0  0  3  0  0  0  0  0  0
  190.7290  176.6710  145.6610 N   0  0  0  0  0  0  0  0  0  0  0  0
  194.0330  175.5460  145.2360 N   0  0  0  0  0  0  0  0  0  0  0  0
  190.6900  175.6260  146.5080 C   0  0  0  0  0  3  0  0  0  0  0  0
  191.9200  176.7790  145.1040 N   0  0  0  0  0  0  0  0  0  0  0  0
  194.7470  174.3810  145.7330 C   0  0  0  0  0  1  0  0  0  0  0  0
  192.6620  175.7730  145.5960 C   0  0  0  0  0  0  0  0  0  0  0  0
  194.7090  175.7830  142.9030 C   0  0  0  0  0  1  0  0  0  0  0  0
  194.7110  176.4140  144.2840 C   0  0  0  0  0  2  0  0  0  0  0  0
  1  3  1  0  0  0  0
  1  5  2  0  0  0  0
  2  4  2  0  0  0  0
  2 14  1  0  0  0  0
  3 13  1  6  0  0  0
  3  2  1  0  0  0  0
  4 18  1  0  0  0  0
  5  4  1  0  0  0  0
  6  7  1  0  0  0  0
  7  8  2  0  0  0  0
  7  1  1  0  0  0  0
  9  6  1  0  0  0  0
 10  9  1  0  0  0  0
 11 13  1  0  0  0  0
 12 13  2  0  0  0  0
 14 15  1  0  0  0  0
 15 17  1  0  0  0  0
 15 16  2  0  0  0  0
 18 20  1  0  0  0  0
 19 22  2  0  0  0  0
 20 22  1  0  0  0  0
 21 25  1  0  0  0  0
 21 24  1  0  0  0  0
 23 25  2  0  0  0  0
 23 20  1  0  0  0  0
 25 19  1  0  0  0  0
 26 27  1  0  0  0  0
 27 21  1  0  0  0  0
M  END
>  <MODEL>
7

>  <REMARK>
 VINA RESULT:      -5.9      2.130      2.451
  Name = 
  8 active torsions:
  status: ('A' for Active; 'I' for Inactive)
    1  A    between atoms: N_1  and  N_13
    2  A    between atoms: C_2  and  C_3
    3  A    between atoms: C_4  and  C_8
    4  A    between atoms: C_8  and  C_9
    5  A    between atoms: N_11  and  C_19
    6  A    between atoms: N_14  and  C_22
    7  A    between atoms: C_17  and  C_26
    8  A    between atoms: C_19  and  C_21
                            x       y       z     vdW  Elec       q    Type
                         _______ _______ _______ _____ _____    ______ ____

>  <TORSDO>
F 8

$$$$
=
 OpenBabel11042414233D

 27 28  0  0  1  0  0  0  0  0999 V2000
  191.0500  176.3230  144.2550 C   0  0  0  0  0  0  0  0  0  0  0  0
  189.2540  175.5950  143.0450 C   0  0  0  0  0  0  0  0  0  0  0  0
  190.2670  175.0650  144.0060 C   0  0  1  0  0  3  0  0  0  0  0  0
  189.5000  176.8790  142.8240 C   0  0  0  0  0  0  0  0  0  0  0  0
  190.6080  177.3360  143.5830 N   0  0  0  0  0  0  0  0  0  0  0  0
  193.4940  176.6840  144.6950 N   0  0  0  0  0  2  0  0  0  0  0  0
  192.1790  176.4320  145.1910 C   0  0  0  0  0  0  0  0  0  0  0  0
  191.9860  176.3000  146.4290 O   0  0  0  0  0  0  0  0  0  0  0  0
  194.5840  176.7950  145.5660 N   0  0  0  0  0  2  0  0  0  0  0  0
  194.9440  177.9170  145.9750 O   0  0  0  0  0  1  0  0  0  0  0  0
  191.8490  174.2770  142.3750 O   0  0  0  0  0  0  0  0  0  0  0  0
  191.0870  172.7130  143.8630 O   0  0  0  0  0  1  0  0  0  0  0  0
  191.1180  174.0080  143.3650 C   0  0  0  0  0  0  0  0  0  0  0  0
  188.1100  174.8140  142.4760 C   0  0  0  0  0  2  0  0  0  0  0  0
  188.4800  174.2120  141.1640 C   0  0  0  0  0  0  0  0  0  0  0  0
  188.4490  174.9130  140.1200 O   0  0  0  0  0  0  0  0  0  0  0  0
  188.8430  172.8390  141.0870 N   0  0  0  0  0  1  0  0  0  0  0  0
  188.6620  177.7890  141.9860 C   0  0  0  0  0  2  0  0  0  0  0  0
  185.3340  178.7280  143.0650 C   0  0  0  0  0  3  0  0  0  0  0  0
  187.4180  178.0910  142.6730 N   0  0  0  0  0  0  0  0  0  0  0  0
  185.4780  178.5780  145.5650 N   0  0  0  0  0  0  0  0  0  0  0  0
  186.2760  178.4820  142.0780 C   0  0  0  0  0  3  0  0  0  0  0  0
  187.2830  178.0790  143.9850 N   0  0  0  0  0  0  0  0  0  0  0  0
  184.0740  178.9010  145.7650 C   0  0  0  0  0  1  0  0  0  0  0  0
  186.0200  178.4600  144.2410 C   0  0  0  0  0  0  0  0  0  0  0  0
  186.0010  176.8650  147.2240 C   0  0  0  0  0  1  0  0  0  0  0  0
  186.2880  178.2740  146.7360 C   0  0  0  0  0  2  0  0  0  0  0  0
  1  7  1  0  0  0  0
  2  3  1  0  0  0  0
  3 13  1  6  0  0  0
  3  1  1  0  0  0  0
  4  2  2  0  0  0  0
  4  5  1  0  0  0  0
  5  1  2  0  0  0  0
  6  7  1  0  0  0  0
  6  9  1  0  0  0  0
  7  8  2  0  0  0  0
  9 10  1  0  0  0  0
 11 13  2  0  0  0  0
 13 12  1  0  0  0  0
 14  2  1  0  0  0  0
 15 14  1  0  0  0  0
 16 15  2  0  0  0  0
 17 15  1  0  0  0  0
 18 20  1  0  0  0  0
 18  4  1  0  0  0  0
 19 25  1  0  0  0  0
 20 23  1  0  0  0  0
 21 24  1  0  0  0  0
 21 27  1  0  0  0  0
 22 20  1  0  0  0  0
 22 19  2  0  0  0  0
 23 25  2  0  0  0  0
 25 21  1  0  0  0  0
 27 26  1  0  0  0  0
M  END
>  <MODEL>
8

>  <REMARK>
 VINA RESULT:      -5.9      3.340      7.317
  Name = 
  8 active torsions:
  status: ('A' for Active; 'I' for Inactive)
    1  A    between atoms: N_1  and  N_13
    2  A    between atoms: C_2  and  C_3
    3  A    between atoms: C_4  and  C_8
    4  A    between atoms: C_8  and  C_9
    5  A    between atoms: N_11  and  C_19
    6  A    between atoms: N_14  and  C_22
    7  A    between atoms: C_17  and  C_26
    8  A    between atoms: C_19  and  C_21
                            x       y       z     vdW  Elec       q    Type
                         _______ _______ _______ _____ _____    ______ ____

>  <TORSDO>
F 8

$$$$
=
 OpenBabel11042414233D

 27 28  0  0  1  0  0  0  0  0999 V2000
  189.3270  174.0040  142.7840 C   0  0  0  0  0  0  0  0  0  0  0  0
  190.9660  174.6680  144.2320 C   0  0  0  0  0  0  0  0  0  0  0  0
  190.6500  173.5310  143.3170 C   0  0  1  0  0  3  0  0  0  0  0  0
  189.9680  175.5410  144.1950 C   0  0  0  0  0  0  0  0  0  0  0  0
  188.9550  175.1360  143.2880 N   0  0  0  0  0  0  0  0  0  0  0  0
  188.9360  173.3350  140.3970 N   0  0  0  0  0  2  0  0  0  0  0  0
  188.5350  173.2970  141.7670 C   0  0  0  0  0  0  0  0  0  0  0  0
  187.5000  172.6620  142.1050 O   0  0  0  0  0  0  0  0  0  0  0  0
  188.1990  172.6680  139.4120 N   0  0  0  0  0  2  0  0  0  0  0  0
  188.1910  173.0980  138.2420 O   0  0  0  0  0  1  0  0  0  0  0  0
  189.5100  172.0420  144.8220 O   0  0  0  0  0  1  0  0  0  0  0  0
  191.4940  171.2780  143.9740 O   0  0  0  0  0  0  0  0  0  0  0  0
  190.5070  172.2470  144.0800 C   0  0  0  0  0  0  0  0  0  0  0  0
  192.2320  174.8230  145.0150 C   0  0  0  0  0  2  0  0  0  0  0  0
  193.3610  175.2180  144.1250 C   0  0  0  0  0  0  0  0  0  0  0  0
  193.5240  176.4250  143.8140 O   0  0  0  0  0  0  0  0  0  0  0  0
  194.2380  174.2260  143.6050 N   0  0  0  0  0  1  0  0  0  0  0  0
  189.9390  176.8540  144.9070 C   0  0  0  0  0  2  0  0  0  0  0  0
  186.9260  176.7980  146.9170 C   0  0  0  0  0  3  0  0  0  0  0  0
  188.6480  177.0420  145.5480 N   0  0  0  0  0  0  0  0  0  0  0  0
  185.4160  178.4150  145.7340 N   0  0  0  0  0  0  0  0  0  0  0  0
  188.2220  176.3890  146.6450 C   0  0  0  0  0  3  0  0  0  0  0  0
  187.7070  177.8410  145.0820 N   0  0  0  0  0  0  0  0  0  0  0  0
  184.3530  178.2970  146.7180 C   0  0  0  0  0  1  0  0  0  0  0  0
  186.6540  177.7080  145.9060 C   0  0  0  0  0  0  0  0  0  0  0  0
  183.9470  179.0420  143.8890 C   0  0  0  0  0  1  0  0  0  0  0  0
  185.2340  179.3490  144.6320 C   0  0  0  0  0  2  0  0  0  0  0  0
  1  5  2  0  0  0  0
  1  3  1  0  0  0  0
  2 14  1  0  0  0  0
  3 13  1  1  0  0  0
  3  2  1  0  0  0  0
  4  2  2  0  0  0  0
  4 18  1  0  0  0  0
  5  4  1  0  0  0  0
  6  7  1  0  0  0  0
  7  8  2  0  0  0  0
  7  1  1  0  0  0  0
  9  6  1  0  0  0  0
 10  9  1  0  0  0  0
 12 13  2  0  0  0  0
 13 11  1  0  0  0  0
 15 14  1  0  0  0  0
 16 15  2  0  0  0  0
 17 15  1  0  0  0  0
 18 20  1  0  0  0  0
 20 22  1  0  0  0  0
 21 25  1  0  0  0  0
 21 24  1  0  0  0  0
 22 19  2  0  0  0  0
 23 20  1  0  0  0  0
 23 25  2  0  0  0  0
 25 19  1  0  0  0  0
 26 27  1  0  0  0  0
 27 21  1  0  0  0  0
M  END
>  <MODEL>
9

>  <REMARK>
 VINA RESULT:      -5.8      3.603      6.931
  Name = 
  8 active torsions:
  status: ('A' for Active; 'I' for Inactive)
    1  A    between atoms: N_1  and  N_13
    2  A    between atoms: C_2  and  C_3
    3  A    between atoms: C_4  and  C_8
    4  A    between atoms: C_8  and  C_9
    5  A    between atoms: N_11  and  C_19
    6  A    between atoms: N_14  and  C_22
    7  A    between atoms: C_17  and  C_26
    8  A    between atoms: C_19  and  C_21
                            x       y       z     vdW  Elec       q    Type
                         _______ _______ _______ _____ _____    ______ ____

>  <TORSDO>
F 8

$$$$
