=
 OpenBabel11042418343D

 37 39  0  0  1  0  0  0  0  0999 V2000
  189.6820  174.5830  143.8260 C   0  0  0  0  0  0  0  0  0  0  0  0
  188.7030  175.1500  144.5820 N   0  0  0  0  0  0  0  0  0  0  0  0
  190.9380  175.2300  143.7000 C   0  0  0  0  0  0  0  0  0  0  0  0
  188.8670  176.3350  145.2300 C   0  0  0  0  0  0  0  0  0  0  0  0
  190.0920  176.9990  145.1350 C   0  0  0  0  0  3  0  0  0  0  0  0
  191.1260  176.4450  144.3800 C   0  0  0  0  0  0  0  0  0  0  0  0
  185.3890  177.0310  146.5690 C   0  0  0  0  0  3  0  0  0  0  0  0
  187.7580  176.9010  146.0270 C   0  0  0  0  0  0  0  0  0  0  0  0
  187.2420  179.3280  148.7260 F   0  0  0  0  0  0  0  0  0  0  0  0
  186.4310  176.4900  145.8110 C   0  0  0  0  0  3  0  0  0  0  0  0
  188.0190  177.8610  147.0170 C   0  0  0  0  0  3  0  0  0  0  0  0
  185.6620  177.9860  147.5520 C   0  0  0  0  0  3  0  0  0  0  0  0
  186.9770  178.4020  147.7750 C   0  0  0  0  0  0  0  0  0  0  0  0
  192.1280  174.7980  141.5300 C   0  0  0  0  0  1  0  0  0  0  0  0
  192.0140  174.7300  142.9440 O   0  0  0  0  0  0  0  0  0  0  0  0
  189.3930  173.2510  143.2200 C   0  0  0  0  0  2  0  0  0  0  0  0
  188.2980  173.3740  142.2680 N   0  0  0  0  0  2  0  0  0  0  0  0
  188.4100  173.0500  139.6150 S   0  0  0  0  0  0  0  0  0  0  0  0
  188.4390  173.9730  140.9770 C   0  0  0  0  0  0  0  0  0  0  0  0
  188.5650  175.3960  140.8950 N   0  0  0  0  0  2  0  0  0  0  0  0
  187.4520  176.3240  141.0470 C   0  0  2  0  0  3  0  0  0  0  0  0
  187.0160  176.7380  139.7890 O   0  0  0  0  0  1  0  0  0  0  0  0
  187.8930  177.5370  141.8490 C   0  0  0  0  0  2  0  0  0  0  0  0
  186.7180  178.3490  142.2820 C   0  0  0  0  0  3  0  0  0  0  0  0
  186.7180  178.9490  143.4300 N   0  0  0  0  0  0  0  0  0  0  0  0
  183.9090  178.1500  143.4990 O   0  0  0  0  0  1  0  0  0  0  0  0
  184.3530  179.3800  143.9690 C   0  0  0  0  0  3  0  0  0  0  0  0
  185.6380  179.7480  143.9390 C   0  0  0  0  0  3  0  0  0  0  0  0
  192.4190  177.1930  144.2760 C   0  0  0  0  0  2  0  0  0  0  0  0
  197.2290  175.3420  143.4680 Cl  0  0  0  0  0  0  0  0  0  0  0  0
  193.4670  175.7240  146.0110 C   0  0  0  0  0  3  0  0  0  0  0  0
  197.0240  173.8620  146.3480 Cl  0  0  0  0  0  0  0  0  0  0  0  0
  195.7900  175.4690  144.4660 C   0  0  0  0  0  0  0  0  0  0  0  0
  195.7020  174.8290  145.7150 C   0  0  0  0  0  0  0  0  0  0  0  0
  194.7160  176.2320  144.0000 C   0  0  0  0  0  3  0  0  0  0  0  0
  193.5530  176.3570  144.7670 C   0  0  0  0  0  0  0  0  0  0  0  0
  194.5390  174.9610  146.4820 C   0  0  0  0  0  3  0  0  0  0  0  0
  1  2  1  0  0  0  0
  2  4  2  0  0  0  0
  3  1  2  0  0  0  0
  3  6  1  0  0  0  0
  4  8  1  0  0  0  0
  5  4  1  0  0  0  0
  6  5  2  0  0  0  0
  7 12  1  0  0  0  0
  8 11  2  0  0  0  0
 10  8  1  0  0  0  0
 10  7  2  0  0  0  0
 11 13  1  0  0  0  0
 12 13  2  0  0  0  0
 13  9  1  0  0  0  0
 14 15  1  0  0  0  0
 15  3  1  0  0  0  0
 16  1  1  0  0  0  0
 17 16  1  0  0  0  0
 18 19  2  0  0  0  0
 19 17  1  0  0  0  0
 20 19  1  0  0  0  0
 20 21  1  0  0  0  0
 21 22  1  6  0  0  0
 21 23  1  0  0  0  0
 23 24  1  0  0  0  0
 24 25  2  0  0  0  0
 25 28  1  0  0  0  0
 26 27  1  0  0  0  0
 28 27  2  0  0  0  0
 29  6  1  0  0  0  0
 29 36  1  0  0  0  0
 30 33  1  0  0  0  0
 31 37  1  0  0  0  0
 33 34  1  0  0  0  0
 34 32  1  0  0  0  0
 34 37  2  0  0  0  0
 35 33  2  0  0  0  0
 35 36  1  0  0  0  0
 36 31  2  0  0  0  0
M  END
>  <MODEL>
1

>  <REMARK>
 VINA RESULT:      -7.0      0.000      0.000
  Name = 
  12 active torsions:
  status: ('A' for Active; 'I' for Inactive)
    1  A    between atoms: C_4  and  N_36
    2  A    between atoms: C_8  and  C_12
    3  A    between atoms: C_12  and  N_25
    4  A    between atoms: C_13  and  C_24
    5  A    between atoms: C_16  and  C_33
    6  A    between atoms: C_17  and  N_27
    7  A    between atoms: C_17  and  C_33
    8  A    between atoms: C_18  and  O_31
    9  A    between atoms: C_22  and  C_30
   10  A    between atoms: N_25  and  C_26
   11  A    between atoms: C_26  and  N_27
   12  A    between atoms: C_30  and  C_34
                            x       y       z     vdW  Elec       q    Type
                         _______ _______ _______ _____ _____    ______ ____

>  <TORSDO>
F 12

$$$$
=
 OpenBabel11042418343D

 37 39  0  0  1  0  0  0  0  0999 V2000
  190.6690  176.2760  142.9840 C   0  0  0  0  0  0  0  0  0  0  0  0
  189.5090  176.9830  143.0530 N   0  0  0  0  0  0  0  0  0  0  0  0
  190.6290  174.8780  142.7440 C   0  0  0  0  0  0  0  0  0  0  0  0
  188.2850  176.4050  142.9100 C   0  0  0  0  0  0  0  0  0  0  0  0
  188.2050  175.0320  142.6680 C   0  0  0  0  0  3  0  0  0  0  0  0
  189.3720  174.2730  142.5760 C   0  0  0  0  0  0  0  0  0  0  0  0
  184.7880  177.7400  142.3070 C   0  0  0  0  0  3  0  0  0  0  0  0
  187.0620  177.2300  143.0080 C   0  0  0  0  0  0  0  0  0  0  0  0
  185.8160  180.1280  144.8770 F   0  0  0  0  0  0  0  0  0  0  0  0
  185.9400  176.9540  142.2080 C   0  0  0  0  0  3  0  0  0  0  0  0
  187.0080  178.3070  143.9070 C   0  0  0  0  0  3  0  0  0  0  0  0
  184.7460  178.8080  143.2070 C   0  0  0  0  0  3  0  0  0  0  0  0
  185.8560  179.0920  144.0050 C   0  0  0  0  0  0  0  0  0  0  0  0
  192.6890  174.0410  141.5730 C   0  0  0  0  0  1  0  0  0  0  0  0
  191.7680  174.0580  142.6550 O   0  0  0  0  0  0  0  0  0  0  0  0
  191.9440  177.0420  143.0960 C   0  0  0  0  0  2  0  0  0  0  0  0
  192.3270  177.1510  144.4960 N   0  0  0  0  0  2  0  0  0  0  0  0
  194.2730  175.4380  145.1570 S   0  0  0  0  0  0  0  0  0  0  0  0
  192.7460  176.0360  145.2880 C   0  0  0  0  0  0  0  0  0  0  0  0
  191.8190  175.4790  146.2260 N   0  0  0  0  0  2  0  0  0  0  0  0
  190.7160  176.2210  146.8210 C   0  0  2  0  0  3  0  0  0  0  0  0
  191.0270  176.5410  148.1420 O   0  0  0  0  0  1  0  0  0  0  0  0
  189.4510  175.3790  146.7950 C   0  0  0  0  0  2  0  0  0  0  0  0
  188.2490  176.2260  146.5340 C   0  0  0  0  0  3  0  0  0  0  0  0
  187.2450  176.2140  147.3520 N   0  0  0  0  0  0  0  0  0  0  0  0
  186.8420  178.9420  148.3170 O   0  0  0  0  0  1  0  0  0  0  0  0
  185.8610  178.2340  147.6320 C   0  0  0  0  0  3  0  0  0  0  0  0
  186.0440  176.9860  147.1890 C   0  0  0  0  0  3  0  0  0  0  0  0
  189.2540  172.8000  142.3400 C   0  0  0  0  0  2  0  0  0  0  0  0
  191.5430  170.1490  138.4740 Cl  0  0  0  0  0  0  0  0  0  0  0  0
  188.4030  173.0760  140.0020 C   0  0  0  0  0  3  0  0  0  0  0  0
  189.4250  171.5170  136.4310 Cl  0  0  0  0  0  0  0  0  0  0  0  0
  190.3250  171.2820  139.0350 C   0  0  0  0  0  0  0  0  0  0  0  0
  189.4070  171.8740  138.1500 C   0  0  0  0  0  0  0  0  0  0  0  0
  190.2750  171.5930  140.3970 C   0  0  0  0  0  3  0  0  0  0  0  0
  189.3190  172.4910  140.8820 C   0  0  0  0  0  0  0  0  0  0  0  0
  188.4490  172.7680  138.6400 C   0  0  0  0  0  3  0  0  0  0  0  0
  1  2  1  0  0  0  0
  1 16  1  0  0  0  0
  3  1  2  0  0  0  0
  4  8  1  0  0  0  0
  4  2  2  0  0  0  0
  5  4  1  0  0  0  0
  6  5  2  0  0  0  0
  6  3  1  0  0  0  0
  7 12  1  0  0  0  0
  8 11  2  0  0  0  0
 10  7  2  0  0  0  0
 10  8  1  0  0  0  0
 11 13  1  0  0  0  0
 12 13  2  0  0  0  0
 13  9  1  0  0  0  0
 14 15  1  0  0  0  0
 15  3  1  0  0  0  0
 16 17  1  0  0  0  0
 17 19  1  0  0  0  0
 18 19  2  0  0  0  0
 19 20  1  0  0  0  0
 20 21  1  0  0  0  0
 21 22  1  1  0  0  0
 23 21  1  0  0  0  0
 24 23  1  0  0  0  0
 24 25  2  0  0  0  0
 27 26  1  0  0  0  0
 28 25  1  0  0  0  0
 28 27  2  0  0  0  0
 29  6  1  0  0  0  0
 30 33  1  0  0  0  0
 31 36  1  0  0  0  0
 32 34  1  0  0  0  0
 33 35  1  0  0  0  0
 34 37  1  0  0  0  0
 34 33  2  0  0  0  0
 35 36  2  0  0  0  0
 36 29  1  0  0  0  0
 37 31  2  0  0  0  0
M  END
>  <MODEL>
2

>  <REMARK>
 VINA RESULT:      -7.0      3.658      6.088
  Name = 
  12 active torsions:
  status: ('A' for Active; 'I' for Inactive)
    1  A    between atoms: C_4  and  N_36
    2  A    between atoms: C_8  and  C_12
    3  A    between atoms: C_12  and  N_25
    4  A    between atoms: C_13  and  C_24
    5  A    between atoms: C_16  and  C_33
    6  A    between atoms: C_17  and  N_27
    7  A    between atoms: C_17  and  C_33
    8  A    between atoms: C_18  and  O_31
    9  A    between atoms: C_22  and  C_30
   10  A    between atoms: N_25  and  C_26
   11  A    between atoms: C_26  and  N_27
   12  A    between atoms: C_30  and  C_34
                            x       y       z     vdW  Elec       q    Type
                         _______ _______ _______ _____ _____    ______ ____

>  <TORSDO>
F 12

$$$$
=
 OpenBabel11042418343D

 37 39  0  0  1  0  0  0  0  0999 V2000
  190.3620  176.5210  142.7890 C   0  0  0  0  0  0  0  0  0  0  0  0
  189.2330  177.2360  143.0410 N   0  0  0  0  0  0  0  0  0  0  0  0
  190.2650  175.2410  142.1840 C   0  0  0  0  0  0  0  0  0  0  0  0
  187.9880  176.7760  142.7430 C   0  0  0  0  0  0  0  0  0  0  0  0
  187.8520  175.5220  142.1410 C   0  0  0  0  0  3  0  0  0  0  0  0
  188.9850  174.7620  141.8550 C   0  0  0  0  0  0  0  0  0  0  0  0
  185.7660  179.4770  144.2080 C   0  0  0  0  0  3  0  0  0  0  0  0
  186.8010  177.6010  143.0520 C   0  0  0  0  0  0  0  0  0  0  0  0
  183.2380  177.7590  142.2020 F   0  0  0  0  0  0  0  0  0  0  0  0
  186.8940  178.7020  143.9210 C   0  0  0  0  0  3  0  0  0  0  0  0
  185.5580  177.2930  142.4770 C   0  0  0  0  0  3  0  0  0  0  0  0
  184.5350  179.1590  143.6280 C   0  0  0  0  0  3  0  0  0  0  0  0
  184.4310  178.0670  142.7640 C   0  0  0  0  0  0  0  0  0  0  0  0
  191.8160  173.3250  142.6670 C   0  0  0  0  0  1  0  0  0  0  0  0
  191.3680  174.4210  141.8840 O   0  0  0  0  0  0  0  0  0  0  0  0
  191.6670  177.1680  143.1080 C   0  0  0  0  0  2  0  0  0  0  0  0
  192.4020  176.3450  144.0580 N   0  0  0  0  0  2  0  0  0  0  0  0
  193.5840  176.5700  146.4470 S   0  0  0  0  0  0  0  0  0  0  0  0
  192.2610  176.4610  145.4760 C   0  0  0  0  0  0  0  0  0  0  0  0
  190.9410  176.5200  146.0270 N   0  0  0  0  0  2  0  0  0  0  0  0
  190.1950  175.3550  146.4840 C   0  0  2  0  0  3  0  0  0  0  0  0
  190.6530  174.2180  145.8200 O   0  0  0  0  0  1  0  0  0  0  0  0
  188.7140  175.5420  146.1950 C   0  0  0  0  0  2  0  0  0  0  0  0
  188.1970  176.7870  146.8350 C   0  0  0  0  0  3  0  0  0  0  0  0
  186.9290  176.9370  147.0560 N   0  0  0  0  0  0  0  0  0  0  0  0
  184.1410  177.7550  146.7530 O   0  0  0  0  0  1  0  0  0  0  0  0
  185.0560  178.4690  147.5190 C   0  0  0  0  0  3  0  0  0  0  0  0
  186.3320  178.0950  147.6600 C   0  0  0  0  0  3  0  0  0  0  0  0
  188.8070  173.4120  141.2330 C   0  0  0  0  0  2  0  0  0  0  0  0
  187.3340  175.5310  136.7000 Cl  0  0  0  0  0  0  0  0  0  0  0  0
  189.9690  172.7160  139.1270 C   0  0  0  0  0  3  0  0  0  0  0  0
  189.6130  173.7360  135.2470 Cl  0  0  0  0  0  0  0  0  0  0  0  0
  188.3600  174.4360  137.6100 C   0  0  0  0  0  0  0  0  0  0  0  0
  189.3490  173.6590  136.9810 C   0  0  0  0  0  0  0  0  0  0  0  0
  188.1840  174.3460  138.9940 C   0  0  0  0  0  3  0  0  0  0  0  0
  188.9830  173.4850  139.7540 C   0  0  0  0  0  0  0  0  0  0  0  0
  190.1490  172.8030  137.7450 C   0  0  0  0  0  3  0  0  0  0  0  0
  1  2  1  0  0  0  0
  1 16  1  0  0  0  0
  3  1  2  0  0  0  0
  4  2  2  0  0  0  0
  4  8  1  0  0  0  0
  5  4  1  0  0  0  0
  6  5  2  0  0  0  0
  6  3  1  0  0  0  0
  8 10  2  0  0  0  0
  9 13  1  0  0  0  0
 10  7  1  0  0  0  0
 11 13  2  0  0  0  0
 11  8  1  0  0  0  0
 12  7  2  0  0  0  0
 13 12  1  0  0  0  0
 15  3  1  0  0  0  0
 15 14  1  0  0  0  0
 16 17  1  0  0  0  0
 17 19  1  0  0  0  0
 19 20  1  0  0  0  0
 19 18  2  0  0  0  0
 20 21  1  0  0  0  0
 21 22  1  6  0  0  0
 23 21  1  0  0  0  0
 23 24  1  0  0  0  0
 24 25  2  0  0  0  0
 25 28  1  0  0  0  0
 26 27  1  0  0  0  0
 27 28  2  0  0  0  0
 29  6  1  0  0  0  0
 30 33  1  0  0  0  0
 31 36  1  0  0  0  0
 32 34  1  0  0  0  0
 33 35  1  0  0  0  0
 34 33  2  0  0  0  0
 34 37  1  0  0  0  0
 35 36  2  0  0  0  0
 36 29  1  0  0  0  0
 37 31  2  0  0  0  0
M  END
>  <MODEL>
3

>  <REMARK>
 VINA RESULT:      -6.8      4.114      6.392
  Name = 
  12 active torsions:
  status: ('A' for Active; 'I' for Inactive)
    1  A    between atoms: C_4  and  N_36
    2  A    between atoms: C_8  and  C_12
    3  A    between atoms: C_12  and  N_25
    4  A    between atoms: C_13  and  C_24
    5  A    between atoms: C_16  and  C_33
    6  A    between atoms: C_17  and  N_27
    7  A    between atoms: C_17  and  C_33
    8  A    between atoms: C_18  and  O_31
    9  A    between atoms: C_22  and  C_30
   10  A    between atoms: N_25  and  C_26
   11  A    between atoms: C_26  and  N_27
   12  A    between atoms: C_30  and  C_34
                            x       y       z     vdW  Elec       q    Type
                         _______ _______ _______ _____ _____    ______ ____

>  <TORSDO>
F 12

$$$$
=
 OpenBabel11042418343D

 37 39  0  0  1  0  0  0  0  0999 V2000
  189.9850  174.1190  142.5510 C   0  0  0  0  0  0  0  0  0  0  0  0
  190.9100  174.5200  143.4640 N   0  0  0  0  0  0  0  0  0  0  0  0
  189.1060  175.0720  141.9740 C   0  0  0  0  0  0  0  0  0  0  0  0
  191.0340  175.8140  143.8680 C   0  0  0  0  0  0  0  0  0  0  0  0
  190.1900  176.7820  143.3180 C   0  0  0  0  0  3  0  0  0  0  0  0
  189.2360  176.4150  142.3700 C   0  0  0  0  0  0  0  0  0  0  0  0
  192.7990  176.3170  147.1850 C   0  0  0  0  0  3  0  0  0  0  0  0
  192.0550  176.1800  144.8720 C   0  0  0  0  0  0  0  0  0  0  0  0
  195.4130  177.6460  145.0030 F   0  0  0  0  0  0  0  0  0  0  0  0
  191.8280  175.9670  146.2430 C   0  0  0  0  0  3  0  0  0  0  0  0
  193.2720  176.7480  144.4650 C   0  0  0  0  0  3  0  0  0  0  0  0
  194.0070  176.8810  146.7670 C   0  0  0  0  0  3  0  0  0  0  0  0
  194.2430  177.0980  145.4080 C   0  0  0  0  0  0  0  0  0  0  0  0
  188.3530  174.4560  139.6580 C   0  0  0  0  0  1  0  0  0  0  0  0
  188.1160  174.7620  141.0250 O   0  0  0  0  0  0  0  0  0  0  0  0
  189.9970  172.6830  142.1500 C   0  0  0  0  0  2  0  0  0  0  0  0
  190.5160  171.8740  143.2440 N   0  0  0  0  0  2  0  0  0  0  0  0
  192.1370  170.4520  141.6620 S   0  0  0  0  0  0  0  0  0  0  0  0
  191.6670  171.0340  143.1270 C   0  0  0  0  0  0  0  0  0  0  0  0
  192.4250  170.7460  144.3070 N   0  0  0  0  0  2  0  0  0  0  0  0
  193.7200  171.3410  144.6100 C   0  0  2  0  0  3  0  0  0  0  0  0
  194.3840  170.5550  145.5520 O   0  0  0  0  0  1  0  0  0  0  0  0
  193.5300  172.7410  145.1700 C   0  0  0  0  0  2  0  0  0  0  0  0
  194.8390  173.4450  145.3060 C   0  0  0  0  0  3  0  0  0  0  0  0
  195.5600  173.7020  144.2610 N   0  0  0  0  0  0  0  0  0  0  0  0
  196.3250  175.9510  142.5600 O   0  0  0  0  0  1  0  0  0  0  0  0
  197.1820  175.3970  143.5050 C   0  0  0  0  0  3  0  0  0  0  0  0
  196.8330  174.3690  144.2850 C   0  0  0  0  0  3  0  0  0  0  0  0
  188.3290  177.4690  141.8170 C   0  0  0  0  0  2  0  0  0  0  0  0
  186.0700  176.5030  146.4180 Cl  0  0  0  0  0  0  0  0  0  0  0  0
  186.3640  178.8510  142.5240 C   0  0  0  0  0  3  0  0  0  0  0  0
  184.0010  178.9210  145.7850 Cl  0  0  0  0  0  0  0  0  0  0  0  0
  186.1580  177.4210  144.9240 C   0  0  0  0  0  0  0  0  0  0  0  0
  185.2620  178.4700  144.6510 C   0  0  0  0  0  0  0  0  0  0  0  0
  187.1510  177.0960  143.9950 C   0  0  0  0  0  3  0  0  0  0  0  0
  187.2530  177.8050  142.7940 C   0  0  0  0  0  0  0  0  0  0  0  0
  185.3720  179.1800  143.4510 C   0  0  0  0  0  3  0  0  0  0  0  0
  1  2  1  0  0  0  0
  2  4  2  0  0  0  0
  3  6  1  0  0  0  0
  3  1  2  0  0  0  0
  4  8  1  0  0  0  0
  5  4  1  0  0  0  0
  6  5  2  0  0  0  0
  8 10  1  0  0  0  0
  9 13  1  0  0  0  0
 10  7  2  0  0  0  0
 11  8  2  0  0  0  0
 11 13  1  0  0  0  0
 12  7  1  0  0  0  0
 13 12  2  0  0  0  0
 14 15  1  0  0  0  0
 15  3  1  0  0  0  0
 16  1  1  0  0  0  0
 16 17  1  0  0  0  0
 18 19  2  0  0  0  0
 19 17  1  0  0  0  0
 19 20  1  0  0  0  0
 20 21  1  0  0  0  0
 21 23  1  0  0  0  0
 21 22  1  1  0  0  0
 23 24  1  0  0  0  0
 25 28  1  0  0  0  0
 25 24  2  0  0  0  0
 26 27  1  0  0  0  0
 27 28  2  0  0  0  0
 29  6  1  0  0  0  0
 29 36  1  0  0  0  0
 31 36  2  0  0  0  0
 31 37  1  0  0  0  0
 33 30  1  0  0  0  0
 34 33  1  0  0  0  0
 34 32  1  0  0  0  0
 35 33  2  0  0  0  0
 36 35  1  0  0  0  0
 37 34  2  0  0  0  0
M  END
>  <MODEL>
4

>  <REMARK>
 VINA RESULT:      -6.7      4.205      7.988
  Name = 
  12 active torsions:
  status: ('A' for Active; 'I' for Inactive)
    1  A    between atoms: C_4  and  N_36
    2  A    between atoms: C_8  and  C_12
    3  A    between atoms: C_12  and  N_25
    4  A    between atoms: C_13  and  C_24
    5  A    between atoms: C_16  and  C_33
    6  A    between atoms: C_17  and  N_27
    7  A    between atoms: C_17  and  C_33
    8  A    between atoms: C_18  and  O_31
    9  A    between atoms: C_22  and  C_30
   10  A    between atoms: N_25  and  C_26
   11  A    between atoms: C_26  and  N_27
   12  A    between atoms: C_30  and  C_34
                            x       y       z     vdW  Elec       q    Type
                         _______ _______ _______ _____ _____    ______ ____

>  <TORSDO>
F 12

$$$$
=
 OpenBabel11042418343D

 37 39  0  0  1  0  0  0  0  0999 V2000
  189.2570  176.6930  142.3990 C   0  0  0  0  0  0  0  0  0  0  0  0
  190.2770  176.9090  143.2730 N   0  0  0  0  0  0  0  0  0  0  0  0
  188.8440  175.3660  142.1130 C   0  0  0  0  0  0  0  0  0  0  0  0
  190.9420  175.8970  143.8930 C   0  0  0  0  0  0  0  0  0  0  0  0
  190.5610  174.5770  143.6410 C   0  0  0  0  0  3  0  0  0  0  0  0
  189.5120  174.3120  142.7610 C   0  0  0  0  0  0  0  0  0  0  0  0
  192.9100  176.4370  147.0890 C   0  0  0  0  0  3  0  0  0  0  0  0
  192.0490  176.2020  144.8250 C   0  0  0  0  0  0  0  0  0  0  0  0
  195.5820  177.1760  144.7060 F   0  0  0  0  0  0  0  0  0  0  0  0
  191.8570  176.1470  146.2160 C   0  0  0  0  0  3  0  0  0  0  0  0
  193.3140  176.5500  144.3260 C   0  0  0  0  0  3  0  0  0  0  0  0
  194.1640  176.7830  146.5800 C   0  0  0  0  0  3  0  0  0  0  0  0
  194.3660  176.8400  145.1990 C   0  0  0  0  0  0  0  0  0  0  0  0
  187.9270  174.9270  139.8150 C   0  0  0  0  0  1  0  0  0  0  0  0
  187.8040  175.0340  141.2260 O   0  0  0  0  0  0  0  0  0  0  0  0
  188.5720  177.8920  141.8370 C   0  0  0  0  0  2  0  0  0  0  0  0
  187.4500  178.2590  142.6900 N   0  0  0  0  0  2  0  0  0  0  0  0
  185.6730  178.0370  140.7020 S   0  0  0  0  0  0  0  0  0  0  0  0
  186.0820  178.1280  142.2930 C   0  0  0  0  0  0  0  0  0  0  0  0
  185.0820  178.0370  143.3130 N   0  0  0  0  0  2  0  0  0  0  0  0
  184.4780  179.1900  143.9680 C   0  0  2  0  0  3  0  0  0  0  0  0
  185.4090  180.2260  144.0390 O   0  0  0  0  0  1  0  0  0  0  0  0
  184.0380  178.8160  145.3740 C   0  0  0  0  0  2  0  0  0  0  0  0
  185.2110  178.4530  146.2230 C   0  0  0  0  0  3  0  0  0  0  0  0
  185.3890  177.2310  146.6140 N   0  0  0  0  0  0  0  0  0  0  0  0
  187.9240  176.1670  145.6260 O   0  0  0  0  0  1  0  0  0  0  0  0
  187.6380  176.2930  146.9800 C   0  0  0  0  0  3  0  0  0  0  0  0
  186.4790  176.7810  147.4350 C   0  0  0  0  0  3  0  0  0  0  0  0
  189.1420  172.8870  142.4910 C   0  0  0  0  0  2  0  0  0  0  0  0
  192.2560  172.3470  138.3410 Cl  0  0  0  0  0  0  0  0  0  0  0  0
  190.9390  171.1440  142.5340 C   0  0  0  0  0  3  0  0  0  0  0  0
  193.7890  169.9750  139.9390 Cl  0  0  0  0  0  0  0  0  0  0  0  0
  191.7670  171.8610  139.9560 C   0  0  0  0  0  0  0  0  0  0  0  0
  192.4330  170.8340  140.6480 C   0  0  0  0  0  0  0  0  0  0  0  0
  190.6930  172.5210  140.5580 C   0  0  0  0  0  3  0  0  0  0  0  0
  190.2740  172.1620  141.8440 C   0  0  0  0  0  0  0  0  0  0  0  0
  192.0140  170.4820  141.9360 C   0  0  0  0  0  3  0  0  0  0  0  0
  1  2  1  0  0  0  0
  2  4  2  0  0  0  0
  3  1  2  0  0  0  0
  3  6  1  0  0  0  0
  4  8  1  0  0  0  0
  5  4  1  0  0  0  0
  6  5  2  0  0  0  0
  8 10  1  0  0  0  0
  9 13  1  0  0  0  0
 10  7  2  0  0  0  0
 11  8  2  0  0  0  0
 11 13  1  0  0  0  0
 12  7  1  0  0  0  0
 13 12  2  0  0  0  0
 14 15  1  0  0  0  0
 15  3  1  0  0  0  0
 16  1  1  0  0  0  0
 16 17  1  0  0  0  0
 18 19  2  0  0  0  0
 19 17  1  0  0  0  0
 19 20  1  0  0  0  0
 20 21  1  0  0  0  0
 21 22  1  1  0  0  0
 21 23  1  0  0  0  0
 23 24  1  0  0  0  0
 24 25  2  0  0  0  0
 25 28  1  0  0  0  0
 26 27  1  0  0  0  0
 27 28  2  0  0  0  0
 29  6  1  0  0  0  0
 30 33  1  0  0  0  0
 32 34  1  0  0  0  0
 33 35  2  0  0  0  0
 33 34  1  0  0  0  0
 34 37  2  0  0  0  0
 35 36  1  0  0  0  0
 36 29  1  0  0  0  0
 36 31  2  0  0  0  0
 37 31  1  0  0  0  0
M  END
>  <MODEL>
5

>  <REMARK>
 VINA RESULT:      -6.7      3.262      5.727
  Name = 
  12 active torsions:
  status: ('A' for Active; 'I' for Inactive)
    1  A    between atoms: C_4  and  N_36
    2  A    between atoms: C_8  and  C_12
    3  A    between atoms: C_12  and  N_25
    4  A    between atoms: C_13  and  C_24
    5  A    between atoms: C_16  and  C_33
    6  A    between atoms: C_17  and  N_27
    7  A    between atoms: C_17  and  C_33
    8  A    between atoms: C_18  and  O_31
    9  A    between atoms: C_22  and  C_30
   10  A    between atoms: N_25  and  C_26
   11  A    between atoms: C_26  and  N_27
   12  A    between atoms: C_30  and  C_34
                            x       y       z     vdW  Elec       q    Type
                         _______ _______ _______ _____ _____    ______ ____

>  <TORSDO>
F 12

$$$$
=
 OpenBabel11042418343D

 37 39  0  0  1  0  0  0  0  0999 V2000
  192.0740  174.4730  145.9650 C   0  0  0  0  0  0  0  0  0  0  0  0
  191.7720  173.8740  144.7810 N   0  0  0  0  0  0  0  0  0  0  0  0
  191.0300  174.9580  146.7950 C   0  0  0  0  0  0  0  0  0  0  0  0
  190.4950  173.7200  144.3380 C   0  0  0  0  0  0  0  0  0  0  0  0
  189.4400  174.1800  145.1300 C   0  0  0  0  0  3  0  0  0  0  0  0
  189.7050  174.7880  146.3570 C   0  0  0  0  0  0  0  0  0  0  0  0
  190.5050  171.1840  141.5200 C   0  0  0  0  0  3  0  0  0  0  0  0
  190.2370  173.0690  143.0370 C   0  0  0  0  0  0  0  0  0  0  0  0
  188.4770  173.7550  139.8940 F   0  0  0  0  0  0  0  0  0  0  0  0
  190.7530  171.7920  142.7540 C   0  0  0  0  0  3  0  0  0  0  0  0
  189.4680  173.7220  142.0610 C   0  0  0  0  0  3  0  0  0  0  0  0
  189.7370  171.8450  140.5570 C   0  0  0  0  0  3  0  0  0  0  0  0
  189.2200  173.1140  140.8270 C   0  0  0  0  0  0  0  0  0  0  0  0
  191.4410  176.9840  148.2220 C   0  0  0  0  0  1  0  0  0  0  0  0
  191.2340  175.5920  148.0340 O   0  0  0  0  0  0  0  0  0  0  0  0
  193.5100  174.5220  146.3600 C   0  0  0  0  0  2  0  0  0  0  0  0
  194.3160  173.8360  145.3600 N   0  0  0  0  0  2  0  0  0  0  0  0
  196.8500  172.9770  145.3730 S   0  0  0  0  0  0  0  0  0  0  0  0
  195.6980  174.1250  145.1270 C   0  0  0  0  0  0  0  0  0  0  0  0
  196.0500  175.4230  144.6370 N   0  0  0  0  0  2  0  0  0  0  0  0
  196.6430  175.6670  143.3290 C   0  0  2  0  0  3  0  0  0  0  0  0
  196.6860  177.0400  143.0850 O   0  0  0  0  0  1  0  0  0  0  0  0
  195.8130  174.9930  142.2480 C   0  0  0  0  0  2  0  0  0  0  0  0
  194.6130  175.8120  141.9060 C   0  0  0  0  0  3  0  0  0  0  0  0
  193.5150  175.6870  142.5820 N   0  0  0  0  0  0  0  0  0  0  0  0
  192.2430  177.5420  144.4470 O   0  0  0  0  0  1  0  0  0  0  0  0
  191.7260  177.2700  143.1850 C   0  0  0  0  0  3  0  0  0  0  0  0
  192.3070  176.4220  142.3300 C   0  0  0  0  0  3  0  0  0  0  0  0
  188.5560  175.2930  147.1720 C   0  0  0  0  0  2  0  0  0  0  0  0
  184.3030  178.2960  146.8360 Cl  0  0  0  0  0  0  0  0  0  0  0  0
  188.3710  176.9400  145.2950 C   0  0  0  0  0  3  0  0  0  0  0  0
  185.6030  179.6490  144.1890 Cl  0  0  0  0  0  0  0  0  0  0  0  0
  185.8670  177.7900  146.2190 C   0  0  0  0  0  0  0  0  0  0  0  0
  186.4300  178.3780  145.0720 C   0  0  0  0  0  0  0  0  0  0  0  0
  186.5610  176.7820  146.8950 C   0  0  0  0  0  3  0  0  0  0  0  0
  187.8090  176.3520  146.4330 C   0  0  0  0  0  0  0  0  0  0  0  0
  187.6820  177.9490  144.6170 C   0  0  0  0  0  3  0  0  0  0  0  0
  1 16  1  0  0  0  0
  1  3  1  0  0  0  0
  2  1  2  0  0  0  0
  3 15  1  0  0  0  0
  4  2  1  0  0  0  0
  4  5  2  0  0  0  0
  5  6  1  0  0  0  0
  6  3  2  0  0  0  0
  6 29  1  0  0  0  0
  7 10  1  0  0  0  0
  8  4  1  0  0  0  0
  9 13  1  0  0  0  0
 10  8  2  0  0  0  0
 11  8  1  0  0  0  0
 12 13  1  0  0  0  0
 12  7  2  0  0  0  0
 13 11  2  0  0  0  0
 15 14  1  0  0  0  0
 17 16  1  0  0  0  0
 19 17  1  0  0  0  0
 19 18  2  0  0  0  0
 20 19  1  0  0  0  0
 21 22  1  6  0  0  0
 21 20  1  0  0  0  0
 23 21  1  0  0  0  0
 24 23  1  0  0  0  0
 24 25  2  0  0  0  0
 27 26  1  0  0  0  0
 28 25  1  0  0  0  0
 28 27  2  0  0  0  0
 31 36  1  0  0  0  0
 32 34  1  0  0  0  0
 33 30  1  0  0  0  0
 33 35  1  0  0  0  0
 34 33  2  0  0  0  0
 36 35  2  0  0  0  0
 36 29  1  0  0  0  0
 37 34  1  0  0  0  0
 37 31  2  0  0  0  0
M  END
>  <MODEL>
6

>  <REMARK>
 VINA RESULT:      -6.7      4.821      7.926
  Name = 
  12 active torsions:
  status: ('A' for Active; 'I' for Inactive)
    1  A    between atoms: C_4  and  N_36
    2  A    between atoms: C_8  and  C_12
    3  A    between atoms: C_12  and  N_25
    4  A    between atoms: C_13  and  C_24
    5  A    between atoms: C_16  and  C_33
    6  A    between atoms: C_17  and  N_27
    7  A    between atoms: C_17  and  C_33
    8  A    between atoms: C_18  and  O_31
    9  A    between atoms: C_22  and  C_30
   10  A    between atoms: N_25  and  C_26
   11  A    between atoms: C_26  and  N_27
   12  A    between atoms: C_30  and  C_34
                            x       y       z     vdW  Elec       q    Type
                         _______ _______ _______ _____ _____    ______ ____

>  <TORSDO>
F 12

$$$$
=
 OpenBabel11042418343D

 37 39  0  0  1  0  0  0  0  0999 V2000
  191.0790  174.2500  144.5230 C   0  0  0  0  0  0  0  0  0  0  0  0
  192.2400  174.4950  143.8570 N   0  0  0  0  0  0  0  0  0  0  0  0
  190.1890  175.3190  144.8040 C   0  0  0  0  0  0  0  0  0  0  0  0
  192.6040  175.7400  143.4460 C   0  0  0  0  0  0  0  0  0  0  0  0
  191.7510  176.8170  143.6990 C   0  0  0  0  0  3  0  0  0  0  0  0
  190.5450  176.6070  144.3680 C   0  0  0  0  0  0  0  0  0  0  0  0
  195.1720  176.0380  140.6730 C   0  0  0  0  0  3  0  0  0  0  0  0
  193.8850  175.9390  142.7360 C   0  0  0  0  0  0  0  0  0  0  0  0
  197.3920  176.6840  143.5040 F   0  0  0  0  0  0  0  0  0  0  0  0
  193.9560  175.8490  141.3350 C   0  0  0  0  0  3  0  0  0  0  0  0
  195.0550  176.2220  143.4580 C   0  0  0  0  0  3  0  0  0  0  0  0
  196.3290  176.3200  141.4030 C   0  0  0  0  0  3  0  0  0  0  0  0
  196.2710  176.4120  142.7950 C   0  0  0  0  0  0  0  0  0  0  0  0
  188.7850  175.3070  146.8870 C   0  0  0  0  0  1  0  0  0  0  0  0
  188.9670  175.1730  145.4850 O   0  0  0  0  0  0  0  0  0  0  0  0
  190.7710  172.8310  144.8620 C   0  0  0  0  0  2  0  0  0  0  0  0
  189.6110  172.3870  144.1030 N   0  0  0  0  0  2  0  0  0  0  0  0
  190.7590  171.1200  142.0450 S   0  0  0  0  0  0  0  0  0  0  0  0
  189.6390  172.1350  142.6950 C   0  0  0  0  0  0  0  0  0  0  0  0
  188.6450  172.7530  141.8720 N   0  0  0  0  0  2  0  0  0  0  0  0
  188.5320  174.1910  141.6690 C   0  0  2  0  0  3  0  0  0  0  0  0
  187.4710  174.6870  142.4260 O   0  0  0  0  0  1  0  0  0  0  0  0
  188.2830  174.4910  140.2000 C   0  0  0  0  0  2  0  0  0  0  0  0
  189.2590  173.7670  139.3330 C   0  0  0  0  0  3  0  0  0  0  0  0
  188.8640  173.1660  138.2560 N   0  0  0  0  0  0  0  0  0  0  0  0
  189.6840  170.3810  138.5820 O   0  0  0  0  0  1  0  0  0  0  0  0
  190.0960  171.1660  137.5110 C   0  0  0  0  0  3  0  0  0  0  0  0
  189.7210  172.4400  137.3590 C   0  0  0  0  0  3  0  0  0  0  0  0
  189.6640  177.7840  144.6470 C   0  0  0  0  0  2  0  0  0  0  0  0
  184.5440  178.1680  143.7230 Cl  0  0  0  0  0  0  0  0  0  0  0  0
  188.8570  177.8890  142.2790 C   0  0  0  0  0  3  0  0  0  0  0  0
  185.2310  178.2050  140.5530 Cl  0  0  0  0  0  0  0  0  0  0  0  0
  186.1960  178.0580  143.1400 C   0  0  0  0  0  0  0  0  0  0  0  0
  186.4940  178.0760  141.7650 C   0  0  0  0  0  0  0  0  0  0  0  0
  187.2320  177.9570  144.0730 C   0  0  0  0  0  3  0  0  0  0  0  0
  188.5610  177.8670  143.6460 C   0  0  0  0  0  0  0  0  0  0  0  0
  187.8250  177.9920  141.3430 C   0  0  0  0  0  3  0  0  0  0  0  0
  1  3  1  0  0  0  0
  1 16  1  0  0  0  0
  2  1  2  0  0  0  0
  3 15  1  0  0  0  0
  4  5  2  0  0  0  0
  4  2  1  0  0  0  0
  5  6  1  0  0  0  0
  6 29  1  0  0  0  0
  6  3  2  0  0  0  0
  7 10  2  0  0  0  0
  7 12  1  0  0  0  0
  8  4  1  0  0  0  0
  8 11  2  0  0  0  0
 10  8  1  0  0  0  0
 12 13  2  0  0  0  0
 13 11  1  0  0  0  0
 13  9  1  0  0  0  0
 15 14  1  0  0  0  0
 17 16  1  0  0  0  0
 18 19  2  0  0  0  0
 19 17  1  0  0  0  0
 20 19  1  0  0  0  0
 21 20  1  0  0  0  0
 21 22  1  1  0  0  0
 23 21  1  0  0  0  0
 24 23  1  0  0  0  0
 25 24  2  0  0  0  0
 27 26  1  0  0  0  0
 28 27  2  0  0  0  0
 28 25  1  0  0  0  0
 31 36  1  0  0  0  0
 32 34  1  0  0  0  0
 33 30  1  0  0  0  0
 33 35  1  0  0  0  0
 34 33  2  0  0  0  0
 36 35  2  0  0  0  0
 36 29  1  0  0  0  0
 37 34  1  0  0  0  0
 37 31  2  0  0  0  0
M  END
>  <MODEL>
7

>  <REMARK>
 VINA RESULT:      -6.7      4.427      7.640
  Name = 
  12 active torsions:
  status: ('A' for Active; 'I' for Inactive)
    1  A    between atoms: C_4  and  N_36
    2  A    between atoms: C_8  and  C_12
    3  A    between atoms: C_12  and  N_25
    4  A    between atoms: C_13  and  C_24
    5  A    between atoms: C_16  and  C_33
    6  A    between atoms: C_17  and  N_27
    7  A    between atoms: C_17  and  C_33
    8  A    between atoms: C_18  and  O_31
    9  A    between atoms: C_22  and  C_30
   10  A    between atoms: N_25  and  C_26
   11  A    between atoms: C_26  and  N_27
   12  A    between atoms: C_30  and  C_34
                            x       y       z     vdW  Elec       q    Type
                         _______ _______ _______ _____ _____    ______ ____

>  <TORSDO>
F 12

$$$$
=
 OpenBabel11042418343D

 37 39  0  0  1  0  0  0  0  0999 V2000
  190.1920  174.7530  141.7310 C   0  0  0  0  0  0  0  0  0  0  0  0
  191.4170  175.0020  142.2670 N   0  0  0  0  0  0  0  0  0  0  0  0
  189.1680  175.7310  141.8260 C   0  0  0  0  0  0  0  0  0  0  0  0
  191.7150  176.1630  142.9120 C   0  0  0  0  0  0  0  0  0  0  0  0
  190.7350  177.1520  143.0220 C   0  0  0  0  0  3  0  0  0  0  0  0
  189.4700  176.9410  142.4740 C   0  0  0  0  0  0  0  0  0  0  0  0
  195.4870  176.2560  143.2830 C   0  0  0  0  0  3  0  0  0  0  0  0
  193.0640  176.3650  143.4820 C   0  0  0  0  0  0  0  0  0  0  0  0
  194.6110  177.5480  146.5880 F   0  0  0  0  0  0  0  0  0  0  0  0
  194.2160  176.0620  142.7350 C   0  0  0  0  0  3  0  0  0  0  0  0
  193.2110  176.8680  144.7840 C   0  0  0  0  0  3  0  0  0  0  0  0
  195.6200  176.7580  144.5800 C   0  0  0  0  0  3  0  0  0  0  0  0
  194.4830  177.0630  145.3310 C   0  0  0  0  0  0  0  0  0  0  0  0
  187.4670  175.8960  139.9840 C   0  0  0  0  0  1  0  0  0  0  0  0
  187.8710  175.5720  141.3070 O   0  0  0  0  0  0  0  0  0  0  0  0
  190.0160  173.4670  140.9960 C   0  0  0  0  0  2  0  0  0  0  0  0
  191.1190  172.5710  141.3080 N   0  0  0  0  0  2  0  0  0  0  0  0
  191.0830  169.9800  141.9720 S   0  0  0  0  0  0  0  0  0  0  0  0
  191.0650  171.5830  142.3410 C   0  0  0  0  0  0  0  0  0  0  0  0
  191.0360  172.0210  143.7030 N   0  0  0  0  0  2  0  0  0  0  0  0
  189.8160  172.1780  144.4840 C   0  0  2  0  0  3  0  0  0  0  0  0
  188.7210  171.7700  143.7220 O   0  0  0  0  0  1  0  0  0  0  0  0
  189.6360  173.6340  144.8790 C   0  0  0  0  0  2  0  0  0  0  0  0
  190.7610  174.0960  145.7450 C   0  0  0  0  0  3  0  0  0  0  0  0
  190.5390  174.8830  146.7500 N   0  0  0  0  0  0  0  0  0  0  0  0
  190.5730  177.5530  147.9340 O   0  0  0  0  0  1  0  0  0  0  0  0
  191.5640  176.6090  148.1790 C   0  0  0  0  0  3  0  0  0  0  0  0
  191.5490  175.3860  147.6380 C   0  0  0  0  0  3  0  0  0  0  0  0
  188.4330  178.0090  142.6290 C   0  0  0  0  0  2  0  0  0  0  0  0
  184.2370  179.0270  145.5570 Cl  0  0  0  0  0  0  0  0  0  0  0  0
  188.3890  177.2300  145.0080 C   0  0  0  0  0  3  0  0  0  0  0  0
  185.7050  177.4790  148.0020 Cl  0  0  0  0  0  0  0  0  0  0  0  0
  185.8380  178.3290  145.3740 C   0  0  0  0  0  0  0  0  0  0  0  0
  186.4730  177.6570  146.4330 C   0  0  0  0  0  0  0  0  0  0  0  0
  186.4840  178.4460  144.1400 C   0  0  0  0  0  3  0  0  0  0  0  0
  187.7590  177.9020  143.9560 C   0  0  0  0  0  0  0  0  0  0  0  0
  187.7460  177.1100  146.2430 C   0  0  0  0  0  3  0  0  0  0  0  0
  1  3  2  0  0  0  0
  1  2  1  0  0  0  0
  2  4  2  0  0  0  0
  3  6  1  0  0  0  0
  4  5  1  0  0  0  0
  4  8  1  0  0  0  0
  6 29  1  0  0  0  0
  6  5  2  0  0  0  0
  7 12  1  0  0  0  0
  8 11  2  0  0  0  0
 10  7  2  0  0  0  0
 10  8  1  0  0  0  0
 11 13  1  0  0  0  0
 12 13  2  0  0  0  0
 13  9  1  0  0  0  0
 14 15  1  0  0  0  0
 15  3  1  0  0  0  0
 16 17  1  0  0  0  0
 16  1  1  0  0  0  0
 17 19  1  0  0  0  0
 18 19  2  0  0  0  0
 19 20  1  0  0  0  0
 20 21  1  0  0  0  0
 21 22  1  6  0  0  0
 21 23  1  0  0  0  0
 23 24  1  0  0  0  0
 24 25  2  0  0  0  0
 25 28  1  0  0  0  0
 26 27  1  0  0  0  0
 28 27  2  0  0  0  0
 29 36  1  0  0  0  0
 31 37  1  0  0  0  0
 33 30  1  0  0  0  0
 33 34  1  0  0  0  0
 34 32  1  0  0  0  0
 35 33  2  0  0  0  0
 36 35  1  0  0  0  0
 36 31  2  0  0  0  0
 37 34  2  0  0  0  0
M  END
>  <MODEL>
8

>  <REMARK>
 VINA RESULT:      -6.6      3.983      6.981
  Name = 
  12 active torsions:
  status: ('A' for Active; 'I' for Inactive)
    1  A    between atoms: C_4  and  N_36
    2  A    between atoms: C_8  and  C_12
    3  A    between atoms: C_12  and  N_25
    4  A    between atoms: C_13  and  C_24
    5  A    between atoms: C_16  and  C_33
    6  A    between atoms: C_17  and  N_27
    7  A    between atoms: C_17  and  C_33
    8  A    between atoms: C_18  and  O_31
    9  A    between atoms: C_22  and  C_30
   10  A    between atoms: N_25  and  C_26
   11  A    between atoms: C_26  and  N_27
   12  A    between atoms: C_30  and  C_34
                            x       y       z     vdW  Elec       q    Type
                         _______ _______ _______ _____ _____    ______ ____

>  <TORSDO>
F 12

$$$$
=
 OpenBabel11042418343D

 37 39  0  0  1  0  0  0  0  0999 V2000
  192.0100  174.3100  144.2820 C   0  0  0  0  0  0  0  0  0  0  0  0
  191.4380  173.7850  143.1650 N   0  0  0  0  0  0  0  0  0  0  0  0
  191.5930  175.5810  144.7560 C   0  0  0  0  0  0  0  0  0  0  0  0
  190.4720  174.4330  142.4580 C   0  0  0  0  0  0  0  0  0  0  0  0
  190.0320  175.6840  142.8970 C   0  0  0  0  0  3  0  0  0  0  0  0
  190.5840  176.2520  144.0450 C   0  0  0  0  0  0  0  0  0  0  0  0
  189.6890  171.9130  139.7360 C   0  0  0  0  0  3  0  0  0  0  0  0
  189.9000  173.8090  141.2460 C   0  0  0  0  0  0  0  0  0  0  0  0
  187.6000  174.6550  138.5180 F   0  0  0  0  0  0  0  0  0  0  0  0
  190.2350  172.4930  140.8840 C   0  0  0  0  0  3  0  0  0  0  0  0
  189.0070  174.5300  140.4380 C   0  0  0  0  0  3  0  0  0  0  0  0
  188.8010  172.6400  138.9400 C   0  0  0  0  0  3  0  0  0  0  0  0
  188.4600  173.9490  139.2900 C   0  0  0  0  0  0  0  0  0  0  0  0
  191.8030  175.8810  147.2420 C   0  0  0  0  0  1  0  0  0  0  0  0
  192.1210  176.2120  145.8970 O   0  0  0  0  0  0  0  0  0  0  0  0
  193.0120  173.4680  144.9980 C   0  0  0  0  0  2  0  0  0  0  0  0
  193.2880  172.2690  144.2200 N   0  0  0  0  0  2  0  0  0  0  0  0
  193.3070  169.5940  144.1670 S   0  0  0  0  0  0  0  0  0  0  0  0
  193.7570  171.0470  144.7950 C   0  0  0  0  0  0  0  0  0  0  0  0
  194.6600  171.1170  145.9040 N   0  0  0  0  0  2  0  0  0  0  0  0
  196.1010  170.9340  145.7950 C   0  0  2  0  0  3  0  0  0  0  0  0
  196.5180  169.9640  146.7060 O   0  0  0  0  0  1  0  0  0  0  0  0
  196.8150  172.2420  146.0940 C   0  0  0  0  0  2  0  0  0  0  0  0
  196.8770  173.1080  144.8810 C   0  0  0  0  0  3  0  0  0  0  0  0
  196.8360  174.3980  144.9890 N   0  0  0  0  0  0  0  0  0  0  0  0
  195.0550  176.6830  144.6100 O   0  0  0  0  0  1  0  0  0  0  0  0
  196.0670  176.3610  143.7130 C   0  0  0  0  0  3  0  0  0  0  0  0
  196.8840  175.3170  143.8850 C   0  0  0  0  0  3  0  0  0  0  0  0
  190.1110  177.6050  144.4760 C   0  0  0  0  0  2  0  0  0  0  0  0
  185.0310  178.3930  143.5880 Cl  0  0  0  0  0  0  0  0  0  0  0  0
  188.4570  177.0310  146.2660 C   0  0  0  0  0  3  0  0  0  0  0  0
  184.4440  177.2320  146.5600 Cl  0  0  0  0  0  0  0  0  0  0  0  0
  186.3320  177.8650  144.6410 C   0  0  0  0  0  0  0  0  0  0  0  0
  186.0770  177.3600  145.9290 C   0  0  0  0  0  0  0  0  0  0  0  0
  187.6480  177.9480  144.1760 C   0  0  0  0  0  3  0  0  0  0  0  0
  188.7110  177.5370  144.9870 C   0  0  0  0  0  0  0  0  0  0  0  0
  187.1430  176.9450  146.7340 C   0  0  0  0  0  3  0  0  0  0  0  0
  1  3  1  0  0  0  0
  1 16  1  0  0  0  0
  2  1  2  0  0  0  0
  3 15  1  0  0  0  0
  4  5  2  0  0  0  0
  4  2  1  0  0  0  0
  5  6  1  0  0  0  0
  6 29  1  0  0  0  0
  6  3  2  0  0  0  0
  7 10  1  0  0  0  0
  8  4  1  0  0  0  0
  9 13  1  0  0  0  0
 10  8  2  0  0  0  0
 11  8  1  0  0  0  0
 12 13  1  0  0  0  0
 12  7  2  0  0  0  0
 13 11  2  0  0  0  0
 15 14  1  0  0  0  0
 17 19  1  0  0  0  0
 17 16  1  0  0  0  0
 18 19  2  0  0  0  0
 19 20  1  0  0  0  0
 21 20  1  0  0  0  0
 21 23  1  0  0  0  0
 21 22  1  1  0  0  0
 24 25  2  0  0  0  0
 24 23  1  0  0  0  0
 27 28  2  0  0  0  0
 27 26  1  0  0  0  0
 28 25  1  0  0  0  0
 29 36  1  0  0  0  0
 30 33  1  0  0  0  0
 31 37  1  0  0  0  0
 33 34  1  0  0  0  0
 34 32  1  0  0  0  0
 34 37  2  0  0  0  0
 35 33  2  0  0  0  0
 35 36  1  0  0  0  0
 36 31  2  0  0  0  0
M  END
>  <MODEL>
9

>  <REMARK>
 VINA RESULT:      -6.6      4.825      8.544
  Name = 
  12 active torsions:
  status: ('A' for Active; 'I' for Inactive)
    1  A    between atoms: C_4  and  N_36
    2  A    between atoms: C_8  and  C_12
    3  A    between atoms: C_12  and  N_25
    4  A    between atoms: C_13  and  C_24
    5  A    between atoms: C_16  and  C_33
    6  A    between atoms: C_17  and  N_27
    7  A    between atoms: C_17  and  C_33
    8  A    between atoms: C_18  and  O_31
    9  A    between atoms: C_22  and  C_30
   10  A    between atoms: N_25  and  C_26
   11  A    between atoms: C_26  and  N_27
   12  A    between atoms: C_30  and  C_34
                            x       y       z     vdW  Elec       q    Type
                         _______ _______ _______ _____ _____    ______ ____

>  <TORSDO>
F 12

$$$$
