=
 OpenBabel11042415213D

 47 52  0  0  1  0  0  0  0  0999 V2000
  189.8750  173.5610  143.4980 C   0  0  0  0  0  2  0  0  0  0  0  0
  194.0290  174.3310  142.4660 C   0  0  1  0  0  3  0  0  0  0  0  0
  190.5630  172.8630  141.3210 C   0  0  1  0  0  3  0  0  0  0  0  0
  189.8110  172.8610  139.0470 O   0  0  0  0  0  0  0  0  0  0  0  0
  192.9150  173.8910  141.5650 C   0  0  1  0  0  3  0  0  0  0  0  0
  191.3930  173.4650  143.5530 C   0  0  2  0  0  0  0  0  0  0  0  0
  191.7830  172.4290  144.5920 C   0  0  0  0  0  1  0  0  0  0  0  0
  191.9470  174.8450  143.9470 C   0  0  0  0  0  2  0  0  0  0  0  0
  193.4670  175.0000  143.7520 C   0  0  1  0  0  3  0  0  0  0  0  0
  189.5020  173.6840  142.0320 C   0  0  2  0  0  3  0  0  0  0  0  0
  192.9290  174.2490  140.2790 C   0  0  0  0  0  3  0  0  0  0  0  0
  190.7170  173.1850  139.8600 C   0  0  0  0  0  0  0  0  0  0  0  0
  191.8420  172.9980  142.1520 C   0  0  1  0  0  3  0  0  0  0  0  0
  191.8760  173.8750  139.3910 N   0  0  0  0  0  0  0  0  0  0  0  0
  194.9730  173.1580  142.7470 C   0  0  0  0  0  2  0  0  0  0  0  0
  196.4260  173.5960  142.6330 C   0  0  0  0  0  2  0  0  0  0  0  0
  196.5740  174.6280  141.5300 C   0  0  0  0  0  2  0  0  0  0  0  0
  197.3990  175.6670  141.9590 O   0  0  0  0  0  0  0  0  0  0  0  0
  197.9410  175.2100  143.1640 C   0  0  0  0  0  1  0  0  0  0  0  0
  189.5840  175.0530  141.6490 O   0  0  0  0  0  0  0  0  0  0  0  0
  186.3090  176.6670  142.1220 C   0  0  0  0  0  3  0  0  0  0  0  0
  187.3050  175.7450  141.7980 C   0  0  0  0  0  3  0  0  0  0  0  0
  188.0000  178.2260  142.8660 C   0  0  0  0  0  3  0  0  0  0  0  0
  189.0060  177.3080  142.5530 C   0  0  0  0  0  0  0  0  0  0  0  0
  186.6490  177.9150  142.6560 C   0  0  0  0  0  0  0  0  0  0  0  0
  188.6580  176.0430  142.0100 C   0  0  0  0  0  0  0  0  0  0  0  0
  190.6630  177.8470  142.8020 Cl  0  0  0  0  0  0  0  0  0  0  0  0
  185.6220  178.8660  142.9790 N   0  0  0  0  0  0  0  0  0  0  0  0
  184.3510  178.7130  142.4650 O   0  0  0  0  0  0  0  0  0  0  0  0
  185.8890  179.8800  143.6600 O   0  0  0  0  0  0  0  0  0  0  0  0
  194.2610  174.7040  145.0360 C   0  0  0  0  0  2  0  0  0  0  0  0
  194.8520  175.9490  145.7020 C   0  0  1  0  0  3  0  0  0  0  0  0
  195.3060  176.8600  144.7430 O   0  0  0  0  0  1  0  0  0  0  0  0
  193.8660  176.5960  146.6250 C   0  0  0  0  0  3  0  0  0  0  0  0
  192.7570  175.9630  146.9960 C   0  0  0  0  0  3  0  0  0  0  0  0
  191.7920  176.6360  147.9130 C   0  0  0  0  0  2  0  0  0  0  0  0
  190.4060  176.4870  147.3910 C   0  0  0  0  0  0  0  0  0  0  0  0
  189.8630  175.3040  147.0510 N   0  0  0  0  0  0  0  0  0  0  0  0
  188.4900  176.9040  146.6700 C   0  0  0  0  0  0  0  0  0  0  0  0
  188.6460  175.5650  146.6080 N   0  0  0  0  0  0  0  0  0  0  0  0
  189.5750  177.5250  147.1740 N   0  0  0  0  0  2  0  0  0  0  0  0
  184.4390  178.2570  146.7820 C   0  0  0  0  0  3  0  0  0  0  0  0
  185.3750  178.5470  147.9200 C   0  0  0  0  0  2  0  0  0  0  0  0
  186.0850  176.6110  146.0210 C   0  0  0  0  0  2  0  0  0  0  0  0
  187.2070  177.6150  146.3370 C   0  0  1  0  0  3  0  0  0  0  0  0
  184.7740  177.3310  145.8780 C   0  0  0  0  0  3  0  0  0  0  0  0
  186.8250  178.6500  147.4270 C   0  0  0  0  0  2  0  0  0  0  0  0
  1  6  1  0  0  0  0
  2 15  1  1  0  0  0
  2  9  1  0  0  0  0
  3 12  1  6  0  0  0
  3 10  1  0  0  0  0
  3 13  1  0  0  0  0
  4 12  2  0  0  0  0
  5 11  1  6  0  0  0
  5 13  1  0  0  0  0
  5  2  1  0  0  0  0
  6  8  1  0  0  0  0
  6  7  1  1  0  0  0
  9  8  1  0  0  0  0
  9 31  1  1  0  0  0
 10 20  1  6  0  0  0
 10  1  1  0  0  0  0
 13  6  1  0  0  0  0
 14 12  1  0  0  0  0
 14 11  2  0  0  0  0
 16 15  1  0  0  0  0
 17 18  1  0  0  0  0
 17 16  1  0  0  0  0
 18 19  1  0  0  0  0
 20 26  1  0  0  0  0
 21 25  1  0  0  0  0
 22 26  1  0  0  0  0
 22 21  2  0  0  0  0
 24 27  1  0  0  0  0
 24 23  1  0  0  0  0
 25 23  2  0  0  0  0
 25 28  1  0  0  0  0
 26 24  2  0  0  0  0
 28 30  2  0  0  0  0
 29 28  2  0  0  0  0
 31 32  1  0  0  0  0
 32 34  1  0  0  0  0
 33 32  1  0  0  0  0
 34 35  2  0  0  0  0
 35 36  1  0  0  0  0
 37 36  1  0  0  0  0
 38 37  2  0  0  0  0
 39 41  1  0  0  0  0
 40 39  2  0  0  0  0
 40 38  1  0  0  0  0
 41 37  1  0  0  0  0
 42 43  1  0  0  0  0
 44 45  1  0  0  0  0
 45 39  1  0  0  0  0
 45 47  1  0  0  0  0
 46 44  1  0  0  0  0
 46 42  2  0  0  0  0
 47 43  1  0  0  0  0
M  END
>  <MODEL>
1

>  <REMARK>
 VINA RESULT:      -7.8      0.000      0.000
  Name = 
  13 active torsions:
  status: ('A' for Active; 'I' for Inactive)
    1  A    between atoms: N_2  and  C_34
    2  A    between atoms: C_4  and  C_21
    3  A    between atoms: C_5  and  C_18
    4  A    between atoms: C_6  and  C_7
    5  A    between atoms: C_7  and  C_11
    6  A    between atoms: O_14  and  C_20
    7  A    between atoms: C_18  and  C_32
    8  A    between atoms: C_20  and  C_30
    9  A    between atoms: C_21  and  C_30
   10  A    between atoms: C_22  and  C_29
   11  A    between atoms: O_31  and  C_37
   12  A    between atoms: O_31  and  C_40
   13  A    between atoms: C_32  and  C_35
                            x       y       z     vdW  Elec       q    Type
                         _______ _______ _______ _____ _____    ______ ____

>  <TORSDO>
F 13

$$$$
=
 OpenBabel11042415213D

 47 52  0  0  1  0  0  0  0  0999 V2000
  189.1820  173.5940  143.7550 C   0  0  0  0  0  2  0  0  0  0  0  0
  193.1410  173.9190  141.9860 C   0  0  1  0  0  3  0  0  0  0  0  0
  189.4120  172.7550  141.5320 C   0  0  1  0  0  3  0  0  0  0  0  0
  188.2740  172.7430  139.4240 O   0  0  0  0  0  0  0  0  0  0  0  0
  191.8510  173.5580  141.3140 C   0  0  1  0  0  3  0  0  0  0  0  0
  190.6720  173.3530  143.5540 C   0  0  2  0  0  0  0  0  0  0  0  0
  191.1450  172.3230  144.5630 C   0  0  0  0  0  1  0  0  0  0  0  0
  191.4070  174.6870  143.7740 C   0  0  0  0  0  2  0  0  0  0  0  0
  192.8770  174.6860  143.3120 C   0  0  1  0  0  3  0  0  0  0  0  0
  188.5700  173.6990  142.3710 C   0  0  2  0  0  3  0  0  0  0  0  0
  191.6710  173.8660  140.0280 C   0  0  0  0  0  3  0  0  0  0  0  0
  189.3340  173.0070  140.0510 C   0  0  0  0  0  0  0  0  0  0  0  0
  190.8240  172.7950  142.1230 C   0  0  1  0  0  3  0  0  0  0  0  0
  190.4490  173.5640  139.3550 N   0  0  0  0  0  0  0  0  0  0  0  0
  194.0120  172.6720  142.1610 C   0  0  0  0  0  2  0  0  0  0  0  0
  194.4270  172.1080  140.8110 C   0  0  0  0  0  2  0  0  0  0  0  0
  194.1900  170.6080  140.7780 C   0  0  0  0  0  2  0  0  0  0  0  0
  193.2550  170.2530  141.7500 O   0  0  0  0  0  0  0  0  0  0  0  0
  193.8350  169.1680  142.4150 C   0  0  0  0  0  1  0  0  0  0  0  0
  188.7040  175.0390  141.9080 O   0  0  0  0  0  0  0  0  0  0  0  0
  185.6600  176.9020  142.8090 C   0  0  0  0  0  3  0  0  0  0  0  0
  186.5310  175.8910  142.4020 C   0  0  0  0  0  3  0  0  0  0  0  0
  187.5330  178.4070  143.0680 C   0  0  0  0  0  3  0  0  0  0  0  0
  188.4170  177.3990  142.6700 C   0  0  0  0  0  0  0  0  0  0  0  0
  186.1540  178.1680  143.1430 C   0  0  0  0  0  0  0  0  0  0  0  0
  187.9120  176.1160  142.3310 C   0  0  0  0  0  0  0  0  0  0  0  0
  190.1150  177.8480  142.5550 Cl  0  0  0  0  0  0  0  0  0  0  0  0
  185.2530  179.2100  143.5510 N   0  0  0  0  0  0  0  0  0  0  0  0
  185.7450  180.3780  144.0930 O   0  0  0  0  0  0  0  0  0  0  0  0
  184.0160  179.0350  143.4930 O   0  0  0  0  0  0  0  0  0  0  0  0
  193.8540  174.3610  144.4550 C   0  0  0  0  0  2  0  0  0  0  0  0
  194.5710  175.5860  145.0270 C   0  0  1  0  0  3  0  0  0  0  0  0
  195.0520  176.4080  144.0020 O   0  0  0  0  0  1  0  0  0  0  0  0
  193.6820  176.3580  145.9520 C   0  0  0  0  0  3  0  0  0  0  0  0
  192.8590  175.7340  146.7900 C   0  0  0  0  0  3  0  0  0  0  0  0
  191.9820  176.5310  147.6970 C   0  0  0  0  0  2  0  0  0  0  0  0
  190.5530  176.3160  147.3410 C   0  0  0  0  0  0  0  0  0  0  0  0
  189.9690  175.1050  147.3100 N   0  0  0  0  0  0  0  0  0  0  0  0
  188.5840  176.6280  146.7150 C   0  0  0  0  0  0  0  0  0  0  0  0
  188.7200  175.3020  146.9280 N   0  0  0  0  0  0  0  0  0  0  0  0
  189.7170  177.3090  146.9790 N   0  0  0  0  0  2  0  0  0  0  0  0
  184.6570  178.2930  146.9530 C   0  0  0  0  0  3  0  0  0  0  0  0
  185.7860  178.8770  147.7540 C   0  0  0  0  0  2  0  0  0  0  0  0
  186.0950  176.3450  146.5920 C   0  0  0  0  0  2  0  0  0  0  0  0
  187.2840  177.2910  146.3510 C   0  0  1  0  0  3  0  0  0  0  0  0
  184.8010  177.0840  146.4030 C   0  0  0  0  0  3  0  0  0  0  0  0
  187.1300  178.6700  147.0400 C   0  0  0  0  0  2  0  0  0  0  0  0
  2 15  1  1  0  0  0
  2  9  1  0  0  0  0
  3 12  1  6  0  0  0
  3 13  1  0  0  0  0
  3 10  1  0  0  0  0
  4 12  2  0  0  0  0
  5 11  1  6  0  0  0
  5  2  1  0  0  0  0
  5 13  1  0  0  0  0
  6  1  1  0  0  0  0
  6  8  1  0  0  0  0
  6  7  1  1  0  0  0
  9  8  1  0  0  0  0
  9 31  1  1  0  0  0
 10 20  1  6  0  0  0
 10  1  1  0  0  0  0
 13  6  1  0  0  0  0
 14 11  2  0  0  0  0
 14 12  1  0  0  0  0
 16 15  1  0  0  0  0
 17 16  1  0  0  0  0
 17 18  1  0  0  0  0
 18 19  1  0  0  0  0
 20 26  1  0  0  0  0
 21 25  1  0  0  0  0
 22 21  2  0  0  0  0
 23 25  2  0  0  0  0
 24 23  1  0  0  0  0
 25 28  1  0  0  0  0
 26 22  1  0  0  0  0
 26 24  2  0  0  0  0
 27 24  1  0  0  0  0
 28 29  2  0  0  0  0
 30 28  2  0  0  0  0
 31 32  1  0  0  0  0
 32 34  1  0  0  0  0
 33 32  1  0  0  0  0
 34 35  2  0  0  0  0
 35 36  1  0  0  0  0
 37 36  1  0  0  0  0
 38 37  2  0  0  0  0
 39 40  2  0  0  0  0
 39 41  1  0  0  0  0
 40 38  1  0  0  0  0
 41 37  1  0  0  0  0
 42 43  1  0  0  0  0
 45 44  1  0  0  0  0
 45 39  1  0  0  0  0
 45 47  1  0  0  0  0
 46 44  1  0  0  0  0
 46 42  2  0  0  0  0
 47 43  1  0  0  0  0
M  END
>  <MODEL>
2

>  <REMARK>
 VINA RESULT:      -7.5      1.364      1.918
  Name = 
  13 active torsions:
  status: ('A' for Active; 'I' for Inactive)
    1  A    between atoms: N_2  and  C_34
    2  A    between atoms: C_4  and  C_21
    3  A    between atoms: C_5  and  C_18
    4  A    between atoms: C_6  and  C_7
    5  A    between atoms: C_7  and  C_11
    6  A    between atoms: O_14  and  C_20
    7  A    between atoms: C_18  and  C_32
    8  A    between atoms: C_20  and  C_30
    9  A    between atoms: C_21  and  C_30
   10  A    between atoms: C_22  and  C_29
   11  A    between atoms: O_31  and  C_37
   12  A    between atoms: O_31  and  C_40
   13  A    between atoms: C_32  and  C_35
                            x       y       z     vdW  Elec       q    Type
                         _______ _______ _______ _____ _____    ______ ____

>  <TORSDO>
F 13

$$$$
=
 OpenBabel11042415213D

 47 52  0  0  1  0  0  0  0  0999 V2000
  190.6100  174.0150  143.9560 C   0  0  0  0  0  2  0  0  0  0  0  0
  192.1600  172.9900  140.0240 C   0  0  1  0  0  3  0  0  0  0  0  0
  189.1800  172.6930  142.5750 C   0  0  1  0  0  3  0  0  0  0  0  0
  186.8850  172.5090  141.9160 O   0  0  0  0  0  0  0  0  0  0  0  0
  190.7660  172.8170  140.5460 C   0  0  1  0  0  3  0  0  0  0  0  0
  191.5140  173.3840  142.9060 C   0  0  2  0  0  0  0  0  0  0  0  0
  192.5400  172.5080  143.6020 C   0  0  0  0  0  1  0  0  0  0  0  0
  192.2170  174.5160  142.1370 C   0  0  0  0  0  2  0  0  0  0  0  0
  192.9280  174.0620  140.8470 C   0  0  1  0  0  3  0  0  0  0  0  0
  189.2000  173.9680  143.3970 C   0  0  2  0  0  3  0  0  0  0  0  0
  189.7350  172.8790  139.7010 C   0  0  0  0  0  3  0  0  0  0  0  0
  188.0830  172.6360  141.5480 C   0  0  0  0  0  0  0  0  0  0  0  0
  190.5970  172.5150  142.0200 C   0  0  1  0  0  3  0  0  0  0  0  0
  188.3890  172.7450  140.1580 N   0  0  0  0  0  0  0  0  0  0  0  0
  192.8720  171.6360  139.9630 C   0  0  0  0  0  2  0  0  0  0  0  0
  192.7770  171.0370  138.5680 C   0  0  0  0  0  2  0  0  0  0  0  0
  192.4210  169.5640  138.6570 C   0  0  0  0  0  2  0  0  0  0  0  0
  191.1790  169.4120  139.2740 O   0  0  0  0  0  0  0  0  0  0  0  0
  190.2560  169.4840  138.2260 C   0  0  0  0  0  1  0  0  0  0  0  0
  188.9960  175.1060  142.5660 O   0  0  0  0  0  0  0  0  0  0  0  0
  185.7770  176.6970  143.3760 C   0  0  0  0  0  3  0  0  0  0  0  0
  186.7620  175.7470  143.1070 C   0  0  0  0  0  3  0  0  0  0  0  0
  187.4000  178.4620  143.0690 C   0  0  0  0  0  3  0  0  0  0  0  0
  188.3980  177.5190  142.8070 C   0  0  0  0  0  0  0  0  0  0  0  0
  186.0880  178.0620  143.3570 C   0  0  0  0  0  0  0  0  0  0  0  0
  188.0790  176.1350  142.8260 C   0  0  0  0  0  0  0  0  0  0  0  0
  189.9870  178.1550  142.3950 Cl  0  0  0  0  0  0  0  0  0  0  0  0
  185.0680  179.0380  143.6240 N   0  0  0  0  0  0  0  0  0  0  0  0
  185.4090  180.2770  144.1240 O   0  0  0  0  0  0  0  0  0  0  0  0
  183.8600  178.7460  143.4820 O   0  0  0  0  0  0  0  0  0  0  0  0
  194.4200  173.7600  141.0710 C   0  0  0  0  0  2  0  0  0  0  0  0
  195.3260  174.9900  140.9650 C   0  0  1  0  0  3  0  0  0  0  0  0
  195.1320  175.6490  139.7450 O   0  0  0  0  0  1  0  0  0  0  0  0
  195.1140  175.9270  142.1130 C   0  0  0  0  0  3  0  0  0  0  0  0
  195.6630  175.6900  143.3010 C   0  0  0  0  0  3  0  0  0  0  0  0
  195.4300  176.6400  144.4280 C   0  0  0  0  0  2  0  0  0  0  0  0
  194.2820  176.1770  145.2540 C   0  0  0  0  0  0  0  0  0  0  0  0
  194.2280  174.9670  145.8390 N   0  0  0  0  0  0  0  0  0  0  0  0
  192.4270  176.0680  146.2100 C   0  0  0  0  0  0  0  0  0  0  0  0
  193.0620  174.9020  146.4560 N   0  0  0  0  0  0  0  0  0  0  0  0
  193.1710  176.9090  145.4650 N   0  0  0  0  0  2  0  0  0  0  0  0
  188.2290  176.3100  146.9630 C   0  0  0  0  0  3  0  0  0  0  0  0
  188.9590  175.0050  147.1040 C   0  0  0  0  0  2  0  0  0  0  0  0
  190.2000  177.1300  145.7630 C   0  0  0  0  0  2  0  0  0  0  0  0
  191.0970  176.4410  146.8050 C   0  0  1  0  0  3  0  0  0  0  0  0
  188.8180  177.3230  146.3190 C   0  0  0  0  0  3  0  0  0  0  0  0
  190.4230  175.2340  147.5060 C   0  0  0  0  0  2  0  0  0  0  0  0
  2 15  1  1  0  0  0
  2  5  1  0  0  0  0
  2  9  1  0  0  0  0
  3 12  1  6  0  0  0
  3 10  1  0  0  0  0
  5 11  1  6  0  0  0
  5 13  1  0  0  0  0
  6  7  1  1  0  0  0
  6  1  1  0  0  0  0
  8  6  1  0  0  0  0
  9 31  1  1  0  0  0
  9  8  1  0  0  0  0
 10 20  1  6  0  0  0
 10  1  1  0  0  0  0
 11 14  2  0  0  0  0
 12  4  2  0  0  0  0
 13  3  1  0  0  0  0
 13  6  1  0  0  0  0
 14 12  1  0  0  0  0
 16 17  1  0  0  0  0
 16 15  1  0  0  0  0
 17 18  1  0  0  0  0
 19 18  1  0  0  0  0
 20 26  1  0  0  0  0
 22 21  2  0  0  0  0
 23 25  2  0  0  0  0
 24 26  2  0  0  0  0
 24 23  1  0  0  0  0
 25 21  1  0  0  0  0
 25 28  1  0  0  0  0
 26 22  1  0  0  0  0
 27 24  1  0  0  0  0
 28 29  2  0  0  0  0
 30 28  2  0  0  0  0
 32 31  1  0  0  0  0
 32 34  1  0  0  0  0
 33 32  1  0  0  0  0
 34 35  2  0  0  0  0
 35 36  1  0  0  0  0
 36 37  1  0  0  0  0
 37 41  1  0  0  0  0
 37 38  2  0  0  0  0
 38 40  1  0  0  0  0
 39 40  2  0  0  0  0
 39 45  1  0  0  0  0
 41 39  1  0  0  0  0
 42 43  1  0  0  0  0
 43 47  1  0  0  0  0
 44 46  1  0  0  0  0
 44 45  1  0  0  0  0
 45 47  1  0  0  0  0
 46 42  2  0  0  0  0
M  END
>  <MODEL>
3

>  <REMARK>
 VINA RESULT:      -7.2      2.138      4.043
  Name = 
  13 active torsions:
  status: ('A' for Active; 'I' for Inactive)
    1  A    between atoms: N_2  and  C_34
    2  A    between atoms: C_4  and  C_21
    3  A    between atoms: C_5  and  C_18
    4  A    between atoms: C_6  and  C_7
    5  A    between atoms: C_7  and  C_11
    6  A    between atoms: O_14  and  C_20
    7  A    between atoms: C_18  and  C_32
    8  A    between atoms: C_20  and  C_30
    9  A    between atoms: C_21  and  C_30
   10  A    between atoms: C_22  and  C_29
   11  A    between atoms: O_31  and  C_37
   12  A    between atoms: O_31  and  C_40
   13  A    between atoms: C_32  and  C_35
                            x       y       z     vdW  Elec       q    Type
                         _______ _______ _______ _____ _____    ______ ____

>  <TORSDO>
F 13

$$$$
=
 OpenBabel11042415213D

 47 52  0  0  1  0  0  0  0  0999 V2000
  190.9840  173.4360  143.1540 C   0  0  0  0  0  2  0  0  0  0  0  0
  193.4270  173.8900  139.5850 C   0  0  1  0  0  3  0  0  0  0  0  0
  190.0470  172.5960  141.1250 C   0  0  1  0  0  3  0  0  0  0  0  0
  187.9770  172.5380  139.9200 O   0  0  0  0  0  0  0  0  0  0  0  0
  191.9880  173.4820  139.6790 C   0  0  1  0  0  3  0  0  0  0  0  0
  192.1570  173.2460  142.2020 C   0  0  2  0  0  0  0  0  0  0  0  0
  193.1190  172.2360  142.8010 C   0  0  0  0  0  1  0  0  0  0  0  0
  192.8560  174.6050  142.0260 C   0  0  0  0  0  2  0  0  0  0  0  0
  193.8690  174.6530  140.8650 C   0  0  1  0  0  3  0  0  0  0  0  0
  189.7370  173.5150  142.2940 C   0  0  2  0  0  3  0  0  0  0  0  0
  191.1540  173.7790  138.6800 C   0  0  0  0  0  3  0  0  0  0  0  0
  189.2010  172.8400  139.9060 C   0  0  0  0  0  0  0  0  0  0  0  0
  191.5580  172.6870  140.8940 C   0  0  1  0  0  3  0  0  0  0  0  0
  189.7710  173.4320  138.7380 N   0  0  0  0  0  0  0  0  0  0  0  0
  194.3000  172.6750  139.2620 C   0  0  0  0  0  2  0  0  0  0  0  0
  194.8280  172.7500  137.8380 C   0  0  0  0  0  2  0  0  0  0  0  0
  195.5350  174.0750  137.6140 C   0  0  0  0  0  2  0  0  0  0  0  0
  196.8480  173.9980  138.0790 O   0  0  0  0  0  0  0  0  0  0  0  0
  197.2710  175.3290  138.1570 C   0  0  0  0  0  1  0  0  0  0  0  0
  189.5680  174.8560  141.8480 O   0  0  0  0  0  0  0  0  0  0  0  0
  186.3260  176.1680  142.9990 C   0  0  0  0  0  3  0  0  0  0  0  0
  187.3180  175.3330  142.4830 C   0  0  0  0  0  3  0  0  0  0  0  0
  187.9660  177.9160  143.3100 C   0  0  0  0  0  3  0  0  0  0  0  0
  188.9700  177.0850  142.8030 C   0  0  0  0  0  0  0  0  0  0  0  0
  186.6430  177.4660  143.4140 C   0  0  0  0  0  0  0  0  0  0  0  0
  188.6460  175.7690  142.3820 C   0  0  0  0  0  0  0  0  0  0  0  0
  190.5760  177.7930  142.6640 Cl  0  0  0  0  0  0  0  0  0  0  0  0
  185.6180  178.3270  143.9340 N   0  0  0  0  0  0  0  0  0  0  0  0
  185.9540  179.4060  144.7250 O   0  0  0  0  0  0  0  0  0  0  0  0
  184.4100  178.0620  143.7420 O   0  0  0  0  0  0  0  0  0  0  0  0
  195.3090  174.3660  141.3260 C   0  0  0  0  0  2  0  0  0  0  0  0
  196.0540  175.6000  141.8400 C   0  0  1  0  0  3  0  0  0  0  0  0
  195.5920  176.7610  141.2100 O   0  0  0  0  0  1  0  0  0  0  0  0
  195.9470  175.7250  143.3280 C   0  0  0  0  0  3  0  0  0  0  0  0
  195.8340  174.6470  144.0990 C   0  0  0  0  0  3  0  0  0  0  0  0
  195.7250  174.8040  145.5790 C   0  0  0  0  0  2  0  0  0  0  0  0
  194.4440  175.4790  145.9250 C   0  0  0  0  0  0  0  0  0  0  0  0
  194.3600  176.5220  146.7700 N   0  0  0  0  0  0  0  0  0  0  0  0
  192.4150  175.9520  146.0740 C   0  0  0  0  0  0  0  0  0  0  0  0
  193.0780  176.8320  146.8540 N   0  0  0  0  0  0  0  0  0  0  0  0
  193.2440  175.0880  145.4560 N   0  0  0  0  0  2  0  0  0  0  0  0
  188.1940  176.2720  146.6530 C   0  0  0  0  0  3  0  0  0  0  0  0
  189.1040  177.4150  147.0030 C   0  0  0  0  0  2  0  0  0  0  0  0
  190.2020  174.8750  146.5590 C   0  0  0  0  0  2  0  0  0  0  0  0
  190.9340  176.0080  145.8190 C   0  0  1  0  0  3  0  0  0  0  0  0
  188.7160  175.0590  146.4450 C   0  0  0  0  0  3  0  0  0  0  0  0
  190.3540  177.4160  146.1110 C   0  0  0  0  0  2  0  0  0  0  0  0
  2 15  1  1  0  0  0
  2  5  1  0  0  0  0
  2  9  1  0  0  0  0
  3 12  1  6  0  0  0
  3 10  1  0  0  0  0
  5 11  1  6  0  0  0
  5 13  1  0  0  0  0
  6  7  1  1  0  0  0
  6  1  1  0  0  0  0
  8  6  1  0  0  0  0
  9 31  1  1  0  0  0
  9  8  1  0  0  0  0
 10 20  1  6  0  0  0
 10  1  1  0  0  0  0
 11 14  2  0  0  0  0
 12  4  2  0  0  0  0
 13  3  1  0  0  0  0
 13  6  1  0  0  0  0
 14 12  1  0  0  0  0
 16 15  1  0  0  0  0
 17 16  1  0  0  0  0
 17 18  1  0  0  0  0
 18 19  1  0  0  0  0
 20 26  1  0  0  0  0
 21 25  1  0  0  0  0
 22 21  2  0  0  0  0
 23 25  2  0  0  0  0
 24 23  1  0  0  0  0
 25 28  1  0  0  0  0
 26 22  1  0  0  0  0
 26 24  2  0  0  0  0
 27 24  1  0  0  0  0
 28 29  2  0  0  0  0
 30 28  2  0  0  0  0
 31 32  1  0  0  0  0
 32 34  1  0  0  0  0
 33 32  1  0  0  0  0
 34 35  2  0  0  0  0
 35 36  1  0  0  0  0
 36 37  1  0  0  0  0
 37 38  2  0  0  0  0
 38 40  1  0  0  0  0
 39 40  2  0  0  0  0
 41 37  1  0  0  0  0
 41 39  1  0  0  0  0
 42 43  1  0  0  0  0
 45 39  1  0  0  0  0
 45 47  1  0  0  0  0
 45 44  1  0  0  0  0
 46 44  1  0  0  0  0
 46 42  2  0  0  0  0
 47 43  1  0  0  0  0
M  END
>  <MODEL>
4

>  <REMARK>
 VINA RESULT:      -7.2      1.959      3.216
  Name = 
  13 active torsions:
  status: ('A' for Active; 'I' for Inactive)
    1  A    between atoms: N_2  and  C_34
    2  A    between atoms: C_4  and  C_21
    3  A    between atoms: C_5  and  C_18
    4  A    between atoms: C_6  and  C_7
    5  A    between atoms: C_7  and  C_11
    6  A    between atoms: O_14  and  C_20
    7  A    between atoms: C_18  and  C_32
    8  A    between atoms: C_20  and  C_30
    9  A    between atoms: C_21  and  C_30
   10  A    between atoms: C_22  and  C_29
   11  A    between atoms: O_31  and  C_37
   12  A    between atoms: O_31  and  C_40
   13  A    between atoms: C_32  and  C_35
                            x       y       z     vdW  Elec       q    Type
                         _______ _______ _______ _____ _____    ______ ____

>  <TORSDO>
F 13

$$$$
=
 OpenBabel11042415213D

 47 52  0  0  1  0  0  0  0  0999 V2000
  192.2640  176.6340  142.7730 C   0  0  0  0  0  2  0  0  0  0  0  0
  194.5330  172.9500  143.2060 C   0  0  1  0  0  3  0  0  0  0  0  0
  193.8180  176.5640  144.5840 C   0  0  1  0  0  3  0  0  0  0  0  0
  194.0060  177.1620  146.8960 O   0  0  0  0  0  0  0  0  0  0  0  0
  194.4310  174.0950  144.1670 C   0  0  0  0  0  0  0  0  0  0  0  0
  193.2490  175.5250  142.4330 C   0  0  2  0  0  0  0  0  0  0  0  0
  193.9570  175.8760  141.1370 C   0  0  0  0  0  1  0  0  0  0  0  0
  192.4570  174.2160  142.2660 C   0  0  0  0  0  2  0  0  0  0  0  0
  193.3300  172.9460  142.2220 C   0  0  1  0  0  3  0  0  0  0  0  0
  192.3610  176.8540  144.2710 C   0  0  2  0  0  3  0  0  0  0  0  0
  194.5410  173.8660  145.4770 C   0  0  0  0  0  3  0  0  0  0  0  0
  194.0910  176.2510  146.0300 C   0  0  0  0  0  0  0  0  0  0  0  0
  194.2660  175.4870  143.5920 C   0  0  1  0  0  3  0  0  0  0  0  0
  194.4250  174.9220  146.4300 N   0  0  0  0  0  2  0  0  0  0  0  0
  195.8960  172.9660  142.5090 C   0  0  0  0  0  2  0  0  0  0  0  0
  196.9000  172.1070  143.2630 C   0  0  0  0  0  2  0  0  0  0  0  0
  196.2750  170.7710  143.6220 C   0  0  0  0  0  2  0  0  0  0  0  0
  197.0040  170.1640  144.6440 O   0  0  0  0  0  0  0  0  0  0  0  0
  196.8010  170.9860  145.7560 C   0  0  0  0  0  1  0  0  0  0  0  0
  191.5110  175.9220  144.9310 O   0  0  0  0  0  0  0  0  0  0  0  0
  188.6090  177.9630  145.9140 C   0  0  0  0  0  3  0  0  0  0  0  0
  189.8560  177.5680  145.4290 C   0  0  0  0  0  3  0  0  0  0  0  0
  188.0900  175.6630  146.4470 C   0  0  0  0  0  3  0  0  0  0  0  0
  189.3340  175.2540  145.9560 C   0  0  0  0  0  0  0  0  0  0  0  0
  187.7180  177.0150  146.4280 C   0  0  0  0  0  0  0  0  0  0  0  0
  190.2360  176.2190  145.4360 C   0  0  0  0  0  0  0  0  0  0  0  0
  189.7050  173.5390  146.0980 Cl  0  0  0  0  0  0  0  0  0  0  0  0
  186.4390  177.4270  146.9360 N   0  0  0  0  0  0  0  0  0  0  0  0
  185.2790  176.9900  146.3300 O   0  0  0  0  0  0  0  0  0  0  0  0
  186.3660  178.2460  147.8790 O   0  0  0  0  0  0  0  0  0  0  0  0
  193.6700  172.5140  140.7850 C   0  0  0  0  0  2  0  0  0  0  0  0
  193.0050  171.2030  140.3570 C   0  0  1  0  0  3  0  0  0  0  0  0
  193.2800  170.1820  141.2720 O   0  0  0  0  0  1  0  0  0  0  0  0
  191.5280  171.3720  140.1770 C   0  0  0  0  0  3  0  0  0  0  0  0
  191.0370  172.3500  139.4220 C   0  0  0  0  0  3  0  0  0  0  0  0
  189.5600  172.4940  139.2660 C   0  0  0  0  0  2  0  0  0  0  0  0
  188.9800  173.1290  140.4800 C   0  0  0  0  0  0  0  0  0  0  0  0
  188.4790  172.4320  141.5150 N   0  0  0  0  0  0  0  0  0  0  0  0
  188.2550  174.5380  141.8430 C   0  0  0  0  0  0  0  0  0  0  0  0
  188.0330  173.3210  142.3850 N   0  0  0  0  0  0  0  0  0  0  0  0
  188.8660  174.4610  140.6440 N   0  0  0  0  0  2  0  0  0  0  0  0
  186.6200  178.3550  142.8440 C   0  0  0  0  0  3  0  0  0  0  0  0
  185.7420  177.1370  142.7860 C   0  0  0  0  0  2  0  0  0  0  0  0
  188.3020  177.0380  141.6490 C   0  0  0  0  0  2  0  0  0  0  0  0
  187.9730  175.8350  142.5500 C   0  0  1  0  0  3  0  0  0  0  0  0
  187.8390  178.3110  142.2980 C   0  0  0  0  0  3  0  0  0  0  0  0
  186.5370  175.8700  143.1330 C   0  0  0  0  0  2  0  0  0  0  0  0
  1 10  1  0  0  0  0
  2 15  1  6  0  0  0
  2  5  1  0  0  0  0
  3 12  1  1  0  0  0
  5 11  2  0  0  0  0
  6  7  1  6  0  0  0
  6  1  1  0  0  0  0
  6 13  1  0  0  0  0
  8  6  1  0  0  0  0
  9 31  1  6  0  0  0
  9  8  1  0  0  0  0
  9  2  1  0  0  0  0
 10  3  1  0  0  0  0
 10 20  1  1  0  0  0
 11 14  1  0  0  0  0
 12 14  1  0  0  0  0
 12  4  2  0  0  0  0
 13  5  1  1  0  0  0
 13  3  1  0  0  0  0
 15 16  1  0  0  0  0
 16 17  1  0  0  0  0
 17 18  1  0  0  0  0
 18 19  1  0  0  0  0
 20 26  1  0  0  0  0
 21 25  1  0  0  0  0
 22 26  1  0  0  0  0
 22 21  2  0  0  0  0
 24 27  1  0  0  0  0
 24 23  1  0  0  0  0
 25 23  2  0  0  0  0
 25 28  1  0  0  0  0
 26 24  2  0  0  0  0
 28 30  2  0  0  0  0
 29 28  2  0  0  0  0
 32 31  1  0  0  0  0
 32 33  1  1  0  0  0
 34 32  1  0  0  0  0
 35 34  2  0  0  0  0
 36 35  1  0  0  0  0
 36 37  1  0  0  0  0
 37 41  1  0  0  0  0
 37 38  2  0  0  0  0
 38 40  1  0  0  0  0
 39 40  2  0  0  0  0
 41 39  1  0  0  0  0
 43 42  1  0  0  0  0
 43 47  1  0  0  0  0
 44 46  1  0  0  0  0
 44 45  1  0  0  0  0
 45 39  1  6  0  0  0
 45 47  1  0  0  0  0
 46 42  2  0  0  0  0
M  END
>  <MODEL>
5

>  <REMARK>
 VINA RESULT:      -6.9      2.648      5.499
  Name = 
  13 active torsions:
  status: ('A' for Active; 'I' for Inactive)
    1  A    between atoms: N_2  and  C_34
    2  A    between atoms: C_4  and  C_21
    3  A    between atoms: C_5  and  C_18
    4  A    between atoms: C_6  and  C_7
    5  A    between atoms: C_7  and  C_11
    6  A    between atoms: O_14  and  C_20
    7  A    between atoms: C_18  and  C_32
    8  A    between atoms: C_20  and  C_30
    9  A    between atoms: C_21  and  C_30
   10  A    between atoms: C_22  and  C_29
   11  A    between atoms: O_31  and  C_37
   12  A    between atoms: O_31  and  C_40
   13  A    between atoms: C_32  and  C_35
                            x       y       z     vdW  Elec       q    Type
                         _______ _______ _______ _____ _____    ______ ____

>  <TORSDO>
F 13

$$$$
=
 OpenBabel11042415213D

 47 52  0  0  1  0  0  0  0  0999 V2000
  192.0390  177.2590  146.2230 C   0  0  0  0  0  2  0  0  0  0  0  0
  193.2800  173.6380  144.1580 C   0  0  1  0  0  3  0  0  0  0  0  0
  190.8980  175.2550  146.8390 C   0  0  1  0  0  3  0  0  0  0  0  0
  188.6950  174.4420  147.3160 O   0  0  0  0  0  0  0  0  0  0  0  0
  192.0850  173.8410  145.0400 C   0  0  0  0  0  0  0  0  0  0  0  0
  192.9400  176.1150  145.7790 C   0  0  2  0  0  0  0  0  0  0  0  0
  194.2650  176.2200  146.5120 C   0  0  0  0  0  1  0  0  0  0  0  0
  193.1620  176.2410  144.2620 C   0  0  0  0  0  2  0  0  0  0  0  0
  193.7960  174.9980  143.6070 C   0  0  1  0  0  3  0  0  0  0  0  0
  190.6460  176.6780  146.3760 C   0  0  2  0  0  3  0  0  0  0  0  0
  190.9790  173.1260  144.8220 C   0  0  0  0  0  3  0  0  0  0  0  0
  189.7400  174.3190  146.6220 C   0  0  0  0  0  0  0  0  0  0  0  0
  192.2140  174.8170  146.1910 C   0  0  1  0  0  3  0  0  0  0  0  0
  189.8090  173.3050  145.6200 N   0  0  0  0  0  2  0  0  0  0  0  0
  194.3500  172.8300  144.8970 C   0  0  0  0  0  2  0  0  0  0  0  0
  194.0640  171.3390  144.7990 C   0  0  0  0  0  2  0  0  0  0  0  0
  195.1450  170.5530  145.5200 C   0  0  0  0  0  2  0  0  0  0  0  0
  194.5620  169.6360  146.3950 O   0  0  0  0  0  0  0  0  0  0  0  0
  194.4130  168.4720  145.6350 C   0  0  0  0  0  1  0  0  0  0  0  0
  190.0000  176.6870  145.1060 O   0  0  0  0  0  0  0  0  0  0  0  0
  186.6470  177.9960  145.8750 C   0  0  0  0  0  3  0  0  0  0  0  0
  187.9620  177.5460  146.0000 C   0  0  0  0  0  3  0  0  0  0  0  0
  186.7380  177.5910  143.4940 C   0  0  0  0  0  3  0  0  0  0  0  0
  188.0590  177.1470  143.6050 C   0  0  0  0  0  0  0  0  0  0  0  0
  186.0240  178.0200  144.6220 C   0  0  0  0  0  0  0  0  0  0  0  0
  188.6870  177.1240  144.8780 C   0  0  0  0  0  0  0  0  0  0  0  0
  188.8190  176.5760  142.1240 Cl  0  0  0  0  0  0  0  0  0  0  0  0
  184.6670  178.4720  144.4990 N   0  0  0  0  0  0  0  0  0  0  0  0
  184.0480  178.4810  143.2670 O   0  0  0  0  0  0  0  0  0  0  0  0
  184.0620  178.9370  145.4910 O   0  0  0  0  0  0  0  0  0  0  0  0
  195.3260  175.1090  143.4870 C   0  0  0  0  0  2  0  0  0  0  0  0
  195.8050  176.4080  142.8340 C   0  0  1  0  0  3  0  0  0  0  0  0
  197.1480  176.6540  143.1370 O   0  0  0  0  0  1  0  0  0  0  0  0
  195.5900  176.3860  141.3520 C   0  0  0  0  0  3  0  0  0  0  0  0
  195.7780  175.2730  140.6490 C   0  0  0  0  0  3  0  0  0  0  0  0
  195.5600  175.2840  139.1730 C   0  0  0  0  0  2  0  0  0  0  0  0
  194.2030  174.7620  138.8550 C   0  0  0  0  0  0  0  0  0  0  0  0
  193.6370  174.8580  137.6390 N   0  0  0  0  0  0  0  0  0  0  0  0
  192.2950  173.9290  139.0280 C   0  0  0  0  0  0  0  0  0  0  0  0
  192.4350  174.3180  137.7430 N   0  0  0  0  0  0  0  0  0  0  0  0
  193.3970  174.1780  139.7630 N   0  0  0  0  0  2  0  0  0  0  0  0
  188.4850  173.0410  140.7460 C   0  0  0  0  0  3  0  0  0  0  0  0
  188.5860  173.8220  139.4670 C   0  0  0  0  0  2  0  0  0  0  0  0
  190.8760  173.4800  141.0460 C   0  0  0  0  0  2  0  0  0  0  0  0
  191.0980  173.1840  139.5530 C   0  0  1  0  0  3  0  0  0  0  0  0
  189.5760  172.8810  141.5030 C   0  0  0  0  0  3  0  0  0  0  0  0
  189.8420  173.4260  138.6780 C   0  0  0  0  0  2  0  0  0  0  0  0
  1 10  1  0  0  0  0
  2 15  1  1  0  0  0
  2  5  1  0  0  0  0
  3 12  1  6  0  0  0
  6 13  1  0  0  0  0
  6  1  1  0  0  0  0
  6  7  1  1  0  0  0
  8  6  1  0  0  0  0
  9 31  1  1  0  0  0
  9  2  1  0  0  0  0
  9  8  1  0  0  0  0
 10 20  1  6  0  0  0
 10  3  1  0  0  0  0
 11  5  2  0  0  0  0
 11 14  1  0  0  0  0
 12  4  2  0  0  0  0
 13  5  1  6  0  0  0
 13  3  1  0  0  0  0
 14 12  1  0  0  0  0
 16 15  1  0  0  0  0
 16 17  1  0  0  0  0
 17 18  1  0  0  0  0
 19 18  1  0  0  0  0
 21 22  1  0  0  0  0
 23 24  2  0  0  0  0
 23 25  1  0  0  0  0
 24 26  1  0  0  0  0
 25 21  2  0  0  0  0
 26 20  1  0  0  0  0
 26 22  2  0  0  0  0
 27 24  1  0  0  0  0
 28 25  1  0  0  0  0
 28 30  2  0  0  0  0
 29 28  2  0  0  0  0
 32 33  1  6  0  0  0
 32 31  1  0  0  0  0
 34 32  1  0  0  0  0
 35 34  2  0  0  0  0
 36 35  1  0  0  0  0
 37 36  1  0  0  0  0
 37 41  1  0  0  0  0
 38 40  1  0  0  0  0
 38 37  2  0  0  0  0
 39 41  1  0  0  0  0
 40 39  2  0  0  0  0
 42 46  2  0  0  0  0
 43 42  1  0  0  0  0
 44 46  1  0  0  0  0
 45 39  1  6  0  0  0
 45 44  1  0  0  0  0
 47 43  1  0  0  0  0
 47 45  1  0  0  0  0
M  END
>  <MODEL>
6

>  <REMARK>
 VINA RESULT:      -6.7      2.371      6.136
  Name = 
  13 active torsions:
  status: ('A' for Active; 'I' for Inactive)
    1  A    between atoms: N_2  and  C_34
    2  A    between atoms: C_4  and  C_21
    3  A    between atoms: C_5  and  C_18
    4  A    between atoms: C_6  and  C_7
    5  A    between atoms: C_7  and  C_11
    6  A    between atoms: O_14  and  C_20
    7  A    between atoms: C_18  and  C_32
    8  A    between atoms: C_20  and  C_30
    9  A    between atoms: C_21  and  C_30
   10  A    between atoms: C_22  and  C_29
   11  A    between atoms: O_31  and  C_37
   12  A    between atoms: O_31  and  C_40
   13  A    between atoms: C_32  and  C_35
                            x       y       z     vdW  Elec       q    Type
                         _______ _______ _______ _____ _____    ______ ____

>  <TORSDO>
F 13

$$$$
=
 OpenBabel11042415213D

 47 52  0  0  1  0  0  0  0  0999 V2000
  190.1300  177.0690  142.6380 C   0  0  0  0  0  2  0  0  0  0  0  0
  187.5310  176.4170  146.0640 C   0  0  1  0  0  3  0  0  0  0  0  0
  187.8600  177.7650  142.3830 C   0  0  1  0  0  3  0  0  0  0  0  0
  186.0710  177.7210  140.7910 O   0  0  0  0  0  0  0  0  0  0  0  0
  187.1480  176.8130  144.6700 C   0  0  1  0  0  3  0  0  0  0  0  0
  189.5780  177.2120  144.0490 C   0  0  2  0  0  0  0  0  0  0  0  0
  190.3800  178.2700  144.7860 C   0  0  0  0  0  1  0  0  0  0  0  0
  189.7160  175.8530  144.7580 C   0  0  0  0  0  2  0  0  0  0  0  0
  188.9330  175.7430  146.0800 C   0  0  1  0  0  3  0  0  0  0  0  0
  188.9320  176.9200  141.7180 C   0  0  2  0  0  3  0  0  0  0  0  0
  185.9610  176.4430  144.1850 C   0  0  0  0  0  3  0  0  0  0  0  0
  186.4570  177.4340  141.9550 C   0  0  0  0  0  0  0  0  0  0  0  0
  188.1160  177.6780  143.8900 C   0  0  1  0  0  3  0  0  0  0  0  0
  185.5650  176.7750  142.8550 N   0  0  0  0  0  0  0  0  0  0  0  0
  187.4180  177.6200  147.0040 C   0  0  0  0  0  2  0  0  0  0  0  0
  186.0610  177.6440  147.6900 C   0  0  0  0  0  2  0  0  0  0  0  0
  185.2390  178.8140  147.1780 C   0  0  0  0  0  2  0  0  0  0  0  0
  184.0800  178.3460  146.5600 O   0  0  0  0  0  0  0  0  0  0  0  0
  184.0230  179.0420  145.3480 C   0  0  0  0  0  1  0  0  0  0  0  0
  188.5430  175.5500  141.6850 O   0  0  0  0  0  0  0  0  0  0  0  0
  188.5210  173.6290  138.5450 C   0  0  0  0  0  3  0  0  0  0  0  0
  188.1870  174.5260  139.5600 C   0  0  0  0  0  3  0  0  0  0  0  0
  190.4180  172.8770  139.8410 C   0  0  0  0  0  3  0  0  0  0  0  0
  190.0970  173.7780  140.8610 C   0  0  0  0  0  0  0  0  0  0  0  0
  189.6380  172.7960  138.6790 C   0  0  0  0  0  0  0  0  0  0  0  0
  188.9640  174.6210  140.7220 C   0  0  0  0  0  0  0  0  0  0  0  0
  191.1180  173.7330  142.2940 Cl  0  0  0  0  0  0  0  0  0  0  0  0
  189.9730  171.8660  137.6370 N   0  0  0  0  0  0  0  0  0  0  0  0
  189.3200  171.9190  136.4240 O   0  0  0  0  0  0  0  0  0  0  0  0
  190.8010  170.9510  137.8470 O   0  0  0  0  0  0  0  0  0  0  0  0
  189.7980  176.0770  147.3080 C   0  0  0  0  0  2  0  0  0  0  0  0
  191.2860  176.2410  146.9930 C   0  0  1  0  0  3  0  0  0  0  0  0
  191.9270  176.9880  147.9880 O   0  0  0  0  0  1  0  0  0  0  0  0
  191.9570  174.9160  146.8100 C   0  0  0  0  0  3  0  0  0  0  0  0
  192.9340  174.7590  145.9210 C   0  0  0  0  0  3  0  0  0  0  0  0
  193.5800  173.4250  145.7580 C   0  0  0  0  0  2  0  0  0  0  0  0
  194.0730  173.2650  144.3630 C   0  0  0  0  0  0  0  0  0  0  0  0
  194.1280  172.0810  143.7260 N   0  0  0  0  0  0  0  0  0  0  0  0
  194.9020  173.6460  142.4840 C   0  0  0  0  0  0  0  0  0  0  0  0
  194.6390  172.3230  142.5320 N   0  0  0  0  0  0  0  0  0  0  0  0
  194.5450  174.2820  143.6170 N   0  0  0  0  0  2  0  0  0  0  0  0
  195.5430  174.8140  138.4240 C   0  0  0  0  0  3  0  0  0  0  0  0
  194.1850  174.9430  139.0540 C   0  0  0  0  0  2  0  0  0  0  0  0
  196.1370  173.3790  140.3170 C   0  0  0  0  0  2  0  0  0  0  0  0
  195.4150  174.3560  141.2600 C   0  0  1  0  0  3  0  0  0  0  0  0
  196.4740  174.0630  139.0230 C   0  0  0  0  0  3  0  0  0  0  0  0
  194.3010  175.1800  140.5660 C   0  0  0  0  0  2  0  0  0  0  0  0
  1  6  1  0  0  0  0
  2  9  1  0  0  0  0
  2 15  1  1  0  0  0
  3 12  1  1  0  0  0
  3 13  1  0  0  0  0
  4 12  2  0  0  0  0
  5 11  1  1  0  0  0
  5  2  1  0  0  0  0
  6  8  1  0  0  0  0
  6  7  1  1  0  0  0
  8  9  1  0  0  0  0
  9 31  1  1  0  0  0
 10 20  1  1  0  0  0
 10  3  1  0  0  0  0
 10  1  1  0  0  0  0
 12 14  1  0  0  0  0
 13  6  1  0  0  0  0
 13  5  1  0  0  0  0
 14 11  2  0  0  0  0
 15 16  1  0  0  0  0
 17 16  1  0  0  0  0
 18 17  1  0  0  0  0
 19 18  1  0  0  0  0
 21 25  2  0  0  0  0
 21 22  1  0  0  0  0
 22 26  2  0  0  0  0
 23 24  2  0  0  0  0
 24 27  1  0  0  0  0
 25 23  1  0  0  0  0
 26 24  1  0  0  0  0
 26 20  1  0  0  0  0
 28 30  2  0  0  0  0
 28 25  1  0  0  0  0
 29 28  2  0  0  0  0
 32 31  1  0  0  0  0
 32 33  1  0  0  0  0
 34 32  1  0  0  0  0
 35 34  2  0  0  0  0
 36 35  1  0  0  0  0
 37 36  1  0  0  0  0
 38 37  2  0  0  0  0
 39 40  2  0  0  0  0
 39 41  1  0  0  0  0
 40 38  1  0  0  0  0
 41 37  1  0  0  0  0
 42 46  2  0  0  0  0
 42 43  1  0  0  0  0
 43 47  1  0  0  0  0
 44 45  1  0  0  0  0
 45 39  1  0  0  0  0
 46 44  1  0  0  0  0
 47 45  1  0  0  0  0
M  END
>  <MODEL>
7

>  <REMARK>
 VINA RESULT:      -6.6      2.690      8.159
  Name = 
  13 active torsions:
  status: ('A' for Active; 'I' for Inactive)
    1  A    between atoms: N_2  and  C_34
    2  A    between atoms: C_4  and  C_21
    3  A    between atoms: C_5  and  C_18
    4  A    between atoms: C_6  and  C_7
    5  A    between atoms: C_7  and  C_11
    6  A    between atoms: O_14  and  C_20
    7  A    between atoms: C_18  and  C_32
    8  A    between atoms: C_20  and  C_30
    9  A    between atoms: C_21  and  C_30
   10  A    between atoms: C_22  and  C_29
   11  A    between atoms: O_31  and  C_37
   12  A    between atoms: O_31  and  C_40
   13  A    between atoms: C_32  and  C_35
                            x       y       z     vdW  Elec       q    Type
                         _______ _______ _______ _____ _____    ______ ____

>  <TORSDO>
F 13

$$$$
=
 OpenBabel11042415213D

 47 52  0  0  1  0  0  0  0  0999 V2000
  191.5070  177.7590  144.7310 C   0  0  0  0  0  2  0  0  0  0  0  0
  193.0120  173.7510  143.9640 C   0  0  1  0  0  3  0  0  0  0  0  0
  190.6320  176.0240  146.1180 C   0  0  1  0  0  3  0  0  0  0  0  0
  188.5640  175.2610  147.0570 O   0  0  0  0  0  0  0  0  0  0  0  0
  191.8570  174.1590  144.8270 C   0  0  0  0  0  0  0  0  0  0  0  0
  192.5000  176.6090  144.6350 C   0  0  2  0  0  0  0  0  0  0  0  0
  193.8470  177.0770  145.1550 C   0  0  0  0  0  1  0  0  0  0  0  0
  192.6170  176.1980  143.1570 C   0  0  0  0  0  2  0  0  0  0  0  0
  193.3430  174.8590  142.9240 C   0  0  1  0  0  3  0  0  0  0  0  0
  190.1980  177.1600  145.2100 C   0  0  2  0  0  3  0  0  0  0  0  0
  190.8250  173.3270  144.9800 C   0  0  0  0  0  3  0  0  0  0  0  0
  189.5730  174.9820  146.3550 C   0  0  0  0  0  0  0  0  0  0  0  0
  191.9470  175.4900  145.5430 C   0  0  1  0  0  3  0  0  0  0  0  0
  189.6930  173.6850  145.7720 N   0  0  0  0  0  2  0  0  0  0  0  0
  194.2070  173.3520  144.8350 C   0  0  0  0  0  2  0  0  0  0  0  0
  194.0270  171.9460  145.3870 C   0  0  0  0  0  2  0  0  0  0  0  0
  193.9790  170.9410  144.2500 C   0  0  0  0  0  2  0  0  0  0  0  0
  192.7520  170.2770  144.2540 O   0  0  0  0  0  0  0  0  0  0  0  0
  192.3290  170.3140  142.9220 C   0  0  0  0  0  1  0  0  0  0  0  0
  189.4810  176.6590  144.0860 O   0  0  0  0  0  0  0  0  0  0  0  0
  186.1870  178.2740  144.3920 C   0  0  0  0  0  3  0  0  0  0  0  0
  187.4920  177.8540  144.6460 C   0  0  0  0  0  3  0  0  0  0  0  0
  186.1970  177.0390  142.3140 C   0  0  0  0  0  3  0  0  0  0  0  0
  187.5090  176.6180  142.5540 C   0  0  0  0  0  0  0  0  0  0  0  0
  185.5290  177.8690  143.2250 C   0  0  0  0  0  0  0  0  0  0  0  0
  188.1730  177.0310  143.7390 C   0  0  0  0  0  0  0  0  0  0  0  0
  188.2100  175.5260  141.3640 Cl  0  0  0  0  0  0  0  0  0  0  0  0
  184.1810  178.2950  142.9720 N   0  0  0  0  0  0  0  0  0  0  0  0
  183.5020  179.0430  143.9110 O   0  0  0  0  0  0  0  0  0  0  0  0
  183.5840  177.9250  141.9360 O   0  0  0  0  0  0  0  0  0  0  0  0
  194.8410  175.0440  142.6280 C   0  0  0  0  0  2  0  0  0  0  0  0
  195.1630  176.2980  141.8120 C   0  0  1  0  0  3  0  0  0  0  0  0
  196.4350  176.7870  142.1290 O   0  0  0  0  0  1  0  0  0  0  0  0
  195.0450  176.0400  140.3420 C   0  0  0  0  0  3  0  0  0  0  0  0
  195.7770  175.1010  139.7500 C   0  0  0  0  0  3  0  0  0  0  0  0
  195.6400  174.8700  138.2820 C   0  0  0  0  0  2  0  0  0  0  0  0
  194.2090  174.6530  137.9340 C   0  0  0  0  0  0  0  0  0  0  0  0
  193.5510  175.3800  137.0140 N   0  0  0  0  0  0  0  0  0  0  0  0
  192.2420  173.9490  137.9250 C   0  0  0  0  0  0  0  0  0  0  0  0
  192.3100  174.9270  136.9960 N   0  0  0  0  0  0  0  0  0  0  0  0
  193.4270  173.7340  138.5310 N   0  0  0  0  0  2  0  0  0  0  0  0
  188.3510  172.6760  139.1470 C   0  0  0  0  0  3  0  0  0  0  0  0
  188.5160  173.7770  138.1390 C   0  0  0  0  0  2  0  0  0  0  0  0
  190.7230  172.9820  139.6710 C   0  0  0  0  0  2  0  0  0  0  0  0
  191.0210  173.1050  138.1670 C   0  0  1  0  0  3  0  0  0  0  0  0
  189.4020  172.2990  139.8830 C   0  0  0  0  0  3  0  0  0  0  0  0
  189.8100  173.5960  137.3330 C   0  0  0  0  0  2  0  0  0  0  0  0
  1 10  1  0  0  0  0
  2  5  1  0  0  0  0
  2 15  1  1  0  0  0
  3 12  1  6  0  0  0
  5 11  2  0  0  0  0
  6  1  1  0  0  0  0
  6  7  1  1  0  0  0
  6 13  1  0  0  0  0
  8  6  1  0  0  0  0
  9 31  1  1  0  0  0
  9  8  1  0  0  0  0
  9  2  1  0  0  0  0
 10 20  1  6  0  0  0
 10  3  1  0  0  0  0
 11 14  1  0  0  0  0
 12  4  2  0  0  0  0
 13  5  1  6  0  0  0
 13  3  1  0  0  0  0
 14 12  1  0  0  0  0
 15 16  1  0  0  0  0
 17 18  1  0  0  0  0
 17 16  1  0  0  0  0
 19 18  1  0  0  0  0
 21 22  1  0  0  0  0
 23 24  2  0  0  0  0
 23 25  1  0  0  0  0
 24 26  1  0  0  0  0
 25 21  2  0  0  0  0
 26 20  1  0  0  0  0
 26 22  2  0  0  0  0
 27 24  1  0  0  0  0
 28 25  1  0  0  0  0
 28 29  2  0  0  0  0
 30 28  2  0  0  0  0
 32 33  1  6  0  0  0
 32 31  1  0  0  0  0
 34 32  1  0  0  0  0
 35 34  2  0  0  0  0
 36 35  1  0  0  0  0
 37 36  1  0  0  0  0
 37 41  1  0  0  0  0
 38 37  2  0  0  0  0
 39 41  1  0  0  0  0
 40 38  1  0  0  0  0
 40 39  2  0  0  0  0
 42 46  2  0  0  0  0
 43 42  1  0  0  0  0
 44 46  1  0  0  0  0
 45 39  1  1  0  0  0
 45 44  1  0  0  0  0
 47 43  1  0  0  0  0
 47 45  1  0  0  0  0
M  END
>  <MODEL>
8

>  <REMARK>
 VINA RESULT:      -6.6      2.380      6.492
  Name = 
  13 active torsions:
  status: ('A' for Active; 'I' for Inactive)
    1  A    between atoms: N_2  and  C_34
    2  A    between atoms: C_4  and  C_21
    3  A    between atoms: C_5  and  C_18
    4  A    between atoms: C_6  and  C_7
    5  A    between atoms: C_7  and  C_11
    6  A    between atoms: O_14  and  C_20
    7  A    between atoms: C_18  and  C_32
    8  A    between atoms: C_20  and  C_30
    9  A    between atoms: C_21  and  C_30
   10  A    between atoms: C_22  and  C_29
   11  A    between atoms: O_31  and  C_37
   12  A    between atoms: O_31  and  C_40
   13  A    between atoms: C_32  and  C_35
                            x       y       z     vdW  Elec       q    Type
                         _______ _______ _______ _____ _____    ______ ____

>  <TORSDO>
F 13

$$$$
=
 OpenBabel11042415213D

 47 52  0  0  1  0  0  0  0  0999 V2000
  188.8670  172.6640  141.9170 C   0  0  0  0  0  2  0  0  0  0  0  0
  193.1540  173.2360  141.4620 C   0  0  1  0  0  3  0  0  0  0  0  0
  189.7330  172.4020  139.7080 C   0  0  1  0  0  3  0  0  0  0  0  0
  189.2340  172.9760  137.4360 O   0  0  0  0  0  0  0  0  0  0  0  0
  192.1140  173.1170  140.3890 C   0  0  1  0  0  3  0  0  0  0  0  0
  190.3590  172.4120  142.0830 C   0  0  2  0  0  0  0  0  0  0  0  0
  190.5550  171.1390  142.8870 C   0  0  0  0  0  1  0  0  0  0  0  0
  190.9680  173.6100  142.8320 C   0  0  0  0  0  2  0  0  0  0  0  0
  192.5080  173.6560  142.8120 C   0  0  1  0  0  3  0  0  0  0  0  0
  188.6650  173.1440  140.4920 C   0  0  2  0  0  3  0  0  0  0  0  0
  192.2950  173.7470  139.2260 C   0  0  0  0  0  3  0  0  0  0  0  0
  190.0680  173.0230  138.3790 C   0  0  0  0  0  0  0  0  0  0  0  0
  190.9210  172.2250  140.6580 C   0  0  1  0  0  3  0  0  0  0  0  0
  191.3190  173.6830  138.1860 N   0  0  0  0  0  0  0  0  0  0  0  0
  193.9720  171.9450  141.5490 C   0  0  0  0  0  2  0  0  0  0  0  0
  195.4120  172.1880  141.1240 C   0  0  0  0  0  2  0  0  0  0  0  0
  196.3430  172.0080  142.3100 C   0  0  0  0  0  2  0  0  0  0  0  0
  196.5740  173.2380  142.9240 O   0  0  0  0  0  0  0  0  0  0  0  0
  197.2510  172.9190  144.1050 C   0  0  0  0  0  1  0  0  0  0  0  0
  188.8900  174.5490  140.4420 O   0  0  0  0  0  0  0  0  0  0  0  0
  186.5940  176.8990  142.1030 C   0  0  0  0  0  3  0  0  0  0  0  0
  187.5760  175.9350  141.8730 C   0  0  0  0  0  3  0  0  0  0  0  0
  186.1960  177.0580  139.7250 C   0  0  0  0  0  3  0  0  0  0  0  0
  187.1840  176.0990  139.4800 C   0  0  0  0  0  0  0  0  0  0  0  0
  185.8960  177.4660  141.0320 C   0  0  0  0  0  0  0  0  0  0  0  0
  187.8910  175.5260  140.5700 C   0  0  0  0  0  0  0  0  0  0  0  0
  187.4180  175.6280  137.8010 Cl  0  0  0  0  0  0  0  0  0  0  0  0
  184.8780  178.4500  141.2740 N   0  0  0  0  0  0  0  0  0  0  0  0
  184.7040  178.9700  142.5390 O   0  0  0  0  0  0  0  0  0  0  0  0
  184.0900  178.7840  140.3610 O   0  0  0  0  0  0  0  0  0  0  0  0
  193.1330  173.0070  144.0590 C   0  0  0  0  0  2  0  0  0  0  0  0
  193.6510  174.0140  145.0900 C   0  0  1  0  0  3  0  0  0  0  0  0
  194.3340  175.0620  144.4640 O   0  0  0  0  0  1  0  0  0  0  0  0
  192.5410  174.5400  145.9460 C   0  0  0  0  0  3  0  0  0  0  0  0
  192.6270  175.7370  146.5200 C   0  0  0  0  0  3  0  0  0  0  0  0
  191.5060  176.2320  147.3710 C   0  0  0  0  0  2  0  0  0  0  0  0
  190.3970  176.7310  146.5120 C   0  0  0  0  0  0  0  0  0  0  0  0
  190.5930  177.3910  145.3570 N   0  0  0  0  0  0  0  0  0  0  0  0
  188.5010  177.2350  145.7950 C   0  0  0  0  0  0  0  0  0  0  0  0
  189.3940  177.6980  144.8940 N   0  0  0  0  0  0  0  0  0  0  0  0
  189.0940  176.6030  146.8270 N   0  0  0  0  0  2  0  0  0  0  0  0
  184.3650  178.1550  146.3470 C   0  0  0  0  0  3  0  0  0  0  0  0
  185.3660  179.2460  146.0940 C   0  0  0  0  0  2  0  0  0  0  0  0
  186.2740  176.6950  146.8160 C   0  0  0  0  0  2  0  0  0  0  0  0
  187.0100  177.3000  145.6080 C   0  0  1  0  0  3  0  0  0  0  0  0
  184.7970  176.9390  146.6960 C   0  0  0  0  0  3  0  0  0  0  0  0
  186.5390  178.7320  145.2470 C   0  0  0  0  0  2  0  0  0  0  0  0
  1  6  1  0  0  0  0
  2 15  1  1  0  0  0
  2  9  1  0  0  0  0
  3 12  1  6  0  0  0
  3 10  1  0  0  0  0
  3 13  1  0  0  0  0
  4 12  2  0  0  0  0
  5 11  1  6  0  0  0
  5 13  1  0  0  0  0
  5  2  1  0  0  0  0
  6  8  1  0  0  0  0
  6  7  1  1  0  0  0
  9  8  1  0  0  0  0
  9 31  1  1  0  0  0
 10 20  1  1  0  0  0
 10  1  1  0  0  0  0
 13  6  1  0  0  0  0
 14 12  1  0  0  0  0
 14 11  2  0  0  0  0
 16 15  1  0  0  0  0
 16 17  1  0  0  0  0
 17 18  1  0  0  0  0
 18 19  1  0  0  0  0
 20 26  1  0  0  0  0
 22 21  1  0  0  0  0
 23 25  1  0  0  0  0
 24 23  2  0  0  0  0
 24 26  1  0  0  0  0
 25 28  1  0  0  0  0
 25 21  2  0  0  0  0
 26 22  2  0  0  0  0
 27 24  1  0  0  0  0
 28 29  2  0  0  0  0
 30 28  2  0  0  0  0
 31 32  1  0  0  0  0
 32 34  1  0  0  0  0
 33 32  1  0  0  0  0
 34 35  2  0  0  0  0
 35 36  1  0  0  0  0
 37 41  1  0  0  0  0
 37 36  1  0  0  0  0
 38 37  2  0  0  0  0
 39 41  1  0  0  0  0
 40 38  1  0  0  0  0
 40 39  2  0  0  0  0
 42 46  2  0  0  0  0
 43 42  1  0  0  0  0
 45 39  1  0  0  0  0
 45 44  1  0  0  0  0
 46 44  1  0  0  0  0
 47 45  1  0  0  0  0
 47 43  1  0  0  0  0
M  END
>  <MODEL>
9

>  <REMARK>
 VINA RESULT:      -6.5      1.766      2.199
  Name = 
  13 active torsions:
  status: ('A' for Active; 'I' for Inactive)
    1  A    between atoms: N_2  and  C_34
    2  A    between atoms: C_4  and  C_21
    3  A    between atoms: C_5  and  C_18
    4  A    between atoms: C_6  and  C_7
    5  A    between atoms: C_7  and  C_11
    6  A    between atoms: O_14  and  C_20
    7  A    between atoms: C_18  and  C_32
    8  A    between atoms: C_20  and  C_30
    9  A    between atoms: C_21  and  C_30
   10  A    between atoms: C_22  and  C_29
   11  A    between atoms: O_31  and  C_37
   12  A    between atoms: O_31  and  C_40
   13  A    between atoms: C_32  and  C_35
                            x       y       z     vdW  Elec       q    Type
                         _______ _______ _______ _____ _____    ______ ____

>  <TORSDO>
F 13

$$$$
