=
 OpenBabel11042414293D

 52 57  0  0  1  0  0  0  0  0999 V2000
  194.9620  173.2740  144.0210 C   0  0  0  0  0  0  0  0  0  0  0  0
  196.4450  170.5510  146.1270 C   0  0  0  0  0  2  0  0  0  0  0  0
  192.9110  174.4670  140.9860 C   0  0  0  0  0  1  0  0  0  0  0  0
  194.1780  169.8130  145.2880 C   0  0  1  0  0  3  0  0  0  0  0  0
  195.1280  169.8730  146.4940 C   0  0  1  0  0  3  0  0  0  0  0  0
  193.7010  173.6620  143.2960 C   0  0  0  0  0  2  0  0  0  0  0  0
  193.8200  171.2320  144.8400 C   0  0  0  0  0  2  0  0  0  0  0  0
  196.1950  171.8540  145.5220 N   0  0  0  0  0  2  0  0  0  0  0  0
  196.2370  174.9050  142.6840 C   0  0  0  0  0  0  0  0  0  0  0  0
  193.9950  174.3610  141.9970 C   0  0  0  0  0  0  0  0  0  0  0  0
  195.0240  172.1400  144.7380 C   0  0  0  0  0  0  0  0  0  0  0  0
  196.1050  174.2470  144.0280 C   0  0  1  0  0  3  0  0  0  0  0  0
  195.1380  174.9320  141.7650 N   0  0  0  0  0  0  0  0  0  0  0  0
  197.3280  175.4430  142.3590 O   0  0  0  0  0  0  0  0  0  0  0  0
  193.9910  168.2960  143.2970 C   0  0  0  0  0  3  0  0  0  0  0  0
  194.7420  169.0180  144.1390 C   0  0  0  0  0  3  0  0  0  0  0  0
  192.4960  168.1810  143.3970 C   0  0  0  0  0  2  0  0  0  0  0  0
  191.8350  168.2250  142.0270 C   0  0  0  0  0  2  0  0  0  0  0  0
  192.6070  170.8880  141.4520 O   0  0  0  0  0  0  0  0  0  0  0  0
  191.3840  170.6820  141.6760 C   0  0  0  0  0  0  0  0  0  0  0  0
  190.9220  169.3570  141.9420 N   0  0  0  0  0  2  0  0  0  0  0  0
  188.3940  174.1600  139.4720 S   0  0  0  0  0  0  0  0  0  0  0  0
  189.9580  172.3110  140.4930 N   0  0  0  0  0  0  0  0  0  0  0  0
  189.9940  172.5050  142.8030 C   0  0  1  0  0  3  0  0  0  0  0  0
  188.9630  173.7390  142.3140 S   0  0  0  0  0  0  0  0  0  0  0  0
  190.4460  171.8220  141.6670 C   0  0  0  0  0  0  0  0  0  0  0  0
  190.3450  172.2310  144.2250 C   0  0  0  0  0  1  0  0  0  0  0  0
  189.1320  173.3600  140.6900 C   0  0  0  0  0  0  0  0  0  0  0  0
  195.3330  168.5230  147.1770 C   0  0  0  0  0  2  0  0  0  0  0  0
  196.6850  168.2820  147.4290 O   0  0  0  0  0  1  0  0  0  0  0  0
  195.8910  175.2790  145.1310 C   0  0  0  0  0  2  0  0  0  0  0  0
  195.4460  176.5560  144.5750 N   0  0  0  0  0  0  0  0  0  0  0  0
  194.1560  177.0080  145.0860 C   0  0  2  0  0  3  0  0  0  0  0  0
  195.3240  177.4480  145.6290 O   0  0  0  0  0  0  0  0  0  0  0  0
  193.4600  176.0850  146.0940 C   0  0  0  0  0  2  0  0  0  0  0  0
  189.7880  175.2640  146.4990 C   0  0  0  0  0  0  0  0  0  0  0  0
  191.4200  176.7640  144.7960 C   0  0  0  0  0  3  0  0  0  0  0  0
  189.0090  174.5400  147.3410 F   0  0  0  0  0  0  0  0  0  0  0  0
  191.1710  175.2950  146.6990 C   0  0  0  0  0  3  0  0  0  0  0  0
  190.0380  176.7290  144.5910 C   0  0  0  0  0  3  0  0  0  0  0  0
  191.9900  176.0370  145.8460 C   0  0  0  0  0  0  0  0  0  0  0  0
  189.2100  175.9820  145.4420 C   0  0  0  0  0  0  0  0  0  0  0  0
  187.7860  175.9210  145.2520 N   0  0  0  0  0  2  0  0  0  0  0  0
  184.6240  179.5250  144.9550 C   0  0  0  0  0  3  0  0  0  0  0  0
  185.4750  176.8040  142.9220 O   0  0  0  0  0  0  0  0  0  0  0  0
  187.6140  178.0150  142.8600 O   0  0  0  0  0  0  0  0  0  0  0  0
  185.1390  177.9250  146.8430 C   0  0  0  0  0  2  0  0  0  0  0  0
  186.8570  177.0130  145.1980 C   0  0  1  0  0  3  0  0  0  0  0  0
  184.0790  178.5430  145.9810 C   0  0  0  0  0  2  0  0  0  0  0  0
  186.3820  177.7360  143.6760 S   0  0  0  0  0  0  0  0  0  0  0  0
  186.0880  177.3590  146.1750 C   0  0  0  0  0  2  0  0  0  0  0  0
  185.5370  179.2780  143.9840 C   0  0  0  0  0  3  0  0  0  0  0  0
  1 12  1  0  0  0  0
  1 11  2  0  0  0  0
  2  5  1  0  0  0  0
  3 10  1  0  0  0  0
  4 16  1  6  0  0  0
  4  5  1  0  0  0  0
  5 29  1  6  0  0  0
  6  1  1  0  0  0  0
  7  4  1  0  0  0  0
  8  2  1  0  0  0  0
  9 12  1  0  0  0  0
 10  6  1  0  0  0  0
 11  7  1  0  0  0  0
 11  8  1  0  0  0  0
 12 31  1  1  0  0  0
 13 10  2  0  0  0  0
 13  9  1  0  0  0  0
 14  9  2  0  0  0  0
 15 17  1  0  0  0  0
 15 16  2  0  0  0  0
 18 17  1  0  0  0  0
 19 20  2  0  0  0  0
 20 21  1  0  0  0  0
 21 18  1  0  0  0  0
 22 28  2  0  0  0  0
 23 28  1  0  0  0  0
 23 26  2  0  0  0  0
 24 27  1  6  0  0  0
 25 24  1  0  0  0  0
 26 20  1  0  0  0  0
 26 24  1  0  0  0  0
 28 25  1  0  0  0  0
 29 30  1  0  0  0  0
 32 33  1  0  0  0  0
 32 31  1  0  0  0  0
 32 34  1  0  0  0  0
 33 34  1  0  0  0  0
 33 35  1  1  0  0  0
 36 39  1  0  0  0  0
 36 38  1  0  0  0  0
 37 41  1  0  0  0  0
 40 37  2  0  0  0  0
 40 42  1  0  0  0  0
 41 35  1  0  0  0  0
 41 39  2  0  0  0  0
 42 36  2  0  0  0  0
 43 42  1  0  0  0  0
 44 49  1  0  0  0  0
 45 50  2  0  0  0  0
 46 50  2  0  0  0  0
 48 43  1  6  0  0  0
 48 51  1  0  0  0  0
 49 47  1  0  0  0  0
 50 52  1  0  0  0  0
 50 48  1  0  0  0  0
 51 47  1  0  0  0  0
 52 44  2  0  0  0  0
M  END
>  <MODEL>
1

>  <REMARK>
 VINA RESULT:      -8.2      0.000      0.000
  Name = 
  12 active torsions:
  status: ('A' for Active; 'I' for Inactive)
    1  A    between atoms: N_6  and  C_19
    2  A    between atoms: C_8  and  C_21
    3  A    between atoms: C_11  and  C_47
    4  A    between atoms: C_12  and  C_15
    5  A    between atoms: C_15  and  C_45
    6  A    between atoms: C_18  and  C_29
    7  A    between atoms: C_19  and  C_41
    8  A    between atoms: C_20  and  C_21
    9  A    between atoms: C_20  and  N_30
   10  A    between atoms: C_23  and  C_25
   11  A    between atoms: N_33  and  C_34
   12  A    between atoms: N_33  and  C_49
                            x       y       z     vdW  Elec       q    Type
                         _______ _______ _______ _____ _____    ______ ____

>  <TORSDO>
F 12

$$$$
=
 OpenBabel11042414293D

 52 57  0  0  1  0  0  0  0  0999 V2000
  188.6070  174.8290  142.1590 C   0  0  0  0  0  0  0  0  0  0  0  0
  186.7250  177.6090  140.4920 C   0  0  0  0  0  2  0  0  0  0  0  0
  190.1210  173.1690  145.2880 C   0  0  0  0  0  1  0  0  0  0  0  0
  185.7110  177.1630  142.7640 C   0  0  1  0  0  3  0  0  0  0  0  0
  185.4290  177.4430  141.2800 C   0  0  1  0  0  3  0  0  0  0  0  0
  188.5880  173.9440  143.3770 C   0  0  0  0  0  2  0  0  0  0  0  0
  186.4720  175.8420  142.9050 C   0  0  0  0  0  2  0  0  0  0  0  0
  187.6020  176.4630  140.7080 N   0  0  0  0  0  2  0  0  0  0  0  0
  190.9890  174.3020  141.8100 C   0  0  0  0  0  0  0  0  0  0  0  0
  189.9720  173.6860  143.9030 C   0  0  0  0  0  0  0  0  0  0  0  0
  187.6260  175.7190  141.9370 C   0  0  0  0  0  0  0  0  0  0  0  0
  189.6820  174.6050  141.1350 C   0  0  1  0  0  3  0  0  0  0  0  0
  191.0300  173.8320  143.1630 N   0  0  0  0  0  0  0  0  0  0  0  0
  192.0670  174.4630  141.1790 O   0  0  0  0  0  0  0  0  0  0  0  0
  186.5810  178.4000  144.7680 C   0  0  0  0  0  3  0  0  0  0  0  0
  186.4600  178.2830  143.4380 C   0  0  0  0  0  3  0  0  0  0  0  0
  185.9800  177.4360  145.7510 C   0  0  0  0  0  2  0  0  0  0  0  0
  186.9930  176.9930  146.7960 C   0  0  0  0  0  2  0  0  0  0  0  0
  189.4960  178.0630  147.5770 O   0  0  0  0  0  0  0  0  0  0  0  0
  189.4910  177.2780  146.5900 C   0  0  0  0  0  0  0  0  0  0  0  0
  188.2670  176.6780  146.1640 N   0  0  0  0  0  2  0  0  0  0  0  0
  194.2870  175.6130  146.2390 S   0  0  0  0  0  0  0  0  0  0  0  0
  191.8070  176.4280  146.5430 N   0  0  0  0  0  0  0  0  0  0  0  0
  191.0130  177.2830  144.5390 C   0  0  1  0  0  3  0  0  0  0  0  0
  192.5850  176.8110  144.1780 S   0  0  0  0  0  0  0  0  0  0  0  0
  190.7570  176.9950  145.8860 C   0  0  0  0  0  0  0  0  0  0  0  0
  190.0870  177.9090  143.5550 C   0  0  0  0  0  1  0  0  0  0  0  0
  192.8770  176.2650  145.7360 C   0  0  0  0  0  0  0  0  0  0  0  0
  184.4510  178.5940  141.0520 C   0  0  0  0  0  2  0  0  0  0  0  0
  183.3140  178.1650  140.3660 O   0  0  0  0  0  1  0  0  0  0  0  0
  189.2680  173.4740  140.1990 C   0  0  0  0  0  2  0  0  0  0  0  0
  189.9490  173.5840  138.9100 N   0  0  0  0  0  0  0  0  0  0  0  0
  190.6950  172.3880  138.5300 C   0  0  2  0  0  3  0  0  0  0  0  0
  189.4290  172.6020  138.0810 O   0  0  0  0  0  0  0  0  0  0  0  0
  190.6750  171.2240  139.5300 C   0  0  0  0  0  2  0  0  0  0  0  0
  194.4000  171.3290  140.1880 C   0  0  0  0  0  0  0  0  0  0  0  0
  192.0500  170.6990  141.5640 C   0  0  0  0  0  3  0  0  0  0  0  0
  195.5300  171.6480  139.5090 F   0  0  0  0  0  0  0  0  0  0  0  0
  193.1630  171.4160  139.5420 C   0  0  0  0  0  3  0  0  0  0  0  0
  193.2860  170.6060  142.2090 C   0  0  0  0  0  3  0  0  0  0  0  0
  191.9880  171.0950  140.2240 C   0  0  0  0  0  0  0  0  0  0  0  0
  194.4710  170.9230  141.5280 C   0  0  0  0  0  0  0  0  0  0  0  0
  195.7570  170.8300  142.1630 N   0  0  0  0  0  2  0  0  0  0  0  0
  197.6010  173.9440  145.3210 C   0  0  0  0  0  3  0  0  0  0  0  0
  194.8900  173.9780  143.1060 O   0  0  0  0  0  0  0  0  0  0  0  0
  196.7180  173.7860  141.4740 O   0  0  0  0  0  0  0  0  0  0  0  0
  197.0300  171.4930  145.5530 C   0  0  0  0  0  2  0  0  0  0  0  0
  196.3390  171.7340  143.1130 C   0  0  1  0  0  3  0  0  0  0  0  0
  196.8850  172.8710  146.1270 C   0  0  0  0  0  2  0  0  0  0  0  0
  196.2850  173.4680  142.8780 S   0  0  0  0  0  0  0  0  0  0  0  0
  196.6730  171.4050  144.3150 C   0  0  0  0  0  2  0  0  0  0  0  0
  197.4080  174.2610  144.0170 C   0  0  0  0  0  3  0  0  0  0  0  0
  1  6  1  0  0  0  0
  2  8  1  0  0  0  0
  2  5  1  0  0  0  0
  4  7  1  0  0  0  0
  4 16  1  6  0  0  0
  5 29  1  1  0  0  0
  5  4  1  0  0  0  0
  6 10  1  0  0  0  0
  8 11  1  0  0  0  0
  9 13  1  0  0  0  0
 10  3  1  0  0  0  0
 11  1  2  0  0  0  0
 11  7  1  0  0  0  0
 12 31  1  6  0  0  0
 12  9  1  0  0  0  0
 12  1  1  0  0  0  0
 13 10  2  0  0  0  0
 14  9  2  0  0  0  0
 15 17  1  0  0  0  0
 16 15  2  0  0  0  0
 17 18  1  0  0  0  0
 20 19  2  0  0  0  0
 21 20  1  0  0  0  0
 21 18  1  0  0  0  0
 24 27  1  1  0  0  0
 24 26  1  0  0  0  0
 25 24  1  0  0  0  0
 25 28  1  0  0  0  0
 26 23  2  0  0  0  0
 26 20  1  0  0  0  0
 28 22  2  0  0  0  0
 28 23  1  0  0  0  0
 30 29  1  0  0  0  0
 32 31  1  0  0  0  0
 33 32  1  0  0  0  0
 33 35  1  1  0  0  0
 34 33  1  0  0  0  0
 34 32  1  0  0  0  0
 35 41  1  0  0  0  0
 36 42  1  0  0  0  0
 37 40  1  0  0  0  0
 38 36  1  0  0  0  0
 39 36  2  0  0  0  0
 39 41  1  0  0  0  0
 41 37  2  0  0  0  0
 42 43  1  0  0  0  0
 42 40  2  0  0  0  0
 44 49  1  0  0  0  0
 46 50  2  0  0  0  0
 47 49  1  0  0  0  0
 48 43  1  1  0  0  0
 48 51  1  0  0  0  0
 50 45  2  0  0  0  0
 50 48  1  0  0  0  0
 50 52  1  0  0  0  0
 51 47  1  0  0  0  0
 52 44  2  0  0  0  0
M  END
>  <MODEL>
2

>  <REMARK>
 VINA RESULT:      -7.7      3.340      9.862
  Name = 
  12 active torsions:
  status: ('A' for Active; 'I' for Inactive)
    1  A    between atoms: N_6  and  C_19
    2  A    between atoms: C_8  and  C_21
    3  A    between atoms: C_11  and  C_47
    4  A    between atoms: C_12  and  C_15
    5  A    between atoms: C_15  and  C_45
    6  A    between atoms: C_18  and  C_29
    7  A    between atoms: C_19  and  C_41
    8  A    between atoms: C_20  and  C_21
    9  A    between atoms: C_20  and  N_30
   10  A    between atoms: C_23  and  C_25
   11  A    between atoms: N_33  and  C_34
   12  A    between atoms: N_33  and  C_49
                            x       y       z     vdW  Elec       q    Type
                         _______ _______ _______ _____ _____    ______ ____

>  <TORSDO>
F 12

$$$$
=
 OpenBabel11042414293D

 52 57  0  0  1  0  0  0  0  0999 V2000
  192.9550  175.2320  141.9660 C   0  0  0  0  0  0  0  0  0  0  0  0
  196.1230  175.7640  140.0340 C   0  0  0  0  0  2  0  0  0  0  0  0
  189.1700  174.5400  142.1320 C   0  0  0  0  0  1  0  0  0  0  0  0
  194.7260  174.0060  138.8750 C   0  0  1  0  0  3  0  0  0  0  0  0
  196.1350  174.4060  139.3370 C   0  0  1  0  0  3  0  0  0  0  0  0
  191.7300  174.3580  142.0240 C   0  0  0  0  0  2  0  0  0  0  0  0
  193.8060  173.8560  140.0890 C   0  0  0  0  0  2  0  0  0  0  0  0
  195.1360  175.7740  141.1090 N   0  0  0  0  0  2  0  0  0  0  0  0
  191.8090  176.9340  143.3320 C   0  0  0  0  0  0  0  0  0  0  0  0
  190.5020  175.1400  142.3990 C   0  0  0  0  0  0  0  0  0  0  0  0
  193.9230  175.0060  141.0640 C   0  0  0  0  0  0  0  0  0  0  0  0
  193.1270  176.2840  143.0240 C   0  0  1  0  0  3  0  0  0  0  0  0
  190.5730  176.2840  143.0100 N   0  0  0  0  0  0  0  0  0  0  0  0
  191.7860  178.0660  143.8820 O   0  0  0  0  0  0  0  0  0  0  0  0
  193.7750  174.6290  136.6370 C   0  0  0  0  0  3  0  0  0  0  0  0
  194.1400  174.9740  137.8790 C   0  0  0  0  0  3  0  0  0  0  0  0
  193.9100  173.2410  136.0790 C   0  0  0  0  0  2  0  0  0  0  0  0
  192.5530  172.6120  135.7990 C   0  0  0  0  0  2  0  0  0  0  0  0
  189.8070  171.9790  136.0730 O   0  0  0  0  0  0  0  0  0  0  0  0
  190.1200  173.2000  136.1090 C   0  0  0  0  0  0  0  0  0  0  0  0
  191.4910  173.5860  136.0090 N   0  0  0  0  0  2  0  0  0  0  0  0
  187.2720  177.1220  134.5600 S   0  0  0  0  0  0  0  0  0  0  0  0
  188.7970  175.0930  135.2410 N   0  0  0  0  0  0  0  0  0  0  0  0
  188.2540  174.3910  137.3830 C   0  0  1  0  0  3  0  0  0  0  0  0
  187.2030  175.6720  137.1030 S   0  0  0  0  0  0  0  0  0  0  0  0
  189.0570  174.2150  136.2490 C   0  0  0  0  0  0  0  0  0  0  0  0
  188.2920  173.6110  138.6510 C   0  0  0  0  0  1  0  0  0  0  0  0
  187.8060  175.9510  135.5640 C   0  0  0  0  0  0  0  0  0  0  0  0
  197.1860  174.3240  138.2320 C   0  0  0  0  0  2  0  0  0  0  0  0
  197.3690  175.5610  137.6120 O   0  0  0  0  0  1  0  0  0  0  0  0
  193.7400  175.6570  144.2730 C   0  0  0  0  0  2  0  0  0  0  0  0
  194.1110  176.6820  145.2470 N   0  0  0  0  0  0  0  0  0  0  0  0
  193.6250  176.4190  146.5980 C   0  0  2  0  0  3  0  0  0  0  0  0
  194.8850  176.0700  146.2200 O   0  0  0  0  0  0  0  0  0  0  0  0
  192.7950  175.1430  146.7890 C   0  0  0  0  0  2  0  0  0  0  0  0
  189.4890  176.9660  147.0470 C   0  0  0  0  0  0  0  0  0  0  0  0
  190.4590  174.5180  146.1100 C   0  0  0  0  0  3  0  0  0  0  0  0
  189.0360  178.1620  147.4980 F   0  0  0  0  0  0  0  0  0  0  0  0
  190.8490  176.6620  147.1560 C   0  0  0  0  0  3  0  0  0  0  0  0
  189.0980  174.8180  146.0070 C   0  0  0  0  0  3  0  0  0  0  0  0
  191.3360  175.4370  146.6950 C   0  0  0  0  0  0  0  0  0  0  0  0
  188.6020  176.0450  146.4720 C   0  0  0  0  0  0  0  0  0  0  0  0
  187.2070  176.3790  146.3850 N   0  0  0  0  0  2  0  0  0  0  0  0
  184.9080  178.7060  142.8680 C   0  0  0  0  0  3  0  0  0  0  0  0
  185.7540  179.4450  146.1840 O   0  0  0  0  0  0  0  0  0  0  0  0
  184.2500  177.5420  146.5850 O   0  0  0  0  0  0  0  0  0  0  0  0
  187.1100  177.4660  142.8690 C   0  0  0  0  0  2  0  0  0  0  0  0
  186.5230  177.0410  145.3110 C   0  0  1  0  0  3  0  0  0  0  0  0
  186.3880  178.7330  142.5200 C   0  0  0  0  0  2  0  0  0  0  0  0
  185.2140  178.1640  145.6130 S   0  0  0  0  0  0  0  0  0  0  0  0
  186.9690  177.1100  144.1030 C   0  0  0  0  0  2  0  0  0  0  0  0
  184.3520  178.5020  144.0870 C   0  0  0  0  0  3  0  0  0  0  0  0
  1  6  1  0  0  0  0
  1 12  1  0  0  0  0
  2  8  1  0  0  0  0
  3 10  1  0  0  0  0
  4 16  1  6  0  0  0
  4  5  1  0  0  0  0
  4  7  1  0  0  0  0
  5 29  1  6  0  0  0
  5  2  1  0  0  0  0
  6 10  1  0  0  0  0
  7 11  1  0  0  0  0
  9 14  2  0  0  0  0
 10 13  2  0  0  0  0
 11  8  1  0  0  0  0
 11  1  2  0  0  0  0
 12  9  1  0  0  0  0
 12 31  1  1  0  0  0
 13  9  1  0  0  0  0
 15 16  2  0  0  0  0
 17 15  1  0  0  0  0
 18 21  1  0  0  0  0
 18 17  1  0  0  0  0
 19 20  2  0  0  0  0
 20 26  1  0  0  0  0
 21 20  1  0  0  0  0
 22 28  2  0  0  0  0
 23 28  1  0  0  0  0
 23 26  2  0  0  0  0
 24 27  1  1  0  0  0
 25 24  1  0  0  0  0
 26 24  1  0  0  0  0
 28 25  1  0  0  0  0
 30 29  1  0  0  0  0
 31 32  1  0  0  0  0
 32 34  1  0  0  0  0
 32 33  1  0  0  0  0
 33 35  1  6  0  0  0
 34 33  1  0  0  0  0
 36 39  1  0  0  0  0
 36 38  1  0  0  0  0
 37 41  1  0  0  0  0
 40 37  2  0  0  0  0
 40 42  1  0  0  0  0
 41 35  1  0  0  0  0
 41 39  2  0  0  0  0
 42 36  2  0  0  0  0
 43 42  1  0  0  0  0
 44 52  2  0  0  0  0
 47 51  1  0  0  0  0
 48 50  1  0  0  0  0
 48 43  1  1  0  0  0
 49 44  1  0  0  0  0
 49 47  1  0  0  0  0
 50 45  2  0  0  0  0
 50 46  2  0  0  0  0
 51 48  1  0  0  0  0
 52 50  1  0  0  0  0
M  END
>  <MODEL>
3

>  <REMARK>
 VINA RESULT:      -7.6      3.858      5.424
  Name = 
  12 active torsions:
  status: ('A' for Active; 'I' for Inactive)
    1  A    between atoms: N_6  and  C_19
    2  A    between atoms: C_8  and  C_21
    3  A    between atoms: C_11  and  C_47
    4  A    between atoms: C_12  and  C_15
    5  A    between atoms: C_15  and  C_45
    6  A    between atoms: C_18  and  C_29
    7  A    between atoms: C_19  and  C_41
    8  A    between atoms: C_20  and  C_21
    9  A    between atoms: C_20  and  N_30
   10  A    between atoms: C_23  and  C_25
   11  A    between atoms: N_33  and  C_34
   12  A    between atoms: N_33  and  C_49
                            x       y       z     vdW  Elec       q    Type
                         _______ _______ _______ _____ _____    ______ ____

>  <TORSDO>
F 12

$$$$
=
 OpenBabel11042414293D

 52 57  0  0  1  0  0  0  0  0999 V2000
  194.0890  173.3770  144.4890 C   0  0  0  0  0  0  0  0  0  0  0  0
  196.6350  170.7620  145.3470 C   0  0  0  0  0  2  0  0  0  0  0  0
  191.0010  174.5750  142.5230 C   0  0  0  0  0  1  0  0  0  0  0  0
  194.3930  169.6530  144.9800 C   0  0  1  0  0  3  0  0  0  0  0  0
  195.6480  169.7180  145.8630 C   0  0  1  0  0  3  0  0  0  0  0  0
  192.6150  173.5670  144.2500 C   0  0  0  0  0  2  0  0  0  0  0  0
  193.6590  170.9960  145.0250 C   0  0  0  0  0  2  0  0  0  0  0  0
  195.9720  172.0520  145.1880 N   0  0  0  0  0  2  0  0  0  0  0  0
  194.5540  175.5010  143.3290 C   0  0  0  0  0  0  0  0  0  0  0  0
  192.3490  174.5530  143.1460 C   0  0  0  0  0  0  0  0  0  0  0  0
  194.5820  172.1800  144.8450 C   0  0  0  0  0  0  0  0  0  0  0  0
  194.9780  174.5860  144.4420 C   0  0  1  0  0  3  0  0  0  0  0  0
  193.2360  175.4270  142.7740 N   0  0  0  0  0  0  0  0  0  0  0  0
  195.3690  176.3480  142.8760 O   0  0  0  0  0  0  0  0  0  0  0  0
  193.7920  168.7360  142.7220 C   0  0  0  0  0  3  0  0  0  0  0  0
  194.6990  169.2620  143.5570 C   0  0  0  0  0  3  0  0  0  0  0  0
  192.3640  168.4650  143.1000 C   0  0  0  0  0  2  0  0  0  0  0  0
  191.5040  168.1740  141.8790 C   0  0  0  0  0  2  0  0  0  0  0  0
  190.2460  170.6670  142.3450 O   0  0  0  0  0  0  0  0  0  0  0  0
  190.8480  170.5260  141.2460 C   0  0  0  0  0  0  0  0  0  0  0  0
  191.5300  169.3040  140.9610 N   0  0  0  0  0  2  0  0  0  0  0  0
  188.6580  173.6820  137.9080 S   0  0  0  0  0  0  0  0  0  0  0  0
  189.6710  172.0060  139.6620 N   0  0  0  0  0  0  0  0  0  0  0  0
  191.9540  172.3600  139.8540 C   0  0  1  0  0  3  0  0  0  0  0  0
  191.4680  173.4960  138.7150 S   0  0  0  0  0  0  0  0  0  0  0  0
  190.8320  171.6300  140.2660 C   0  0  0  0  0  0  0  0  0  0  0  0
  193.3620  172.1920  140.3100 C   0  0  0  0  0  1  0  0  0  0  0  0
  189.8630  173.0160  138.7880 C   0  0  0  0  0  0  0  0  0  0  0  0
  196.3030  168.3570  146.0940 C   0  0  0  0  0  2  0  0  0  0  0  0
  197.6810  168.4150  145.8850 O   0  0  0  0  0  1  0  0  0  0  0  0
  194.9400  175.3000  145.7900 C   0  0  0  0  0  2  0  0  0  0  0  0
  194.5330  176.6950  145.6320 N   0  0  0  0  0  0  0  0  0  0  0  0
  193.2190  176.9950  146.1930 C   0  0  2  0  0  3  0  0  0  0  0  0
  194.3570  177.2220  146.9030 O   0  0  0  0  0  0  0  0  0  0  0  0
  192.4640  175.8210  146.8300 C   0  0  0  0  0  2  0  0  0  0  0  0
  189.1120  177.2300  145.7810 C   0  0  0  0  0  0  0  0  0  0  0  0
  190.1060  175.0570  147.2320 C   0  0  0  0  0  3  0  0  0  0  0  0
  188.6470  178.2840  145.0660 F   0  0  0  0  0  0  0  0  0  0  0  0
  190.4910  177.0720  145.9540 C   0  0  0  0  0  3  0  0  0  0  0  0
  188.7280  175.2170  147.0650 C   0  0  0  0  0  3  0  0  0  0  0  0
  190.9900  175.9920  146.6840 C   0  0  0  0  0  0  0  0  0  0  0  0
  188.2190  176.3030  146.3360 C   0  0  0  0  0  0  0  0  0  0  0  0
  186.8070  176.4970  146.1540 N   0  0  0  0  0  2  0  0  0  0  0  0
  184.5170  177.9100  142.1750 C   0  0  0  0  0  3  0  0  0  0  0  0
  185.9020  179.5420  144.9450 O   0  0  0  0  0  0  0  0  0  0  0  0
  184.1520  178.2530  146.0940 O   0  0  0  0  0  0  0  0  0  0  0  0
  186.4480  176.3110  142.4950 C   0  0  0  0  0  2  0  0  0  0  0  0
  186.1170  176.8800  144.9560 C   0  0  1  0  0  3  0  0  0  0  0  0
  185.9210  177.5040  141.7540 C   0  0  0  0  0  2  0  0  0  0  0  0
  185.0760  178.2870  144.9080 S   0  0  0  0  0  0  0  0  0  0  0  0
  186.4070  176.4360  143.7800 C   0  0  0  0  0  2  0  0  0  0  0  0
  184.0960  178.2560  143.4170 C   0  0  0  0  0  3  0  0  0  0  0  0
  1 11  2  0  0  0  0
  2  5  1  0  0  0  0
  3 10  1  0  0  0  0
  4 16  1  6  0  0  0
  4  7  1  0  0  0  0
  4  5  1  0  0  0  0
  5 29  1  6  0  0  0
  6  1  1  0  0  0  0
  8  2  1  0  0  0  0
  9 12  1  0  0  0  0
 10  6  1  0  0  0  0
 11  7  1  0  0  0  0
 11  8  1  0  0  0  0
 12  1  1  0  0  0  0
 12 31  1  1  0  0  0
 13 10  2  0  0  0  0
 13  9  1  0  0  0  0
 14  9  2  0  0  0  0
 15 17  1  0  0  0  0
 15 16  2  0  0  0  0
 18 17  1  0  0  0  0
 20 19  2  0  0  0  0
 21 20  1  0  0  0  0
 21 18  1  0  0  0  0
 22 28  2  0  0  0  0
 23 26  2  0  0  0  0
 24 26  1  0  0  0  0
 24 27  1  6  0  0  0
 25 28  1  0  0  0  0
 25 24  1  0  0  0  0
 26 20  1  0  0  0  0
 28 23  1  0  0  0  0
 30 29  1  0  0  0  0
 32 31  1  0  0  0  0
 32 33  1  0  0  0  0
 32 34  1  0  0  0  0
 33 35  1  1  0  0  0
 33 34  1  0  0  0  0
 36 39  2  0  0  0  0
 36 42  1  0  0  0  0
 38 36  1  0  0  0  0
 39 41  1  0  0  0  0
 40 37  1  0  0  0  0
 41 35  1  0  0  0  0
 41 37  2  0  0  0  0
 42 40  2  0  0  0  0
 43 42  1  0  0  0  0
 44 52  2  0  0  0  0
 47 51  1  0  0  0  0
 48 43  1  6  0  0  0
 49 44  1  0  0  0  0
 49 47  1  0  0  0  0
 50 45  2  0  0  0  0
 50 48  1  0  0  0  0
 50 46  2  0  0  0  0
 51 48  1  0  0  0  0
 52 50  1  0  0  0  0
M  END
>  <MODEL>
4

>  <REMARK>
 VINA RESULT:      -7.5      1.812      2.322
  Name = 
  12 active torsions:
  status: ('A' for Active; 'I' for Inactive)
    1  A    between atoms: N_6  and  C_19
    2  A    between atoms: C_8  and  C_21
    3  A    between atoms: C_11  and  C_47
    4  A    between atoms: C_12  and  C_15
    5  A    between atoms: C_15  and  C_45
    6  A    between atoms: C_18  and  C_29
    7  A    between atoms: C_19  and  C_41
    8  A    between atoms: C_20  and  C_21
    9  A    between atoms: C_20  and  N_30
   10  A    between atoms: C_23  and  C_25
   11  A    between atoms: N_33  and  C_34
   12  A    between atoms: N_33  and  C_49
                            x       y       z     vdW  Elec       q    Type
                         _______ _______ _______ _____ _____    ______ ____

>  <TORSDO>
F 12

$$$$
=
 OpenBabel11042414293D

 52 57  0  0  1  0  0  0  0  0999 V2000
  193.2580  175.0580  141.8530 C   0  0  0  0  0  0  0  0  0  0  0  0
  196.4480  175.7810  140.0230 C   0  0  0  0  0  2  0  0  0  0  0  0
  189.4940  174.2420  141.8980 C   0  0  0  0  0  1  0  0  0  0  0  0
  195.1340  174.0390  138.7480 C   0  0  1  0  0  3  0  0  0  0  0  0
  196.5180  174.4600  139.2610 C   0  0  1  0  0  3  0  0  0  0  0  0
  192.0610  174.1450  141.8410 C   0  0  0  0  0  2  0  0  0  0  0  0
  194.1930  173.8020  139.9320 C   0  0  0  0  0  2  0  0  0  0  0  0
  195.4390  175.7080  141.0740 N   0  0  0  0  0  2  0  0  0  0  0  0
  192.0290  176.6550  143.2720 C   0  0  0  0  0  0  0  0  0  0  0  0
  190.8010  174.8690  142.2240 C   0  0  0  0  0  0  0  0  0  0  0  0
  194.2520  174.9060  140.9630 C   0  0  0  0  0  0  0  0  0  0  0  0
  193.3740  176.0620  142.9640 C   0  0  1  0  0  3  0  0  0  0  0  0
  190.8220  175.9840  142.8920 N   0  0  0  0  0  0  0  0  0  0  0  0
  191.9590  177.7580  143.8750 O   0  0  0  0  0  0  0  0  0  0  0  0
  193.9830  174.6960  136.6150 C   0  0  0  0  0  3  0  0  0  0  0  0
  194.5380  175.0360  137.7870 C   0  0  0  0  0  3  0  0  0  0  0  0
  193.8910  173.2840  136.1110 C   0  0  0  0  0  2  0  0  0  0  0  0
  192.4500  172.7960  136.0640 C   0  0  0  0  0  2  0  0  0  0  0  0
  191.0060  173.0580  138.4850 O   0  0  0  0  0  0  0  0  0  0  0  0
  191.5310  171.9360  138.2500 C   0  0  0  0  0  0  0  0  0  0  0  0
  192.2470  171.7270  137.0310 N   0  0  0  0  0  2  0  0  0  0  0  0
  192.4650  169.6380  142.6920 S   0  0  0  0  0  0  0  0  0  0  0  0
  192.0490  170.9280  140.4410 N   0  0  0  0  0  0  0  0  0  0  0  0
  190.6540  169.6820  139.0710 C   0  0  1  0  0  3  0  0  0  0  0  0
  190.8140  168.7330  140.4490 S   0  0  0  0  0  0  0  0  0  0  0  0
  191.4010  170.8540  139.2450 C   0  0  0  0  0  0  0  0  0  0  0  0
  189.8440  169.2910  137.8830 C   0  0  0  0  0  1  0  0  0  0  0  0
  191.8220  169.8390  141.2050 C   0  0  0  0  0  0  0  0  0  0  0  0
  197.5960  174.4640  138.1780 C   0  0  0  0  0  2  0  0  0  0  0  0
  197.5970  175.6660  137.4690 O   0  0  0  0  0  1  0  0  0  0  0  0
  193.9790  175.3930  144.1950 C   0  0  0  0  0  2  0  0  0  0  0  0
  194.3200  176.3840  145.2150 N   0  0  0  0  0  0  0  0  0  0  0  0
  193.6790  176.1500  146.5050 C   0  0  2  0  0  3  0  0  0  0  0  0
  194.9420  175.7110  146.2550 O   0  0  0  0  0  0  0  0  0  0  0  0
  192.7430  174.9380  146.5930 C   0  0  0  0  0  2  0  0  0  0  0  0
  189.6950  177.0630  147.3130 C   0  0  0  0  0  0  0  0  0  0  0  0
  190.2850  174.5440  146.2550 C   0  0  0  0  0  3  0  0  0  0  0  0
  189.4270  178.2920  147.8190 F   0  0  0  0  0  0  0  0  0  0  0  0
  191.0220  176.6310  147.2280 C   0  0  0  0  0  3  0  0  0  0  0  0
  188.9580  174.9740  146.3450 C   0  0  0  0  0  3  0  0  0  0  0  0
  191.3200  175.3700  146.7070 C   0  0  0  0  0  0  0  0  0  0  0  0
  188.6520  176.2370  146.8710 C   0  0  0  0  0  0  0  0  0  0  0  0
  187.2970  176.7020  146.9830 N   0  0  0  0  0  2  0  0  0  0  0  0
  184.9350  179.5160  143.8880 C   0  0  0  0  0  3  0  0  0  0  0  0
  186.6440  176.4690  143.6560 O   0  0  0  0  0  0  0  0  0  0  0  0
  188.5220  177.9150  144.3070 O   0  0  0  0  0  0  0  0  0  0  0  0
  184.2880  178.6660  146.1790 C   0  0  0  0  0  2  0  0  0  0  0  0
  186.5860  177.5700  146.0890 C   0  0  1  0  0  3  0  0  0  0  0  0
  183.8850  178.8230  144.7430 C   0  0  0  0  0  2  0  0  0  0  0  0
  187.0350  177.7130  144.4020 S   0  0  0  0  0  0  0  0  0  0  0  0
  185.4260  178.0750  146.3390 C   0  0  0  0  0  2  0  0  0  0  0  0
  186.2180  179.1280  143.6830 C   0  0  0  0  0  3  0  0  0  0  0  0
  1 12  1  0  0  0  0
  2  8  1  0  0  0  0
  3 10  1  0  0  0  0
  4 16  1  6  0  0  0
  4  5  1  0  0  0  0
  4  7  1  0  0  0  0
  5 29  1  6  0  0  0
  5  2  1  0  0  0  0
  6  1  1  0  0  0  0
  6 10  1  0  0  0  0
  7 11  1  0  0  0  0
  9 14  2  0  0  0  0
 10 13  2  0  0  0  0
 11  8  1  0  0  0  0
 11  1  2  0  0  0  0
 12  9  1  0  0  0  0
 12 31  1  1  0  0  0
 13  9  1  0  0  0  0
 15 16  2  0  0  0  0
 17 15  1  0  0  0  0
 18 17  1  0  0  0  0
 18 21  1  0  0  0  0
 20 19  2  0  0  0  0
 20 26  1  0  0  0  0
 21 20  1  0  0  0  0
 23 28  1  0  0  0  0
 24 27  1  6  0  0  0
 24 26  1  0  0  0  0
 24 25  1  0  0  0  0
 25 28  1  0  0  0  0
 26 23  2  0  0  0  0
 28 22  2  0  0  0  0
 30 29  1  0  0  0  0
 31 32  1  0  0  0  0
 32 34  1  0  0  0  0
 32 33  1  0  0  0  0
 33 35  1  6  0  0  0
 34 33  1  0  0  0  0
 35 41  1  0  0  0  0
 36 38  1  0  0  0  0
 37 40  2  0  0  0  0
 37 41  1  0  0  0  0
 39 36  1  0  0  0  0
 40 42  1  0  0  0  0
 41 39  2  0  0  0  0
 42 43  1  0  0  0  0
 42 36  2  0  0  0  0
 44 49  1  0  0  0  0
 45 50  2  0  0  0  0
 46 50  2  0  0  0  0
 47 51  1  0  0  0  0
 48 51  1  0  0  0  0
 48 43  1  6  0  0  0
 49 47  1  0  0  0  0
 50 48  1  0  0  0  0
 52 44  2  0  0  0  0
 52 50  1  0  0  0  0
M  END
>  <MODEL>
5

>  <REMARK>
 VINA RESULT:      -7.3      3.103      5.025
  Name = 
  12 active torsions:
  status: ('A' for Active; 'I' for Inactive)
    1  A    between atoms: N_6  and  C_19
    2  A    between atoms: C_8  and  C_21
    3  A    between atoms: C_11  and  C_47
    4  A    between atoms: C_12  and  C_15
    5  A    between atoms: C_15  and  C_45
    6  A    between atoms: C_18  and  C_29
    7  A    between atoms: C_19  and  C_41
    8  A    between atoms: C_20  and  C_21
    9  A    between atoms: C_20  and  N_30
   10  A    between atoms: C_23  and  C_25
   11  A    between atoms: N_33  and  C_34
   12  A    between atoms: N_33  and  C_49
                            x       y       z     vdW  Elec       q    Type
                         _______ _______ _______ _____ _____    ______ ____

>  <TORSDO>
F 12

$$$$
=
 OpenBabel11042414293D

 52 57  0  0  1  0  0  0  0  0999 V2000
  194.6660  174.1570  142.7530 C   0  0  0  0  0  0  0  0  0  0  0  0
  195.1020  171.5680  145.4280 C   0  0  0  0  0  2  0  0  0  0  0  0
  194.8640  175.2900  139.0770 C   0  0  0  0  0  1  0  0  0  0  0  0
  194.2570  170.4550  143.3230 C   0  0  1  0  0  3  0  0  0  0  0  0
  194.1240  170.5490  144.8490 C   0  0  1  0  0  3  0  0  0  0  0  0
  194.1410  174.3440  141.3540 C   0  0  0  0  0  2  0  0  0  0  0  0
  193.8990  171.8010  142.6880 C   0  0  0  0  0  2  0  0  0  0  0  0
  194.9550  172.8530  144.7540 N   0  0  0  0  0  2  0  0  0  0  0  0
  195.9790  176.2320  142.5410 C   0  0  0  0  0  0  0  0  0  0  0  0
  194.9990  175.2860  140.5560 C   0  0  0  0  0  0  0  0  0  0  0  0
  194.5610  172.9730  143.3770 C   0  0  0  0  0  0  0  0  0  0  0  0
  195.1950  175.3600  143.4800 C   0  0  1  0  0  3  0  0  0  0  0  0
  195.7970  176.1420  141.1230 N   0  0  0  0  0  0  0  0  0  0  0  0
  196.8100  177.0560  143.0060 O   0  0  0  0  0  0  0  0  0  0  0  0
  195.8350  169.1070  141.9100 C   0  0  0  0  0  3  0  0  0  0  0  0
  195.6270  170.0060  142.8810 C   0  0  0  0  0  3  0  0  0  0  0  0
  194.7330  168.4300  141.1450 C   0  0  0  0  0  2  0  0  0  0  0  0
  194.3940  169.1790  139.8640 C   0  0  0  0  0  2  0  0  0  0  0  0
  193.5340  171.5510  138.5790 O   0  0  0  0  0  0  0  0  0  0  0  0
  192.6860  170.9440  139.2880 C   0  0  0  0  0  0  0  0  0  0  0  0
  193.0460  169.7240  139.9390 N   0  0  0  0  0  2  0  0  0  0  0  0
  188.8170  172.9800  141.8910 S   0  0  0  0  0  0  0  0  0  0  0  0
  190.8880  171.9350  140.6550 N   0  0  0  0  0  0  0  0  0  0  0  0
  190.3940  171.6470  138.4080 C   0  0  1  0  0  3  0  0  0  0  0  0
  188.9900  172.3160  139.0440 S   0  0  0  0  0  0  0  0  0  0  0  0
  191.3310  171.5110  139.4400 C   0  0  0  0  0  0  0  0  0  0  0  0
  190.5600  171.2710  136.9770 C   0  0  0  0  0  1  0  0  0  0  0  0
  189.6230  172.4030  140.5940 C   0  0  0  0  0  0  0  0  0  0  0  0
  194.2020  169.1960  145.5540 C   0  0  0  0  0  2  0  0  0  0  0  0
  193.1140  168.3870  145.2200 O   0  0  0  0  0  1  0  0  0  0  0  0
  194.0370  176.1260  144.1100 C   0  0  0  0  0  2  0  0  0  0  0  0
  194.4420  176.7480  145.3700 N   0  0  0  0  0  0  0  0  0  0  0  0
  193.8570  176.1250  146.5530 C   0  0  2  0  0  3  0  0  0  0  0  0
  195.0990  175.7820  146.1170 O   0  0  0  0  0  0  0  0  0  0  0  0
  192.9040  174.9490  146.3050 C   0  0  0  0  0  2  0  0  0  0  0  0
  189.8800  177.0170  147.2560 C   0  0  0  0  0  0  0  0  0  0  0  0
  190.4350  174.5220  146.1260 C   0  0  0  0  0  3  0  0  0  0  0  0
  189.6290  178.2360  147.7960 F   0  0  0  0  0  0  0  0  0  0  0  0
  191.2050  176.6070  147.0770 C   0  0  0  0  0  3  0  0  0  0  0  0
  189.1110  174.9290  146.3100 C   0  0  0  0  0  3  0  0  0  0  0  0
  191.4860  175.3580  146.5190 C   0  0  0  0  0  0  0  0  0  0  0  0
  188.8220  176.1810  146.8740 C   0  0  0  0  0  0  0  0  0  0  0  0
  187.4710  176.6240  147.0820 N   0  0  0  0  0  2  0  0  0  0  0  0
  184.8870  179.5020  144.2340 C   0  0  0  0  0  3  0  0  0  0  0  0
  186.4860  176.4130  143.8360 O   0  0  0  0  0  0  0  0  0  0  0  0
  188.4570  177.8100  144.2970 O   0  0  0  0  0  0  0  0  0  0  0  0
  184.4490  178.6650  146.5780 C   0  0  0  0  0  2  0  0  0  0  0  0
  186.6980  177.5110  146.2620 C   0  0  1  0  0  3  0  0  0  0  0  0
  183.9100  178.8350  145.1890 C   0  0  0  0  0  2  0  0  0  0  0  0
  186.9810  177.6460  144.5390 S   0  0  0  0  0  0  0  0  0  0  0  0
  185.5810  178.0450  146.6250 C   0  0  0  0  0  2  0  0  0  0  0  0
  186.1330  179.0820  143.9030 C   0  0  0  0  0  3  0  0  0  0  0  0
  1 11  2  0  0  0  0
  1 12  1  0  0  0  0
  3 10  1  0  0  0  0
  4 16  1  1  0  0  0
  4  5  1  0  0  0  0
  5  2  1  0  0  0  0
  5 29  1  1  0  0  0
  6  1  1  0  0  0  0
  7  4  1  0  0  0  0
  7 11  1  0  0  0  0
  8  2  1  0  0  0  0
  9 14  2  0  0  0  0
  9 12  1  0  0  0  0
 10 13  2  0  0  0  0
 10  6  1  0  0  0  0
 11  8  1  0  0  0  0
 12 31  1  6  0  0  0
 13  9  1  0  0  0  0
 15 16  2  0  0  0  0
 17 15  1  0  0  0  0
 18 21  1  0  0  0  0
 18 17  1  0  0  0  0
 19 20  2  0  0  0  0
 20 26  1  0  0  0  0
 20 21  1  0  0  0  0
 24 27  1  1  0  0  0
 24 25  1  0  0  0  0
 24 26  1  0  0  0  0
 25 28  1  0  0  0  0
 26 23  2  0  0  0  0
 28 23  1  0  0  0  0
 28 22  2  0  0  0  0
 30 29  1  0  0  0  0
 31 32  1  0  0  0  0
 32 34  1  0  0  0  0
 32 33  1  0  0  0  0
 33 35  1  6  0  0  0
 34 33  1  0  0  0  0
 35 41  1  0  0  0  0
 36 38  1  0  0  0  0
 37 40  2  0  0  0  0
 37 41  1  0  0  0  0
 39 36  1  0  0  0  0
 40 42  1  0  0  0  0
 41 39  2  0  0  0  0
 42 43  1  0  0  0  0
 42 36  2  0  0  0  0
 44 49  1  0  0  0  0
 45 50  2  0  0  0  0
 46 50  2  0  0  0  0
 47 51  1  0  0  0  0
 48 51  1  0  0  0  0
 48 43  1  6  0  0  0
 49 47  1  0  0  0  0
 50 48  1  0  0  0  0
 52 44  2  0  0  0  0
 52 50  1  0  0  0  0
M  END
>  <MODEL>
6

>  <REMARK>
 VINA RESULT:      -7.1      1.925      2.403
  Name = 
  12 active torsions:
  status: ('A' for Active; 'I' for Inactive)
    1  A    between atoms: N_6  and  C_19
    2  A    between atoms: C_8  and  C_21
    3  A    between atoms: C_11  and  C_47
    4  A    between atoms: C_12  and  C_15
    5  A    between atoms: C_15  and  C_45
    6  A    between atoms: C_18  and  C_29
    7  A    between atoms: C_19  and  C_41
    8  A    between atoms: C_20  and  C_21
    9  A    between atoms: C_20  and  N_30
   10  A    between atoms: C_23  and  C_25
   11  A    between atoms: N_33  and  C_34
   12  A    between atoms: N_33  and  C_49
                            x       y       z     vdW  Elec       q    Type
                         _______ _______ _______ _____ _____    ______ ____

>  <TORSDO>
F 12

$$$$
=
 OpenBabel11042414293D

 52 57  0  0  1  0  0  0  0  0999 V2000
  191.5960  172.4750  138.5370 C   0  0  0  0  0  0  0  0  0  0  0  0
  192.0390  171.1110  142.0000 C   0  0  0  0  0  2  0  0  0  0  0  0
  189.6910  174.6150  135.9620 C   0  0  0  0  0  1  0  0  0  0  0  0
  191.2050  173.4920  142.1440 C   0  0  1  0  0  3  0  0  0  0  0  0
  192.1930  172.4580  142.7020 C   0  0  1  0  0  3  0  0  0  0  0  0
  191.2710  173.7420  137.7910 C   0  0  0  0  0  2  0  0  0  0  0  0
  191.5010  173.7450  140.6630 C   0  0  0  0  0  2  0  0  0  0  0  0
  192.1320  171.2790  140.5540 N   0  0  0  0  0  2  0  0  0  0  0  0
  191.0310  171.1500  136.5380 C   0  0  0  0  0  0  0  0  0  0  0  0
  190.4160  173.4770  136.5830 C   0  0  0  0  0  0  0  0  0  0  0  0
  191.7000  172.4700  139.8760 C   0  0  0  0  0  0  0  0  0  0  0  0
  191.9260  171.2470  137.7400 C   0  0  1  0  0  3  0  0  0  0  0  0
  190.3510  172.3030  136.0280 N   0  0  0  0  0  0  0  0  0  0  0  0
  190.8740  170.0390  135.9670 O   0  0  0  0  0  0  0  0  0  0  0  0
  188.7300  173.9160  142.1290 C   0  0  0  0  0  3  0  0  0  0  0  0
  189.7650  173.0900  142.3380 C   0  0  0  0  0  3  0  0  0  0  0  0
  188.8750  175.3440  141.6840 C   0  0  0  0  0  2  0  0  0  0  0  0
  187.5530  175.9170  141.1940 C   0  0  0  0  0  2  0  0  0  0  0  0
  187.4940  178.5510  142.2330 O   0  0  0  0  0  0  0  0  0  0  0  0
  186.7810  177.6890  142.8150 C   0  0  0  0  0  0  0  0  0  0  0  0
  186.7400  176.3490  142.3230 N   0  0  0  0  0  2  0  0  0  0  0  0
  186.1170  178.6540  147.7670 S   0  0  0  0  0  0  0  0  0  0  0  0
  186.5870  178.1410  145.2320 N   0  0  0  0  0  0  0  0  0  0  0  0
  184.6360  178.3990  144.0070 C   0  0  1  0  0  3  0  0  0  0  0  0
  184.1710  178.7610  145.5810 S   0  0  0  0  0  0  0  0  0  0  0  0
  186.0000  178.0820  144.0050 C   0  0  0  0  0  0  0  0  0  0  0  0
  183.7080  178.4180  142.8420 C   0  0  0  0  0  1  0  0  0  0  0  0
  185.7100  178.5000  146.1930 C   0  0  0  0  0  0  0  0  0  0  0  0
  192.1520  172.3330  144.2240 C   0  0  0  0  0  2  0  0  0  0  0  0
  193.3120  171.7330  144.7160 O   0  0  0  0  0  1  0  0  0  0  0  0
  193.3960  171.2820  137.3330 C   0  0  0  0  0  2  0  0  0  0  0  0
  193.7290  172.5470  136.6770 N   0  0  0  0  0  0  0  0  0  0  0  0
  194.8010  173.2890  137.3330 C   0  0  2  0  0  3  0  0  0  0  0  0
  195.0530  172.4700  136.2760 O   0  0  0  0  0  0  0  0  0  0  0  0
  195.3930  172.6590  138.6000 C   0  0  0  0  0  2  0  0  0  0  0  0
  195.3750  173.9210  142.1670 C   0  0  0  0  0  0  0  0  0  0  0  0
  194.7840  174.8770  139.6070 C   0  0  0  0  0  3  0  0  0  0  0  0
  195.6750  173.4450  143.4010 F   0  0  0  0  0  0  0  0  0  0  0  0
  195.5110  173.0840  141.0560 C   0  0  0  0  0  3  0  0  0  0  0  0
  194.6420  175.7130  140.7180 C   0  0  0  0  0  3  0  0  0  0  0  0
  195.2100  173.5550  139.7770 C   0  0  0  0  0  0  0  0  0  0  0  0
  194.9380  175.2440  142.0070 C   0  0  0  0  0  0  0  0  0  0  0  0
  194.7950  176.0780  143.1680 N   0  0  0  0  0  2  0  0  0  0  0  0
  191.4620  175.9550  146.6250 C   0  0  0  0  0  3  0  0  0  0  0  0
  194.6320  177.4040  146.2940 O   0  0  0  0  0  0  0  0  0  0  0  0
  195.2730  175.0350  146.1380 O   0  0  0  0  0  0  0  0  0  0  0  0
  191.2700  176.4670  144.1580 C   0  0  0  0  0  2  0  0  0  0  0  0
  193.7770  176.0160  144.1770 C   0  0  1  0  0  3  0  0  0  0  0  0
  190.9520  176.9090  145.5550 C   0  0  0  0  0  2  0  0  0  0  0  0
  194.1760  176.0320  145.8820 S   0  0  0  0  0  0  0  0  0  0  0  0
  192.5250  176.2350  143.9580 C   0  0  0  0  0  2  0  0  0  0  0  0
  192.7420  175.5630  146.8370 C   0  0  0  0  0  3  0  0  0  0  0  0
  1 11  2  0  0  0  0
  2  5  1  0  0  0  0
  3 10  1  0  0  0  0
  4 16  1  6  0  0  0
  4  5  1  0  0  0  0
  5 29  1  1  0  0  0
  6  1  1  0  0  0  0
  7  4  1  0  0  0  0
  8  2  1  0  0  0  0
  9 12  1  0  0  0  0
 10  6  1  0  0  0  0
 11  8  1  0  0  0  0
 11  7  1  0  0  0  0
 12 31  1  6  0  0  0
 12  1  1  0  0  0  0
 13  9  1  0  0  0  0
 13 10  2  0  0  0  0
 14  9  2  0  0  0  0
 15 16  2  0  0  0  0
 17 15  1  0  0  0  0
 18 17  1  0  0  0  0
 18 21  1  0  0  0  0
 19 20  2  0  0  0  0
 20 26  1  0  0  0  0
 21 20  1  0  0  0  0
 23 28  1  0  0  0  0
 24 27  1  1  0  0  0
 24 25  1  0  0  0  0
 25 28  1  0  0  0  0
 26 24  1  0  0  0  0
 26 23  2  0  0  0  0
 28 22  2  0  0  0  0
 29 30  1  0  0  0  0
 32 33  1  0  0  0  0
 32 31  1  0  0  0  0
 33 35  1  1  0  0  0
 34 32  1  0  0  0  0
 34 33  1  0  0  0  0
 35 41  1  0  0  0  0
 36 38  1  0  0  0  0
 37 41  2  0  0  0  0
 37 40  1  0  0  0  0
 39 36  2  0  0  0  0
 40 42  2  0  0  0  0
 41 39  1  0  0  0  0
 42 36  1  0  0  0  0
 42 43  1  0  0  0  0
 44 52  2  0  0  0  0
 47 49  1  0  0  0  0
 48 43  1  6  0  0  0
 48 50  1  0  0  0  0
 49 44  1  0  0  0  0
 50 46  2  0  0  0  0
 50 45  2  0  0  0  0
 50 52  1  0  0  0  0
 51 47  1  0  0  0  0
 51 48  1  0  0  0  0
M  END
>  <MODEL>
7

>  <REMARK>
 VINA RESULT:      -7.0      3.238      7.742
  Name = 
  12 active torsions:
  status: ('A' for Active; 'I' for Inactive)
    1  A    between atoms: N_6  and  C_19
    2  A    between atoms: C_8  and  C_21
    3  A    between atoms: C_11  and  C_47
    4  A    between atoms: C_12  and  C_15
    5  A    between atoms: C_15  and  C_45
    6  A    between atoms: C_18  and  C_29
    7  A    between atoms: C_19  and  C_41
    8  A    between atoms: C_20  and  C_21
    9  A    between atoms: C_20  and  N_30
   10  A    between atoms: C_23  and  C_25
   11  A    between atoms: N_33  and  C_34
   12  A    between atoms: N_33  and  C_49
                            x       y       z     vdW  Elec       q    Type
                         _______ _______ _______ _____ _____    ______ ____

>  <TORSDO>
F 12

$$$$
=
 OpenBabel11042414293D

 52 57  0  0  1  0  0  0  0  0999 V2000
  194.1320  173.6470  142.9790 C   0  0  0  0  0  0  0  0  0  0  0  0
  195.1490  171.4510  145.8410 C   0  0  0  0  0  2  0  0  0  0  0  0
  193.8120  174.3550  139.2060 C   0  0  0  0  0  1  0  0  0  0  0  0
  194.2300  170.0150  143.9760 C   0  0  1  0  0  3  0  0  0  0  0  0
  194.2450  170.2730  145.4900 C   0  0  1  0  0  3  0  0  0  0  0  0
  193.4470  173.6110  141.6380 C   0  0  0  0  0  2  0  0  0  0  0  0
  193.6500  171.2310  143.2490 C   0  0  0  0  0  2  0  0  0  0  0  0
  194.7800  172.6250  145.0580 N   0  0  0  0  0  2  0  0  0  0  0  0
  195.1590  175.8110  142.3990 C   0  0  0  0  0  0  0  0  0  0  0  0
  194.0990  174.5400  140.6520 C   0  0  0  0  0  0  0  0  0  0  0  0
  194.2340  172.5400  143.7310 C   0  0  0  0  0  0  0  0  0  0  0  0
  194.5860  174.9760  143.5090 C   0  0  1  0  0  3  0  0  0  0  0  0
  194.8430  175.5360  141.0290 N   0  0  0  0  0  0  0  0  0  0  0  0
  195.9280  176.7690  142.6750 O   0  0  0  0  0  0  0  0  0  0  0  0
  195.7820  168.8500  142.3830 C   0  0  0  0  0  3  0  0  0  0  0  0
  195.5900  169.6660  143.4290 C   0  0  0  0  0  3  0  0  0  0  0  0
  194.6690  168.1750  141.6330 C   0  0  0  0  0  2  0  0  0  0  0  0
  194.5160  168.7370  140.2270 C   0  0  0  0  0  2  0  0  0  0  0  0
  191.7380  168.6210  139.6920 O   0  0  0  0  0  0  0  0  0  0  0  0
  192.2290  169.7590  139.9270 C   0  0  0  0  0  0  0  0  0  0  0  0
  193.6180  169.8840  140.2360 N   0  0  0  0  0  2  0  0  0  0  0  0
  188.9130  173.1200  141.8240 S   0  0  0  0  0  0  0  0  0  0  0  0
  190.6350  171.3300  140.9630 N   0  0  0  0  0  0  0  0  0  0  0  0
  191.1690  171.7600  138.7480 C   0  0  1  0  0  3  0  0  0  0  0  0
  190.0770  172.9770  139.1400 S   0  0  0  0  0  0  0  0  0  0  0  0
  191.3570  170.9480  139.8730 C   0  0  0  0  0  0  0  0  0  0  0  0
  191.7960  171.6090  137.4060 C   0  0  0  0  0  1  0  0  0  0  0  0
  189.8870  172.4260  140.7120 C   0  0  0  0  0  0  0  0  0  0  0  0
  194.5560  169.0280  146.3180 C   0  0  0  0  0  2  0  0  0  0  0  0
  195.8490  169.0770  146.8410 O   0  0  0  0  0  1  0  0  0  0  0  0
  193.4160  175.6830  144.1850 C   0  0  0  0  0  2  0  0  0  0  0  0
  193.8820  176.5670  145.2520 N   0  0  0  0  0  0  0  0  0  0  0  0
  193.3350  176.2490  146.5670 C   0  0  2  0  0  3  0  0  0  0  0  0
  194.5520  175.7820  146.1780 O   0  0  0  0  0  0  0  0  0  0  0  0
  192.3520  175.0720  146.6310 C   0  0  0  0  0  2  0  0  0  0  0  0
  189.3170  177.1640  145.7760 C   0  0  0  0  0  0  0  0  0  0  0  0
  189.9140  174.8210  147.1770 C   0  0  0  0  0  3  0  0  0  0  0  0
  189.0430  178.2980  145.0830 F   0  0  0  0  0  0  0  0  0  0  0  0
  190.6390  176.7180  145.8670 C   0  0  0  0  0  3  0  0  0  0  0  0
  188.5930  175.2700  147.0920 C   0  0  0  0  0  3  0  0  0  0  0  0
  190.9410  175.5520  146.5720 C   0  0  0  0  0  0  0  0  0  0  0  0
  188.2830  176.4430  146.3880 C   0  0  0  0  0  0  0  0  0  0  0  0
  186.9350  176.9330  146.2900 N   0  0  0  0  0  2  0  0  0  0  0  0
  184.4340  177.9850  142.3260 C   0  0  0  0  0  3  0  0  0  0  0  0
  185.9660  179.8580  144.8560 O   0  0  0  0  0  0  0  0  0  0  0  0
  184.2800  178.6880  146.2110 O   0  0  0  0  0  0  0  0  0  0  0  0
  186.3800  176.4130  142.6870 C   0  0  0  0  0  2  0  0  0  0  0  0
  186.1820  177.2070  145.1000 C   0  0  1  0  0  3  0  0  0  0  0  0
  185.8140  177.5360  141.8700 C   0  0  0  0  0  2  0  0  0  0  0  0
  185.1390  178.6090  144.9790 S   0  0  0  0  0  0  0  0  0  0  0  0
  186.4090  176.6560  143.9560 C   0  0  0  0  0  2  0  0  0  0  0  0
  184.0800  178.4450  143.5510 C   0  0  0  0  0  3  0  0  0  0  0  0
  1 12  1  0  0  0  0
  1 11  2  0  0  0  0
  3 10  1  0  0  0  0
  4 16  1  6  0  0  0
  4  5  1  0  0  0  0
  5  2  1  0  0  0  0
  5 29  1  1  0  0  0
  6  1  1  0  0  0  0
  7 11  1  0  0  0  0
  7  4  1  0  0  0  0
  8  2  1  0  0  0  0
  9 14  2  0  0  0  0
  9 12  1  0  0  0  0
 10 13  2  0  0  0  0
 10  6  1  0  0  0  0
 11  8  1  0  0  0  0
 12 31  1  6  0  0  0
 13  9  1  0  0  0  0
 15 16  2  0  0  0  0
 17 15  1  0  0  0  0
 18 21  1  0  0  0  0
 18 17  1  0  0  0  0
 19 20  2  0  0  0  0
 20 21  1  0  0  0  0
 24 27  1  6  0  0  0
 24 25  1  0  0  0  0
 24 26  1  0  0  0  0
 25 28  1  0  0  0  0
 26 20  1  0  0  0  0
 26 23  2  0  0  0  0
 28 23  1  0  0  0  0
 28 22  2  0  0  0  0
 29 30  1  0  0  0  0
 31 32  1  0  0  0  0
 32 34  1  0  0  0  0
 32 33  1  0  0  0  0
 33 35  1  6  0  0  0
 34 33  1  0  0  0  0
 36 39  2  0  0  0  0
 36 42  1  0  0  0  0
 38 36  1  0  0  0  0
 39 41  1  0  0  0  0
 40 37  1  0  0  0  0
 41 35  1  0  0  0  0
 41 37  2  0  0  0  0
 42 40  2  0  0  0  0
 43 42  1  0  0  0  0
 44 52  2  0  0  0  0
 45 50  2  0  0  0  0
 47 51  1  0  0  0  0
 48 43  1  6  0  0  0
 49 44  1  0  0  0  0
 49 47  1  0  0  0  0
 50 48  1  0  0  0  0
 50 46  2  0  0  0  0
 51 48  1  0  0  0  0
 52 50  1  0  0  0  0
M  END
>  <MODEL>
8

>  <REMARK>
 VINA RESULT:      -6.9      2.001      2.615
  Name = 
  12 active torsions:
  status: ('A' for Active; 'I' for Inactive)
    1  A    between atoms: N_6  and  C_19
    2  A    between atoms: C_8  and  C_21
    3  A    between atoms: C_11  and  C_47
    4  A    between atoms: C_12  and  C_15
    5  A    between atoms: C_15  and  C_45
    6  A    between atoms: C_18  and  C_29
    7  A    between atoms: C_19  and  C_41
    8  A    between atoms: C_20  and  C_21
    9  A    between atoms: C_20  and  N_30
   10  A    between atoms: C_23  and  C_25
   11  A    between atoms: N_33  and  C_34
   12  A    between atoms: N_33  and  C_49
                            x       y       z     vdW  Elec       q    Type
                         _______ _______ _______ _____ _____    ______ ____

>  <TORSDO>
F 12

$$$$
=
 OpenBabel11042414293D

 52 57  0  0  1  0  0  0  0  0999 V2000
  194.4760  172.6530  143.4190 C   0  0  0  0  0  0  0  0  0  0  0  0
  190.8530  172.6870  144.3800 C   0  0  0  0  0  2  0  0  0  0  0  0
  197.4640  171.1080  141.5420 C   0  0  0  0  0  1  0  0  0  0  0  0
  191.0690  171.9410  141.9750 C   0  0  1  0  0  3  0  0  0  0  0  0
  190.2960  172.8240  142.9650 C   0  0  1  0  0  3  0  0  0  0  0  0
  195.3910  172.4570  142.2400 C   0  0  0  0  0  2  0  0  0  0  0  0
  192.5300  172.3960  141.9070 C   0  0  0  0  0  2  0  0  0  0  0  0
  192.2910  172.9330  144.3860 N   0  0  0  0  0  2  0  0  0  0  0  0
  196.3600  172.2390  144.9530 C   0  0  0  0  0  0  0  0  0  0  0  0
  196.6440  171.7190  142.6200 C   0  0  0  0  0  0  0  0  0  0  0  0
  193.1420  172.6200  143.2710 C   0  0  0  0  0  0  0  0  0  0  0  0
  195.0890  173.0110  144.7420 C   0  0  1  0  0  3  0  0  0  0  0  0
  197.0660  171.6620  143.8480 N   0  0  0  0  0  0  0  0  0  0  0  0
  196.8140  172.0950  146.1180 O   0  0  0  0  0  0  0  0  0  0  0  0
  191.2050  169.4960  141.4200 C   0  0  0  0  0  3  0  0  0  0  0  0
  190.9840  170.4740  142.3090 C   0  0  0  0  0  3  0  0  0  0  0  0
  191.5580  169.7390  139.9800 C   0  0  0  0  0  2  0  0  0  0  0  0
  190.3840  170.3170  139.2020 C   0  0  0  0  0  2  0  0  0  0  0  0
  189.8710  173.0940  139.0050 O   0  0  0  0  0  0  0  0  0  0  0  0
  190.5420  172.5680  138.0760 C   0  0  0  0  0  0  0  0  0  0  0  0
  190.8630  171.1780  138.1300 N   0  0  0  0  0  2  0  0  0  0  0  0
  193.0450  176.4260  135.8980 S   0  0  0  0  0  0  0  0  0  0  0  0
  191.8090  174.4640  137.1360 N   0  0  0  0  0  0  0  0  0  0  0  0
  190.5950  173.2150  135.6060 C   0  0  1  0  0  3  0  0  0  0  0  0
  191.3160  174.4080  134.6660 S   0  0  0  0  0  0  0  0  0  0  0  0
  190.9800  173.4020  136.9390 C   0  0  0  0  0  0  0  0  0  0  0  0
  189.6950  172.1610  135.0610 C   0  0  0  0  0  1  0  0  0  0  0  0
  192.0810  175.1100  135.9820 C   0  0  0  0  0  0  0  0  0  0  0  0
  188.7830  172.6240  142.9090 C   0  0  0  0  0  2  0  0  0  0  0  0
  188.2070  173.3890  141.8940 O   0  0  0  0  0  1  0  0  0  0  0  0
  195.3400  174.5150  144.7970 C   0  0  0  0  0  2  0  0  0  0  0  0
  195.0850  175.0400  146.1380 N   0  0  0  0  0  0  0  0  0  0  0  0
  194.2430  176.2330  146.1560 C   0  0  2  0  0  3  0  0  0  0  0  0
  193.7160  174.9930  146.3480 O   0  0  0  0  0  0  0  0  0  0  0  0
  193.7790  176.7620  144.7930 C   0  0  0  0  0  2  0  0  0  0  0  0
  190.3670  176.2290  143.2450 C   0  0  0  0  0  0  0  0  0  0  0  0
  191.4640  176.7340  145.7660 C   0  0  0  0  0  3  0  0  0  0  0  0
  189.8520  175.9750  142.0160 F   0  0  0  0  0  0  0  0  0  0  0  0
  191.7500  176.3790  143.3920 C   0  0  0  0  0  3  0  0  0  0  0  0
  190.0810  176.5900  145.6190 C   0  0  0  0  0  3  0  0  0  0  0  0
  192.3000  176.6380  144.6490 C   0  0  0  0  0  0  0  0  0  0  0  0
  189.5220  176.3340  144.3580 C   0  0  0  0  0  0  0  0  0  0  0  0
  188.1040  176.1890  144.1750 N   0  0  0  0  0  2  0  0  0  0  0  0
  184.5370  179.0380  145.6710 C   0  0  0  0  0  3  0  0  0  0  0  0
  185.1610  177.1630  142.7810 O   0  0  0  0  0  0  0  0  0  0  0  0
  187.0300  178.7510  142.6200 O   0  0  0  0  0  0  0  0  0  0  0  0
  185.7390  177.1420  146.8310 C   0  0  0  0  0  2  0  0  0  0  0  0
  187.0600  177.0490  144.6550 C   0  0  1  0  0  3  0  0  0  0  0  0
  184.4170  177.7360  146.4490 C   0  0  0  0  0  2  0  0  0  0  0  0
  186.1070  178.0300  143.5630 S   0  0  0  0  0  0  0  0  0  0  0  0
  186.5410  176.9690  145.8340 C   0  0  0  0  0  2  0  0  0  0  0  0
  185.1830  179.2390  144.4960 C   0  0  0  0  0  3  0  0  0  0  0  0
  1 12  1  0  0  0  0
  2  8  1  0  0  0  0
  3 10  1  0  0  0  0
  4 16  1  1  0  0  0
  4  5  1  0  0  0  0
  5 29  1  1  0  0  0
  5  2  1  0  0  0  0
  6 10  1  0  0  0  0
  6  1  1  0  0  0  0
  7  4  1  0  0  0  0
  7 11  1  0  0  0  0
  9 14  2  0  0  0  0
 10 13  2  0  0  0  0
 11  1  2  0  0  0  0
 11  8  1  0  0  0  0
 12 31  1  6  0  0  0
 12  9  1  0  0  0  0
 13  9  1  0  0  0  0
 15 16  2  0  0  0  0
 17 15  1  0  0  0  0
 18 17  1  0  0  0  0
 20 21  1  0  0  0  0
 20 19  2  0  0  0  0
 21 18  1  0  0  0  0
 22 28  2  0  0  0  0
 24 27  1  1  0  0  0
 24 26  1  0  0  0  0
 25 24  1  0  0  0  0
 25 28  1  0  0  0  0
 26 23  2  0  0  0  0
 26 20  1  0  0  0  0
 28 23  1  0  0  0  0
 30 29  1  0  0  0  0
 31 32  1  0  0  0  0
 32 33  1  0  0  0  0
 32 34  1  0  0  0  0
 33 35  1  6  0  0  0
 33 34  1  0  0  0  0
 36 39  2  0  0  0  0
 36 42  1  0  0  0  0
 38 36  1  0  0  0  0
 39 41  1  0  0  0  0
 40 37  1  0  0  0  0
 41 35  1  0  0  0  0
 41 37  2  0  0  0  0
 42 40  2  0  0  0  0
 43 42  1  0  0  0  0
 44 49  1  0  0  0  0
 45 50  2  0  0  0  0
 46 50  2  0  0  0  0
 48 43  1  6  0  0  0
 48 51  1  0  0  0  0
 49 47  1  0  0  0  0
 50 52  1  0  0  0  0
 50 48  1  0  0  0  0
 51 47  1  0  0  0  0
 52 44  2  0  0  0  0
M  END
>  <MODEL>
9

>  <REMARK>
 VINA RESULT:      -6.8      2.782      4.350
  Name = 
  12 active torsions:
  status: ('A' for Active; 'I' for Inactive)
    1  A    between atoms: N_6  and  C_19
    2  A    between atoms: C_8  and  C_21
    3  A    between atoms: C_11  and  C_47
    4  A    between atoms: C_12  and  C_15
    5  A    between atoms: C_15  and  C_45
    6  A    between atoms: C_18  and  C_29
    7  A    between atoms: C_19  and  C_41
    8  A    between atoms: C_20  and  C_21
    9  A    between atoms: C_20  and  N_30
   10  A    between atoms: C_23  and  C_25
   11  A    between atoms: N_33  and  C_34
   12  A    between atoms: N_33  and  C_49
                            x       y       z     vdW  Elec       q    Type
                         _______ _______ _______ _____ _____    ______ ____

>  <TORSDO>
F 12

$$$$
