=
 OpenBabel11042414303D

 52 59  0  0  1  0  0  0  0  0999 V2000
  193.5840  171.5150  145.0060 C   0  0  0  0  0  3  0  0  0  0  0  0
  194.9580  174.2540  145.0300 C   0  0  0  0  0  0  0  0  0  0  0  0
  195.5200  173.0670  144.9870 C   0  0  0  0  0  0  0  0  0  0  0  0
  189.8710  175.0930  146.4210 C   0  0  2  0  0  3  0  0  0  0  0  0
  191.7610  175.8340  147.1360 C   0  0  1  0  0  3  0  0  0  0  0  0
  191.8750  174.6870  145.0270 C   0  0  1  0  0  3  0  0  0  0  0  0
  189.0980  174.3480  147.3110 O   0  0  0  0  0  1  0  0  0  0  0  0
  191.2940  174.5630  146.4220 C   0  0  2  0  0  3  0  0  0  0  0  0
  192.9800  175.6380  145.1060 N   0  0  0  0  0  0  0  0  0  0  0  0
  195.0750  176.4690  145.9140 C   0  0  0  0  0  2  0  0  0  0  0  0
  194.8510  171.9250  145.6940 C   0  0  0  0  0  2  0  0  0  0  0  0
  193.9640  176.9970  146.8090 C   0  0  0  0  0  2  0  0  0  0  0  0
  192.7460  172.4370  144.6190 C   0  0  0  0  0  0  0  0  0  0  0  0
  192.6500  176.5930  146.1440 C   0  0  2  0  0  3  0  0  0  0  0  0
  192.0200  173.4420  144.2030 C   0  0  0  0  0  0  0  0  0  0  0  0
  190.3400  176.3670  147.1040 C   0  0  0  0  0  2  0  0  0  0  0  0
  194.3990  175.4330  145.1060 C   0  0  0  0  0  0  0  0  0  0  0  0
  189.8580  173.5210  143.0760 N   0  0  0  0  0  0  0  0  0  0  0  0
  191.6060  174.5600  142.0260 C   0  0  0  0  0  0  0  0  0  0  0  0
  190.5500  175.2480  141.7530 N   0  0  0  0  0  0  0  0  0  0  0  0
  192.9500  174.8920  141.4780 C   0  0  0  0  0  1  0  0  0  0  0  0
  191.2960  173.3810  142.8880 C   0  0  1  0  0  3  0  0  0  0  0  0
  189.4890  174.5700  142.4170 C   0  0  0  0  0  0  0  0  0  0  0  0
  187.7040  175.7290  141.1200 C   0  0  0  0  0  0  0  0  0  0  0  0
  187.8920  175.9890  143.6350 C   0  0  0  0  0  2  0  0  0  0  0  0
  186.8610  176.8880  141.1170 N   0  0  0  0  0  2  0  0  0  0  0  0
  188.0790  175.0670  142.4290 C   0  0  2  0  0  3  0  0  0  0  0  0
  186.6270  177.6810  142.3170 C   0  0  0  0  0  2  0  0  0  0  0  0
  187.8850  174.9000  139.7190 S   0  0  0  0  0  0  0  0  0  0  0  0
  186.5850  176.7670  143.5490 C   0  0  2  0  0  3  0  0  0  0  0  0
  186.7170  178.4520  147.4040 O   0  0  0  0  0  0  0  0  0  0  0  0
  184.8610  178.9940  145.9920 C   0  0  0  0  0  2  0  0  0  0  0  0
  186.1750  177.1590  147.2980 C   0  0  1  0  0  3  0  0  0  0  0  0
  185.3070  178.3820  147.3280 C   0  0  1  0  0  3  0  0  0  0  0  0
  186.4610  176.5410  145.9160 C   0  0  0  0  0  2  0  0  0  0  0  0
  186.3190  177.4820  144.8070 N   0  0  2  0  0  0  0  0  0  0  0  0
  184.9620  178.0160  144.8390 C   0  0  0  0  0  2  0  0  0  0  0  0
  196.8220  171.9390  143.2510 C   0  0  0  0  0  0  0  0  0  0  0  0
  196.8640  171.0700  142.2770 C   0  0  0  0  0  3  0  0  0  0  0  0
  196.7560  172.8140  144.2250 C   0  0  0  0  0  3  0  0  0  0  0  0
  194.5510  170.1960  141.9070 C   0  0  0  0  0  1  0  0  0  0  0  0
  195.7280  170.9580  141.3090 C   0  0  1  0  0  3  0  0  0  0  0  0
  195.2890  172.3270  140.7900 C   0  0  0  0  0  2  0  0  0  0  0  0
  195.8890  172.6630  139.4280 C   0  0  2  0  0  3  0  0  0  0  0  0
  197.8940  174.3440  138.2790 O   0  0  0  0  0  0  0  0  0  0  0  0
  196.7120  174.2820  139.4920 P   0  0  1  0  0  0  0  0  0  0  0  0
  195.6890  175.3700  139.2520 O   0  0  0  0  0  1  0  0  0  0  0  0
  196.8650  175.6490  141.5430 C   0  0  0  0  0  1  0  0  0  0  0  0
  197.4350  174.4880  141.0130 O   0  0  0  0  0  0  0  0  0  0  0  0
  194.8280  172.6490  138.3760 C   0  0  0  0  0  0  0  0  0  0  0  0
  193.4850  172.7540  138.7220 O   0  0  0  0  0  1  0  0  0  0  0  0
  195.1540  172.5500  137.1640 O   0  0  0  0  0  0  0  0  0  0  0  0
  1 11  1  0  0  0  0
  2 17  2  0  0  0  0
  3  2  2  0  0  0  0
  3 11  1  0  0  0  0
  4  8  1  0  0  0  0
  4 16  1  0  0  0  0
  4  7  1  1  0  0  0
  5 16  1  6  0  0  0
  6 15  1  1  0  0  0
  6  9  1  0  0  0  0
  6  8  1  0  0  0  0
  8  5  1  0  0  0  0
  9 17  1  0  0  0  0
  9 14  1  0  0  0  0
 10 12  1  0  0  0  0
 13  1  2  0  0  0  0
 14 12  1  0  0  0  0
 14  5  1  0  0  0  0
 15 13  2  0  0  0  0
 17 10  1  0  0  0  0
 19 22  1  0  0  0  0
 20 19  2  0  0  0  0
 20 23  1  0  0  0  0
 21 19  1  0  0  0  0
 22 18  1  0  0  0  0
 22 15  1  0  0  0  0
 23 27  1  0  0  0  0
 23 18  2  0  0  0  0
 24 27  1  0  0  0  0
 26 24  1  0  0  0  0
 26 28  1  0  0  0  0
 27 25  1  0  0  0  0
 28 30  1  0  0  0  0
 29 24  2  0  0  0  0
 30 25  1  0  0  0  0
 30 36  1  0  0  0  0
 32 34  1  0  0  0  0
 33 34  1  0  0  0  0
 33 31  1  0  0  0  0
 34 31  1  0  0  0  0
 35 33  1  0  0  0  0
 36 37  1  0  0  0  0
 36 35  1  0  0  0  0
 37 32  1  0  0  0  0
 38 40  2  0  0  0  0
 39 38  2  0  0  0  0
 40  3  1  0  0  0  0
 42 41  1  0  0  0  0
 42 39  1  0  0  0  0
 43 42  1  0  0  0  0
 44 46  1  0  0  0  0
 44 43  1  0  0  0  0
 45 46  2  0  0  0  0
 46 49  1  0  0  0  0
 47 46  1  0  0  0  0
 49 48  1  0  0  0  0
 50 51  1  0  0  0  0
 50 44  1  0  0  0  0
 52 50  2  0  0  0  0
M  END
>  <MODEL>
1

>  <REMARK>
 VINA RESULT:      -7.5      0.000      0.000
  Name = 
  10 active torsions:
  status: ('A' for Active; 'I' for Inactive)
    1  A    between atoms: C_8  and  C_33
    2  A    between atoms: C_9  and  C_35
    3  A    between atoms: P_23  and  C_35
    4  A    between atoms: P_23  and  O_49
    5  A    between atoms: C_25  and  C_30
    6  A    between atoms: C_25  and  C_45
    7  A    between atoms: C_28  and  C_43
    8  A    between atoms: C_35  and  C_45
    9  A    between atoms: C_36  and  C_44
   10  A    between atoms: C_46  and  N_48
                            x       y       z     vdW  Elec       q    Type
                         _______ _______ _______ _____ _____    ______ ____

>  <TORSDO>
F 10

$$$$
=
 OpenBabel11042414303D

 52 59  0  0  1  0  0  0  0  0999 V2000
  194.2390  171.6200  145.4200 C   0  0  0  0  0  3  0  0  0  0  0  0
  195.3590  174.3200  144.4980 C   0  0  0  0  0  0  0  0  0  0  0  0
  196.0080  173.1900  144.6680 C   0  0  0  0  0  0  0  0  0  0  0  0
  190.4950  175.2880  146.4800 C   0  0  2  0  0  3  0  0  0  0  0  0
  192.4030  176.2730  146.6420 C   0  0  1  0  0  3  0  0  0  0  0  0
  192.2870  174.6060  144.9150 C   0  0  1  0  0  3  0  0  0  0  0  0
  189.9370  174.7780  147.6510 O   0  0  0  0  0  1  0  0  0  0  0  0
  191.9420  174.8380  146.3720 C   0  0  2  0  0  3  0  0  0  0  0  0
  193.3040  175.5890  144.5540 N   0  0  0  0  0  0  0  0  0  0  0  0
  195.4190  176.6940  144.7460 C   0  0  0  0  0  2  0  0  0  0  0  0
  195.5570  172.2530  145.7500 C   0  0  0  0  0  2  0  0  0  0  0  0
  194.4190  177.3970  145.6510 C   0  0  0  0  0  2  0  0  0  0  0  0
  193.2750  172.3680  144.9590 C   0  0  0  0  0  0  0  0  0  0  0  0
  193.0580  176.7730  145.3500 C   0  0  2  0  0  3  0  0  0  0  0  0
  192.4090  173.1920  144.4280 C   0  0  0  0  0  0  0  0  0  0  0  0
  190.9520  176.7170  146.7190 C   0  0  0  0  0  2  0  0  0  0  0  0
  194.7180  175.4510  144.3620 C   0  0  0  0  0  0  0  0  0  0  0  0
  190.1290  173.1820  143.5630 N   0  0  0  0  0  0  0  0  0  0  0  0
  191.8100  173.4390  142.0320 C   0  0  0  0  0  0  0  0  0  0  0  0
  190.8110  174.1310  141.6020 N   0  0  0  0  0  0  0  0  0  0  0  0
  193.0890  173.3130  141.2790 C   0  0  0  0  0  1  0  0  0  0  0  0
  191.4980  172.7490  143.3190 C   0  0  1  0  0  3  0  0  0  0  0  0
  189.7890  173.9410  142.5740 C   0  0  0  0  0  0  0  0  0  0  0  0
  188.2290  175.2850  141.1690 C   0  0  0  0  0  0  0  0  0  0  0  0
  188.3580  175.6080  143.6810 C   0  0  0  0  0  2  0  0  0  0  0  0
  187.5550  176.5480  141.0940 N   0  0  0  0  0  2  0  0  0  0  0  0
  188.4610  174.6260  142.5110 C   0  0  2  0  0  3  0  0  0  0  0  0
  187.3890  177.4090  142.2590 C   0  0  0  0  0  2  0  0  0  0  0  0
  188.3470  174.3900  139.8020 S   0  0  0  0  0  0  0  0  0  0  0  0
  187.1750  176.5530  143.5150 C   0  0  2  0  0  3  0  0  0  0  0  0
  187.3890  178.3370  147.3220 O   0  0  0  0  0  0  0  0  0  0  0  0
  185.6910  179.0880  145.8120 C   0  0  0  0  0  2  0  0  0  0  0  0
  186.6710  177.1310  147.2290 C   0  0  1  0  0  3  0  0  0  0  0  0
  185.9880  178.4670  147.1840 C   0  0  1  0  0  3  0  0  0  0  0  0
  186.9220  176.4310  145.8800 C   0  0  0  0  0  2  0  0  0  0  0  0
  186.9630  177.3430  144.7390 N   0  0  2  0  0  0  0  0  0  0  0  0
  185.6970  178.0670  144.6930 C   0  0  0  0  0  2  0  0  0  0  0  0
  197.1230  172.9910  142.5000 C   0  0  0  0  0  0  0  0  0  0  0  0
  197.1030  173.2060  141.2120 C   0  0  0  0  0  3  0  0  0  0  0  0
  197.1280  172.7930  143.7960 C   0  0  0  0  0  3  0  0  0  0  0  0
  197.1910  175.7010  141.3460 C   0  0  0  0  0  1  0  0  0  0  0  0
  196.5630  174.4910  140.6650 C   0  0  1  0  0  3  0  0  0  0  0  0
  196.7210  174.5710  139.1470 C   0  0  0  0  0  2  0  0  0  0  0  0
  195.4430  174.2000  138.4010 C   0  0  2  0  0  3  0  0  0  0  0  0
  194.8960  171.4270  138.8200 O   0  0  0  0  0  1  0  0  0  0  0  0
  195.5840  172.5200  137.7220 P   0  0  1  0  0  0  0  0  0  0  0  0
  194.8370  172.4490  136.4090 O   0  0  0  0  0  0  0  0  0  0  0  0
  197.4660  172.3880  136.1290 C   0  0  0  0  0  1  0  0  0  0  0  0
  197.2210  172.1430  137.4830 O   0  0  0  0  0  0  0  0  0  0  0  0
  195.1710  175.1880  137.3140 C   0  0  0  0  0  0  0  0  0  0  0  0
  196.2050  175.6680  136.5170 O   0  0  0  0  0  0  0  0  0  0  0  0
  193.9930  175.5840  137.1120 O   0  0  0  0  0  1  0  0  0  0  0  0
  1 11  1  0  0  0  0
  2  3  2  0  0  0  0
  3 11  1  0  0  0  0
  4 16  1  0  0  0  0
  4  7  1  1  0  0  0
  5 16  1  6  0  0  0
  6 15  1  1  0  0  0
  6  8  1  0  0  0  0
  8  4  1  0  0  0  0
  8  5  1  0  0  0  0
  9  6  1  0  0  0  0
  9 14  1  0  0  0  0
 10 12  1  0  0  0  0
 13  1  2  0  0  0  0
 14 12  1  0  0  0  0
 14  5  1  0  0  0  0
 15 13  2  0  0  0  0
 17  2  2  0  0  0  0
 17  9  1  0  0  0  0
 17 10  1  0  0  0  0
 19 22  1  0  0  0  0
 20 19  2  0  0  0  0
 20 23  1  0  0  0  0
 21 19  1  0  0  0  0
 22 18  1  0  0  0  0
 22 15  1  0  0  0  0
 23 18  2  0  0  0  0
 24 27  1  0  0  0  0
 26 24  1  0  0  0  0
 26 28  1  0  0  0  0
 27 23  1  0  0  0  0
 27 25  1  0  0  0  0
 28 30  1  0  0  0  0
 29 24  2  0  0  0  0
 30 25  1  0  0  0  0
 30 36  1  0  0  0  0
 32 34  1  0  0  0  0
 33 31  1  0  0  0  0
 34 33  1  0  0  0  0
 34 31  1  0  0  0  0
 35 33  1  0  0  0  0
 36 35  1  0  0  0  0
 37 36  1  0  0  0  0
 37 32  1  0  0  0  0
 38 40  2  0  0  0  0
 39 38  2  0  0  0  0
 40  3  1  0  0  0  0
 42 39  1  0  0  0  0
 42 41  1  0  0  0  0
 43 42  1  0  0  0  0
 44 43  1  0  0  0  0
 46 44  1  0  0  0  0
 46 45  1  0  0  0  0
 47 46  2  0  0  0  0
 48 49  1  0  0  0  0
 49 46  1  0  0  0  0
 50 44  1  0  0  0  0
 51 50  2  0  0  0  0
 52 50  1  0  0  0  0
M  END
>  <MODEL>
2

>  <REMARK>
 VINA RESULT:      -7.5      1.405      2.135
  Name = 
  10 active torsions:
  status: ('A' for Active; 'I' for Inactive)
    1  A    between atoms: C_8  and  C_33
    2  A    between atoms: C_9  and  C_35
    3  A    between atoms: P_23  and  C_35
    4  A    between atoms: P_23  and  O_49
    5  A    between atoms: C_25  and  C_30
    6  A    between atoms: C_25  and  C_45
    7  A    between atoms: C_28  and  C_43
    8  A    between atoms: C_35  and  C_45
    9  A    between atoms: C_36  and  C_44
   10  A    between atoms: C_46  and  N_48
                            x       y       z     vdW  Elec       q    Type
                         _______ _______ _______ _____ _____    ______ ____

>  <TORSDO>
F 10

$$$$
=
 OpenBabel11042414303D

 52 59  0  0  1  0  0  0  0  0999 V2000
  193.6300  171.3080  145.0080 C   0  0  0  0  0  3  0  0  0  0  0  0
  195.0540  174.0220  145.0170 C   0  0  0  0  0  0  0  0  0  0  0  0
  195.5940  172.8240  145.0490 C   0  0  0  0  0  0  0  0  0  0  0  0
  189.9120  174.9990  146.0780 C   0  0  2  0  0  3  0  0  0  0  0  0
  191.7730  175.7330  146.8760 C   0  0  1  0  0  3  0  0  0  0  0  0
  191.9850  174.5080  144.8190 C   0  0  1  0  0  3  0  0  0  0  0  0
  189.0750  174.3000  146.9460 O   0  0  0  0  0  1  0  0  0  0  0  0
  191.3230  174.4450  146.1810 C   0  0  2  0  0  3  0  0  0  0  0  0
  193.1020  175.4420  144.9290 N   0  0  0  0  0  0  0  0  0  0  0  0
  195.1630  176.2650  145.8290 C   0  0  0  0  0  2  0  0  0  0  0  0
  194.8630  171.7200  145.7550 C   0  0  0  0  0  2  0  0  0  0  0  0
  194.0130  176.8440  146.6380 C   0  0  0  0  0  2  0  0  0  0  0  0
  192.8350  172.2300  144.5410 C   0  0  0  0  0  0  0  0  0  0  0  0
  192.7320  176.4390  145.9120 C   0  0  2  0  0  3  0  0  0  0  0  0
  192.1530  173.2320  144.0480 C   0  0  0  0  0  0  0  0  0  0  0  0
  190.3660  176.2890  146.7430 C   0  0  0  0  0  2  0  0  0  0  0  0
  194.5140  175.2120  145.0190 C   0  0  0  0  0  0  0  0  0  0  0  0
  190.0600  173.2940  142.7970 N   0  0  0  0  0  0  0  0  0  0  0  0
  191.8750  174.2860  141.8190 C   0  0  0  0  0  0  0  0  0  0  0  0
  190.8440  174.9740  141.4650 N   0  0  0  0  0  0  0  0  0  0  0  0
  193.2520  174.5910  141.3390 C   0  0  0  0  0  1  0  0  0  0  0  0
  191.5050  173.1360  142.6960 C   0  0  1  0  0  3  0  0  0  0  0  0
  189.7410  174.3240  142.0860 C   0  0  0  0  0  0  0  0  0  0  0  0
  188.0070  175.3490  140.6170 C   0  0  0  0  0  0  0  0  0  0  0  0
  188.1270  175.8830  143.0940 C   0  0  0  0  0  2  0  0  0  0  0  0
  187.1790  176.5090  140.4620 N   0  0  0  0  0  2  0  0  0  0  0  0
  188.3370  174.8330  142.0010 C   0  0  2  0  0  3  0  0  0  0  0  0
  186.9210  177.4320  141.5600 C   0  0  0  0  0  2  0  0  0  0  0  0
  188.2180  174.3700  139.3220 S   0  0  0  0  0  0  0  0  0  0  0  0
  186.8320  176.6590  142.8830 C   0  0  2  0  0  3  0  0  0  0  0  0
  186.4940  178.3900  146.7060 O   0  0  0  0  0  0  0  0  0  0  0  0
  185.6370  179.6050  144.8310 C   0  0  0  0  0  2  0  0  0  0  0  0
  185.4880  177.4790  146.3330 C   0  0  1  0  0  3  0  0  0  0  0  0
  185.3100  178.9620  146.1860 C   0  0  1  0  0  3  0  0  0  0  0  0
  185.8820  176.6950  145.0660 C   0  0  0  0  0  2  0  0  0  0  0  0
  186.5390  177.5110  144.0470 N   0  0  2  0  0  0  0  0  0  0  0  0
  185.6400  178.6040  143.6940 C   0  0  0  0  0  2  0  0  0  0  0  0
  196.9240  172.0350  143.1540 C   0  0  0  0  0  0  0  0  0  0  0  0
  196.9600  171.5600  141.9380 C   0  0  0  0  0  3  0  0  0  0  0  0
  196.8670  172.5220  144.3690 C   0  0  0  0  0  3  0  0  0  0  0  0
  196.7570  172.8880  139.8290 C   0  0  0  0  0  1  0  0  0  0  0  0
  196.0230  172.0790  140.8920 C   0  0  1  0  0  3  0  0  0  0  0  0
  195.2030  170.9560  140.2570 C   0  0  0  0  0  2  0  0  0  0  0  0
  193.7260  171.0180  140.6330 C   0  0  2  0  0  3  0  0  0  0  0  0
  192.9470  168.3320  140.0470 O   0  0  0  0  0  0  0  0  0  0  0  0
  193.1910  169.4230  141.3210 P   0  0  1  0  0  0  0  0  0  0  0  0
  194.2690  168.8900  142.2390 O   0  0  0  0  0  1  0  0  0  0  0  0
  190.8510  168.7060  141.6470 C   0  0  0  0  0  1  0  0  0  0  0  0
  191.7450  169.6360  142.1830 O   0  0  0  0  0  0  0  0  0  0  0  0
  192.9020  171.3840  139.4430 C   0  0  0  0  0  0  0  0  0  0  0  0
  191.5210  171.5110  139.5490 O   0  0  0  0  0  1  0  0  0  0  0  0
  193.4640  171.5880  138.3340 O   0  0  0  0  0  0  0  0  0  0  0  0
  1 11  1  0  0  0  0
  2 17  2  0  0  0  0
  2  3  2  0  0  0  0
  3 11  1  0  0  0  0
  4  8  1  0  0  0  0
  4 16  1  0  0  0  0
  4  7  1  1  0  0  0
  5 16  1  6  0  0  0
  6 15  1  1  0  0  0
  6  9  1  0  0  0  0
  6  8  1  0  0  0  0
  8  5  1  0  0  0  0
  9 17  1  0  0  0  0
  9 14  1  0  0  0  0
 10 12  1  0  0  0  0
 13  1  2  0  0  0  0
 14 12  1  0  0  0  0
 14  5  1  0  0  0  0
 15 13  2  0  0  0  0
 17 10  1  0  0  0  0
 19 22  1  0  0  0  0
 20 19  2  0  0  0  0
 20 23  1  0  0  0  0
 21 19  1  0  0  0  0
 22 18  1  0  0  0  0
 22 15  1  0  0  0  0
 23 18  2  0  0  0  0
 24 27  1  0  0  0  0
 26 24  1  0  0  0  0
 26 28  1  0  0  0  0
 27 23  1  0  0  0  0
 27 25  1  0  0  0  0
 28 30  1  0  0  0  0
 29 24  2  0  0  0  0
 30 25  1  0  0  0  0
 30 36  1  0  0  0  0
 32 34  1  0  0  0  0
 33 31  1  0  0  0  0
 34 33  1  0  0  0  0
 34 31  1  0  0  0  0
 35 33  1  0  0  0  0
 36 35  1  0  0  0  0
 37 36  1  0  0  0  0
 37 32  1  0  0  0  0
 38 40  2  0  0  0  0
 39 38  2  0  0  0  0
 40  3  1  0  0  0  0
 41 42  1  0  0  0  0
 42 39  1  0  0  0  0
 43 44  1  0  0  0  0
 43 42  1  0  0  0  0
 44 46  1  0  0  0  0
 45 46  2  0  0  0  0
 46 49  1  0  0  0  0
 46 47  1  0  0  0  0
 48 49  1  0  0  0  0
 50 51  1  0  0  0  0
 50 44  1  0  0  0  0
 52 50  2  0  0  0  0
M  END
>  <MODEL>
3

>  <REMARK>
 VINA RESULT:      -7.4      1.779      2.634
  Name = 
  10 active torsions:
  status: ('A' for Active; 'I' for Inactive)
    1  A    between atoms: C_8  and  C_33
    2  A    between atoms: C_9  and  C_35
    3  A    between atoms: P_23  and  C_35
    4  A    between atoms: P_23  and  O_49
    5  A    between atoms: C_25  and  C_30
    6  A    between atoms: C_25  and  C_45
    7  A    between atoms: C_28  and  C_43
    8  A    between atoms: C_35  and  C_45
    9  A    between atoms: C_36  and  C_44
   10  A    between atoms: C_46  and  N_48
                            x       y       z     vdW  Elec       q    Type
                         _______ _______ _______ _____ _____    ______ ____

>  <TORSDO>
F 10

$$$$
=
 OpenBabel11042414303D

 52 59  0  0  1  0  0  0  0  0999 V2000
  190.5790  172.7170  141.3990 C   0  0  0  0  0  3  0  0  0  0  0  0
  189.6680  172.9680  138.4820 C   0  0  0  0  0  0  0  0  0  0  0  0
  189.0650  173.4170  139.5600 C   0  0  0  0  0  0  0  0  0  0  0  0
  193.5580  169.3100  138.5520 C   0  0  2  0  0  3  0  0  0  0  0  0
  191.6490  169.4490  137.5660 C   0  0  1  0  0  3  0  0  0  0  0  0
  192.4160  171.5050  138.5460 C   0  0  1  0  0  3  0  0  0  0  0  0
  193.7330  168.2710  139.4650 O   0  0  0  0  0  1  0  0  0  0  0  0
  192.2530  170.0290  138.8480 C   0  0  2  0  0  3  0  0  0  0  0  0
  191.5170  171.8170  137.4380 N   0  0  0  0  0  0  0  0  0  0  0  0
  189.3960  171.9560  136.3380 C   0  0  0  0  0  2  0  0  0  0  0  0
  189.1910  172.6370  140.8370 C   0  0  0  0  0  2  0  0  0  0  0  0
  190.0040  170.5920  136.0500 C   0  0  0  0  0  2  0  0  0  0  0  0
  191.5960  172.5550  140.5990 C   0  0  0  0  0  0  0  0  0  0  0  0
  191.4220  170.6290  136.6150 C   0  0  2  0  0  3  0  0  0  0  0  0
  192.5390  172.4590  139.6980 C   0  0  0  0  0  0  0  0  0  0  0  0
  192.9670  168.7570  137.2650 C   0  0  0  0  0  2  0  0  0  0  0  0
  190.2530  172.4920  137.4150 C   0  0  0  0  0  0  0  0  0  0  0  0
  193.5050  174.5850  140.4030 N   0  0  0  0  0  0  0  0  0  0  0  0
  194.7750  172.7120  140.7460 C   0  0  0  0  0  0  0  0  0  0  0  0
  195.0320  173.5160  141.7200 N   0  0  0  0  0  0  0  0  0  0  0  0
  195.4500  171.3940  140.5860 C   0  0  0  0  0  1  0  0  0  0  0  0
  193.7850  173.2930  139.7900 C   0  0  1  0  0  3  0  0  0  0  0  0
  194.2310  174.6650  141.4690 C   0  0  0  0  0  0  0  0  0  0  0  0
  195.5290  176.2190  142.9230 C   0  0  0  0  0  0  0  0  0  0  0  0
  193.1630  175.5200  143.5120 C   0  0  0  0  0  2  0  0  0  0  0  0
  195.6790  176.6610  144.2780 N   0  0  0  0  0  2  0  0  0  0  0  0
  194.1620  175.8350  142.3970 C   0  0  2  0  0  3  0  0  0  0  0  0
  194.6540  176.4290  145.2880 C   0  0  0  0  0  2  0  0  0  0  0  0
  196.7350  176.5450  141.8640 S   0  0  0  0  0  0  0  0  0  0  0  0
  193.2610  176.5270  144.6520 C   0  0  2  0  0  3  0  0  0  0  0  0
  190.3810  176.8990  147.7000 O   0  0  0  0  0  0  0  0  0  0  0  0
  190.3130  174.9550  146.3070 C   0  0  0  0  0  2  0  0  0  0  0  0
  191.6250  176.3570  148.0700 C   0  0  1  0  0  3  0  0  0  0  0  0
  190.4480  175.4880  147.7400 C   0  0  1  0  0  3  0  0  0  0  0  0
  192.6770  176.5570  146.9600 C   0  0  0  0  0  2  0  0  0  0  0  0
  192.1600  176.3390  145.6100 N   0  0  2  0  0  0  0  0  0  0  0  0
  191.6220  174.9850  145.5450 C   0  0  0  0  0  2  0  0  0  0  0  0
  187.9150  175.2680  140.6700 C   0  0  0  0  0  0  0  0  0  0  0  0
  187.5340  175.8390  141.7810 C   0  0  0  0  0  3  0  0  0  0  0  0
  188.3140  174.6850  139.5660 C   0  0  0  0  0  3  0  0  0  0  0  0
  189.9030  176.0210  142.5570 C   0  0  0  0  0  1  0  0  0  0  0  0
  188.4440  175.8690  142.9690 C   0  0  1  0  0  3  0  0  0  0  0  0
  188.0400  176.9560  143.9650 C   0  0  0  0  0  2  0  0  0  0  0  0
  186.5470  176.9430  144.2790 C   0  0  2  0  0  3  0  0  0  0  0  0
  185.8170  179.6200  144.9630 O   0  0  0  0  0  1  0  0  0  0  0  0
  185.7760  178.4850  143.7040 P   0  0  1  0  0  0  0  0  0  0  0  0
  186.5530  179.0190  142.5220 O   0  0  0  0  0  0  0  0  0  0  0  0
  184.1670  178.1720  141.8580 C   0  0  0  0  0  1  0  0  0  0  0  0
  184.1680  178.1790  143.2550 O   0  0  0  0  0  0  0  0  0  0  0  0
  186.3260  176.7550  145.7450 C   0  0  0  0  0  0  0  0  0  0  0  0
  185.0500  176.5190  146.2450 O   0  0  0  0  0  0  0  0  0  0  0  0
  187.3070  176.8030  146.5340 O   0  0  0  0  0  1  0  0  0  0  0  0
  2  3  2  0  0  0  0
  3 40  1  0  0  0  0
  3 11  1  0  0  0  0
  4  8  1  0  0  0  0
  4  7  1  1  0  0  0
  5 16  1  6  0  0  0
  5  8  1  0  0  0  0
  6  8  1  0  0  0  0
  6 15  1  1  0  0  0
  9  6  1  0  0  0  0
 10 17  1  0  0  0  0
 11  1  1  0  0  0  0
 12 10  1  0  0  0  0
 12 14  1  0  0  0  0
 13  1  2  0  0  0  0
 14  9  1  0  0  0  0
 14  5  1  0  0  0  0
 15 22  1  0  0  0  0
 15 13  2  0  0  0  0
 16  4  1  0  0  0  0
 17  9  1  0  0  0  0
 17  2  2  0  0  0  0
 18 23  2  0  0  0  0
 19 20  2  0  0  0  0
 21 19  1  0  0  0  0
 22 18  1  0  0  0  0
 22 19  1  0  0  0  0
 23 20  1  0  0  0  0
 23 27  1  0  0  0  0
 24 26  1  0  0  0  0
 25 30  1  0  0  0  0
 26 28  1  0  0  0  0
 27 24  1  0  0  0  0
 27 25  1  0  0  0  0
 29 24  2  0  0  0  0
 30 28  1  0  0  0  0
 30 36  1  0  0  0  0
 31 34  1  0  0  0  0
 31 33  1  0  0  0  0
 32 34  1  0  0  0  0
 34 33  1  0  0  0  0
 35 33  1  0  0  0  0
 36 35  1  0  0  0  0
 37 36  1  0  0  0  0
 37 32  1  0  0  0  0
 38 39  2  0  0  0  0
 39 42  1  0  0  0  0
 40 38  2  0  0  0  0
 41 42  1  0  0  0  0
 42 43  1  0  0  0  0
 43 44  1  0  0  0  0
 44 50  1  0  0  0  0
 46 44  1  0  0  0  0
 46 45  1  0  0  0  0
 47 46  2  0  0  0  0
 48 49  1  0  0  0  0
 49 46  1  0  0  0  0
 50 51  2  0  0  0  0
 50 52  1  0  0  0  0
M  END
>  <MODEL>
4

>  <REMARK>
 VINA RESULT:      -7.3      3.769      9.063
  Name = 
  10 active torsions:
  status: ('A' for Active; 'I' for Inactive)
    1  A    between atoms: C_8  and  C_33
    2  A    between atoms: C_9  and  C_35
    3  A    between atoms: P_23  and  C_35
    4  A    between atoms: P_23  and  O_49
    5  A    between atoms: C_25  and  C_30
    6  A    between atoms: C_25  and  C_45
    7  A    between atoms: C_28  and  C_43
    8  A    between atoms: C_35  and  C_45
    9  A    between atoms: C_36  and  C_44
   10  A    between atoms: C_46  and  N_48
                            x       y       z     vdW  Elec       q    Type
                         _______ _______ _______ _____ _____    ______ ____

>  <TORSDO>
F 10

$$$$
=
 OpenBabel11042414303D

 52 59  0  0  1  0  0  0  0  0999 V2000
  193.6690  174.9750  140.4140 C   0  0  0  0  0  3  0  0  0  0  0  0
  195.5880  173.0180  141.7870 C   0  0  0  0  0  0  0  0  0  0  0  0
  195.8480  174.2250  141.3360 C   0  0  0  0  0  0  0  0  0  0  0  0
  191.2560  170.2030  140.4360 C   0  0  2  0  0  3  0  0  0  0  0  0
  193.3740  169.8350  140.3340 C   0  0  1  0  0  3  0  0  0  0  0  0
  192.7570  171.7270  141.6800 C   0  0  1  0  0  3  0  0  0  0  0  0
  190.5550  170.2460  139.2310 O   0  0  0  0  0  1  0  0  0  0  0  0
  192.4890  171.0840  140.3340 C   0  0  2  0  0  3  0  0  0  0  0  0
  194.0350  171.2060  142.1570 N   0  0  0  0  0  0  0  0  0  0  0  0
  196.3880  170.7830  142.0340 C   0  0  0  0  0  2  0  0  0  0  0  0
  195.1170  174.7160  140.1210 C   0  0  0  0  0  2  0  0  0  0  0  0
  195.6510  169.6270  141.3760 C   0  0  0  0  0  2  0  0  0  0  0  0
  192.9930  174.0920  141.0950 C   0  0  0  0  0  0  0  0  0  0  0  0
  194.1660  169.8570  141.6460 C   0  0  2  0  0  3  0  0  0  0  0  0
  192.4340  173.1830  141.8510 C   0  0  0  0  0  0  0  0  0  0  0  0
  192.1360  168.9650  140.4640 C   0  0  0  0  0  2  0  0  0  0  0  0
  195.3360  171.8060  142.2050 C   0  0  0  0  0  0  0  0  0  0  0  0
  190.4270  174.4640  142.3790 N   0  0  0  0  0  0  0  0  0  0  0  0
  190.6120  172.3970  143.3430 C   0  0  0  0  0  0  0  0  0  0  0  0
  189.3580  172.5880  143.1180 N   0  0  0  0  0  0  0  0  0  0  0  0
  191.1360  171.1740  144.0140 C   0  0  0  0  0  1  0  0  0  0  0  0
  191.4400  173.5620  142.9120 C   0  0  1  0  0  3  0  0  0  0  0  0
  189.2840  173.8800  142.5270 C   0  0  0  0  0  0  0  0  0  0  0  0
  188.1360  174.9910  140.6130 C   0  0  0  0  0  0  0  0  0  0  0  0
  187.5680  175.5730  143.0150 C   0  0  0  0  0  2  0  0  0  0  0  0
  187.4790  176.2030  140.2210 N   0  0  0  0  0  2  0  0  0  0  0  0
  188.0080  174.4850  142.0340 C   0  0  2  0  0  3  0  0  0  0  0  0
  186.9820  177.1670  141.1940 C   0  0  0  0  0  2  0  0  0  0  0  0
  188.6420  173.9700  139.4380 S   0  0  0  0  0  0  0  0  0  0  0  0
  186.4530  176.4340  142.4340 C   0  0  2  0  0  3  0  0  0  0  0  0
  184.3090  179.3310  144.6080 O   0  0  0  0  0  0  0  0  0  0  0  0
  185.8280  177.9160  145.7980 C   0  0  0  0  0  2  0  0  0  0  0  0
  185.4950  179.7590  143.9850 C   0  0  1  0  0  3  0  0  0  0  0  0
  185.4590  179.3600  145.4300 C   0  0  1  0  0  3  0  0  0  0  0  0
  186.0140  178.7080  142.9840 C   0  0  0  0  0  2  0  0  0  0  0  0
  185.8980  177.3310  143.4590 N   0  0  2  0  0  0  0  0  0  0  0  0
  186.6320  177.2230  144.7160 C   0  0  0  0  0  2  0  0  0  0  0  0
  196.4190  176.0040  142.9150 C   0  0  0  0  0  0  0  0  0  0  0  0
  196.0250  176.8640  143.8150 C   0  0  0  0  0  3  0  0  0  0  0  0
  196.7950  175.1270  142.0160 C   0  0  0  0  0  3  0  0  0  0  0  0
  194.9130  177.4950  145.9630 C   0  0  0  0  0  1  0  0  0  0  0  0
  194.9870  176.4850  144.8250 C   0  0  1  0  0  3  0  0  0  0  0  0
  193.6150  176.2840  144.1800 C   0  0  0  0  0  2  0  0  0  0  0  0
  192.4990  177.0030  144.9310 C   0  0  2  0  0  3  0  0  0  0  0  0
  192.5340  174.3950  146.0990 O   0  0  0  0  0  0  0  0  0  0  0  0
  191.6610  175.8470  146.0560 P   0  0  1  0  0  0  0  0  0  0  0  0
  191.6160  176.4470  147.4440 O   0  0  0  0  0  1  0  0  0  0  0  0
  189.5940  174.5160  146.2890 C   0  0  0  0  0  1  0  0  0  0  0  0
  190.0850  175.5560  145.4960 O   0  0  0  0  0  0  0  0  0  0  0  0
  191.5270  177.6020  143.9680 C   0  0  0  0  0  0  0  0  0  0  0  0
  191.6730  177.4050  142.5990 O   0  0  0  0  0  0  0  0  0  0  0  0
  190.5620  178.2860  144.4010 O   0  0  0  0  0  1  0  0  0  0  0  0
  1 13  2  0  0  0  0
  2 17  2  0  0  0  0
  3  2  2  0  0  0  0
  3 40  1  0  0  0  0
  4  7  1  6  0  0  0
  4 16  1  0  0  0  0
  5  8  1  0  0  0  0
  5 16  1  1  0  0  0
  5 14  1  0  0  0  0
  6 15  1  6  0  0  0
  6  9  1  0  0  0  0
  8  4  1  0  0  0  0
  8  6  1  0  0  0  0
  9 17  1  0  0  0  0
 10 17  1  0  0  0  0
 11  1  1  0  0  0  0
 11  3  1  0  0  0  0
 12 14  1  0  0  0  0
 12 10  1  0  0  0  0
 13 15  2  0  0  0  0
 14  9  1  0  0  0  0
 15 22  1  0  0  0  0
 18 23  2  0  0  0  0
 18 22  1  0  0  0  0
 19 21  1  0  0  0  0
 20 19  2  0  0  0  0
 22 19  1  0  0  0  0
 23 20  1  0  0  0  0
 24 27  1  0  0  0  0
 26 24  1  0  0  0  0
 26 28  1  0  0  0  0
 27 23  1  0  0  0  0
 27 25  1  0  0  0  0
 28 30  1  0  0  0  0
 29 24  2  0  0  0  0
 30 25  1  0  0  0  0
 30 36  1  0  0  0  0
 31 34  1  0  0  0  0
 33 31  1  0  0  0  0
 33 34  1  0  0  0  0
 34 32  1  0  0  0  0
 35 36  1  0  0  0  0
 35 33  1  0  0  0  0
 36 37  1  0  0  0  0
 37 32  1  0  0  0  0
 38 39  2  0  0  0  0
 39 42  1  0  0  0  0
 40 38  2  0  0  0  0
 42 41  1  0  0  0  0
 43 42  1  0  0  0  0
 43 44  1  0  0  0  0
 44 46  1  0  0  0  0
 46 45  2  0  0  0  0
 46 47  1  0  0  0  0
 49 46  1  0  0  0  0
 49 48  1  0  0  0  0
 50 52  1  0  0  0  0
 50 44  1  0  0  0  0
 51 50  2  0  0  0  0
M  END
>  <MODEL>
5

>  <REMARK>
 VINA RESULT:      -7.2      2.823      5.832
  Name = 
  10 active torsions:
  status: ('A' for Active; 'I' for Inactive)
    1  A    between atoms: C_8  and  C_33
    2  A    between atoms: C_9  and  C_35
    3  A    between atoms: P_23  and  C_35
    4  A    between atoms: P_23  and  O_49
    5  A    between atoms: C_25  and  C_30
    6  A    between atoms: C_25  and  C_45
    7  A    between atoms: C_28  and  C_43
    8  A    between atoms: C_35  and  C_45
    9  A    between atoms: C_36  and  C_44
   10  A    between atoms: C_46  and  N_48
                            x       y       z     vdW  Elec       q    Type
                         _______ _______ _______ _____ _____    ______ ____

>  <TORSDO>
F 10

$$$$
=
 OpenBabel11042414303D

 52 59  0  0  1  0  0  0  0  0999 V2000
  190.2130  176.5590  143.2590 C   0  0  0  0  0  3  0  0  0  0  0  0
  192.5640  176.0690  145.1640 C   0  0  0  0  0  0  0  0  0  0  0  0
  191.4690  176.7590  145.3910 C   0  0  0  0  0  0  0  0  0  0  0  0
  194.2270  174.6370  140.2950 C   0  0  2  0  0  3  0  0  0  0  0  0
  195.1160  175.7340  141.9200 C   0  0  1  0  0  3  0  0  0  0  0  0
  193.1070  174.5510  142.5000 C   0  0  1  0  0  3  0  0  0  0  0  0
  194.0310  175.3180  139.0950 O   0  0  0  0  0  1  0  0  0  0  0  0
  193.6860  175.4710  141.4440 C   0  0  2  0  0  3  0  0  0  0  0  0
  193.9240  174.7100  143.7000 N   0  0  0  0  0  0  0  0  0  0  0  0
  194.9240  175.9350  145.4970 C   0  0  0  0  0  2  0  0  0  0  0  0
  190.8310  177.4980  144.2510 C   0  0  0  0  0  2  0  0  0  0  0  0
  195.8700  175.9590  144.3060 C   0  0  0  0  0  2  0  0  0  0  0  0
  190.8870  175.5110  142.8740 C   0  0  0  0  0  0  0  0  0  0  0  0
  195.2700  175.0160  143.2650 C   0  0  2  0  0  3  0  0  0  0  0  0
  191.6150  174.4540  142.6210 C   0  0  0  0  0  0  0  0  0  0  0  0
  195.6460  174.8750  140.7850 C   0  0  0  0  0  2  0  0  0  0  0  0
  193.6670  175.4100  144.9250 C   0  0  0  0  0  0  0  0  0  0  0  0
  190.1840  173.0710  141.2090 N   0  0  0  0  0  0  0  0  0  0  0  0
  191.9960  172.0450  142.1600 C   0  0  0  0  0  0  0  0  0  0  0  0
  191.8180  171.4890  141.0110 N   0  0  0  0  0  0  0  0  0  0  0  0
  193.0580  171.6130  143.1110 C   0  0  0  0  0  1  0  0  0  0  0  0
  190.9800  173.1050  142.4300 C   0  0  1  0  0  3  0  0  0  0  0  0
  190.6850  172.1480  140.4560 C   0  0  0  0  0  0  0  0  0  0  0  0
  191.2390  171.3180  138.1720 C   0  0  0  0  0  0  0  0  0  0  0  0
  189.5060  173.1330  138.5360 C   0  0  0  0  0  2  0  0  0  0  0  0
  191.2760  171.7040  136.7920 N   0  0  0  0  0  2  0  0  0  0  0  0
  190.1620  171.8640  139.0840 C   0  0  2  0  0  3  0  0  0  0  0  0
  190.5510  172.8650  136.2910 C   0  0  0  0  0  2  0  0  0  0  0  0
  192.0790  169.9870  138.6260 S   0  0  0  0  0  0  0  0  0  0  0  0
  189.2220  173.0170  137.0430 C   0  0  2  0  0  3  0  0  0  0  0  0
  187.2220  175.9750  134.8140 O   0  0  0  0  0  0  0  0  0  0  0  0
  186.8040  175.8520  137.1670 C   0  0  0  0  0  2  0  0  0  0  0  0
  188.5210  176.2860  135.2550 C   0  0  1  0  0  3  0  0  0  0  0  0
  187.3020  176.7270  136.0080 C   0  0  1  0  0  3  0  0  0  0  0  0
  189.2510  175.0350  135.7800 C   0  0  0  0  0  2  0  0  0  0  0  0
  188.4050  174.1480  136.5770 N   0  0  2  0  0  0  0  0  0  0  0  0
  187.8730  174.9180  137.6970 C   0  0  0  0  0  2  0  0  0  0  0  0
  189.5780  177.1640  146.8890 C   0  0  0  0  0  0  0  0  0  0  0  0
  188.3350  177.5350  147.0400 C   0  0  0  0  0  3  0  0  0  0  0  0
  190.8210  176.7850  146.7150 C   0  0  0  0  0  3  0  0  0  0  0  0
  185.9550  176.8370  146.7350 C   0  0  0  0  0  1  0  0  0  0  0  0
  187.2910  177.1110  146.0560 C   0  0  1  0  0  3  0  0  0  0  0  0
  187.1330  178.1250  144.9230 C   0  0  0  0  0  2  0  0  0  0  0  0
  185.8590  177.9110  144.1130 C   0  0  2  0  0  3  0  0  0  0  0  0
  187.5910  178.4190  141.8980 O   0  0  0  0  0  0  0  0  0  0  0  0
  186.2760  177.4740  142.3990 P   0  0  1  0  0  0  0  0  0  0  0  0
  186.6570  176.0120  142.3360 O   0  0  0  0  0  1  0  0  0  0  0  0
  185.4590  177.8930  140.1070 C   0  0  0  0  0  1  0  0  0  0  0  0
  184.9390  177.7710  141.3980 O   0  0  0  0  0  0  0  0  0  0  0  0
  185.0050  179.1370  144.1530 C   0  0  0  0  0  0  0  0  0  0  0  0
  183.6230  179.0340  144.2640 O   0  0  0  0  0  1  0  0  0  0  0  0
  185.5440  180.2730  144.0950 O   0  0  0  0  0  0  0  0  0  0  0  0
  1 11  1  0  0  0  0
  2  3  2  0  0  0  0
  3 40  1  0  0  0  0
  4  7  1  6  0  0  0
  4 16  1  0  0  0  0
  4  8  1  0  0  0  0
  5 16  1  6  0  0  0
  5 14  1  0  0  0  0
  6 15  1  1  0  0  0
  6  9  1  0  0  0  0
  8  5  1  0  0  0  0
  8  6  1  0  0  0  0
  9 17  1  0  0  0  0
 11  3  1  0  0  0  0
 12 10  1  0  0  0  0
 13  1  2  0  0  0  0
 14  9  1  0  0  0  0
 14 12  1  0  0  0  0
 15 13  2  0  0  0  0
 17  2  2  0  0  0  0
 17 10  1  0  0  0  0
 18 22  1  0  0  0  0
 19 22  1  0  0  0  0
 19 21  1  0  0  0  0
 20 19  2  0  0  0  0
 22 15  1  0  0  0  0
 23 20  1  0  0  0  0
 23 18  2  0  0  0  0
 24 29  2  0  0  0  0
 24 27  1  0  0  0  0
 25 27  1  0  0  0  0
 26 24  1  0  0  0  0
 27 23  1  0  0  0  0
 28 26  1  0  0  0  0
 28 30  1  0  0  0  0
 30 25  1  0  0  0  0
 31 33  1  0  0  0  0
 31 34  1  0  0  0  0
 32 37  1  0  0  0  0
 33 35  1  0  0  0  0
 33 34  1  0  0  0  0
 34 32  1  0  0  0  0
 35 36  1  0  0  0  0
 36 30  1  0  0  0  0
 36 37  1  0  0  0  0
 38 39  2  0  0  0  0
 40 38  2  0  0  0  0
 42 41  1  0  0  0  0
 42 39  1  0  0  0  0
 43 42  1  0  0  0  0
 44 50  1  0  0  0  0
 44 43  1  0  0  0  0
 45 46  2  0  0  0  0
 46 44  1  0  0  0  0
 47 46  1  0  0  0  0
 48 49  1  0  0  0  0
 49 46  1  0  0  0  0
 50 51  1  0  0  0  0
 52 50  2  0  0  0  0
M  END
>  <MODEL>
6

>  <REMARK>
 VINA RESULT:      -7.1      3.819      8.451
  Name = 
  10 active torsions:
  status: ('A' for Active; 'I' for Inactive)
    1  A    between atoms: C_8  and  C_33
    2  A    between atoms: C_9  and  C_35
    3  A    between atoms: P_23  and  C_35
    4  A    between atoms: P_23  and  O_49
    5  A    between atoms: C_25  and  C_30
    6  A    between atoms: C_25  and  C_45
    7  A    between atoms: C_28  and  C_43
    8  A    between atoms: C_35  and  C_45
    9  A    between atoms: C_36  and  C_44
   10  A    between atoms: C_46  and  N_48
                            x       y       z     vdW  Elec       q    Type
                         _______ _______ _______ _____ _____    ______ ____

>  <TORSDO>
F 10

$$$$
=
 OpenBabel11042414303D

 52 59  0  0  1  0  0  0  0  0999 V2000
  197.6280  173.9410  144.9610 C   0  0  0  0  0  3  0  0  0  0  0  0
  194.5690  173.7420  144.9450 C   0  0  0  0  0  0  0  0  0  0  0  0
  195.3360  174.3580  145.8180 C   0  0  0  0  0  0  0  0  0  0  0  0
  196.3480  170.1110  141.4570 C   0  0  2  0  0  3  0  0  0  0  0  0
  194.8210  170.1090  142.9740 C   0  0  1  0  0  3  0  0  0  0  0  0
  195.6760  172.2870  142.4250 C   0  0  1  0  0  3  0  0  0  0  0  0
  197.4120  169.2260  141.6190 O   0  0  0  0  0  1  0  0  0  0  0  0
  196.1260  170.8770  142.7500 C   0  0  2  0  0  3  0  0  0  0  0  0
  194.3140  172.4290  142.9340 N   0  0  0  0  0  0  0  0  0  0  0  0
  192.6150  172.4110  144.6200 C   0  0  0  0  0  2  0  0  0  0  0  0
  196.6900  173.7850  146.1200 C   0  0  0  0  0  2  0  0  0  0  0  0
  192.7270  171.0140  144.0270 C   0  0  0  0  0  2  0  0  0  0  0  0
  197.2070  173.6490  143.7620 C   0  0  0  0  0  0  0  0  0  0  0  0
  193.6840  171.1290  142.8430 C   0  0  2  0  0  3  0  0  0  0  0  0
  196.6580  173.4070  142.6000 C   0  0  0  0  0  0  0  0  0  0  0  0
  195.0380  169.3700  141.6650 C   0  0  0  0  0  2  0  0  0  0  0  0
  193.8110  173.1020  144.0960 C   0  0  0  0  0  0  0  0  0  0  0  0
  196.4840  173.6260  140.1760 N   0  0  0  0  0  0  0  0  0  0  0  0
  196.2900  175.5490  141.4010 C   0  0  0  0  0  0  0  0  0  0  0  0
  195.5180  175.6850  140.3780 N   0  0  0  0  0  0  0  0  0  0  0  0
  196.4780  176.6210  142.4180 C   0  0  0  0  0  1  0  0  0  0  0  0
  197.0010  174.2360  141.3940 C   0  0  1  0  0  3  0  0  0  0  0  0
  195.6700  174.4760  139.6420 C   0  0  0  0  0  0  0  0  0  0  0  0
  195.2180  175.1340  137.2810 C   0  0  0  0  0  0  0  0  0  0  0  0
  193.4050  174.1370  138.7460 C   0  0  0  0  0  2  0  0  0  0  0  0
  194.1830  175.5800  136.3950 N   0  0  0  0  0  2  0  0  0  0  0  0
  194.8950  174.1690  138.4010 C   0  0  2  0  0  3  0  0  0  0  0  0
  192.7690  175.4370  136.7190 C   0  0  0  0  0  2  0  0  0  0  0  0
  196.7750  175.3300  136.8110 S   0  0  0  0  0  0  0  0  0  0  0  0
  192.5390  174.1310  137.4920 C   0  0  2  0  0  3  0  0  0  0  0  0
  188.6880  174.0930  139.1900 O   0  0  0  0  0  0  0  0  0  0  0  0
  189.0630  172.8170  137.2010 C   0  0  0  0  0  2  0  0  0  0  0  0
  189.6210  173.1840  139.7210 C   0  0  1  0  0  3  0  0  0  0  0  0
  188.6270  172.7790  138.6730 C   0  0  1  0  0  3  0  0  0  0  0  0
  191.0510  173.5020  139.2410 C   0  0  0  0  0  2  0  0  0  0  0  0
  191.1290  173.8870  137.8330 N   0  0  2  0  0  0  0  0  0  0  0  0
  190.5690  172.8010  137.0350 C   0  0  0  0  0  2  0  0  0  0  0  0
  193.7110  176.0970  146.3810 C   0  0  0  0  0  0  0  0  0  0  0  0
  192.4910  176.5530  146.2920 C   0  0  0  0  0  3  0  0  0  0  0  0
  194.9280  175.6170  146.4660 C   0  0  0  0  0  3  0  0  0  0  0  0
  191.0210  175.2360  147.8270 C   0  0  0  0  0  1  0  0  0  0  0  0
  191.3230  175.6210  146.3830 C   0  0  1  0  0  3  0  0  0  0  0  0
  190.0830  176.1960  145.6990 C   0  0  0  0  0  2  0  0  0  0  0  0
  190.0760  175.9540  144.1920 C   0  0  2  0  0  3  0  0  0  0  0  0
  189.4700  177.7450  142.0490 O   0  0  0  0  0  0  0  0  0  0  0  0
  190.5620  177.4700  143.3150 P   0  0  1  0  0  0  0  0  0  0  0  0
  190.5190  178.6370  144.2770 O   0  0  0  0  0  1  0  0  0  0  0  0
  192.2900  175.9120  142.4900 C   0  0  0  0  0  1  0  0  0  0  0  0
  192.1310  177.2850  142.6940 O   0  0  0  0  0  0  0  0  0  0  0  0
  188.7260  175.4960  143.7470 C   0  0  0  0  0  0  0  0  0  0  0  0
  187.5760  176.1410  144.1900 O   0  0  0  0  0  1  0  0  0  0  0  0
  188.6280  174.5200  142.9560 O   0  0  0  0  0  0  0  0  0  0  0  0
  1 11  1  0  0  0  0
  2  3  2  0  0  0  0
  3 11  1  0  0  0  0
  3 40  1  0  0  0  0
  4  7  1  1  0  0  0
  4 16  1  0  0  0  0
  4  8  1  0  0  0  0
  5 16  1  6  0  0  0
  6 15  1  1  0  0  0
  6  8  1  0  0  0  0
  6  9  1  0  0  0  0
  8  5  1  0  0  0  0
  9 17  1  0  0  0  0
 12 10  1  0  0  0  0
 13  1  2  0  0  0  0
 14  9  1  0  0  0  0
 14  5  1  0  0  0  0
 14 12  1  0  0  0  0
 15 13  2  0  0  0  0
 17 10  1  0  0  0  0
 17  2  2  0  0  0  0
 18 22  1  0  0  0  0
 19 21  1  0  0  0  0
 20 19  2  0  0  0  0
 22 19  1  0  0  0  0
 22 15  1  0  0  0  0
 23 18  2  0  0  0  0
 23 20  1  0  0  0  0
 24 27  1  0  0  0  0
 26 28  1  0  0  0  0
 26 24  1  0  0  0  0
 27 25  1  0  0  0  0
 27 23  1  0  0  0  0
 28 30  1  0  0  0  0
 29 24  2  0  0  0  0
 30 36  1  0  0  0  0
 30 25  1  0  0  0  0
 31 33  1  0  0  0  0
 32 34  1  0  0  0  0
 34 31  1  0  0  0  0
 34 33  1  0  0  0  0
 35 33  1  0  0  0  0
 36 35  1  0  0  0  0
 37 32  1  0  0  0  0
 37 36  1  0  0  0  0
 38 40  2  0  0  0  0
 39 38  2  0  0  0  0
 39 42  1  0  0  0  0
 42 41  1  0  0  0  0
 43 42  1  0  0  0  0
 44 43  1  0  0  0  0
 45 46  2  0  0  0  0
 46 44  1  0  0  0  0
 46 47  1  0  0  0  0
 48 49  1  0  0  0  0
 49 46  1  0  0  0  0
 50 51  1  0  0  0  0
 50 44  1  0  0  0  0
 52 50  2  0  0  0  0
M  END
>  <MODEL>
7

>  <REMARK>
 VINA RESULT:      -7.1      3.691      7.584
  Name = 
  10 active torsions:
  status: ('A' for Active; 'I' for Inactive)
    1  A    between atoms: C_8  and  C_33
    2  A    between atoms: C_9  and  C_35
    3  A    between atoms: P_23  and  C_35
    4  A    between atoms: P_23  and  O_49
    5  A    between atoms: C_25  and  C_30
    6  A    between atoms: C_25  and  C_45
    7  A    between atoms: C_28  and  C_43
    8  A    between atoms: C_35  and  C_45
    9  A    between atoms: C_36  and  C_44
   10  A    between atoms: C_46  and  N_48
                            x       y       z     vdW  Elec       q    Type
                         _______ _______ _______ _____ _____    ______ ____

>  <TORSDO>
F 10

$$$$
=
 OpenBabel11042414303D

 52 59  0  0  1  0  0  0  0  0999 V2000
  192.3120  176.7440  143.6690 C   0  0  0  0  0  3  0  0  0  0  0  0
  194.0520  174.7200  145.1750 C   0  0  0  0  0  0  0  0  0  0  0  0
  193.5620  175.8550  145.6200 C   0  0  0  0  0  0  0  0  0  0  0  0
  194.3430  173.4250  140.0020 C   0  0  2  0  0  3  0  0  0  0  0  0
  195.7820  173.5530  141.5980 C   0  0  1  0  0  3  0  0  0  0  0  0
  193.4900  173.6190  142.3170 C   0  0  1  0  0  3  0  0  0  0  0  0
  194.5110  174.2850  138.9180 O   0  0  0  0  0  1  0  0  0  0  0  0
  194.4360  174.2170  141.2950 C   0  0  2  0  0  3  0  0  0  0  0  0
  194.3110  173.0960  143.4050 N   0  0  0  0  0  0  0  0  0  0  0  0
  195.9230  173.2370  145.1690 C   0  0  0  0  0  2  0  0  0  0  0  0
  193.4060  177.0000  144.6620 C   0  0  0  0  0  2  0  0  0  0  0  0
  196.6500  172.9240  143.8700 C   0  0  0  0  0  2  0  0  0  0  0  0
  192.2430  175.5790  143.0880 C   0  0  0  0  0  0  0  0  0  0  0  0
  195.5660  172.6630  142.8270 C   0  0  2  0  0  3  0  0  0  0  0  0
  192.2200  174.3550  142.6280 C   0  0  0  0  0  0  0  0  0  0  0  0
  195.6650  172.7460  140.3170 C   0  0  0  0  0  2  0  0  0  0  0  0
  194.5650  173.6070  144.7210 C   0  0  0  0  0  0  0  0  0  0  0  0
  190.5340  173.7270  140.9800 N   0  0  0  0  0  0  0  0  0  0  0  0
  191.0440  172.1690  142.5770 C   0  0  0  0  0  0  0  0  0  0  0  0
  190.7720  171.5170  141.5000 N   0  0  0  0  0  0  0  0  0  0  0  0
  191.3780  171.4990  143.8650 C   0  0  0  0  0  1  0  0  0  0  0  0
  190.9180  173.6450  142.3840 C   0  0  1  0  0  3  0  0  0  0  0  0
  190.4550  172.5160  140.5370 C   0  0  0  0  0  0  0  0  0  0  0  0
  191.3790  171.7950  138.3360 C   0  0  0  0  0  0  0  0  0  0  0  0
  189.4300  173.4110  138.4890 C   0  0  0  0  0  2  0  0  0  0  0  0
  191.5480  172.2110  136.9750 N   0  0  0  0  0  2  0  0  0  0  0  0
  190.1430  172.2070  139.1080 C   0  0  2  0  0  3  0  0  0  0  0  0
  190.7720  173.2990  136.3930 C   0  0  0  0  0  2  0  0  0  0  0  0
  192.2910  170.5510  138.8840 S   0  0  0  0  0  0  0  0  0  0  0  0
  189.3500  173.2950  136.9710 C   0  0  2  0  0  3  0  0  0  0  0  0
  187.3000  176.0300  134.5140 O   0  0  0  0  0  0  0  0  0  0  0  0
  186.6990  175.9130  136.8280 C   0  0  0  0  0  2  0  0  0  0  0  0
  188.5270  176.4600  135.0500 C   0  0  1  0  0  3  0  0  0  0  0  0
  187.2160  176.8080  135.6920 C   0  0  1  0  0  3  0  0  0  0  0  0
  189.3140  175.2850  135.6640 C   0  0  0  0  0  2  0  0  0  0  0  0
  188.4820  174.3440  136.4120 N   0  0  2  0  0  0  0  0  0  0  0  0
  187.7960  175.0840  137.4650 C   0  0  0  0  0  2  0  0  0  0  0  0
  191.9090  176.4270  147.3290 C   0  0  0  0  0  0  0  0  0  0  0  0
  190.7000  176.8220  147.6230 C   0  0  0  0  0  3  0  0  0  0  0  0
  193.1160  176.0220  147.0150 C   0  0  0  0  0  3  0  0  0  0  0  0
  189.0830  174.9350  147.3420 C   0  0  0  0  0  1  0  0  0  0  0  0
  189.5250  176.3080  146.8500 C   0  0  1  0  0  3  0  0  0  0  0  0
  188.3600  177.2970  146.8650 C   0  0  0  0  0  2  0  0  0  0  0  0
  187.1330  176.7760  146.1230 C   0  0  2  0  0  3  0  0  0  0  0  0
  186.1360  176.5360  143.4560 O   0  0  0  0  0  0  0  0  0  0  0  0
  187.0190  177.5530  144.4850 P   0  0  1  0  0  0  0  0  0  0  0  0
  186.3040  178.8800  144.6120 O   0  0  0  0  0  1  0  0  0  0  0  0
  188.7010  176.8820  142.8060 C   0  0  0  0  0  1  0  0  0  0  0  0
  188.5800  177.7900  143.8610 O   0  0  0  0  0  0  0  0  0  0  0  0
  185.8960  177.0350  146.9190 C   0  0  0  0  0  0  0  0  0  0  0  0
  185.9760  177.5740  148.1990 O   0  0  0  0  0  1  0  0  0  0  0  0
  184.7690  176.7700  146.4230 O   0  0  0  0  0  0  0  0  0  0  0  0
  1 11  1  0  0  0  0
  2  3  2  0  0  0  0
  3 40  1  0  0  0  0
  4  7  1  6  0  0  0
  4 16  1  0  0  0  0
  4  8  1  0  0  0  0
  5 16  1  6  0  0  0
  5 14  1  0  0  0  0
  6 15  1  1  0  0  0
  6  9  1  0  0  0  0
  8  5  1  0  0  0  0
  8  6  1  0  0  0  0
  9 17  1  0  0  0  0
 11  3  1  0  0  0  0
 12 10  1  0  0  0  0
 13  1  2  0  0  0  0
 14  9  1  0  0  0  0
 14 12  1  0  0  0  0
 15 13  2  0  0  0  0
 17 10  1  0  0  0  0
 17  2  2  0  0  0  0
 18 22  1  0  0  0  0
 19 21  1  0  0  0  0
 20 19  2  0  0  0  0
 22 19  1  0  0  0  0
 22 15  1  0  0  0  0
 23 18  2  0  0  0  0
 23 20  1  0  0  0  0
 24 29  2  0  0  0  0
 24 27  1  0  0  0  0
 25 27  1  0  0  0  0
 26 24  1  0  0  0  0
 27 23  1  0  0  0  0
 28 30  1  0  0  0  0
 28 26  1  0  0  0  0
 30 25  1  0  0  0  0
 31 33  1  0  0  0  0
 31 34  1  0  0  0  0
 32 37  1  0  0  0  0
 33 35  1  0  0  0  0
 33 34  1  0  0  0  0
 34 32  1  0  0  0  0
 35 36  1  0  0  0  0
 36 30  1  0  0  0  0
 36 37  1  0  0  0  0
 38 39  2  0  0  0  0
 40 38  2  0  0  0  0
 42 43  1  0  0  0  0
 42 41  1  0  0  0  0
 42 39  1  0  0  0  0
 44 43  1  0  0  0  0
 44 50  1  0  0  0  0
 45 46  2  0  0  0  0
 46 47  1  0  0  0  0
 46 44  1  0  0  0  0
 48 49  1  0  0  0  0
 49 46  1  0  0  0  0
 50 51  1  0  0  0  0
 52 50  2  0  0  0  0
M  END
>  <MODEL>
8

>  <REMARK>
 VINA RESULT:      -7.0      3.552      8.231
  Name = 
  10 active torsions:
  status: ('A' for Active; 'I' for Inactive)
    1  A    between atoms: C_8  and  C_33
    2  A    between atoms: C_9  and  C_35
    3  A    between atoms: P_23  and  C_35
    4  A    between atoms: P_23  and  O_49
    5  A    between atoms: C_25  and  C_30
    6  A    between atoms: C_25  and  C_45
    7  A    between atoms: C_28  and  C_43
    8  A    between atoms: C_35  and  C_45
    9  A    between atoms: C_36  and  C_44
   10  A    between atoms: C_46  and  N_48
                            x       y       z     vdW  Elec       q    Type
                         _______ _______ _______ _____ _____    ______ ____

>  <TORSDO>
F 10

$$$$
=
 OpenBabel11042414303D

 52 59  0  0  1  0  0  0  0  0999 V2000
  190.3410  177.0900  143.4850 C   0  0  0  0  0  3  0  0  0  0  0  0
  192.2710  175.6590  145.3890 C   0  0  0  0  0  0  0  0  0  0  0  0
  191.4700  176.6670  145.6550 C   0  0  0  0  0  0  0  0  0  0  0  0
  193.6010  174.1370  140.4460 C   0  0  2  0  0  3  0  0  0  0  0  0
  194.7240  174.7200  142.1870 C   0  0  1  0  0  3  0  0  0  0  0  0
  192.4010  174.2680  142.6060 C   0  0  1  0  0  3  0  0  0  0  0  0
  193.7170  174.9380  139.3110 O   0  0  0  0  0  1  0  0  0  0  0  0
  193.3180  175.0110  141.6550 C   0  0  2  0  0  3  0  0  0  0  0  0
  193.1560  174.0360  143.8350 N   0  0  0  0  0  0  0  0  0  0  0  0
  194.4180  174.6860  145.7620 C   0  0  0  0  0  2  0  0  0  0  0  0
  191.1900  177.6720  144.5760 C   0  0  0  0  0  2  0  0  0  0  0  0
  195.3780  174.4750  144.6000 C   0  0  0  0  0  2  0  0  0  0  0  0
  190.6320  175.9080  143.0190 C   0  0  0  0  0  0  0  0  0  0  0  0
  194.5470  173.8870  143.4620 C   0  0  2  0  0  3  0  0  0  0  0  0
  190.9630  174.6880  142.6830 C   0  0  0  0  0  0  0  0  0  0  0  0
  194.9860  173.8260  140.9880 C   0  0  0  0  0  2  0  0  0  0  0  0
  193.0900  174.6800  145.1140 C   0  0  0  0  0  0  0  0  0  0  0  0
  190.0880  173.1590  140.9950 N   0  0  0  0  0  0  0  0  0  0  0  0
  190.0720  172.4210  143.1610 C   0  0  0  0  0  0  0  0  0  0  0  0
  190.2830  171.3870  142.4210 N   0  0  0  0  0  0  0  0  0  0  0  0
  189.9410  172.3410  144.6430 C   0  0  0  0  0  1  0  0  0  0  0  0
  189.9130  173.6650  142.3500 C   0  0  1  0  0  3  0  0  0  0  0  0
  190.2800  171.8850  141.0870 C   0  0  0  0  0  0  0  0  0  0  0  0
  191.3710  169.8030  140.2560 C   0  0  0  0  0  0  0  0  0  0  0  0
  191.2340  171.8900  138.8210 C   0  0  0  0  0  2  0  0  0  0  0  0
  192.3820  169.3200  139.3630 N   0  0  0  0  0  2  0  0  0  0  0  0
  190.5620  171.0310  139.8930 C   0  0  2  0  0  3  0  0  0  0  0  0
  192.9240  170.1390  138.2860 C   0  0  0  0  0  2  0  0  0  0  0  0
  190.8210  168.7940  141.4210 S   0  0  0  0  0  0  0  0  0  0  0  0
  191.8210  171.0340  137.7040 C   0  0  2  0  0  3  0  0  0  0  0  0
  193.8990  172.8280  134.5130 O   0  0  0  0  0  0  0  0  0  0  0  0
  191.7210  173.6570  135.0550 C   0  0  0  0  0  2  0  0  0  0  0  0
  194.1930  173.3030  135.8040 C   0  0  1  0  0  3  0  0  0  0  0  0
  193.2100  173.9980  134.9080 C   0  0  1  0  0  3  0  0  0  0  0  0
  193.6120  172.3750  136.8890 C   0  0  0  0  0  2  0  0  0  0  0  0
  192.2720  171.8750  136.5840 N   0  0  2  0  0  0  0  0  0  0  0  0
  191.3940  173.0250  136.3930 C   0  0  0  0  0  2  0  0  0  0  0  0
  189.5620  177.2240  147.0800 C   0  0  0  0  0  0  0  0  0  0  0  0
  188.3250  177.6290  147.1780 C   0  0  0  0  0  3  0  0  0  0  0  0
  190.8000  176.8100  146.9600 C   0  0  0  0  0  3  0  0  0  0  0  0
  185.9820  176.7980  146.9120 C   0  0  0  0  0  1  0  0  0  0  0  0
  187.2890  177.1470  146.2110 C   0  0  1  0  0  3  0  0  0  0  0  0
  187.0550  178.1530  145.0830 C   0  0  0  0  0  2  0  0  0  0  0  0
  185.6580  178.0470  144.4800 C   0  0  2  0  0  3  0  0  0  0  0  0
  186.2920  175.8860  142.7200 O   0  0  0  0  0  1  0  0  0  0  0  0
  185.7660  177.4980  142.7500 P   0  0  1  0  0  0  0  0  0  0  0  0
  184.3980  177.5910  142.1110 O   0  0  0  0  0  0  0  0  0  0  0  0
  187.5700  177.6160  141.0680 C   0  0  0  0  0  1  0  0  0  0  0  0
  186.8690  178.4800  141.9140 O   0  0  0  0  0  0  0  0  0  0  0  0
  184.9510  179.3600  144.5740 C   0  0  0  0  0  0  0  0  0  0  0  0
  183.6370  179.4260  145.0240 O   0  0  0  0  0  1  0  0  0  0  0  0
  185.5540  180.4170  144.2510 O   0  0  0  0  0  0  0  0  0  0  0  0
  1 11  1  0  0  0  0
  2  3  2  0  0  0  0
  3 40  1  0  0  0  0
  4  7  1  6  0  0  0
  4 16  1  0  0  0  0
  4  8  1  0  0  0  0
  5 16  1  6  0  0  0
  5 14  1  0  0  0  0
  6 15  1  1  0  0  0
  6  9  1  0  0  0  0
  8  5  1  0  0  0  0
  8  6  1  0  0  0  0
  9 17  1  0  0  0  0
 11  3  1  0  0  0  0
 12 10  1  0  0  0  0
 13  1  2  0  0  0  0
 14  9  1  0  0  0  0
 14 12  1  0  0  0  0
 15 13  2  0  0  0  0
 17  2  2  0  0  0  0
 17 10  1  0  0  0  0
 18 23  2  0  0  0  0
 18 22  1  0  0  0  0
 19 21  1  0  0  0  0
 20 19  2  0  0  0  0
 22 15  1  0  0  0  0
 22 19  1  0  0  0  0
 23 20  1  0  0  0  0
 24 29  2  0  0  0  0
 25 27  1  0  0  0  0
 26 24  1  0  0  0  0
 27 24  1  0  0  0  0
 27 23  1  0  0  0  0
 28 26  1  0  0  0  0
 30 28  1  0  0  0  0
 30 25  1  0  0  0  0
 31 34  1  0  0  0  0
 31 33  1  0  0  0  0
 32 37  1  0  0  0  0
 33 35  1  0  0  0  0
 34 32  1  0  0  0  0
 34 33  1  0  0  0  0
 36 35  1  0  0  0  0
 36 30  1  0  0  0  0
 37 36  1  0  0  0  0
 38 39  2  0  0  0  0
 40 38  2  0  0  0  0
 42 41  1  0  0  0  0
 42 39  1  0  0  0  0
 43 42  1  0  0  0  0
 44 50  1  0  0  0  0
 44 43  1  0  0  0  0
 45 46  1  0  0  0  0
 46 44  1  0  0  0  0
 47 46  2  0  0  0  0
 48 49  1  0  0  0  0
 49 46  1  0  0  0  0
 50 51  1  0  0  0  0
 52 50  2  0  0  0  0
M  END
>  <MODEL>
9

>  <REMARK>
 VINA RESULT:      -7.0      3.442      9.192
  Name = 
  10 active torsions:
  status: ('A' for Active; 'I' for Inactive)
    1  A    between atoms: C_8  and  C_33
    2  A    between atoms: C_9  and  C_35
    3  A    between atoms: P_23  and  C_35
    4  A    between atoms: P_23  and  O_49
    5  A    between atoms: C_25  and  C_30
    6  A    between atoms: C_25  and  C_45
    7  A    between atoms: C_28  and  C_43
    8  A    between atoms: C_35  and  C_45
    9  A    between atoms: C_36  and  C_44
   10  A    between atoms: C_46  and  N_48
                            x       y       z     vdW  Elec       q    Type
                         _______ _______ _______ _____ _____    ______ ____

>  <TORSDO>
F 10

$$$$
