=
 OpenBabel11042415053D

 53 60  0  0  1  0  0  0  0  0999 V2000
  182.0290  178.6060  141.3600 C   0  0  0  0  0  0  0  0  0  0  0  0
  182.1760  178.6380  142.6560 N   0  0  0  0  0  0  0  0  0  0  0  0
  185.7430  178.5560  143.0200 C   0  0  0  0  0  3  0  0  0  0  0  0
  185.5350  178.1410  141.7630 C   0  0  0  0  0  0  0  0  0  0  0  0
  183.2770  178.2510  140.6290 C   0  0  0  0  0  3  0  0  0  0  0  0
  183.5080  178.2000  142.8330 C   0  0  0  0  0  0  0  0  0  0  0  0
  184.1120  177.9270  141.6000 C   0  0  0  0  0  0  0  0  0  0  0  0
  184.4240  178.6270  143.6890 C   0  0  0  0  0  0  0  0  0  0  0  0
  179.1670  180.1790  139.8990 O   0  0  0  0  0  0  0  0  0  0  0  0
  178.8530  178.9380  139.6640 N   0  0  0  0  0  0  0  0  0  0  0  0
  180.7820  179.0020  140.6990 C   0  0  0  0  0  0  0  0  0  0  0  0
  180.3180  180.2870  140.5210 C   0  0  0  0  0  3  0  0  0  0  0  0
  179.8370  178.1610  140.1510 C   0  0  0  0  0  3  0  0  0  0  0  0
  186.5750  177.9830  140.7070 C   0  0  0  0  0  2  0  0  0  0  0  0
  188.2230  177.6660  141.4330 S   0  0  0  0  0  0  0  0  0  0  0  0
  188.2660  175.8580  141.1400 C   0  0  1  0  0  3  0  0  0  0  0  0
  188.4460  174.4840  143.0490 O   0  0  0  0  0  0  0  0  0  0  0  0
  187.7070  175.0990  142.2980 C   0  0  0  0  0  3  0  0  0  0  0  0
  187.5650  175.5030  139.9160 N   0  0  0  0  0  2  0  0  0  0  0  0
  189.5260  174.2650  139.7830 O   0  0  0  0  0  1  0  0  0  0  0  0
  188.1840  174.2900  139.4020 C   0  0  2  0  0  3  0  0  0  0  0  0
  188.0790  174.2450  137.8810 C   0  0  2  0  0  3  0  0  0  0  0  0
  189.3540  174.3100  137.3170 O   0  0  0  0  0  1  0  0  0  0  0  0
  187.2870  175.3710  137.4100 N   0  0  0  0  0  2  0  0  0  0  0  0
  186.4810  176.2780  135.3150 C   0  0  0  0  0  2  0  0  0  0  0  0
  187.6910  177.0800  135.7430 C   0  0  0  0  0  2  0  0  0  0  0  0
  187.6350  175.5900  136.0160 C   0  0  0  0  0  3  0  0  0  0  0  0
  184.1450  179.3200  144.9810 C   0  0  0  0  0  2  0  0  0  0  0  0
  187.4760  177.3180  145.8340 C   0  0  2  0  0  3  0  0  0  0  0  0
  184.7800  178.5690  146.1400 C   0  0  1  0  0  3  0  0  0  0  0  0
  185.0010  177.1300  145.7470 C   0  0  0  0  0  2  0  0  0  0  0  0
  186.8060  178.0650  146.9710 C   0  0  2  0  0  3  0  0  0  0  0  0
  186.2400  176.7410  146.4980 C   0  0  2  0  0  3  0  0  0  0  0  0
  186.0320  179.1190  146.4530 O   0  0  0  0  0  0  0  0  0  0  0  0
  189.8690  176.5700  145.5820 C   0  0  0  0  0  0  0  0  0  0  0  0
  191.0190  175.9530  146.1600 N   0  0  0  0  0  2  0  0  0  0  0  0
  189.9230  177.0550  144.4180 O   0  0  0  0  0  0  0  0  0  0  0  0
  188.6600  176.6420  146.3360 N   0  0  0  0  0  2  0  0  0  0  0  0
  194.3940  174.7010  145.8810 C   0  0  1  0  0  3  0  0  0  0  0  0
  194.4640  176.0240  146.6170 C   0  0  0  0  0  2  0  0  0  0  0  0
  192.3030  175.8900  145.4780 C   0  0  2  0  0  3  0  0  0  0  0  0
  192.9040  174.5060  145.6470 C   0  0  1  0  0  3  0  0  0  0  0  0
  193.2890  176.8530  146.1250 C   0  0  0  0  0  2  0  0  0  0  0  0
  192.5610  173.5540  144.5380 C   0  0  0  0  0  0  0  0  0  0  0  0
  191.9820  171.7340  142.4870 C   0  0  0  0  0  3  0  0  0  0  0  0
  191.9760  173.9990  143.3430 C   0  0  0  0  0  3  0  0  0  0  0  0
  191.6850  173.0910  142.3210 C   0  0  0  0  0  3  0  0  0  0  0  0
  192.5700  171.2870  143.6730 C   0  0  0  0  0  3  0  0  0  0  0  0
  192.8620  172.1970  144.6950 C   0  0  0  0  0  3  0  0  0  0  0  0
  195.0920  174.8120  144.6430 O   0  0  0  0  0  0  0  0  0  0  0  0
  197.1880  173.8210  145.5490 C   0  0  0  0  0  1  0  0  0  0  0  0
  197.1270  175.1960  143.6130 O   0  0  0  0  0  0  0  0  0  0  0  0
  196.4760  174.6500  144.5430 C   0  0  0  0  0  0  0  0  0  0  0  0
  1  2  1  0  0  0  0
  2  6  2  0  0  0  0
  3  8  2  0  0  0  0
  4  3  1  0  0  0  0
  5  1  2  0  0  0  0
  5  7  1  0  0  0  0
  6  8  1  0  0  0  0
  7  4  2  0  0  0  0
  7  6  1  0  0  0  0
  8 28  1  0  0  0  0
  9 12  1  0  0  0  0
 10  9  1  0  0  0  0
 10 13  2  0  0  0  0
 11  1  1  0  0  0  0
 12 11  2  0  0  0  0
 13 11  1  0  0  0  0
 14 15  1  0  0  0  0
 14  4  1  0  0  0  0
 16 15  1  0  0  0  0
 16 18  1  1  0  0  0
 18 17  2  0  0  0  0
 19 16  1  0  0  0  0
 21 20  1  6  0  0  0
 21 19  1  0  0  0  0
 22 23  1  6  0  0  0
 22 21  1  0  0  0  0
 24 22  1  0  0  0  0
 25 26  1  0  0  0  0
 25 27  1  0  0  0  0
 26 27  1  0  0  0  0
 27 24  1  0  0  0  0
 29 38  1  1  0  0  0
 29 33  1  0  0  0  0
 29 32  1  0  0  0  0
 30 28  1  6  0  0  0
 30 34  1  0  0  0  0
 31 30  1  0  0  0  0
 32 34  1  6  0  0  0
 33 31  1  6  0  0  0
 33 32  1  0  0  0  0
 35 36  1  0  0  0  0
 35 38  1  0  0  0  0
 37 35  2  0  0  0  0
 39 50  1  6  0  0  0
 39 40  1  0  0  0  0
 41 42  1  0  0  0  0
 41 43  1  0  0  0  0
 41 36  1  1  0  0  0
 42 44  1  6  0  0  0
 42 39  1  0  0  0  0
 43 40  1  0  0  0  0
 44 49  1  0  0  0  0
 45 48  1  0  0  0  0
 46 44  2  0  0  0  0
 47 45  2  0  0  0  0
 47 46  1  0  0  0  0
 48 49  2  0  0  0  0
 52 53  2  0  0  0  0
 53 50  1  0  0  0  0
 53 51  1  0  0  0  0
M  END
>  <MODEL>
1

>  <REMARK>
 VINA RESULT:      -7.7      0.000      0.000
  Name = 
  17 active torsions:
  status: ('A' for Active; 'I' for Inactive)
    1  A    between atoms: C_1  and  N_37
    2  A    between atoms: C_5  and  C_7
    3  A    between atoms: O_6  and  C_9
    4  A    between atoms: O_6  and  C_51
    5  A    between atoms: C_7  and  N_43
    6  A    between atoms: C_7  and  S_44
    7  A    between atoms: C_8  and  C_36
    8  A    between atoms: C_10  and  C_17
    9  A    between atoms: C_12  and  C_42
   10  A    between atoms: N_15  and  C_38
   11  A    between atoms: N_15  and  C_45
   12  A    between atoms: C_23  and  C_29
   13  A    between atoms: N_25  and  C_39
   14  A    between atoms: C_29  and  S_44
   15  A    between atoms: C_30  and  N_43
   16  A    between atoms: C_30  and  C_45
   17  A    between atoms: C_36  and  C_49
                            x       y       z     vdW  Elec       q    Type
                         _______ _______ _______ _____ _____    ______ ____

>  <TORSDO>
F 17

$$$$
=
 OpenBabel11042415053D

 53 60  0  0  1  0  0  0  0  0999 V2000
  182.0610  178.6260  141.4650 C   0  0  0  0  0  0  0  0  0  0  0  0
  182.2730  178.6630  142.7520 N   0  0  0  0  0  0  0  0  0  0  0  0
  185.8460  178.4210  142.9420 C   0  0  0  0  0  3  0  0  0  0  0  0
  185.5580  178.0060  141.7010 C   0  0  0  0  0  0  0  0  0  0  0  0
  183.2540  178.2090  140.6780 C   0  0  0  0  0  3  0  0  0  0  0  0
  183.5910  178.1660  142.8690 C   0  0  0  0  0  0  0  0  0  0  0  0
  184.1200  177.8560  141.6100 C   0  0  0  0  0  0  0  0  0  0  0  0
  184.5660  178.5570  143.6750 C   0  0  0  0  0  0  0  0  0  0  0  0
  179.2490  180.3130  140.0330 O   0  0  0  0  0  0  0  0  0  0  0  0
  178.7800  179.0990  140.0220 N   0  0  0  0  0  0  0  0  0  0  0  0
  180.8020  179.0740  140.8620 C   0  0  0  0  0  0  0  0  0  0  0  0
  180.4640  180.3670  140.5270 C   0  0  0  0  0  3  0  0  0  0  0  0
  179.7190  178.2850  140.5360 C   0  0  0  0  0  3  0  0  0  0  0  0
  186.5370  177.7920  140.5970 C   0  0  0  0  0  2  0  0  0  0  0  0
  188.1290  177.1540  141.2290 S   0  0  0  0  0  0  0  0  0  0  0  0
  187.7900  175.3730  140.9680 C   0  0  1  0  0  3  0  0  0  0  0  0
  187.7230  174.7470  138.6950 O   0  0  0  0  0  0  0  0  0  0  0  0
  188.4020  174.8770  139.6990 C   0  0  0  0  0  3  0  0  0  0  0  0
  188.2460  174.5760  142.0960 N   0  0  0  0  0  2  0  0  0  0  0  0
  187.0650  172.5880  141.8700 O   0  0  0  0  0  1  0  0  0  0  0  0
  188.3030  173.1920  141.6490 C   0  0  2  0  0  3  0  0  0  0  0  0
  189.3880  172.4350  142.4080 C   0  0  2  0  0  3  0  0  0  0  0  0
  189.7020  173.1140  143.5870 O   0  0  0  0  0  1  0  0  0  0  0  0
  190.5820  172.3290  141.5840 N   0  0  0  0  0  2  0  0  0  0  0  0
  191.3760  171.6910  139.3860 C   0  0  0  0  0  2  0  0  0  0  0  0
  190.6490  170.5090  139.9880 C   0  0  0  0  0  2  0  0  0  0  0  0
  190.1550  171.9160  140.2560 C   0  0  0  0  0  3  0  0  0  0  0  0
  184.3830  179.2730  144.9710 C   0  0  0  0  0  2  0  0  0  0  0  0
  187.5160  176.8730  145.4770 C   0  0  2  0  0  3  0  0  0  0  0  0
  185.1230  178.5560  146.0880 C   0  0  1  0  0  3  0  0  0  0  0  0
  185.0690  177.0670  145.8550 C   0  0  0  0  0  2  0  0  0  0  0  0
  187.1860  177.8290  146.6070 C   0  0  2  0  0  3  0  0  0  0  0  0
  186.3650  176.5690  146.4200 C   0  0  2  0  0  3  0  0  0  0  0  0
  186.4760  178.9330  146.0990 O   0  0  0  0  0  0  0  0  0  0  0  0
  189.9620  176.3020  145.2780 C   0  0  0  0  0  0  0  0  0  0  0  0
  191.0730  175.5300  145.7340 N   0  0  0  0  0  2  0  0  0  0  0  0
  190.1190  177.1800  144.3860 O   0  0  0  0  0  0  0  0  0  0  0  0
  188.6720  176.0750  145.8470 N   0  0  0  0  0  2  0  0  0  0  0  0
  194.6530  175.3280  146.1550 C   0  0  1  0  0  3  0  0  0  0  0  0
  194.2280  176.7190  146.5830 C   0  0  0  0  0  2  0  0  0  0  0  0
  192.4280  175.7390  145.2450 C   0  0  2  0  0  3  0  0  0  0  0  0
  193.3400  174.6540  145.7890 C   0  0  1  0  0  3  0  0  0  0  0  0
  192.9810  177.0530  145.7790 C   0  0  0  0  0  2  0  0  0  0  0  0
  193.4750  173.4630  144.8850 C   0  0  0  0  0  0  0  0  0  0  0  0
  193.7740  171.2080  143.2480 C   0  0  0  0  0  3  0  0  0  0  0  0
  193.4280  173.5920  143.4880 C   0  0  0  0  0  3  0  0  0  0  0  0
  193.5750  172.4670  142.6730 C   0  0  0  0  0  3  0  0  0  0  0  0
  193.8270  171.0760  144.6390 C   0  0  0  0  0  3  0  0  0  0  0  0
  193.6810  172.2020  145.4550 C   0  0  0  0  0  3  0  0  0  0  0  0
  195.5080  175.4250  145.0180 O   0  0  0  0  0  0  0  0  0  0  0  0
  197.0390  173.6920  145.9380 C   0  0  0  0  0  1  0  0  0  0  0  0
  197.5170  174.9450  143.9770 O   0  0  0  0  0  0  0  0  0  0  0  0
  196.7090  174.7200  144.9180 C   0  0  0  0  0  0  0  0  0  0  0  0
  1  2  1  0  0  0  0
  2  6  2  0  0  0  0
  3  8  2  0  0  0  0
  4  3  1  0  0  0  0
  5  1  2  0  0  0  0
  5  7  1  0  0  0  0
  6  8  1  0  0  0  0
  7  4  2  0  0  0  0
  7  6  1  0  0  0  0
  8 28  1  0  0  0  0
  9 12  1  0  0  0  0
 10  9  1  0  0  0  0
 10 13  2  0  0  0  0
 11  1  1  0  0  0  0
 12 11  2  0  0  0  0
 13 11  1  0  0  0  0
 14 15  1  0  0  0  0
 14  4  1  0  0  0  0
 16 18  1  6  0  0  0
 16 15  1  0  0  0  0
 16 19  1  0  0  0  0
 17 18  2  0  0  0  0
 21 20  1  1  0  0  0
 21 19  1  0  0  0  0
 21 22  1  0  0  0  0
 22 23  1  1  0  0  0
 24 22  1  0  0  0  0
 25 26  1  0  0  0  0
 25 27  1  0  0  0  0
 26 27  1  0  0  0  0
 27 24  1  0  0  0  0
 29 38  1  1  0  0  0
 29 33  1  0  0  0  0
 29 32  1  0  0  0  0
 30 28  1  6  0  0  0
 30 34  1  0  0  0  0
 31 30  1  0  0  0  0
 32 34  1  6  0  0  0
 33 31  1  6  0  0  0
 33 32  1  0  0  0  0
 35 36  1  0  0  0  0
 35 38  1  0  0  0  0
 37 35  2  0  0  0  0
 39 50  1  6  0  0  0
 39 40  1  0  0  0  0
 41 36  1  1  0  0  0
 41 43  1  0  0  0  0
 41 42  1  0  0  0  0
 42 44  1  6  0  0  0
 42 39  1  0  0  0  0
 43 40  1  0  0  0  0
 44 49  1  0  0  0  0
 45 48  1  0  0  0  0
 46 44  2  0  0  0  0
 47 45  2  0  0  0  0
 47 46  1  0  0  0  0
 48 49  2  0  0  0  0
 52 53  2  0  0  0  0
 53 50  1  0  0  0  0
 53 51  1  0  0  0  0
M  END
>  <MODEL>
2

>  <REMARK>
 VINA RESULT:      -7.4      1.564      2.562
  Name = 
  17 active torsions:
  status: ('A' for Active; 'I' for Inactive)
    1  A    between atoms: C_1  and  N_37
    2  A    between atoms: C_5  and  C_7
    3  A    between atoms: O_6  and  C_9
    4  A    between atoms: O_6  and  C_51
    5  A    between atoms: C_7  and  N_43
    6  A    between atoms: C_7  and  S_44
    7  A    between atoms: C_8  and  C_36
    8  A    between atoms: C_10  and  C_17
    9  A    between atoms: C_12  and  C_42
   10  A    between atoms: N_15  and  C_38
   11  A    between atoms: N_15  and  C_45
   12  A    between atoms: C_23  and  C_29
   13  A    between atoms: N_25  and  C_39
   14  A    between atoms: C_29  and  S_44
   15  A    between atoms: C_30  and  N_43
   16  A    between atoms: C_30  and  C_45
   17  A    between atoms: C_36  and  C_49
                            x       y       z     vdW  Elec       q    Type
                         _______ _______ _______ _____ _____    ______ ____

>  <TORSDO>
F 17

$$$$
=
 OpenBabel11042415053D

 53 60  0  0  1  0  0  0  0  0999 V2000
  182.0770  178.5900  141.3180 C   0  0  0  0  0  0  0  0  0  0  0  0
  182.3510  178.8260  142.5710 N   0  0  0  0  0  0  0  0  0  0  0  0
  185.9290  178.5910  142.6270 C   0  0  0  0  0  3  0  0  0  0  0  0
  185.5820  177.9880  141.4810 C   0  0  0  0  0  0  0  0  0  0  0  0
  183.2310  178.0460  140.5500 C   0  0  0  0  0  3  0  0  0  0  0  0
  183.6730  178.3440  142.7020 C   0  0  0  0  0  0  0  0  0  0  0  0
  184.1410  177.8360  141.4840 C   0  0  0  0  0  0  0  0  0  0  0  0
  184.6860  178.8500  143.3890 C   0  0  0  0  0  0  0  0  0  0  0  0
  179.0970  180.0690  140.0020 O   0  0  0  0  0  0  0  0  0  0  0  0
  178.8300  178.8220  139.7440 N   0  0  0  0  0  0  0  0  0  0  0  0
  180.7910  178.9460  140.7120 C   0  0  0  0  0  0  0  0  0  0  0  0
  180.2640  180.2130  140.5850 C   0  0  0  0  0  3  0  0  0  0  0  0
  179.8650  178.0770  140.1750 C   0  0  0  0  0  3  0  0  0  0  0  0
  186.5070  177.5960  140.3800 C   0  0  0  0  0  2  0  0  0  0  0  0
  187.7820  176.4240  140.9620 S   0  0  0  0  0  0  0  0  0  0  0  0
  187.5380  175.1480  139.6710 C   0  0  1  0  0  3  0  0  0  0  0  0
  187.4380  175.2440  137.3170 O   0  0  0  0  0  0  0  0  0  0  0  0
  187.1070  175.7510  138.3750 C   0  0  0  0  0  3  0  0  0  0  0  0
  188.7390  174.3480  139.4840 N   0  0  0  0  0  2  0  0  0  0  0  0
  187.8790  172.8730  141.0590 O   0  0  0  0  0  1  0  0  0  0  0  0
  188.3810  172.9640  139.7610 C   0  0  2  0  0  3  0  0  0  0  0  0
  189.6030  172.0630  139.6170 C   0  0  2  0  0  3  0  0  0  0  0  0
  190.7460  172.8420  139.4250 O   0  0  0  0  0  1  0  0  0  0  0  0
  189.4290  171.1780  138.4750 N   0  0  0  0  0  2  0  0  0  0  0  0
  190.0870  170.8210  136.1720 C   0  0  0  0  0  2  0  0  0  0  0  0
  189.4380  172.1840  136.2730 C   0  0  0  0  0  2  0  0  0  0  0  0
  190.2930  171.6670  137.4130 C   0  0  0  0  0  3  0  0  0  0  0  0
  184.5660  179.7620  144.5640 C   0  0  0  0  0  2  0  0  0  0  0  0
  186.9890  176.8110  145.6820 C   0  0  2  0  0  3  0  0  0  0  0  0
  185.0350  179.0670  145.8310 C   0  0  1  0  0  3  0  0  0  0  0  0
  184.6400  177.6120  145.7840 C   0  0  0  0  0  2  0  0  0  0  0  0
  186.8220  177.9730  146.6430 C   0  0  2  0  0  3  0  0  0  0  0  0
  185.7380  176.9200  146.5350 C   0  0  2  0  0  3  0  0  0  0  0  0
  186.4340  179.1220  145.9310 O   0  0  0  0  0  0  0  0  0  0  0  0
  188.8700  175.1460  145.4840 C   0  0  0  0  0  0  0  0  0  0  0  0
  189.7750  174.2490  146.1280 N   0  0  0  0  0  2  0  0  0  0  0  0
  188.9380  175.3350  144.2380 O   0  0  0  0  0  0  0  0  0  0  0  0
  187.8920  175.8330  146.2650 N   0  0  0  0  0  2  0  0  0  0  0  0
  191.7030  173.6500  143.1350 C   0  0  1  0  0  3  0  0  0  0  0  0
  190.5830  172.6280  143.1610 C   0  0  0  0  0  2  0  0  0  0  0  0
  190.8340  173.5540  145.4120 C   0  0  2  0  0  3  0  0  0  0  0  0
  191.4490  174.4840  144.3810 C   0  0  1  0  0  3  0  0  0  0  0  0
  190.2570  172.3850  144.6250 C   0  0  0  0  0  2  0  0  0  0  0  0
  192.6410  175.2450  144.8820 C   0  0  0  0  0  0  0  0  0  0  0  0
  194.8850  176.6860  145.7460 C   0  0  0  0  0  3  0  0  0  0  0  0
  193.3600  174.8240  146.0110 C   0  0  0  0  0  3  0  0  0  0  0  0
  194.4780  175.5440  146.4430 C   0  0  0  0  0  3  0  0  0  0  0  0
  194.1750  177.1070  144.6170 C   0  0  0  0  0  3  0  0  0  0  0  0
  193.0570  176.3860  144.1850 C   0  0  0  0  0  3  0  0  0  0  0  0
  192.9570  172.9780  143.2210 O   0  0  0  0  0  0  0  0  0  0  0  0
  193.7630  174.0200  141.1090 C   0  0  0  0  0  1  0  0  0  0  0  0
  195.1850  172.8520  142.6120 O   0  0  0  0  0  0  0  0  0  0  0  0
  194.0180  173.2500  142.3540 C   0  0  0  0  0  0  0  0  0  0  0  0
  1  2  1  0  0  0  0
  2  6  2  0  0  0  0
  3  8  2  0  0  0  0
  4  7  2  0  0  0  0
  4  3  1  0  0  0  0
  5  1  2  0  0  0  0
  5  7  1  0  0  0  0
  6  8  1  0  0  0  0
  7  6  1  0  0  0  0
  8 28  1  0  0  0  0
  9 12  1  0  0  0  0
 10  9  1  0  0  0  0
 10 13  2  0  0  0  0
 11  1  1  0  0  0  0
 12 11  2  0  0  0  0
 13 11  1  0  0  0  0
 14 15  1  0  0  0  0
 14  4  1  0  0  0  0
 16 18  1  6  0  0  0
 16 15  1  0  0  0  0
 17 18  2  0  0  0  0
 19 16  1  0  0  0  0
 19 21  1  0  0  0  0
 21 20  1  1  0  0  0
 22 23  1  6  0  0  0
 22 21  1  0  0  0  0
 24 22  1  0  0  0  0
 25 26  1  0  0  0  0
 25 27  1  0  0  0  0
 26 27  1  0  0  0  0
 27 24  1  0  0  0  0
 29 38  1  1  0  0  0
 29 33  1  0  0  0  0
 29 32  1  0  0  0  0
 30 28  1  6  0  0  0
 30 34  1  0  0  0  0
 31 30  1  0  0  0  0
 32 34  1  6  0  0  0
 33 31  1  6  0  0  0
 33 32  1  0  0  0  0
 35 36  1  0  0  0  0
 35 38  1  0  0  0  0
 37 35  2  0  0  0  0
 39 40  1  0  0  0  0
 39 50  1  1  0  0  0
 39 42  1  0  0  0  0
 40 43  1  0  0  0  0
 41 36  1  6  0  0  0
 42 44  1  1  0  0  0
 42 41  1  0  0  0  0
 43 41  1  0  0  0  0
 44 46  1  0  0  0  0
 45 47  1  0  0  0  0
 46 47  2  0  0  0  0
 48 45  2  0  0  0  0
 49 48  1  0  0  0  0
 49 44  2  0  0  0  0
 51 53  1  0  0  0  0
 53 52  2  0  0  0  0
 53 50  1  0  0  0  0
M  END
>  <MODEL>
3

>  <REMARK>
 VINA RESULT:      -6.9      1.755      3.145
  Name = 
  17 active torsions:
  status: ('A' for Active; 'I' for Inactive)
    1  A    between atoms: C_1  and  N_37
    2  A    between atoms: C_5  and  C_7
    3  A    between atoms: O_6  and  C_9
    4  A    between atoms: O_6  and  C_51
    5  A    between atoms: C_7  and  N_43
    6  A    between atoms: C_7  and  S_44
    7  A    between atoms: C_8  and  C_36
    8  A    between atoms: C_10  and  C_17
    9  A    between atoms: C_12  and  C_42
   10  A    between atoms: N_15  and  C_38
   11  A    between atoms: N_15  and  C_45
   12  A    between atoms: C_23  and  C_29
   13  A    between atoms: N_25  and  C_39
   14  A    between atoms: C_29  and  S_44
   15  A    between atoms: C_30  and  N_43
   16  A    between atoms: C_30  and  C_45
   17  A    between atoms: C_36  and  C_49
                            x       y       z     vdW  Elec       q    Type
                         _______ _______ _______ _____ _____    ______ ____

>  <TORSDO>
F 17

$$$$
=
 OpenBabel11042415053D

 53 60  0  0  1  0  0  0  0  0999 V2000
  197.3280  174.7660  142.2800 C   0  0  0  0  0  0  0  0  0  0  0  0
  197.7960  173.7990  143.0200 N   0  0  0  0  0  0  0  0  0  0  0  0
  195.8890  174.1560  146.0360 C   0  0  0  0  0  3  0  0  0  0  0  0
  195.7300  175.3300  145.4110 C   0  0  0  0  0  0  0  0  0  0  0  0
  196.4960  175.7430  143.0350 C   0  0  0  0  0  3  0  0  0  0  0  0
  197.3740  174.1630  144.3190 C   0  0  0  0  0  0  0  0  0  0  0  0
  196.6480  175.3600  144.2900 C   0  0  0  0  0  0  0  0  0  0  0  0
  196.9260  173.3960  145.3010 C   0  0  0  0  0  0  0  0  0  0  0  0
  197.6980  175.5020  138.7980 O   0  0  0  0  0  0  0  0  0  0  0  0
  197.7990  174.2060  138.7390 N   0  0  0  0  0  0  0  0  0  0  0  0
  197.5100  174.8040  140.8260 C   0  0  0  0  0  0  0  0  0  0  0  0
  197.5230  175.9270  140.0280 C   0  0  0  0  0  3  0  0  0  0  0  0
  197.6840  173.7220  139.9890 C   0  0  0  0  0  3  0  0  0  0  0  0
  194.7460  176.3910  145.7700 C   0  0  0  0  0  2  0  0  0  0  0  0
  193.2370  175.6780  146.5170 S   0  0  0  0  0  0  0  0  0  0  0  0
  192.0180  176.5450  145.4600 C   0  0  1  0  0  3  0  0  0  0  0  0
  192.1220  176.8480  143.1230 O   0  0  0  0  0  0  0  0  0  0  0  0
  192.6440  177.0580  144.2040 C   0  0  0  0  0  3  0  0  0  0  0  0
  190.8850  175.6870  145.1470 N   0  0  0  0  0  2  0  0  0  0  0  0
  189.3310  174.4710  146.3730 O   0  0  0  0  0  1  0  0  0  0  0  0
  190.0120  175.6870  146.3120 C   0  0  2  0  0  3  0  0  0  0  0  0
  189.0120  176.8350  146.2240 C   0  0  2  0  0  3  0  0  0  0  0  0
  189.2140  177.7220  147.2830 O   0  0  0  0  0  1  0  0  0  0  0  0
  187.6560  176.3110  146.2900 N   0  0  0  0  0  2  0  0  0  0  0  0
  185.3310  176.9870  146.3370 C   0  0  0  0  0  2  0  0  0  0  0  0
  185.9030  177.1610  147.7270 C   0  0  0  0  0  2  0  0  0  0  0  0
  186.7670  177.4390  146.5140 C   0  0  0  0  0  3  0  0  0  0  0  0
  197.2030  171.9380  145.4560 C   0  0  0  0  0  2  0  0  0  0  0  0
  193.4220  172.3400  144.2880 C   0  0  2  0  0  3  0  0  0  0  0  0
  196.0900  171.1120  144.8350 C   0  0  1  0  0  3  0  0  0  0  0  0
  194.9210  171.0450  145.7850 C   0  0  0  0  0  2  0  0  0  0  0  0
  194.2830  171.3550  143.5210 C   0  0  2  0  0  3  0  0  0  0  0  0
  193.7280  170.9760  144.8790 C   0  0  2  0  0  3  0  0  0  0  0  0
  195.6380  171.7120  143.6500 O   0  0  0  0  0  0  0  0  0  0  0  0
  191.7180  173.1700  142.6270 C   0  0  0  0  0  0  0  0  0  0  0  0
  190.4030  173.0720  142.0790 N   0  0  0  0  0  2  0  0  0  0  0  0
  192.5540  173.9770  142.1360 O   0  0  0  0  0  0  0  0  0  0  0  0
  192.0800  172.3390  143.7300 N   0  0  0  0  0  2  0  0  0  0  0  0
  187.9420  173.9170  139.5770 C   0  0  1  0  0  3  0  0  0  0  0  0
  188.8600  172.8730  138.9710 C   0  0  0  0  0  2  0  0  0  0  0  0
  189.9760  173.8420  140.9210 C   0  0  2  0  0  3  0  0  0  0  0  0
  188.4780  174.0800  140.9910 C   0  0  1  0  0  3  0  0  0  0  0  0
  190.2110  173.0460  139.6450 C   0  0  0  0  0  2  0  0  0  0  0  0
  188.0960  175.3670  141.6630 C   0  0  0  0  0  0  0  0  0  0  0  0
  187.4570  177.7770  142.9420 C   0  0  0  0  0  3  0  0  0  0  0  0
  186.8210  175.5570  142.2160 C   0  0  0  0  0  3  0  0  0  0  0  0
  186.5020  176.7600  142.8530 C   0  0  0  0  0  3  0  0  0  0  0  0
  188.7310  177.5900  142.3970 C   0  0  0  0  0  3  0  0  0  0  0  0
  189.0500  176.3860  141.7620 C   0  0  0  0  0  3  0  0  0  0  0  0
  188.0630  175.1340  138.8450 O   0  0  0  0  0  0  0  0  0  0  0  0
  186.1580  175.8560  137.4150 C   0  0  0  0  0  1  0  0  0  0  0  0
  188.1870  174.9820  136.5400 O   0  0  0  0  0  0  0  0  0  0  0  0
  187.5270  175.2990  137.5660 C   0  0  0  0  0  0  0  0  0  0  0  0
  1  2  2  0  0  0  0
  1  5  1  0  0  0  0
  2  6  1  0  0  0  0
  4 14  1  0  0  0  0
  4  3  2  0  0  0  0
  5  7  2  0  0  0  0
  6  8  2  0  0  0  0
  7  6  1  0  0  0  0
  7  4  1  0  0  0  0
  8 28  1  0  0  0  0
  8  3  1  0  0  0  0
  9 12  1  0  0  0  0
 10  9  1  0  0  0  0
 10 13  2  0  0  0  0
 11  1  1  0  0  0  0
 12 11  2  0  0  0  0
 13 11  1  0  0  0  0
 14 15  1  0  0  0  0
 16 18  1  6  0  0  0
 16 15  1  0  0  0  0
 17 18  2  0  0  0  0
 19 16  1  0  0  0  0
 19 21  1  0  0  0  0
 21 20  1  6  0  0  0
 22 24  1  0  0  0  0
 22 21  1  0  0  0  0
 22 23  1  1  0  0  0
 24 27  1  0  0  0  0
 25 27  1  0  0  0  0
 25 26  1  0  0  0  0
 27 26  1  0  0  0  0
 29 38  1  6  0  0  0
 29 33  1  0  0  0  0
 30 28  1  1  0  0  0
 30 31  1  0  0  0  0
 32 34  1  1  0  0  0
 32 29  1  0  0  0  0
 32 33  1  0  0  0  0
 33 31  1  1  0  0  0
 34 30  1  0  0  0  0
 35 38  1  0  0  0  0
 36 35  1  0  0  0  0
 37 35  2  0  0  0  0
 39 50  1  6  0  0  0
 39 42  1  0  0  0  0
 40 39  1  0  0  0  0
 40 43  1  0  0  0  0
 41 42  1  0  0  0  0
 41 36  1  1  0  0  0
 42 44  1  6  0  0  0
 43 41  1  0  0  0  0
 44 49  2  0  0  0  0
 44 46  1  0  0  0  0
 46 47  2  0  0  0  0
 47 45  1  0  0  0  0
 48 45  2  0  0  0  0
 49 48  1  0  0  0  0
 51 53  1  0  0  0  0
 52 53  2  0  0  0  0
 53 50  1  0  0  0  0
M  END
>  <MODEL>
4

>  <REMARK>
 VINA RESULT:      -6.9      3.753     11.019
  Name = 
  17 active torsions:
  status: ('A' for Active; 'I' for Inactive)
    1  A    between atoms: C_1  and  N_37
    2  A    between atoms: C_5  and  C_7
    3  A    between atoms: O_6  and  C_9
    4  A    between atoms: O_6  and  C_51
    5  A    between atoms: C_7  and  N_43
    6  A    between atoms: C_7  and  S_44
    7  A    between atoms: C_8  and  C_36
    8  A    between atoms: C_10  and  C_17
    9  A    between atoms: C_12  and  C_42
   10  A    between atoms: N_15  and  C_38
   11  A    between atoms: N_15  and  C_45
   12  A    between atoms: C_23  and  C_29
   13  A    between atoms: N_25  and  C_39
   14  A    between atoms: C_29  and  S_44
   15  A    between atoms: C_30  and  N_43
   16  A    between atoms: C_30  and  C_45
   17  A    between atoms: C_36  and  C_49
                            x       y       z     vdW  Elec       q    Type
                         _______ _______ _______ _____ _____    ______ ____

>  <TORSDO>
F 17

$$$$
=
 OpenBabel11042415053D

 53 60  0  0  1  0  0  0  0  0999 V2000
  196.3540  175.5960  141.6700 C   0  0  0  0  0  0  0  0  0  0  0  0
  197.1770  175.1030  142.5550 N   0  0  0  0  0  0  0  0  0  0  0  0
  195.1360  174.9650  145.5000 C   0  0  0  0  0  3  0  0  0  0  0  0
  194.4780  175.8040  144.6880 C   0  0  0  0  0  0  0  0  0  0  0  0
  195.1100  176.1570  142.2650 C   0  0  0  0  0  3  0  0  0  0  0  0
  196.5480  175.4170  143.7810 C   0  0  0  0  0  0  0  0  0  0  0  0
  195.3430  176.0950  143.5630 C   0  0  0  0  0  0  0  0  0  0  0  0
  196.4560  174.6930  144.8860 C   0  0  0  0  0  0  0  0  0  0  0  0
  196.2970  175.2170  138.1130 O   0  0  0  0  0  0  0  0  0  0  0  0
  197.5720  175.4230  138.2700 N   0  0  0  0  0  0  0  0  0  0  0  0
  196.5920  175.4890  140.2280 C   0  0  0  0  0  0  0  0  0  0  0  0
  195.6480  175.2450  139.2540 C   0  0  0  0  0  3  0  0  0  0  0  0
  197.8070  175.5970  139.5830 C   0  0  0  0  0  3  0  0  0  0  0  0
  193.0860  176.3020  144.8810 C   0  0  0  0  0  2  0  0  0  0  0  0
  192.1620  175.2630  146.0680 S   0  0  0  0  0  0  0  0  0  0  0  0
  190.5880  175.1820  145.1360 C   0  0  1  0  0  3  0  0  0  0  0  0
  190.0420  172.8900  145.2480 O   0  0  0  0  0  0  0  0  0  0  0  0
  189.7470  174.0280  145.5740 C   0  0  0  0  0  3  0  0  0  0  0  0
  189.8410  176.4250  145.2500 N   0  0  0  0  0  2  0  0  0  0  0  0
  189.8170  178.0420  143.5820 O   0  0  0  0  0  1  0  0  0  0  0  0
  189.3650  176.7650  143.9170 C   0  0  2  0  0  3  0  0  0  0  0  0
  187.8410  176.7300  143.8740 C   0  0  2  0  0  3  0  0  0  0  0  0
  187.3630  177.8220  143.1480 O   0  0  0  0  0  1  0  0  0  0  0  0
  187.3100  176.7830  145.2270 N   0  0  0  0  0  2  0  0  0  0  0  0
  185.1950  176.8970  146.4020 C   0  0  0  0  0  2  0  0  0  0  0  0
  185.7070  178.3080  146.2110 C   0  0  0  0  0  2  0  0  0  0  0  0
  185.9420  177.2670  145.1350 C   0  0  0  0  0  3  0  0  0  0  0  0
  197.3840  173.5940  145.2810 C   0  0  0  0  0  2  0  0  0  0  0  0
  193.9770  172.0210  143.9580 C   0  0  2  0  0  3  0  0  0  0  0  0
  196.8030  172.2410  144.9030 C   0  0  1  0  0  3  0  0  0  0  0  0
  195.6360  171.9240  145.8030 C   0  0  0  0  0  2  0  0  0  0  0  0
  195.2650  171.3410  143.5340 C   0  0  2  0  0  3  0  0  0  0  0  0
  194.7180  171.1210  144.9300 C   0  0  2  0  0  3  0  0  0  0  0  0
  196.3250  172.2650  143.5830 O   0  0  0  0  0  0  0  0  0  0  0  0
  191.8600  171.9520  142.5940 C   0  0  0  0  0  0  0  0  0  0  0  0
  190.8120  171.1780  142.0100 N   0  0  0  0  0  2  0  0  0  0  0  0
  191.9150  173.1980  142.4000 O   0  0  0  0  0  0  0  0  0  0  0  0
  192.8470  171.3030  143.3940 N   0  0  0  0  0  2  0  0  0  0  0  0
  189.6880  173.7540  139.7440 C   0  0  1  0  0  3  0  0  0  0  0  0
  189.1960  174.1270  141.1290 C   0  0  0  0  0  2  0  0  0  0  0  0
  189.8000  171.7560  141.1380 C   0  0  2  0  0  3  0  0  0  0  0  0
  190.4730  172.4730  139.9820 C   0  0  1  0  0  3  0  0  0  0  0  0
  189.0100  172.8210  141.8860 C   0  0  0  0  0  2  0  0  0  0  0  0
  190.6630  171.6170  138.7630 C   0  0  0  0  0  0  0  0  0  0  0  0
  191.0400  170.0820  136.4490 C   0  0  0  0  0  3  0  0  0  0  0  0
  189.8440  170.5060  138.5110 C   0  0  0  0  0  3  0  0  0  0  0  0
  190.0340  169.7390  137.3570 C   0  0  0  0  0  3  0  0  0  0  0  0
  191.8550  171.1920  136.6930 C   0  0  0  0  0  3  0  0  0  0  0  0
  191.6640  171.9590  137.8470 C   0  0  0  0  0  3  0  0  0  0  0  0
  188.5690  173.5130  138.8960 O   0  0  0  0  0  0  0  0  0  0  0  0
  189.0830  174.1830  136.5550 C   0  0  0  0  0  1  0  0  0  0  0  0
  187.3330  175.1550  137.8340 O   0  0  0  0  0  0  0  0  0  0  0  0
  188.2740  174.3180  137.7930 C   0  0  0  0  0  0  0  0  0  0  0  0
  1  5  2  0  0  0  0
  1  2  1  0  0  0  0
  2  6  2  0  0  0  0
  4 14  1  0  0  0  0
  4  3  1  0  0  0  0
  5  7  1  0  0  0  0
  6  8  1  0  0  0  0
  7  6  1  0  0  0  0
  7  4  2  0  0  0  0
  8 28  1  0  0  0  0
  8  3  2  0  0  0  0
  9 10  1  0  0  0  0
  9 12  1  0  0  0  0
 10 13  2  0  0  0  0
 11  1  1  0  0  0  0
 12 11  2  0  0  0  0
 13 11  1  0  0  0  0
 14 15  1  0  0  0  0
 16 19  1  0  0  0  0
 16 18  1  1  0  0  0
 16 15  1  0  0  0  0
 17 18  2  0  0  0  0
 21 20  1  1  0  0  0
 21 19  1  0  0  0  0
 22 23  1  6  0  0  0
 22 21  1  0  0  0  0
 22 24  1  0  0  0  0
 26 25  1  0  0  0  0
 27 24  1  0  0  0  0
 27 26  1  0  0  0  0
 27 25  1  0  0  0  0
 29 38  1  6  0  0  0
 29 33  1  0  0  0  0
 30 28  1  1  0  0  0
 30 31  1  0  0  0  0
 32 34  1  1  0  0  0
 32 29  1  0  0  0  0
 32 33  1  0  0  0  0
 33 31  1  1  0  0  0
 34 30  1  0  0  0  0
 35 38  1  0  0  0  0
 36 35  1  0  0  0  0
 37 35  2  0  0  0  0
 39 50  1  6  0  0  0
 39 42  1  0  0  0  0
 39 40  1  0  0  0  0
 40 43  1  0  0  0  0
 41 43  1  0  0  0  0
 41 36  1  1  0  0  0
 42 44  1  6  0  0  0
 42 41  1  0  0  0  0
 45 48  2  0  0  0  0
 45 47  1  0  0  0  0
 46 44  1  0  0  0  0
 47 46  2  0  0  0  0
 48 49  1  0  0  0  0
 49 44  2  0  0  0  0
 51 53  1  0  0  0  0
 53 52  2  0  0  0  0
 53 50  1  0  0  0  0
M  END
>  <MODEL>
5

>  <REMARK>
 VINA RESULT:      -6.6      3.850     10.353
  Name = 
  17 active torsions:
  status: ('A' for Active; 'I' for Inactive)
    1  A    between atoms: C_1  and  N_37
    2  A    between atoms: C_5  and  C_7
    3  A    between atoms: O_6  and  C_9
    4  A    between atoms: O_6  and  C_51
    5  A    between atoms: C_7  and  N_43
    6  A    between atoms: C_7  and  S_44
    7  A    between atoms: C_8  and  C_36
    8  A    between atoms: C_10  and  C_17
    9  A    between atoms: C_12  and  C_42
   10  A    between atoms: N_15  and  C_38
   11  A    between atoms: N_15  and  C_45
   12  A    between atoms: C_23  and  C_29
   13  A    between atoms: N_25  and  C_39
   14  A    between atoms: C_29  and  S_44
   15  A    between atoms: C_30  and  N_43
   16  A    between atoms: C_30  and  C_45
   17  A    between atoms: C_36  and  C_49
                            x       y       z     vdW  Elec       q    Type
                         _______ _______ _______ _____ _____    ______ ____

>  <TORSDO>
F 17

$$$$
=
 OpenBabel11042415053D

 53 60  0  0  1  0  0  0  0  0999 V2000
  183.0440  178.4060  141.5280 C   0  0  0  0  0  0  0  0  0  0  0  0
  184.2110  178.3990  140.9460 N   0  0  0  0  0  0  0  0  0  0  0  0
  186.4260  177.7360  143.6880 C   0  0  0  0  0  3  0  0  0  0  0  0
  185.2880  178.1300  144.2770 C   0  0  0  0  0  0  0  0  0  0  0  0
  183.1210  178.4540  143.0140 C   0  0  0  0  0  3  0  0  0  0  0  0
  185.1050  178.5510  142.0300 C   0  0  0  0  0  0  0  0  0  0  0  0
  184.4090  178.6350  143.2420 C   0  0  0  0  0  0  0  0  0  0  0  0
  186.2810  177.9770  142.2340 C   0  0  0  0  0  0  0  0  0  0  0  0
  180.3210  177.6130  139.3460 O   0  0  0  0  0  0  0  0  0  0  0  0
  179.7290  178.5050  140.0860 N   0  0  0  0  0  0  0  0  0  0  0  0
  181.7910  178.2550  140.7820 C   0  0  0  0  0  0  0  0  0  0  0  0
  181.5660  177.4150  139.7130 C   0  0  0  0  0  3  0  0  0  0  0  0
  180.6140  178.9390  141.0020 C   0  0  0  0  0  3  0  0  0  0  0  0
  184.9660  178.0170  145.7280 C   0  0  0  0  0  2  0  0  0  0  0  0
  185.9820  176.7340  146.5410 S   0  0  0  0  0  0  0  0  0  0  0  0
  187.2670  177.8470  147.2230 C   0  0  1  0  0  3  0  0  0  0  0  0
  187.4680  179.3980  148.9890 O   0  0  0  0  0  0  0  0  0  0  0  0
  186.7200  178.7240  148.3010 C   0  0  0  0  0  3  0  0  0  0  0  0
  188.4120  177.0960  147.7130 N   0  0  0  0  0  2  0  0  0  0  0  0
  188.7080  174.8310  147.2920 O   0  0  0  0  0  1  0  0  0  0  0  0
  188.7340  176.0960  146.7050 C   0  0  2  0  0  3  0  0  0  0  0  0
  190.1150  176.3630  146.1170 C   0  0  2  0  0  3  0  0  0  0  0  0
  191.0370  176.5670  147.1460 O   0  0  0  0  0  1  0  0  0  0  0  0
  190.0690  177.5470  145.2730 N   0  0  0  0  0  2  0  0  0  0  0  0
  191.3320  178.2860  143.3430 C   0  0  0  0  0  2  0  0  0  0  0  0
  192.0420  177.0930  143.9450 C   0  0  0  0  0  2  0  0  0  0  0  0
  190.5280  177.1540  143.9510 C   0  0  0  0  0  3  0  0  0  0  0  0
  187.1660  177.4160  141.1710 C   0  0  0  0  0  2  0  0  0  0  0  0
  189.8820  174.5090  141.1620 C   0  0  2  0  0  3  0  0  0  0  0  0
  187.2420  175.9030  141.2810 C   0  0  1  0  0  3  0  0  0  0  0  0
  187.8380  175.3340  140.0190 C   0  0  0  0  0  2  0  0  0  0  0  0
  188.6340  174.2880  141.9940 C   0  0  2  0  0  3  0  0  0  0  0  0
  188.5790  174.1180  140.4890 C   0  0  2  0  0  3  0  0  0  0  0  0
  188.0760  175.5310  142.3480 O   0  0  0  0  0  0  0  0  0  0  0  0
  191.3170  172.9390  142.5140 C   0  0  0  0  0  0  0  0  0  0  0  0
  192.0970  171.7450  142.5690 N   0  0  0  0  0  2  0  0  0  0  0  0
  191.1300  173.6270  143.5550 O   0  0  0  0  0  0  0  0  0  0  0  0
  190.7430  173.3440  141.2710 N   0  0  0  0  0  2  0  0  0  0  0  0
  194.8580  170.3760  144.4490 C   0  0  1  0  0  3  0  0  0  0  0  0
  194.0290  169.2070  143.9520 C   0  0  0  0  0  2  0  0  0  0  0  0
  192.6680  171.2360  143.8070 C   0  0  2  0  0  3  0  0  0  0  0  0
  194.1440  171.5870  143.8700 C   0  0  1  0  0  3  0  0  0  0  0  0
  192.6010  169.7150  143.8290 C   0  0  0  0  0  2  0  0  0  0  0  0
  194.4320  172.8820  144.5730 C   0  0  0  0  0  0  0  0  0  0  0  0
  194.8940  175.3130  145.8880 C   0  0  0  0  0  3  0  0  0  0  0  0
  195.6020  173.6120  144.3170 C   0  0  0  0  0  3  0  0  0  0  0  0
  195.8330  174.8240  144.9750 C   0  0  0  0  0  3  0  0  0  0  0  0
  193.7230  174.5920  146.1420 C   0  0  0  0  0  3  0  0  0  0  0  0
  193.4920  173.3800  145.4830 C   0  0  0  0  0  3  0  0  0  0  0  0
  194.8290  170.4020  145.8740 O   0  0  0  0  0  0  0  0  0  0  0  0
  194.8750  168.7110  147.6990 C   0  0  0  0  0  1  0  0  0  0  0  0
  196.8110  169.3850  146.4970 O   0  0  0  0  0  0  0  0  0  0  0  0
  195.5670  169.5140  146.6580 C   0  0  0  0  0  0  0  0  0  0  0  0
  1  5  1  0  0  0  0
  2  1  2  0  0  0  0
  2  6  1  0  0  0  0
  3  4  2  0  0  0  0
  4 14  1  0  0  0  0
  5  7  2  0  0  0  0
  6  8  2  0  0  0  0
  6  7  1  0  0  0  0
  7  4  1  0  0  0  0
  8  3  1  0  0  0  0
  9 12  1  0  0  0  0
  9 10  1  0  0  0  0
 10 13  2  0  0  0  0
 11 13  1  0  0  0  0
 11  1  1  0  0  0  0
 12 11  2  0  0  0  0
 14 15  1  0  0  0  0
 15 16  1  0  0  0  0
 16 19  1  0  0  0  0
 16 18  1  1  0  0  0
 18 17  2  0  0  0  0
 21 20  1  1  0  0  0
 21 19  1  0  0  0  0
 22 21  1  0  0  0  0
 22 23  1  1  0  0  0
 24 22  1  0  0  0  0
 25 26  1  0  0  0  0
 25 27  1  0  0  0  0
 26 27  1  0  0  0  0
 27 24  1  0  0  0  0
 28  8  1  0  0  0  0
 29 38  1  1  0  0  0
 29 32  1  0  0  0  0
 30 28  1  6  0  0  0
 30 34  1  0  0  0  0
 31 30  1  0  0  0  0
 32 34  1  6  0  0  0
 33 31  1  6  0  0  0
 33 29  1  0  0  0  0
 33 32  1  0  0  0  0
 35 36  1  0  0  0  0
 35 37  2  0  0  0  0
 38 35  1  0  0  0  0
 39 50  1  1  0  0  0
 40 39  1  0  0  0  0
 41 36  1  6  0  0  0
 41 43  1  0  0  0  0
 41 42  1  0  0  0  0
 42 39  1  0  0  0  0
 42 44  1  1  0  0  0
 43 40  1  0  0  0  0
 44 49  1  0  0  0  0
 45 48  1  0  0  0  0
 46 44  2  0  0  0  0
 46 47  1  0  0  0  0
 47 45  2  0  0  0  0
 49 48  2  0  0  0  0
 50 53  1  0  0  0  0
 52 53  2  0  0  0  0
 53 51  1  0  0  0  0
M  END
>  <MODEL>
6

>  <REMARK>
 VINA RESULT:      -6.3      2.486      5.721
  Name = 
  17 active torsions:
  status: ('A' for Active; 'I' for Inactive)
    1  A    between atoms: C_1  and  N_37
    2  A    between atoms: C_5  and  C_7
    3  A    between atoms: O_6  and  C_9
    4  A    between atoms: O_6  and  C_51
    5  A    between atoms: C_7  and  N_43
    6  A    between atoms: C_7  and  S_44
    7  A    between atoms: C_8  and  C_36
    8  A    between atoms: C_10  and  C_17
    9  A    between atoms: C_12  and  C_42
   10  A    between atoms: N_15  and  C_38
   11  A    between atoms: N_15  and  C_45
   12  A    between atoms: C_23  and  C_29
   13  A    between atoms: N_25  and  C_39
   14  A    between atoms: C_29  and  S_44
   15  A    between atoms: C_30  and  N_43
   16  A    between atoms: C_30  and  C_45
   17  A    between atoms: C_36  and  C_49
                            x       y       z     vdW  Elec       q    Type
                         _______ _______ _______ _____ _____    ______ ____

>  <TORSDO>
F 17

$$$$
=
 OpenBabel11042415053D

 53 60  0  0  1  0  0  0  0  0999 V2000
  194.2050  174.7670  143.1630 C   0  0  0  0  0  0  0  0  0  0  0  0
  193.6260  173.6840  142.7220 N   0  0  0  0  0  0  0  0  0  0  0  0
  195.7840  172.7100  140.0280 C   0  0  0  0  0  3  0  0  0  0  0  0
  196.1050  173.9910  140.2540 C   0  0  0  0  0  0  0  0  0  0  0  0
  195.2520  175.2960  142.2460 C   0  0  0  0  0  3  0  0  0  0  0  0
  194.2010  173.5180  141.4420 C   0  0  0  0  0  0  0  0  0  0  0  0
  195.1270  174.5340  141.1750 C   0  0  0  0  0  0  0  0  0  0  0  0
  194.5760  172.4050  140.8290 C   0  0  0  0  0  0  0  0  0  0  0  0
  193.6070  176.7060  146.1090 O   0  0  0  0  0  0  0  0  0  0  0  0
  193.4910  175.5180  146.6270 N   0  0  0  0  0  0  0  0  0  0  0  0
  193.9250  175.3260  144.4890 C   0  0  0  0  0  0  0  0  0  0  0  0
  193.8690  176.6610  144.8240 C   0  0  0  0  0  3  0  0  0  0  0  0
  193.6850  174.6170  145.6470 C   0  0  0  0  0  3  0  0  0  0  0  0
  197.2880  174.7110  139.7020 C   0  0  0  0  0  2  0  0  0  0  0  0
  197.7000  174.1270  138.0190 S   0  0  0  0  0  0  0  0  0  0  0  0
  196.4370  175.0970  137.1160 C   0  0  1  0  0  3  0  0  0  0  0  0
  196.4190  176.7810  135.4640 O   0  0  0  0  0  0  0  0  0  0  0  0
  197.0400  175.8740  135.9910 C   0  0  0  0  0  3  0  0  0  0  0  0
  195.3650  174.2440  136.6250 N   0  0  0  0  0  2  0  0  0  0  0  0
  194.1570  175.6520  138.0230 O   0  0  0  0  0  1  0  0  0  0  0  0
  194.1190  174.9750  136.8040 C   0  0  2  0  0  3  0  0  0  0  0  0
  192.9350  174.0140  136.7850 C   0  0  2  0  0  3  0  0  0  0  0  0
  193.3900  172.7050  136.6160 O   0  0  0  0  0  1  0  0  0  0  0  0
  192.0420  174.3560  135.6890 N   0  0  0  0  0  2  0  0  0  0  0  0
  189.8420  175.3070  135.3390 C   0  0  0  0  0  2  0  0  0  0  0  0
  189.7250  173.8010  135.2590 C   0  0  0  0  0  2  0  0  0  0  0  0
  190.6970  174.4320  136.2350 C   0  0  0  0  0  3  0  0  0  0  0  0
  194.0520  171.0380  141.1190 C   0  0  0  0  0  2  0  0  0  0  0  0
  190.5850  172.9900  141.1300 C   0  0  2  0  0  3  0  0  0  0  0  0
  192.6360  170.8840  140.5920 C   0  0  1  0  0  3  0  0  0  0  0  0
  191.6690  170.8420  141.7470 C   0  0  0  0  0  2  0  0  0  0  0  0
  190.8970  172.1370  139.9150 C   0  0  2  0  0  3  0  0  0  0  0  0
  190.4280  171.4820  141.1990 C   0  0  2  0  0  3  0  0  0  0  0  0
  192.2900  171.9840  139.7900 O   0  0  0  0  0  0  0  0  0  0  0  0
  188.9900  174.9110  141.4670 C   0  0  0  0  0  0  0  0  0  0  0  0
  187.7120  175.4920  141.2060 N   0  0  0  0  0  2  0  0  0  0  0  0
  189.8540  175.5430  142.1330 O   0  0  0  0  0  0  0  0  0  0  0  0
  189.2820  173.6090  140.9600 N   0  0  0  0  0  2  0  0  0  0  0  0
  185.3840  177.8300  142.6720 C   0  0  1  0  0  3  0  0  0  0  0  0
  185.2050  177.9000  141.1680 C   0  0  0  0  0  2  0  0  0  0  0  0
  187.3570  176.8350  141.6400 C   0  0  2  0  0  3  0  0  0  0  0  0
  186.4460  176.7560  142.8520 C   0  0  1  0  0  3  0  0  0  0  0  0
  186.5500  177.5400  140.5580 C   0  0  0  0  0  2  0  0  0  0  0  0
  187.1740  176.8050  144.1640 C   0  0  0  0  0  0  0  0  0  0  0  0
  188.4650  176.9070  146.6490 C   0  0  0  0  0  3  0  0  0  0  0  0
  188.4850  177.2950  144.2590 C   0  0  0  0  0  3  0  0  0  0  0  0
  189.1290  177.3440  145.4990 C   0  0  0  0  0  3  0  0  0  0  0  0
  187.1560  176.4230  146.5600 C   0  0  0  0  0  3  0  0  0  0  0  0
  186.5120  176.3750  145.3200 C   0  0  0  0  0  3  0  0  0  0  0  0
  185.8500  179.0890  143.1510 O   0  0  0  0  0  0  0  0  0  0  0  0
  184.2700  179.0960  145.0740 C   0  0  0  0  0  1  0  0  0  0  0  0
  185.3480  181.0530  144.2660 O   0  0  0  0  0  0  0  0  0  0  0  0
  185.1850  179.8090  144.1460 C   0  0  0  0  0  0  0  0  0  0  0  0
  1 11  1  0  0  0  0
  2  1  1  0  0  0  0
  3  4  1  0  0  0  0
  3  8  2  0  0  0  0
  4  7  2  0  0  0  0
  5  1  2  0  0  0  0
  6  2  2  0  0  0  0
  7  6  1  0  0  0  0
  7  5  1  0  0  0  0
  8 28  1  0  0  0  0
  8  6  1  0  0  0  0
  9 10  1  0  0  0  0
 11 12  2  0  0  0  0
 11 13  1  0  0  0  0
 12  9  1  0  0  0  0
 13 10  2  0  0  0  0
 14  4  1  0  0  0  0
 15 14  1  0  0  0  0
 16 18  1  6  0  0  0
 16 15  1  0  0  0  0
 17 18  2  0  0  0  0
 19 21  1  0  0  0  0
 19 16  1  0  0  0  0
 21 20  1  1  0  0  0
 22 23  1  6  0  0  0
 22 21  1  0  0  0  0
 24 27  1  0  0  0  0
 24 22  1  0  0  0  0
 25 27  1  0  0  0  0
 26 25  1  0  0  0  0
 26 27  1  0  0  0  0
 29 38  1  6  0  0  0
 29 33  1  0  0  0  0
 30 28  1  1  0  0  0
 30 31  1  0  0  0  0
 32 34  1  1  0  0  0
 32 29  1  0  0  0  0
 32 33  1  0  0  0  0
 33 31  1  1  0  0  0
 34 30  1  0  0  0  0
 35 37  2  0  0  0  0
 36 35  1  0  0  0  0
 38 35  1  0  0  0  0
 39 42  1  0  0  0  0
 39 50  1  6  0  0  0
 40 39  1  0  0  0  0
 41 36  1  6  0  0  0
 41 42  1  0  0  0  0
 42 44  1  1  0  0  0
 43 40  1  0  0  0  0
 43 41  1  0  0  0  0
 44 46  2  0  0  0  0
 44 49  1  0  0  0  0
 46 47  1  0  0  0  0
 47 45  2  0  0  0  0
 48 45  1  0  0  0  0
 49 48  2  0  0  0  0
 50 53  1  0  0  0  0
 53 52  2  0  0  0  0
 53 51  1  0  0  0  0
M  END
>  <MODEL>
7

>  <REMARK>
 VINA RESULT:      -6.3      3.821     10.074
  Name = 
  17 active torsions:
  status: ('A' for Active; 'I' for Inactive)
    1  A    between atoms: C_1  and  N_37
    2  A    between atoms: C_5  and  C_7
    3  A    between atoms: O_6  and  C_9
    4  A    between atoms: O_6  and  C_51
    5  A    between atoms: C_7  and  N_43
    6  A    between atoms: C_7  and  S_44
    7  A    between atoms: C_8  and  C_36
    8  A    between atoms: C_10  and  C_17
    9  A    between atoms: C_12  and  C_42
   10  A    between atoms: N_15  and  C_38
   11  A    between atoms: N_15  and  C_45
   12  A    between atoms: C_23  and  C_29
   13  A    between atoms: N_25  and  C_39
   14  A    between atoms: C_29  and  S_44
   15  A    between atoms: C_30  and  N_43
   16  A    between atoms: C_30  and  C_45
   17  A    between atoms: C_36  and  C_49
                            x       y       z     vdW  Elec       q    Type
                         _______ _______ _______ _____ _____    ______ ____

>  <TORSDO>
F 17

$$$$
=
 OpenBabel11042415053D

 53 60  0  0  1  0  0  0  0  0999 V2000
  194.1380  170.3240  144.5760 C   0  0  0  0  0  0  0  0  0  0  0  0
  193.7080  169.9890  143.3910 N   0  0  0  0  0  0  0  0  0  0  0  0
  192.4100  173.0910  142.1450 C   0  0  0  0  0  3  0  0  0  0  0  0
  192.5040  173.2860  143.4680 C   0  0  0  0  0  0  0  0  0  0  0  0
  193.6660  171.6630  145.0220 C   0  0  0  0  0  3  0  0  0  0  0  0
  192.8450  171.0560  143.0540 C   0  0  0  0  0  0  0  0  0  0  0  0
  192.8070  172.0080  144.0800 C   0  0  0  0  0  0  0  0  0  0  0  0
  192.6700  171.6560  141.8870 C   0  0  0  0  0  0  0  0  0  0  0  0
  196.0440  168.3900  146.9060 O   0  0  0  0  0  0  0  0  0  0  0  0
  196.8540  168.3320  145.8890 N   0  0  0  0  0  0  0  0  0  0  0  0
  195.0910  169.5030  145.3290 C   0  0  0  0  0  0  0  0  0  0  0  0
  194.9620  169.0820  146.6340 C   0  0  0  0  0  3  0  0  0  0  0  0
  196.2990  169.0190  144.8750 C   0  0  0  0  0  3  0  0  0  0  0  0
  192.3760  174.5920  144.1740 C   0  0  0  0  0  2  0  0  0  0  0  0
  192.1230  174.3590  145.9700 S   0  0  0  0  0  0  0  0  0  0  0  0
  192.7010  176.0120  146.5070 C   0  0  1  0  0  3  0  0  0  0  0  0
  191.1520  175.7680  148.2690 O   0  0  0  0  0  0  0  0  0  0  0  0
  191.9480  176.4970  147.7010 C   0  0  0  0  0  3  0  0  0  0  0  0
  194.1310  176.0110  146.7750 N   0  0  0  0  0  2  0  0  0  0  0  0
  193.7750  177.3480  144.9090 O   0  0  0  0  0  1  0  0  0  0  0  0
  194.7600  176.8330  145.7510 C   0  0  2  0  0  3  0  0  0  0  0  0
  195.7500  176.0020  144.9400 C   0  0  2  0  0  3  0  0  0  0  0  0
  195.3790  176.0060  143.5940 O   0  0  0  0  0  1  0  0  0  0  0  0
  195.7600  174.6330  145.4310 N   0  0  0  0  0  2  0  0  0  0  0  0
  197.1590  172.6650  145.6200 C   0  0  0  0  0  2  0  0  0  0  0  0
  197.2600  173.1830  144.2020 C   0  0  0  0  0  2  0  0  0  0  0  0
  197.1320  174.1570  145.3560 C   0  0  0  0  0  3  0  0  0  0  0  0
  192.9650  171.0570  140.5520 C   0  0  0  0  0  2  0  0  0  0  0  0
  189.6640  173.2630  140.2980 C   0  0  2  0  0  3  0  0  0  0  0  0
  191.8380  171.3450  139.5750 C   0  0  1  0  0  3  0  0  0  0  0  0
  190.5220  170.9350  140.1870 C   0  0  0  0  0  2  0  0  0  0  0  0
  190.4170  172.9920  139.0100 C   0  0  2  0  0  3  0  0  0  0  0  0
  189.5410  171.9140  139.6140 C   0  0  2  0  0  3  0  0  0  0  0  0
  191.7670  172.7200  139.3000 O   0  0  0  0  0  0  0  0  0  0  0  0
  188.1950  175.2660  140.7210 C   0  0  0  0  0  0  0  0  0  0  0  0
  187.0630  176.0480  140.3400 N   0  0  0  0  0  2  0  0  0  0  0  0
  188.9320  175.6350  141.6760 O   0  0  0  0  0  0  0  0  0  0  0  0
  188.4890  174.0670  140.0060 N   0  0  0  0  0  2  0  0  0  0  0  0
  184.9690  178.0380  142.5050 C   0  0  1  0  0  3  0  0  0  0  0  0
  184.4640  178.2330  141.0880 C   0  0  0  0  0  2  0  0  0  0  0  0
  186.7290  177.3110  140.9810 C   0  0  2  0  0  3  0  0  0  0  0  0
  186.1080  177.0440  142.3410 C   0  0  1  0  0  3  0  0  0  0  0  0
  185.6650  178.0440  140.1750 C   0  0  0  0  0  2  0  0  0  0  0  0
  187.0980  177.0300  143.4690 C   0  0  0  0  0  0  0  0  0  0  0  0
  189.0020  177.0200  145.5260 C   0  0  0  0  0  3  0  0  0  0  0  0
  186.9300  176.1940  144.5840 C   0  0  0  0  0  3  0  0  0  0  0  0
  187.8790  176.1910  145.6100 C   0  0  0  0  0  3  0  0  0  0  0  0
  189.1760  177.8510  144.4150 C   0  0  0  0  0  3  0  0  0  0  0  0
  188.2270  177.8530  143.3870 C   0  0  0  0  0  3  0  0  0  0  0  0
  185.4490  179.2810  143.0100 O   0  0  0  0  0  0  0  0  0  0  0  0
  184.4450  178.8850  145.2520 C   0  0  0  0  0  1  0  0  0  0  0  0
  185.2090  181.0130  144.5240 O   0  0  0  0  0  0  0  0  0  0  0  0
  185.0550  179.7930  144.2480 C   0  0  0  0  0  0  0  0  0  0  0  0
  1  5  1  0  0  0  0
  1 11  1  0  0  0  0
  2  1  2  0  0  0  0
  3  4  2  0  0  0  0
  4  7  1  0  0  0  0
  4 14  1  0  0  0  0
  6  2  1  0  0  0  0
  6  7  1  0  0  0  0
  7  5  2  0  0  0  0
  8  3  1  0  0  0  0
  8  6  2  0  0  0  0
 10  9  1  0  0  0  0
 11 12  2  0  0  0  0
 12  9  1  0  0  0  0
 13 11  1  0  0  0  0
 13 10  2  0  0  0  0
 14 15  1  0  0  0  0
 15 16  1  0  0  0  0
 16 19  1  0  0  0  0
 16 18  1  1  0  0  0
 18 17  2  0  0  0  0
 21 20  1  6  0  0  0
 21 19  1  0  0  0  0
 22 23  1  6  0  0  0
 22 24  1  0  0  0  0
 22 21  1  0  0  0  0
 26 27  1  0  0  0  0
 26 25  1  0  0  0  0
 27 24  1  0  0  0  0
 27 25  1  0  0  0  0
 28  8  1  0  0  0  0
 29 38  1  6  0  0  0
 30 31  1  0  0  0  0
 30 28  1  1  0  0  0
 32 34  1  1  0  0  0
 32 33  1  0  0  0  0
 32 29  1  0  0  0  0
 33 31  1  1  0  0  0
 33 29  1  0  0  0  0
 34 30  1  0  0  0  0
 35 37  2  0  0  0  0
 36 35  1  0  0  0  0
 38 35  1  0  0  0  0
 39 50  1  6  0  0  0
 40 39  1  0  0  0  0
 41 36  1  6  0  0  0
 41 42  1  0  0  0  0
 42 39  1  0  0  0  0
 42 44  1  1  0  0  0
 43 41  1  0  0  0  0
 43 40  1  0  0  0  0
 44 46  1  0  0  0  0
 45 47  1  0  0  0  0
 46 47  2  0  0  0  0
 48 45  2  0  0  0  0
 49 44  2  0  0  0  0
 49 48  1  0  0  0  0
 50 53  1  0  0  0  0
 53 52  2  0  0  0  0
 53 51  1  0  0  0  0
M  END
>  <MODEL>
8

>  <REMARK>
 VINA RESULT:      -6.1      3.079     11.333
  Name = 
  17 active torsions:
  status: ('A' for Active; 'I' for Inactive)
    1  A    between atoms: C_1  and  N_37
    2  A    between atoms: C_5  and  C_7
    3  A    between atoms: O_6  and  C_9
    4  A    between atoms: O_6  and  C_51
    5  A    between atoms: C_7  and  N_43
    6  A    between atoms: C_7  and  S_44
    7  A    between atoms: C_8  and  C_36
    8  A    between atoms: C_10  and  C_17
    9  A    between atoms: C_12  and  C_42
   10  A    between atoms: N_15  and  C_38
   11  A    between atoms: N_15  and  C_45
   12  A    between atoms: C_23  and  C_29
   13  A    between atoms: N_25  and  C_39
   14  A    between atoms: C_29  and  S_44
   15  A    between atoms: C_30  and  N_43
   16  A    between atoms: C_30  and  C_45
   17  A    between atoms: C_36  and  C_49
                            x       y       z     vdW  Elec       q    Type
                         _______ _______ _______ _____ _____    ______ ____

>  <TORSDO>
F 17

$$$$
=
 OpenBabel11042415053D

 53 60  0  0  1  0  0  0  0  0999 V2000
  192.8030  175.6350  143.7790 C   0  0  0  0  0  0  0  0  0  0  0  0
  192.2490  174.9270  144.7250 N   0  0  0  0  0  0  0  0  0  0  0  0
  188.8240  174.7930  143.6730 C   0  0  0  0  0  3  0  0  0  0  0  0
  189.3410  175.8060  142.9650 C   0  0  0  0  0  0  0  0  0  0  0  0
  191.8180  176.3150  142.8930 C   0  0  0  0  0  3  0  0  0  0  0  0
  190.8730  175.2020  144.5610 C   0  0  0  0  0  0  0  0  0  0  0  0
  190.6640  176.0790  143.4900 C   0  0  0  0  0  0  0  0  0  0  0  0
  189.8350  174.3870  144.6750 C   0  0  0  0  0  0  0  0  0  0  0  0
  196.2030  175.2600  142.7310 O   0  0  0  0  0  0  0  0  0  0  0  0
  196.3940  176.0470  143.7490 N   0  0  0  0  0  0  0  0  0  0  0  0
  194.2510  175.6480  143.5500 C   0  0  0  0  0  0  0  0  0  0  0  0
  194.9320  174.9810  142.5560 C   0  0  0  0  0  3  0  0  0  0  0  0
  195.1960  176.3170  144.2970 C   0  0  0  0  0  3  0  0  0  0  0  0
  188.6950  176.4910  141.8090 C   0  0  0  0  0  2  0  0  0  0  0  0
  188.5790  178.2950  142.0800 S   0  0  0  0  0  0  0  0  0  0  0  0
  186.8600  178.5130  141.4860 C   0  0  1  0  0  3  0  0  0  0  0  0
  186.1260  177.1900  139.6770 O   0  0  0  0  0  0  0  0  0  0  0  0
  186.3240  177.2590  140.8780 C   0  0  0  0  0  3  0  0  0  0  0  0
  185.9850  178.9720  142.5540 N   0  0  0  0  0  2  0  0  0  0  0  0
  183.9020  177.9880  142.2560 O   0  0  0  0  0  1  0  0  0  0  0  0
  185.1240  177.8550  142.9140 C   0  0  2  0  0  3  0  0  0  0  0  0
  184.8970  177.8270  144.4220 C   0  0  2  0  0  3  0  0  0  0  0  0
  184.0020  178.8360  144.7850 O   0  0  0  0  0  1  0  0  0  0  0  0
  186.1600  178.0350  145.1140 N   0  0  0  0  0  2  0  0  0  0  0  0
  187.3560  176.4560  146.5070 C   0  0  0  0  0  2  0  0  0  0  0  0
  187.2140  177.7510  147.2750 C   0  0  0  0  0  2  0  0  0  0  0  0
  186.0980  177.2890  146.3600 C   0  0  0  0  0  3  0  0  0  0  0  0
  189.8120  173.1200  145.4630 C   0  0  0  0  0  2  0  0  0  0  0  0
  191.2610  172.3320  141.8430 C   0  0  2  0  0  3  0  0  0  0  0  0
  190.1080  171.9280  144.5700 C   0  0  1  0  0  3  0  0  0  0  0  0
  189.2820  172.0220  143.3120 C   0  0  0  0  0  2  0  0  0  0  0  0
  191.5100  171.3030  142.9280 C   0  0  2  0  0  3  0  0  0  0  0  0
  190.1500  171.3880  142.2660 C   0  0  2  0  0  3  0  0  0  0  0  0
  191.4590  171.9240  144.1890 O   0  0  0  0  0  0  0  0  0  0  0  0
  192.1310  172.7550  139.5160 C   0  0  0  0  0  0  0  0  0  0  0  0
  192.7720  172.2490  138.3450 N   0  0  0  0  0  2  0  0  0  0  0  0
  191.8240  173.9760  139.5970 O   0  0  0  0  0  0  0  0  0  0  0  0
  191.8470  171.8680  140.5970 N   0  0  0  0  0  2  0  0  0  0  0  0
  193.1250  175.5050  136.8260 C   0  0  1  0  0  3  0  0  0  0  0  0
  191.7770  174.9540  136.4010 C   0  0  0  0  0  2  0  0  0  0  0  0
  193.1450  173.0990  137.2240 C   0  0  2  0  0  3  0  0  0  0  0  0
  193.6760  174.4230  137.7420 C   0  0  1  0  0  3  0  0  0  0  0  0
  191.9160  173.4400  136.3930 C   0  0  0  0  0  2  0  0  0  0  0  0
  195.1650  174.4530  137.9250 C   0  0  0  0  0  0  0  0  0  0  0  0
  197.9410  174.5810  138.2860 C   0  0  0  0  0  3  0  0  0  0  0  0
  196.0180  173.6730  137.1290 C   0  0  0  0  0  3  0  0  0  0  0  0
  197.4030  173.7360  137.3100 C   0  0  0  0  0  3  0  0  0  0  0  0
  197.0960  175.3640  139.0770 C   0  0  0  0  0  3  0  0  0  0  0  0
  195.7110  175.3010  138.8950 C   0  0  0  0  0  3  0  0  0  0  0  0
  193.9520  175.6660  135.6770 O   0  0  0  0  0  0  0  0  0  0  0  0
  195.8010  177.0690  134.7790 C   0  0  0  0  0  1  0  0  0  0  0  0
  193.6260  177.9120  135.2290 O   0  0  0  0  0  0  0  0  0  0  0  0
  194.3970  176.9150  135.2390 C   0  0  0  0  0  0  0  0  0  0  0  0
  1  2  1  0  0  0  0
  3  8  2  0  0  0  0
  4  7  2  0  0  0  0
  4  3  1  0  0  0  0
  5  7  1  0  0  0  0
  5  1  2  0  0  0  0
  6  8  1  0  0  0  0
  6  2  2  0  0  0  0
  7  6  1  0  0  0  0
  8 28  1  0  0  0  0
  9 10  1  0  0  0  0
 10 13  2  0  0  0  0
 11  1  1  0  0  0  0
 11 13  1  0  0  0  0
 12  9  1  0  0  0  0
 12 11  2  0  0  0  0
 14 15  1  0  0  0  0
 14  4  1  0  0  0  0
 16 18  1  1  0  0  0
 16 15  1  0  0  0  0
 16 19  1  0  0  0  0
 17 18  2  0  0  0  0
 19 21  1  0  0  0  0
 21 20  1  6  0  0  0
 21 22  1  0  0  0  0
 22 23  1  6  0  0  0
 22 24  1  0  0  0  0
 24 27  1  0  0  0  0
 25 26  1  0  0  0  0
 27 25  1  0  0  0  0
 27 26  1  0  0  0  0
 29 38  1  6  0  0  0
 29 33  1  0  0  0  0
 29 32  1  0  0  0  0
 30 28  1  1  0  0  0
 31 30  1  0  0  0  0
 32 34  1  1  0  0  0
 33 32  1  0  0  0  0
 33 31  1  1  0  0  0
 34 30  1  0  0  0  0
 35 37  2  0  0  0  0
 35 38  1  0  0  0  0
 36 35  1  0  0  0  0
 39 50  1  6  0  0  0
 39 42  1  0  0  0  0
 40 39  1  0  0  0  0
 41 42  1  0  0  0  0
 41 36  1  1  0  0  0
 42 44  1  6  0  0  0
 43 40  1  0  0  0  0
 43 41  1  0  0  0  0
 44 49  1  0  0  0  0
 45 48  1  0  0  0  0
 46 47  1  0  0  0  0
 46 44  2  0  0  0  0
 47 45  2  0  0  0  0
 49 48  2  0  0  0  0
 51 53  1  0  0  0  0
 52 53  2  0  0  0  0
 53 50  1  0  0  0  0
M  END
>  <MODEL>
9

>  <REMARK>
 VINA RESULT:      -6.0      3.957      9.282
  Name = 
  17 active torsions:
  status: ('A' for Active; 'I' for Inactive)
    1  A    between atoms: C_1  and  N_37
    2  A    between atoms: C_5  and  C_7
    3  A    between atoms: O_6  and  C_9
    4  A    between atoms: O_6  and  C_51
    5  A    between atoms: C_7  and  N_43
    6  A    between atoms: C_7  and  S_44
    7  A    between atoms: C_8  and  C_36
    8  A    between atoms: C_10  and  C_17
    9  A    between atoms: C_12  and  C_42
   10  A    between atoms: N_15  and  C_38
   11  A    between atoms: N_15  and  C_45
   12  A    between atoms: C_23  and  C_29
   13  A    between atoms: N_25  and  C_39
   14  A    between atoms: C_29  and  S_44
   15  A    between atoms: C_30  and  N_43
   16  A    between atoms: C_30  and  C_45
   17  A    between atoms: C_36  and  C_49
                            x       y       z     vdW  Elec       q    Type
                         _______ _______ _______ _____ _____    ______ ____

>  <TORSDO>
F 17

$$$$
