=
 OpenBabel11042417133D

 49 54  0  0  1  0  0  0  0  0999 V2000
  192.9420  175.2020  146.3140 C   0  0  0  0  0  3  0  0  0  0  0  0
  188.9620  177.5760  144.6080 C   0  0  0  0  0  0  0  0  0  0  0  0
  189.8660  177.5440  143.7310 O   0  0  0  0  0  0  0  0  0  0  0  0
  187.6940  175.6280  142.5830 N   0  0  0  0  0  0  0  0  0  0  0  0
  187.5970  177.3270  144.2610 N   0  0  0  0  0  2  0  0  0  0  0  0
  189.4420  176.6080  146.8240 C   0  0  0  0  0  2  0  0  0  0  0  0
  187.1510  176.7180  143.0410 C   0  0  0  0  0  0  0  0  0  0  0  0
  193.3630  173.0030  145.3130 C   0  0  0  0  0  3  0  0  0  0  0  0
  191.1300  173.6090  144.3750 C   0  0  0  0  0  0  0  0  0  0  0  0
  190.3040  173.1600  143.2860 N   0  0  0  0  0  0  0  0  0  0  0  0
  189.2710  173.7360  142.7400 C   0  0  0  0  0  0  0  0  0  0  0  0
  189.3110  177.8920  146.0190 C   0  0  0  0  0  2  0  0  0  0  0  0
  190.8920  174.7830  144.9910 C   0  0  0  0  0  3  0  0  0  0  0  0
  193.8150  174.4200  145.3890 C   0  0  2  0  0  3  0  0  0  0  0  0
  188.7530  174.9760  143.2290 N   0  0  0  0  0  2  0  0  0  0  0  0
  190.8820  176.2770  147.0620 C   0  0  0  0  0  0  0  0  0  0  0  0
  191.6270  175.3870  146.1320 C   0  0  0  0  0  0  0  0  0  0  0  0
  192.1710  172.6620  144.8270 C   0  0  0  0  0  3  0  0  0  0  0  0
  191.4680  176.8110  148.1320 C   0  0  0  0  0  2  0  0  0  0  0  0
  183.7750  178.3350  141.0760 C   0  0  0  0  0  3  0  0  0  0  0  0
  184.9190  177.9880  140.3600 C   0  0  0  0  0  3  0  0  0  0  0  0
  183.7730  178.1340  142.4550 C   0  0  0  0  0  3  0  0  0  0  0  0
  184.8670  177.6110  143.0670 N   0  0  0  0  0  0  0  0  0  0  0  0
  185.9940  177.4680  141.0060 N   0  0  0  0  0  0  0  0  0  0  0  0
  185.9770  177.2770  142.3540 C   0  0  0  0  0  0  0  0  0  0  0  0
  188.5890  173.0480  141.6010 C   0  0  0  0  0  2  0  0  0  0  0  0
  191.7410  171.7730  137.9000 C   0  0  0  0  0  0  0  0  0  0  0  0
  191.9930  170.6640  138.5550 C   0  0  0  0  0  0  0  0  0  0  0  0
  192.5300  171.8220  136.6400 C   0  0  0  0  0  2  0  0  0  0  0  0
  190.1750  172.4530  139.6870 N   0  0  0  0  0  0  0  0  0  0  0  0
  189.2690  173.3800  140.3080 C   0  0  0  0  0  0  0  0  0  0  0  0
  192.9170  169.8780  137.9020 O   0  0  0  0  0  0  0  0  0  0  0  0
  193.3410  170.5170  136.7020 C   0  0  1  0  0  3  0  0  0  0  0  0
  189.0170  174.4860  139.7590 O   0  0  0  0  0  0  0  0  0  0  0  0
  190.7600  172.8020  138.3770 C   0  0  0  0  0  2  0  0  0  0  0  0
  191.3490  170.3370  139.8260 C   0  0  0  0  0  3  0  0  0  0  0  0
  190.4840  171.2080  140.3510 C   0  0  0  0  0  3  0  0  0  0  0  0
  192.2980  168.6800  135.6590 O   0  0  0  0  0  0  0  0  0  0  0  0
  193.0130  169.6590  135.5240 C   0  0  0  0  0  3  0  0  0  0  0  0
  195.2540  174.4680  145.8720 C   0  0  0  0  0  2  0  0  0  0  0  0
  196.1650  173.6730  144.9450 C   0  0  2  0  0  3  0  0  0  0  0  0
  197.7480  171.7660  144.8430 C   0  0  0  0  0  2  0  0  0  0  0  0
  197.0890  172.7800  145.7600 C   0  0  0  0  0  3  0  0  0  0  0  0
  196.5900  171.3480  145.7200 C   0  0  0  0  0  2  0  0  0  0  0  0
  197.0010  174.6460  144.1170 C   0  0  0  0  0  2  0  0  0  0  0  0
  195.5990  176.0340  142.5520 C   0  0  0  0  0  1  0  0  0  0  0  0
  197.6870  174.9900  141.7710 C   0  0  0  0  0  1  0  0  0  0  0  0
  195.7280  173.5760  142.2420 C   0  0  0  0  0  1  0  0  0  0  0  0
  196.4920  174.8110  142.6830 C   0  0  0  0  0  0  0  0  0  0  0  0
  2 12  1  0  0  0  0
  3  2  2  0  0  0  0
  4  7  2  0  0  0  0
  4 15  1  0  0  0  0
  5  2  1  0  0  0  0
  6 16  1  0  0  0  0
  7  5  1  0  0  0  0
  8 14  1  0  0  0  0
  9 18  1  0  0  0  0
  9 13  2  0  0  0  0
 10  9  1  0  0  0  0
 11 15  1  0  0  0  0
 11 10  2  0  0  0  0
 12  6  1  0  0  0  0
 13 17  1  0  0  0  0
 14 40  1  1  0  0  0
 14  1  1  0  0  0  0
 16 19  2  0  0  0  0
 17  1  2  0  0  0  0
 17 16  1  0  0  0  0
 18  8  2  0  0  0  0
 20 22  2  0  0  0  0
 21 24  2  0  0  0  0
 21 20  1  0  0  0  0
 22 23  1  0  0  0  0
 24 25  1  0  0  0  0
 25  7  1  0  0  0  0
 25 23  2  0  0  0  0
 26 11  1  0  0  0  0
 27 35  1  0  0  0  0
 27 28  2  0  0  0  0
 28 36  1  0  0  0  0
 29 33  1  0  0  0  0
 29 27  1  0  0  0  0
 30 31  1  0  0  0  0
 30 37  1  0  0  0  0
 31 26  1  0  0  0  0
 32 28  1  0  0  0  0
 33 39  1  6  0  0  0
 33 32  1  0  0  0  0
 34 31  2  0  0  0  0
 35 30  1  0  0  0  0
 36 37  2  0  0  0  0
 39 38  2  0  0  0  0
 41 45  1  1  0  0  0
 41 43  1  0  0  0  0
 41 40  1  0  0  0  0
 42 44  1  0  0  0  0
 42 43  1  0  0  0  0
 44 43  1  0  0  0  0
 46 49  1  0  0  0  0
 47 49  1  0  0  0  0
 48 49  1  0  0  0  0
 49 45  1  0  0  0  0
M  END
>  <MODEL>
1

>  <REMARK>
 VINA RESULT:      -8.3      0.000      0.000
  Name = 
  9 active torsions:
  status: ('A' for Active; 'I' for Inactive)
    1  A    between atoms: C_12  and  C_16
    2  A    between atoms: C_15  and  C_49
    3  A    between atoms: C_16  and  C_26
    4  A    between atoms: C_16  and  C_35
    5  A    between atoms: C_20  and  C_22
    6  A    between atoms: C_20  and  C_31
    7  A    between atoms: C_25  and  C_30
    8  A    between atoms: C_26  and  C_39
    9  A    between atoms: C_35  and  C_42
                            x       y       z     vdW  Elec       q    Type
                         _______ _______ _______ _____ _____    ______ ____

>  <TORSDO>
F 9

$$$$
=
 OpenBabel11042417133D

 49 54  0  0  1  0  0  0  0  0999 V2000
  192.7000  175.1910  146.2270 C   0  0  0  0  0  3  0  0  0  0  0  0
  188.7900  177.5870  144.3930 C   0  0  0  0  0  0  0  0  0  0  0  0
  189.6860  177.4680  143.5160 O   0  0  0  0  0  0  0  0  0  0  0  0
  187.4420  175.5590  142.5020 N   0  0  0  0  0  0  0  0  0  0  0  0
  187.4140  177.3630  144.0700 N   0  0  0  0  0  2  0  0  0  0  0  0
  189.2530  176.7450  146.6640 C   0  0  0  0  0  2  0  0  0  0  0  0
  186.9400  176.6930  142.8930 C   0  0  0  0  0  0  0  0  0  0  0  0
  193.0390  172.9200  145.3660 C   0  0  0  0  0  3  0  0  0  0  0  0
  190.8210  173.5410  144.4020 C   0  0  0  0  0  0  0  0  0  0  0  0
  189.9730  173.0520  143.3480 N   0  0  0  0  0  0  0  0  0  0  0  0
  188.9550  173.6280  142.7720 C   0  0  0  0  0  0  0  0  0  0  0  0
  189.1590  177.9790  145.7800 C   0  0  0  0  0  2  0  0  0  0  0  0
  190.6280  174.7590  144.9440 C   0  0  0  0  0  3  0  0  0  0  0  0
  193.5380  174.3220  145.3500 C   0  0  2  0  0  3  0  0  0  0  0  0
  188.4830  174.9130  143.1840 N   0  0  0  0  0  2  0  0  0  0  0  0
  190.6820  176.3810  146.9160 C   0  0  0  0  0  0  0  0  0  0  0  0
  191.3900  175.4090  146.0400 C   0  0  0  0  0  0  0  0  0  0  0  0
  191.8320  172.5890  144.9080 C   0  0  0  0  0  3  0  0  0  0  0  0
  191.2940  176.9620  147.9460 C   0  0  0  0  0  2  0  0  0  0  0  0
  183.6060  178.2960  140.8460 C   0  0  0  0  0  3  0  0  0  0  0  0
  184.7510  177.9110  140.1530 C   0  0  0  0  0  3  0  0  0  0  0  0
  183.5870  178.1370  142.2310 C   0  0  0  0  0  3  0  0  0  0  0  0
  184.6680  177.6180  142.8700 N   0  0  0  0  0  0  0  0  0  0  0  0
  185.8130  177.3970  140.8250 N   0  0  0  0  0  0  0  0  0  0  0  0
  185.7800  177.2470  142.1780 C   0  0  0  0  0  0  0  0  0  0  0  0
  188.2430  172.8930  141.6820 C   0  0  0  0  0  2  0  0  0  0  0  0
  190.1500  173.5530  137.0790 C   0  0  0  0  0  0  0  0  0  0  0  0
  189.2670  174.5060  136.8970 C   0  0  0  0  0  0  0  0  0  0  0  0
  190.9930  173.3860  135.8650 C   0  0  0  0  0  2  0  0  0  0  0  0
  189.2570  173.1840  139.3540 N   0  0  0  0  0  0  0  0  0  0  0  0
  189.2070  172.4860  140.6100 C   0  0  0  0  0  0  0  0  0  0  0  0
  189.3630  175.0650  135.6410 O   0  0  0  0  0  0  0  0  0  0  0  0
  190.3960  174.4240  134.8990 C   0  0  1  0  0  3  0  0  0  0  0  0
  189.9940  171.5280  140.8370 O   0  0  0  0  0  0  0  0  0  0  0  0
  190.2770  172.7870  138.3630 C   0  0  0  0  0  2  0  0  0  0  0  0
  188.3090  174.9000  137.9290 C   0  0  0  0  0  3  0  0  0  0  0  0
  188.3210  174.2530  139.0970 C   0  0  0  0  0  3  0  0  0  0  0  0
  192.3840  175.6360  135.2580 O   0  0  0  0  0  0  0  0  0  0  0  0
  191.4410  175.4190  134.5140 C   0  0  0  0  0  3  0  0  0  0  0  0
  194.9820  174.3520  145.8210 C   0  0  0  0  0  2  0  0  0  0  0  0
  195.8870  173.6050  144.8490 C   0  0  2  0  0  3  0  0  0  0  0  0
  197.6800  171.8990  144.6880 C   0  0  0  0  0  2  0  0  0  0  0  0
  196.9940  172.8900  145.6090 C   0  0  0  0  0  3  0  0  0  0  0  0
  196.6780  171.4090  145.7080 C   0  0  0  0  0  2  0  0  0  0  0  0
  196.5060  174.6070  143.8770 C   0  0  0  0  0  2  0  0  0  0  0  0
  195.2840  173.1340  142.2400 C   0  0  0  0  0  1  0  0  0  0  0  0
  194.9560  175.5730  142.2160 C   0  0  0  0  0  1  0  0  0  0  0  0
  197.0940  174.6310  141.4410 C   0  0  0  0  0  1  0  0  0  0  0  0
  195.9700  174.4730  142.4490 C   0  0  0  0  0  0  0  0  0  0  0  0
  2 12  1  0  0  0  0
  3  2  2  0  0  0  0
  4  7  2  0  0  0  0
  4 15  1  0  0  0  0
  5  2  1  0  0  0  0
  6 16  1  0  0  0  0
  7  5  1  0  0  0  0
  9 18  1  0  0  0  0
  9 13  2  0  0  0  0
 10  9  1  0  0  0  0
 11 15  1  0  0  0  0
 11 10  2  0  0  0  0
 12  6  1  0  0  0  0
 13 17  1  0  0  0  0
 14  8  1  0  0  0  0
 14 40  1  1  0  0  0
 14  1  1  0  0  0  0
 16 19  2  0  0  0  0
 17  1  2  0  0  0  0
 17 16  1  0  0  0  0
 18  8  2  0  0  0  0
 20 22  2  0  0  0  0
 21 24  2  0  0  0  0
 21 20  1  0  0  0  0
 22 23  1  0  0  0  0
 24 25  1  0  0  0  0
 25 23  2  0  0  0  0
 25  7  1  0  0  0  0
 26 11  1  0  0  0  0
 27 35  1  0  0  0  0
 28 27  2  0  0  0  0
 28 36  1  0  0  0  0
 29 27  1  0  0  0  0
 30 31  1  0  0  0  0
 31 34  2  0  0  0  0
 31 26  1  0  0  0  0
 32 28  1  0  0  0  0
 33 39  1  1  0  0  0
 33 32  1  0  0  0  0
 33 29  1  0  0  0  0
 35 30  1  0  0  0  0
 36 37  2  0  0  0  0
 37 30  1  0  0  0  0
 39 38  2  0  0  0  0
 41 45  1  6  0  0  0
 41 43  1  0  0  0  0
 41 40  1  0  0  0  0
 42 43  1  0  0  0  0
 42 44  1  0  0  0  0
 43 44  1  0  0  0  0
 46 49  1  0  0  0  0
 47 49  1  0  0  0  0
 48 49  1  0  0  0  0
 49 45  1  0  0  0  0
M  END
>  <MODEL>
2

>  <REMARK>
 VINA RESULT:      -7.8      1.691      2.390
  Name = 
  9 active torsions:
  status: ('A' for Active; 'I' for Inactive)
    1  A    between atoms: C_12  and  C_16
    2  A    between atoms: C_15  and  C_49
    3  A    between atoms: C_16  and  C_26
    4  A    between atoms: C_16  and  C_35
    5  A    between atoms: C_20  and  C_22
    6  A    between atoms: C_20  and  C_31
    7  A    between atoms: C_25  and  C_30
    8  A    between atoms: C_26  and  C_39
    9  A    between atoms: C_35  and  C_42
                            x       y       z     vdW  Elec       q    Type
                         _______ _______ _______ _____ _____    ______ ____

>  <TORSDO>
F 9

$$$$
=
 OpenBabel11042417133D

 49 54  0  0  1  0  0  0  0  0999 V2000
  188.7590  177.6510  143.0460 C   0  0  0  0  0  3  0  0  0  0  0  0
  192.1700  174.7580  145.1410 C   0  0  0  0  0  0  0  0  0  0  0  0
  191.0130  174.3890  145.4740 O   0  0  0  0  0  0  0  0  0  0  0  0
  191.9840  172.0880  143.6100 N   0  0  0  0  0  0  0  0  0  0  0  0
  193.1710  173.8000  144.7830 N   0  0  0  0  0  2  0  0  0  0  0  0
  192.3980  176.7600  143.7200 C   0  0  0  0  0  2  0  0  0  0  0  0
  192.9190  172.4280  144.4480 C   0  0  0  0  0  0  0  0  0  0  0  0
  187.4360  176.5970  141.2710 C   0  0  0  0  0  3  0  0  0  0  0  0
  189.1750  174.8720  141.7480 C   0  0  0  0  0  0  0  0  0  0  0  0
  189.3510  173.4700  141.4740 N   0  0  0  0  0  0  0  0  0  0  0  0
  190.1860  172.6220  142.0060 C   0  0  0  0  0  0  0  0  0  0  0  0
  192.5110  176.2060  145.1320 C   0  0  0  0  0  2  0  0  0  0  0  0
  189.9260  175.5000  142.6730 C   0  0  0  0  0  3  0  0  0  0  0  0
  187.4230  177.1000  142.6720 C   0  0  2  0  0  3  0  0  0  0  0  0
  191.1490  173.0240  142.9830 N   0  0  0  0  0  2  0  0  0  0  0  0
  191.1440  177.5600  143.5630 C   0  0  0  0  0  0  0  0  0  0  0  0
  189.8910  176.9310  143.0690 C   0  0  0  0  0  0  0  0  0  0  0  0
  188.2040  175.5790  140.8880 C   0  0  0  0  0  3  0  0  0  0  0  0
  191.1920  178.8510  143.8870 C   0  0  0  0  0  2  0  0  0  0  0  0
  195.4990  169.4510  145.9840 C   0  0  0  0  0  3  0  0  0  0  0  0
  194.2800  169.1080  145.4030 C   0  0  0  0  0  3  0  0  0  0  0  0
  195.8460  170.8000  146.0430 C   0  0  0  0  0  3  0  0  0  0  0  0
  195.0040  171.7410  145.5430 N   0  0  0  0  0  0  0  0  0  0  0  0
  193.4640  170.0760  144.9130 N   0  0  0  0  0  0  0  0  0  0  0  0
  193.8160  171.3890  144.9790 C   0  0  0  0  0  0  0  0  0  0  0  0
  190.1550  171.2020  141.5390 C   0  0  0  0  0  2  0  0  0  0  0  0
  193.4320  170.4960  137.7940 C   0  0  0  0  0  0  0  0  0  0  0  0
  194.3740  170.3790  138.6990 C   0  0  0  0  0  0  0  0  0  0  0  0
  194.0010  170.3500  136.4280 C   0  0  0  0  0  2  0  0  0  0  0  0
  191.7730  170.8460  139.5920 N   0  0  0  0  0  0  0  0  0  0  0  0
  190.4470  171.1290  140.0720 C   0  0  0  0  0  0  0  0  0  0  0  0
  195.6120  170.1700  138.1300 O   0  0  0  0  0  0  0  0  0  0  0  0
  195.5010  170.1570  136.7100 C   0  0  1  0  0  3  0  0  0  0  0  0
  189.5000  171.3010  139.2580 O   0  0  0  0  0  0  0  0  0  0  0  0
  191.9870  170.7130  138.1380 C   0  0  0  0  0  2  0  0  0  0  0  0
  194.1050  170.4660  140.1320 C   0  0  0  0  0  3  0  0  0  0  0  0
  192.8530  170.6910  140.5390 C   0  0  0  0  0  3  0  0  0  0  0  0
  196.8870  168.7840  135.3900 O   0  0  0  0  0  0  0  0  0  0  0  0
  195.9530  168.8390  136.1740 C   0  0  0  0  0  3  0  0  0  0  0  0
  186.3620  178.1780  142.8150 C   0  0  0  0  0  2  0  0  0  0  0  0
  185.8010  178.2050  144.2300 C   0  0  2  0  0  3  0  0  0  0  0  0
  183.7730  179.0410  145.3880 C   0  0  0  0  0  2  0  0  0  0  0  0
  184.8700  179.3960  144.4020 C   0  0  0  0  0  3  0  0  0  0  0  0
  183.4810  179.0410  143.9040 C   0  0  0  0  0  2  0  0  0  0  0  0
  186.9580  178.3200  145.2210 C   0  0  0  0  0  2  0  0  0  0  0  0
  186.6120  178.0660  147.7020 C   0  0  0  0  0  1  0  0  0  0  0  0
  185.6780  176.4160  146.1330 C   0  0  0  0  0  1  0  0  0  0  0  0
  188.1110  176.4980  146.4990 C   0  0  0  0  0  1  0  0  0  0  0  0
  186.8510  177.3380  146.3900 C   0  0  0  0  0  0  0  0  0  0  0  0
  1 17  2  0  0  0  0
  2  3  2  0  0  0  0
  4  7  2  0  0  0  0
  5  2  1  0  0  0  0
  6 12  1  0  0  0  0
  7  5  1  0  0  0  0
  7 25  1  0  0  0  0
  8 14  1  0  0  0  0
  9 13  2  0  0  0  0
 10  9  1  0  0  0  0
 10 11  2  0  0  0  0
 11 15  1  0  0  0  0
 12  2  1  0  0  0  0
 13 17  1  0  0  0  0
 14 40  1  6  0  0  0
 14  1  1  0  0  0  0
 15  4  1  0  0  0  0
 16  6  1  0  0  0  0
 16 19  2  0  0  0  0
 17 16  1  0  0  0  0
 18  8  2  0  0  0  0
 18  9  1  0  0  0  0
 20 22  2  0  0  0  0
 21 20  1  0  0  0  0
 23 22  1  0  0  0  0
 24 25  1  0  0  0  0
 24 21  2  0  0  0  0
 25 23  2  0  0  0  0
 26 11  1  0  0  0  0
 27 35  1  0  0  0  0
 27 28  2  0  0  0  0
 28 36  1  0  0  0  0
 29 33  1  0  0  0  0
 29 27  1  0  0  0  0
 30 31  1  0  0  0  0
 30 37  1  0  0  0  0
 31 26  1  0  0  0  0
 32 28  1  0  0  0  0
 33 39  1  1  0  0  0
 33 32  1  0  0  0  0
 34 31  2  0  0  0  0
 35 30  1  0  0  0  0
 36 37  2  0  0  0  0
 38 39  2  0  0  0  0
 41 40  1  6  0  0  0
 41 43  1  0  0  0  0
 41 45  1  0  0  0  0
 43 42  1  0  0  0  0
 44 43  1  0  0  0  0
 44 42  1  0  0  0  0
 45 49  1  0  0  0  0
 47 49  1  0  0  0  0
 49 48  1  0  0  0  0
 49 46  1  0  0  0  0
M  END
>  <MODEL>
3

>  <REMARK>
 VINA RESULT:      -7.0      2.798      7.948
  Name = 
  9 active torsions:
  status: ('A' for Active; 'I' for Inactive)
    1  A    between atoms: C_12  and  C_16
    2  A    between atoms: C_15  and  C_49
    3  A    between atoms: C_16  and  C_26
    4  A    between atoms: C_16  and  C_35
    5  A    between atoms: C_20  and  C_22
    6  A    between atoms: C_20  and  C_31
    7  A    between atoms: C_25  and  C_30
    8  A    between atoms: C_26  and  C_39
    9  A    between atoms: C_35  and  C_42
                            x       y       z     vdW  Elec       q    Type
                         _______ _______ _______ _____ _____    ______ ____

>  <TORSDO>
F 9

$$$$
=
 OpenBabel11042417133D

 49 54  0  0  1  0  0  0  0  0999 V2000
  188.8510  177.4280  143.1240 C   0  0  0  0  0  3  0  0  0  0  0  0
  192.5920  175.0230  145.2710 C   0  0  0  0  0  0  0  0  0  0  0  0
  191.4910  174.6510  145.7570 O   0  0  0  0  0  0  0  0  0  0  0  0
  192.4360  172.1590  144.1430 N   0  0  0  0  0  0  0  0  0  0  0  0
  193.6140  174.0720  144.9580 N   0  0  0  0  0  2  0  0  0  0  0  0
  192.5800  176.8130  143.5750 C   0  0  0  0  0  2  0  0  0  0  0  0
  193.4170  172.6560  144.8370 C   0  0  0  0  0  0  0  0  0  0  0  0
  187.4470  176.0730  141.6380 C   0  0  0  0  0  3  0  0  0  0  0  0
  189.3200  174.5160  142.1850 C   0  0  0  0  0  0  0  0  0  0  0  0
  189.5550  173.0990  142.0890 N   0  0  0  0  0  0  0  0  0  0  0  0
  190.4800  172.3750  142.6530 C   0  0  0  0  0  0  0  0  0  0  0  0
  192.8440  176.4700  145.0340 C   0  0  0  0  0  2  0  0  0  0  0  0
  190.1080  175.3030  142.9420 C   0  0  0  0  0  3  0  0  0  0  0  0
  187.5230  176.7680  142.9520 C   0  0  2  0  0  3  0  0  0  0  0  0
  191.4970  172.9560  143.4740 N   0  0  0  0  0  2  0  0  0  0  0  0
  191.2720  177.5230  143.4270 C   0  0  0  0  0  0  0  0  0  0  0  0
  190.0210  176.7720  143.1400 C   0  0  0  0  0  0  0  0  0  0  0  0
  188.2390  175.0480  141.3280 C   0  0  0  0  0  3  0  0  0  0  0  0
  191.2700  178.8480  143.5660 C   0  0  0  0  0  2  0  0  0  0  0  0
  196.2920  170.0530  146.5190 C   0  0  0  0  0  3  0  0  0  0  0  0
  194.9620  169.6590  146.3910 C   0  0  0  0  0  3  0  0  0  0  0  0
  196.6500  171.3250  146.0760 C   0  0  0  0  0  3  0  0  0  0  0  0
  195.7120  172.1460  145.5370 N   0  0  0  0  0  0  0  0  0  0  0  0
  194.0510  170.5070  145.8480 N   0  0  0  0  0  0  0  0  0  0  0  0
  194.4160  171.7470  145.4200 C   0  0  0  0  0  0  0  0  0  0  0  0
  190.4940  170.9040  142.3890 C   0  0  0  0  0  2  0  0  0  0  0  0
  192.0850  170.7650  137.6230 C   0  0  0  0  0  0  0  0  0  0  0  0
  190.9140  171.2340  137.2640 C   0  0  0  0  0  0  0  0  0  0  0  0
  192.9470  170.5500  136.4300 C   0  0  0  0  0  2  0  0  0  0  0  0
  191.3610  170.8140  139.9860 N   0  0  0  0  0  0  0  0  0  0  0  0
  191.5560  170.5630  141.3880 C   0  0  0  0  0  0  0  0  0  0  0  0
  190.8130  171.3790  135.8970 O   0  0  0  0  0  0  0  0  0  0  0  0
  192.0220  170.9570  135.2710 C   0  0  1  0  0  3  0  0  0  0  0  0
  192.6390  170.0690  141.8010 O   0  0  0  0  0  0  0  0  0  0  0  0
  192.4700  170.5260  139.0540 C   0  0  0  0  0  2  0  0  0  0  0  0
  189.8640  171.5530  138.2290 C   0  0  0  0  0  3  0  0  0  0  0  0
  190.0980  171.3430  139.5270 C   0  0  0  0  0  3  0  0  0  0  0  0
  193.5500  172.7290  134.9950 O   0  0  0  0  0  0  0  0  0  0  0  0
  192.6260  172.0920  134.5130 C   0  0  0  0  0  3  0  0  0  0  0  0
  186.4160  177.8040  143.0430 C   0  0  0  0  0  2  0  0  0  0  0  0
  185.9870  178.0160  144.4900 C   0  0  2  0  0  3  0  0  0  0  0  0
  184.0040  179.0450  145.5660 C   0  0  0  0  0  2  0  0  0  0  0  0
  185.1560  179.2840  144.6080 C   0  0  0  0  0  3  0  0  0  0  0  0
  183.7570  179.0360  144.0750 C   0  0  0  0  0  2  0  0  0  0  0  0
  187.2330  178.1440  145.3630 C   0  0  0  0  0  2  0  0  0  0  0  0
  187.0310  178.2020  147.8730 C   0  0  0  0  0  1  0  0  0  0  0  0
  185.9350  176.4250  146.5690 C   0  0  0  0  0  1  0  0  0  0  0  0
  188.3870  176.4320  146.7850 C   0  0  0  0  0  1  0  0  0  0  0  0
  187.1590  177.3130  146.6470 C   0  0  0  0  0  0  0  0  0  0  0  0
  1 17  2  0  0  0  0
  2  3  2  0  0  0  0
  4  7  2  0  0  0  0
  5  2  1  0  0  0  0
  6 12  1  0  0  0  0
  7  5  1  0  0  0  0
  7 25  1  0  0  0  0
  8 14  1  0  0  0  0
  9 13  2  0  0  0  0
 10  9  1  0  0  0  0
 10 11  2  0  0  0  0
 11 15  1  0  0  0  0
 12  2  1  0  0  0  0
 13 17  1  0  0  0  0
 14 40  1  6  0  0  0
 14  1  1  0  0  0  0
 15  4  1  0  0  0  0
 16 19  2  0  0  0  0
 16  6  1  0  0  0  0
 17 16  1  0  0  0  0
 18  8  2  0  0  0  0
 18  9  1  0  0  0  0
 21 20  1  0  0  0  0
 22 20  2  0  0  0  0
 23 22  1  0  0  0  0
 24 21  2  0  0  0  0
 25 23  2  0  0  0  0
 25 24  1  0  0  0  0
 26 11  1  0  0  0  0
 27 35  1  0  0  0  0
 28 27  2  0  0  0  0
 28 36  1  0  0  0  0
 29 27  1  0  0  0  0
 30 31  1  0  0  0  0
 31 34  2  0  0  0  0
 31 26  1  0  0  0  0
 32 28  1  0  0  0  0
 33 39  1  1  0  0  0
 33 32  1  0  0  0  0
 33 29  1  0  0  0  0
 35 30  1  0  0  0  0
 36 37  2  0  0  0  0
 37 30  1  0  0  0  0
 39 38  2  0  0  0  0
 41 40  1  6  0  0  0
 41 43  1  0  0  0  0
 41 45  1  0  0  0  0
 43 42  1  0  0  0  0
 44 43  1  0  0  0  0
 44 42  1  0  0  0  0
 45 49  1  0  0  0  0
 47 49  1  0  0  0  0
 49 48  1  0  0  0  0
 49 46  1  0  0  0  0
M  END
>  <MODEL>
4

>  <REMARK>
 VINA RESULT:      -7.0      2.783      7.996
  Name = 
  9 active torsions:
  status: ('A' for Active; 'I' for Inactive)
    1  A    between atoms: C_12  and  C_16
    2  A    between atoms: C_15  and  C_49
    3  A    between atoms: C_16  and  C_26
    4  A    between atoms: C_16  and  C_35
    5  A    between atoms: C_20  and  C_22
    6  A    between atoms: C_20  and  C_31
    7  A    between atoms: C_25  and  C_30
    8  A    between atoms: C_26  and  C_39
    9  A    between atoms: C_35  and  C_42
                            x       y       z     vdW  Elec       q    Type
                         _______ _______ _______ _____ _____    ______ ____

>  <TORSDO>
F 9

$$$$
=
 OpenBabel11042417133D

 49 54  0  0  1  0  0  0  0  0999 V2000
  187.9100  175.0670  140.1840 C   0  0  0  0  0  3  0  0  0  0  0  0
  191.5980  173.5160  137.2880 C   0  0  0  0  0  0  0  0  0  0  0  0
  192.0460  174.1990  138.2470 O   0  0  0  0  0  0  0  0  0  0  0  0
  193.0040  171.3110  138.9200 N   0  0  0  0  0  0  0  0  0  0  0  0
  192.2450  172.3060  136.8840 N   0  0  0  0  0  2  0  0  0  0  0  0
  189.1550  173.2570  137.0760 C   0  0  0  0  0  2  0  0  0  0  0  0
  193.2070  171.5830  137.6650 C   0  0  0  0  0  0  0  0  0  0  0  0
  187.7860  173.9990  142.3880 C   0  0  0  0  0  3  0  0  0  0  0  0
  189.5560  172.6680  141.2390 C   0  0  0  0  0  0  0  0  0  0  0  0
  190.5920  171.7510  141.6390 N   0  0  0  0  0  0  0  0  0  0  0  0
  191.6220  171.3240  140.9650 C   0  0  0  0  0  0  0  0  0  0  0  0
  190.3880  173.9770  136.5540 C   0  0  0  0  0  2  0  0  0  0  0  0
  189.5570  173.2270  140.0130 C   0  0  0  0  0  3  0  0  0  0  0  0
  188.1210  175.2480  141.6510 C   0  0  2  0  0  3  0  0  0  0  0  0
  191.8490  171.7100  139.6070 N   0  0  0  0  0  2  0  0  0  0  0  0
  188.3520  174.1560  137.9630 C   0  0  0  0  0  0  0  0  0  0  0  0
  188.5670  174.1710  139.4340 C   0  0  0  0  0  0  0  0  0  0  0  0
  188.4610  172.8650  142.2110 C   0  0  0  0  0  3  0  0  0  0  0  0
  187.4450  174.9420  137.3850 C   0  0  0  0  0  2  0  0  0  0  0  0
  196.6240  170.0060  135.7380 C   0  0  0  0  0  3  0  0  0  0  0  0
  196.5530  171.3570  136.0710 C   0  0  0  0  0  3  0  0  0  0  0  0
  195.5410  169.1890  136.0580 C   0  0  0  0  0  3  0  0  0  0  0  0
  194.4540  169.7140  136.6780 N   0  0  0  0  0  0  0  0  0  0  0  0
  195.4480  171.8470  136.6910 N   0  0  0  0  0  0  0  0  0  0  0  0
  194.3990  171.0360  136.9970 C   0  0  0  0  0  0  0  0  0  0  0  0
  192.5610  170.3680  141.6290 C   0  0  0  0  0  2  0  0  0  0  0  0
  194.3410  173.9610  144.6590 C   0  0  0  0  0  0  0  0  0  0  0  0
  194.5830  174.6810  143.5900 C   0  0  0  0  0  0  0  0  0  0  0  0
  194.7540  174.6940  145.8850 C   0  0  0  0  0  2  0  0  0  0  0  0
  193.4500  172.1590  143.2200 N   0  0  0  0  0  0  0  0  0  0  0  0
  192.9060  170.8460  143.0050 C   0  0  0  0  0  0  0  0  0  0  0  0
  195.1580  175.8940  143.9050 O   0  0  0  0  0  0  0  0  0  0  0  0
  195.3340  176.0000  145.3140 C   0  0  1  0  0  3  0  0  0  0  0  0
  192.6910  170.0790  143.9830 O   0  0  0  0  0  0  0  0  0  0  0  0
  193.7020  172.6040  144.6050 C   0  0  0  0  0  2  0  0  0  0  0  0
  194.2670  174.2190  142.2400 C   0  0  0  0  0  3  0  0  0  0  0  0
  193.7270  173.0080  142.0850 C   0  0  0  0  0  3  0  0  0  0  0  0
  193.9490  177.0760  146.8880 O   0  0  0  0  0  0  0  0  0  0  0  0
  194.5660  177.1680  145.8380 C   0  0  0  0  0  3  0  0  0  0  0  0
  187.2540  176.3870  142.1600 C   0  0  0  0  0  2  0  0  0  0  0  0
  187.4930  176.6290  143.6450 C   0  0  2  0  0  3  0  0  0  0  0  0
  186.7340  177.8870  145.6430 C   0  0  0  0  0  2  0  0  0  0  0  0
  186.3880  177.5050  144.2170 C   0  0  0  0  0  3  0  0  0  0  0  0
  185.7190  176.7980  145.3810 C   0  0  0  0  0  2  0  0  0  0  0  0
  188.8380  177.3300  143.8240 C   0  0  0  0  0  2  0  0  0  0  0  0
  190.9840  176.0170  143.7050 C   0  0  0  0  0  1  0  0  0  0  0  0
  190.4460  177.3600  145.6970 C   0  0  0  0  0  1  0  0  0  0  0  0
  189.1810  175.2960  145.2490 C   0  0  0  0  0  1  0  0  0  0  0  0
  189.8550  176.4940  144.6040 C   0  0  0  0  0  0  0  0  0  0  0  0
  1 14  1  0  0  0  0
  2  3  2  0  0  0  0
  4 15  1  0  0  0  0
  5  2  1  0  0  0  0
  5  7  1  0  0  0  0
  6 16  1  0  0  0  0
  7  4  2  0  0  0  0
  9 10  1  0  0  0  0
  9 18  1  0  0  0  0
 11 26  1  0  0  0  0
 11 10  2  0  0  0  0
 12  6  1  0  0  0  0
 12  2  1  0  0  0  0
 13  9  2  0  0  0  0
 14 40  1  1  0  0  0
 14  8  1  0  0  0  0
 15 11  1  0  0  0  0
 16 17  1  0  0  0  0
 17 13  1  0  0  0  0
 17  1  2  0  0  0  0
 18  8  2  0  0  0  0
 19 16  2  0  0  0  0
 20 22  2  0  0  0  0
 20 21  1  0  0  0  0
 21 24  2  0  0  0  0
 22 23  1  0  0  0  0
 23 25  2  0  0  0  0
 24 25  1  0  0  0  0
 25  7  1  0  0  0  0
 26 31  1  0  0  0  0
 27 29  1  0  0  0  0
 28 32  1  0  0  0  0
 28 27  2  0  0  0  0
 30 35  1  0  0  0  0
 31 30  1  0  0  0  0
 31 34  2  0  0  0  0
 32 33  1  0  0  0  0
 33 39  1  1  0  0  0
 33 29  1  0  0  0  0
 35 27  1  0  0  0  0
 36 28  1  0  0  0  0
 37 36  2  0  0  0  0
 37 30  1  0  0  0  0
 39 38  2  0  0  0  0
 41 40  1  6  0  0  0
 41 45  1  0  0  0  0
 41 43  1  0  0  0  0
 43 44  1  0  0  0  0
 43 42  1  0  0  0  0
 44 42  1  0  0  0  0
 45 49  1  0  0  0  0
 46 49  1  0  0  0  0
 49 48  1  0  0  0  0
 49 47  1  0  0  0  0
M  END
>  <MODEL>
5

>  <REMARK>
 VINA RESULT:      -6.8      3.155      9.251
  Name = 
  9 active torsions:
  status: ('A' for Active; 'I' for Inactive)
    1  A    between atoms: C_12  and  C_16
    2  A    between atoms: C_15  and  C_49
    3  A    between atoms: C_16  and  C_26
    4  A    between atoms: C_16  and  C_35
    5  A    between atoms: C_20  and  C_22
    6  A    between atoms: C_20  and  C_31
    7  A    between atoms: C_25  and  C_30
    8  A    between atoms: C_26  and  C_39
    9  A    between atoms: C_35  and  C_42
                            x       y       z     vdW  Elec       q    Type
                         _______ _______ _______ _____ _____    ______ ____

>  <TORSDO>
F 9

$$$$
=
 OpenBabel11042417133D

 49 54  0  0  1  0  0  0  0  0999 V2000
  191.7790  170.9380  137.9530 C   0  0  0  0  0  3  0  0  0  0  0  0
  188.1890  173.9480  139.5160 C   0  0  0  0  0  0  0  0  0  0  0  0
  188.3110  172.9640  140.2940 O   0  0  0  0  0  0  0  0  0  0  0  0
  189.3650  175.3520  141.9960 N   0  0  0  0  0  0  0  0  0  0  0  0
  188.0080  175.2700  140.0300 N   0  0  0  0  0  2  0  0  0  0  0  0
  189.6080  174.0310  137.5010 C   0  0  0  0  0  2  0  0  0  0  0  0
  188.2640  175.6740  141.3830 C   0  0  0  0  0  0  0  0  0  0  0  0
  193.8100  170.9240  139.3270 C   0  0  0  0  0  3  0  0  0  0  0  0
  192.4890  172.7900  140.3290 C   0  0  0  0  0  0  0  0  0  0  0  0
  192.5150  173.5390  141.5570 N   0  0  0  0  0  0  0  0  0  0  0  0
  191.6040  174.3160  142.0720 C   0  0  0  0  0  0  0  0  0  0  0  0
  188.2180  173.7340  138.0440 C   0  0  0  0  0  2  0  0  0  0  0  0
  191.4150  172.8220  139.5170 C   0  0  0  0  0  3  0  0  0  0  0  0
  192.5960  170.1590  138.9300 C   0  0  2  0  0  3  0  0  0  0  0  0
  190.3720  174.5830  141.3960 N   0  0  0  0  0  2  0  0  0  0  0  0
  190.3410  172.7620  137.2010 C   0  0  0  0  0  0  0  0  0  0  0  0
  191.2260  172.1310  138.2160 C   0  0  0  0  0  0  0  0  0  0  0  0
  193.7390  172.0830  139.9790 C   0  0  0  0  0  3  0  0  0  0  0  0
  190.1680  172.2200  135.9970 C   0  0  0  0  0  2  0  0  0  0  0  0
  185.5120  178.2530  143.2920 C   0  0  0  0  0  3  0  0  0  0  0  0
  185.7160  176.9570  143.7590 C   0  0  0  0  0  3  0  0  0  0  0  0
  186.2400  178.6780  142.1810 C   0  0  0  0  0  3  0  0  0  0  0  0
  187.1200  177.8350  141.5830 N   0  0  0  0  0  0  0  0  0  0  0  0
  186.6050  176.1410  143.1350 N   0  0  0  0  0  0  0  0  0  0  0  0
  187.3080  176.5700  142.0510 C   0  0  0  0  0  0  0  0  0  0  0  0
  191.8870  174.9770  143.3820 C   0  0  0  0  0  2  0  0  0  0  0  0
  188.0820  176.2080  146.4270 C   0  0  0  0  0  0  0  0  0  0  0  0
  188.2370  177.4530  146.0450 C   0  0  0  0  0  0  0  0  0  0  0  0
  186.9760  176.1000  147.4150 C   0  0  0  0  0  2  0  0  0  0  0  0
  189.9440  175.5400  144.9450 N   0  0  0  0  0  0  0  0  0  0  0  0
  190.8620  174.5780  144.3990 C   0  0  0  0  0  0  0  0  0  0  0  0
  187.3480  178.2990  146.6730 O   0  0  0  0  0  0  0  0  0  0  0  0
  186.5240  177.5620  147.5720 C   0  0  1  0  0  3  0  0  0  0  0  0
  190.8030  173.3700  144.7560 O   0  0  0  0  0  0  0  0  0  0  0  0
  188.9080  175.0760  145.8880 C   0  0  0  0  0  2  0  0  0  0  0  0
  189.2450  177.8580  145.0670 C   0  0  0  0  0  3  0  0  0  0  0  0
  190.0520  176.9270  144.5540 C   0  0  0  0  0  3  0  0  0  0  0  0
  184.6580  178.7720  146.7970 O   0  0  0  0  0  0  0  0  0  0  0  0
  185.0910  177.6970  147.1780 C   0  0  0  0  0  3  0  0  0  0  0  0
  193.0100  168.8330  138.3160 C   0  0  0  0  0  2  0  0  0  0  0  0
  193.2910  168.9860  136.8270 C   0  0  2  0  0  3  0  0  0  0  0  0
  192.7090  168.1670  134.5600 C   0  0  0  0  0  2  0  0  0  0  0  0
  192.2970  168.1660  136.0200 C   0  0  0  0  0  3  0  0  0  0  0  0
  191.5800  169.0580  135.0230 C   0  0  0  0  0  2  0  0  0  0  0  0
  194.7070  168.4960  136.5350 C   0  0  0  0  0  2  0  0  0  0  0  0
  196.5910  169.9350  137.3850 C   0  0  0  0  0  1  0  0  0  0  0  0
  196.5440  169.1900  135.0390 C   0  0  0  0  0  1  0  0  0  0  0  0
  194.9290  170.8830  135.8050 C   0  0  0  0  0  1  0  0  0  0  0  0
  195.6830  169.6280  136.2060 C   0  0  0  0  0  0  0  0  0  0  0  0
  1 17  2  0  0  0  0
  1 14  1  0  0  0  0
  2  5  1  0  0  0  0
  2  3  2  0  0  0  0
  5  7  1  0  0  0  0
  6 12  1  0  0  0  0
  7  4  2  0  0  0  0
  7 25  1  0  0  0  0
  8 18  2  0  0  0  0
  9 10  1  0  0  0  0
 10 11  2  0  0  0  0
 11 26  1  0  0  0  0
 12  2  1  0  0  0  0
 13  9  2  0  0  0  0
 14 40  1  6  0  0  0
 14  8  1  0  0  0  0
 15  4  1  0  0  0  0
 15 11  1  0  0  0  0
 16  6  1  0  0  0  0
 16 17  1  0  0  0  0
 17 13  1  0  0  0  0
 18  9  1  0  0  0  0
 19 16  2  0  0  0  0
 20 21  1  0  0  0  0
 22 20  2  0  0  0  0
 23 25  2  0  0  0  0
 23 22  1  0  0  0  0
 24 21  2  0  0  0  0
 25 24  1  0  0  0  0
 26 31  1  0  0  0  0
 27 29  1  0  0  0  0
 28 27  2  0  0  0  0
 28 32  1  0  0  0  0
 29 33  1  0  0  0  0
 30 35  1  0  0  0  0
 31 34  2  0  0  0  0
 31 30  1  0  0  0  0
 32 33  1  0  0  0  0
 33 39  1  6  0  0  0
 35 27  1  0  0  0  0
 36 28  1  0  0  0  0
 37 30  1  0  0  0  0
 37 36  2  0  0  0  0
 38 39  2  0  0  0  0
 41 45  1  1  0  0  0
 41 40  1  0  0  0  0
 42 44  1  0  0  0  0
 42 43  1  0  0  0  0
 43 41  1  0  0  0  0
 44 43  1  0  0  0  0
 47 49  1  0  0  0  0
 48 49  1  0  0  0  0
 49 45  1  0  0  0  0
 49 46  1  0  0  0  0
M  END
>  <MODEL>
6

>  <REMARK>
 VINA RESULT:      -6.7      3.227      8.558
  Name = 
  9 active torsions:
  status: ('A' for Active; 'I' for Inactive)
    1  A    between atoms: C_12  and  C_16
    2  A    between atoms: C_15  and  C_49
    3  A    between atoms: C_16  and  C_26
    4  A    between atoms: C_16  and  C_35
    5  A    between atoms: C_20  and  C_22
    6  A    between atoms: C_20  and  C_31
    7  A    between atoms: C_25  and  C_30
    8  A    between atoms: C_26  and  C_39
    9  A    between atoms: C_35  and  C_42
                            x       y       z     vdW  Elec       q    Type
                         _______ _______ _______ _____ _____    ______ ____

>  <TORSDO>
F 9

$$$$
=
 OpenBabel11042417133D

 49 54  0  0  1  0  0  0  0  0999 V2000
  190.5720  172.1160  140.0440 C   0  0  0  0  0  3  0  0  0  0  0  0
  190.1450  174.3700  144.4180 C   0  0  0  0  0  0  0  0  0  0  0  0
  190.8610  175.0520  143.6380 O   0  0  0  0  0  0  0  0  0  0  0  0
  188.2640  176.7550  143.8930 N   0  0  0  0  0  0  0  0  0  0  0  0
  189.1570  174.9950  145.2420 N   0  0  0  0  0  2  0  0  0  0  0  0
  189.3060  172.1880  143.6330 C   0  0  0  0  0  2  0  0  0  0  0  0
  188.6490  176.3240  145.0580 C   0  0  0  0  0  0  0  0  0  0  0  0
  189.3820  173.1900  138.1890 C   0  0  0  0  0  3  0  0  0  0  0  0
  188.5950  174.4940  140.1670 C   0  0  0  0  0  0  0  0  0  0  0  0
  187.9400  175.7570  140.3850 N   0  0  0  0  0  0  0  0  0  0  0  0
  187.8180  176.4460  141.4850 C   0  0  0  0  0  0  0  0  0  0  0  0
  190.3370  172.8960  144.4990 C   0  0  0  0  0  2  0  0  0  0  0  0
  189.2070  173.8440  141.1750 C   0  0  0  0  0  3  0  0  0  0  0  0
  190.7150  172.9130  138.7900 C   0  0  2  0  0  3  0  0  0  0  0  0
  188.3250  175.9680  142.7340 N   0  0  0  0  0  2  0  0  0  0  0  0
  189.9270  171.7010  142.3620 C   0  0  0  0  0  0  0  0  0  0  0  0
  189.9100  172.5360  141.1320 C   0  0  0  0  0  0  0  0  0  0  0  0
  188.4610  173.9260  138.8090 C   0  0  0  0  0  3  0  0  0  0  0  0
  190.4980  170.4980  142.3770 C   0  0  0  0  0  2  0  0  0  0  0  0
  188.0730  178.7750  148.4540 C   0  0  0  0  0  3  0  0  0  0  0  0
  189.3520  178.3870  148.0640 C   0  0  0  0  0  3  0  0  0  0  0  0
  186.9890  178.3370  147.6950 C   0  0  0  0  0  3  0  0  0  0  0  0
  187.1950  177.5520  146.6070 N   0  0  0  0  0  0  0  0  0  0  0  0
  189.5200  177.6000  146.9700 N   0  0  0  0  0  0  0  0  0  0  0  0
  188.4520  177.1800  146.2380 C   0  0  0  0  0  0  0  0  0  0  0  0
  187.0860  177.7480  141.4340 C   0  0  0  0  0  2  0  0  0  0  0  0
  182.1210  178.2460  140.8280 C   0  0  0  0  0  0  0  0  0  0  0  0
  182.0480  178.6090  142.0860 C   0  0  0  0  0  0  0  0  0  0  0  0
  180.7700  178.2450  140.2070 C   0  0  0  0  0  2  0  0  0  0  0  0
  184.5680  177.9860  141.0630 N   0  0  0  0  0  0  0  0  0  0  0  0
  185.8690  177.6280  140.5680 C   0  0  0  0  0  0  0  0  0  0  0  0
  180.7510  178.8700  142.4730 O   0  0  0  0  0  0  0  0  0  0  0  0
  179.8620  178.6520  141.3820 C   0  0  1  0  0  3  0  0  0  0  0  0
  186.0090  177.2250  139.3820 O   0  0  0  0  0  0  0  0  0  0  0  0
  183.4160  177.9180  140.1430 C   0  0  0  0  0  2  0  0  0  0  0  0
  183.2250  178.7120  142.9460 C   0  0  0  0  0  3  0  0  0  0  0  0
  184.4210  178.4080  142.4370 C   0  0  0  0  0  3  0  0  0  0  0  0
  179.7230  180.8260  140.4860 O   0  0  0  0  0  0  0  0  0  0  0  0
  179.1400  179.9150  141.0510 C   0  0  0  0  0  3  0  0  0  0  0  0
  191.5740  172.1560  137.7920 C   0  0  0  0  0  2  0  0  0  0  0  0
  192.8230  172.9520  137.4350 C   0  0  2  0  0  3  0  0  0  0  0  0
  195.1060  173.5840  138.1680 C   0  0  0  0  0  2  0  0  0  0  0  0
  193.9320  172.6600  138.4340 C   0  0  0  0  0  3  0  0  0  0  0  0
  195.1600  172.1460  137.7050 C   0  0  0  0  0  2  0  0  0  0  0  0
  192.4890  174.4420  137.4710 C   0  0  0  0  0  2  0  0  0  0  0  0
  191.0460  175.3890  135.6370 C   0  0  0  0  0  1  0  0  0  0  0  0
  193.2320  176.3940  136.1560 C   0  0  0  0  0  1  0  0  0  0  0  0
  193.1410  174.1900  135.0640 C   0  0  0  0  0  1  0  0  0  0  0  0
  192.4670  175.0890  136.0840 C   0  0  0  0  0  0  0  0  0  0  0  0
  1 17  2  0  0  0  0
  2 12  1  0  0  0  0
  2  5  1  0  0  0  0
  3  2  2  0  0  0  0
  4  7  2  0  0  0  0
  6 12  1  0  0  0  0
  7  5  1  0  0  0  0
  7 25  1  0  0  0  0
  8 14  1  0  0  0  0
  8 18  2  0  0  0  0
  9 10  1  0  0  0  0
  9 13  2  0  0  0  0
 10 11  2  0  0  0  0
 11 15  1  0  0  0  0
 14 40  1  6  0  0  0
 14  1  1  0  0  0  0
 15  4  1  0  0  0  0
 16 19  2  0  0  0  0
 16  6  1  0  0  0  0
 17 13  1  0  0  0  0
 17 16  1  0  0  0  0
 18  9  1  0  0  0  0
 21 20  1  0  0  0  0
 22 20  2  0  0  0  0
 23 22  1  0  0  0  0
 24 21  2  0  0  0  0
 25 23  2  0  0  0  0
 25 24  1  0  0  0  0
 26 11  1  0  0  0  0
 27 28  2  0  0  0  0
 28 32  1  0  0  0  0
 28 36  1  0  0  0  0
 29 27  1  0  0  0  0
 29 33  1  0  0  0  0
 30 37  1  0  0  0  0
 31 30  1  0  0  0  0
 31 26  1  0  0  0  0
 33 39  1  6  0  0  0
 33 32  1  0  0  0  0
 34 31  2  0  0  0  0
 35 27  1  0  0  0  0
 35 30  1  0  0  0  0
 37 36  2  0  0  0  0
 38 39  2  0  0  0  0
 41 45  1  1  0  0  0
 41 40  1  0  0  0  0
 41 43  1  0  0  0  0
 42 43  1  0  0  0  0
 44 42  1  0  0  0  0
 44 43  1  0  0  0  0
 46 49  1  0  0  0  0
 48 49  1  0  0  0  0
 49 47  1  0  0  0  0
 49 45  1  0  0  0  0
M  END
>  <MODEL>
7

>  <REMARK>
 VINA RESULT:      -6.7      3.711      8.592
  Name = 
  9 active torsions:
  status: ('A' for Active; 'I' for Inactive)
    1  A    between atoms: C_12  and  C_16
    2  A    between atoms: C_15  and  C_49
    3  A    between atoms: C_16  and  C_26
    4  A    between atoms: C_16  and  C_35
    5  A    between atoms: C_20  and  C_22
    6  A    between atoms: C_20  and  C_31
    7  A    between atoms: C_25  and  C_30
    8  A    between atoms: C_26  and  C_39
    9  A    between atoms: C_35  and  C_42
                            x       y       z     vdW  Elec       q    Type
                         _______ _______ _______ _____ _____    ______ ____

>  <TORSDO>
F 9

$$$$
=
 OpenBabel11042417133D

 49 54  0  0  1  0  0  0  0  0999 V2000
  190.7420  172.5350  140.4240 C   0  0  0  0  0  3  0  0  0  0  0  0
  189.9580  174.7440  144.7710 C   0  0  0  0  0  0  0  0  0  0  0  0
  190.6750  175.4680  144.0310 O   0  0  0  0  0  0  0  0  0  0  0  0
  187.9770  177.0220  144.1490 N   0  0  0  0  0  0  0  0  0  0  0  0
  188.8940  175.3100  145.5420 N   0  0  0  0  0  2  0  0  0  0  0  0
  189.2850  172.5220  143.9410 C   0  0  0  0  0  2  0  0  0  0  0  0
  188.3230  176.6100  145.3330 C   0  0  0  0  0  0  0  0  0  0  0  0
  189.5940  173.5480  138.5100 C   0  0  0  0  0  3  0  0  0  0  0  0
  188.6310  174.7980  140.4440 C   0  0  0  0  0  0  0  0  0  0  0  0
  187.8960  176.0220  140.6280 N   0  0  0  0  0  0  0  0  0  0  0  0
  187.6780  176.6990  141.7200 C   0  0  0  0  0  0  0  0  0  0  0  0
  190.2270  173.2830  144.8610 C   0  0  0  0  0  2  0  0  0  0  0  0
  189.2240  174.1790  141.4830 C   0  0  0  0  0  3  0  0  0  0  0  0
  190.9070  173.3430  139.1810 C   0  0  2  0  0  3  0  0  0  0  0  0
  188.1440  176.2450  142.9940 N   0  0  0  0  0  2  0  0  0  0  0  0
  189.9990  172.0750  142.7050 C   0  0  0  0  0  0  0  0  0  0  0  0
  190.0010  172.9130  141.4760 C   0  0  0  0  0  0  0  0  0  0  0  0
  188.6010  174.2290  139.0800 C   0  0  0  0  0  3  0  0  0  0  0  0
  190.6340  170.9050  142.7480 C   0  0  0  0  0  2  0  0  0  0  0  0
  187.4320  179.0110  148.6960 C   0  0  0  0  0  3  0  0  0  0  0  0
  188.7520  178.7460  148.3390 C   0  0  0  0  0  3  0  0  0  0  0  0
  186.4140  178.4670  147.9150 C   0  0  0  0  0  3  0  0  0  0  0  0
  186.7210  177.6990  146.8380 N   0  0  0  0  0  0  0  0  0  0  0  0
  189.0210  177.9730  147.2550 N   0  0  0  0  0  0  0  0  0  0  0  0
  188.0160  177.4490  146.5020 C   0  0  0  0  0  0  0  0  0  0  0  0
  186.8780  177.9580  141.6310 C   0  0  0  0  0  2  0  0  0  0  0  0
  181.9140  178.2360  140.8890 C   0  0  0  0  0  0  0  0  0  0  0  0
  181.7960  178.6420  142.1310 C   0  0  0  0  0  0  0  0  0  0  0  0
  180.5800  178.1600  140.2370 C   0  0  0  0  0  2  0  0  0  0  0  0
  184.3630  178.0830  141.1920 N   0  0  0  0  0  0  0  0  0  0  0  0
  185.6890  177.7590  140.7420 C   0  0  0  0  0  0  0  0  0  0  0  0
  180.4800  178.8650  142.4770 O   0  0  0  0  0  0  0  0  0  0  0  0
  179.6280  178.5720  141.3730 C   0  0  1  0  0  3  0  0  0  0  0  0
  185.8740  177.3190  139.5750 O   0  0  0  0  0  0  0  0  0  0  0  0
  183.2380  177.9360  140.2480 C   0  0  0  0  0  2  0  0  0  0  0  0
  182.9460  178.8220  143.0140 C   0  0  0  0  0  3  0  0  0  0  0  0
  184.1650  178.5480  142.5460 C   0  0  0  0  0  3  0  0  0  0  0  0
  179.4480  180.7500  140.4940 O   0  0  0  0  0  0  0  0  0  0  0  0
  178.8660  179.7930  140.9790 C   0  0  0  0  0  3  0  0  0  0  0  0
  191.8580  172.6390  138.2290 C   0  0  0  0  0  2  0  0  0  0  0  0
  192.2290  171.2580  138.7530 C   0  0  2  0  0  3  0  0  0  0  0  0
  194.2880  169.9600  139.2290 C   0  0  0  0  0  2  0  0  0  0  0  0
  193.5990  171.2990  139.4130 C   0  0  0  0  0  3  0  0  0  0  0  0
  193.6510  170.3020  140.5560 C   0  0  0  0  0  2  0  0  0  0  0  0
  192.2590  170.2750  137.5840 C   0  0  0  0  0  2  0  0  0  0  0  0
  190.0720  170.3270  136.3370 C   0  0  0  0  0  1  0  0  0  0  0  0
  191.1950  168.1880  136.8080 C   0  0  0  0  0  1  0  0  0  0  0  0
  190.1510  169.4400  138.6520 C   0  0  0  0  0  1  0  0  0  0  0  0
  190.9190  169.5740  137.3500 C   0  0  0  0  0  0  0  0  0  0  0  0
  1 17  2  0  0  0  0
  2 12  1  0  0  0  0
  2  5  1  0  0  0  0
  3  2  2  0  0  0  0
  4  7  2  0  0  0  0
  6 12  1  0  0  0  0
  7  5  1  0  0  0  0
  7 25  1  0  0  0  0
  8 18  2  0  0  0  0
  8 14  1  0  0  0  0
  9 10  1  0  0  0  0
  9 13  2  0  0  0  0
 10 11  2  0  0  0  0
 11 15  1  0  0  0  0
 14 40  1  6  0  0  0
 14  1  1  0  0  0  0
 15  4  1  0  0  0  0
 16 19  2  0  0  0  0
 16  6  1  0  0  0  0
 17 13  1  0  0  0  0
 17 16  1  0  0  0  0
 18  9  1  0  0  0  0
 21 20  1  0  0  0  0
 22 20  2  0  0  0  0
 23 22  1  0  0  0  0
 24 21  2  0  0  0  0
 25 23  2  0  0  0  0
 25 24  1  0  0  0  0
 26 11  1  0  0  0  0
 27 28  2  0  0  0  0
 28 32  1  0  0  0  0
 28 36  1  0  0  0  0
 29 27  1  0  0  0  0
 29 33  1  0  0  0  0
 30 37  1  0  0  0  0
 31 30  1  0  0  0  0
 31 26  1  0  0  0  0
 33 39  1  6  0  0  0
 33 32  1  0  0  0  0
 34 31  2  0  0  0  0
 35 27  1  0  0  0  0
 35 30  1  0  0  0  0
 37 36  2  0  0  0  0
 38 39  2  0  0  0  0
 40 41  1  0  0  0  0
 41 45  1  6  0  0  0
 41 43  1  0  0  0  0
 42 43  1  0  0  0  0
 42 44  1  0  0  0  0
 43 44  1  0  0  0  0
 46 49  1  0  0  0  0
 47 49  1  0  0  0  0
 49 45  1  0  0  0  0
 49 48  1  0  0  0  0
M  END
>  <MODEL>
8

>  <REMARK>
 VINA RESULT:      -6.6      3.793      8.676
  Name = 
  9 active torsions:
  status: ('A' for Active; 'I' for Inactive)
    1  A    between atoms: C_12  and  C_16
    2  A    between atoms: C_15  and  C_49
    3  A    between atoms: C_16  and  C_26
    4  A    between atoms: C_16  and  C_35
    5  A    between atoms: C_20  and  C_22
    6  A    between atoms: C_20  and  C_31
    7  A    between atoms: C_25  and  C_30
    8  A    between atoms: C_26  and  C_39
    9  A    between atoms: C_35  and  C_42
                            x       y       z     vdW  Elec       q    Type
                         _______ _______ _______ _____ _____    ______ ____

>  <TORSDO>
F 9

$$$$
=
 OpenBabel11042417133D

 49 54  0  0  1  0  0  0  0  0999 V2000
  193.5670  173.9080  144.7010 C   0  0  0  0  0  3  0  0  0  0  0  0
  189.5770  176.6930  143.8550 C   0  0  0  0  0  0  0  0  0  0  0  0
  190.4120  176.8230  142.9210 O   0  0  0  0  0  0  0  0  0  0  0  0
  188.0820  175.2520  141.5760 N   0  0  0  0  0  0  0  0  0  0  0  0
  188.1800  176.5580  143.5750 N   0  0  0  0  0  2  0  0  0  0  0  0
  190.1760  175.2640  145.7730 C   0  0  0  0  0  2  0  0  0  0  0  0
  187.6210  176.2330  142.2940 C   0  0  0  0  0  0  0  0  0  0  0  0
  193.8200  171.9620  143.2320 C   0  0  0  0  0  3  0  0  0  0  0  0
  191.5520  172.8100  142.6240 C   0  0  0  0  0  0  0  0  0  0  0  0
  190.6310  172.6240  141.5340 N   0  0  0  0  0  0  0  0  0  0  0  0
  189.5850  173.3290  141.2060 C   0  0  0  0  0  0  0  0  0  0  0  0
  190.0410  176.6930  145.2690 C   0  0  0  0  0  2  0  0  0  0  0  0
  191.4100  173.8330  143.4890 C   0  0  0  0  0  3  0  0  0  0  0  0
  194.3350  173.3180  143.5660 C   0  0  2  0  0  3  0  0  0  0  0  0
  189.1570  174.4500  141.9840 N   0  0  0  0  0  2  0  0  0  0  0  0
  191.6140  174.8530  145.8210 C   0  0  0  0  0  0  0  0  0  0  0  0
  192.2510  174.1620  144.6680 C   0  0  0  0  0  0  0  0  0  0  0  0
  192.5820  171.7620  142.7820 C   0  0  0  0  0  3  0  0  0  0  0  0
  192.2990  175.1330  146.9280 C   0  0  0  0  0  2  0  0  0  0  0  0
  184.1800  178.3000  140.9680 C   0  0  0  0  0  3  0  0  0  0  0  0
  184.3490  177.9880  142.3150 C   0  0  0  0  0  3  0  0  0  0  0  0
  185.1750  177.9170  140.0700 C   0  0  0  0  0  3  0  0  0  0  0  0
  186.2740  177.2550  140.5160 N   0  0  0  0  0  0  0  0  0  0  0  0
  185.4610  177.3240  142.7240 N   0  0  0  0  0  0  0  0  0  0  0  0
  186.4250  176.9560  141.8360 C   0  0  0  0  0  0  0  0  0  0  0  0
  188.7940  172.9160  140.0070 C   0  0  0  0  0  2  0  0  0  0  0  0
  192.0860  171.9750  136.3280 C   0  0  0  0  0  0  0  0  0  0  0  0
  192.1350  173.2660  136.1010 C   0  0  0  0  0  0  0  0  0  0  0  0
  192.9760  171.2470  135.3850 C   0  0  0  0  0  2  0  0  0  0  0  0
  190.4670  172.3750  138.1520 N   0  0  0  0  0  0  0  0  0  0  0  0
  189.5680  171.9340  139.1830 C   0  0  0  0  0  0  0  0  0  0  0  0
  192.9770  173.5740  135.0540 O   0  0  0  0  0  0  0  0  0  0  0  0
  193.5420  172.3820  134.5140 C   0  0  1  0  0  3  0  0  0  0  0  0
  189.4350  170.7040  139.4260 O   0  0  0  0  0  0  0  0  0  0  0  0
  191.2590  171.3660  137.4220 C   0  0  0  0  0  2  0  0  0  0  0  0
  191.3700  174.2340  136.8850 C   0  0  0  0  0  3  0  0  0  0  0  0
  190.5770  173.7860  137.8610 C   0  0  0  0  0  3  0  0  0  0  0  0
  195.5570  172.3890  135.7350 O   0  0  0  0  0  0  0  0  0  0  0  0
  195.0290  172.4220  134.6350 C   0  0  0  0  0  3  0  0  0  0  0  0
  195.8070  173.2250  143.9310 C   0  0  0  0  0  2  0  0  0  0  0  0
  196.6400  174.1700  143.0740 C   0  0  2  0  0  3  0  0  0  0  0  0
  196.4850  176.6350  143.2960 C   0  0  0  0  0  2  0  0  0  0  0  0
  197.0760  175.3740  143.8960 C   0  0  0  0  0  3  0  0  0  0  0  0
  197.9370  176.2920  143.0490 C   0  0  0  0  0  2  0  0  0  0  0  0
  195.7960  174.6430  141.8930 C   0  0  0  0  0  2  0  0  0  0  0  0
  196.6950  175.2920  139.6320 C   0  0  0  0  0  1  0  0  0  0  0  0
  197.5400  173.2910  140.7880 C   0  0  0  0  0  1  0  0  0  0  0  0
  195.2610  173.2800  139.8590 C   0  0  0  0  0  1  0  0  0  0  0  0
  196.3100  174.1380  140.5430 C   0  0  0  0  0  0  0  0  0  0  0  0
  2 12  1  0  0  0  0
  3  2  2  0  0  0  0
  4 15  1  0  0  0  0
  4  7  2  0  0  0  0
  5  2  1  0  0  0  0
  6 16  1  0  0  0  0
  7  5  1  0  0  0  0
  8 14  1  0  0  0  0
  9 18  1  0  0  0  0
  9 13  2  0  0  0  0
 10  9  1  0  0  0  0
 11 10  2  0  0  0  0
 11 15  1  0  0  0  0
 12  6  1  0  0  0  0
 13 17  1  0  0  0  0
 14 40  1  1  0  0  0
 14  1  1  0  0  0  0
 16 19  2  0  0  0  0
 17  1  2  0  0  0  0
 17 16  1  0  0  0  0
 18  8  2  0  0  0  0
 20 21  1  0  0  0  0
 21 24  2  0  0  0  0
 22 23  1  0  0  0  0
 22 20  2  0  0  0  0
 23 25  2  0  0  0  0
 25  7  1  0  0  0  0
 25 24  1  0  0  0  0
 26 11  1  0  0  0  0
 27 35  1  0  0  0  0
 28 27  2  0  0  0  0
 28 36  1  0  0  0  0
 29 27  1  0  0  0  0
 30 31  1  0  0  0  0
 31 34  2  0  0  0  0
 31 26  1  0  0  0  0
 32 28  1  0  0  0  0
 33 39  1  1  0  0  0
 33 32  1  0  0  0  0
 33 29  1  0  0  0  0
 35 30  1  0  0  0  0
 36 37  2  0  0  0  0
 37 30  1  0  0  0  0
 39 38  2  0  0  0  0
 41 45  1  6  0  0  0
 41 43  1  0  0  0  0
 41 40  1  0  0  0  0
 42 43  1  0  0  0  0
 44 42  1  0  0  0  0
 44 43  1  0  0  0  0
 46 49  1  0  0  0  0
 48 49  1  0  0  0  0
 49 47  1  0  0  0  0
 49 45  1  0  0  0  0
M  END
>  <MODEL>
9

>  <REMARK>
 VINA RESULT:      -6.5      1.796      2.658
  Name = 
  9 active torsions:
  status: ('A' for Active; 'I' for Inactive)
    1  A    between atoms: C_12  and  C_16
    2  A    between atoms: C_15  and  C_49
    3  A    between atoms: C_16  and  C_26
    4  A    between atoms: C_16  and  C_35
    5  A    between atoms: C_20  and  C_22
    6  A    between atoms: C_20  and  C_31
    7  A    between atoms: C_25  and  C_30
    8  A    between atoms: C_26  and  C_39
    9  A    between atoms: C_35  and  C_42
                            x       y       z     vdW  Elec       q    Type
                         _______ _______ _______ _____ _____    ______ ____

>  <TORSDO>
F 9

$$$$
