=
 OpenBabel11042419153D

 43 47  0  0  1  0  0  0  0  0999 V2000
  186.7780  177.0150  144.7820 C   0  0  0  0  0  0  0  0  0  0  0  0
  185.5600  177.5900  144.2920 N   0  0  0  0  0  0  0  0  0  0  0  0
  187.4820  176.0890  143.9990 C   0  0  0  0  0  0  0  0  0  0  0  0
  186.9340  178.7000  147.9870 O   0  0  0  0  0  0  0  0  0  0  0  0
  188.4230  175.9800  140.9490 O   0  0  0  0  0  1  0  0  0  0  0  0
  189.6060  173.2040  141.7410 N   0  0  0  0  0  2  0  0  0  0  0  0
  187.8540  175.0280  141.7980 C   0  0  1  0  0  3  0  0  0  0  0  0
  188.4750  176.8240  146.5120 C   0  0  0  0  0  3  0  0  0  0  0  0
  188.9530  174.2410  142.4730 C   0  0  0  0  0  0  0  0  0  0  0  0
  185.2140  178.9010  146.3530 C   0  0  0  0  0  2  0  0  0  0  0  0
  187.0050  175.6880  142.7440 O   0  0  0  0  0  0  0  0  0  0  0  0
  189.3310  174.5280  143.6880 N   0  0  0  0  0  0  0  0  0  0  0  0
  188.6730  175.5300  144.4730 C   0  0  0  0  0  0  0  0  0  0  0  0
  187.2770  177.3820  146.0430 C   0  0  0  0  0  0  0  0  0  0  0  0
  189.1720  175.8950  145.7280 C   0  0  0  0  0  3  0  0  0  0  0  0
  186.5150  178.3440  146.8530 C   0  0  0  0  0  0  0  0  0  0  0  0
  184.8370  178.4430  144.9670 C   0  0  0  0  0  0  0  0  0  0  0  0
  183.1750  178.6560  143.1710 C   0  0  0  0  0  3  0  0  0  0  0  0
  183.6060  178.9930  144.3830 C   0  0  0  0  0  3  0  0  0  0  0  0
  179.7240  179.4650  142.8840 C   0  0  0  0  0  2  0  0  0  0  0  0
  181.4220  178.3820  141.1250 S   0  0  0  0  0  0  0  0  0  0  0  0
  178.9800  177.4750  141.7030 N   0  0  0  0  0  1  0  0  0  0  0  0
  180.8930  179.1340  143.5780 O   0  0  0  0  0  0  0  0  0  0  0  0
  181.9180  179.2450  142.6350 C   0  0  1  0  0  3  0  0  0  0  0  0
  179.7020  178.7240  141.5650 C   0  0  1  0  0  0  0  0  0  0  0  0
  178.4450  178.7770  138.9860 O   0  0  0  0  0  0  0  0  0  0  0  0
  177.6920  180.4240  140.8710 O   0  0  0  0  0  1  0  0  0  0  0  0
  178.9160  179.7510  140.2910 P   0  0  0  0  0  0  0  0  0  0  0  0
  180.0100  180.9310  139.7590 O   0  0  0  0  0  1  0  0  0  0  0  0
  190.7320  172.4400  142.2670 C   0  0  0  0  0  2  0  0  0  0  0  0
  192.0040  172.7740  141.5020 C   0  0  2  0  0  3  0  0  0  0  0  0
  192.2240  171.7990  140.5250 O   0  0  0  0  0  1  0  0  0  0  0  0
  194.0330  173.9350  142.4720 C   0  0  0  0  0  0  0  0  0  0  0  0
  194.9600  175.9290  142.0510 C   0  0  0  0  0  2  0  0  0  0  0  0
  193.9100  174.9760  141.7140 N   0  0  0  0  0  0  0  0  0  0  0  0
  195.7670  175.2260  143.1580 C   0  0  2  0  0  3  0  0  0  0  0  0
  195.0880  173.9970  143.3550 O   0  0  0  0  0  0  0  0  0  0  0  0
  193.1410  172.8170  142.4130 N   0  0  0  0  0  2  0  0  0  0  0  0
  195.8020  176.0390  144.4560 C   0  0  0  0  0  2  0  0  0  0  0  0
  195.1960  175.2760  145.6370 C   0  0  0  0  0  2  0  0  0  0  0  0
  194.5750  177.4000  146.5790 O   0  0  0  0  0  1  0  0  0  0  0  0
  192.8260  176.1390  145.5680 C   0  0  0  0  0  1  0  0  0  0  0  0
  194.1240  176.0990  146.3550 C   0  0  1  0  0  3  0  0  0  0  0  0
  1 14  1  0  0  0  0
  2  1  1  0  0  0  0
  2 17  2  0  0  0  0
  3 13  1  0  0  0  0
  3  1  2  0  0  0  0
  6 30  1  0  0  0  0
  6  9  1  0  0  0  0
  7  5  1  6  0  0  0
  7  9  1  0  0  0  0
  7 11  1  0  0  0  0
  9 12  2  0  0  0  0
 10 16  1  0  0  0  0
 11  3  1  0  0  0  0
 12 13  1  0  0  0  0
 13 15  2  0  0  0  0
 14  8  2  0  0  0  0
 14 16  1  0  0  0  0
 15  8  1  0  0  0  0
 16  4  2  0  0  0  0
 17 10  1  0  0  0  0
 18 19  2  0  0  0  0
 19 17  1  0  0  0  0
 20 23  1  0  0  0  0
 21 25  1  0  0  0  0
 21 24  1  0  0  0  0
 24 18  1  1  0  0  0
 24 23  1  0  0  0  0
 25 22  1  1  0  0  0
 25 20  1  0  0  0  0
 26 28  2  0  0  0  0
 28 27  1  0  0  0  0
 28 25  1  0  0  0  0
 29 28  1  0  0  0  0
 31 32  1  6  0  0  0
 31 30  1  0  0  0  0
 31 38  1  0  0  0  0
 33 37  1  0  0  0  0
 34 36  1  0  0  0  0
 35 34  1  0  0  0  0
 35 33  2  0  0  0  0
 36 37  1  0  0  0  0
 36 39  1  1  0  0  0
 38 33  1  0  0  0  0
 39 40  1  0  0  0  0
 40 43  1  0  0  0  0
 43 42  1  6  0  0  0
 43 41  1  0  0  0  0
M  END
>  <MODEL>
1

>  <REMARK>
 VINA RESULT:      -7.0      0.000      0.000
  Name = 
  9 active torsions:
  status: ('A' for Active; 'I' for Inactive)
    1  A    between atoms: C_1  and  C_34
    2  A    between atoms: C_2  and  C_8
    3  A    between atoms: C_2  and  N_36
    4  A    between atoms: C_8  and  N_18
    5  A    between atoms: C_21  and  C_23
    6  A    between atoms: C_23  and  C_24
    7  A    between atoms: C_24  and  C_31
    8  A    between atoms: P_25  and  C_43
    9  A    between atoms: C_41  and  C_42
                            x       y       z     vdW  Elec       q    Type
                         _______ _______ _______ _____ _____    ______ ____

>  <TORSDO>
F 9

$$$$
=
 OpenBabel11042419153D

 43 47  0  0  1  0  0  0  0  0999 V2000
  190.2440  172.6250  140.2130 C   0  0  0  0  0  0  0  0  0  0  0  0
  191.1490  172.0010  141.1340 N   0  0  0  0  0  0  0  0  0  0  0  0
  189.4810  173.7290  140.6180 C   0  0  0  0  0  0  0  0  0  0  0  0
  190.8450  170.5100  137.3320 O   0  0  0  0  0  0  0  0  0  0  0  0
  190.1140  176.4570  142.1520 O   0  0  0  0  0  1  0  0  0  0  0  0
  187.0630  177.0000  141.7970 N   0  0  0  0  0  2  0  0  0  0  0  0
  189.0730  175.5340  142.2560 C   0  0  1  0  0  3  0  0  0  0  0  0
  189.2450  172.7600  138.0010 C   0  0  0  0  0  3  0  0  0  0  0  0
  187.9350  175.9590  141.3570 C   0  0  0  0  0  0  0  0  0  0  0  0
  191.8280  170.2930  139.4890 C   0  0  0  0  0  2  0  0  0  0  0  0
  189.5630  174.2300  141.9240 O   0  0  0  0  0  0  0  0  0  0  0  0
  187.7760  175.4190  140.1800 N   0  0  0  0  0  0  0  0  0  0  0  0
  188.6010  174.3420  139.7200 C   0  0  0  0  0  0  0  0  0  0  0  0
  190.1230  172.1380  138.9010 C   0  0  0  0  0  0  0  0  0  0  0  0
  188.4810  173.8600  138.4120 C   0  0  0  0  0  3  0  0  0  0  0  0
  190.9220  170.9700  138.5020 C   0  0  0  0  0  0  0  0  0  0  0  0
  191.8780  170.9590  140.8410 C   0  0  0  0  0  0  0  0  0  0  0  0
  194.1060  170.5770  141.8010 C   0  0  0  0  0  3  0  0  0  0  0  0
  192.7890  170.3890  141.8430 C   0  0  0  0  0  3  0  0  0  0  0  0
  195.4660  168.1660  144.0350 C   0  0  0  0  0  2  0  0  0  0  0  0
  194.5420  170.6370  144.4740 S   0  0  0  0  0  0  0  0  0  0  0  0
  193.9110  168.4570  145.8780 N   0  0  0  0  0  1  0  0  0  0  0  0
  194.8230  168.5870  142.8660 O   0  0  0  0  0  0  0  0  0  0  0  0
  194.9780  169.9760  142.8470 C   0  0  1  0  0  3  0  0  0  0  0  0
  195.0370  169.0500  145.1850 C   0  0  1  0  0  0  0  0  0  0  0  0
  196.7960  170.9270  146.4570 O   0  0  0  0  0  1  0  0  0  0  0  0
  196.0220  168.7660  147.7070 O   0  0  0  0  0  1  0  0  0  0  0  0
  196.4190  169.2790  146.3400 P   0  0  0  0  0  0  0  0  0  0  0  0
  197.7700  168.4190  145.7850 O   0  0  0  0  0  0  0  0  0  0  0  0
  185.9880  177.5440  140.9740 C   0  0  0  0  0  2  0  0  0  0  0  0
  184.8580  178.0620  141.8500 C   0  0  2  0  0  3  0  0  0  0  0  0
  183.9390  178.7550  141.0570 O   0  0  0  0  0  1  0  0  0  0  0  0
  185.2460  178.6780  144.2740 C   0  0  0  0  0  0  0  0  0  0  0  0
  184.6960  177.6520  146.1860 C   0  0  0  0  0  2  0  0  0  0  0  0
  184.6290  177.6380  144.7300 N   0  0  0  0  0  0  0  0  0  0  0  0
  185.4620  178.9460  146.5160 C   0  0  2  0  0  3  0  0  0  0  0  0
  185.7740  179.4980  145.2470 O   0  0  0  0  0  0  0  0  0  0  0  0
  185.3860  178.9530  142.8760 N   0  0  0  0  0  2  0  0  0  0  0  0
  186.7380  178.6770  147.3170 C   0  0  0  0  0  2  0  0  0  0  0  0
  187.1360  177.1990  147.3030 C   0  0  0  0  0  2  0  0  0  0  0  0
  188.3400  177.5050  145.2450 O   0  0  0  0  0  1  0  0  0  0  0  0
  189.6320  177.5650  147.2450 C   0  0  0  0  0  1  0  0  0  0  0  0
  188.4350  176.9670  146.5280 C   0  0  1  0  0  3  0  0  0  0  0  0
  1  3  1  0  0  0  0
  1  2  1  0  0  0  0
  3 11  1  0  0  0  0
  4 16  2  0  0  0  0
  7  5  1  6  0  0  0
  8 15  2  0  0  0  0
  8 14  1  0  0  0  0
  9  6  1  0  0  0  0
  9  7  1  0  0  0  0
 10 17  1  0  0  0  0
 11  7  1  0  0  0  0
 12  9  2  0  0  0  0
 13 12  1  0  0  0  0
 13  3  2  0  0  0  0
 14  1  2  0  0  0  0
 15 13  1  0  0  0  0
 16 14  1  0  0  0  0
 16 10  1  0  0  0  0
 17  2  2  0  0  0  0
 17 19  1  0  0  0  0
 18 19  2  0  0  0  0
 20 25  1  0  0  0  0
 21 25  1  0  0  0  0
 23 20  1  0  0  0  0
 24 18  1  6  0  0  0
 24 23  1  0  0  0  0
 24 21  1  0  0  0  0
 25 22  1  1  0  0  0
 25 28  1  0  0  0  0
 28 26  1  0  0  0  0
 28 27  1  0  0  0  0
 29 28  2  0  0  0  0
 30  6  1  0  0  0  0
 30 31  1  0  0  0  0
 31 32  1  6  0  0  0
 31 38  1  0  0  0  0
 33 35  2  0  0  0  0
 33 37  1  0  0  0  0
 34 36  1  0  0  0  0
 35 34  1  0  0  0  0
 36 39  1  6  0  0  0
 37 36  1  0  0  0  0
 38 33  1  0  0  0  0
 40 39  1  0  0  0  0
 41 43  1  0  0  0  0
 43 42  1  1  0  0  0
 43 40  1  0  0  0  0
M  END
>  <MODEL>
2

>  <REMARK>
 VINA RESULT:      -6.8      5.461     12.204
  Name = 
  9 active torsions:
  status: ('A' for Active; 'I' for Inactive)
    1  A    between atoms: C_1  and  C_34
    2  A    between atoms: C_2  and  C_8
    3  A    between atoms: C_2  and  N_36
    4  A    between atoms: C_8  and  N_18
    5  A    between atoms: C_21  and  C_23
    6  A    between atoms: C_23  and  C_24
    7  A    between atoms: C_24  and  C_31
    8  A    between atoms: P_25  and  C_43
    9  A    between atoms: C_41  and  C_42
                            x       y       z     vdW  Elec       q    Type
                         _______ _______ _______ _____ _____    ______ ____

>  <TORSDO>
F 9

$$$$
=
 OpenBabel11042419153D

 43 47  0  0  1  0  0  0  0  0999 V2000
  190.5980  172.6630  140.4770 C   0  0  0  0  0  0  0  0  0  0  0  0
  189.8100  173.6860  141.1010 N   0  0  0  0  0  0  0  0  0  0  0  0
  191.6140  172.0210  141.2000 C   0  0  0  0  0  0  0  0  0  0  0  0
  189.0380  172.6810  137.2070 O   0  0  0  0  0  0  0  0  0  0  0  0
  191.8160  170.6900  144.0960 O   0  0  0  0  0  1  0  0  0  0  0  0
  194.7710  170.1140  143.2810 N   0  0  0  0  0  2  0  0  0  0  0  0
  192.6740  171.5250  143.3770 C   0  0  1  0  0  3  0  0  0  0  0  0
  191.1190  171.2840  138.5440 C   0  0  0  0  0  3  0  0  0  0  0  0
  193.6540  170.6810  142.5970 C   0  0  0  0  0  0  0  0  0  0  0  0
  188.5060  174.0940  139.0480 C   0  0  0  0  0  2  0  0  0  0  0  0
  191.8980  172.3770  142.5250 O   0  0  0  0  0  0  0  0  0  0  0  0
  193.4640  170.4350  141.3300 N   0  0  0  0  0  0  0  0  0  0  0  0
  192.3820  171.0200  140.5960 C   0  0  0  0  0  0  0  0  0  0  0  0
  190.3520  172.2940  139.1450 C   0  0  0  0  0  0  0  0  0  0  0  0
  192.1370  170.6500  139.2690 C   0  0  0  0  0  3  0  0  0  0  0  0
  189.2910  172.9900  138.4020 C   0  0  0  0  0  0  0  0  0  0  0  0
  188.8620  174.3430  140.4920 C   0  0  0  0  0  0  0  0  0  0  0  0
  188.6360  176.1470  142.1430 C   0  0  0  0  0  3  0  0  0  0  0  0
  188.0930  175.3700  141.2100 C   0  0  0  0  0  3  0  0  0  0  0  0
  187.3180  178.1670  144.7570 C   0  0  0  0  0  2  0  0  0  0  0  0
  186.0960  176.6010  142.9670 S   0  0  0  0  0  0  0  0  0  0  0  0
  185.6350  176.6270  145.5950 N   0  0  0  0  0  1  0  0  0  0  0  0
  188.3060  177.4100  144.1190 O   0  0  0  0  0  0  0  0  0  0  0  0
  187.8070  177.1720  142.8340 C   0  0  1  0  0  3  0  0  0  0  0  0
  185.9680  177.5300  144.5120 C   0  0  1  0  0  0  0  0  0  0  0  0
  183.7950  178.8870  145.8080 O   0  0  0  0  0  1  0  0  0  0  0  0
  185.3530  180.1570  144.1360 O   0  0  0  0  0  1  0  0  0  0  0  0
  184.6930  178.8160  144.3710 P   0  0  0  0  0  0  0  0  0  0  0  0
  183.6670  178.4570  143.0710 O   0  0  0  0  0  0  0  0  0  0  0  0
  195.7290  169.2180  142.6430 C   0  0  0  0  0  2  0  0  0  0  0  0
  197.1380  169.5020  143.1440 C   0  0  2  0  0  3  0  0  0  0  0  0
  197.8050  168.2920  143.3530 O   0  0  0  0  0  1  0  0  0  0  0  0
  197.2390  171.6750  144.4370 C   0  0  0  0  0  0  0  0  0  0  0  0
  197.5300  173.7950  143.7800 C   0  0  0  0  0  2  0  0  0  0  0  0
  197.4520  172.3950  143.3840 N   0  0  0  0  0  0  0  0  0  0  0  0
  197.3490  173.7660  145.3080 C   0  0  2  0  0  3  0  0  0  0  0  0
  197.1540  172.3930  145.6080 O   0  0  0  0  0  0  0  0  0  0  0  0
  197.0850  170.2520  144.3920 N   0  0  0  0  0  2  0  0  0  0  0  0
  196.1460  174.5950  145.7660 C   0  0  0  0  0  2  0  0  0  0  0  0
  195.5330  175.4140  144.6260 C   0  0  0  0  0  2  0  0  0  0  0  0
  193.1310  175.5180  144.6500 O   0  0  0  0  0  1  0  0  0  0  0  0
  194.2450  176.3410  146.5870 C   0  0  0  0  0  1  0  0  0  0  0  0
  194.2850  176.1740  145.0790 C   0  0  1  0  0  3  0  0  0  0  0  0
  1  2  1  0  0  0  0
  1  3  1  0  0  0  0
  3 11  1  0  0  0  0
  4 16  2  0  0  0  0
  7  5  1  6  0  0  0
  8 14  1  0  0  0  0
  8 15  2  0  0  0  0
  9  6  1  0  0  0  0
  9  7  1  0  0  0  0
 10 17  1  0  0  0  0
 11  7  1  0  0  0  0
 12  9  2  0  0  0  0
 13  3  2  0  0  0  0
 13 12  1  0  0  0  0
 14  1  2  0  0  0  0
 15 13  1  0  0  0  0
 16 10  1  0  0  0  0
 16 14  1  0  0  0  0
 17  2  2  0  0  0  0
 17 19  1  0  0  0  0
 19 18  2  0  0  0  0
 21 25  1  0  0  0  0
 23 20  1  0  0  0  0
 24 18  1  1  0  0  0
 24 21  1  0  0  0  0
 24 23  1  0  0  0  0
 25 20  1  0  0  0  0
 25 22  1  1  0  0  0
 27 28  1  0  0  0  0
 28 25  1  0  0  0  0
 28 26  1  0  0  0  0
 29 28  2  0  0  0  0
 30 31  1  0  0  0  0
 30  6  1  0  0  0  0
 31 32  1  1  0  0  0
 31 38  1  0  0  0  0
 33 37  1  0  0  0  0
 34 36  1  0  0  0  0
 35 34  1  0  0  0  0
 35 33  2  0  0  0  0
 36 37  1  0  0  0  0
 36 39  1  6  0  0  0
 38 33  1  0  0  0  0
 40 43  1  0  0  0  0
 40 39  1  0  0  0  0
 41 43  1  0  0  0  0
 43 42  1  1  0  0  0
M  END
>  <MODEL>
3

>  <REMARK>
 VINA RESULT:      -6.7      3.623      6.719
  Name = 
  9 active torsions:
  status: ('A' for Active; 'I' for Inactive)
    1  A    between atoms: C_1  and  C_34
    2  A    between atoms: C_2  and  C_8
    3  A    between atoms: C_2  and  N_36
    4  A    between atoms: C_8  and  N_18
    5  A    between atoms: C_21  and  C_23
    6  A    between atoms: C_23  and  C_24
    7  A    between atoms: C_24  and  C_31
    8  A    between atoms: P_25  and  C_43
    9  A    between atoms: C_41  and  C_42
                            x       y       z     vdW  Elec       q    Type
                         _______ _______ _______ _____ _____    ______ ____

>  <TORSDO>
F 9

$$$$
=
 OpenBabel11042419153D

 43 47  0  0  1  0  0  0  0  0999 V2000
  193.7700  175.7230  143.1520 C   0  0  0  0  0  0  0  0  0  0  0  0
  192.3730  176.0160  143.2780 N   0  0  0  0  0  0  0  0  0  0  0  0
  194.2410  175.0190  142.0340 C   0  0  0  0  0  0  0  0  0  0  0  0
  194.9370  177.2690  146.2140 O   0  0  0  0  0  0  0  0  0  0  0  0
  193.8020  175.2540  138.8800 O   0  0  0  0  0  1  0  0  0  0  0  0
  195.7270  172.8030  138.7450 N   0  0  0  0  0  2  0  0  0  0  0  0
  193.8450  174.1630  139.7500 C   0  0  1  0  0  3  0  0  0  0  0  0
  196.0420  175.8660  144.0050 C   0  0  0  0  0  3  0  0  0  0  0  0
  195.2570  173.6280  139.8110 C   0  0  0  0  0  0  0  0  0  0  0  0
  192.6840  177.1260  145.4580 C   0  0  0  0  0  2  0  0  0  0  0  0
  193.3660  174.5670  141.0380 O   0  0  0  0  0  0  0  0  0  0  0  0
  196.0500  173.9480  140.7950 N   0  0  0  0  0  0  0  0  0  0  0  0
  195.6050  174.7360  141.9060 C   0  0  0  0  0  0  0  0  0  0  0  0
  194.6740  176.1450  144.1400 C   0  0  0  0  0  0  0  0  0  0  0  0
  196.5070  175.1570  142.8900 C   0  0  0  0  0  3  0  0  0  0  0  0
  194.1560  176.8690  145.3100 C   0  0  0  0  0  0  0  0  0  0  0  0
  191.8530  176.6470  144.2950 C   0  0  0  0  0  0  0  0  0  0  0  0
  189.7840  177.2870  145.4530 C   0  0  0  0  0  3  0  0  0  0  0  0
  190.4090  176.9170  144.3390 C   0  0  0  0  0  3  0  0  0  0  0  0
  186.2810  176.6770  145.5240 C   0  0  0  0  0  2  0  0  0  0  0  0
  187.7920  178.0110  143.7670 S   0  0  0  0  0  0  0  0  0  0  0  0
  185.9500  176.1740  143.1700 N   0  0  0  0  0  1  0  0  0  0  0  0
  187.6180  176.4070  145.8320 O   0  0  0  0  0  0  0  0  0  0  0  0
  188.3190  177.5500  145.4350 C   0  0  1  0  0  3  0  0  0  0  0  0
  186.1960  177.2390  144.1220 C   0  0  1  0  0  0  0  0  0  0  0  0
  183.8440  178.1030  142.7220 O   0  0  0  0  0  0  0  0  0  0  0  0
  184.0580  178.4380  145.3060 O   0  0  0  0  0  1  0  0  0  0  0  0
  184.8640  178.4690  144.0260 P   0  0  0  0  0  0  0  0  0  0  0  0
  185.5320  180.0120  143.8170 O   0  0  0  0  0  1  0  0  0  0  0  0
  197.0960  172.3050  138.6630 C   0  0  0  0  0  2  0  0  0  0  0  0
  197.1150  170.7860  138.7510 C   0  0  2  0  0  3  0  0  0  0  0  0
  197.1660  170.2500  137.4610 O   0  0  0  0  0  1  0  0  0  0  0  0
  195.8880  170.0460  140.8380 C   0  0  0  0  0  0  0  0  0  0  0  0
  196.5380  169.8700  142.9730 C   0  0  0  0  0  2  0  0  0  0  0  0
  196.9190  170.1940  141.6040 N   0  0  0  0  0  0  0  0  0  0  0  0
  195.0580  169.4620  142.8660 C   0  0  2  0  0  3  0  0  0  0  0  0
  194.7510  169.6280  141.4910 O   0  0  0  0  0  0  0  0  0  0  0  0
  195.9160  170.3080  139.4300 N   0  0  0  0  0  2  0  0  0  0  0  0
  194.1500  170.3390  143.7320 C   0  0  0  0  0  2  0  0  0  0  0  0
  194.7040  171.7550  143.9120 C   0  0  0  0  0  2  0  0  0  0  0  0
  195.8750  172.8070  145.7290 O   0  0  0  0  0  1  0  0  0  0  0  0
  193.5190  173.1450  145.6530 C   0  0  0  0  0  1  0  0  0  0  0  0
  194.6720  172.1960  145.3770 C   0  0  1  0  0  3  0  0  0  0  0  0
  1  2  1  0  0  0  0
  1 14  1  0  0  0  0
  2 17  2  0  0  0  0
  3  1  2  0  0  0  0
  6  9  1  0  0  0  0
  7  5  1  6  0  0  0
  7  9  1  0  0  0  0
  7 11  1  0  0  0  0
  8 14  2  0  0  0  0
  9 12  2  0  0  0  0
 11  3  1  0  0  0  0
 12 13  1  0  0  0  0
 13  3  1  0  0  0  0
 13 15  2  0  0  0  0
 14 16  1  0  0  0  0
 15  8  1  0  0  0  0
 16 10  1  0  0  0  0
 16  4  2  0  0  0  0
 17 19  1  0  0  0  0
 17 10  1  0  0  0  0
 19 18  2  0  0  0  0
 20 23  1  0  0  0  0
 21 25  1  0  0  0  0
 21 24  1  0  0  0  0
 24 18  1  6  0  0  0
 24 23  1  0  0  0  0
 25 22  1  6  0  0  0
 25 20  1  0  0  0  0
 26 28  2  0  0  0  0
 28 25  1  0  0  0  0
 28 27  1  0  0  0  0
 29 28  1  0  0  0  0
 30  6  1  0  0  0  0
 30 31  1  0  0  0  0
 31 32  1  6  0  0  0
 31 38  1  0  0  0  0
 33 37  1  0  0  0  0
 33 35  2  0  0  0  0
 35 34  1  0  0  0  0
 36 34  1  0  0  0  0
 36 39  1  1  0  0  0
 37 36  1  0  0  0  0
 38 33  1  0  0  0  0
 39 40  1  0  0  0  0
 40 43  1  0  0  0  0
 43 42  1  6  0  0  0
 43 41  1  0  0  0  0
M  END
>  <MODEL>
4

>  <REMARK>
 VINA RESULT:      -6.5      3.840      6.707
  Name = 
  9 active torsions:
  status: ('A' for Active; 'I' for Inactive)
    1  A    between atoms: C_1  and  C_34
    2  A    between atoms: C_2  and  C_8
    3  A    between atoms: C_2  and  N_36
    4  A    between atoms: C_8  and  N_18
    5  A    between atoms: C_21  and  C_23
    6  A    between atoms: C_23  and  C_24
    7  A    between atoms: C_24  and  C_31
    8  A    between atoms: P_25  and  C_43
    9  A    between atoms: C_41  and  C_42
                            x       y       z     vdW  Elec       q    Type
                         _______ _______ _______ _____ _____    ______ ____

>  <TORSDO>
F 9

$$$$
=
 OpenBabel11042419153D

 43 47  0  0  1  0  0  0  0  0999 V2000
  193.3070  175.1820  143.7670 C   0  0  0  0  0  0  0  0  0  0  0  0
  191.9410  175.6060  143.8600 N   0  0  0  0  0  0  0  0  0  0  0  0
  193.7410  174.4540  142.6500 C   0  0  0  0  0  0  0  0  0  0  0  0
  194.5270  176.5600  146.8880 O   0  0  0  0  0  0  0  0  0  0  0  0
  193.4170  174.7800  139.4890 O   0  0  0  0  0  1  0  0  0  0  0  0
  195.1020  172.1580  139.3620 N   0  0  0  0  0  2  0  0  0  0  0  0
  193.3310  173.6760  140.3400 C   0  0  1  0  0  3  0  0  0  0  0  0
  195.5560  175.0930  144.6840 C   0  0  0  0  0  3  0  0  0  0  0  0
  194.6830  173.0070  140.4300 C   0  0  0  0  0  0  0  0  0  0  0  0
  192.2940  176.6470  146.0680 C   0  0  0  0  0  2  0  0  0  0  0  0
  192.8550  174.1040  141.6220 O   0  0  0  0  0  0  0  0  0  0  0  0
  195.4740  173.2340  141.4410 N   0  0  0  0  0  0  0  0  0  0  0  0
  195.0750  174.0430  142.5540 C   0  0  0  0  0  0  0  0  0  0  0  0
  194.2180  175.5000  144.7870 C   0  0  0  0  0  0  0  0  0  0  0  0
  195.9840  174.3600  143.5690 C   0  0  0  0  0  3  0  0  0  0  0  0
  193.7380  176.2520  145.9560 C   0  0  0  0  0  0  0  0  0  0  0  0
  191.4540  176.2690  144.8740 C   0  0  0  0  0  0  0  0  0  0  0  0
  189.4260  177.0930  145.9860 C   0  0  0  0  0  3  0  0  0  0  0  0
  190.0420  176.6750  144.8840 C   0  0  0  0  0  3  0  0  0  0  0  0
  185.8800  176.8190  145.9350 C   0  0  0  0  0  2  0  0  0  0  0  0
  187.5670  178.0510  144.2650 S   0  0  0  0  0  0  0  0  0  0  0  0
  185.5790  176.4160  143.5570 N   0  0  0  0  0  1  0  0  0  0  0  0
  187.1750  176.4140  146.2730 O   0  0  0  0  0  0  0  0  0  0  0  0
  187.9940  177.4950  145.9330 C   0  0  1  0  0  3  0  0  0  0  0  0
  185.8940  177.4250  144.5490 C   0  0  1  0  0  0  0  0  0  0  0  0
  183.6500  178.5230  143.1370 O   0  0  0  0  0  0  0  0  0  0  0  0
  183.8720  178.8180  145.7250 O   0  0  0  0  0  1  0  0  0  0  0  0
  184.6880  178.7790  144.4520 P   0  0  0  0  0  0  0  0  0  0  0  0
  185.5050  180.2520  144.2600 O   0  0  0  0  0  1  0  0  0  0  0  0
  196.4180  171.5310  139.3080 C   0  0  0  0  0  2  0  0  0  0  0  0
  196.3550  170.1120  139.8520 C   0  0  2  0  0  3  0  0  0  0  0  0
  197.3180  169.3290  139.2110 O   0  0  0  0  0  1  0  0  0  0  0  0
  194.0810  169.3650  140.6760 C   0  0  0  0  0  0  0  0  0  0  0  0
  193.1440  169.3890  142.7080 C   0  0  0  0  0  2  0  0  0  0  0  0
  194.3280  169.6710  141.9070 N   0  0  0  0  0  0  0  0  0  0  0  0
  192.1340  168.8130  141.6990 C   0  0  2  0  0  3  0  0  0  0  0  0
  192.8180  168.8620  140.4570 O   0  0  0  0  0  0  0  0  0  0  0  0
  195.0320  169.5450  139.6200 N   0  0  0  0  0  2  0  0  0  0  0  0
  190.8420  169.6330  141.6370 C   0  0  0  0  0  2  0  0  0  0  0  0
  190.9680  170.9750  142.3640 C   0  0  0  0  0  2  0  0  0  0  0  0
  189.8700  173.0670  142.8120 O   0  0  0  0  0  1  0  0  0  0  0  0
  189.8020  172.2970  140.5590 C   0  0  0  0  0  1  0  0  0  0  0  0
  189.8080  171.9150  142.0290 C   0  0  1  0  0  3  0  0  0  0  0  0
  1  2  1  0  0  0  0
  1 14  1  0  0  0  0
  2 17  2  0  0  0  0
  3  1  2  0  0  0  0
  6  9  1  0  0  0  0
  7  5  1  6  0  0  0
  7  9  1  0  0  0  0
  7 11  1  0  0  0  0
  8 14  2  0  0  0  0
  9 12  2  0  0  0  0
 11  3  1  0  0  0  0
 12 13  1  0  0  0  0
 13  3  1  0  0  0  0
 13 15  2  0  0  0  0
 14 16  1  0  0  0  0
 15  8  1  0  0  0  0
 16 10  1  0  0  0  0
 16  4  2  0  0  0  0
 17 19  1  0  0  0  0
 17 10  1  0  0  0  0
 19 18  2  0  0  0  0
 20 23  1  0  0  0  0
 21 25  1  0  0  0  0
 21 24  1  0  0  0  0
 24 18  1  6  0  0  0
 24 23  1  0  0  0  0
 25 22  1  6  0  0  0
 25 20  1  0  0  0  0
 26 28  2  0  0  0  0
 28 25  1  0  0  0  0
 28 27  1  0  0  0  0
 29 28  1  0  0  0  0
 30  6  1  0  0  0  0
 30 31  1  0  0  0  0
 31 32  1  6  0  0  0
 33 35  2  0  0  0  0
 35 34  1  0  0  0  0
 36 39  1  6  0  0  0
 36 34  1  0  0  0  0
 37 33  1  0  0  0  0
 37 36  1  0  0  0  0
 38 31  1  0  0  0  0
 38 33  1  0  0  0  0
 39 40  1  0  0  0  0
 43 42  1  6  0  0  0
 43 40  1  0  0  0  0
 43 41  1  0  0  0  0
M  END
>  <MODEL>
5

>  <REMARK>
 VINA RESULT:      -6.4      3.590      6.826
  Name = 
  9 active torsions:
  status: ('A' for Active; 'I' for Inactive)
    1  A    between atoms: C_1  and  C_34
    2  A    between atoms: C_2  and  C_8
    3  A    between atoms: C_2  and  N_36
    4  A    between atoms: C_8  and  N_18
    5  A    between atoms: C_21  and  C_23
    6  A    between atoms: C_23  and  C_24
    7  A    between atoms: C_24  and  C_31
    8  A    between atoms: P_25  and  C_43
    9  A    between atoms: C_41  and  C_42
                            x       y       z     vdW  Elec       q    Type
                         _______ _______ _______ _____ _____    ______ ____

>  <TORSDO>
F 9

$$$$
=
 OpenBabel11042419153D

 43 47  0  0  1  0  0  0  0  0999 V2000
  187.5670  177.2310  144.3080 C   0  0  0  0  0  0  0  0  0  0  0  0
  188.8880  177.2620  143.7520 N   0  0  0  0  0  0  0  0  0  0  0  0
  186.4720  177.6520  143.5390 C   0  0  0  0  0  0  0  0  0  0  0  0
  188.3790  175.9260  147.5890 O   0  0  0  0  0  0  0  0  0  0  0  0
  185.4530  177.0670  140.5700 O   0  0  0  0  0  1  0  0  0  0  0  0
  183.1300  179.0090  141.3210 N   0  0  0  0  0  2  0  0  0  0  0  0
  185.5390  178.2370  141.3270 C   0  0  1  0  0  3  0  0  0  0  0  0
  186.0650  176.7330  146.1530 C   0  0  0  0  0  3  0  0  0  0  0  0
  184.2300  178.4630  142.0480 C   0  0  0  0  0  0  0  0  0  0  0  0
  189.9100  176.4340  145.8380 C   0  0  0  0  0  2  0  0  0  0  0  0
  186.6420  178.1320  142.2340 O   0  0  0  0  0  0  0  0  0  0  0  0
  184.0910  178.1260  143.3000 N   0  0  0  0  0  0  0  0  0  0  0  0
  185.1810  177.6180  144.0770 C   0  0  0  0  0  0  0  0  0  0  0  0
  187.3620  176.7720  145.6190 C   0  0  0  0  0  0  0  0  0  0  0  0
  184.9750  177.1600  145.3830 C   0  0  0  0  0  3  0  0  0  0  0  0
  188.5260  176.3490  146.4120 C   0  0  0  0  0  0  0  0  0  0  0  0
  189.9590  176.9070  144.4070 C   0  0  0  0  0  0  0  0  0  0  0  0
  192.3510  176.3660  144.2690 C   0  0  0  0  0  3  0  0  0  0  0  0
  191.2760  176.9590  143.7560 C   0  0  0  0  0  3  0  0  0  0  0  0
  194.7320  176.2610  141.6290 C   0  0  0  0  0  2  0  0  0  0  0  0
  194.6980  175.0390  144.0070 S   0  0  0  0  0  0  0  0  0  0  0  0
  195.2050  173.8770  141.6590 N   0  0  0  0  0  1  0  0  0  0  0  0
  193.4590  176.4480  142.1780 O   0  0  0  0  0  0  0  0  0  0  0  0
  193.6580  176.4510  143.5620 C   0  0  1  0  0  3  0  0  0  0  0  0
  195.4250  175.1300  142.3550 C   0  0  1  0  0  0  0  0  0  0  0  0
  197.9410  174.3100  143.4670 O   0  0  0  0  0  1  0  0  0  0  0  0
  197.8220  175.3840  141.0870 O   0  0  0  0  0  0  0  0  0  0  0  0
  197.2060  175.4650  142.4670 P   0  0  0  0  0  0  0  0  0  0  0  0
  197.4520  177.0160  143.1040 O   0  0  0  0  0  1  0  0  0  0  0  0
  181.8010  179.1890  141.8970 C   0  0  0  0  0  2  0  0  0  0  0  0
  180.7480  179.2360  140.8000 C   0  0  2  0  0  3  0  0  0  0  0  0
  179.9710  180.3870  140.9560 O   0  0  0  0  0  1  0  0  0  0  0  0
  179.1120  177.6090  139.7600 C   0  0  0  0  0  0  0  0  0  0  0  0
  178.2200  177.4880  137.7100 C   0  0  0  0  0  2  0  0  0  0  0  0
  179.0900  178.2210  138.6210 N   0  0  0  0  0  0  0  0  0  0  0  0
  177.6940  176.3130  138.5550 C   0  0  2  0  0  3  0  0  0  0  0  0
  178.3310  176.4760  139.8110 O   0  0  0  0  0  0  0  0  0  0  0  0
  179.8940  178.0570  140.8730 N   0  0  0  0  0  2  0  0  0  0  0  0
  178.0450  174.9540  137.9420 C   0  0  0  0  0  2  0  0  0  0  0  0
  179.3740  174.9830  137.1810 C   0  0  0  0  0  2  0  0  0  0  0  0
  180.2110  172.8450  137.8930 O   0  0  0  0  0  1  0  0  0  0  0  0
  178.7340  172.8340  136.0250 C   0  0  0  0  0  1  0  0  0  0  0  0
  179.8250  173.5800  136.7720 C   0  0  1  0  0  3  0  0  0  0  0  0
  1 14  1  0  0  0  0
  2  1  1  0  0  0  0
  2 17  2  0  0  0  0
  3 13  1  0  0  0  0
  3  1  2  0  0  0  0
  6 30  1  0  0  0  0
  6  9  1  0  0  0  0
  7  5  1  1  0  0  0
  7  9  1  0  0  0  0
  7 11  1  0  0  0  0
  9 12  2  0  0  0  0
 10 16  1  0  0  0  0
 11  3  1  0  0  0  0
 12 13  1  0  0  0  0
 13 15  2  0  0  0  0
 14  8  2  0  0  0  0
 14 16  1  0  0  0  0
 15  8  1  0  0  0  0
 16  4  2  0  0  0  0
 17 10  1  0  0  0  0
 19 18  2  0  0  0  0
 19 17  1  0  0  0  0
 20 23  1  0  0  0  0
 20 25  1  0  0  0  0
 23 24  1  0  0  0  0
 24 21  1  0  0  0  0
 24 18  1  1  0  0  0
 25 22  1  6  0  0  0
 25 28  1  0  0  0  0
 25 21  1  0  0  0  0
 27 28  2  0  0  0  0
 28 29  1  0  0  0  0
 28 26  1  0  0  0  0
 31 38  1  0  0  0  0
 31 32  1  1  0  0  0
 31 30  1  0  0  0  0
 33 37  1  0  0  0  0
 33 38  1  0  0  0  0
 34 36  1  0  0  0  0
 34 35  1  0  0  0  0
 35 33  2  0  0  0  0
 36 39  1  6  0  0  0
 36 37  1  0  0  0  0
 40 39  1  0  0  0  0
 43 42  1  1  0  0  0
 43 40  1  0  0  0  0
 43 41  1  0  0  0  0
M  END
>  <MODEL>
6

>  <REMARK>
 VINA RESULT:      -6.3      4.771     12.798
  Name = 
  9 active torsions:
  status: ('A' for Active; 'I' for Inactive)
    1  A    between atoms: C_1  and  C_34
    2  A    between atoms: C_2  and  C_8
    3  A    between atoms: C_2  and  N_36
    4  A    between atoms: C_8  and  N_18
    5  A    between atoms: C_21  and  C_23
    6  A    between atoms: C_23  and  C_24
    7  A    between atoms: C_24  and  C_31
    8  A    between atoms: P_25  and  C_43
    9  A    between atoms: C_41  and  C_42
                            x       y       z     vdW  Elec       q    Type
                         _______ _______ _______ _____ _____    ______ ____

>  <TORSDO>
F 9

$$$$
=
 OpenBabel11042419153D

 43 47  0  0  1  0  0  0  0  0999 V2000
  190.1520  173.3140  140.2760 C   0  0  0  0  0  0  0  0  0  0  0  0
  189.3890  173.8530  141.3650 N   0  0  0  0  0  0  0  0  0  0  0  0
  191.3080  172.5650  140.5340 C   0  0  0  0  0  0  0  0  0  0  0  0
  188.1280  174.5310  137.5280 O   0  0  0  0  0  0  0  0  0  0  0  0
  192.0360  170.1560  142.5000 O   0  0  0  0  0  1  0  0  0  0  0  0
  194.8740  170.3860  141.2250 N   0  0  0  0  0  2  0  0  0  0  0  0
  192.7130  171.3250  142.1460 C   0  0  1  0  0  3  0  0  0  0  0  0
  190.4830  172.9850  137.8910 C   0  0  0  0  0  3  0  0  0  0  0  0
  193.6280  171.0380  140.9780 C   0  0  0  0  0  0  0  0  0  0  0  0
  187.7690  174.9290  139.8480 C   0  0  0  0  0  2  0  0  0  0  0  0
  191.7580  172.3490  141.8430 O   0  0  0  0  0  0  0  0  0  0  0  0
  193.2720  171.3390  139.7610 N   0  0  0  0  0  0  0  0  0  0  0  0
  192.0520  172.0340  139.4740 C   0  0  0  0  0  0  0  0  0  0  0  0
  189.7390  173.5250  138.9510 C   0  0  0  0  0  0  0  0  0  0  0  0
  191.6420  172.2420  138.1530 C   0  0  0  0  0  3  0  0  0  0  0  0
  188.5310  174.3260  138.7040 C   0  0  0  0  0  0  0  0  0  0  0  0
  188.3140  174.5760  141.2090 C   0  0  0  0  0  0  0  0  0  0  0  0
  186.8040  176.1560  142.3300 C   0  0  0  0  0  3  0  0  0  0  0  0
  187.5850  175.0800  142.3810 C   0  0  0  0  0  3  0  0  0  0  0  0
  184.4990  177.9240  144.3810 C   0  0  0  0  0  2  0  0  0  0  0  0
  187.1600  177.6980  144.5280 S   0  0  0  0  0  0  0  0  0  0  0  0
  185.7720  179.9730  144.6790 N   0  0  0  0  0  1  0  0  0  0  0  0
  184.9350  177.3230  143.1960 O   0  0  0  0  0  0  0  0  0  0  0  0
  186.0880  176.6170  143.5500 C   0  0  1  0  0  3  0  0  0  0  0  0
  185.6770  178.5800  145.0680 C   0  0  1  0  0  0  0  0  0  0  0  0
  186.2210  179.7950  147.6110 O   0  0  0  0  0  1  0  0  0  0  0  0
  184.0190  178.4400  147.2240 O   0  0  0  0  0  0  0  0  0  0  0  0
  185.4900  178.4570  146.8700 P   0  0  0  0  0  0  0  0  0  0  0  0
  186.2190  177.0290  147.4190 O   0  0  0  0  0  1  0  0  0  0  0  0
  195.7920  169.9880  140.1630 C   0  0  0  0  0  2  0  0  0  0  0  0
  196.7300  171.1340  139.8140 C   0  0  2  0  0  3  0  0  0  0  0  0
  197.8820  170.6210  139.2120 O   0  0  0  0  0  1  0  0  0  0  0  0
  197.3930  173.2690  141.0020 C   0  0  0  0  0  0  0  0  0  0  0  0
  197.6970  175.3600  140.2640 C   0  0  0  0  0  2  0  0  0  0  0  0
  197.3780  173.9800  139.9220 N   0  0  0  0  0  0  0  0  0  0  0  0
  197.9410  175.3260  141.7830 C   0  0  2  0  0  3  0  0  0  0  0  0
  197.7050  173.9740  142.1430 O   0  0  0  0  0  0  0  0  0  0  0  0
  197.0960  171.8680  141.0200 N   0  0  0  0  0  2  0  0  0  0  0  0
  196.9970  176.2610  142.5440 C   0  0  0  0  0  2  0  0  0  0  0  0
  195.7310  176.5870  141.7470 C   0  0  0  0  0  2  0  0  0  0  0  0
  193.5850  176.3740  142.8100 O   0  0  0  0  0  1  0  0  0  0  0  0
  193.9610  175.0030  140.8990 C   0  0  0  0  0  1  0  0  0  0  0  0
  194.5690  175.6640  142.1220 C   0  0  1  0  0  3  0  0  0  0  0  0
  1  3  1  0  0  0  0
  1  2  1  0  0  0  0
  3 11  1  0  0  0  0
  4 16  2  0  0  0  0
  7  5  1  6  0  0  0
  8 15  2  0  0  0  0
  8 14  1  0  0  0  0
  9  6  1  0  0  0  0
  9  7  1  0  0  0  0
 10 17  1  0  0  0  0
 11  7  1  0  0  0  0
 12  9  2  0  0  0  0
 13 12  1  0  0  0  0
 13  3  2  0  0  0  0
 14  1  2  0  0  0  0
 15 13  1  0  0  0  0
 16 14  1  0  0  0  0
 16 10  1  0  0  0  0
 17  2  2  0  0  0  0
 17 19  1  0  0  0  0
 18 19  2  0  0  0  0
 20 25  1  0  0  0  0
 21 25  1  0  0  0  0
 23 24  1  0  0  0  0
 23 20  1  0  0  0  0
 24 18  1  6  0  0  0
 24 21  1  0  0  0  0
 25 22  1  6  0  0  0
 25 28  1  0  0  0  0
 28 27  2  0  0  0  0
 28 29  1  0  0  0  0
 28 26  1  0  0  0  0
 30  6  1  0  0  0  0
 31 32  1  1  0  0  0
 31 30  1  0  0  0  0
 31 38  1  0  0  0  0
 33 38  1  0  0  0  0
 33 37  1  0  0  0  0
 34 36  1  0  0  0  0
 35 34  1  0  0  0  0
 35 33  2  0  0  0  0
 36 37  1  0  0  0  0
 36 39  1  1  0  0  0
 40 43  1  0  0  0  0
 40 39  1  0  0  0  0
 43 42  1  6  0  0  0
 43 41  1  0  0  0  0
M  END
>  <MODEL>
7

>  <REMARK>
 VINA RESULT:      -6.2      3.949      6.686
  Name = 
  9 active torsions:
  status: ('A' for Active; 'I' for Inactive)
    1  A    between atoms: C_1  and  C_34
    2  A    between atoms: C_2  and  C_8
    3  A    between atoms: C_2  and  N_36
    4  A    between atoms: C_8  and  N_18
    5  A    between atoms: C_21  and  C_23
    6  A    between atoms: C_23  and  C_24
    7  A    between atoms: C_24  and  C_31
    8  A    between atoms: P_25  and  C_43
    9  A    between atoms: C_41  and  C_42
                            x       y       z     vdW  Elec       q    Type
                         _______ _______ _______ _____ _____    ______ ____

>  <TORSDO>
F 9

$$$$
=
 OpenBabel11042419153D

 43 47  0  0  1  0  0  0  0  0999 V2000
  185.8270  178.1090  143.7070 C   0  0  0  0  0  0  0  0  0  0  0  0
  187.0930  177.7980  143.1100 N   0  0  0  0  0  0  0  0  0  0  0  0
  184.7220  178.4030  142.8950 C   0  0  0  0  0  0  0  0  0  0  0  0
  186.7710  177.8040  147.1920 O   0  0  0  0  0  0  0  0  0  0  0  0
  183.4020  177.0530  140.3200 O   0  0  0  0  0  1  0  0  0  0  0  0
  181.3670  179.4090  140.5150 N   0  0  0  0  0  2  0  0  0  0  0  0
  183.6730  178.3810  140.6570 C   0  0  1  0  0  3  0  0  0  0  0  0
  184.4420  178.4070  145.6810 C   0  0  0  0  0  3  0  0  0  0  0  0
  182.4610  178.9840  141.3270 C   0  0  0  0  0  0  0  0  0  0  0  0
  188.1940  177.5420  145.3020 C   0  0  0  0  0  2  0  0  0  0  0  0
  184.8320  178.4260  141.4980 O   0  0  0  0  0  0  0  0  0  0  0  0
  182.3920  179.0760  142.6260 N   0  0  0  0  0  0  0  0  0  0  0  0
  183.4850  178.7030  143.4740 C   0  0  0  0  0  0  0  0  0  0  0  0
  185.6860  178.1130  145.1040 C   0  0  0  0  0  0  0  0  0  0  0  0
  183.3420  178.7050  144.8660 C   0  0  0  0  0  3  0  0  0  0  0  0
  186.8610  177.8160  145.9350 C   0  0  0  0  0  0  0  0  0  0  0  0
  188.1730  177.5340  143.7940 C   0  0  0  0  0  0  0  0  0  0  0  0
  190.2530  176.2570  143.5210 C   0  0  0  0  0  3  0  0  0  0  0  0
  189.4280  177.2130  143.1010 C   0  0  0  0  0  3  0  0  0  0  0  0
  192.8950  174.4240  142.0030 C   0  0  0  0  0  2  0  0  0  0  0  0
  192.9440  176.4160  143.7860 S   0  0  0  0  0  0  0  0  0  0  0  0
  194.3050  174.1270  143.9590 N   0  0  0  0  0  1  0  0  0  0  0  0
  191.5840  174.6180  142.4500 O   0  0  0  0  0  0  0  0  0  0  0  0
  191.5100  175.9760  142.7750 C   0  0  1  0  0  3  0  0  0  0  0  0
  193.8540  175.0840  142.9690 C   0  0  1  0  0  0  0  0  0  0  0  0
  196.0990  174.4950  141.2810 O   0  0  0  0  0  1  0  0  0  0  0  0
  194.8000  176.7510  141.0340 O   0  0  0  0  0  0  0  0  0  0  0  0
  195.2800  175.7540  142.0670 P   0  0  0  0  0  0  0  0  0  0  0  0
  196.3250  176.5280  143.1540 O   0  0  0  0  0  1  0  0  0  0  0  0
  180.1170  179.9260  141.0630 C   0  0  0  0  0  2  0  0  0  0  0  0
  178.9300  179.3940  140.2760 C   0  0  2  0  0  3  0  0  0  0  0  0
  177.7560  179.6250  140.9980 O   0  0  0  0  0  1  0  0  0  0  0  0
  178.6140  177.3280  138.8470 C   0  0  0  0  0  0  0  0  0  0  0  0
  177.6910  177.0310  136.8290 C   0  0  0  0  0  2  0  0  0  0  0  0
  178.0060  177.9660  137.9020 N   0  0  0  0  0  0  0  0  0  0  0  0
  178.2140  175.6780  137.3440 C   0  0  2  0  0  3  0  0  0  0  0  0
  178.7890  175.9840  138.6040 O   0  0  0  0  0  0  0  0  0  0  0  0
  179.0850  177.9630  140.0410 N   0  0  0  0  0  2  0  0  0  0  0  0
  179.2600  175.0650  136.4080 C   0  0  0  0  0  2  0  0  0  0  0  0
  180.0830  173.9690  137.0900 C   0  0  0  0  0  2  0  0  0  0  0  0
  180.8380  172.7580  135.1550 O   0  0  0  0  0  1  0  0  0  0  0  0
  180.5190  171.4840  137.1430 C   0  0  0  0  0  1  0  0  0  0  0  0
  180.0490  172.6580  136.3020 C   0  0  1  0  0  3  0  0  0  0  0  0
  1 14  1  0  0  0  0
  2  1  1  0  0  0  0
  2 17  2  0  0  0  0
  3 13  1  0  0  0  0
  3  1  2  0  0  0  0
  6 30  1  0  0  0  0
  6  9  1  0  0  0  0
  7  5  1  1  0  0  0
  7  9  1  0  0  0  0
  7 11  1  0  0  0  0
  9 12  2  0  0  0  0
 10 16  1  0  0  0  0
 11  3  1  0  0  0  0
 12 13  1  0  0  0  0
 13 15  2  0  0  0  0
 14  8  2  0  0  0  0
 14 16  1  0  0  0  0
 15  8  1  0  0  0  0
 16  4  2  0  0  0  0
 17 10  1  0  0  0  0
 19 18  2  0  0  0  0
 19 17  1  0  0  0  0
 20 23  1  0  0  0  0
 20 25  1  0  0  0  0
 23 24  1  0  0  0  0
 24 18  1  1  0  0  0
 24 21  1  0  0  0  0
 25 21  1  0  0  0  0
 25 22  1  1  0  0  0
 26 28  1  0  0  0  0
 27 28  2  0  0  0  0
 28 25  1  0  0  0  0
 28 29  1  0  0  0  0
 31 32  1  1  0  0  0
 31 30  1  0  0  0  0
 33 38  1  0  0  0  0
 34 36  1  0  0  0  0
 34 35  1  0  0  0  0
 35 33  2  0  0  0  0
 36 39  1  6  0  0  0
 36 37  1  0  0  0  0
 37 33  1  0  0  0  0
 38 31  1  0  0  0  0
 39 40  1  0  0  0  0
 41 43  1  0  0  0  0
 43 40  1  0  0  0  0
 43 42  1  1  0  0  0
M  END
>  <MODEL>
8

>  <REMARK>
 VINA RESULT:      -6.1      4.727     12.540
  Name = 
  9 active torsions:
  status: ('A' for Active; 'I' for Inactive)
    1  A    between atoms: C_1  and  C_34
    2  A    between atoms: C_2  and  C_8
    3  A    between atoms: C_2  and  N_36
    4  A    between atoms: C_8  and  N_18
    5  A    between atoms: C_21  and  C_23
    6  A    between atoms: C_23  and  C_24
    7  A    between atoms: C_24  and  C_31
    8  A    between atoms: P_25  and  C_43
    9  A    between atoms: C_41  and  C_42
                            x       y       z     vdW  Elec       q    Type
                         _______ _______ _______ _____ _____    ______ ____

>  <TORSDO>
F 9

$$$$
=
 OpenBabel11042419153D

 43 47  0  0  1  0  0  0  0  0999 V2000
  187.3130  176.1800  143.6610 C   0  0  0  0  0  0  0  0  0  0  0  0
  186.0900  176.8520  143.3320 N   0  0  0  0  0  0  0  0  0  0  0  0
  187.8340  175.2070  142.7970 C   0  0  0  0  0  0  0  0  0  0  0  0
  188.0170  177.8300  146.8100 O   0  0  0  0  0  0  0  0  0  0  0  0
  188.3570  175.0410  139.6510 O   0  0  0  0  0  1  0  0  0  0  0  0
  189.4120  172.1760  140.2950 N   0  0  0  0  0  2  0  0  0  0  0  0
  187.8310  174.1320  140.5720 C   0  0  1  0  0  3  0  0  0  0  0  0
  189.2010  175.8480  145.1560 C   0  0  0  0  0  3  0  0  0  0  0  0
  188.9430  173.2570  141.1020 C   0  0  0  0  0  0  0  0  0  0  0  0
  186.1200  178.1740  145.4130 C   0  0  0  0  0  2  0  0  0  0  0  0
  187.1670  174.8510  141.6180 O   0  0  0  0  0  0  0  0  0  0  0  0
  189.4990  173.5070  142.2550 N   0  0  0  0  0  0  0  0  0  0  0  0
  189.0290  174.5530  143.1140 C   0  0  0  0  0  0  0  0  0  0  0  0
  187.9990  176.5000  144.8450 C   0  0  0  0  0  0  0  0  0  0  0  0
  189.7140  174.8710  144.2920 C   0  0  0  0  0  3  0  0  0  0  0  0
  187.4270  177.5140  145.7430 C   0  0  0  0  0  0  0  0  0  0  0  0
  185.5300  177.7540  144.0910 C   0  0  0  0  0  0  0  0  0  0  0  0
  183.7830  178.2710  142.4440 C   0  0  0  0  0  3  0  0  0  0  0  0
  184.2800  178.4030  143.6710 C   0  0  0  0  0  3  0  0  0  0  0  0
  180.4790  179.5530  142.7360 C   0  0  0  0  0  2  0  0  0  0  0  0
  181.5740  177.9290  140.9160 S   0  0  0  0  0  0  0  0  0  0  0  0
  179.2520  177.5330  142.1710 N   0  0  0  0  0  1  0  0  0  0  0  0
  181.7330  179.1660  143.2200 O   0  0  0  0  0  0  0  0  0  0  0  0
  182.5110  178.9500  142.0780 C   0  0  1  0  0  3  0  0  0  0  0  0
  180.0590  178.6090  141.6310 C   0  0  1  0  0  0  0  0  0  0  0  0
  179.0600  178.6020  138.9410 O   0  0  0  0  0  0  0  0  0  0  0  0
  177.7030  179.7380  140.8650 O   0  0  0  0  0  1  0  0  0  0  0  0
  179.1140  179.5120  140.3700 P   0  0  0  0  0  0  0  0  0  0  0  0
  179.8540  181.0070  140.0710 O   0  0  0  0  0  1  0  0  0  0  0  0
  190.5340  171.3240  140.6730 C   0  0  0  0  0  2  0  0  0  0  0  0
  191.8140  171.8030  140.0050 C   0  0  2  0  0  3  0  0  0  0  0  0
  192.0020  171.1010  138.8110 O   0  0  0  0  0  1  0  0  0  0  0  0
  193.3630  172.5400  141.8660 C   0  0  0  0  0  0  0  0  0  0  0  0
  193.4190  174.3930  143.1210 C   0  0  0  0  0  2  0  0  0  0  0  0
  192.7700  173.6770  142.0310 N   0  0  0  0  0  0  0  0  0  0  0  0
  194.5570  173.4550  143.5630 C   0  0  2  0  0  3  0  0  0  0  0  0
  194.4170  172.3200  142.7250 O   0  0  0  0  0  0  0  0  0  0  0  0
  192.9540  171.5790  140.8860 N   0  0  0  0  0  2  0  0  0  0  0  0
  194.4430  173.0570  145.0370 C   0  0  0  0  0  2  0  0  0  0  0  0
  195.0010  171.6570  145.3080 C   0  0  0  0  0  2  0  0  0  0  0  0
  196.9990  172.6610  146.1920 O   0  0  0  0  0  1  0  0  0  0  0  0
  197.0760  170.3120  145.8080 C   0  0  0  0  0  1  0  0  0  0  0  0
  196.5310  171.6520  145.3500 C   0  0  1  0  0  3  0  0  0  0  0  0
  1 14  1  0  0  0  0
  2  1  1  0  0  0  0
  2 17  2  0  0  0  0
  3 13  1  0  0  0  0
  3  1  2  0  0  0  0
  6 30  1  0  0  0  0
  6  9  1  0  0  0  0
  7  5  1  6  0  0  0
  7  9  1  0  0  0  0
  7 11  1  0  0  0  0
  9 12  2  0  0  0  0
 10 16  1  0  0  0  0
 11  3  1  0  0  0  0
 12 13  1  0  0  0  0
 13 15  2  0  0  0  0
 14  8  2  0  0  0  0
 14 16  1  0  0  0  0
 15  8  1  0  0  0  0
 16  4  2  0  0  0  0
 17 10  1  0  0  0  0
 18 19  2  0  0  0  0
 19 17  1  0  0  0  0
 20 23  1  0  0  0  0
 21 25  1  0  0  0  0
 21 24  1  0  0  0  0
 24 18  1  1  0  0  0
 24 23  1  0  0  0  0
 25 22  1  1  0  0  0
 25 20  1  0  0  0  0
 26 28  2  0  0  0  0
 28 27  1  0  0  0  0
 28 25  1  0  0  0  0
 29 28  1  0  0  0  0
 31 32  1  6  0  0  0
 31 30  1  0  0  0  0
 31 38  1  0  0  0  0
 33 35  2  0  0  0  0
 33 37  1  0  0  0  0
 34 36  1  0  0  0  0
 35 34  1  0  0  0  0
 36 39  1  1  0  0  0
 37 36  1  0  0  0  0
 38 33  1  0  0  0  0
 39 40  1  0  0  0  0
 40 43  1  0  0  0  0
 43 42  1  1  0  0  0
 43 41  1  0  0  0  0
M  END
>  <MODEL>
9

>  <REMARK>
 VINA RESULT:      -6.1      1.758      2.247
  Name = 
  9 active torsions:
  status: ('A' for Active; 'I' for Inactive)
    1  A    between atoms: C_1  and  C_34
    2  A    between atoms: C_2  and  C_8
    3  A    between atoms: C_2  and  N_36
    4  A    between atoms: C_8  and  N_18
    5  A    between atoms: C_21  and  C_23
    6  A    between atoms: C_23  and  C_24
    7  A    between atoms: C_24  and  C_31
    8  A    between atoms: P_25  and  C_43
    9  A    between atoms: C_41  and  C_42
                            x       y       z     vdW  Elec       q    Type
                         _______ _______ _______ _____ _____    ______ ____

>  <TORSDO>
F 9

$$$$
