=
 OpenBabel11042417483D

 25 28  0  0  1  0  0  0  0  0999 V2000
  185.9560  178.1280  147.7090 C   0  0  0  0  0  3  0  0  0  0  0  0
  185.8690  177.8120  142.2930 C   0  0  0  0  0  0  0  0  0  0  0  0
  186.9260  177.3320  147.2880 C   0  0  0  0  0  3  0  0  0  0  0  0
  185.4550  177.7390  141.0180 N   0  0  0  0  0  0  0  0  0  0  0  0
  185.5750  179.3230  146.9360 C   0  0  0  0  0  2  0  0  0  0  0  0
  187.7020  177.3460  141.1490 N   0  0  0  0  0  2  0  0  0  0  0  0
  187.1470  177.8100  144.8070 C   0  0  0  0  0  0  0  0  0  0  0  0
  186.6040  177.4470  140.3610 C   0  0  0  0  0  0  0  0  0  0  0  0
  186.6560  177.2690  138.9520 N   0  0  0  0  0  1  0  0  0  0  0  0
  183.7370  178.4950  143.2340 N   0  0  0  0  0  1  0  0  0  0  0  0
  189.3700  177.3620  143.5050 C   0  0  0  0  0  1  0  0  0  0  0  0
  187.2010  177.5860  142.3740 C   0  0  0  0  0  0  0  0  0  0  0  0
  185.7660  178.2570  144.6590 C   0  0  0  0  0  0  0  0  0  0  0  0
  185.0650  178.8970  145.6100 C   0  0  0  0  0  2  0  0  0  0  0  0
  187.7040  177.4880  146.0320 C   0  0  2  0  0  3  0  0  0  0  0  0
  185.1160  178.1560  143.4000 C   0  0  0  0  0  0  0  0  0  0  0  0
  187.8910  177.5940  143.5850 C   0  0  0  0  0  0  0  0  0  0  0  0
  189.0690  177.0530  146.1160 N   0  0  0  0  0  2  0  0  0  0  0  0
  191.0720  176.3030  147.3300 C   0  0  0  0  0  2  0  0  0  0  0  0
  189.3210  174.6610  146.5770 C   0  0  0  0  0  2  0  0  0  0  0  0
  190.2360  174.3400  145.3950 C   0  0  0  0  0  2  0  0  0  0  0  0
  191.8850  175.8860  146.1050 C   0  0  0  0  0  2  0  0  0  0  0  0
  189.5760  176.0820  147.0820 C   0  0  0  0  0  3  0  0  0  0  0  0
  192.4340  174.1650  144.6240 C   0  0  0  0  0  1  0  0  0  0  0  0
  191.6340  174.4820  145.7930 N   0  0  0  0  0  0  0  0  0  0  0  0
  2 12  2  0  0  0  0
  2 16  1  0  0  0  0
  3  1  2  0  0  0  0
  4  2  1  0  0  0  0
  5  1  1  0  0  0  0
  6 12  1  0  0  0  0
  7 15  1  0  0  0  0
  8  4  2  0  0  0  0
  8  6  1  0  0  0  0
  9  8  1  0  0  0  0
 10 16  1  0  0  0  0
 11 17  1  0  0  0  0
 12 17  1  0  0  0  0
 13  7  1  0  0  0  0
 13 14  1  0  0  0  0
 14  5  1  0  0  0  0
 15 18  1  6  0  0  0
 15  3  1  0  0  0  0
 16 13  2  0  0  0  0
 17  7  2  0  0  0  0
 18 23  1  0  0  0  0
 20 23  1  0  0  0  0
 21 25  1  0  0  0  0
 21 20  1  0  0  0  0
 22 19  1  0  0  0  0
 23 19  1  0  0  0  0
 24 25  1  0  0  0  0
 25 22  1  0  0  0  0
M  END
>  <MODEL>
1

>  <REMARK>
 VINA RESULT:      -8.4      0.000      0.000
  Name = 
  2 active torsions:
  status: ('A' for Active; 'I' for Inactive)
    1  A    between atoms: C_18  and  N_21
    2  A    between atoms: N_21  and  C_23
                            x       y       z     vdW  Elec       q    Type
                         _______ _______ _______ _____ _____    ______ ____

>  <TORSDO>
F 2

$$$$
=
 OpenBabel11042417483D

 25 28  0  0  1  0  0  0  0  0999 V2000
  188.8900  175.8590  146.6300 C   0  0  0  0  0  3  0  0  0  0  0  0
  184.9970  177.7370  143.3480 C   0  0  0  0  0  0  0  0  0  0  0  0
  188.9450  175.2370  145.4630 C   0  0  0  0  0  3  0  0  0  0  0  0
  183.8300  178.2040  142.8780 N   0  0  0  0  0  0  0  0  0  0  0  0
  188.5260  177.2850  146.7050 C   0  0  0  0  0  2  0  0  0  0  0  0
  185.2190  177.6500  141.1510 N   0  0  0  0  0  2  0  0  0  0  0  0
  187.5430  176.6500  143.8910 C   0  0  0  0  0  0  0  0  0  0  0  0
  184.0110  178.1260  141.5370 C   0  0  0  0  0  0  0  0  0  0  0  0
  183.0120  178.5230  140.6060 N   0  0  0  0  0  1  0  0  0  0  0  0
  184.5200  178.1220  145.6980 N   0  0  0  0  0  1  0  0  0  0  0  0
  187.9110  176.6190  141.3020 C   0  0  0  0  0  1  0  0  0  0  0  0
  185.8250  177.4130  142.3280 C   0  0  0  0  0  0  0  0  0  0  0  0
  186.7130  177.2060  144.9550 C   0  0  0  0  0  0  0  0  0  0  0  0
  187.1410  177.4570  146.2030 C   0  0  0  0  0  2  0  0  0  0  0  0
  188.6300  175.8320  144.1380 C   0  0  2  0  0  3  0  0  0  0  0  0
  185.3970  177.6580  144.6690 C   0  0  0  0  0  0  0  0  0  0  0  0
  187.1020  176.8930  142.5340 C   0  0  0  0  0  0  0  0  0  0  0  0
  189.4100  175.3130  143.0500 N   0  0  0  0  0  2  0  0  0  0  0  0
  190.8690  173.8090  141.7630 C   0  0  0  0  0  2  0  0  0  0  0  0
  188.8450  172.9320  142.9720 C   0  0  0  0  0  2  0  0  0  0  0  0
  188.1210  172.9570  141.6260 C   0  0  0  0  0  2  0  0  0  0  0  0
  190.0280  173.7830  140.4870 C   0  0  0  0  0  2  0  0  0  0  0  0
  189.9710  173.9660  142.9940 C   0  0  0  0  0  3  0  0  0  0  0  0
  188.3080  172.7290  139.3090 C   0  0  0  0  0  1  0  0  0  0  0  0
  189.0660  172.6850  140.5460 N   0  0  0  0  0  0  0  0  0  0  0  0
  1  5  1  0  0  0  0
  2 16  1  0  0  0  0
  3  1  2  0  0  0  0
  4  2  1  0  0  0  0
  6  8  1  0  0  0  0
  6 12  1  0  0  0  0
  7 15  1  0  0  0  0
  7 13  1  0  0  0  0
  8  4  2  0  0  0  0
  9  8  1  0  0  0  0
 11 17  1  0  0  0  0
 12 17  1  0  0  0  0
 12  2  2  0  0  0  0
 13 14  1  0  0  0  0
 14  5  1  0  0  0  0
 15 18  1  6  0  0  0
 15  3  1  0  0  0  0
 16 13  2  0  0  0  0
 16 10  1  0  0  0  0
 17  7  2  0  0  0  0
 19 23  1  0  0  0  0
 20 23  1  0  0  0  0
 21 20  1  0  0  0  0
 22 25  1  0  0  0  0
 22 19  1  0  0  0  0
 23 18  1  0  0  0  0
 24 25  1  0  0  0  0
 25 21  1  0  0  0  0
M  END
>  <MODEL>
2

>  <REMARK>
 VINA RESULT:      -7.6      2.540      3.748
  Name = 
  2 active torsions:
  status: ('A' for Active; 'I' for Inactive)
    1  A    between atoms: C_18  and  N_21
    2  A    between atoms: N_21  and  C_23
                            x       y       z     vdW  Elec       q    Type
                         _______ _______ _______ _____ _____    ______ ____

>  <TORSDO>
F 2

$$$$
=
 OpenBabel11042417483D

 25 28  0  0  1  0  0  0  0  0999 V2000
  188.8630  175.9630  146.8850 C   0  0  0  0  0  3  0  0  0  0  0  0
  185.1720  177.8190  143.3660 C   0  0  0  0  0  0  0  0  0  0  0  0
  188.9450  175.2900  145.7490 C   0  0  0  0  0  3  0  0  0  0  0  0
  184.0420  178.3020  142.8280 N   0  0  0  0  0  0  0  0  0  0  0  0
  188.5440  177.4010  146.8860 C   0  0  0  0  0  2  0  0  0  0  0  0
  185.4810  177.6310  141.1860 N   0  0  0  0  0  2  0  0  0  0  0  0
  187.6560  176.6770  144.0610 C   0  0  0  0  0  0  0  0  0  0  0  0
  184.2750  178.1610  141.5010 C   0  0  0  0  0  0  0  0  0  0  0  0
  183.3290  178.5480  140.5130 N   0  0  0  0  0  1  0  0  0  0  0  0
  184.6120  178.3190  145.6760 N   0  0  0  0  0  1  0  0  0  0  0  0
  188.1300  176.5230  141.4940 C   0  0  0  0  0  1  0  0  0  0  0  0
  186.0300  177.4260  142.3970 C   0  0  0  0  0  0  0  0  0  0  0  0
  186.8020  177.3040  145.0650 C   0  0  0  0  0  0  0  0  0  0  0  0
  187.1870  177.5940  146.3190 C   0  0  0  0  0  2  0  0  0  0  0  0
  188.7050  175.8370  144.3880 C   0  0  2  0  0  3  0  0  0  0  0  0
  185.5150  177.7840  144.7060 C   0  0  0  0  0  0  0  0  0  0  0  0
  187.2800  176.8760  142.6780 C   0  0  0  0  0  0  0  0  0  0  0  0
  189.5110  175.2480  143.3560 N   0  0  0  0  0  2  0  0  0  0  0  0
  191.5610  173.9180  143.6300 C   0  0  0  0  0  2  0  0  0  0  0  0
  189.7250  173.1670  142.0830 C   0  0  0  0  0  2  0  0  0  0  0  0
  190.5580  173.7370  140.9350 C   0  0  0  0  0  2  0  0  0  0  0  0
  192.2880  174.4430  142.3930 C   0  0  0  0  0  2  0  0  0  0  0  0
  190.0480  173.8900  143.3910 C   0  0  0  0  0  3  0  0  0  0  0  0
  192.7010  174.1660  140.1100 C   0  0  0  0  0  1  0  0  0  0  0  0
  191.9810  173.6030  141.2380 N   0  0  0  0  0  0  0  0  0  0  0  0
  1  5  1  0  0  0  0
  2 16  1  0  0  0  0
  3  1  2  0  0  0  0
  4  2  1  0  0  0  0
  6  8  1  0  0  0  0
  6 12  1  0  0  0  0
  7 15  1  0  0  0  0
  7 13  1  0  0  0  0
  8  4  2  0  0  0  0
  9  8  1  0  0  0  0
 11 17  1  0  0  0  0
 12 17  1  0  0  0  0
 12  2  2  0  0  0  0
 13 14  1  0  0  0  0
 14  5  1  0  0  0  0
 15 18  1  6  0  0  0
 15  3  1  0  0  0  0
 16 13  2  0  0  0  0
 16 10  1  0  0  0  0
 17  7  2  0  0  0  0
 18 23  1  0  0  0  0
 20 23  1  0  0  0  0
 21 25  1  0  0  0  0
 21 20  1  0  0  0  0
 22 19  1  0  0  0  0
 23 19  1  0  0  0  0
 24 25  1  0  0  0  0
 25 22  1  0  0  0  0
M  END
>  <MODEL>
3

>  <REMARK>
 VINA RESULT:      -7.0      2.215      3.209
  Name = 
  2 active torsions:
  status: ('A' for Active; 'I' for Inactive)
    1  A    between atoms: C_18  and  N_21
    2  A    between atoms: N_21  and  C_23
                            x       y       z     vdW  Elec       q    Type
                         _______ _______ _______ _____ _____    ______ ____

>  <TORSDO>
F 2

$$$$
=
 OpenBabel11042417483D

 25 28  0  0  1  0  0  0  0  0999 V2000
  191.5660  176.0920  148.0580 C   0  0  0  0  0  3  0  0  0  0  0  0
  187.9870  177.5440  144.2470 C   0  0  0  0  0  0  0  0  0  0  0  0
  191.9870  175.6930  146.8680 C   0  0  0  0  0  3  0  0  0  0  0  0
  186.8440  177.8060  143.5920 N   0  0  0  0  0  0  0  0  0  0  0  0
  190.8470  177.3680  148.2110 C   0  0  0  0  0  2  0  0  0  0  0  0
  188.6170  177.8610  142.1530 N   0  0  0  0  0  2  0  0  0  0  0  0
  190.5820  176.9860  145.1990 C   0  0  0  0  0  0  0  0  0  0  0  0
  187.2790  177.9860  142.3210 C   0  0  0  0  0  0  0  0  0  0  0  0
  186.3980  178.2910  141.2470 N   0  0  0  0  0  1  0  0  0  0  0  0
  187.0100  177.4320  146.4670 N   0  0  0  0  0  1  0  0  0  0  0  0
  191.4100  177.4520  142.7620 C   0  0  0  0  0  1  0  0  0  0  0  0
  189.0400  177.5820  143.3990 C   0  0  0  0  0  0  0  0  0  0  0  0
  189.4600  177.1640  146.1150 C   0  0  0  0  0  0  0  0  0  0  0  0
  189.5780  177.3020  147.4460 C   0  0  0  0  0  2  0  0  0  0  0  0
  191.7780  176.4050  145.5810 C   0  0  2  0  0  3  0  0  0  0  0  0
  188.1470  177.3470  145.6060 C   0  0  0  0  0  0  0  0  0  0  0  0
  190.3480  177.3370  143.8140 C   0  0  0  0  0  0  0  0  0  0  0  0
  192.8470  176.2560  144.6340 N   0  0  0  0  0  2  0  0  0  0  0  0
  195.2020  175.6660  145.0230 C   0  0  0  0  0  2  0  0  0  0  0  0
  193.8480  174.5000  143.2520 C   0  0  0  0  0  2  0  0  0  0  0  0
  194.5180  175.4230  142.2350 C   0  0  0  0  0  2  0  0  0  0  0  0
  195.7940  176.5210  143.9030 C   0  0  0  0  0  2  0  0  0  0  0  0
  193.8100  175.1580  144.6320 C   0  0  0  0  0  3  0  0  0  0  0  0
  196.4400  176.6200  141.6600 C   0  0  0  0  0  1  0  0  0  0  0  0
  195.8750  175.7430  142.6700 N   0  0  0  0  0  0  0  0  0  0  0  0
  1  5  1  0  0  0  0
  2 16  1  0  0  0  0
  3  1  2  0  0  0  0
  4  2  1  0  0  0  0
  6  8  1  0  0  0  0
  6 12  1  0  0  0  0
  7 15  1  0  0  0  0
  7 13  1  0  0  0  0
  8  4  2  0  0  0  0
  9  8  1  0  0  0  0
 11 17  1  0  0  0  0
 12 17  1  0  0  0  0
 12  2  2  0  0  0  0
 13 14  1  0  0  0  0
 14  5  1  0  0  0  0
 15 18  1  6  0  0  0
 15  3  1  0  0  0  0
 16 13  2  0  0  0  0
 16 10  1  0  0  0  0
 17  7  2  0  0  0  0
 20 23  1  0  0  0  0
 21 25  1  0  0  0  0
 21 20  1  0  0  0  0
 22 19  1  0  0  0  0
 23 18  1  0  0  0  0
 23 19  1  0  0  0  0
 24 25  1  0  0  0  0
 25 22  1  0  0  0  0
M  END
>  <MODEL>
4

>  <REMARK>
 VINA RESULT:      -6.9      2.410      4.290
  Name = 
  2 active torsions:
  status: ('A' for Active; 'I' for Inactive)
    1  A    between atoms: C_18  and  N_21
    2  A    between atoms: N_21  and  C_23
                            x       y       z     vdW  Elec       q    Type
                         _______ _______ _______ _____ _____    ______ ____

>  <TORSDO>
F 2

$$$$
=
 OpenBabel11042417483D

 25 28  0  0  1  0  0  0  0  0999 V2000
  189.2520  176.5200  147.0340 C   0  0  0  0  0  3  0  0  0  0  0  0
  190.7410  173.5680  142.7310 C   0  0  0  0  0  0  0  0  0  0  0  0
  188.7510  177.0480  145.9290 C   0  0  0  0  0  3  0  0  0  0  0  0
  191.4470  172.8140  141.8750 N   0  0  0  0  0  0  0  0  0  0  0  0
  189.3690  175.0590  147.1830 C   0  0  0  0  0  2  0  0  0  0  0  0
  189.5150  173.5350  140.8920 N   0  0  0  0  0  2  0  0  0  0  0  0
  188.9800  175.2400  144.1660 C   0  0  0  0  0  0  0  0  0  0  0  0
  190.6640  172.8290  140.7690 C   0  0  0  0  0  0  0  0  0  0  0  0
  191.0180  172.1470  139.5720 N   0  0  0  0  0  1  0  0  0  0  0  0
  192.2110  173.2640  144.6410 N   0  0  0  0  0  1  0  0  0  0  0  0
  187.4310  175.1580  142.0600 C   0  0  0  0  0  1  0  0  0  0  0  0
  189.5930  173.9920  142.1550 C   0  0  0  0  0  0  0  0  0  0  0  0
  190.1130  174.5930  144.8190 C   0  0  0  0  0  0  0  0  0  0  0  0
  190.2970  174.5410  146.1490 C   0  0  0  0  0  2  0  0  0  0  0  0
  188.2930  176.2990  144.7300 C   0  0  2  0  0  3  0  0  0  0  0  0
  191.0390  173.8350  144.0540 C   0  0  0  0  0  0  0  0  0  0  0  0
  188.6730  174.8010  142.8210 C   0  0  0  0  0  0  0  0  0  0  0  0
  187.1850  176.8970  144.0390 N   0  0  0  0  0  2  0  0  0  0  0  0
  185.7510  178.8030  144.6350 C   0  0  0  0  0  2  0  0  0  0  0  0
  186.8530  178.6640  142.3770 C   0  0  0  0  0  2  0  0  0  0  0  0
  185.5140  178.1610  141.8370 C   0  0  0  0  0  2  0  0  0  0  0  0
  184.4770  178.2930  143.9630 C   0  0  0  0  0  2  0  0  0  0  0  0
  186.9890  178.3330  143.8640 C   0  0  0  0  0  3  0  0  0  0  0  0
  183.1860  178.2410  142.0170 C   0  0  0  0  0  1  0  0  0  0  0  0
  184.4140  178.7670  142.5840 N   0  0  0  0  0  0  0  0  0  0  0  0
  1  5  1  0  0  0  0
  2 16  1  0  0  0  0
  3  1  2  0  0  0  0
  4  2  1  0  0  0  0
  6 12  1  0  0  0  0
  7 15  1  0  0  0  0
  7 13  1  0  0  0  0
  8  6  1  0  0  0  0
  8  4  2  0  0  0  0
  9  8  1  0  0  0  0
 11 17  1  0  0  0  0
 12  2  2  0  0  0  0
 12 17  1  0  0  0  0
 13 14  1  0  0  0  0
 14  5  1  0  0  0  0
 15 18  1  6  0  0  0
 15  3  1  0  0  0  0
 16 10  1  0  0  0  0
 16 13  2  0  0  0  0
 17  7  2  0  0  0  0
 20 23  1  0  0  0  0
 21 20  1  0  0  0  0
 21 25  1  0  0  0  0
 22 19  1  0  0  0  0
 23 18  1  0  0  0  0
 23 19  1  0  0  0  0
 24 25  1  0  0  0  0
 25 22  1  0  0  0  0
M  END
>  <MODEL>
5

>  <REMARK>
 VINA RESULT:      -6.8      2.545      6.193
  Name = 
  2 active torsions:
  status: ('A' for Active; 'I' for Inactive)
    1  A    between atoms: C_18  and  N_21
    2  A    between atoms: N_21  and  C_23
                            x       y       z     vdW  Elec       q    Type
                         _______ _______ _______ _____ _____    ______ ____

>  <TORSDO>
F 2

$$$$
=
 OpenBabel11042417483D

 25 28  0  0  1  0  0  0  0  0999 V2000
  188.3760  175.8590  147.6760 C   0  0  0  0  0  3  0  0  0  0  0  0
  192.7020  175.8530  144.4000 C   0  0  0  0  0  0  0  0  0  0  0  0
  188.3050  176.8760  146.8330 C   0  0  0  0  0  3  0  0  0  0  0  0
  193.9520  175.7380  143.9250 N   0  0  0  0  0  0  0  0  0  0  0  0
  188.9390  174.5670  147.2480 C   0  0  0  0  0  2  0  0  0  0  0  0
  192.6100  176.7650  142.3890 N   0  0  0  0  0  2  0  0  0  0  0  0
  189.9950  176.3530  145.0160 C   0  0  0  0  0  0  0  0  0  0  0  0
  193.8470  176.3120  142.7020 C   0  0  0  0  0  0  0  0  0  0  0  0
  194.9500  176.4230  141.8120 N   0  0  0  0  0  1  0  0  0  0  0  0
  193.0810  174.6370  146.4680 N   0  0  0  0  0  1  0  0  0  0  0  0
  189.7910  177.3510  142.6070 C   0  0  0  0  0  1  0  0  0  0  0  0
  191.9020  176.4550  143.4900 C   0  0  0  0  0  0  0  0  0  0  0  0
  190.8290  175.5220  145.8790 C   0  0  0  0  0  0  0  0  0  0  0  0
  190.3630  174.7580  146.8820 C   0  0  0  0  0  2  0  0  0  0  0  0
  188.7870  176.8850  145.4270 C   0  0  2  0  0  3  0  0  0  0  0  0
  192.2120  175.3660  145.5970 C   0  0  0  0  0  0  0  0  0  0  0  0
  190.5520  176.7090  143.7290 C   0  0  0  0  0  0  0  0  0  0  0  0
  188.0100  177.6970  144.5340 N   0  0  0  0  0  2  0  0  0  0  0  0
  185.8870  176.6280  143.9020 C   0  0  0  0  0  2  0  0  0  0  0  0
  186.1300  179.1320  143.9020 C   0  0  0  0  0  2  0  0  0  0  0  0
  186.3260  179.0400  142.3890 C   0  0  0  0  0  2  0  0  0  0  0  0
  186.0970  176.6810  142.3890 C   0  0  0  0  0  2  0  0  0  0  0  0
  186.5560  177.8290  144.5790 C   0  0  0  0  0  3  0  0  0  0  0  0
  185.7900  177.9020  140.4210 C   0  0  0  0  0  1  0  0  0  0  0  0
  185.5500  177.9250  141.8520 N   0  0  0  0  0  0  0  0  0  0  0  0
  2 16  1  0  0  0  0
  3  1  2  0  0  0  0
  4  2  1  0  0  0  0
  5  1  1  0  0  0  0
  6  8  1  0  0  0  0
  6 12  1  0  0  0  0
  7 15  1  0  0  0  0
  7 13  1  0  0  0  0
  8  4  2  0  0  0  0
  9  8  1  0  0  0  0
 11 17  1  0  0  0  0
 12 17  1  0  0  0  0
 12  2  2  0  0  0  0
 13 14  1  0  0  0  0
 14  5  1  0  0  0  0
 15 18  1  1  0  0  0
 15  3  1  0  0  0  0
 16 13  2  0  0  0  0
 16 10  1  0  0  0  0
 17  7  2  0  0  0  0
 18 23  1  0  0  0  0
 19 23  1  0  0  0  0
 20 23  1  0  0  0  0
 21 20  1  0  0  0  0
 22 19  1  0  0  0  0
 24 25  1  0  0  0  0
 25 22  1  0  0  0  0
 25 21  1  0  0  0  0
M  END
>  <MODEL>
6

>  <REMARK>
 VINA RESULT:      -6.7      2.104      6.279
  Name = 
  2 active torsions:
  status: ('A' for Active; 'I' for Inactive)
    1  A    between atoms: C_18  and  N_21
    2  A    between atoms: N_21  and  C_23
                            x       y       z     vdW  Elec       q    Type
                         _______ _______ _______ _____ _____    ______ ____

>  <TORSDO>
F 2

$$$$
=
 OpenBabel11042417483D

 25 28  0  0  1  0  0  0  0  0999 V2000
  189.5590  174.0890  141.0760 C   0  0  0  0  0  3  0  0  0  0  0  0
  187.0300  177.0070  144.8890 C   0  0  0  0  0  0  0  0  0  0  0  0
  190.4370  174.5380  141.9580 C   0  0  0  0  0  3  0  0  0  0  0  0
  186.1920  177.8470  145.5170 N   0  0  0  0  0  0  0  0  0  0  0  0
  188.2090  173.6810  141.5020 C   0  0  0  0  0  2  0  0  0  0  0  0
  187.8810  177.2130  146.9180 N   0  0  0  0  0  2  0  0  0  0  0  0
  189.0580  175.2860  143.9500 C   0  0  0  0  0  0  0  0  0  0  0  0
  186.7560  177.9460  146.7460 C   0  0  0  0  0  0  0  0  0  0  0  0
  186.2020  178.7510  147.7790 N   0  0  0  0  0  1  0  0  0  0  0  0
  185.7610  176.8470  142.8240 N   0  0  0  0  0  1  0  0  0  0  0  0
  190.0600  175.4010  146.3620 C   0  0  0  0  0  1  0  0  0  0  0  0
  188.0290  176.6250  145.7170 C   0  0  0  0  0  0  0  0  0  0  0  0
  187.8590  175.5490  143.1600 C   0  0  0  0  0  0  0  0  0  0  0  0
  187.5030  174.8590  142.0630 C   0  0  0  0  0  2  0  0  0  0  0  0
  190.2020  174.7240  143.4130 C   0  0  2  0  0  3  0  0  0  0  0  0
  186.9000  176.4940  143.6120 C   0  0  0  0  0  0  0  0  0  0  0  0
  189.0460  175.7590  145.3170 C   0  0  0  0  0  0  0  0  0  0  0  0
  191.3520  174.4900  144.2400 N   0  0  0  0  0  2  0  0  0  0  0  0
  193.6820  173.9920  144.8480 C   0  0  0  0  0  2  0  0  0  0  0  0
  193.1080  175.9920  143.4330 C   0  0  0  0  0  2  0  0  0  0  0  0
  193.2310  176.8340  144.7020 C   0  0  0  0  0  2  0  0  0  0  0  0
  193.7710  174.9500  146.0350 C   0  0  0  0  0  2  0  0  0  0  0  0
  192.7360  174.5500  143.7790 C   0  0  0  0  0  3  0  0  0  0  0  0
  194.2960  177.1070  146.7640 C   0  0  0  0  0  1  0  0  0  0  0  0
  194.2410  176.2580  145.5870 N   0  0  0  0  0  0  0  0  0  0  0  0
  1  5  1  0  0  0  0
  1  3  2  0  0  0  0
  2  4  1  0  0  0  0
  2 12  1  0  0  0  0
  3 15  1  0  0  0  0
  4  8  2  0  0  0  0
  5 14  1  0  0  0  0
  7 17  1  0  0  0  0
  8  6  1  0  0  0  0
  8  9  1  0  0  0  0
 10 16  1  0  0  0  0
 12  6  1  0  0  0  0
 13 16  1  0  0  0  0
 13  7  2  0  0  0  0
 14 13  1  0  0  0  0
 15  7  1  0  0  0  0
 15 18  1  6  0  0  0
 16  2  2  0  0  0  0
 17 12  2  0  0  0  0
 17 11  1  0  0  0  0
 19 22  1  0  0  0  0
 20 23  1  0  0  0  0
 20 21  1  0  0  0  0
 21 25  1  0  0  0  0
 23 18  1  0  0  0  0
 23 19  1  0  0  0  0
 25 22  1  0  0  0  0
 25 24  1  0  0  0  0
M  END
>  <MODEL>
7

>  <REMARK>
 VINA RESULT:      -6.6      2.369      5.021
  Name = 
  2 active torsions:
  status: ('A' for Active; 'I' for Inactive)
    1  A    between atoms: C_18  and  N_21
    2  A    between atoms: N_21  and  C_23
                            x       y       z     vdW  Elec       q    Type
                         _______ _______ _______ _____ _____    ______ ____

>  <TORSDO>
F 2

$$$$
=
 OpenBabel11042417483D

 25 28  0  0  1  0  0  0  0  0999 V2000
  185.6540  178.4070  144.2450 C   0  0  0  0  0  3  0  0  0  0  0  0
  187.8170  175.4190  140.2660 C   0  0  0  0  0  0  0  0  0  0  0  0
  186.0390  177.2340  144.7210 C   0  0  0  0  0  3  0  0  0  0  0  0
  188.0580  174.8510  139.0740 N   0  0  0  0  0  0  0  0  0  0  0  0
  186.4320  179.0840  143.1940 C   0  0  0  0  0  2  0  0  0  0  0  0
  189.3040  173.8440  140.7030 N   0  0  0  0  0  2  0  0  0  0  0  0
  187.5700  176.2680  142.9440 C   0  0  0  0  0  0  0  0  0  0  0  0
  188.9640  173.8940  139.3930 C   0  0  0  0  0  0  0  0  0  0  0  0
  189.5220  173.0160  138.4240 N   0  0  0  0  0  1  0  0  0  0  0  0
  186.3420  177.1650  139.4430 N   0  0  0  0  0  1  0  0  0  0  0  0
  189.4040  174.4930  143.5150 C   0  0  0  0  0  1  0  0  0  0  0  0
  188.5570  174.8300  141.2320 C   0  0  0  0  0  0  0  0  0  0  0  0
  186.9540  177.0140  141.8520 C   0  0  0  0  0  0  0  0  0  0  0  0
  186.4260  178.2440  141.9720 C   0  0  0  0  0  2  0  0  0  0  0  0
  187.2190  176.4500  144.2690 C   0  0  2  0  0  3  0  0  0  0  0  0
  187.0120  176.5130  140.5250 C   0  0  0  0  0  0  0  0  0  0  0  0
  188.4950  175.2200  142.5690 C   0  0  0  0  0  0  0  0  0  0  0  0
  187.8590  175.6860  145.3020 N   0  0  0  0  0  2  0  0  0  0  0  0
  189.0180  177.4730  146.5300 C   0  0  0  0  0  2  0  0  0  0  0  0
  188.9390  175.1230  147.4260 C   0  0  0  0  0  2  0  0  0  0  0  0
  190.3530  174.9440  146.8730 C   0  0  0  0  0  2  0  0  0  0  0  0
  190.4270  177.1570  146.0300 C   0  0  0  0  0  2  0  0  0  0  0  0
  188.1850  176.1910  146.6320 C   0  0  0  0  0  3  0  0  0  0  0  0
  192.4000  175.9600  146.3910 C   0  0  0  0  0  1  0  0  0  0  0  0
  191.0780  176.2110  146.9330 N   0  0  0  0  0  0  0  0  0  0  0  0
  1  3  2  0  0  0  0
  2 16  2  0  0  0  0
  2 12  1  0  0  0  0
  4  8  2  0  0  0  0
  4  2  1  0  0  0  0
  5  1  1  0  0  0  0
  6 12  1  0  0  0  0
  7 15  1  0  0  0  0
  8  6  1  0  0  0  0
  9  8  1  0  0  0  0
 10 16  1  0  0  0  0
 12 17  2  0  0  0  0
 13 14  1  0  0  0  0
 13  7  2  0  0  0  0
 14  5  1  0  0  0  0
 15  3  1  0  0  0  0
 15 18  1  6  0  0  0
 16 13  1  0  0  0  0
 17  7  1  0  0  0  0
 17 11  1  0  0  0  0
 18 23  1  0  0  0  0
 19 23  1  0  0  0  0
 21 25  1  0  0  0  0
 21 20  1  0  0  0  0
 22 19  1  0  0  0  0
 22 25  1  0  0  0  0
 23 20  1  0  0  0  0
 24 25  1  0  0  0  0
M  END
>  <MODEL>
8

>  <REMARK>
 VINA RESULT:      -6.6      2.233      3.216
  Name = 
  2 active torsions:
  status: ('A' for Active; 'I' for Inactive)
    1  A    between atoms: C_18  and  N_21
    2  A    between atoms: N_21  and  C_23
                            x       y       z     vdW  Elec       q    Type
                         _______ _______ _______ _____ _____    ______ ____

>  <TORSDO>
F 2

$$$$
=
 OpenBabel11042417483D

 25 28  0  0  1  0  0  0  0  0999 V2000
  190.0040  175.6000  147.2630 C   0  0  0  0  0  3  0  0  0  0  0  0
  185.7930  177.6510  144.5250 C   0  0  0  0  0  0  0  0  0  0  0  0
  189.6780  174.7920  146.2670 C   0  0  0  0  0  3  0  0  0  0  0  0
  184.6380  178.2610  144.2150 N   0  0  0  0  0  0  0  0  0  0  0  0
  189.9030  177.0610  147.1100 C   0  0  0  0  0  2  0  0  0  0  0  0
  185.4650  177.1530  142.3970 N   0  0  0  0  0  2  0  0  0  0  0  0
  188.1860  176.1750  144.7530 C   0  0  0  0  0  0  0  0  0  0  0  0
  184.4770  177.9230  142.9120 C   0  0  0  0  0  0  0  0  0  0  0  0
  183.3620  178.3520  142.1420 N   0  0  0  0  0  1  0  0  0  0  0  0
  185.9600  178.5150  146.7880 N   0  0  0  0  0  1  0  0  0  0  0  0
  187.9140  175.6350  142.2090 C   0  0  0  0  0  1  0  0  0  0  0  0
  186.2890  176.9990  143.4490 C   0  0  0  0  0  0  0  0  0  0  0  0
  187.7350  177.0600  145.8220 C   0  0  0  0  0  0  0  0  0  0  0  0
  188.4840  177.4250  146.8770 C   0  0  0  0  0  2  0  0  0  0  0  0
  189.1540  175.2060  144.9390 C   0  0  2  0  0  3  0  0  0  0  0  0
  186.4790  177.7160  145.7230 C   0  0  0  0  0  0  0  0  0  0  0  0
  187.4780  176.2720  143.4940 C   0  0  0  0  0  0  0  0  0  0  0  0
  189.5570  174.3640  143.8480 N   0  0  0  0  0  2  0  0  0  0  0  0
  190.8640  173.4850  141.9600 C   0  0  0  0  0  2  0  0  0  0  0  0
  192.0000  174.3920  144.0140 C   0  0  0  0  0  2  0  0  0  0  0  0
  192.1720  172.9430  144.4700 C   0  0  0  0  0  2  0  0  0  0  0  0
  191.1020  172.0890  142.5350 C   0  0  0  0  0  2  0  0  0  0  0  0
  190.7920  174.5230  143.0850 C   0  0  0  0  0  3  0  0  0  0  0  0
  192.4930  170.7220  143.8210 C   0  0  0  0  0  1  0  0  0  0  0  0
  192.3410  172.0710  143.3090 N   0  0  0  0  0  0  0  0  0  0  0  0
  2 16  1  0  0  0  0
  3  1  2  0  0  0  0
  4  2  1  0  0  0  0
  5  1  1  0  0  0  0
  6  8  1  0  0  0  0
  6 12  1  0  0  0  0
  7 15  1  0  0  0  0
  7 13  1  0  0  0  0
  8  4  2  0  0  0  0
  9  8  1  0  0  0  0
 11 17  1  0  0  0  0
 12 17  1  0  0  0  0
 12  2  2  0  0  0  0
 13 14  1  0  0  0  0
 14  5  1  0  0  0  0
 15 18  1  1  0  0  0
 15  3  1  0  0  0  0
 16 13  2  0  0  0  0
 16 10  1  0  0  0  0
 17  7  2  0  0  0  0
 19 22  1  0  0  0  0
 19 23  1  0  0  0  0
 20 21  1  0  0  0  0
 22 25  1  0  0  0  0
 23 18  1  0  0  0  0
 23 20  1  0  0  0  0
 25 24  1  0  0  0  0
 25 21  1  0  0  0  0
M  END
>  <MODEL>
9

>  <REMARK>
 VINA RESULT:      -6.5      1.984      3.639
  Name = 
  2 active torsions:
  status: ('A' for Active; 'I' for Inactive)
    1  A    between atoms: C_18  and  N_21
    2  A    between atoms: N_21  and  C_23
                            x       y       z     vdW  Elec       q    Type
                         _______ _______ _______ _____ _____    ______ ____

>  <TORSDO>
F 2

$$$$
