=
 OpenBabel11042418373D

 37 40  0  0  1  0  0  0  0  0999 V2000
  188.8200  177.1470  146.3690 C   0  0  0  0  0  3  0  0  0  0  0  0
  188.8590  174.4100  140.7790 C   0  0  0  0  0  2  0  0  0  0  0  0
  190.5170  175.8390  145.2310 C   0  0  0  0  0  3  0  0  0  0  0  0
  188.3590  176.2130  144.1870 C   0  0  0  0  0  0  0  0  0  0  0  0
  187.3820  175.7740  142.7420 S   0  0  0  0  0  0  0  0  0  0  0  0
  191.2730  174.9680  142.5110 O   0  0  0  0  0  0  0  0  0  0  0  0
  188.9580  175.4340  141.8970 C   0  0  1  0  0  3  0  0  0  0  0  0
  192.7830  174.0190  140.8680 C   0  0  0  0  0  1  0  0  0  0  0  0
  189.9260  174.8930  142.9380 C   0  0  2  0  0  3  0  0  0  0  0  0
  189.6420  175.6830  144.1570 C   0  0  0  0  0  0  0  0  0  0  0  0
  190.2540  173.8270  140.4630 C   0  0  1  0  0  3  0  0  0  0  0  0
  191.4180  174.6290  141.1310 C   0  0  1  0  0  3  0  0  0  0  0  0
  190.1020  176.5810  146.3410 C   0  0  0  0  0  0  0  0  0  0  0  0
  187.9280  176.9850  145.2910 C   0  0  0  0  0  0  0  0  0  0  0  0
  186.5850  177.6130  145.3750 C   0  0  0  0  0  0  0  0  0  0  0  0
  186.2570  178.7370  144.6070 C   0  0  0  0  0  3  0  0  0  0  0  0
  185.6320  177.1120  146.2750 C   0  0  0  0  0  3  0  0  0  0  0  0
  184.9950  179.3210  144.7320 C   0  0  0  0  0  3  0  0  0  0  0  0
  184.3810  177.7230  146.3730 C   0  0  0  0  0  3  0  0  0  0  0  0
  184.0880  178.8060  145.6040 N   0  0  0  0  0  0  0  0  0  0  0  0
  191.0120  176.7460  147.5080 C   0  0  0  0  0  2  0  0  0  0  0  0
  192.2390  175.8660  147.3390 C   0  0  0  0  0  2  0  0  0  0  0  0
  193.4510  176.7070  146.9690 C   0  0  0  0  0  2  0  0  0  0  0  0
  194.5500  175.8550  146.3520 C   0  0  0  0  0  2  0  0  0  0  0  0
  194.0980  175.2950  145.0130 C   0  0  0  0  0  2  0  0  0  0  0  0
  196.6650  176.0770  140.7360 C   0  0  0  0  0  1  0  0  0  0  0  0
  195.8210  176.5210  141.8330 N   0  0  0  0  0  2  0  0  0  0  0  0
  194.5840  176.1370  143.9310 N   0  0  0  0  0  2  0  0  0  0  0  0
  195.4110  175.6380  142.8760 C   0  0  0  0  0  0  0  0  0  0  0  0
  195.7790  174.4310  142.8720 O   0  0  0  0  0  0  0  0  0  0  0  0
  190.3310  172.3020  140.6790 C   0  0  1  0  0  3  0  0  0  0  0  0
  191.2650  171.6290  142.9270 N   0  0  0  0  0  2  0  0  0  0  0  0
  190.1290  171.8840  142.1050 C   0  0  0  0  0  0  0  0  0  0  0  0
  188.9670  171.7870  142.5830 O   0  0  0  0  0  0  0  0  0  0  0  0
  191.1160  171.2910  144.2290 O   0  0  0  0  0  1  0  0  0  0  0  0
  190.1800  170.8600  138.8410 C   0  0  0  0  0  1  0  0  0  0  0  0
  189.3940  171.6110  139.8060 N   0  0  0  0  0  2  0  0  0  0  0  0
  3 13  2  0  0  0  0
  4 14  1  0  0  0  0
  5  4  1  0  0  0  0
  7  2  1  6  0  0  0
  7  5  1  0  0  0  0
  7  9  1  0  0  0  0
  9  6  1  6  0  0  0
  9 10  1  0  0  0  0
 10  4  2  0  0  0  0
 10  3  1  0  0  0  0
 11 31  1  1  0  0  0
 11  2  1  0  0  0  0
 11 12  1  0  0  0  0
 12  8  1  1  0  0  0
 12  6  1  0  0  0  0
 13  1  1  0  0  0  0
 13 21  1  0  0  0  0
 14 15  1  0  0  0  0
 14  1  2  0  0  0  0
 15 17  1  0  0  0  0
 16 18  1  0  0  0  0
 16 15  2  0  0  0  0
 17 19  2  0  0  0  0
 18 20  2  0  0  0  0
 20 19  1  0  0  0  0
 22 21  1  0  0  0  0
 23 22  1  0  0  0  0
 24 23  1  0  0  0  0
 25 24  1  0  0  0  0
 26 27  1  0  0  0  0
 27 29  1  0  0  0  0
 28 25  1  0  0  0  0
 29 28  1  0  0  0  0
 30 29  2  0  0  0  0
 31 37  1  6  0  0  0
 31 33  1  0  0  0  0
 32 35  1  0  0  0  0
 33 34  2  0  0  0  0
 33 32  1  0  0  0  0
 36 37  1  0  0  0  0
M  END
>  <MODEL>
1

>  <REMARK>
 VINA RESULT:      -7.0      0.000      0.000
  Name = 
  10 active torsions:
  status: ('A' for Active; 'I' for Inactive)
    1  A    between atoms: C_3  and  C_34
    2  A    between atoms: C_5  and  C_9
    3  A    between atoms: C_8  and  C_29
    4  A    between atoms: C_8  and  C_30
    5  A    between atoms: C_9  and  C_24
    6  A    between atoms: C_9  and  N_33
    7  A    between atoms: C_12  and  C_28
    8  A    between atoms: C_12  and  C_37
    9  A    between atoms: N_26  and  C_28
   10  A    between atoms: C_30  and  C_37
                            x       y       z     vdW  Elec       q    Type
                         _______ _______ _______ _____ _____    ______ ____

>  <TORSDO>
F 10

$$$$
=
 OpenBabel11042418373D

 37 40  0  0  1  0  0  0  0  0999 V2000
  186.7920  177.0400  143.1470 C   0  0  0  0  0  3  0  0  0  0  0  0
  191.6480  174.2830  145.8960 C   0  0  0  0  0  2  0  0  0  0  0  0
  188.7120  175.8770  142.2280 C   0  0  0  0  0  3  0  0  0  0  0  0
  188.4930  176.1670  144.6270 C   0  0  0  0  0  0  0  0  0  0  0  0
  189.3540  175.8810  146.1800 S   0  0  0  0  0  0  0  0  0  0  0  0
  190.7830  173.9250  143.0220 O   0  0  0  0  0  0  0  0  0  0  0  0
  190.2700  174.5640  145.3200 C   0  0  1  0  0  3  0  0  0  0  0  0
  192.5740  172.3500  142.5840 C   0  0  0  0  0  1  0  0  0  0  0  0
  190.4510  175.0040  143.8750 C   0  0  2  0  0  3  0  0  0  0  0  0
  189.1780  175.6720  143.5260 C   0  0  0  0  0  0  0  0  0  0  0  0
  192.5220  173.5470  144.8560 C   0  0  1  0  0  3  0  0  0  0  0  0
  191.7040  173.0200  143.6330 C   0  0  1  0  0  3  0  0  0  0  0  0
  187.5080  176.5620  142.0410 C   0  0  0  0  0  0  0  0  0  0  0  0
  187.2620  176.8440  144.4600 C   0  0  0  0  0  0  0  0  0  0  0  0
  186.4570  177.3670  145.5930 C   0  0  0  0  0  0  0  0  0  0  0  0
  185.0660  177.5060  145.4960 C   0  0  0  0  0  3  0  0  0  0  0  0
  187.0930  177.7830  146.7720 C   0  0  0  0  0  3  0  0  0  0  0  0
  184.3420  178.0300  146.5680 C   0  0  0  0  0  3  0  0  0  0  0  0
  186.3360  178.3030  147.8230 C   0  0  0  0  0  3  0  0  0  0  0  0
  184.9860  178.4130  147.7030 N   0  0  0  0  0  0  0  0  0  0  0  0
  186.9990  176.8100  140.6640 C   0  0  0  0  0  2  0  0  0  0  0  0
  186.2720  178.1430  140.6100 C   0  0  0  0  0  2  0  0  0  0  0  0
  184.8580  177.9570  140.0800 C   0  0  0  0  0  2  0  0  0  0  0  0
  183.8210  178.2120  141.1640 C   0  0  0  0  0  2  0  0  0  0  0  0
  182.4180  178.0470  140.6060 C   0  0  0  0  0  2  0  0  0  0  0  0
  177.6920  178.9620  142.1290 C   0  0  0  0  0  1  0  0  0  0  0  0
  179.1310  178.9430  142.3320 N   0  0  0  0  0  2  0  0  0  0  0  0
  181.4370  178.5100  141.5760 N   0  0  0  0  0  2  0  0  0  0  0  0
  180.0310  178.5010  141.3170 C   0  0  0  0  0  0  0  0  0  0  0  0
  179.5920  178.1120  140.2000 O   0  0  0  0  0  0  0  0  0  0  0  0
  193.7940  174.3320  144.4770 C   0  0  1  0  0  3  0  0  0  0  0  0
  194.4110  176.0260  146.2460 N   0  0  0  0  0  2  0  0  0  0  0  0
  193.8060  175.7410  144.9870 C   0  0  0  0  0  0  0  0  0  0  0  0
  193.3130  176.6750  144.2970 O   0  0  0  0  0  0  0  0  0  0  0  0
  194.4760  177.2940  146.7130 O   0  0  0  0  0  1  0  0  0  0  0  0
  194.5430  172.4100  145.5830 C   0  0  0  0  0  1  0  0  0  0  0  0
  194.9860  173.6200  144.9110 N   0  0  0  0  0  2  0  0  0  0  0  0
  1 14  1  0  0  0  0
  3 10  2  0  0  0  0
  4  5  1  0  0  0  0
  6 12  1  0  0  0  0
  7  2  1  1  0  0  0
  7  5  1  0  0  0  0
  9  6  1  6  0  0  0
  9  7  1  0  0  0  0
 10  9  1  0  0  0  0
 10  4  1  0  0  0  0
 11 31  1  6  0  0  0
 11  2  1  0  0  0  0
 12  8  1  6  0  0  0
 12 11  1  0  0  0  0
 13  3  1  0  0  0  0
 13  1  2  0  0  0  0
 14  4  2  0  0  0  0
 14 15  1  0  0  0  0
 15 17  1  0  0  0  0
 16 15  2  0  0  0  0
 16 18  1  0  0  0  0
 17 19  2  0  0  0  0
 18 20  2  0  0  0  0
 20 19  1  0  0  0  0
 21 13  1  0  0  0  0
 22 21  1  0  0  0  0
 23 22  1  0  0  0  0
 23 24  1  0  0  0  0
 25 24  1  0  0  0  0
 25 28  1  0  0  0  0
 26 27  1  0  0  0  0
 29 28  1  0  0  0  0
 29 27  1  0  0  0  0
 30 29  2  0  0  0  0
 31 37  1  1  0  0  0
 31 33  1  0  0  0  0
 32 35  1  0  0  0  0
 33 32  1  0  0  0  0
 34 33  2  0  0  0  0
 37 36  1  0  0  0  0
M  END
>  <MODEL>
2

>  <REMARK>
 VINA RESULT:      -6.9      3.675      8.171
  Name = 
  10 active torsions:
  status: ('A' for Active; 'I' for Inactive)
    1  A    between atoms: C_3  and  C_34
    2  A    between atoms: C_5  and  C_9
    3  A    between atoms: C_8  and  C_29
    4  A    between atoms: C_8  and  C_30
    5  A    between atoms: C_9  and  C_24
    6  A    between atoms: C_9  and  N_33
    7  A    between atoms: C_12  and  C_28
    8  A    between atoms: C_12  and  C_37
    9  A    between atoms: N_26  and  C_28
   10  A    between atoms: C_30  and  C_37
                            x       y       z     vdW  Elec       q    Type
                         _______ _______ _______ _____ _____    ______ ____

>  <TORSDO>
F 10

$$$$
=
 OpenBabel11042418373D

 37 40  0  0  1  0  0  0  0  0999 V2000
  188.6130  176.5440  146.4120 C   0  0  0  0  0  3  0  0  0  0  0  0
  188.5880  174.4520  140.5510 C   0  0  0  0  0  2  0  0  0  0  0  0
  190.1760  175.1390  145.2000 C   0  0  0  0  0  3  0  0  0  0  0  0
  188.1510  175.9280  144.1210 C   0  0  0  0  0  0  0  0  0  0  0  0
  187.2050  175.7920  142.5970 S   0  0  0  0  0  0  0  0  0  0  0  0
  190.9550  174.4690  142.4300 O   0  0  0  0  0  0  0  0  0  0  0  0
  188.7640  175.3240  141.7830 C   0  0  1  0  0  3  0  0  0  0  0  0
  192.4100  173.4980  140.7510 C   0  0  0  0  0  1  0  0  0  0  0  0
  189.5890  174.5420  142.7920 C   0  0  2  0  0  3  0  0  0  0  0  0
  189.3490  175.2270  144.0810 C   0  0  0  0  0  0  0  0  0  0  0  0
  189.9050  173.7130  140.2260 C   0  0  1  0  0  3  0  0  0  0  0  0
  191.1290  174.2650  141.0270 C   0  0  1  0  0  3  0  0  0  0  0  0
  189.8060  175.8080  146.3710 C   0  0  0  0  0  0  0  0  0  0  0  0
  187.7690  176.6290  145.2880 C   0  0  0  0  0  0  0  0  0  0  0  0
  186.5220  177.4290  145.3910 C   0  0  0  0  0  0  0  0  0  0  0  0
  186.3500  178.6080  144.6530 C   0  0  0  0  0  3  0  0  0  0  0  0
  185.5080  177.0370  146.2770 C   0  0  0  0  0  3  0  0  0  0  0  0
  185.1780  179.3520  144.7960 C   0  0  0  0  0  3  0  0  0  0  0  0
  184.3500  177.8080  146.3930 C   0  0  0  0  0  3  0  0  0  0  0  0
  184.2080  178.9410  145.6540 N   0  0  0  0  0  0  0  0  0  0  0  0
  190.6630  175.7140  147.5840 C   0  0  0  0  0  2  0  0  0  0  0  0
  192.0550  175.2400  147.2020 C   0  0  0  0  0  2  0  0  0  0  0  0
  192.9690  176.4280  146.9390 C   0  0  0  0  0  2  0  0  0  0  0  0
  194.3390  175.9780  146.4560 C   0  0  0  0  0  2  0  0  0  0  0  0
  194.2270  174.6770  145.6780 C   0  0  0  0  0  2  0  0  0  0  0  0
  194.9840  176.3660  140.9810 C   0  0  0  0  0  1  0  0  0  0  0  0
  195.3740  175.6040  142.1550 N   0  0  0  0  0  2  0  0  0  0  0  0
  194.9900  174.7680  144.4420 N   0  0  0  0  0  2  0  0  0  0  0  0
  194.5530  175.5400  143.3210 C   0  0  0  0  0  0  0  0  0  0  0  0
  193.4510  176.1520  143.3590 O   0  0  0  0  0  0  0  0  0  0  0  0
  189.7600  172.1790  140.2680 C   0  0  1  0  0  3  0  0  0  0  0  0
  189.8720  170.1190  138.8100 N   0  0  0  0  0  2  0  0  0  0  0  0
  189.7580  171.5360  138.9130 C   0  0  0  0  0  0  0  0  0  0  0  0
  189.6280  172.2380  137.8740 O   0  0  0  0  0  0  0  0  0  0  0  0
  189.8310  169.5070  137.6040 O   0  0  0  0  0  1  0  0  0  0  0  0
  190.1120  170.9960  142.2560 C   0  0  0  0  0  1  0  0  0  0  0  0
  190.7860  171.5880  141.1140 N   0  0  0  0  0  2  0  0  0  0  0  0
  3 13  2  0  0  0  0
  4 14  1  0  0  0  0
  5  4  1  0  0  0  0
  7  2  1  6  0  0  0
  7  5  1  0  0  0  0
  7  9  1  0  0  0  0
  9  6  1  6  0  0  0
  9 10  1  0  0  0  0
 10  4  2  0  0  0  0
 10  3  1  0  0  0  0
 11 31  1  1  0  0  0
 11  2  1  0  0  0  0
 11 12  1  0  0  0  0
 12  8  1  1  0  0  0
 12  6  1  0  0  0  0
 13  1  1  0  0  0  0
 13 21  1  0  0  0  0
 14 15  1  0  0  0  0
 14  1  2  0  0  0  0
 15 17  1  0  0  0  0
 16 18  1  0  0  0  0
 16 15  2  0  0  0  0
 17 19  2  0  0  0  0
 18 20  2  0  0  0  0
 20 19  1  0  0  0  0
 22 21  1  0  0  0  0
 23 22  1  0  0  0  0
 24 23  1  0  0  0  0
 25 24  1  0  0  0  0
 26 27  1  0  0  0  0
 27 29  1  0  0  0  0
 28 25  1  0  0  0  0
 29 30  2  0  0  0  0
 29 28  1  0  0  0  0
 31 33  1  6  0  0  0
 31 37  1  0  0  0  0
 32 33  1  0  0  0  0
 34 33  2  0  0  0  0
 35 32  1  0  0  0  0
 37 36  1  0  0  0  0
M  END
>  <MODEL>
3

>  <REMARK>
 VINA RESULT:      -6.9      1.504      1.959
  Name = 
  10 active torsions:
  status: ('A' for Active; 'I' for Inactive)
    1  A    between atoms: C_3  and  C_34
    2  A    between atoms: C_5  and  C_9
    3  A    between atoms: C_8  and  C_29
    4  A    between atoms: C_8  and  C_30
    5  A    between atoms: C_9  and  C_24
    6  A    between atoms: C_9  and  N_33
    7  A    between atoms: C_12  and  C_28
    8  A    between atoms: C_12  and  C_37
    9  A    between atoms: N_26  and  C_28
   10  A    between atoms: C_30  and  C_37
                            x       y       z     vdW  Elec       q    Type
                         _______ _______ _______ _____ _____    ______ ____

>  <TORSDO>
F 10

$$$$
=
 OpenBabel11042418373D

 37 40  0  0  1  0  0  0  0  0999 V2000
  188.7140  177.0130  146.3820 C   0  0  0  0  0  3  0  0  0  0  0  0
  188.5400  174.3920  140.7390 C   0  0  0  0  0  2  0  0  0  0  0  0
  190.3120  175.6130  145.2090 C   0  0  0  0  0  3  0  0  0  0  0  0
  188.1810  176.1570  144.1850 C   0  0  0  0  0  0  0  0  0  0  0  0
  187.1700  175.8170  142.7370 S   0  0  0  0  0  0  0  0  0  0  0  0
  190.9940  174.7460  142.4680 O   0  0  0  0  0  0  0  0  0  0  0  0
  188.7150  175.3850  141.8770 C   0  0  1  0  0  3  0  0  0  0  0  0
  192.4280  173.7260  140.8000 C   0  0  0  0  0  1  0  0  0  0  0  0
  189.6460  174.7570  142.9020 C   0  0  2  0  0  3  0  0  0  0  0  0
  189.4240  175.5400  144.1370 C   0  0  0  0  0  0  0  0  0  0  0  0
  189.8890  173.7190  140.4050 C   0  0  1  0  0  3  0  0  0  0  0  0
  191.1090  174.4250  141.0810 C   0  0  1  0  0  3  0  0  0  0  0  0
  189.9540  176.3600  146.3360 C   0  0  0  0  0  0  0  0  0  0  0  0
  187.8090  176.9350  145.3060 C   0  0  0  0  0  0  0  0  0  0  0  0
  186.5130  177.6530  145.4090 C   0  0  0  0  0  0  0  0  0  0  0  0
  185.4970  177.2050  146.2640 C   0  0  0  0  0  3  0  0  0  0  0  0
  186.2680  178.7760  144.6040 C   0  0  0  0  0  3  0  0  0  0  0  0
  184.2800  177.8860  146.3150 C   0  0  0  0  0  3  0  0  0  0  0  0
  185.0370  179.4310  144.6820 C   0  0  0  0  0  3  0  0  0  0  0  0
  184.0760  178.9780  145.5310 N   0  0  0  0  0  0  0  0  0  0  0  0
  190.8780  176.4380  147.5010 C   0  0  0  0  0  2  0  0  0  0  0  0
  192.1060  175.5800  147.2490 C   0  0  0  0  0  2  0  0  0  0  0  0
  193.2940  176.4500  146.8670 C   0  0  0  0  0  2  0  0  0  0  0  0
  194.3600  175.6440  146.1400 C   0  0  0  0  0  2  0  0  0  0  0  0
  193.8970  175.2990  144.7340 C   0  0  0  0  0  2  0  0  0  0  0  0
  193.3750  170.3210  144.0700 C   0  0  0  0  0  1  0  0  0  0  0  0
  194.1380  171.5560  144.0110 N   0  0  0  0  0  2  0  0  0  0  0  0
  194.3930  173.9840  144.3540 N   0  0  0  0  0  2  0  0  0  0  0  0
  193.5890  172.8050  144.4320 C   0  0  0  0  0  0  0  0  0  0  0  0
  192.4090  172.8660  144.8730 O   0  0  0  0  0  0  0  0  0  0  0  0
  189.8600  172.1890  140.5900 C   0  0  1  0  0  3  0  0  0  0  0  0
  191.1300  170.4720  139.2420 N   0  0  0  0  0  2  0  0  0  0  0  0
  190.0720  171.4230  139.3190 C   0  0  0  0  0  0  0  0  0  0  0  0
  189.3030  171.5950  138.3350 O   0  0  0  0  0  0  0  0  0  0  0  0
  191.3190  169.7350  138.1230 O   0  0  0  0  0  1  0  0  0  0  0  0
  190.0650  171.2040  142.7040 C   0  0  0  0  0  1  0  0  0  0  0  0
  190.8210  171.7750  141.6030 N   0  0  0  0  0  2  0  0  0  0  0  0
  3 13  2  0  0  0  0
  4 14  1  0  0  0  0
  5  4  1  0  0  0  0
  7  2  1  6  0  0  0
  7  5  1  0  0  0  0
  7  9  1  0  0  0  0
  9  6  1  6  0  0  0
  9 10  1  0  0  0  0
 10  4  2  0  0  0  0
 10  3  1  0  0  0  0
 11 31  1  1  0  0  0
 11  2  1  0  0  0  0
 11 12  1  0  0  0  0
 12  8  1  1  0  0  0
 12  6  1  0  0  0  0
 13  1  1  0  0  0  0
 13 21  1  0  0  0  0
 14 15  1  0  0  0  0
 14  1  2  0  0  0  0
 15 16  1  0  0  0  0
 16 18  2  0  0  0  0
 17 19  1  0  0  0  0
 17 15  2  0  0  0  0
 19 20  2  0  0  0  0
 20 18  1  0  0  0  0
 22 21  1  0  0  0  0
 23 22  1  0  0  0  0
 24 23  1  0  0  0  0
 25 24  1  0  0  0  0
 27 26  1  0  0  0  0
 27 29  1  0  0  0  0
 28 29  1  0  0  0  0
 28 25  1  0  0  0  0
 29 30  2  0  0  0  0
 31 33  1  6  0  0  0
 31 37  1  0  0  0  0
 32 33  1  0  0  0  0
 34 33  2  0  0  0  0
 35 32  1  0  0  0  0
 37 36  1  0  0  0  0
M  END
>  <MODEL>
4

>  <REMARK>
 VINA RESULT:      -6.8      1.648      2.599
  Name = 
  10 active torsions:
  status: ('A' for Active; 'I' for Inactive)
    1  A    between atoms: C_3  and  C_34
    2  A    between atoms: C_5  and  C_9
    3  A    between atoms: C_8  and  C_29
    4  A    between atoms: C_8  and  C_30
    5  A    between atoms: C_9  and  C_24
    6  A    between atoms: C_9  and  N_33
    7  A    between atoms: C_12  and  C_28
    8  A    between atoms: C_12  and  C_37
    9  A    between atoms: N_26  and  C_28
   10  A    between atoms: C_30  and  C_37
                            x       y       z     vdW  Elec       q    Type
                         _______ _______ _______ _____ _____    ______ ____

>  <TORSDO>
F 10

$$$$
=
 OpenBabel11042418373D

 37 40  0  0  1  0  0  0  0  0999 V2000
  192.4830  174.4990  141.5830 C   0  0  0  0  0  3  0  0  0  0  0  0
  186.5180  175.7290  142.8690 C   0  0  0  0  0  2  0  0  0  0  0  0
  191.4590  176.1520  143.0340 C   0  0  0  0  0  3  0  0  0  0  0  0
  190.0740  174.6510  141.7240 C   0  0  0  0  0  0  0  0  0  0  0  0
  188.3610  174.2970  141.3030 S   0  0  0  0  0  0  0  0  0  0  0  0
  188.9170  176.6750  144.4460 O   0  0  0  0  0  0  0  0  0  0  0  0
  187.9090  175.1140  142.8650 C   0  0  1  0  0  3  0  0  0  0  0  0
  187.5160  177.8270  146.0560 C   0  0  0  0  0  1  0  0  0  0  0  0
  188.9110  176.2330  143.1020 C   0  0  2  0  0  3  0  0  0  0  0  0
  190.2050  175.6750  142.6520 C   0  0  0  0  0  0  0  0  0  0  0  0
  186.4050  176.7890  143.9860 C   0  0  1  0  0  3  0  0  0  0  0  0
  187.5990  176.7450  144.9940 C   0  0  1  0  0  3  0  0  0  0  0  0
  192.6030  175.5540  142.4980 C   0  0  0  0  0  0  0  0  0  0  0  0
  191.2200  174.0190  141.1860 C   0  0  0  0  0  0  0  0  0  0  0  0
  191.1550  172.8940  140.2190 C   0  0  0  0  0  0  0  0  0  0  0  0
  191.1530  173.1210  138.8360 C   0  0  0  0  0  3  0  0  0  0  0  0
  191.0420  171.5750  140.6840 C   0  0  0  0  0  3  0  0  0  0  0  0
  191.0600  172.0430  137.9550 C   0  0  0  0  0  3  0  0  0  0  0  0
  190.9510  170.5230  139.7710 C   0  0  0  0  0  3  0  0  0  0  0  0
  190.9640  170.7750  138.4350 N   0  0  0  0  0  0  0  0  0  0  0  0
  193.9520  176.0590  142.8770 C   0  0  0  0  0  2  0  0  0  0  0  0
  194.7500  174.9540  143.5490 C   0  0  0  0  0  2  0  0  0  0  0  0
  194.3030  174.7780  144.9930 C   0  0  0  0  0  2  0  0  0  0  0  0
  194.6780  175.9850  145.8400 C   0  0  0  0  0  2  0  0  0  0  0  0
  193.4540  176.5280  146.5600 C   0  0  0  0  0  2  0  0  0  0  0  0
  188.9400  174.5410  147.6370 C   0  0  0  0  0  1  0  0  0  0  0  0
  190.0770  174.7570  146.7580 N   0  0  0  0  0  2  0  0  0  0  0  0
  192.2890  175.7160  146.2440 N   0  0  0  0  0  2  0  0  0  0  0  0
  191.1990  175.5450  147.1530 C   0  0  0  0  0  0  0  0  0  0  0  0
  191.2320  176.0800  148.2960 O   0  0  0  0  0  0  0  0  0  0  0  0
  186.0820  178.1970  143.4480 C   0  0  1  0  0  3  0  0  0  0  0  0
  184.5190  178.2400  141.4650 N   0  0  0  0  0  2  0  0  0  0  0  0
  185.8530  178.2390  141.9680 C   0  0  0  0  0  0  0  0  0  0  0  0
  186.8290  178.3020  141.1720 O   0  0  0  0  0  0  0  0  0  0  0  0
  184.2800  178.3200  140.1350 O   0  0  0  0  0  1  0  0  0  0  0  0
  185.2670  180.1640  144.4200 C   0  0  0  0  0  1  0  0  0  0  0  0
  184.9480  178.7710  144.1580 N   0  0  0  0  0  2  0  0  0  0  0  0
  1 13  1  0  0  0  0
  2 11  1  0  0  0  0
  4 10  2  0  0  0  0
  5  4  1  0  0  0  0
  5  7  1  0  0  0  0
  6 12  1  0  0  0  0
  7  2  1  6  0  0  0
  7  9  1  0  0  0  0
  9 10  1  1  0  0  0
  9  6  1  0  0  0  0
 10  3  1  0  0  0  0
 11 31  1  6  0  0  0
 11 12  1  0  0  0  0
 12  8  1  6  0  0  0
 13 21  1  0  0  0  0
 13  3  2  0  0  0  0
 14  1  2  0  0  0  0
 14  4  1  0  0  0  0
 15 17  1  0  0  0  0
 15 14  1  0  0  0  0
 16 15  2  0  0  0  0
 18 20  2  0  0  0  0
 18 16  1  0  0  0  0
 19 17  2  0  0  0  0
 20 19  1  0  0  0  0
 21 22  1  0  0  0  0
 22 23  1  0  0  0  0
 23 24  1  0  0  0  0
 24 25  1  0  0  0  0
 27 29  1  0  0  0  0
 27 26  1  0  0  0  0
 28 25  1  0  0  0  0
 28 29  1  0  0  0  0
 29 30  2  0  0  0  0
 31 33  1  6  0  0  0
 31 37  1  0  0  0  0
 32 33  1  0  0  0  0
 34 33  2  0  0  0  0
 35 32  1  0  0  0  0
 37 36  1  0  0  0  0
M  END
>  <MODEL>
5

>  <REMARK>
 VINA RESULT:      -6.8      2.707      7.206
  Name = 
  10 active torsions:
  status: ('A' for Active; 'I' for Inactive)
    1  A    between atoms: C_3  and  C_34
    2  A    between atoms: C_5  and  C_9
    3  A    between atoms: C_8  and  C_29
    4  A    between atoms: C_8  and  C_30
    5  A    between atoms: C_9  and  C_24
    6  A    between atoms: C_9  and  N_33
    7  A    between atoms: C_12  and  C_28
    8  A    between atoms: C_12  and  C_37
    9  A    between atoms: N_26  and  C_28
   10  A    between atoms: C_30  and  C_37
                            x       y       z     vdW  Elec       q    Type
                         _______ _______ _______ _____ _____    ______ ____

>  <TORSDO>
F 10

$$$$
=
 OpenBabel11042418373D

 37 40  0  0  1  0  0  0  0  0999 V2000
  192.8390  174.0140  141.2900 C   0  0  0  0  0  3  0  0  0  0  0  0
  189.2880  178.0670  144.4060 C   0  0  0  0  0  2  0  0  0  0  0  0
  190.4390  174.1230  141.6250 C   0  0  0  0  0  3  0  0  0  0  0  0
  191.8920  175.7710  142.6540 C   0  0  0  0  0  0  0  0  0  0  0  0
  191.8780  177.1780  143.7740 S   0  0  0  0  0  0  0  0  0  0  0  0
  188.3300  176.0570  142.3610 O   0  0  0  0  0  0  0  0  0  0  0  0
  190.1260  177.3930  143.3310 C   0  0  1  0  0  3  0  0  0  0  0  0
  186.0310  176.7940  142.5810 C   0  0  0  0  0  1  0  0  0  0  0  0
  189.5440  176.0100  143.0870 C   0  0  2  0  0  3  0  0  0  0  0  0
  190.6230  175.2680  142.3980 C   0  0  0  0  0  0  0  0  0  0  0  0
  187.7890  177.7710  144.1780 C   0  0  1  0  0  3  0  0  0  0  0  0
  187.4960  177.1390  142.7790 C   0  0  1  0  0  3  0  0  0  0  0  0
  191.5560  173.4970  141.0630 C   0  0  0  0  0  0  0  0  0  0  0  0
  193.0330  175.1650  142.0780 C   0  0  0  0  0  0  0  0  0  0  0  0
  194.4150  175.6700  142.2770 C   0  0  0  0  0  0  0  0  0  0  0  0
  195.0940  176.3560  141.2610 C   0  0  0  0  0  3  0  0  0  0  0  0
  195.0860  175.4200  143.4830 C   0  0  0  0  0  3  0  0  0  0  0  0
  196.4040  176.7910  141.4710 C   0  0  0  0  0  3  0  0  0  0  0  0
  196.3960  175.8700  143.6560 C   0  0  0  0  0  3  0  0  0  0  0  0
  197.0240  176.5430  142.6550 N   0  0  0  0  0  0  0  0  0  0  0  0
  191.3870  172.2620  140.2490 C   0  0  0  0  0  2  0  0  0  0  0  0
  190.1380  171.5170  140.6890 C   0  0  0  0  0  2  0  0  0  0  0  0
  190.4580  170.5720  141.8380 C   0  0  0  0  0  2  0  0  0  0  0  0
  191.9180  170.1450  141.8140 C   0  0  0  0  0  2  0  0  0  0  0  0
  192.5350  170.2850  143.1960 C   0  0  0  0  0  2  0  0  0  0  0  0
  192.7470  174.4490  146.0450 C   0  0  0  0  0  1  0  0  0  0  0  0
  192.0260  173.4460  145.2780 N   0  0  0  0  0  2  0  0  0  0  0  0
  191.9270  171.4030  143.9020 N   0  0  0  0  0  2  0  0  0  0  0  0
  192.6940  172.3590  144.6380 C   0  0  0  0  0  0  0  0  0  0  0  0
  193.9460  172.2400  144.7250 O   0  0  0  0  0  0  0  0  0  0  0  0
  187.1380  177.0240  145.3600 C   0  0  1  0  0  3  0  0  0  0  0  0
  188.5900  175.2910  146.4850 N   0  0  0  0  0  2  0  0  0  0  0  0
  188.1080  176.6310  146.4330 C   0  0  0  0  0  0  0  0  0  0  0  0
  188.5190  177.4840  147.2660 O   0  0  0  0  0  0  0  0  0  0  0  0
  189.4980  174.9170  147.4150 O   0  0  0  0  0  1  0  0  0  0  0  0
  185.1070  176.8630  146.5130 C   0  0  0  0  0  1  0  0  0  0  0  0
  186.0430  177.8030  145.9190 N   0  0  0  0  0  2  0  0  0  0  0  0
  1 14  1  0  0  0  0
  3 10  2  0  0  0  0
  4  5  1  0  0  0  0
  6 12  1  0  0  0  0
  7  5  1  0  0  0  0
  7  2  1  1  0  0  0
  9  6  1  6  0  0  0
  9  7  1  0  0  0  0
 10  4  1  0  0  0  0
 10  9  1  0  0  0  0
 11  2  1  0  0  0  0
 11 31  1  1  0  0  0
 12  8  1  1  0  0  0
 12 11  1  0  0  0  0
 13  1  2  0  0  0  0
 13  3  1  0  0  0  0
 14 15  1  0  0  0  0
 14  4  2  0  0  0  0
 15 17  1  0  0  0  0
 16 18  1  0  0  0  0
 16 15  2  0  0  0  0
 17 19  2  0  0  0  0
 18 20  2  0  0  0  0
 20 19  1  0  0  0  0
 21 22  1  0  0  0  0
 21 13  1  0  0  0  0
 22 23  1  0  0  0  0
 24 23  1  0  0  0  0
 24 25  1  0  0  0  0
 25 28  1  0  0  0  0
 27 26  1  0  0  0  0
 28 29  1  0  0  0  0
 29 30  2  0  0  0  0
 29 27  1  0  0  0  0
 31 37  1  1  0  0  0
 31 33  1  0  0  0  0
 32 35  1  0  0  0  0
 33 32  1  0  0  0  0
 33 34  2  0  0  0  0
 37 36  1  0  0  0  0
M  END
>  <MODEL>
6

>  <REMARK>
 VINA RESULT:      -6.8      2.504      7.303
  Name = 
  10 active torsions:
  status: ('A' for Active; 'I' for Inactive)
    1  A    between atoms: C_3  and  C_34
    2  A    between atoms: C_5  and  C_9
    3  A    between atoms: C_8  and  C_29
    4  A    between atoms: C_8  and  C_30
    5  A    between atoms: C_9  and  C_24
    6  A    between atoms: C_9  and  N_33
    7  A    between atoms: C_12  and  C_28
    8  A    between atoms: C_12  and  C_37
    9  A    between atoms: N_26  and  C_28
   10  A    between atoms: C_30  and  C_37
                            x       y       z     vdW  Elec       q    Type
                         _______ _______ _______ _____ _____    ______ ____

>  <TORSDO>
F 10

$$$$
=
 OpenBabel11042418373D

 37 40  0  0  1  0  0  0  0  0999 V2000
  192.6920  174.4470  141.2740 C   0  0  0  0  0  3  0  0  0  0  0  0
  186.7650  175.5800  142.7980 C   0  0  0  0  0  2  0  0  0  0  0  0
  191.7050  176.0370  142.8160 C   0  0  0  0  0  3  0  0  0  0  0  0
  190.2890  174.5730  141.4980 C   0  0  0  0  0  0  0  0  0  0  0  0
  188.5660  174.2210  141.1220 S   0  0  0  0  0  0  0  0  0  0  0  0
  189.2080  176.4880  144.3290 O   0  0  0  0  0  0  0  0  0  0  0  0
  188.1590  174.9770  142.7260 C   0  0  1  0  0  3  0  0  0  0  0  0
  187.8530  177.5700  146.0250 C   0  0  0  0  0  1  0  0  0  0  0  0
  189.1610  176.0950  142.9710 C   0  0  2  0  0  3  0  0  0  0  0  0
  190.4440  175.5640  142.4590 C   0  0  0  0  0  0  0  0  0  0  0  0
  186.6820  176.5980  143.9560 C   0  0  1  0  0  3  0  0  0  0  0  0
  187.9090  176.5270  144.9220 C   0  0  1  0  0  3  0  0  0  0  0  0
  192.8360  175.4690  142.2220 C   0  0  0  0  0  0  0  0  0  0  0  0
  191.4200  173.9710  140.9010 C   0  0  0  0  0  0  0  0  0  0  0  0
  191.3310  172.8810  139.8960 C   0  0  0  0  0  0  0  0  0  0  0  0
  191.2910  173.1580  138.5230 C   0  0  0  0  0  3  0  0  0  0  0  0
  191.2340  171.5460  140.3160 C   0  0  0  0  0  3  0  0  0  0  0  0
  191.1770  172.1110  137.6060 C   0  0  0  0  0  3  0  0  0  0  0  0
  191.1210  170.5270  139.3690 C   0  0  0  0  0  3  0  0  0  0  0  0
  191.0960  170.8270  138.0430 N   0  0  0  0  0  0  0  0  0  0  0  0
  194.1930  175.9700  142.5740 C   0  0  0  0  0  2  0  0  0  0  0  0
  194.2210  176.4190  144.0250 C   0  0  0  0  0  2  0  0  0  0  0  0
  195.2880  175.6570  144.7970 C   0  0  0  0  0  2  0  0  0  0  0  0
  194.6780  174.8300  145.9190 C   0  0  0  0  0  2  0  0  0  0  0  0
  194.1170  173.5280  145.3730 C   0  0  0  0  0  2  0  0  0  0  0  0
  189.5630  171.9150  143.9060 C   0  0  0  0  0  1  0  0  0  0  0  0
  190.4360  172.7680  144.6940 N   0  0  0  0  0  2  0  0  0  0  0  0
  192.6620  173.5630  145.3940 N   0  0  0  0  0  2  0  0  0  0  0  0
  191.8580  172.6930  144.5940 C   0  0  0  0  0  0  0  0  0  0  0  0
  192.3990  171.8710  143.8050 O   0  0  0  0  0  0  0  0  0  0  0  0
  186.3310  178.0220  143.4810 C   0  0  1  0  0  3  0  0  0  0  0  0
  184.8090  178.0960  141.4670 N   0  0  0  0  0  2  0  0  0  0  0  0
  186.1300  178.1310  142.0000 C   0  0  0  0  0  0  0  0  0  0  0  0
  187.1180  178.2810  141.2310 O   0  0  0  0  0  0  0  0  0  0  0  0
  184.5930  178.2340  140.1380 O   0  0  0  0  0  1  0  0  0  0  0  0
  185.3640  179.9590  144.3700 C   0  0  0  0  0  1  0  0  0  0  0  0
  185.1680  178.5310  144.1940 N   0  0  0  0  0  2  0  0  0  0  0  0
  1 13  1  0  0  0  0
  2 11  1  0  0  0  0
  4 10  2  0  0  0  0
  5  4  1  0  0  0  0
  5  7  1  0  0  0  0
  6 12  1  0  0  0  0
  7  2  1  6  0  0  0
  7  9  1  0  0  0  0
  9 10  1  1  0  0  0
  9  6  1  0  0  0  0
 10  3  1  0  0  0  0
 11 31  1  6  0  0  0
 11 12  1  0  0  0  0
 12  8  1  1  0  0  0
 13 21  1  0  0  0  0
 13  3  2  0  0  0  0
 14  1  2  0  0  0  0
 14  4  1  0  0  0  0
 15 17  1  0  0  0  0
 15 14  1  0  0  0  0
 16 15  2  0  0  0  0
 18 20  2  0  0  0  0
 18 16  1  0  0  0  0
 19 17  2  0  0  0  0
 20 19  1  0  0  0  0
 21 22  1  0  0  0  0
 22 23  1  0  0  0  0
 23 24  1  0  0  0  0
 25 28  1  0  0  0  0
 25 24  1  0  0  0  0
 26 27  1  0  0  0  0
 29 27  1  0  0  0  0
 29 28  1  0  0  0  0
 30 29  2  0  0  0  0
 31 33  1  6  0  0  0
 31 37  1  0  0  0  0
 32 33  1  0  0  0  0
 34 33  2  0  0  0  0
 35 32  1  0  0  0  0
 37 36  1  0  0  0  0
M  END
>  <MODEL>
7

>  <REMARK>
 VINA RESULT:      -6.7      2.467      7.054
  Name = 
  10 active torsions:
  status: ('A' for Active; 'I' for Inactive)
    1  A    between atoms: C_3  and  C_34
    2  A    between atoms: C_5  and  C_9
    3  A    between atoms: C_8  and  C_29
    4  A    between atoms: C_8  and  C_30
    5  A    between atoms: C_9  and  C_24
    6  A    between atoms: C_9  and  N_33
    7  A    between atoms: C_12  and  C_28
    8  A    between atoms: C_12  and  C_37
    9  A    between atoms: N_26  and  C_28
   10  A    between atoms: C_30  and  C_37
                            x       y       z     vdW  Elec       q    Type
                         _______ _______ _______ _____ _____    ______ ____

>  <TORSDO>
F 10

$$$$
=
 OpenBabel11042418373D

 37 40  0  0  1  0  0  0  0  0999 V2000
  187.7610  175.7880  142.6980 C   0  0  0  0  0  3  0  0  0  0  0  0
  192.6190  174.9330  146.4940 C   0  0  0  0  0  2  0  0  0  0  0  0
  189.8120  174.5220  142.4240 C   0  0  0  0  0  3  0  0  0  0  0  0
  189.4240  175.7950  144.4530 C   0  0  0  0  0  0  0  0  0  0  0  0
  190.2050  176.2830  145.9970 S   0  0  0  0  0  0  0  0  0  0  0  0
  191.9620  173.2970  144.0380 O   0  0  0  0  0  0  0  0  0  0  0  0
  191.2630  174.8130  145.8170 C   0  0  1  0  0  3  0  0  0  0  0  0
  193.8840  171.8570  144.3720 C   0  0  0  0  0  1  0  0  0  0  0  0
  191.5030  174.6040  144.3300 C   0  0  2  0  0  3  0  0  0  0  0  0
  190.2100  174.9380  143.6930 C   0  0  0  0  0  0  0  0  0  0  0  0
  193.6060  173.9040  145.8990 C   0  0  1  0  0  3  0  0  0  0  0  0
  192.9050  172.8310  145.0040 C   0  0  1  0  0  3  0  0  0  0  0  0
  188.5760  174.9480  141.9270 C   0  0  0  0  0  0  0  0  0  0  0  0
  188.1610  176.2190  143.9780 C   0  0  0  0  0  0  0  0  0  0  0  0
  187.2520  177.1030  144.7500 C   0  0  0  0  0  0  0  0  0  0  0  0
  186.7660  178.3010  144.2090 C   0  0  0  0  0  3  0  0  0  0  0  0
  186.9040  176.7710  146.0680 C   0  0  0  0  0  3  0  0  0  0  0  0
  185.9380  179.1240  144.9740 C   0  0  0  0  0  3  0  0  0  0  0  0
  186.0730  177.6190  146.8020 C   0  0  0  0  0  3  0  0  0  0  0  0
  185.6080  178.7690  146.2440 N   0  0  0  0  0  0  0  0  0  0  0  0
  188.1380  174.5330  140.5660 C   0  0  0  0  0  2  0  0  0  0  0  0
  188.6100  173.1170  140.2780 C   0  0  0  0  0  2  0  0  0  0  0  0
  188.1950  172.6930  138.8760 C   0  0  0  0  0  2  0  0  0  0  0  0
  188.4400  173.8040  137.8660 C   0  0  0  0  0  2  0  0  0  0  0  0
  189.5270  173.3970  136.8840 C   0  0  0  0  0  2  0  0  0  0  0  0
  194.1260  173.9970  138.8800 C   0  0  0  0  0  1  0  0  0  0  0  0
  192.9920  174.4540  138.0950 N   0  0  0  0  0  2  0  0  0  0  0  0
  190.7390  174.1620  137.1370 N   0  0  0  0  0  2  0  0  0  0  0  0
  191.8230  173.6540  137.9180 C   0  0  0  0  0  0  0  0  0  0  0  0
  191.7450  172.5130  138.4500 O   0  0  0  0  0  0  0  0  0  0  0  0
  194.8400  174.5620  145.2490 C   0  0  1  0  0  3  0  0  0  0  0  0
  194.9380  176.9710  146.0000 N   0  0  0  0  0  2  0  0  0  0  0  0
  194.6670  176.0240  144.9700 C   0  0  0  0  0  0  0  0  0  0  0  0
  194.3130  176.4190  143.8260 O   0  0  0  0  0  0  0  0  0  0  0  0
  194.8320  178.3000  145.7660 O   0  0  0  0  0  1  0  0  0  0  0  0
  197.1290  174.0840  145.1380 C   0  0  0  0  0  1  0  0  0  0  0  0
  196.0300  174.3320  146.0560 N   0  0  0  0  0  2  0  0  0  0  0  0
  1 14  1  0  0  0  0
  3 10  2  0  0  0  0
  4  5  1  0  0  0  0
  6  9  1  0  0  0  0
  6 12  1  0  0  0  0
  7  5  1  0  0  0  0
  7  2  1  1  0  0  0
  9 10  1  6  0  0  0
  9  7  1  0  0  0  0
 10  4  1  0  0  0  0
 11 31  1  6  0  0  0
 11  2  1  0  0  0  0
 12  8  1  6  0  0  0
 12 11  1  0  0  0  0
 13  3  1  0  0  0  0
 13  1  2  0  0  0  0
 14  4  2  0  0  0  0
 14 15  1  0  0  0  0
 15 17  1  0  0  0  0
 16 15  2  0  0  0  0
 16 18  1  0  0  0  0
 17 19  2  0  0  0  0
 18 20  2  0  0  0  0
 20 19  1  0  0  0  0
 21 13  1  0  0  0  0
 22 21  1  0  0  0  0
 23 22  1  0  0  0  0
 24 23  1  0  0  0  0
 25 28  1  0  0  0  0
 25 24  1  0  0  0  0
 27 26  1  0  0  0  0
 28 29  1  0  0  0  0
 29 27  1  0  0  0  0
 29 30  2  0  0  0  0
 31 33  1  1  0  0  0
 31 37  1  0  0  0  0
 33 32  1  0  0  0  0
 34 33  2  0  0  0  0
 35 32  1  0  0  0  0
 36 37  1  0  0  0  0
M  END
>  <MODEL>
8

>  <REMARK>
 VINA RESULT:      -6.5      2.485      5.981
  Name = 
  10 active torsions:
  status: ('A' for Active; 'I' for Inactive)
    1  A    between atoms: C_3  and  C_34
    2  A    between atoms: C_5  and  C_9
    3  A    between atoms: C_8  and  C_29
    4  A    between atoms: C_8  and  C_30
    5  A    between atoms: C_9  and  C_24
    6  A    between atoms: C_9  and  N_33
    7  A    between atoms: C_12  and  C_28
    8  A    between atoms: C_12  and  C_37
    9  A    between atoms: N_26  and  C_28
   10  A    between atoms: C_30  and  C_37
                            x       y       z     vdW  Elec       q    Type
                         _______ _______ _______ _____ _____    ______ ____

>  <TORSDO>
F 10

$$$$
=
 OpenBabel11042418373D

 37 40  0  0  1  0  0  0  0  0999 V2000
  185.8300  177.7670  142.8980 C   0  0  0  0  0  3  0  0  0  0  0  0
  191.0380  174.4230  143.5590 C   0  0  0  0  0  2  0  0  0  0  0  0
  187.2480  176.6610  141.2700 C   0  0  0  0  0  3  0  0  0  0  0  0
  187.8260  176.6140  143.6250 C   0  0  0  0  0  0  0  0  0  0  0  0
  189.1050  176.0680  144.7660 S   0  0  0  0  0  0  0  0  0  0  0  0
  189.2780  174.5220  141.1020 O   0  0  0  0  0  0  0  0  0  0  0  0
  189.5790  174.8480  143.5010 C   0  0  1  0  0  3  0  0  0  0  0  0
  190.6900  172.9460  139.9170 C   0  0  0  0  0  1  0  0  0  0  0  0
  189.3330  175.4810  142.1410 C   0  0  2  0  0  3  0  0  0  0  0  0
  188.0800  176.2500  142.3090 C   0  0  0  0  0  0  0  0  0  0  0  0
  191.4680  173.8050  142.2100 C   0  0  1  0  0  3  0  0  0  0  0  0
  190.2600  173.4970  141.2650 C   0  0  1  0  0  3  0  0  0  0  0  0
  186.1120  177.4200  141.5700 C   0  0  0  0  0  0  0  0  0  0  0  0
  186.6720  177.3630  143.9520 C   0  0  0  0  0  0  0  0  0  0  0  0
  186.3170  177.7550  145.3400 C   0  0  0  0  0  0  0  0  0  0  0  0
  186.3190  176.8200  146.3840 C   0  0  0  0  0  3  0  0  0  0  0  0
  185.9220  179.0720  145.6170 C   0  0  0  0  0  3  0  0  0  0  0  0
  185.9510  177.2160  147.6720 C   0  0  0  0  0  3  0  0  0  0  0  0
  185.5600  179.4300  146.9170 C   0  0  0  0  0  3  0  0  0  0  0  0
  185.5830  178.5020  147.9120 N   0  0  0  0  0  0  0  0  0  0  0  0
  185.2180  177.8870  140.4740 C   0  0  0  0  0  2  0  0  0  0  0  0
  184.0510  178.6680  141.0530 C   0  0  0  0  0  2  0  0  0  0  0  0
  182.7300  178.0740  140.5870 C   0  0  0  0  0  2  0  0  0  0  0  0
  181.6320  178.2870  141.6190 C   0  0  0  0  0  2  0  0  0  0  0  0
  180.3240  178.6510  140.9350 C   0  0  0  0  0  2  0  0  0  0  0  0
  178.3670  182.6810  138.6070 C   0  0  0  0  0  1  0  0  0  0  0  0
  179.3910  182.0210  139.3990 N   0  0  0  0  0  2  0  0  0  0  0  0
  180.3510  180.0450  140.5180 N   0  0  0  0  0  2  0  0  0  0  0  0
  179.3070  180.6380  139.7410 C   0  0  0  0  0  0  0  0  0  0  0  0
  178.3260  179.9440  139.3570 O   0  0  0  0  0  0  0  0  0  0  0  0
  192.6190  174.5770  141.5350 C   0  0  1  0  0  3  0  0  0  0  0  0
  194.2990  175.0880  143.3500 N   0  0  0  0  0  2  0  0  0  0  0  0
  193.3040  175.5540  142.4420 C   0  0  0  0  0  0  0  0  0  0  0  0
  193.0250  176.7820  142.3860 O   0  0  0  0  0  0  0  0  0  0  0  0
  194.9650  175.9510  144.1520 O   0  0  0  0  0  1  0  0  0  0  0  0
  194.1110  174.2880  139.7540 C   0  0  0  0  0  1  0  0  0  0  0  0
  193.5840  173.6560  140.9520 N   0  0  0  0  0  2  0  0  0  0  0  0
  1 14  1  0  0  0  0
  3 13  1  0  0  0  0
  3 10  2  0  0  0  0
  4 14  2  0  0  0  0
  4  5  1  0  0  0  0
  6 12  1  0  0  0  0
  7  2  1  6  0  0  0
  7  5  1  0  0  0  0
  9  6  1  6  0  0  0
  9 10  1  0  0  0  0
  9  7  1  0  0  0  0
 10  4  1  0  0  0  0
 11 31  1  6  0  0  0
 11  2  1  0  0  0  0
 12  8  1  6  0  0  0
 12 11  1  0  0  0  0
 13  1  2  0  0  0  0
 14 15  1  0  0  0  0
 15 17  2  0  0  0  0
 15 16  1  0  0  0  0
 16 18  2  0  0  0  0
 17 19  1  0  0  0  0
 18 20  1  0  0  0  0
 19 20  2  0  0  0  0
 21 22  1  0  0  0  0
 21 13  1  0  0  0  0
 23 22  1  0  0  0  0
 23 24  1  0  0  0  0
 25 24  1  0  0  0  0
 26 27  1  0  0  0  0
 27 29  1  0  0  0  0
 28 25  1  0  0  0  0
 29 28  1  0  0  0  0
 30 29  2  0  0  0  0
 31 37  1  1  0  0  0
 31 33  1  0  0  0  0
 32 35  1  0  0  0  0
 33 32  1  0  0  0  0
 34 33  2  0  0  0  0
 36 37  1  0  0  0  0
M  END
>  <MODEL>
9

>  <REMARK>
 VINA RESULT:      -6.5      4.239      8.533
  Name = 
  10 active torsions:
  status: ('A' for Active; 'I' for Inactive)
    1  A    between atoms: C_3  and  C_34
    2  A    between atoms: C_5  and  C_9
    3  A    between atoms: C_8  and  C_29
    4  A    between atoms: C_8  and  C_30
    5  A    between atoms: C_9  and  C_24
    6  A    between atoms: C_9  and  N_33
    7  A    between atoms: C_12  and  C_28
    8  A    between atoms: C_12  and  C_37
    9  A    between atoms: N_26  and  C_28
   10  A    between atoms: C_30  and  C_37
                            x       y       z     vdW  Elec       q    Type
                         _______ _______ _______ _____ _____    ______ ____

>  <TORSDO>
F 10

$$$$
