=
 OpenBabel11042415523D

 50 54  0  0  1  0  0  0  0  0999 V2000
  187.8250  175.7730  141.7760 C   0  0  0  0  0  0  0  0  0  0  0  0
  187.8000  175.4070  139.6020 N   0  0  0  0  0  0  0  0  0  0  0  0
  187.3300  176.2140  140.5680 C   0  0  0  0  0  0  0  0  0  0  0  0
  188.5610  174.5150  140.2200 N   0  0  0  0  0  0  0  0  0  0  0  0
  188.5900  174.6940  141.5380 N   0  0  0  0  0  0  0  0  0  0  0  0
  185.7480  178.2310  140.1650 N   0  0  0  0  0  0  0  0  0  0  0  0
  186.4540  177.3320  140.3430 C   0  0  0  0  0  0  0  0  0  0  0  0
  189.2000  173.4020  139.5240 C   0  0  1  0  0  3  0  0  0  0  0  0
  189.1120  173.1520  137.0360 C   0  0  0  0  0  1  0  0  0  0  0  0
  189.8180  173.8280  138.1950 C   0  0  0  0  0  2  0  0  0  0  0  0
  190.1930  172.6840  140.4370 C   0  0  0  0  0  2  0  0  0  0  0  0
  191.5570  172.4920  139.7920 C   0  0  0  0  0  2  0  0  0  0  0  0
  194.5860  174.9130  140.0930 N   0  0  0  0  0  0  0  0  0  0  0  0
  193.4520  174.1260  139.9970 C   0  0  0  0  0  0  0  0  0  0  0  0
  193.7840  174.9350  138.9750 N   0  0  0  0  0  0  0  0  0  0  0  0
  192.5620  173.1820  140.5840 N   0  0  0  0  0  2  0  0  0  0  0  0
  195.7160  175.3480  140.7970 N   0  0  0  0  0  2  0  0  0  0  0  0
  195.2680  176.3170  141.7880 C   0  0  0  0  0  2  0  0  0  0  0  0
  195.9450  174.5670  145.9890 N   0  0  0  0  0  2  0  0  0  0  0  0
  197.2250  175.2120  142.8720 C   0  0  0  0  0  2  0  0  0  0  0  0
  197.2620  174.8190  144.2570 N   0  0  2  0  0  0  0  0  0  0  0  0
  197.6050  173.4850  144.6610 C   0  0  0  0  0  2  0  0  0  0  0  0
  196.2720  176.4150  142.9280 C   0  0  2  0  0  3  0  0  0  0  0  0
  195.5750  176.2420  144.2890 C   0  0  0  0  0  2  0  0  0  0  0  0
  195.9310  174.8840  144.6290 N   0  0  2  0  0  0  0  0  0  0  0  0
  196.8680  173.4210  146.0050 C   0  0  0  0  0  2  0  0  0  0  0  0
  187.5550  176.3300  143.1300 C   0  0  0  0  0  2  0  0  0  0  0  0
  186.1590  176.1320  143.4770 N   0  0  0  0  0  2  0  0  0  0  0  0
  185.7140  177.3610  144.1180 C   0  0  0  0  0  2  0  0  0  0  0  0
  185.5150  177.1630  145.6200 C   0  0  1  0  0  3  0  0  0  0  0  0
  186.6670  177.7290  146.4340 C   0  0  1  0  0  3  0  0  0  0  0  0
  186.0390  178.2470  147.7050 C   0  0  0  0  0  2  0  0  0  0  0  0
  184.6480  178.6890  147.3090 C   0  0  0  0  0  2  0  0  0  0  0  0
  184.2450  177.8390  146.1180 C   0  0  0  0  0  2  0  0  0  0  0  0
  187.6950  176.6560  146.7560 C   0  0  0  0  0  2  0  0  0  0  0  0
  189.0280  177.2280  146.7030 N   0  0  0  0  0  2  0  0  0  0  0  0
  189.9720  176.1220  146.6260 C   0  0  0  0  0  2  0  0  0  0  0  0
  191.3720  176.6240  146.2640 C   0  0  1  0  0  3  0  0  0  0  0  0
  192.2850  176.2100  147.2340 O   0  0  0  0  0  0  0  0  0  0  0  0
  191.5560  175.3650  148.0710 C   0  0  0  0  0  1  0  0  0  0  0  0
  191.8520  176.1850  144.8670 C   0  0  2  0  0  3  0  0  0  0  0  0
  192.0290  177.3740  143.9350 C   0  0  0  0  0  2  0  0  0  0  0  0
  190.7070  178.0840  143.7250 C   0  0  0  0  0  1  0  0  0  0  0  0
  190.9370  175.1520  144.2190 C   0  0  0  0  0  2  0  0  0  0  0  0
  191.0470  173.8800  144.9140 N   0  0  0  0  0  2  0  0  0  0  0  0
  189.6210  172.0790  144.1330 C   0  0  0  0  0  1  0  0  0  0  0  0
  190.9190  172.8300  143.9160 C   0  0  2  0  0  3  0  0  0  0  0  0
  193.1850  172.2250  144.7740 O   0  0  0  0  0  1  0  0  0  0  0  0
  192.0760  171.8870  144.0050 C   0  0  0  0  0  0  0  0  0  0  0  0
  192.0710  170.8050  143.3590 O   0  0  0  0  0  0  0  0  0  0  0  0
  1 27  1  0  0  0  0
  2  4  1  0  0  0  0
  2  3  2  0  0  0  0
  3  1  1  0  0  0  0
  4  5  1  0  0  0  0
  5  1  2  0  0  0  0
  6  7  3  0  0  0  0
  7  3  1  0  0  0  0
  8 10  1  6  0  0  0
  8  4  1  0  0  0  0
  8 11  1  0  0  0  0
  9 10  1  0  0  0  0
 12 11  1  0  0  0  0
 12 16  1  0  0  0  0
 13 17  1  0  0  0  0
 14 13  1  0  0  0  0
 14 16  1  0  0  0  0
 15 14  2  0  0  0  0
 15 13  1  0  0  0  0
 17 18  1  0  0  0  0
 19 26  1  0  0  0  0
 20 23  1  0  0  0  0
 21 20  1  6  0  0  0
 21 25  1  0  0  0  0
 21 22  1  0  0  0  0
 22 26  1  0  0  0  0
 23 18  1  6  0  0  0
 23 24  1  0  0  0  0
 25 24  1  1  0  0  0
 25 19  1  0  0  0  0
 27 28  1  0  0  0  0
 28 29  1  0  0  0  0
 30 29  1  6  0  0  0
 30 34  1  0  0  0  0
 30 31  1  0  0  0  0
 31 35  1  1  0  0  0
 31 32  1  0  0  0  0
 33 32  1  0  0  0  0
 34 33  1  0  0  0  0
 36 35  1  0  0  0  0
 37 36  1  0  0  0  0
 38 37  1  1  0  0  0
 38 39  1  0  0  0  0
 39 40  1  0  0  0  0
 41 42  1  6  0  0  0
 41 38  1  0  0  0  0
 43 42  1  0  0  0  0
 44 41  1  0  0  0  0
 44 45  1  0  0  0  0
 47 49  1  0  0  0  0
 47 46  1  1  0  0  0
 47 45  1  0  0  0  0
 49 48  1  0  0  0  0
 50 49  2  0  0  0  0
M  END
>  <MODEL>
1

>  <REMARK>
 VINA RESULT:      -5.9      0.000      0.000
  Name = 
  24 active torsions:
  status: ('A' for Active; 'I' for Inactive)
    1  A    between atoms: O_2  and  C_16
    2  A    between atoms: N_5  and  CA_17
    3  A    between atoms: N_5  and  C_46
    4  A    between atoms: N_6  and  C_23
    5  A    between atoms: N_6  and  C_31
    6  A    between atoms: N_7  and  N_45
    7  A    between atoms: C_9  and  C_49
    8  A    between atoms: C_14  and  CA_17
    9  A    between atoms: C_16  and  C_23
   10  A    between atoms: C_16  and  C_47
   11  A    between atoms: C_19  and  C_22
   12  A    between atoms: N_20  and  C_22
   13  A    between atoms: N_20  and  C_49
   14  A    between atoms: C_24  and  C_47
   15  A    between atoms: C_25  and  C_34
   16  A    between atoms: C_25  and  N_41
   17  A    between atoms: C_28  and  C_32
   18  A    between atoms: C_29  and  C_38
   19  A    between atoms: C_30  and  C_31
   20  A    between atoms: C_32  and  N_45
   21  A    between atoms: C_33  and  C_35
   22  A    between atoms: C_34  and  C_35
   23  A    between atoms: C_35  and  N_48
   24  A    between atoms: C_46  and  C_47
                            x       y       z     vdW  Elec       q    Type
                         _______ _______ _______ _____ _____    ______ ____

>  <TORSDO>
F 24

$$$$
=
 OpenBabel11042415523D

 50 54  0  0  1  0  0  0  0  0999 V2000
  187.7180  177.0430  142.2380 C   0  0  0  0  0  0  0  0  0  0  0  0
  187.5270  175.8930  140.3670 N   0  0  0  0  0  0  0  0  0  0  0  0
  187.0330  176.9420  141.0470 C   0  0  0  0  0  0  0  0  0  0  0  0
  188.4850  175.3910  141.1320 N   0  0  0  0  0  0  0  0  0  0  0  0
  188.6230  176.0500  142.2790 N   0  0  0  0  0  0  0  0  0  0  0  0
  185.1070  178.4670  140.2100 N   0  0  0  0  0  0  0  0  0  0  0  0
  185.9650  177.7850  140.5830 C   0  0  0  0  0  0  0  0  0  0  0  0
  189.2250  174.1810  140.7820 C   0  0  1  0  0  3  0  0  0  0  0  0
  188.7000  172.4450  142.5050 C   0  0  0  0  0  1  0  0  0  0  0  0
  189.7350  173.4370  142.0120 C   0  0  0  0  0  2  0  0  0  0  0  0
  188.4050  173.2920  139.8480 C   0  0  0  0  0  2  0  0  0  0  0  0
  189.2440  172.6550  138.7500 C   0  0  0  0  0  2  0  0  0  0  0  0
  191.4270  174.0910  135.8690 N   0  0  0  0  0  0  0  0  0  0  0  0
  190.5800  173.6340  136.8630 C   0  0  0  0  0  0  0  0  0  0  0  0
  190.3920  173.2250  135.5960 N   0  0  0  0  0  0  0  0  0  0  0  0
  190.1780  173.6390  138.2300 N   0  0  0  0  0  2  0  0  0  0  0  0
  192.5270  174.8520  135.4550 N   0  0  0  0  0  2  0  0  0  0  0  0
  193.7120  174.2860  136.0840 C   0  0  0  0  0  2  0  0  0  0  0  0
  195.4310  174.5240  140.3450 N   0  0  0  0  0  2  0  0  0  0  0  0
  195.8870  175.1020  136.9940 C   0  0  0  0  0  2  0  0  0  0  0  0
  196.1920  175.1830  138.4000 N   0  0  2  0  0  0  0  0  0  0  0  0
  197.3710  174.5830  138.9590 C   0  0  0  0  0  2  0  0  0  0  0  0
  194.3640  175.3050  137.0070 C   0  0  2  0  0  3  0  0  0  0  0  0
  193.9910  175.0350  138.4740 C   0  0  0  0  0  2  0  0  0  0  0  0
  195.1950  174.4130  138.9730 N   0  0  2  0  0  0  0  0  0  0  0  0
  196.8920  174.3570  140.3980 C   0  0  0  0  0  2  0  0  0  0  0  0
  187.5020  178.0290  143.3330 C   0  0  0  0  0  2  0  0  0  0  0  0
  186.1200  177.9810  143.7760 N   0  0  0  0  0  2  0  0  0  0  0  0
  185.9300  176.6780  144.3960 C   0  0  0  0  0  2  0  0  0  0  0  0
  185.7240  176.8060  145.9050 C   0  0  1  0  0  3  0  0  0  0  0  0
  186.9950  177.2230  146.6270 C   0  0  1  0  0  3  0  0  0  0  0  0
  186.5350  178.0940  147.7710 C   0  0  0  0  0  2  0  0  0  0  0  0
  185.2780  178.7720  147.2730 C   0  0  0  0  0  2  0  0  0  0  0  0
  184.6600  177.8390  146.2460 C   0  0  0  0  0  2  0  0  0  0  0  0
  187.7490  176.0140  147.1590 C   0  0  0  0  0  2  0  0  0  0  0  0
  188.7350  175.5880  146.1810 N   0  0  0  0  0  2  0  0  0  0  0  0
  189.7860  176.5950  146.1590 C   0  0  0  0  0  2  0  0  0  0  0  0
  191.1100  175.9900  145.6840 C   0  0  1  0  0  3  0  0  0  0  0  0
  190.8590  174.9870  144.7470 O   0  0  0  0  0  0  0  0  0  0  0  0
  191.5550  173.8750  145.2210 C   0  0  0  0  0  1  0  0  0  0  0  0
  192.0950  177.0220  145.1000 C   0  0  2  0  0  3  0  0  0  0  0  0
  191.8310  177.2770  143.6240 C   0  0  0  0  0  2  0  0  0  0  0  0
  191.0920  178.5870  143.4380 C   0  0  0  0  0  1  0  0  0  0  0  0
  193.5550  176.6350  145.3050 C   0  0  0  0  0  2  0  0  0  0  0  0
  194.1590  176.2660  144.0360 N   0  0  0  0  0  2  0  0  0  0  0  0
  195.1360  174.9030  145.7900 C   0  0  0  0  0  1  0  0  0  0  0  0
  195.1300  175.2180  144.3070 C   0  0  2  0  0  3  0  0  0  0  0  0
  197.5970  174.8590  144.1780 O   0  0  0  0  0  1  0  0  0  0  0  0
  196.4930  175.6480  143.8700 C   0  0  0  0  0  0  0  0  0  0  0  0
  196.6560  176.7370  143.2590 O   0  0  0  0  0  0  0  0  0  0  0  0
  1  5  2  0  0  0  0
  1 27  1  0  0  0  0
  2  3  2  0  0  0  0
  2  4  1  0  0  0  0
  3  1  1  0  0  0  0
  4  5  1  0  0  0  0
  6  7  3  0  0  0  0
  7  3  1  0  0  0  0
  8 11  1  1  0  0  0
  8  4  1  0  0  0  0
  8 10  1  0  0  0  0
 10  9  1  0  0  0  0
 12 11  1  0  0  0  0
 13 14  1  0  0  0  0
 14 16  1  0  0  0  0
 15 13  1  0  0  0  0
 15 14  2  0  0  0  0
 16 12  1  0  0  0  0
 17 13  1  0  0  0  0
 17 18  1  0  0  0  0
 19 26  1  0  0  0  0
 20 23  1  0  0  0  0
 21 20  1  6  0  0  0
 21 22  1  0  0  0  0
 21 25  1  0  0  0  0
 22 26  1  0  0  0  0
 23 18  1  6  0  0  0
 23 24  1  0  0  0  0
 25 24  1  1  0  0  0
 25 19  1  0  0  0  0
 27 28  1  0  0  0  0
 28 29  1  0  0  0  0
 30 29  1  6  0  0  0
 30 34  1  0  0  0  0
 30 31  1  0  0  0  0
 31 35  1  1  0  0  0
 31 32  1  0  0  0  0
 33 32  1  0  0  0  0
 34 33  1  0  0  0  0
 36 35  1  0  0  0  0
 37 36  1  0  0  0  0
 38 37  1  6  0  0  0
 39 40  1  0  0  0  0
 39 38  1  0  0  0  0
 41 42  1  6  0  0  0
 41 44  1  0  0  0  0
 41 38  1  0  0  0  0
 43 42  1  0  0  0  0
 45 47  1  0  0  0  0
 45 44  1  0  0  0  0
 47 46  1  1  0  0  0
 49 48  1  0  0  0  0
 49 47  1  0  0  0  0
 50 49  2  0  0  0  0
M  END
>  <MODEL>
2

>  <REMARK>
 VINA RESULT:      -5.7      2.301      3.878
  Name = 
  24 active torsions:
  status: ('A' for Active; 'I' for Inactive)
    1  A    between atoms: O_2  and  C_16
    2  A    between atoms: N_5  and  CA_17
    3  A    between atoms: N_5  and  C_46
    4  A    between atoms: N_6  and  C_23
    5  A    between atoms: N_6  and  C_31
    6  A    between atoms: N_7  and  N_45
    7  A    between atoms: C_9  and  C_49
    8  A    between atoms: C_14  and  CA_17
    9  A    between atoms: C_16  and  C_23
   10  A    between atoms: C_16  and  C_47
   11  A    between atoms: C_19  and  C_22
   12  A    between atoms: N_20  and  C_22
   13  A    between atoms: N_20  and  C_49
   14  A    between atoms: C_24  and  C_47
   15  A    between atoms: C_25  and  C_34
   16  A    between atoms: C_25  and  N_41
   17  A    between atoms: C_28  and  C_32
   18  A    between atoms: C_29  and  C_38
   19  A    between atoms: C_30  and  C_31
   20  A    between atoms: C_32  and  N_45
   21  A    between atoms: C_33  and  C_35
   22  A    between atoms: C_34  and  C_35
   23  A    between atoms: C_35  and  N_48
   24  A    between atoms: C_46  and  C_47
                            x       y       z     vdW  Elec       q    Type
                         _______ _______ _______ _____ _____    ______ ____

>  <TORSDO>
F 24

$$$$
=
 OpenBabel11042415523D

 50 54  0  0  1  0  0  0  0  0999 V2000
  187.6970  176.1670  142.3120 C   0  0  0  0  0  0  0  0  0  0  0  0
  187.7140  178.3540  142.5970 N   0  0  0  0  0  0  0  0  0  0  0  0
  188.4980  177.2630  142.5500 C   0  0  0  0  0  0  0  0  0  0  0  0
  186.4810  177.9160  142.3840 N   0  0  0  0  0  0  0  0  0  0  0  0
  186.4270  176.5980  142.2210 N   0  0  0  0  0  0  0  0  0  0  0  0
  191.0720  177.2820  142.8800 N   0  0  0  0  0  0  0  0  0  0  0  0
  189.9240  177.2750  142.7330 C   0  0  0  0  0  0  0  0  0  0  0  0
  185.3120  178.7900  142.4340 C   0  0  1  0  0  3  0  0  0  0  0  0
  183.7590  178.3980  140.5120 C   0  0  0  0  0  1  0  0  0  0  0  0
  184.0410  178.0860  141.9690 C   0  0  0  0  0  2  0  0  0  0  0  0
  185.1660  179.4290  143.8140 C   0  0  0  0  0  2  0  0  0  0  0  0
  184.2420  178.6450  144.7330 C   0  0  0  0  0  2  0  0  0  0  0  0
  187.1430  177.0310  146.7610 N   0  0  0  0  0  0  0  0  0  0  0  0
  186.0600  177.6070  146.1190 C   0  0  0  0  0  0  0  0  0  0  0  0
  186.8000  178.3490  146.9610 N   0  0  0  0  0  0  0  0  0  0  0  0
  184.9470  177.4790  145.2400 N   0  0  0  0  0  2  0  0  0  0  0  0
  187.9750  175.9320  147.0080 N   0  0  0  0  0  2  0  0  0  0  0  0
  189.3520  176.3870  146.8740 C   0  0  0  0  0  2  0  0  0  0  0  0
  190.3420  172.5340  144.5630 N   0  0  0  0  0  2  0  0  0  0  0  0
  191.4830  175.4380  145.9890 C   0  0  0  0  0  2  0  0  0  0  0  0
  191.5910  174.1430  145.3690 N   0  0  2  0  0  0  0  0  0  0  0  0
  192.1870  173.9650  144.0750 C   0  0  0  0  0  2  0  0  0  0  0  0
  190.3120  175.2100  146.9570 C   0  0  2  0  0  3  0  0  0  0  0  0
  189.6580  173.9280  146.4130 C   0  0  0  0  0  2  0  0  0  0  0  0
  190.2710  173.8170  145.1100 N   0  0  2  0  0  0  0  0  0  0  0  0
  191.4710  172.6830  143.6320 C   0  0  0  0  0  2  0  0  0  0  0  0
  188.1110  174.7410  142.2100 C   0  0  0  0  0  2  0  0  0  0  0  0
  188.1860  174.3450  140.8160 N   0  0  0  0  0  2  0  0  0  0  0  0
  189.4110  173.5700  140.6710 C   0  0  0  0  0  2  0  0  0  0  0  0
  189.9740  173.6830  139.2550 C   0  0  1  0  0  3  0  0  0  0  0  0
  190.9840  172.5900  138.9470 C   0  0  1  0  0  3  0  0  0  0  0  0
  190.7960  172.2750  137.4830 C   0  0  0  0  0  2  0  0  0  0  0  0
  189.3310  172.5310  137.2070 C   0  0  0  0  0  2  0  0  0  0  0  0
  188.8800  173.5880  138.2010 C   0  0  0  0  0  2  0  0  0  0  0  0
  192.4060  173.0640  139.2030 C   0  0  0  0  0  2  0  0  0  0  0  0
  192.8230  172.6540  140.5320 N   0  0  0  0  0  2  0  0  0  0  0  0
  194.2590  172.4190  140.4820 C   0  0  0  0  0  2  0  0  0  0  0  0
  194.8160  172.1460  141.8810 C   0  0  1  0  0  3  0  0  0  0  0  0
  195.3560  170.8600  141.9300 O   0  0  0  0  0  0  0  0  0  0  0  0
  194.3400  170.0670  142.4660 C   0  0  0  0  0  1  0  0  0  0  0  0
  195.8640  173.1750  142.3490 C   0  0  2  0  0  3  0  0  0  0  0  0
  197.2160  172.9350  141.6960 C   0  0  0  0  0  2  0  0  0  0  0  0
  197.5900  174.1050  140.8090 C   0  0  0  0  0  1  0  0  0  0  0  0
  196.0210  173.2190  143.8640 C   0  0  0  0  0  2  0  0  0  0  0  0
  196.6640  174.4590  144.2650 N   0  0  0  0  0  2  0  0  0  0  0  0
  196.4280  176.6720  143.2990 C   0  0  0  0  0  1  0  0  0  0  0  0
  195.7210  175.5370  144.0110 C   0  0  2  0  0  3  0  0  0  0  0  0
  194.6310  177.3210  145.3760 O   0  0  0  0  0  0  0  0  0  0  0  0
  195.1340  176.0260  145.2960 C   0  0  0  0  0  0  0  0  0  0  0  0
  195.1260  175.2900  146.3180 O   0  0  0  0  0  1  0  0  0  0  0  0
  1  3  1  0  0  0  0
  3  2  2  0  0  0  0
  3  7  1  0  0  0  0
  4  8  1  0  0  0  0
  4  2  1  0  0  0  0
  5  1  2  0  0  0  0
  5  4  1  0  0  0  0
  7  6  3  0  0  0  0
  8 10  1  1  0  0  0
  8 11  1  0  0  0  0
  9 10  1  0  0  0  0
 11 12  1  0  0  0  0
 12 16  1  0  0  0  0
 13 15  1  0  0  0  0
 13 17  1  0  0  0  0
 14 13  1  0  0  0  0
 14 15  2  0  0  0  0
 16 14  1  0  0  0  0
 18 17  1  0  0  0  0
 19 25  1  0  0  0  0
 20 23  1  0  0  0  0
 21 22  1  6  0  0  0
 21 20  1  0  0  0  0
 23 18  1  6  0  0  0
 24 23  1  0  0  0  0
 25 21  1  0  0  0  0
 25 24  1  1  0  0  0
 26 22  1  0  0  0  0
 26 19  1  0  0  0  0
 27  1  1  0  0  0  0
 28 27  1  0  0  0  0
 29 28  1  0  0  0  0
 30 29  1  1  0  0  0
 31 35  1  6  0  0  0
 31 30  1  0  0  0  0
 32 31  1  0  0  0  0
 33 32  1  0  0  0  0
 33 34  1  0  0  0  0
 34 30  1  0  0  0  0
 35 36  1  0  0  0  0
 37 36  1  0  0  0  0
 38 37  1  6  0  0  0
 38 39  1  0  0  0  0
 38 41  1  0  0  0  0
 39 40  1  0  0  0  0
 41 42  1  6  0  0  0
 41 44  1  0  0  0  0
 43 42  1  0  0  0  0
 44 45  1  0  0  0  0
 47 46  1  1  0  0  0
 47 45  1  0  0  0  0
 47 49  1  0  0  0  0
 49 48  2  0  0  0  0
 49 50  1  0  0  0  0
M  END
>  <MODEL>
3

>  <REMARK>
 VINA RESULT:      -5.6      1.950      7.593
  Name = 
  24 active torsions:
  status: ('A' for Active; 'I' for Inactive)
    1  A    between atoms: O_2  and  C_16
    2  A    between atoms: N_5  and  CA_17
    3  A    between atoms: N_5  and  C_46
    4  A    between atoms: N_6  and  C_23
    5  A    between atoms: N_6  and  C_31
    6  A    between atoms: N_7  and  N_45
    7  A    between atoms: C_9  and  C_49
    8  A    between atoms: C_14  and  CA_17
    9  A    between atoms: C_16  and  C_23
   10  A    between atoms: C_16  and  C_47
   11  A    between atoms: C_19  and  C_22
   12  A    between atoms: N_20  and  C_22
   13  A    between atoms: N_20  and  C_49
   14  A    between atoms: C_24  and  C_47
   15  A    between atoms: C_25  and  C_34
   16  A    between atoms: C_25  and  N_41
   17  A    between atoms: C_28  and  C_32
   18  A    between atoms: C_29  and  C_38
   19  A    between atoms: C_30  and  C_31
   20  A    between atoms: C_32  and  N_45
   21  A    between atoms: C_33  and  C_35
   22  A    between atoms: C_34  and  C_35
   23  A    between atoms: C_35  and  N_48
   24  A    between atoms: C_46  and  C_47
                            x       y       z     vdW  Elec       q    Type
                         _______ _______ _______ _____ _____    ______ ____

>  <TORSDO>
F 24

$$$$
=
 OpenBabel11042415523D

 50 54  0  0  1  0  0  0  0  0999 V2000
  189.6690  175.8310  145.6290 C   0  0  0  0  0  0  0  0  0  0  0  0
  188.7820  177.6020  144.6610 N   0  0  0  0  0  0  0  0  0  0  0  0
  189.8780  176.8260  144.6990 C   0  0  0  0  0  0  0  0  0  0  0  0
  187.9410  177.0760  145.5400 N   0  0  0  0  0  0  0  0  0  0  0  0
  188.4460  176.0110  146.1570 N   0  0  0  0  0  0  0  0  0  0  0  0
  192.0030  177.2040  143.2580 N   0  0  0  0  0  0  0  0  0  0  0  0
  191.0540  177.0360  143.8990 C   0  0  0  0  0  0  0  0  0  0  0  0
  186.6490  177.6780  145.8570 C   0  0  1  0  0  3  0  0  0  0  0  0
  185.3260  179.0310  147.4940 C   0  0  0  0  0  1  0  0  0  0  0  0
  186.6100  178.2570  147.2680 C   0  0  0  0  0  2  0  0  0  0  0  0
  186.2420  178.6920  144.7890 C   0  0  0  0  0  2  0  0  0  0  0  0
  185.0820  178.2120  143.9300 C   0  0  0  0  0  2  0  0  0  0  0  0
  187.1240  175.9840  141.4830 N   0  0  0  0  0  0  0  0  0  0  0  0
  186.3230  176.7210  142.3370 C   0  0  0  0  0  0  0  0  0  0  0  0
  186.7400  175.5000  142.7120 N   0  0  0  0  0  0  0  0  0  0  0  0
  185.5690  177.9010  142.5970 N   0  0  0  0  0  2  0  0  0  0  0  0
  187.8200  175.8440  140.2750 N   0  0  0  0  0  2  0  0  0  0  0  0
  188.5090  174.5620  140.3130 C   0  0  0  0  0  2  0  0  0  0  0  0
  191.0350  172.3640  137.1570 N   0  0  0  0  0  2  0  0  0  0  0  0
  188.3330  172.3030  139.2700 C   0  0  0  0  0  2  0  0  0  0  0  0
  189.1860  171.8380  138.2070 N   0  0  2  0  0  0  0  0  0  0  0  0
  189.9050  170.5980  138.2940 C   0  0  0  0  0  2  0  0  0  0  0  0
  188.3170  173.8150  139.0010 C   0  0  2  0  0  3  0  0  0  0  0  0
  189.5280  174.0140  138.0730 C   0  0  0  0  0  2  0  0  0  0  0  0
  190.2200  172.7560  138.2220 N   0  0  2  0  0  0  0  0  0  0  0  0
  191.0720  170.9060  137.3480 C   0  0  0  0  0  2  0  0  0  0  0  0
  190.6120  174.7560  146.0410 C   0  0  0  0  0  2  0  0  0  0  0  0
  191.8130  175.3410  146.6090 N   0  0  0  0  0  2  0  0  0  0  0  0
  192.9230  174.4950  146.1940 C   0  0  0  0  0  2  0  0  0  0  0  0
  194.2360  175.2760  146.1660 C   0  0  1  0  0  3  0  0  0  0  0  0
  194.8710  175.2890  144.7850 C   0  0  1  0  0  3  0  0  0  0  0  0
  195.5370  176.6380  144.6660 C   0  0  0  0  0  2  0  0  0  0  0  0
  194.6880  177.5740  145.4980 C   0  0  0  0  0  2  0  0  0  0  0  0
  194.0400  176.7280  146.5790 C   0  0  0  0  0  2  0  0  0  0  0  0
  195.9020  174.1800  144.6420 C   0  0  0  0  0  2  0  0  0  0  0  0
  195.3060  173.0490  143.9520 N   0  0  0  0  0  2  0  0  0  0  0  0
  195.2010  173.4070  142.5450 C   0  0  0  0  0  2  0  0  0  0  0  0
  195.3530  172.1700  141.6560 C   0  0  1  0  0  3  0  0  0  0  0  0
  195.0100  171.0270  142.3790 O   0  0  0  0  0  0  0  0  0  0  0  0
  195.9580  170.0720  142.0090 C   0  0  0  0  0  1  0  0  0  0  0  0
  194.5350  172.2330  140.3510 C   0  0  2  0  0  3  0  0  0  0  0  0
  195.2760  172.9910  139.2600 C   0  0  0  0  0  2  0  0  0  0  0  0
  194.3070  173.4680  138.1970 C   0  0  0  0  0  1  0  0  0  0  0  0
  193.1470  172.8310  140.5460 C   0  0  0  0  0  2  0  0  0  0  0  0
  192.2020  171.7930  140.9220 N   0  0  0  0  0  2  0  0  0  0  0  0
  191.6850  173.3190  142.7360 C   0  0  0  0  0  1  0  0  0  0  0  0
  191.1160  172.4360  141.6430 C   0  0  2  0  0  3  0  0  0  0  0  0
  189.1600  171.8080  143.0620 O   0  0  0  0  0  1  0  0  0  0  0  0
  190.2070  171.4090  142.2380 C   0  0  0  0  0  0  0  0  0  0  0  0
  190.4030  170.1820  142.0300 O   0  0  0  0  0  0  0  0  0  0  0  0
  1 27  1  0  0  0  0
  1  5  2  0  0  0  0
  2  3  2  0  0  0  0
  2  4  1  0  0  0  0
  3  1  1  0  0  0  0
  4  8  1  0  0  0  0
  4  5  1  0  0  0  0
  6  7  3  0  0  0  0
  7  3  1  0  0  0  0
  8 11  1  6  0  0  0
  8 10  1  0  0  0  0
 10  9  1  0  0  0  0
 12 11  1  0  0  0  0
 13 14  1  0  0  0  0
 13 15  1  0  0  0  0
 14 16  1  0  0  0  0
 14 15  2  0  0  0  0
 16 12  1  0  0  0  0
 17 18  1  0  0  0  0
 17 13  1  0  0  0  0
 19 26  1  0  0  0  0
 19 25  1  0  0  0  0
 21 25  1  0  0  0  0
 21 22  1  1  0  0  0
 21 20  1  0  0  0  0
 23 20  1  0  0  0  0
 23 18  1  1  0  0  0
 24 23  1  0  0  0  0
 25 24  1  6  0  0  0
 26 22  1  0  0  0  0
 27 28  1  0  0  0  0
 29 28  1  0  0  0  0
 30 29  1  6  0  0  0
 30 34  1  0  0  0  0
 31 35  1  1  0  0  0
 31 30  1  0  0  0  0
 32 31  1  0  0  0  0
 32 33  1  0  0  0  0
 33 34  1  0  0  0  0
 36 35  1  0  0  0  0
 37 36  1  0  0  0  0
 38 39  1  0  0  0  0
 38 37  1  1  0  0  0
 40 39  1  0  0  0  0
 41 42  1  6  0  0  0
 41 44  1  0  0  0  0
 41 38  1  0  0  0  0
 43 42  1  0  0  0  0
 44 45  1  0  0  0  0
 45 47  1  0  0  0  0
 47 49  1  0  0  0  0
 47 46  1  1  0  0  0
 49 48  1  0  0  0  0
 50 49  2  0  0  0  0
M  END
>  <MODEL>
4

>  <REMARK>
 VINA RESULT:      -5.5      2.203      7.878
  Name = 
  24 active torsions:
  status: ('A' for Active; 'I' for Inactive)
    1  A    between atoms: O_2  and  C_16
    2  A    between atoms: N_5  and  CA_17
    3  A    between atoms: N_5  and  C_46
    4  A    between atoms: N_6  and  C_23
    5  A    between atoms: N_6  and  C_31
    6  A    between atoms: N_7  and  N_45
    7  A    between atoms: C_9  and  C_49
    8  A    between atoms: C_14  and  CA_17
    9  A    between atoms: C_16  and  C_23
   10  A    between atoms: C_16  and  C_47
   11  A    between atoms: C_19  and  C_22
   12  A    between atoms: N_20  and  C_22
   13  A    between atoms: N_20  and  C_49
   14  A    between atoms: C_24  and  C_47
   15  A    between atoms: C_25  and  C_34
   16  A    between atoms: C_25  and  N_41
   17  A    between atoms: C_28  and  C_32
   18  A    between atoms: C_29  and  C_38
   19  A    between atoms: C_30  and  C_31
   20  A    between atoms: C_32  and  N_45
   21  A    between atoms: C_33  and  C_35
   22  A    between atoms: C_34  and  C_35
   23  A    between atoms: C_35  and  N_48
   24  A    between atoms: C_46  and  C_47
                            x       y       z     vdW  Elec       q    Type
                         _______ _______ _______ _____ _____    ______ ____

>  <TORSDO>
F 24

$$$$
=
 OpenBabel11042415523D

 50 54  0  0  1  0  0  0  0  0999 V2000
  188.2280  176.1450  142.3920 C   0  0  0  0  0  0  0  0  0  0  0  0
  188.1050  178.3400  142.5660 N   0  0  0  0  0  0  0  0  0  0  0  0
  188.9550  177.2980  142.5930 C   0  0  0  0  0  0  0  0  0  0  0  0
  186.9070  177.8170  142.3470 N   0  0  0  0  0  0  0  0  0  0  0  0
  186.9370  176.4920  142.2500 N   0  0  0  0  0  0  0  0  0  0  0  0
  191.5140  177.4980  142.9760 N   0  0  0  0  0  0  0  0  0  0  0  0
  190.3720  177.4080  142.8070 C   0  0  0  0  0  0  0  0  0  0  0  0
  185.6870  178.6190  142.3250 C   0  0  1  0  0  3  0  0  0  0  0  0
  183.9740  178.3920  140.5150 C   0  0  0  0  0  1  0  0  0  0  0  0
  184.4810  177.8270  141.8280 C   0  0  0  0  0  2  0  0  0  0  0  0
  185.4440  179.2820  143.6800 C   0  0  0  0  0  2  0  0  0  0  0  0
  184.4940  178.4880  144.5640 C   0  0  0  0  0  2  0  0  0  0  0  0
  187.3030  176.8190  146.6730 N   0  0  0  0  0  0  0  0  0  0  0  0
  186.2490  177.4120  146.0000 C   0  0  0  0  0  0  0  0  0  0  0  0
  186.9460  178.1290  146.8990 N   0  0  0  0  0  0  0  0  0  0  0  0
  185.1790  177.3090  145.0660 N   0  0  0  0  0  2  0  0  0  0  0  0
  188.1270  175.7150  146.9240 N   0  0  0  0  0  2  0  0  0  0  0  0
  189.4760  176.2170  147.1470 C   0  0  0  0  0  2  0  0  0  0  0  0
  192.0460  173.9320  144.0900 N   0  0  0  0  0  2  0  0  0  0  0  0
  191.9040  175.6520  147.0550 C   0  0  0  0  0  2  0  0  0  0  0  0
  192.5010  174.8250  146.0370 N   0  0  2  0  0  0  0  0  0  0  0  0
  193.6370  175.2590  145.2730 C   0  0  0  0  0  2  0  0  0  0  0  0
  190.4810  175.0750  147.1130 C   0  0  2  0  0  3  0  0  0  0  0  0
  190.3730  174.2880  145.7960 C   0  0  0  0  0  2  0  0  0  0  0  0
  191.5170  174.7810  145.0650 N   0  0  2  0  0  0  0  0  0  0  0  0
  193.4290  174.4260  144.0020 C   0  0  0  0  0  2  0  0  0  0  0  0
  188.7300  174.7440  142.3730 C   0  0  0  0  0  2  0  0  0  0  0  0
  189.1250  174.3780  141.0250 N   0  0  0  0  0  2  0  0  0  0  0  0
  190.1300  173.3320  141.1580 C   0  0  0  0  0  2  0  0  0  0  0  0
  191.1220  173.3650  139.9980 C   0  0  1  0  0  3  0  0  0  0  0  0
  192.1090  172.2090  140.0480 C   0  0  1  0  0  3  0  0  0  0  0  0
  192.3790  171.8550  138.6060 C   0  0  0  0  0  2  0  0  0  0  0  0
  191.0990  172.1790  137.8690 C   0  0  0  0  0  2  0  0  0  0  0  0
  190.4200  173.2920  138.6490 C   0  0  0  0  0  2  0  0  0  0  0  0
  193.4000  172.6150  140.7400 C   0  0  0  0  0  2  0  0  0  0  0  0
  194.4490  172.7860  139.7490 N   0  0  0  0  0  2  0  0  0  0  0  0
  194.9840  174.1300  139.9140 C   0  0  0  0  0  2  0  0  0  0  0  0
  196.2930  174.1020  140.7070 C   0  0  1  0  0  3  0  0  0  0  0  0
  197.3210  174.6480  139.9360 O   0  0  0  0  0  0  0  0  0  0  0  0
  196.7570  174.8400  138.6750 C   0  0  0  0  0  1  0  0  0  0  0  0
  196.2160  174.8210  142.0680 C   0  0  2  0  0  3  0  0  0  0  0  0
  196.4870  176.3120  141.9310 C   0  0  0  0  0  2  0  0  0  0  0  0
  196.7850  176.9210  143.2860 C   0  0  0  0  0  1  0  0  0  0  0  0
  197.1470  174.2190  143.1140 C   0  0  0  0  0  2  0  0  0  0  0  0
  196.9090  172.7910  143.2340 N   0  0  0  0  0  2  0  0  0  0  0  0
  197.7820  170.8480  144.3950 C   0  0  0  0  0  1  0  0  0  0  0  0
  197.5580  172.3450  144.4560 C   0  0  2  0  0  3  0  0  0  0  0  0
  195.4710  172.0950  145.8020 O   0  0  0  0  0  0  0  0  0  0  0  0
  196.7190  172.6880  145.6450 C   0  0  0  0  0  0  0  0  0  0  0  0
  197.1150  173.5380  146.4850 O   0  0  0  0  0  1  0  0  0  0  0  0
  1  3  1  0  0  0  0
  2  3  2  0  0  0  0
  3  7  1  0  0  0  0
  4  2  1  0  0  0  0
  5  4  1  0  0  0  0
  5  1  2  0  0  0  0
  7  6  3  0  0  0  0
  8 10  1  1  0  0  0
  8  4  1  0  0  0  0
  8 11  1  0  0  0  0
  9 10  1  0  0  0  0
 11 12  1  0  0  0  0
 12 16  1  0  0  0  0
 13 15  1  0  0  0  0
 13 17  1  0  0  0  0
 14 13  1  0  0  0  0
 14 15  2  0  0  0  0
 16 14  1  0  0  0  0
 17 18  1  0  0  0  0
 19 25  1  0  0  0  0
 20 23  1  0  0  0  0
 21 22  1  6  0  0  0
 21 20  1  0  0  0  0
 23 18  1  6  0  0  0
 24 23  1  0  0  0  0
 25 24  1  1  0  0  0
 25 21  1  0  0  0  0
 26 19  1  0  0  0  0
 26 22  1  0  0  0  0
 27  1  1  0  0  0  0
 28 29  1  0  0  0  0
 28 27  1  0  0  0  0
 30 31  1  0  0  0  0
 30 29  1  1  0  0  0
 31 35  1  6  0  0  0
 32 31  1  0  0  0  0
 33 32  1  0  0  0  0
 33 34  1  0  0  0  0
 34 30  1  0  0  0  0
 36 37  1  0  0  0  0
 36 35  1  0  0  0  0
 38 37  1  6  0  0  0
 38 41  1  0  0  0  0
 39 38  1  0  0  0  0
 40 39  1  0  0  0  0
 41 42  1  6  0  0  0
 41 44  1  0  0  0  0
 42 43  1  0  0  0  0
 44 45  1  0  0  0  0
 45 47  1  0  0  0  0
 47 46  1  6  0  0  0
 47 49  1  0  0  0  0
 49 48  2  0  0  0  0
 49 50  1  0  0  0  0
M  END
>  <MODEL>
5

>  <REMARK>
 VINA RESULT:      -5.5      2.187      7.537
  Name = 
  24 active torsions:
  status: ('A' for Active; 'I' for Inactive)
    1  A    between atoms: O_2  and  C_16
    2  A    between atoms: N_5  and  CA_17
    3  A    between atoms: N_5  and  C_46
    4  A    between atoms: N_6  and  C_23
    5  A    between atoms: N_6  and  C_31
    6  A    between atoms: N_7  and  N_45
    7  A    between atoms: C_9  and  C_49
    8  A    between atoms: C_14  and  CA_17
    9  A    between atoms: C_16  and  C_23
   10  A    between atoms: C_16  and  C_47
   11  A    between atoms: C_19  and  C_22
   12  A    between atoms: N_20  and  C_22
   13  A    between atoms: N_20  and  C_49
   14  A    between atoms: C_24  and  C_47
   15  A    between atoms: C_25  and  C_34
   16  A    between atoms: C_25  and  N_41
   17  A    between atoms: C_28  and  C_32
   18  A    between atoms: C_29  and  C_38
   19  A    between atoms: C_30  and  C_31
   20  A    between atoms: C_32  and  N_45
   21  A    between atoms: C_33  and  C_35
   22  A    between atoms: C_34  and  C_35
   23  A    between atoms: C_35  and  N_48
   24  A    between atoms: C_46  and  C_47
                            x       y       z     vdW  Elec       q    Type
                         _______ _______ _______ _____ _____    ______ ____

>  <TORSDO>
F 24

$$$$
=
 OpenBabel11042415523D

 50 54  0  0  1  0  0  0  0  0999 V2000
  187.8220  175.5280  142.4730 C   0  0  0  0  0  0  0  0  0  0  0  0
  188.1740  177.6140  143.0930 N   0  0  0  0  0  0  0  0  0  0  0  0
  188.7890  176.4670  142.7570 C   0  0  0  0  0  0  0  0  0  0  0  0
  186.8760  177.3630  143.0020 N   0  0  0  0  0  0  0  0  0  0  0  0
  186.6210  176.1080  142.6440 N   0  0  0  0  0  0  0  0  0  0  0  0
  191.3630  176.1450  142.6910 N   0  0  0  0  0  0  0  0  0  0  0  0
  190.2150  176.2870  142.7220 C   0  0  0  0  0  0  0  0  0  0  0  0
  185.8530  178.3410  143.3660 C   0  0  1  0  0  3  0  0  0  0  0  0
  184.0850  178.3360  141.5960 C   0  0  0  0  0  1  0  0  0  0  0  0
  184.4480  177.8760  142.9940 C   0  0  0  0  0  2  0  0  0  0  0  0
  185.9770  178.7400  144.8350 C   0  0  0  0  0  2  0  0  0  0  0  0
  185.0470  177.9500  145.7430 C   0  0  0  0  0  2  0  0  0  0  0  0
  188.2750  176.0560  146.7980 N   0  0  0  0  0  0  0  0  0  0  0  0
  187.1160  176.7560  146.5130 C   0  0  0  0  0  0  0  0  0  0  0  0
  188.2430  177.4320  146.7930 N   0  0  0  0  0  0  0  0  0  0  0  0
  185.7270  176.7490  146.1980 N   0  0  0  0  0  2  0  0  0  0  0  0
  188.9670  174.8480  146.9570 N   0  0  0  0  0  2  0  0  0  0  0  0
  190.0730  174.8500  146.0100 C   0  0  0  0  0  2  0  0  0  0  0  0
  194.5800  174.8850  145.0820 N   0  0  0  0  0  2  0  0  0  0  0  0
  191.9030  176.4630  146.5360 C   0  0  0  0  0  2  0  0  0  0  0  0
  193.2920  176.2320  146.2330 N   0  0  2  0  0  0  0  0  0  0  0  0
  194.0790  177.1800  145.4970 C   0  0  0  0  0  2  0  0  0  0  0  0
  191.3970  175.0270  146.7390 C   0  0  2  0  0  3  0  0  0  0  0  0
  192.5010  174.1760  146.0870 C   0  0  0  0  0  2  0  0  0  0  0  0
  193.2380  175.1720  145.3450 N   0  0  2  0  0  0  0  0  0  0  0  0
  195.1290  176.2370  144.8960 C   0  0  0  0  0  2  0  0  0  0  0  0
  188.0210  174.1040  142.0860 C   0  0  0  0  0  2  0  0  0  0  0  0
  188.3400  174.0150  140.6730 N   0  0  0  0  0  2  0  0  0  0  0  0
  189.3180  172.9450  140.5360 C   0  0  0  0  0  2  0  0  0  0  0  0
  190.0910  173.0640  139.2230 C   0  0  1  0  0  3  0  0  0  0  0  0
  190.4780  171.7070  138.6570 C   0  0  1  0  0  3  0  0  0  0  0  0
  190.4060  171.8670  137.1580 C   0  0  0  0  0  2  0  0  0  0  0  0
  189.3180  172.8900  136.9190 C   0  0  0  0  0  2  0  0  0  0  0  0
  189.2800  173.7780  138.1510 C   0  0  0  0  0  2  0  0  0  0  0  0
  191.8870  171.3170  139.0750 C   0  0  0  0  0  2  0  0  0  0  0  0
  192.8290  172.3180  138.6060 N   0  0  0  0  0  2  0  0  0  0  0  0
  193.5710  172.7910  139.7660 C   0  0  0  0  0  2  0  0  0  0  0  0
  194.7400  171.8550  140.0820 C   0  0  1  0  0  3  0  0  0  0  0  0
  195.8570  172.2290  139.3330 O   0  0  0  0  0  0  0  0  0  0  0  0
  196.2090  171.0810  138.6220 C   0  0  0  0  0  1  0  0  0  0  0  0
  195.1060  171.7950  141.5780 C   0  0  2  0  0  3  0  0  0  0  0  0
  193.9610  172.2800  142.4550 C   0  0  0  0  0  2  0  0  0  0  0  0
  193.8470  171.4200  143.6980 C   0  0  0  0  0  1  0  0  0  0  0  0
  196.3770  172.5670  141.9130 C   0  0  0  0  0  2  0  0  0  0  0  0
  196.0670  173.9680  142.1420 N   0  0  0  0  0  2  0  0  0  0  0  0
  197.9410  175.3890  142.7370 C   0  0  0  0  0  1  0  0  0  0  0  0
  197.1680  174.7490  141.6020 C   0  0  2  0  0  3  0  0  0  0  0  0
  195.8530  176.8270  141.1740 O   0  0  0  0  0  1  0  0  0  0  0  0
  196.6520  175.8040  140.6760 C   0  0  0  0  0  0  0  0  0  0  0  0
  196.9020  175.7520  139.4430 O   0  0  0  0  0  0  0  0  0  0  0  0
  1  5  2  0  0  0  0
  1  3  1  0  0  0  0
  3  2  2  0  0  0  0
  4  2  1  0  0  0  0
  4  8  1  0  0  0  0
  5  4  1  0  0  0  0
  6  7  3  0  0  0  0
  7  3  1  0  0  0  0
  8 10  1  1  0  0  0
  8 11  1  0  0  0  0
  9 10  1  0  0  0  0
 11 12  1  0  0  0  0
 12 16  1  0  0  0  0
 13 17  1  0  0  0  0
 14 15  2  0  0  0  0
 14 13  1  0  0  0  0
 15 13  1  0  0  0  0
 16 14  1  0  0  0  0
 18 17  1  0  0  0  0
 19 25  1  0  0  0  0
 20 23  1  0  0  0  0
 21 22  1  6  0  0  0
 21 20  1  0  0  0  0
 23 18  1  6  0  0  0
 24 23  1  0  0  0  0
 25 24  1  1  0  0  0
 25 21  1  0  0  0  0
 26 19  1  0  0  0  0
 26 22  1  0  0  0  0
 27  1  1  0  0  0  0
 28 27  1  0  0  0  0
 29 28  1  0  0  0  0
 30 29  1  1  0  0  0
 31 35  1  6  0  0  0
 31 30  1  0  0  0  0
 32 31  1  0  0  0  0
 33 32  1  0  0  0  0
 33 34  1  0  0  0  0
 34 30  1  0  0  0  0
 36 35  1  0  0  0  0
 36 37  1  0  0  0  0
 38 37  1  1  0  0  0
 38 41  1  0  0  0  0
 39 38  1  0  0  0  0
 40 39  1  0  0  0  0
 41 44  1  6  0  0  0
 41 42  1  0  0  0  0
 42 43  1  0  0  0  0
 44 45  1  0  0  0  0
 47 45  1  0  0  0  0
 47 46  1  1  0  0  0
 49 48  1  0  0  0  0
 49 47  1  0  0  0  0
 50 49  2  0  0  0  0
M  END
>  <MODEL>
6

>  <REMARK>
 VINA RESULT:      -5.4      2.474      7.627
  Name = 
  24 active torsions:
  status: ('A' for Active; 'I' for Inactive)
    1  A    between atoms: O_2  and  C_16
    2  A    between atoms: N_5  and  CA_17
    3  A    between atoms: N_5  and  C_46
    4  A    between atoms: N_6  and  C_23
    5  A    between atoms: N_6  and  C_31
    6  A    between atoms: N_7  and  N_45
    7  A    between atoms: C_9  and  C_49
    8  A    between atoms: C_14  and  CA_17
    9  A    between atoms: C_16  and  C_23
   10  A    between atoms: C_16  and  C_47
   11  A    between atoms: C_19  and  C_22
   12  A    between atoms: N_20  and  C_22
   13  A    between atoms: N_20  and  C_49
   14  A    between atoms: C_24  and  C_47
   15  A    between atoms: C_25  and  C_34
   16  A    between atoms: C_25  and  N_41
   17  A    between atoms: C_28  and  C_32
   18  A    between atoms: C_29  and  C_38
   19  A    between atoms: C_30  and  C_31
   20  A    between atoms: C_32  and  N_45
   21  A    between atoms: C_33  and  C_35
   22  A    between atoms: C_34  and  C_35
   23  A    between atoms: C_35  and  N_48
   24  A    between atoms: C_46  and  C_47
                            x       y       z     vdW  Elec       q    Type
                         _______ _______ _______ _____ _____    ______ ____

>  <TORSDO>
F 24

$$$$
=
 OpenBabel11042415523D

 50 54  0  0  1  0  0  0  0  0999 V2000
  188.1390  176.2490  141.6340 C   0  0  0  0  0  0  0  0  0  0  0  0
  189.8130  174.9130  142.1570 N   0  0  0  0  0  0  0  0  0  0  0  0
  189.3590  176.1730  142.2690 C   0  0  0  0  0  0  0  0  0  0  0  0
  188.8820  174.2570  141.4810 N   0  0  0  0  0  0  0  0  0  0  0  0
  187.8590  175.0330  141.1330 N   0  0  0  0  0  0  0  0  0  0  0  0
  190.6280  178.0900  143.4740 N   0  0  0  0  0  0  0  0  0  0  0  0
  190.0610  177.2370  142.9360 C   0  0  0  0  0  0  0  0  0  0  0  0
  189.0320  172.8610  141.0780 C   0  0  1  0  0  3  0  0  0  0  0  0
  189.6760  171.6400  138.9920 C   0  0  0  0  0  1  0  0  0  0  0  0
  188.7190  172.6460  139.6010 C   0  0  0  0  0  2  0  0  0  0  0  0
  190.4050  172.3220  141.4780 C   0  0  0  0  0  2  0  0  0  0  0  0
  190.3210  171.1190  142.4050 C   0  0  0  0  0  2  0  0  0  0  0  0
  193.6230  169.0660  142.5070 N   0  0  0  0  0  0  0  0  0  0  0  0
  192.4890  169.8530  142.4070 C   0  0  0  0  0  0  0  0  0  0  0  0
  192.8090  169.0240  141.3980 N   0  0  0  0  0  0  0  0  0  0  0  0
  191.6370  170.8500  142.9610 N   0  0  0  0  0  2  0  0  0  0  0  0
  194.7480  168.6280  143.2170 N   0  0  0  0  0  2  0  0  0  0  0  0
  195.8780  169.4430  142.7910 C   0  0  0  0  0  2  0  0  0  0  0  0
  195.8470  169.1360  147.3810 N   0  0  0  0  0  2  0  0  0  0  0  0
  197.6890  169.1880  144.4880 C   0  0  0  0  0  2  0  0  0  0  0  0
  197.4690  169.2130  145.9110 N   0  0  2  0  0  0  0  0  0  0  0  0
  197.9400  168.1660  146.7730 C   0  0  0  0  0  2  0  0  0  0  0  0
  196.5500  170.0910  143.9920 C   0  0  2  0  0  3  0  0  0  0  0  0
  195.5940  170.1360  145.1980 C   0  0  0  0  0  2  0  0  0  0  0  0
  196.0980  169.0530  146.0100 N   0  0  2  0  0  0  0  0  0  0  0  0
  196.9300  168.2980  147.9200 C   0  0  0  0  0  2  0  0  0  0  0  0
  187.2710  177.4470  141.4670 C   0  0  0  0  0  2  0  0  0  0  0  0
  185.9280  177.1550  141.9350 N   0  0  0  0  0  2  0  0  0  0  0  0
  186.0680  176.6070  143.2770 C   0  0  0  0  0  2  0  0  0  0  0  0
  185.2920  177.4360  144.2990 C   0  0  1  0  0  3  0  0  0  0  0  0
  186.2030  178.0820  145.3300 C   0  0  1  0  0  3  0  0  0  0  0  0
  185.5600  179.4080  145.6540 C   0  0  0  0  0  2  0  0  0  0  0  0
  184.8610  179.8320  144.3820 C   0  0  0  0  0  2  0  0  0  0  0  0
  184.5040  178.5580  143.6370 C   0  0  0  0  0  2  0  0  0  0  0  0
  186.3090  177.2290  146.5840 C   0  0  0  0  0  2  0  0  0  0  0  0
  187.2890  176.1780  146.3760 N   0  0  0  0  0  2  0  0  0  0  0  0
  188.6070  176.7790  146.5210 C   0  0  0  0  0  2  0  0  0  0  0  0
  189.6750  175.7050  146.7410 C   0  0  1  0  0  3  0  0  0  0  0  0
  189.9480  175.0600  145.5340 O   0  0  0  0  0  0  0  0  0  0  0  0
  189.6840  173.7130  145.7820 C   0  0  0  0  0  1  0  0  0  0  0  0
  190.9810  176.2390  147.3600 C   0  0  2  0  0  3  0  0  0  0  0  0
  190.7620  177.5610  148.0790 C   0  0  0  0  0  2  0  0  0  0  0  0
  191.4580  177.5530  149.4260 C   0  0  0  0  0  1  0  0  0  0  0  0
  192.1070  176.3840  146.3430 C   0  0  0  0  0  2  0  0  0  0  0  0
  193.1050  175.3480  146.5500 N   0  0  0  0  0  2  0  0  0  0  0  0
  194.2680  177.2900  145.6760 C   0  0  0  0  0  1  0  0  0  0  0  0
  194.4120  175.9710  146.4080 C   0  0  2  0  0  3  0  0  0  0  0  0
  196.1380  174.1680  146.3560 O   0  0  0  0  0  1  0  0  0  0  0  0
  195.3390  175.0680  145.6590 C   0  0  0  0  0  0  0  0  0  0  0  0
  195.4310  175.1430  144.4050 O   0  0  0  0  0  0  0  0  0  0  0  0
  1  3  1  0  0  0  0
  2  3  2  0  0  0  0
  3  7  1  0  0  0  0
  4  2  1  0  0  0  0
  5  4  1  0  0  0  0
  5  1  2  0  0  0  0
  7  6  3  0  0  0  0
  8 10  1  6  0  0  0
  8 11  1  0  0  0  0
  8  4  1  0  0  0  0
  9 10  1  0  0  0  0
 11 12  1  0  0  0  0
 12 16  1  0  0  0  0
 13 17  1  0  0  0  0
 14 13  1  0  0  0  0
 14 16  1  0  0  0  0
 15 14  2  0  0  0  0
 15 13  1  0  0  0  0
 18 17  1  0  0  0  0
 19 26  1  0  0  0  0
 21 20  1  6  0  0  0
 21 25  1  0  0  0  0
 21 22  1  0  0  0  0
 22 26  1  0  0  0  0
 23 18  1  6  0  0  0
 23 20  1  0  0  0  0
 23 24  1  0  0  0  0
 25 24  1  6  0  0  0
 25 19  1  0  0  0  0
 27  1  1  0  0  0  0
 27 28  1  0  0  0  0
 28 29  1  0  0  0  0
 30 29  1  6  0  0  0
 30 31  1  0  0  0  0
 31 32  1  0  0  0  0
 31 35  1  1  0  0  0
 33 32  1  0  0  0  0
 34 30  1  0  0  0  0
 34 33  1  0  0  0  0
 36 37  1  0  0  0  0
 36 35  1  0  0  0  0
 38 37  1  6  0  0  0
 38 41  1  0  0  0  0
 39 40  1  0  0  0  0
 39 38  1  0  0  0  0
 41 44  1  6  0  0  0
 41 42  1  0  0  0  0
 42 43  1  0  0  0  0
 44 45  1  0  0  0  0
 47 46  1  6  0  0  0
 47 45  1  0  0  0  0
 49 48  1  0  0  0  0
 49 47  1  0  0  0  0
 50 49  2  0  0  0  0
M  END
>  <MODEL>
7

>  <REMARK>
 VINA RESULT:      -5.4      3.005      4.236
  Name = 
  24 active torsions:
  status: ('A' for Active; 'I' for Inactive)
    1  A    between atoms: O_2  and  C_16
    2  A    between atoms: N_5  and  CA_17
    3  A    between atoms: N_5  and  C_46
    4  A    between atoms: N_6  and  C_23
    5  A    between atoms: N_6  and  C_31
    6  A    between atoms: N_7  and  N_45
    7  A    between atoms: C_9  and  C_49
    8  A    between atoms: C_14  and  CA_17
    9  A    between atoms: C_16  and  C_23
   10  A    between atoms: C_16  and  C_47
   11  A    between atoms: C_19  and  C_22
   12  A    between atoms: N_20  and  C_22
   13  A    between atoms: N_20  and  C_49
   14  A    between atoms: C_24  and  C_47
   15  A    between atoms: C_25  and  C_34
   16  A    between atoms: C_25  and  N_41
   17  A    between atoms: C_28  and  C_32
   18  A    between atoms: C_29  and  C_38
   19  A    between atoms: C_30  and  C_31
   20  A    between atoms: C_32  and  N_45
   21  A    between atoms: C_33  and  C_35
   22  A    between atoms: C_34  and  C_35
   23  A    between atoms: C_35  and  N_48
   24  A    between atoms: C_46  and  C_47
                            x       y       z     vdW  Elec       q    Type
                         _______ _______ _______ _____ _____    ______ ____

>  <TORSDO>
F 24

$$$$
=
 OpenBabel11042415523D

 50 54  0  0  1  0  0  0  0  0999 V2000
  188.6020  175.8330  146.4680 C   0  0  0  0  0  0  0  0  0  0  0  0
  188.1990  178.0000  146.4700 N   0  0  0  0  0  0  0  0  0  0  0  0
  189.0600  177.0600  146.8960 C   0  0  0  0  0  0  0  0  0  0  0  0
  187.2600  177.3480  145.8010 N   0  0  0  0  0  0  0  0  0  0  0  0
  187.4600  176.0330  145.7880 N   0  0  0  0  0  0  0  0  0  0  0  0
  191.1920  177.5410  148.2940 N   0  0  0  0  0  0  0  0  0  0  0  0
  190.2400  177.3270  147.6720 C   0  0  0  0  0  0  0  0  0  0  0  0
  186.0860  178.0090  145.2370 C   0  0  1  0  0  3  0  0  0  0  0  0
  184.6710  178.3800  147.2670 C   0  0  0  0  0  1  0  0  0  0  0  0
  185.4960  179.0490  146.1850 C   0  0  0  0  0  2  0  0  0  0  0  0
  186.3900  178.5740  143.8510 C   0  0  0  0  0  2  0  0  0  0  0  0
  185.7190  177.7900  142.7330 C   0  0  0  0  0  2  0  0  0  0  0  0
  188.8890  175.6380  142.0660 N   0  0  0  0  0  0  0  0  0  0  0  0
  187.7830  176.4030  142.3950 C   0  0  0  0  0  0  0  0  0  0  0  0
  189.0070  176.9580  142.4380 N   0  0  0  0  0  0  0  0  0  0  0  0
  186.3760  176.5020  142.5890 N   0  0  0  0  0  2  0  0  0  0  0  0
  189.4580  174.4280  141.6500 N   0  0  0  0  0  2  0  0  0  0  0  0
  188.3820  173.5900  141.1410 C   0  0  0  0  0  2  0  0  0  0  0  0
  189.5270  173.8710  136.6930 N   0  0  0  0  0  2  0  0  0  0  0  0
  190.4050  172.8880  139.8610 C   0  0  0  0  0  2  0  0  0  0  0  0
  190.5240  172.9800  138.4280 N   0  0  2  0  0  0  0  0  0  0  0  0
  191.6300  173.6410  137.7960 C   0  0  0  0  0  2  0  0  0  0  0  0
  188.8910  172.6900  140.0240 C   0  0  2  0  0  3  0  0  0  0  0  0
  188.3340  173.1380  138.6610 C   0  0  0  0  0  2  0  0  0  0  0  0
  189.4740  173.8150  138.0880 N   0  0  2  0  0  0  0  0  0  0  0  0
  190.9720  174.0420  136.4700 C   0  0  0  0  0  2  0  0  0  0  0  0
  189.2050  174.4960  146.7250 C   0  0  0  0  0  2  0  0  0  0  0  0
  190.6510  174.5780  146.6310 N   0  0  0  0  0  2  0  0  0  0  0  0
  190.9760  174.5310  145.2120 C   0  0  0  0  0  2  0  0  0  0  0  0
  192.4120  174.9850  144.9570 C   0  0  1  0  0  3  0  0  0  0  0  0
  192.4960  176.4600  144.5990 C   0  0  1  0  0  3  0  0  0  0  0  0
  193.7950  176.9420  145.1980 C   0  0  0  0  0  2  0  0  0  0  0  0
  194.0000  176.0950  146.4340 C   0  0  0  0  0  2  0  0  0  0  0  0
  193.2990  174.7730  146.1760 C   0  0  0  0  0  2  0  0  0  0  0  0
  192.5070  176.6630  143.0920 C   0  0  0  0  0  2  0  0  0  0  0  0
  193.0610  175.4850  142.4470 N   0  0  0  0  0  2  0  0  0  0  0  0
  194.2770  175.8980  141.7620 C   0  0  0  0  0  2  0  0  0  0  0  0
  195.3590  174.8220  141.8760 C   0  0  1  0  0  3  0  0  0  0  0  0
  196.6130  175.3900  141.6430 O   0  0  0  0  0  0  0  0  0  0  0  0
  196.4170  176.7620  141.7990 C   0  0  0  0  0  1  0  0  0  0  0  0
  195.3610  174.0780  143.2260 C   0  0  2  0  0  3  0  0  0  0  0  0
  196.7750  173.8420  143.7350 C   0  0  0  0  0  2  0  0  0  0  0  0
  196.8630  174.1560  145.2150 C   0  0  0  0  0  1  0  0  0  0  0  0
  194.5990  172.7590  143.1810 C   0  0  0  0  0  2  0  0  0  0  0  0
  194.2570  172.4250  141.8080 N   0  0  0  0  0  2  0  0  0  0  0  0
  193.9430  170.2630  142.8640 C   0  0  0  0  0  1  0  0  0  0  0  0
  193.4010  171.2500  141.8490 C   0  0  2  0  0  3  0  0  0  0  0  0
  193.2250  169.2270  140.3970 O   0  0  0  0  0  1  0  0  0  0  0  0
  193.3330  170.6100  140.5000 C   0  0  0  0  0  0  0  0  0  0  0  0
  193.4110  171.3090  139.4550 O   0  0  0  0  0  0  0  0  0  0  0  0
  1 27  1  0  0  0  0
  1  3  1  0  0  0  0
  2  3  2  0  0  0  0
  3  7  1  0  0  0  0
  4  2  1  0  0  0  0
  5  4  1  0  0  0  0
  5  1  2  0  0  0  0
  7  6  3  0  0  0  0
  8 11  1  6  0  0  0
  8  4  1  0  0  0  0
  8 10  1  0  0  0  0
 10  9  1  0  0  0  0
 12 11  1  0  0  0  0
 13 14  1  0  0  0  0
 13 15  1  0  0  0  0
 14 15  2  0  0  0  0
 14 16  1  0  0  0  0
 16 12  1  0  0  0  0
 17 13  1  0  0  0  0
 18 17  1  0  0  0  0
 19 25  1  0  0  0  0
 20 23  1  0  0  0  0
 21 22  1  1  0  0  0
 21 20  1  0  0  0  0
 23 18  1  1  0  0  0
 24 23  1  0  0  0  0
 25 21  1  0  0  0  0
 25 24  1  6  0  0  0
 26 19  1  0  0  0  0
 26 22  1  0  0  0  0
 28 27  1  0  0  0  0
 29 28  1  0  0  0  0
 30 29  1  1  0  0  0
 30 34  1  0  0  0  0
 31 35  1  6  0  0  0
 31 30  1  0  0  0  0
 31 32  1  0  0  0  0
 32 33  1  0  0  0  0
 34 33  1  0  0  0  0
 36 35  1  0  0  0  0
 37 36  1  0  0  0  0
 38 37  1  1  0  0  0
 38 41  1  0  0  0  0
 39 40  1  0  0  0  0
 39 38  1  0  0  0  0
 41 44  1  6  0  0  0
 41 42  1  0  0  0  0
 42 43  1  0  0  0  0
 45 47  1  0  0  0  0
 45 44  1  0  0  0  0
 47 46  1  1  0  0  0
 48 49  1  0  0  0  0
 49 47  1  0  0  0  0
 50 49  2  0  0  0  0
M  END
>  <MODEL>
8

>  <REMARK>
 VINA RESULT:      -5.2      2.449      7.434
  Name = 
  24 active torsions:
  status: ('A' for Active; 'I' for Inactive)
    1  A    between atoms: O_2  and  C_16
    2  A    between atoms: N_5  and  CA_17
    3  A    between atoms: N_5  and  C_46
    4  A    between atoms: N_6  and  C_23
    5  A    between atoms: N_6  and  C_31
    6  A    between atoms: N_7  and  N_45
    7  A    between atoms: C_9  and  C_49
    8  A    between atoms: C_14  and  CA_17
    9  A    between atoms: C_16  and  C_23
   10  A    between atoms: C_16  and  C_47
   11  A    between atoms: C_19  and  C_22
   12  A    between atoms: N_20  and  C_22
   13  A    between atoms: N_20  and  C_49
   14  A    between atoms: C_24  and  C_47
   15  A    between atoms: C_25  and  C_34
   16  A    between atoms: C_25  and  N_41
   17  A    between atoms: C_28  and  C_32
   18  A    between atoms: C_29  and  C_38
   19  A    between atoms: C_30  and  C_31
   20  A    between atoms: C_32  and  N_45
   21  A    between atoms: C_33  and  C_35
   22  A    between atoms: C_34  and  C_35
   23  A    between atoms: C_35  and  N_48
   24  A    between atoms: C_46  and  C_47
                            x       y       z     vdW  Elec       q    Type
                         _______ _______ _______ _____ _____    ______ ____

>  <TORSDO>
F 24

$$$$
=
 OpenBabel11042415523D

 50 54  0  0  1  0  0  0  0  0999 V2000
  193.0230  174.7850  145.0660 C   0  0  0  0  0  0  0  0  0  0  0  0
  194.5890  175.5620  146.4100 N   0  0  0  0  0  0  0  0  0  0  0  0
  193.2600  175.5090  146.2150 C   0  0  0  0  0  0  0  0  0  0  0  0
  195.1250  174.8810  145.4080 N   0  0  0  0  0  0  0  0  0  0  0  0
  194.2120  174.4070  144.5650 N   0  0  0  0  0  0  0  0  0  0  0  0
  191.5010  176.6200  147.7650 N   0  0  0  0  0  0  0  0  0  0  0  0
  192.2840  176.1230  147.0740 C   0  0  0  0  0  0  0  0  0  0  0  0
  196.5670  174.7680  145.2100 C   0  0  1  0  0  3  0  0  0  0  0  0
  196.6530  172.3000  145.6140 C   0  0  0  0  0  1  0  0  0  0  0  0
  197.1810  173.6520  146.0510 C   0  0  0  0  0  2  0  0  0  0  0  0
  196.9080  174.6470  143.7260 C   0  0  0  0  0  2  0  0  0  0  0  0
  197.4100  175.9520  143.1270 C   0  0  0  0  0  2  0  0  0  0  0  0
  197.1240  175.0390  139.3570 N   0  0  0  0  0  0  0  0  0  0  0  0
  197.1620  175.2970  140.7160 C   0  0  0  0  0  0  0  0  0  0  0  0
  197.7150  174.1680  140.2440 N   0  0  0  0  0  0  0  0  0  0  0  0
  196.8160  176.1370  141.8140 N   0  0  0  0  0  2  0  0  0  0  0  0
  196.7660  175.4030  138.0530 N   0  0  0  0  0  2  0  0  0  0  0  0
  197.8170  174.9280  137.1630 C   0  0  0  0  0  2  0  0  0  0  0  0
  196.8070  170.4710  137.6910 N   0  0  0  0  0  2  0  0  0  0  0  0
  195.8160  173.5590  136.5730 C   0  0  0  0  0  2  0  0  0  0  0  0
  195.7410  172.1310  136.7380 N   0  0  2  0  0  0  0  0  0  0  0  0
  194.6680  171.5020  137.4560 C   0  0  0  0  0  2  0  0  0  0  0  0
  197.3210  173.7540  136.3310 C   0  0  2  0  0  3  0  0  0  0  0  0
  197.9260  172.4320  136.8330 C   0  0  0  0  0  2  0  0  0  0  0  0
  196.8180  171.8620  137.5640 N   0  0  2  0  0  0  0  0  0  0  0  0
  195.3730  170.2160  137.9060 C   0  0  0  0  0  2  0  0  0  0  0  0
  191.7100  174.4880  144.4320 C   0  0  0  0  0  2  0  0  0  0  0  0
  191.1420  175.7020  143.8760 N   0  0  0  0  0  2  0  0  0  0  0  0
  191.1940  175.5580  142.4270 C   0  0  0  0  0  2  0  0  0  0  0  0
  190.2840  174.4280  141.9500 C   0  0  1  0  0  3  0  0  0  0  0  0
  188.9070  174.9280  141.5420 C   0  0  1  0  0  3  0  0  0  0  0  0
  188.4860  174.0440  140.3930 C   0  0  0  0  0  2  0  0  0  0  0  0
  189.7720  173.6640  139.6930 C   0  0  0  0  0  2  0  0  0  0  0  0
  190.8660  173.7010  140.7450 C   0  0  0  0  0  2  0  0  0  0  0  0
  187.9150  174.8080  142.6870 C   0  0  0  0  0  2  0  0  0  0  0  0
  186.7620  175.6500  142.4220 N   0  0  0  0  0  2  0  0  0  0  0  0
  187.1320  177.0140  142.7740 C   0  0  0  0  0  2  0  0  0  0  0  0
  186.8910  177.2770  144.2630 C   0  0  1  0  0  3  0  0  0  0  0  0
  188.1070  177.5280  144.8990 O   0  0  0  0  0  0  0  0  0  0  0  0
  188.1440  176.6290  145.9650 C   0  0  0  0  0  1  0  0  0  0  0  0
  185.9030  178.4260  144.5420 C   0  0  2  0  0  3  0  0  0  0  0  0
  184.8080  178.0030  145.5090 C   0  0  0  0  0  2  0  0  0  0  0  0
  185.1980  178.3460  146.9330 C   0  0  0  0  0  1  0  0  0  0  0  0
  185.2810  179.0000  143.2740 C   0  0  0  0  0  2  0  0  0  0  0  0
  183.8800  178.6230  143.1900 N   0  0  0  0  0  2  0  0  0  0  0  0
  184.6880  178.5860  140.9020 C   0  0  0  0  0  1  0  0  0  0  0  0
  183.6690  178.0320  141.8780 C   0  0  2  0  0  3  0  0  0  0  0  0
  181.8770  177.8530  140.1490 O   0  0  0  0  0  0  0  0  0  0  0  0
  182.2850  178.3230  141.3930 C   0  0  0  0  0  0  0  0  0  0  0  0
  181.4990  179.0240  142.0830 O   0  0  0  0  0  1  0  0  0  0  0  0
  1  3  1  0  0  0  0
  3  2  2  0  0  0  0
  3  7  1  0  0  0  0
  4  2  1  0  0  0  0
  5  1  2  0  0  0  0
  5  4  1  0  0  0  0
  7  6  3  0  0  0  0
  8 11  1  6  0  0  0
  8  4  1  0  0  0  0
  8 10  1  0  0  0  0
  9 10  1  0  0  0  0
 12 11  1  0  0  0  0
 13 15  1  0  0  0  0
 13 14  1  0  0  0  0
 14 16  1  0  0  0  0
 15 14  2  0  0  0  0
 16 12  1  0  0  0  0
 17 13  1  0  0  0  0
 18 17  1  0  0  0  0
 19 26  1  0  0  0  0
 21 20  1  1  0  0  0
 21 22  1  0  0  0  0
 21 25  1  0  0  0  0
 22 26  1  0  0  0  0
 23 20  1  0  0  0  0
 23 24  1  0  0  0  0
 23 18  1  1  0  0  0
 25 24  1  6  0  0  0
 25 19  1  0  0  0  0
 27  1  1  0  0  0  0
 28 27  1  0  0  0  0
 29 28  1  0  0  0  0
 30 29  1  6  0  0  0
 31 30  1  0  0  0  0
 31 35  1  1  0  0  0
 32 31  1  0  0  0  0
 33 32  1  0  0  0  0
 33 34  1  0  0  0  0
 34 30  1  0  0  0  0
 36 35  1  0  0  0  0
 36 37  1  0  0  0  0
 38 37  1  6  0  0  0
 38 41  1  0  0  0  0
 38 39  1  0  0  0  0
 39 40  1  0  0  0  0
 41 44  1  6  0  0  0
 41 42  1  0  0  0  0
 42 43  1  0  0  0  0
 45 44  1  0  0  0  0
 47 46  1  6  0  0  0
 47 45  1  0  0  0  0
 48 49  2  0  0  0  0
 49 47  1  0  0  0  0
 49 50  1  0  0  0  0
M  END
>  <MODEL>
9

>  <REMARK>
 VINA RESULT:      -5.2      3.698      7.842
  Name = 
  24 active torsions:
  status: ('A' for Active; 'I' for Inactive)
    1  A    between atoms: O_2  and  C_16
    2  A    between atoms: N_5  and  CA_17
    3  A    between atoms: N_5  and  C_46
    4  A    between atoms: N_6  and  C_23
    5  A    between atoms: N_6  and  C_31
    6  A    between atoms: N_7  and  N_45
    7  A    between atoms: C_9  and  C_49
    8  A    between atoms: C_14  and  CA_17
    9  A    between atoms: C_16  and  C_23
   10  A    between atoms: C_16  and  C_47
   11  A    between atoms: C_19  and  C_22
   12  A    between atoms: N_20  and  C_22
   13  A    between atoms: N_20  and  C_49
   14  A    between atoms: C_24  and  C_47
   15  A    between atoms: C_25  and  C_34
   16  A    between atoms: C_25  and  N_41
   17  A    between atoms: C_28  and  C_32
   18  A    between atoms: C_29  and  C_38
   19  A    between atoms: C_30  and  C_31
   20  A    between atoms: C_32  and  N_45
   21  A    between atoms: C_33  and  C_35
   22  A    between atoms: C_34  and  C_35
   23  A    between atoms: C_35  and  N_48
   24  A    between atoms: C_46  and  C_47
                            x       y       z     vdW  Elec       q    Type
                         _______ _______ _______ _____ _____    ______ ____

>  <TORSDO>
F 24

$$$$
