=
 OpenBabel11042417273D

 29 31  0  0  1  0  0  0  0  0999 V2000
  188.6580  176.2690  145.8220 N   0  0  0  0  0  0  0  0  0  0  0  0
  188.5710  177.5490  143.7550 C   0  0  0  0  0  3  0  0  0  0  0  0
  188.3860  176.4100  144.4140 C   0  0  0  0  0  3  0  0  0  0  0  0
  188.2810  177.6190  142.3630 N   0  0  0  0  0  2  0  0  0  0  0  0
  187.8200  175.7080  141.1070 O   0  0  0  0  0  1  0  0  0  0  0  0
  187.2440  176.7860  141.7800 C   0  0  2  0  0  3  0  0  0  0  0  0
  186.4190  177.5920  140.8350 C   0  0  0  0  0  0  0  0  0  0  0  0
  186.6810  177.5360  139.4730 O   0  0  0  0  0  0  0  0  0  0  0  0
  185.4790  178.3130  141.2640 O   0  0  0  0  0  1  0  0  0  0  0  0
  188.3510  177.3260  146.7510 C   0  0  0  0  0  3  0  0  0  0  0  0
  187.1360  177.6510  147.2090 C   0  0  0  0  0  3  0  0  0  0  0  0
  185.8690  176.9420  146.8680 C   0  0  0  0  0  2  0  0  0  0  0  0
  184.0820  178.8310  144.7180 C   0  0  0  0  0  2  0  0  0  0  0  0
  184.0690  178.6480  146.1010 N   0  0  0  0  0  0  0  0  0  0  0  0
  185.0650  177.7760  145.9330 C   0  0  0  0  0  0  0  0  0  0  0  0
  185.0950  177.9670  144.5030 O   0  0  0  0  0  0  0  0  0  0  0  0
  189.3660  175.1300  146.3490 C   0  0  0  0  0  0  0  0  0  0  0  0
  188.9380  174.5580  147.4750 C   0  0  0  0  0  2  0  0  0  0  0  0
  194.2340  175.1630  145.2750 C   0  0  0  0  0  0  0  0  0  0  0  0
  192.7290  173.5980  144.2530 N   0  0  0  0  0  0  0  0  0  0  0  0
  193.3490  176.7290  146.8800 C   0  0  0  0  0  3  0  0  0  0  0  0
  194.4340  176.2150  146.1680 C   0  0  0  0  0  3  0  0  0  0  0  0
  190.4370  173.5920  144.7860 N   0  0  0  0  0  0  0  0  0  0  0  0
  191.4870  173.0770  144.0950 C   0  0  0  0  0  3  0  0  0  0  0  0
  195.3410  174.6330  144.5530 N   0  0  0  0  0  1  0  0  0  0  0  0
  192.1060  176.2080  146.7010 N   0  0  0  0  0  0  0  0  0  0  0  0
  191.8720  175.1850  145.8320 C   0  0  0  0  0  0  0  0  0  0  0  0
  192.9470  174.6340  145.1030 C   0  0  0  0  0  0  0  0  0  0  0  0
  190.5830  174.6350  145.6490 C   0  0  0  0  0  0  0  0  0  0  0  0
  1 17  1  0  0  0  0
  1 10  1  0  0  0  0
  2  3  2  0  0  0  0
  3  1  1  0  0  0  0
  4  2  1  0  0  0  0
  6  5  1  6  0  0  0
  6  4  1  0  0  0  0
  7  9  1  0  0  0  0
  7  6  1  0  0  0  0
  8  7  2  0  0  0  0
 10 11  2  0  0  0  0
 12 11  1  0  0  0  0
 13 14  1  0  0  0  0
 15 14  2  0  0  0  0
 15 12  1  0  0  0  0
 16 13  1  0  0  0  0
 16 15  1  0  0  0  0
 17 18  2  0  0  0  0
 19 22  1  0  0  0  0
 20 28  1  0  0  0  0
 22 21  2  0  0  0  0
 23 29  2  0  0  0  0
 24 20  2  0  0  0  0
 24 23  1  0  0  0  0
 25 19  1  0  0  0  0
 26 21  1  0  0  0  0
 27 26  2  0  0  0  0
 28 19  2  0  0  0  0
 28 27  1  0  0  0  0
 29 27  1  0  0  0  0
 29 17  1  0  0  0  0
M  END
>  <MODEL>
1

>  <REMARK>
 VINA RESULT:      -6.6      0.000      0.000
  Name = 
  9 active torsions:
  status: ('A' for Active; 'I' for Inactive)
    1  A    between atoms: C_1  and  N_17
    2  A    between atoms: N_2  and  C_9
    3  A    between atoms: N_2  and  C_24
    4  A    between atoms: N_2  and  C_28
    5  A    between atoms: C_4  and  C_25
    6  A    between atoms: C_10  and  C_12
    7  A    between atoms: C_10  and  C_23
    8  A    between atoms: N_17  and  C_25
    9  A    between atoms: C_24  and  C_26
                            x       y       z     vdW  Elec       q    Type
                         _______ _______ _______ _____ _____    ______ ____

>  <TORSDO>
F 9

$$$$
=
 OpenBabel11042417273D

 29 32  0  0  1  0  0  0  0  0999 V2000
  189.1490  176.4530  144.6300 N   0  0  0  0  0  0  0  0  0  0  0  0
  188.8410  177.7660  142.6050 C   0  0  0  0  0  3  0  0  0  0  0  0
  188.4050  176.8500  143.4620 C   0  0  0  0  0  2  0  0  0  0  0  0
  188.0540  178.1120  141.4710 N   0  0  0  0  0  0  0  0  0  0  0  0
  186.8880  176.9430  139.8230 O   0  0  0  0  0  1  0  0  0  0  0  0
  186.8490  177.3660  141.1520 C   0  0  2  0  0  3  0  0  0  0  0  0
  185.6500  178.2240  141.3770 C   0  0  0  0  0  0  0  0  0  0  0  0
  185.4540  178.8220  142.6140 O   0  0  0  0  0  1  0  0  0  0  0  0
  184.8230  178.4200  140.4470 O   0  0  0  0  0  0  0  0  0  0  0  0
  189.1470  177.2570  145.8250 C   0  0  0  0  0  3  0  0  0  0  0  0
  188.1470  177.3580  146.7100 C   0  0  0  0  0  3  0  0  0  0  0  0
  186.8550  176.6170  146.6390 C   0  0  0  0  0  2  0  0  0  0  0  0
  184.3060  178.7510  146.0660 C   0  0  2  0  0  3  0  0  0  0  0  0
  185.6950  178.8700  146.0740 N   0  0  0  0  0  2  0  0  0  0  0  0
  185.7420  177.5740  146.3920 C   0  0  1  0  0  0  0  0  0  0  0  0
  184.3070  177.4380  146.3730 O   0  0  0  0  0  0  0  0  0  0  0  0
  190.0320  175.3140  144.6180 C   0  0  0  0  0  0  0  0  0  0  0  0
  189.6600  174.1920  145.2350 C   0  0  0  0  0  2  0  0  0  0  0  0
  194.9010  176.3750  144.4830 C   0  0  0  0  0  0  0  0  0  0  0  0
  193.7330  175.5720  142.5470 N   0  0  0  0  0  0  0  0  0  0  0  0
  193.6720  176.6390  146.5400 C   0  0  0  0  0  3  0  0  0  0  0  0
  194.8720  176.7280  145.8330 C   0  0  0  0  0  3  0  0  0  0  0  0
  191.4370  175.0640  142.6380 N   0  0  0  0  0  0  0  0  0  0  0  0
  192.6010  175.1360  141.9410 C   0  0  0  0  0  3  0  0  0  0  0  0
  196.1260  176.4580  143.7610 N   0  0  0  0  0  1  0  0  0  0  0  0
  192.5400  176.2150  145.9170 N   0  0  0  0  0  0  0  0  0  0  0  0
  192.5310  175.8700  144.5990 C   0  0  0  0  0  0  0  0  0  0  0  0
  193.7270  175.9380  143.8550 C   0  0  0  0  0  0  0  0  0  0  0  0
  191.3580  175.4220  143.9490 C   0  0  0  0  0  0  0  0  0  0  0  0
  1 10  1  0  0  0  0
  2  3  1  0  0  0  0
  3  1  1  0  0  0  0
  4  2  2  0  0  0  0
  6  5  1  6  0  0  0
  6  7  1  0  0  0  0
  6  4  1  0  0  0  0
  7  8  1  0  0  0  0
  9  7  2  0  0  0  0
 10 11  2  0  0  0  0
 12 11  1  0  0  0  0
 13 14  1  6  0  0  0
 13 16  1  0  0  0  0
 13 15  1  0  0  0  0
 14 15  1  0  0  0  0
 15 12  1  1  0  0  0
 16 15  1  0  0  0  0
 17  1  1  0  0  0  0
 17 18  2  0  0  0  0
 19 22  1  0  0  0  0
 20 28  1  0  0  0  0
 22 21  2  0  0  0  0
 23 29  2  0  0  0  0
 24 20  2  0  0  0  0
 24 23  1  0  0  0  0
 25 19  1  0  0  0  0
 26 21  1  0  0  0  0
 27 26  2  0  0  0  0
 28 19  2  0  0  0  0
 28 27  1  0  0  0  0
 29 27  1  0  0  0  0
 29 17  1  0  0  0  0
M  END
>  <MODEL>
2

>  <REMARK>
 VINA RESULT:      -6.5      1.515      1.794
  Name = 
  9 active torsions:
  status: ('A' for Active; 'I' for Inactive)
    1  A    between atoms: C_1  and  N_17
    2  A    between atoms: N_2  and  C_9
    3  A    between atoms: N_2  and  C_24
    4  A    between atoms: N_2  and  C_28
    5  A    between atoms: C_4  and  C_25
    6  A    between atoms: C_10  and  C_12
    7  A    between atoms: C_10  and  C_23
    8  A    between atoms: N_17  and  C_25
    9  A    between atoms: C_24  and  C_26
                            x       y       z     vdW  Elec       q    Type
                         _______ _______ _______ _____ _____    ______ ____

>  <TORSDO>
F 9

$$$$
=
 OpenBabel11042417273D

 29 31  0  0  1  0  0  0  0  0999 V2000
  189.6870  176.1130  145.4080 N   0  0  0  0  0  0  0  0  0  0  0  0
  190.0360  173.9150  144.4260 C   0  0  0  0  0  3  0  0  0  0  0  0
  189.3330  174.7310  145.2030 C   0  0  0  0  0  3  0  0  0  0  0  0
  189.6290  172.5600  144.2660 N   0  0  0  0  0  2  0  0  0  0  0  0
  190.9730  171.6650  142.5840 O   0  0  0  0  0  1  0  0  0  0  0  0
  189.6550  171.9290  142.9580 C   0  0  2  0  0  3  0  0  0  0  0  0
  189.0110  172.8230  141.9530 C   0  0  0  0  0  0  0  0  0  0  0  0
  187.6360  173.0080  141.9780 O   0  0  0  0  0  1  0  0  0  0  0  0
  189.7090  173.4220  141.0920 O   0  0  0  0  0  0  0  0  0  0  0  0
  189.9830  176.6200  146.7240 C   0  0  0  0  0  3  0  0  0  0  0  0
  191.0510  176.3120  147.4700 C   0  0  0  0  0  3  0  0  0  0  0  0
  192.1620  175.4090  147.0530 C   0  0  0  0  0  2  0  0  0  0  0  0
  194.6000  177.2450  145.6150 C   0  0  0  0  0  2  0  0  0  0  0  0
  193.6490  176.3410  145.1400 N   0  0  0  0  0  0  0  0  0  0  0  0
  193.2380  176.2050  146.4030 C   0  0  0  0  0  0  0  0  0  0  0  0
  194.2100  177.1470  146.9020 O   0  0  0  0  0  0  0  0  0  0  0  0
  189.6330  177.0790  144.3400 C   0  0  0  0  0  0  0  0  0  0  0  0
  190.6220  177.9620  144.2060 C   0  0  0  0  0  2  0  0  0  0  0  0
  184.9020  178.1220  143.1630 C   0  0  0  0  0  0  0  0  0  0  0  0
  186.3750  177.0340  141.6130 N   0  0  0  0  0  0  0  0  0  0  0  0
  185.7650  178.7430  145.3270 C   0  0  0  0  0  3  0  0  0  0  0  0
  184.7080  178.7030  144.4160 C   0  0  0  0  0  3  0  0  0  0  0  0
  188.6080  176.5630  142.1850 N   0  0  0  0  0  0  0  0  0  0  0  0
  187.5900  176.5280  141.2870 C   0  0  0  0  0  3  0  0  0  0  0  0
  183.8270  178.0870  142.2300 N   0  0  0  0  0  1  0  0  0  0  0  0
  186.9740  178.2180  144.9940 N   0  0  0  0  0  0  0  0  0  0  0  0
  187.1980  177.6380  143.7820 C   0  0  0  0  0  0  0  0  0  0  0  0
  186.1550  177.5880  142.8330 C   0  0  0  0  0  0  0  0  0  0  0  0
  188.4550  177.0970  143.4290 C   0  0  0  0  0  0  0  0  0  0  0  0
  1 10  1  0  0  0  0
  2  3  2  0  0  0  0
  3  1  1  0  0  0  0
  4  2  1  0  0  0  0
  6  5  1  6  0  0  0
  6  4  1  0  0  0  0
  7  8  1  0  0  0  0
  7  6  1  0  0  0  0
  9  7  2  0  0  0  0
 10 11  2  0  0  0  0
 12 11  1  0  0  0  0
 13 16  1  0  0  0  0
 14 13  1  0  0  0  0
 14 15  2  0  0  0  0
 15 16  1  0  0  0  0
 15 12  1  0  0  0  0
 17  1  1  0  0  0  0
 18 17  2  0  0  0  0
 19 22  1  0  0  0  0
 20 28  1  0  0  0  0
 22 21  2  0  0  0  0
 23 29  2  0  0  0  0
 24 20  2  0  0  0  0
 24 23  1  0  0  0  0
 25 19  1  0  0  0  0
 26 21  1  0  0  0  0
 27 26  2  0  0  0  0
 28 19  2  0  0  0  0
 28 27  1  0  0  0  0
 29 27  1  0  0  0  0
 29 17  1  0  0  0  0
M  END
>  <MODEL>
3

>  <REMARK>
 VINA RESULT:      -6.5      2.675      6.824
  Name = 
  9 active torsions:
  status: ('A' for Active; 'I' for Inactive)
    1  A    between atoms: C_1  and  N_17
    2  A    between atoms: N_2  and  C_9
    3  A    between atoms: N_2  and  C_24
    4  A    between atoms: N_2  and  C_28
    5  A    between atoms: C_4  and  C_25
    6  A    between atoms: C_10  and  C_12
    7  A    between atoms: C_10  and  C_23
    8  A    between atoms: N_17  and  C_25
    9  A    between atoms: C_24  and  C_26
                            x       y       z     vdW  Elec       q    Type
                         _______ _______ _______ _____ _____    ______ ____

>  <TORSDO>
F 9

$$$$
=
 OpenBabel11042417273D

 29 32  0  0  1  0  0  0  0  0999 V2000
  189.8540  176.8020  145.1800 N   0  0  0  0  0  0  0  0  0  0  0  0
  188.7110  176.5730  143.0450 C   0  0  0  0  0  3  0  0  0  0  0  0
  189.4580  177.2840  143.8810 C   0  0  0  0  0  3  0  0  0  0  0  0
  188.3570  177.1100  141.7750 N   0  0  0  0  0  2  0  0  0  0  0  0
  186.8840  177.6640  140.0540 O   0  0  0  0  0  1  0  0  0  0  0  0
  186.9830  177.0580  141.3070 C   0  0  2  0  0  3  0  0  0  0  0  0
  186.0920  177.7540  142.2790 C   0  0  0  0  0  0  0  0  0  0  0  0
  186.2990  179.0970  142.5620 O   0  0  0  0  0  0  0  0  0  0  0  0
  185.1450  177.1350  142.8330 O   0  0  0  0  0  1  0  0  0  0  0  0
  189.4290  177.4690  146.3850 C   0  0  0  0  0  3  0  0  0  0  0  0
  188.2050  177.4260  146.9240 C   0  0  0  0  0  3  0  0  0  0  0  0
  187.0560  176.6390  146.3930 C   0  0  0  0  0  2  0  0  0  0  0  0
  184.3240  178.5960  146.0960 C   0  0  2  0  0  3  0  0  0  0  0  0
  185.6950  178.8040  145.9490 N   0  0  0  0  0  2  0  0  0  0  0  0
  185.8620  177.5180  146.2660 C   0  0  1  0  0  0  0  0  0  0  0  0
  184.4450  177.2890  146.4090 O   0  0  0  0  0  0  0  0  0  0  0  0
  190.7940  175.7210  145.3360 C   0  0  0  0  0  0  0  0  0  0  0  0
  190.3400  174.4860  145.5460 C   0  0  0  0  0  2  0  0  0  0  0  0
  195.2160  176.1240  143.0710 C   0  0  0  0  0  0  0  0  0  0  0  0
  194.9560  176.5690  145.4140 N   0  0  0  0  0  0  0  0  0  0  0  0
  193.2680  175.4970  141.7970 C   0  0  0  0  0  3  0  0  0  0  0  0
  194.6360  175.7670  141.8540 C   0  0  0  0  0  3  0  0  0  0  0  0
  192.8560  176.3860  146.4600 N   0  0  0  0  0  0  0  0  0  0  0  0
  194.1850  176.6620  146.5260 C   0  0  0  0  0  3  0  0  0  0  0  0
  196.6100  176.4070  143.1300 N   0  0  0  0  0  1  0  0  0  0  0  0
  192.5080  175.5780  142.9210 N   0  0  0  0  0  0  0  0  0  0  0  0
  193.0420  175.9170  144.1280 C   0  0  0  0  0  0  0  0  0  0  0  0
  194.4190  176.2060  144.2210 C   0  0  0  0  0  0  0  0  0  0  0  0
  192.2540  176.0090  145.2980 C   0  0  0  0  0  0  0  0  0  0  0  0
  1 17  1  0  0  0  0
  1 10  1  0  0  0  0
  2  3  2  0  0  0  0
  3  1  1  0  0  0  0
  4  2  1  0  0  0  0
  6  5  1  6  0  0  0
  6  4  1  0  0  0  0
  6  7  1  0  0  0  0
  7  8  2  0  0  0  0
  7  9  1  0  0  0  0
 10 11  2  0  0  0  0
 12 11  1  0  0  0  0
 13 14  1  6  0  0  0
 13 15  1  0  0  0  0
 13 16  1  0  0  0  0
 14 15  1  0  0  0  0
 15 12  1  1  0  0  0
 15 16  1  0  0  0  0
 17 18  2  0  0  0  0
 19 25  1  0  0  0  0
 19 28  1  0  0  0  0
 20 24  1  0  0  0  0
 21 22  1  0  0  0  0
 21 26  2  0  0  0  0
 22 19  2  0  0  0  0
 23 24  2  0  0  0  0
 26 27  1  0  0  0  0
 27 28  1  0  0  0  0
 27 29  2  0  0  0  0
 28 20  2  0  0  0  0
 29 17  1  0  0  0  0
 29 23  1  0  0  0  0
M  END
>  <MODEL>
4

>  <REMARK>
 VINA RESULT:      -6.5      1.692      2.637
  Name = 
  9 active torsions:
  status: ('A' for Active; 'I' for Inactive)
    1  A    between atoms: C_1  and  N_17
    2  A    between atoms: N_2  and  C_9
    3  A    between atoms: N_2  and  C_24
    4  A    between atoms: N_2  and  C_28
    5  A    between atoms: C_4  and  C_25
    6  A    between atoms: C_10  and  C_12
    7  A    between atoms: C_10  and  C_23
    8  A    between atoms: N_17  and  C_25
    9  A    between atoms: C_24  and  C_26
                            x       y       z     vdW  Elec       q    Type
                         _______ _______ _______ _____ _____    ______ ____

>  <TORSDO>
F 9

$$$$
=
 OpenBabel11042417273D

 29 32  0  0  1  0  0  0  0  0999 V2000
  189.9140  175.9950  145.6530 N   0  0  0  0  0  0  0  0  0  0  0  0
  189.8440  174.2160  143.9950 C   0  0  0  0  0  3  0  0  0  0  0  0
  189.4460  174.7270  145.1550 C   0  0  0  0  0  3  0  0  0  0  0  0
  189.3400  172.9570  143.5620 N   0  0  0  0  0  2  0  0  0  0  0  0
  189.5480  172.3520  141.3190 O   0  0  0  0  0  1  0  0  0  0  0  0
  188.6610  172.8320  142.2840 C   0  0  2  0  0  3  0  0  0  0  0  0
  188.1260  174.1600  141.8650 C   0  0  0  0  0  0  0  0  0  0  0  0
  188.7850  174.8900  140.8860 O   0  0  0  0  0  0  0  0  0  0  0  0
  187.0720  174.6150  142.3840 O   0  0  0  0  0  1  0  0  0  0  0  0
  190.4550  176.1210  146.9830 C   0  0  0  0  0  3  0  0  0  0  0  0
  191.6440  175.6690  147.4000 C   0  0  0  0  0  3  0  0  0  0  0  0
  192.6530  174.9810  146.5450 C   0  0  0  0  0  2  0  0  0  0  0  0
  194.8400  177.2680  145.3730 C   0  0  2  0  0  3  0  0  0  0  0  0
  194.0260  176.3020  144.7810 N   0  0  0  0  0  2  0  0  0  0  0  0
  193.6210  175.9790  146.0120 C   0  0  1  0  0  0  0  0  0  0  0  0
  194.4500  176.9820  146.6330 O   0  0  0  0  0  0  0  0  0  0  0  0
  189.7440  177.2160  144.9060 C   0  0  0  0  0  0  0  0  0  0  0  0
  190.8070  177.9750  144.6450 C   0  0  0  0  0  2  0  0  0  0  0  0
  185.0110  178.5610  145.7080 C   0  0  0  0  0  0  0  0  0  0  0  0
  185.9040  178.3590  143.4900 N   0  0  0  0  0  0  0  0  0  0  0  0
  186.4680  178.1260  147.5790 C   0  0  0  0  0  3  0  0  0  0  0  0
  185.2120  178.4860  147.0860 C   0  0  0  0  0  3  0  0  0  0  0  0
  188.1450  177.7350  143.1360 N   0  0  0  0  0  0  0  0  0  0  0  0
  186.9310  178.0950  142.6450 C   0  0  0  0  0  3  0  0  0  0  0  0
  183.7330  178.9350  145.2030 N   0  0  0  0  0  1  0  0  0  0  0  0
  187.4850  177.8490  146.7200 N   0  0  0  0  0  0  0  0  0  0  0  0
  187.3220  177.9050  145.3690 C   0  0  0  0  0  0  0  0  0  0  0  0
  186.0700  178.2750  144.8350 C   0  0  0  0  0  0  0  0  0  0  0  0
  188.3790  177.6240  144.4730 C   0  0  0  0  0  0  0  0  0  0  0  0
  1 10  1  0  0  0  0
  2  3  2  0  0  0  0
  3  1  1  0  0  0  0
  4  2  1  0  0  0  0
  6  5  1  6  0  0  0
  6  4  1  0  0  0  0
  7  6  1  0  0  0  0
  7  9  1  0  0  0  0
  8  7  2  0  0  0  0
 10 11  2  0  0  0  0
 12 11  1  0  0  0  0
 13 14  1  6  0  0  0
 13 15  1  0  0  0  0
 13 16  1  0  0  0  0
 14 15  1  0  0  0  0
 15 12  1  1  0  0  0
 15 16  1  0  0  0  0
 17  1  1  0  0  0  0
 18 17  2  0  0  0  0
 19 22  1  0  0  0  0
 20 28  1  0  0  0  0
 22 21  2  0  0  0  0
 23 29  2  0  0  0  0
 24 23  1  0  0  0  0
 24 20  2  0  0  0  0
 25 19  1  0  0  0  0
 26 21  1  0  0  0  0
 27 26  2  0  0  0  0
 28 27  1  0  0  0  0
 28 19  2  0  0  0  0
 29 17  1  0  0  0  0
 29 27  1  0  0  0  0
M  END
>  <MODEL>
5

>  <REMARK>
 VINA RESULT:      -6.3      2.440      6.667
  Name = 
  9 active torsions:
  status: ('A' for Active; 'I' for Inactive)
    1  A    between atoms: C_1  and  N_17
    2  A    between atoms: N_2  and  C_9
    3  A    between atoms: N_2  and  C_24
    4  A    between atoms: N_2  and  C_28
    5  A    between atoms: C_4  and  C_25
    6  A    between atoms: C_10  and  C_12
    7  A    between atoms: C_10  and  C_23
    8  A    between atoms: N_17  and  C_25
    9  A    between atoms: C_24  and  C_26
                            x       y       z     vdW  Elec       q    Type
                         _______ _______ _______ _____ _____    ______ ____

>  <TORSDO>
F 9

$$$$
=
 OpenBabel11042417273D

 29 32  0  0  1  0  0  0  0  0999 V2000
  189.9170  176.0590  142.6790 N   0  0  0  0  0  0  0  0  0  0  0  0
  189.2330  174.1650  141.3140 C   0  0  0  0  0  3  0  0  0  0  0  0
  188.9250  175.2370  142.0350 C   0  0  0  0  0  3  0  0  0  0  0  0
  188.2010  173.3970  140.7040 N   0  0  0  0  0  2  0  0  0  0  0  0
  189.4830  171.8590  139.5080 O   0  0  0  0  0  1  0  0  0  0  0  0
  188.4180  172.7560  139.4190 C   0  0  2  0  0  3  0  0  0  0  0  0
  188.7090  173.7880  138.3830 C   0  0  0  0  0  0  0  0  0  0  0  0
  189.9710  173.8480  137.8070 O   0  0  0  0  0  0  0  0  0  0  0  0
  187.8140  174.5970  138.0190 O   0  0  0  0  0  1  0  0  0  0  0  0
  191.2350  175.5520  142.9660 C   0  0  0  0  0  3  0  0  0  0  0  0
  191.5980  174.8640  144.0550 C   0  0  0  0  0  3  0  0  0  0  0  0
  190.6860  174.4570  145.1620 C   0  0  0  0  0  2  0  0  0  0  0  0
  191.2090  176.3810  147.8840 C   0  0  2  0  0  3  0  0  0  0  0  0
  191.6180  176.4420  146.5520 N   0  0  0  0  0  2  0  0  0  0  0  0
  190.9340  175.3130  146.3550 C   0  0  1  0  0  0  0  0  0  0  0  0
  190.4960  175.2470  147.7270 O   0  0  0  0  0  0  0  0  0  0  0  0
  189.6060  177.3720  143.1840 C   0  0  0  0  0  0  0  0  0  0  0  0
  190.5990  178.2030  143.5030 C   0  0  0  0  0  2  0  0  0  0  0  0
  185.4310  177.8910  145.8590 C   0  0  0  0  0  0  0  0  0  0  0  0
  185.5350  178.5340  143.5500 N   0  0  0  0  0  0  0  0  0  0  0  0
  187.4180  177.0030  146.8960 C   0  0  0  0  0  3  0  0  0  0  0  0
  186.0770  177.3790  146.9840 C   0  0  0  0  0  3  0  0  0  0  0  0
  187.5210  178.2930  142.3100 N   0  0  0  0  0  0  0  0  0  0  0  0
  186.2190  178.6730  142.3870 C   0  0  0  0  0  3  0  0  0  0  0  0
  184.0650  178.2830  145.9490 N   0  0  0  0  0  1  0  0  0  0  0  0
  188.0880  177.1320  145.7200 N   0  0  0  0  0  0  0  0  0  0  0  0
  187.4870  177.6220  144.5990 C   0  0  0  0  0  0  0  0  0  0  0  0
  186.1360  178.0220  144.6540 C   0  0  0  0  0  0  0  0  0  0  0  0
  188.1830  177.7640  143.3770 C   0  0  0  0  0  0  0  0  0  0  0  0
  1 10  1  0  0  0  0
  1 17  1  0  0  0  0
  2  3  2  0  0  0  0
  3  1  1  0  0  0  0
  4  2  1  0  0  0  0
  6  5  1  1  0  0  0
  6  4  1  0  0  0  0
  7  6  1  0  0  0  0
  8  7  2  0  0  0  0
  9  7  1  0  0  0  0
 10 11  2  0  0  0  0
 11 12  1  0  0  0  0
 13 14  1  6  0  0  0
 15 12  1  1  0  0  0
 15 14  1  0  0  0  0
 15 16  1  0  0  0  0
 15 13  1  0  0  0  0
 16 13  1  0  0  0  0
 17 29  1  0  0  0  0
 17 18  2  0  0  0  0
 19 25  1  0  0  0  0
 19 22  1  0  0  0  0
 20 28  1  0  0  0  0
 21 22  2  0  0  0  0
 23 24  1  0  0  0  0
 23 29  2  0  0  0  0
 24 20  2  0  0  0  0
 26 21  1  0  0  0  0
 27 28  1  0  0  0  0
 27 26  2  0  0  0  0
 28 19  2  0  0  0  0
 29 27  1  0  0  0  0
M  END
>  <MODEL>
6

>  <REMARK>
 VINA RESULT:      -6.2      2.812      6.368
  Name = 
  9 active torsions:
  status: ('A' for Active; 'I' for Inactive)
    1  A    between atoms: C_1  and  N_17
    2  A    between atoms: N_2  and  C_9
    3  A    between atoms: N_2  and  C_24
    4  A    between atoms: N_2  and  C_28
    5  A    between atoms: C_4  and  C_25
    6  A    between atoms: C_10  and  C_12
    7  A    between atoms: C_10  and  C_23
    8  A    between atoms: N_17  and  C_25
    9  A    between atoms: C_24  and  C_26
                            x       y       z     vdW  Elec       q    Type
                         _______ _______ _______ _____ _____    ______ ____

>  <TORSDO>
F 9

$$$$
=
 OpenBabel11042417273D

 29 32  0  0  1  0  0  0  0  0999 V2000
  189.8640  176.4940  145.3340 N   0  0  0  0  0  0  0  0  0  0  0  0
  188.0020  177.1100  146.7740 C   0  0  0  0  0  3  0  0  0  0  0  0
  188.5930  176.2390  145.9630 C   0  0  0  0  0  3  0  0  0  0  0  0
  186.7450  176.7930  147.3630 N   0  0  0  0  0  2  0  0  0  0  0  0
  185.1350  176.8040  145.6760 O   0  0  0  0  0  1  0  0  0  0  0  0
  185.5230  177.4060  146.8730 C   0  0  2  0  0  3  0  0  0  0  0  0
  185.7420  178.8660  146.6580 C   0  0  0  0  0  0  0  0  0  0  0  0
  185.7120  179.3840  145.3710 O   0  0  0  0  0  0  0  0  0  0  0  0
  185.9400  179.6320  147.6380 O   0  0  0  0  0  1  0  0  0  0  0  0
  190.0990  177.7060  144.5900 C   0  0  0  0  0  3  0  0  0  0  0  0
  189.8040  177.9140  143.3010 C   0  0  0  0  0  3  0  0  0  0  0  0
  189.1320  176.9330  142.4010 C   0  0  0  0  0  2  0  0  0  0  0  0
  185.8130  177.5250  142.2890 C   0  0  2  0  0  3  0  0  0  0  0  0
  186.9510  178.2910  142.0330 N   0  0  0  0  0  2  0  0  0  0  0  0
  187.6720  177.2140  142.3550 C   0  0  1  0  0  0  0  0  0  0  0  0
  186.5010  176.4110  142.6100 O   0  0  0  0  0  0  0  0  0  0  0  0
  190.9100  175.5030  145.3020 C   0  0  0  0  0  0  0  0  0  0  0  0
  190.5850  174.2100  145.3220 C   0  0  0  0  0  2  0  0  0  0  0  0
  195.3000  176.3660  143.1050 C   0  0  0  0  0  0  0  0  0  0  0  0
  194.9610  176.7750  145.4440 N   0  0  0  0  0  0  0  0  0  0  0  0
  193.4470  175.5450  141.8000 C   0  0  0  0  0  3  0  0  0  0  0  0
  194.7780  175.9550  141.8780 C   0  0  0  0  0  3  0  0  0  0  0  0
  192.8760  176.3730  146.4580 N   0  0  0  0  0  0  0  0  0  0  0  0
  194.1670  176.7840  146.5440 C   0  0  0  0  0  3  0  0  0  0  0  0
  196.6570  176.7910  143.1850 N   0  0  0  0  0  1  0  0  0  0  0  0
  192.6650  175.5440  142.9130 N   0  0  0  0  0  0  0  0  0  0  0  0
  193.1440  175.9320  144.1290 C   0  0  0  0  0  0  0  0  0  0  0  0
  194.4820  176.3620  144.2430 C   0  0  0  0  0  0  0  0  0  0  0  0
  192.3330  175.9400  145.2860 C   0  0  0  0  0  0  0  0  0  0  0  0
  1  3  1  0  0  0  0
  2  4  1  0  0  0  0
  3  2  2  0  0  0  0
  6  5  1  6  0  0  0
  6  4  1  0  0  0  0
  7  6  1  0  0  0  0
  7  9  1  0  0  0  0
  8  7  2  0  0  0  0
 10  1  1  0  0  0  0
 11 10  2  0  0  0  0
 12 11  1  0  0  0  0
 13 14  1  6  0  0  0
 13 15  1  0  0  0  0
 13 16  1  0  0  0  0
 14 15  1  0  0  0  0
 15 12  1  1  0  0  0
 15 16  1  0  0  0  0
 17 18  2  0  0  0  0
 17  1  1  0  0  0  0
 19 25  1  0  0  0  0
 19 28  1  0  0  0  0
 20 24  1  0  0  0  0
 21 22  1  0  0  0  0
 21 26  2  0  0  0  0
 22 19  2  0  0  0  0
 23 24  2  0  0  0  0
 26 27  1  0  0  0  0
 27 28  1  0  0  0  0
 27 29  2  0  0  0  0
 28 20  2  0  0  0  0
 29 17  1  0  0  0  0
 29 23  1  0  0  0  0
M  END
>  <MODEL>
7

>  <REMARK>
 VINA RESULT:      -6.2      1.940      4.177
  Name = 
  9 active torsions:
  status: ('A' for Active; 'I' for Inactive)
    1  A    between atoms: C_1  and  N_17
    2  A    between atoms: N_2  and  C_9
    3  A    between atoms: N_2  and  C_24
    4  A    between atoms: N_2  and  C_28
    5  A    between atoms: C_4  and  C_25
    6  A    between atoms: C_10  and  C_12
    7  A    between atoms: C_10  and  C_23
    8  A    between atoms: N_17  and  C_25
    9  A    between atoms: C_24  and  C_26
                            x       y       z     vdW  Elec       q    Type
                         _______ _______ _______ _____ _____    ______ ____

>  <TORSDO>
F 9

$$$$
=
 OpenBabel11042417273D

 29 31  0  0  1  0  0  0  0  0999 V2000
  189.7150  175.8260  145.7970 N   0  0  0  0  0  0  0  0  0  0  0  0
  190.0040  174.1050  144.1030 C   0  0  0  0  0  3  0  0  0  0  0  0
  189.4250  174.5400  145.2160 C   0  0  0  0  0  3  0  0  0  0  0  0
  189.6700  172.8220  143.5830 N   0  0  0  0  0  2  0  0  0  0  0  0
  190.7460  172.5420  141.5320 O   0  0  0  0  0  1  0  0  0  0  0  0
  189.4990  172.6250  142.1530 C   0  0  2  0  0  3  0  0  0  0  0  0
  188.7200  173.7580  141.5780 C   0  0  0  0  0  0  0  0  0  0  0  0
  187.4260  173.9990  142.0210 O   0  0  0  0  0  1  0  0  0  0  0  0
  189.2320  174.5070  140.7040 O   0  0  0  0  0  0  0  0  0  0  0  0
  190.2670  175.9400  147.1230 C   0  0  0  0  0  3  0  0  0  0  0  0
  191.5010  175.5840  147.5000 C   0  0  0  0  0  3  0  0  0  0  0  0
  192.5540  175.0370  146.5970 C   0  0  0  0  0  2  0  0  0  0  0  0
  194.6130  177.5430  145.6690 C   0  0  0  0  0  2  0  0  0  0  0  0
  193.8970  176.5620  144.9830 N   0  0  0  0  0  0  0  0  0  0  0  0
  193.4670  176.1320  146.1710 C   0  0  0  0  0  0  0  0  0  0  0  0
  194.1940  177.1500  146.8890 O   0  0  0  0  0  0  0  0  0  0  0  0
  189.3460  177.0560  145.1430 C   0  0  0  0  0  0  0  0  0  0  0  0
  190.3000  177.9040  144.7580 C   0  0  0  0  0  2  0  0  0  0  0  0
  185.3140  177.9820  142.3610 C   0  0  0  0  0  0  0  0  0  0  0  0
  185.2170  177.9820  144.7580 N   0  0  0  0  0  0  0  0  0  0  0  0
  187.4190  177.4880  141.2950 C   0  0  0  0  0  3  0  0  0  0  0  0
  186.0640  177.8060  141.1980 C   0  0  0  0  0  3  0  0  0  0  0  0
  187.1300  177.5300  146.0510 N   0  0  0  0  0  0  0  0  0  0  0  0
  185.8080  177.8290  145.9690 C   0  0  0  0  0  3  0  0  0  0  0  0
  183.9290  178.2990  142.2630 N   0  0  0  0  0  1  0  0  0  0  0  0
  188.0040  177.3520  142.5150 N   0  0  0  0  0  0  0  0  0  0  0  0
  187.3030  177.5230  143.6720 C   0  0  0  0  0  0  0  0  0  0  0  0
  185.9290  177.8350  143.6110 C   0  0  0  0  0  0  0  0  0  0  0  0
  187.9060  177.3760  144.9420 C   0  0  0  0  0  0  0  0  0  0  0  0
  1 10  1  0  0  0  0
  2  3  2  0  0  0  0
  3  1  1  0  0  0  0
  4  2  1  0  0  0  0
  6  5  1  6  0  0  0
  6  4  1  0  0  0  0
  7  8  1  0  0  0  0
  7  6  1  0  0  0  0
  9  7  2  0  0  0  0
 10 11  2  0  0  0  0
 12 11  1  0  0  0  0
 13 16  1  0  0  0  0
 14 13  1  0  0  0  0
 14 15  2  0  0  0  0
 15 12  1  0  0  0  0
 15 16  1  0  0  0  0
 17  1  1  0  0  0  0
 18 17  2  0  0  0  0
 19 28  1  0  0  0  0
 20 24  1  0  0  0  0
 21 26  2  0  0  0  0
 22 21  1  0  0  0  0
 22 19  2  0  0  0  0
 24 23  2  0  0  0  0
 25 19  1  0  0  0  0
 26 27  1  0  0  0  0
 27 29  2  0  0  0  0
 28 27  1  0  0  0  0
 28 20  2  0  0  0  0
 29 17  1  0  0  0  0
 29 23  1  0  0  0  0
M  END
>  <MODEL>
8

>  <REMARK>
 VINA RESULT:      -6.1      2.545      6.832
  Name = 
  9 active torsions:
  status: ('A' for Active; 'I' for Inactive)
    1  A    between atoms: C_1  and  N_17
    2  A    between atoms: N_2  and  C_9
    3  A    between atoms: N_2  and  C_24
    4  A    between atoms: N_2  and  C_28
    5  A    between atoms: C_4  and  C_25
    6  A    between atoms: C_10  and  C_12
    7  A    between atoms: C_10  and  C_23
    8  A    between atoms: N_17  and  C_25
    9  A    between atoms: C_24  and  C_26
                            x       y       z     vdW  Elec       q    Type
                         _______ _______ _______ _____ _____    ______ ____

>  <TORSDO>
F 9

$$$$
=
 OpenBabel11042417273D

 29 32  0  0  1  0  0  0  0  0999 V2000
  189.2570  176.2820  143.7850 N   0  0  0  0  0  0  0  0  0  0  0  0
  187.8070  177.2220  145.4970 C   0  0  0  0  0  3  0  0  0  0  0  0
  188.7210  176.3340  145.1220 C   0  0  0  0  0  3  0  0  0  0  0  0
  187.3200  177.2180  146.8350 N   0  0  0  0  0  2  0  0  0  0  0  0
  185.2020  176.4620  146.2170 O   0  0  0  0  0  1  0  0  0  0  0  0
  185.8940  177.2880  147.1040 C   0  0  2  0  0  3  0  0  0  0  0  0
  185.4220  178.6950  146.9600 C   0  0  0  0  0  0  0  0  0  0  0  0
  185.9850  179.6930  147.7430 O   0  0  0  0  0  1  0  0  0  0  0  0
  184.5260  178.9850  146.1230 O   0  0  0  0  0  0  0  0  0  0  0  0
  188.6210  175.5000  142.7560 C   0  0  0  0  0  3  0  0  0  0  0  0
  187.8410  175.9680  141.7740 C   0  0  0  0  0  3  0  0  0  0  0  0
  187.5170  177.4050  141.5410 C   0  0  0  0  0  2  0  0  0  0  0  0
  184.3180  177.9670  142.4500 C   0  0  2  0  0  3  0  0  0  0  0  0
  185.1200  178.3880  141.3900 N   0  0  0  0  0  2  0  0  0  0  0  0
  186.1060  177.6700  141.9320 C   0  0  1  0  0  0  0  0  0  0  0  0
  185.2810  177.2190  143.0260 O   0  0  0  0  0  0  0  0  0  0  0  0
  190.5180  176.8930  143.4470 C   0  0  0  0  0  0  0  0  0  0  0  0
  190.5640  178.2020  143.2010 C   0  0  0  0  0  2  0  0  0  0  0  0
  194.7930  174.9780  145.1520 C   0  0  0  0  0  0  0  0  0  0  0  0
  193.9500  174.4350  142.9730 N   0  0  0  0  0  0  0  0  0  0  0  0
  193.5060  176.4670  146.5450 C   0  0  0  0  0  3  0  0  0  0  0  0
  194.6310  175.6630  146.3570 C   0  0  0  0  0  3  0  0  0  0  0  0
  191.9230  175.3400  142.1940 N   0  0  0  0  0  0  0  0  0  0  0  0
  193.0090  174.5460  142.0040 C   0  0  0  0  0  3  0  0  0  0  0  0
  195.9370  174.1520  144.9620 N   0  0  0  0  0  1  0  0  0  0  0  0
  192.5760  176.5830  145.5590 N   0  0  0  0  0  0  0  0  0  0  0  0
  192.7050  175.9340  144.3680 C   0  0  0  0  0  0  0  0  0  0  0  0
  193.8250  175.1050  144.1470 C   0  0  0  0  0  0  0  0  0  0  0  0
  191.7380  176.0460  143.3440 C   0  0  0  0  0  0  0  0  0  0  0  0
  1  3  1  0  0  0  0
  2  4  1  0  0  0  0
  3  2  2  0  0  0  0
  4  6  1  0  0  0  0
  6  5  1  6  0  0  0
  7  6  1  0  0  0  0
  7  8  1  0  0  0  0
  9  7  2  0  0  0  0
 10  1  1  0  0  0  0
 11 10  2  0  0  0  0
 12 11  1  0  0  0  0
 13 14  1  6  0  0  0
 13 16  1  0  0  0  0
 14 15  1  0  0  0  0
 15 12  1  1  0  0  0
 15 13  1  0  0  0  0
 15 16  1  0  0  0  0
 17  1  1  0  0  0  0
 18 17  2  0  0  0  0
 19 22  1  0  0  0  0
 20 28  1  0  0  0  0
 22 21  2  0  0  0  0
 23 29  2  0  0  0  0
 24 23  1  0  0  0  0
 24 20  2  0  0  0  0
 25 19  1  0  0  0  0
 26 21  1  0  0  0  0
 27 26  2  0  0  0  0
 28 27  1  0  0  0  0
 28 19  2  0  0  0  0
 29 17  1  0  0  0  0
 29 27  1  0  0  0  0
M  END
>  <MODEL>
9

>  <REMARK>
 VINA RESULT:      -6.1      2.060      3.956
  Name = 
  9 active torsions:
  status: ('A' for Active; 'I' for Inactive)
    1  A    between atoms: C_1  and  N_17
    2  A    between atoms: N_2  and  C_9
    3  A    between atoms: N_2  and  C_24
    4  A    between atoms: N_2  and  C_28
    5  A    between atoms: C_4  and  C_25
    6  A    between atoms: C_10  and  C_12
    7  A    between atoms: C_10  and  C_23
    8  A    between atoms: N_17  and  C_25
    9  A    between atoms: C_24  and  C_26
                            x       y       z     vdW  Elec       q    Type
                         _______ _______ _______ _____ _____    ______ ____

>  <TORSDO>
F 9

$$$$
