=
 OpenBabel11042416163D

 33 36  0  0  1  0  0  0  0  0999 V2000
  190.2240  176.8440  144.9280 C   0  0  0  0  0  0  0  0  0  0  0  0
  186.8580  176.4790  147.3770 C   0  0  0  0  0  3  0  0  0  0  0  0
  186.6070  178.0090  145.0320 C   0  0  0  0  0  0  0  0  0  0  0  0
  189.1210  176.0310  146.8900 N   0  0  0  0  0  0  0  0  0  0  0  0
  191.4090  175.4820  146.5620 C   0  0  0  0  0  3  0  0  0  0  0  0
  184.1020  179.2110  144.5030 C   0  0  0  0  0  3  0  0  0  0  0  0
  191.4020  176.9140  144.1640 C   0  0  0  0  0  3  0  0  0  0  0  0
  190.2400  176.1190  146.1360 C   0  0  0  0  0  0  0  0  0  0  0  0
  192.5760  175.5580  145.7960 C   0  0  0  0  0  0  0  0  0  0  0  0
  192.5680  176.2780  144.5950 C   0  0  0  0  0  3  0  0  0  0  0  0
  184.2710  178.4300  145.6450 C   0  0  0  0  0  3  0  0  0  0  0  0
  189.0320  177.4780  144.5110 C   0  0  0  0  0  0  0  0  0  0  0  0
  187.9580  176.6290  146.5340 C   0  0  0  0  0  0  0  0  0  0  0  0
  185.1700  179.4020  143.6270 C   0  0  0  0  0  3  0  0  0  0  0  0
  185.6420  177.0740  147.0720 C   0  0  0  0  0  3  0  0  0  0  0  0
  185.5070  177.8350  145.9160 C   0  0  0  0  0  0  0  0  0  0  0  0
  186.4050  178.8090  143.8930 C   0  0  0  0  0  3  0  0  0  0  0  0
  187.8620  177.3880  145.3320 C   0  0  0  0  0  0  0  0  0  0  0  0
  189.0380  178.1940  143.1880 C   0  0  0  0  0  2  0  0  0  0  0  0
  189.2670  177.2040  142.0570 C   0  0  0  0  0  2  0  0  0  0  0  0
  188.1630  176.1640  142.0370 C   0  0  0  0  0  2  0  0  0  0  0  0
  188.7390  174.7880  141.7450 C   0  0  0  0  0  2  0  0  0  0  0  0
  191.0410  173.6010  142.9540 O   0  0  0  0  0  0  0  0  0  0  0  0
  188.7330  173.9770  142.9530 N   0  0  0  0  0  2  0  0  0  0  0  0
  189.8480  172.6220  144.7610 C   0  0  0  0  0  1  0  0  0  0  0  0
  189.9250  173.4220  143.5110 C   0  0  0  0  0  0  0  0  0  0  0  0
  193.7570  174.8980  146.2580 N   0  0  0  0  0  2  0  0  0  0  0  0
  195.0950  175.4240  146.0330 C   0  0  0  0  0  2  0  0  0  0  0  0
  196.8910  173.8510  146.2400 O   0  0  0  0  0  1  0  0  0  0  0  0
  195.9550  174.3760  145.3460 C   0  0  2  0  0  3  0  0  0  0  0  0
  196.6520  174.9540  144.1190 C   0  0  0  0  0  2  0  0  0  0  0  0
  196.1670  176.3590  143.7930 C   0  0  0  0  0  2  0  0  0  0  0  0
  197.2110  177.0910  143.2310 O   0  0  0  0  0  1  0  0  0  0  0  0
  1  8  1  0  0  0  0
  3 18  2  0  0  0  0
  3 16  1  0  0  0  0
  6 11  2  0  0  0  0
  7 10  2  0  0  0  0
  7  1  1  0  0  0  0
  8  5  1  0  0  0  0
  8  4  2  0  0  0  0
  9 27  1  0  0  0  0
  9  5  2  0  0  0  0
 10  9  1  0  0  0  0
 11 16  1  0  0  0  0
 12  1  2  0  0  0  0
 12 18  1  0  0  0  0
 13  4  1  0  0  0  0
 13  2  2  0  0  0  0
 14 17  2  0  0  0  0
 14  6  1  0  0  0  0
 15  2  1  0  0  0  0
 16 15  2  0  0  0  0
 17  3  1  0  0  0  0
 18 13  1  0  0  0  0
 19 12  1  0  0  0  0
 20 19  1  0  0  0  0
 21 20  1  0  0  0  0
 22 21  1  0  0  0  0
 22 24  1  0  0  0  0
 23 26  2  0  0  0  0
 24 26  1  0  0  0  0
 26 25  1  0  0  0  0
 28 27  1  0  0  0  0
 30 28  1  0  0  0  0
 30 29  1  1  0  0  0
 31 30  1  0  0  0  0
 32 31  1  0  0  0  0
 33 32  1  0  0  0  0
M  END
>  <MODEL>
1

>  <REMARK>
 VINA RESULT:      -7.4      0.000      0.000
  Name = 
  10 active torsions:
  status: ('A' for Active; 'I' for Inactive)
    1  A    between atoms: C_1  and  C_19
    2  A    between atoms: C_1  and  C_26
    3  A    between atoms: C_2  and  C_12
    4  A    between atoms: C_5  and  N_24
    5  A    between atoms: C_5  and  C_30
    6  A    between atoms: N_6  and  C_25
    7  A    between atoms: C_12  and  C_30
    8  A    between atoms: C_14  and  C_19
    9  A    between atoms: C_14  and  C_25
   10  A    between atoms: C_18  and  N_24
                            x       y       z     vdW  Elec       q    Type
                         _______ _______ _______ _____ _____    ______ ____

>  <TORSDO>
F 10

$$$$
=
 OpenBabel11042416163D

 33 36  0  0  1  0  0  0  0  0999 V2000
  190.2450  177.2190  144.8850 C   0  0  0  0  0  0  0  0  0  0  0  0
  186.9710  177.1930  147.4830 C   0  0  0  0  0  3  0  0  0  0  0  0
  186.5540  178.1270  144.8640 C   0  0  0  0  0  0  0  0  0  0  0  0
  189.2510  176.8010  147.0220 N   0  0  0  0  0  0  0  0  0  0  0  0
  191.5650  176.3490  146.7380 C   0  0  0  0  0  3  0  0  0  0  0  0
  183.9540  179.0030  144.1750 C   0  0  0  0  0  3  0  0  0  0  0  0
  191.3970  177.1930  144.0800 C   0  0  0  0  0  3  0  0  0  0  0  0
  190.3420  176.7910  146.2250 C   0  0  0  0  0  0  0  0  0  0  0  0
  192.7060  176.3280  145.9300 C   0  0  0  0  0  0  0  0  0  0  0  0
  192.6170  176.7530  144.5990 C   0  0  0  0  0  3  0  0  0  0  0  0
  184.2070  178.5160  145.4560 C   0  0  0  0  0  3  0  0  0  0  0  0
  189.0000  177.6590  144.3830 C   0  0  0  0  0  0  0  0  0  0  0  0
  188.0380  177.2210  146.5850 C   0  0  0  0  0  0  0  0  0  0  0  0
  184.9850  179.0620  143.2370 C   0  0  0  0  0  3  0  0  0  0  0  0
  185.7080  177.6180  147.0980 C   0  0  0  0  0  3  0  0  0  0  0  0
  185.4900  178.0850  145.8070 C   0  0  0  0  0  0  0  0  0  0  0  0
  186.2670  178.6310  143.5830 C   0  0  0  0  0  3  0  0  0  0  0  0
  187.8580  177.6770  145.2480 C   0  0  0  0  0  0  0  0  0  0  0  0
  188.9230  178.0520  142.9330 C   0  0  0  0  0  2  0  0  0  0  0  0
  189.1590  176.8400  142.0470 C   0  0  0  0  0  2  0  0  0  0  0  0
  187.9930  175.8750  142.1530 C   0  0  0  0  0  2  0  0  0  0  0  0
  188.4790  174.4420  142.0190 C   0  0  0  0  0  2  0  0  0  0  0  0
  191.2250  173.7580  142.4190 O   0  0  0  0  0  0  0  0  0  0  0  0
  189.0630  173.9940  143.2750 N   0  0  0  0  0  2  0  0  0  0  0  0
  190.9820  173.2480  144.7270 C   0  0  0  0  0  1  0  0  0  0  0  0
  190.4500  173.6780  143.4080 C   0  0  0  0  0  0  0  0  0  0  0  0
  193.9430  175.8730  146.4840 N   0  0  0  0  0  2  0  0  0  0  0  0
  195.1730  175.7940  145.7090 C   0  0  0  0  0  2  0  0  0  0  0  0
  197.0170  174.3520  145.1980 O   0  0  0  0  0  1  0  0  0  0  0  0
  195.7710  174.4020  145.8280 C   0  0  2  0  0  3  0  0  0  0  0  0
  194.8340  173.3490  145.2450 C   0  0  0  0  0  2  0  0  0  0  0  0
  194.5910  173.5600  143.7570 C   0  0  0  0  0  2  0  0  0  0  0  0
  194.2260  172.3490  143.1720 O   0  0  0  0  0  1  0  0  0  0  0  0
  1  8  1  0  0  0  0
  3 18  2  0  0  0  0
  3 16  1  0  0  0  0
  6 11  2  0  0  0  0
  7 10  2  0  0  0  0
  7  1  1  0  0  0  0
  8  5  1  0  0  0  0
  8  4  2  0  0  0  0
  9 27  1  0  0  0  0
  9  5  2  0  0  0  0
 10  9  1  0  0  0  0
 11 16  1  0  0  0  0
 12  1  2  0  0  0  0
 12 18  1  0  0  0  0
 13  4  1  0  0  0  0
 13  2  2  0  0  0  0
 14 17  2  0  0  0  0
 14  6  1  0  0  0  0
 15  2  1  0  0  0  0
 16 15  2  0  0  0  0
 17  3  1  0  0  0  0
 18 13  1  0  0  0  0
 19 12  1  0  0  0  0
 20 21  1  0  0  0  0
 20 19  1  0  0  0  0
 22 21  1  0  0  0  0
 22 24  1  0  0  0  0
 23 26  2  0  0  0  0
 24 26  1  0  0  0  0
 26 25  1  0  0  0  0
 28 30  1  0  0  0  0
 28 27  1  0  0  0  0
 30 29  1  6  0  0  0
 31 30  1  0  0  0  0
 32 31  1  0  0  0  0
 33 32  1  0  0  0  0
M  END
>  <MODEL>
2

>  <REMARK>
 VINA RESULT:      -7.3      0.979      1.349
  Name = 
  10 active torsions:
  status: ('A' for Active; 'I' for Inactive)
    1  A    between atoms: C_1  and  C_19
    2  A    between atoms: C_1  and  C_26
    3  A    between atoms: C_2  and  C_12
    4  A    between atoms: C_5  and  N_24
    5  A    between atoms: C_5  and  C_30
    6  A    between atoms: N_6  and  C_25
    7  A    between atoms: C_12  and  C_30
    8  A    between atoms: C_14  and  C_19
    9  A    between atoms: C_14  and  C_25
   10  A    between atoms: C_18  and  N_24
                            x       y       z     vdW  Elec       q    Type
                         _______ _______ _______ _____ _____    ______ ____

>  <TORSDO>
F 10

$$$$
=
 OpenBabel11042416163D

 33 36  0  0  1  0  0  0  0  0999 V2000
  189.7390  176.6970  144.7230 C   0  0  0  0  0  0  0  0  0  0  0  0
  186.8540  177.8150  147.5320 C   0  0  0  0  0  3  0  0  0  0  0  0
  186.2010  178.0850  144.8110 C   0  0  0  0  0  0  0  0  0  0  0  0
  188.9950  176.9970  146.9780 N   0  0  0  0  0  0  0  0  0  0  0  0
  191.1880  176.1620  146.6060 C   0  0  0  0  0  3  0  0  0  0  0  0
  183.6460  179.1110  144.1630 C   0  0  0  0  0  3  0  0  0  0  0  0
  190.7650  176.2990  143.8490 C   0  0  0  0  0  3  0  0  0  0  0  0
  189.9640  176.6240  146.1130 C   0  0  0  0  0  0  0  0  0  0  0  0
  192.2020  175.7690  145.7290 C   0  0  0  0  0  0  0  0  0  0  0  0
  191.9860  175.8400  144.3470 C   0  0  0  0  0  3  0  0  0  0  0  0
  184.0110  178.9440  145.4980 C   0  0  0  0  0  3  0  0  0  0  0  0
  188.4950  177.1640  144.2430 C   0  0  0  0  0  0  0  0  0  0  0  0
  187.7890  177.4570  146.5630 C   0  0  0  0  0  0  0  0  0  0  0  0
  184.5440  178.7760  143.1500 C   0  0  0  0  0  3  0  0  0  0  0  0
  185.6060  178.3010  147.1700 C   0  0  0  0  0  3  0  0  0  0  0  0
  185.2730  178.4410  145.8280 C   0  0  0  0  0  0  0  0  0  0  0  0
  185.8050  178.2720  143.4740 C   0  0  0  0  0  3  0  0  0  0  0  0
  187.4860  177.5690  145.1750 C   0  0  0  0  0  0  0  0  0  0  0  0
  188.2710  177.1730  142.7550 C   0  0  0  0  0  2  0  0  0  0  0  0
  187.6860  175.8440  142.3040 C   0  0  0  0  0  2  0  0  0  0  0  0
  188.4740  175.2930  141.1310 C   0  0  0  0  0  2  0  0  0  0  0  0
  188.7120  173.8030  141.3070 C   0  0  0  0  0  2  0  0  0  0  0  0
  190.8750  172.4960  142.6420 O   0  0  0  0  0  0  0  0  0  0  0  0
  188.7500  173.4670  142.7220 N   0  0  0  0  0  2  0  0  0  0  0  0
  189.8510  172.5300  144.7860 C   0  0  0  0  0  1  0  0  0  0  0  0
  189.8710  172.8220  143.3290 C   0  0  0  0  0  0  0  0  0  0  0  0
  193.4430  175.3020  146.2630 N   0  0  0  0  0  2  0  0  0  0  0  0
  194.6780  176.0690  146.1770 C   0  0  0  0  0  2  0  0  0  0  0  0
  195.4230  175.6120  143.9460 O   0  0  0  0  0  1  0  0  0  0  0  0
  195.6770  175.3420  145.2920 C   0  0  2  0  0  3  0  0  0  0  0  0
  195.6500  173.8390  145.5510 C   0  0  0  0  0  2  0  0  0  0  0  0
  196.9710  173.3310  146.1130 C   0  0  0  0  0  2  0  0  0  0  0  0
  196.9490  171.9390  146.1590 O   0  0  0  0  0  1  0  0  0  0  0  0
  1  8  1  0  0  0  0
  3 18  2  0  0  0  0
  3 16  1  0  0  0  0
  6 11  2  0  0  0  0
  7 10  2  0  0  0  0
  7  1  1  0  0  0  0
  8  5  1  0  0  0  0
  8  4  2  0  0  0  0
  9 27  1  0  0  0  0
  9  5  2  0  0  0  0
 10  9  1  0  0  0  0
 11 16  1  0  0  0  0
 12  1  2  0  0  0  0
 12 18  1  0  0  0  0
 13  4  1  0  0  0  0
 13  2  2  0  0  0  0
 14 17  2  0  0  0  0
 14  6  1  0  0  0  0
 15  2  1  0  0  0  0
 16 15  2  0  0  0  0
 17  3  1  0  0  0  0
 18 13  1  0  0  0  0
 19 12  1  0  0  0  0
 20 19  1  0  0  0  0
 21 22  1  0  0  0  0
 21 20  1  0  0  0  0
 22 24  1  0  0  0  0
 23 26  2  0  0  0  0
 24 26  1  0  0  0  0
 26 25  1  0  0  0  0
 28 27  1  0  0  0  0
 30 29  1  6  0  0  0
 30 31  1  0  0  0  0
 30 28  1  0  0  0  0
 31 32  1  0  0  0  0
 32 33  1  0  0  0  0
M  END
>  <MODEL>
3

>  <REMARK>
 VINA RESULT:      -7.2      1.029      1.650
  Name = 
  10 active torsions:
  status: ('A' for Active; 'I' for Inactive)
    1  A    between atoms: C_1  and  C_19
    2  A    between atoms: C_1  and  C_26
    3  A    between atoms: C_2  and  C_12
    4  A    between atoms: C_5  and  N_24
    5  A    between atoms: C_5  and  C_30
    6  A    between atoms: N_6  and  C_25
    7  A    between atoms: C_12  and  C_30
    8  A    between atoms: C_14  and  C_19
    9  A    between atoms: C_14  and  C_25
   10  A    between atoms: C_18  and  N_24
                            x       y       z     vdW  Elec       q    Type
                         _______ _______ _______ _____ _____    ______ ____

>  <TORSDO>
F 10

$$$$
=
 OpenBabel11042416163D

 33 36  0  0  1  0  0  0  0  0999 V2000
  189.4650  174.5250  144.5190 C   0  0  0  0  0  0  0  0  0  0  0  0
  187.0800  177.5350  142.8730 C   0  0  0  0  0  3  0  0  0  0  0  0
  187.1730  177.3290  145.6750 C   0  0  0  0  0  0  0  0  0  0  0  0
  188.5440  175.7000  142.6490 N   0  0  0  0  0  0  0  0  0  0  0  0
  190.0020  173.8710  142.2350 C   0  0  0  0  0  3  0  0  0  0  0  0
  185.6330  179.1580  147.1850 C   0  0  0  0  0  3  0  0  0  0  0  0
  190.2890  173.4870  144.9870 C   0  0  0  0  0  3  0  0  0  0  0  0
  189.3270  174.7080  143.1280 C   0  0  0  0  0  0  0  0  0  0  0  0
  190.8190  172.8410  142.7100 C   0  0  0  0  0  0  0  0  0  0  0  0
  190.9600  172.6510  144.0900 C   0  0  0  0  0  3  0  0  0  0  0  0
  185.6320  179.2310  145.7930 C   0  0  0  0  0  3  0  0  0  0  0  0
  188.7780  175.3830  145.4070 C   0  0  0  0  0  0  0  0  0  0  0  0
  187.8610  176.5430  143.4630 C   0  0  0  0  0  0  0  0  0  0  0  0
  186.3900  178.1800  147.8290 C   0  0  0  0  0  3  0  0  0  0  0  0
  186.3510  178.4230  143.6520 C   0  0  0  0  0  3  0  0  0  0  0  0
  186.3880  178.3280  145.0380 C   0  0  0  0  0  0  0  0  0  0  0  0
  187.1470  177.2780  147.0800 C   0  0  0  0  0  3  0  0  0  0  0  0
  187.9400  176.4170  144.8800 C   0  0  0  0  0  0  0  0  0  0  0  0
  188.9960  175.1920  146.8830 C   0  0  0  0  0  2  0  0  0  0  0  0
  190.0800  176.1350  147.3800 C   0  0  0  0  0  2  0  0  0  0  0  0
  191.3510  175.3640  147.6790 C   0  0  0  0  0  2  0  0  0  0  0  0
  192.4730  175.8170  146.7590 C   0  0  0  0  0  2  0  0  0  0  0  0
  192.8450  175.7210  143.9260 O   0  0  0  0  0  0  0  0  0  0  0  0
  191.9730  176.7990  145.8090 N   0  0  0  0  0  2  0  0  0  0  0  0
  191.6270  177.7140  143.4870 C   0  0  0  0  0  1  0  0  0  0  0  0
  192.1860  176.6840  144.4010 C   0  0  0  0  0  0  0  0  0  0  0  0
  191.4940  171.9990  141.7720 N   0  0  0  0  0  2  0  0  0  0  0  0
  191.3960  172.1840  140.3320 C   0  0  0  0  0  2  0  0  0  0  0  0
  190.7640  170.1030  139.3250 O   0  0  0  0  0  1  0  0  0  0  0  0
  190.2690  171.3290  139.7760 C   0  0  2  0  0  3  0  0  0  0  0  0
  189.5300  172.0540  138.6550 C   0  0  0  0  0  2  0  0  0  0  0  0
  188.2270  172.6750  139.1370 C   0  0  0  0  0  2  0  0  0  0  0  0
  188.3570  174.0620  139.1620 O   0  0  0  0  0  1  0  0  0  0  0  0
  1  7  1  0  0  0  0
  1 12  2  0  0  0  0
  2 13  2  0  0  0  0
  2 15  1  0  0  0  0
  3 17  1  0  0  0  0
  4  8  2  0  0  0  0
  4 13  1  0  0  0  0
  5  9  2  0  0  0  0
  5  8  1  0  0  0  0
  6 14  1  0  0  0  0
  8  1  1  0  0  0  0
  9 10  1  0  0  0  0
 10  7  2  0  0  0  0
 11  6  2  0  0  0  0
 12 19  1  0  0  0  0
 13 18  1  0  0  0  0
 15 16  2  0  0  0  0
 16  3  1  0  0  0  0
 16 11  1  0  0  0  0
 17 14  2  0  0  0  0
 18 12  1  0  0  0  0
 18  3  2  0  0  0  0
 19 20  1  0  0  0  0
 20 21  1  0  0  0  0
 22 21  1  0  0  0  0
 23 26  2  0  0  0  0
 24 22  1  0  0  0  0
 25 26  1  0  0  0  0
 26 24  1  0  0  0  0
 27  9  1  0  0  0  0
 28 27  1  0  0  0  0
 30 29  1  6  0  0  0
 30 28  1  0  0  0  0
 31 32  1  0  0  0  0
 31 30  1  0  0  0  0
 32 33  1  0  0  0  0
M  END
>  <MODEL>
4

>  <REMARK>
 VINA RESULT:      -7.1      2.348      5.453
  Name = 
  10 active torsions:
  status: ('A' for Active; 'I' for Inactive)
    1  A    between atoms: C_1  and  C_19
    2  A    between atoms: C_1  and  C_26
    3  A    between atoms: C_2  and  C_12
    4  A    between atoms: C_5  and  N_24
    5  A    between atoms: C_5  and  C_30
    6  A    between atoms: N_6  and  C_25
    7  A    between atoms: C_12  and  C_30
    8  A    between atoms: C_14  and  C_19
    9  A    between atoms: C_14  and  C_25
   10  A    between atoms: C_18  and  N_24
                            x       y       z     vdW  Elec       q    Type
                         _______ _______ _______ _____ _____    ______ ____

>  <TORSDO>
F 10

$$$$
=
 OpenBabel11042416163D

 33 36  0  0  1  0  0  0  0  0999 V2000
  190.1230  175.3220  145.9830 C   0  0  0  0  0  0  0  0  0  0  0  0
  194.1620  176.2640  146.4960 C   0  0  0  0  0  3  0  0  0  0  0  0
  193.5360  173.7530  145.3960 C   0  0  0  0  0  0  0  0  0  0  0  0
  191.8730  176.7960  146.6850 N   0  0  0  0  0  0  0  0  0  0  0  0
  189.6190  177.4990  146.9520 C   0  0  0  0  0  3  0  0  0  0  0  0
  195.6790  172.0320  144.7310 C   0  0  0  0  0  3  0  0  0  0  0  0
  188.7440  175.0880  145.8460 C   0  0  0  0  0  3  0  0  0  0  0  0
  190.5530  176.5420  146.5430 C   0  0  0  0  0  0  0  0  0  0  0  0
  188.2500  177.2570  146.8120 C   0  0  0  0  0  0  0  0  0  0  0  0
  187.8150  176.0470  146.2580 C   0  0  0  0  0  3  0  0  0  0  0  0
  195.9400  173.2930  145.2650 C   0  0  0  0  0  3  0  0  0  0  0  0
  191.0810  174.3680  145.5720 C   0  0  0  0  0  0  0  0  0  0  0  0
  192.8270  175.9090  146.3110 C   0  0  0  0  0  0  0  0  0  0  0  0
  194.3620  171.6200  144.5310 C   0  0  0  0  0  3  0  0  0  0  0  0
  195.1840  175.3940  146.1420 C   0  0  0  0  0  3  0  0  0  0  0  0
  194.8860  174.1490  145.6000 C   0  0  0  0  0  0  0  0  0  0  0  0
  193.3070  172.4720  144.8630 C   0  0  0  0  0  3  0  0  0  0  0  0
  192.4750  174.6490  145.7450 C   0  0  0  0  0  0  0  0  0  0  0  0
  190.5860  173.1030  144.9260 C   0  0  0  0  0  2  0  0  0  0  0  0
  190.5130  173.2790  143.4180 C   0  0  0  0  0  2  0  0  0  0  0  0
  189.1550  172.8420  142.9020 C   0  0  0  0  0  2  0  0  0  0  0  0
  188.5450  173.9290  142.0320 C   0  0  0  0  0  2  0  0  0  0  0  0
  187.5280  176.4380  141.1160 O   0  0  0  0  0  0  0  0  0  0  0  0
  189.0060  175.2370  142.4730 N   0  0  0  0  0  2  0  0  0  0  0  0
  188.9480  177.7560  142.4920 C   0  0  0  0  0  1  0  0  0  0  0  0
  188.4440  176.4550  141.9810 C   0  0  0  0  0  0  0  0  0  0  0  0
  187.3190  178.2540  147.2410 N   0  0  0  0  0  2  0  0  0  0  0  0
  185.8790  178.0410  147.2410 C   0  0  0  0  0  2  0  0  0  0  0  0
  183.8670  178.6830  146.1090 O   0  0  0  0  0  1  0  0  0  0  0  0
  185.2130  179.0130  146.2810 C   0  0  2  0  0  3  0  0  0  0  0  0
  185.9330  179.0390  144.9360 C   0  0  0  0  0  2  0  0  0  0  0  0
  185.1400  178.3290  143.8490 C   0  0  0  0  0  2  0  0  0  0  0  0
  185.5330  176.9930  143.7880 O   0  0  0  0  0  1  0  0  0  0  0  0
  1  8  1  0  0  0  0
  3 16  1  0  0  0  0
  3 18  1  0  0  0  0
  6 11  1  0  0  0  0
  7  1  2  0  0  0  0
  7 10  1  0  0  0  0
  8  4  1  0  0  0  0
  8  5  2  0  0  0  0
  9  5  1  0  0  0  0
  9 27  1  0  0  0  0
 10  9  2  0  0  0  0
 11 16  2  0  0  0  0
 12 18  2  0  0  0  0
 12  1  1  0  0  0  0
 13  2  1  0  0  0  0
 13  4  2  0  0  0  0
 14  6  2  0  0  0  0
 14 17  1  0  0  0  0
 15  2  2  0  0  0  0
 16 15  1  0  0  0  0
 17  3  2  0  0  0  0
 18 13  1  0  0  0  0
 19 12  1  0  0  0  0
 20 19  1  0  0  0  0
 21 20  1  0  0  0  0
 22 24  1  0  0  0  0
 22 21  1  0  0  0  0
 23 26  2  0  0  0  0
 26 24  1  0  0  0  0
 26 25  1  0  0  0  0
 28 27  1  0  0  0  0
 30 29  1  6  0  0  0
 30 28  1  0  0  0  0
 31 30  1  0  0  0  0
 32 31  1  0  0  0  0
 33 32  1  0  0  0  0
M  END
>  <MODEL>
5

>  <REMARK>
 VINA RESULT:      -6.9      3.076      7.894
  Name = 
  10 active torsions:
  status: ('A' for Active; 'I' for Inactive)
    1  A    between atoms: C_1  and  C_19
    2  A    between atoms: C_1  and  C_26
    3  A    between atoms: C_2  and  C_12
    4  A    between atoms: C_5  and  N_24
    5  A    between atoms: C_5  and  C_30
    6  A    between atoms: N_6  and  C_25
    7  A    between atoms: C_12  and  C_30
    8  A    between atoms: C_14  and  C_19
    9  A    between atoms: C_14  and  C_25
   10  A    between atoms: C_18  and  N_24
                            x       y       z     vdW  Elec       q    Type
                         _______ _______ _______ _____ _____    ______ ____

>  <TORSDO>
F 10

$$$$
=
 OpenBabel11042416163D

 33 36  0  0  1  0  0  0  0  0999 V2000
  185.5270  177.9370  142.2990 C   0  0  0  0  0  0  0  0  0  0  0  0
  185.6450  177.9300  146.4760 C   0  0  0  0  0  3  0  0  0  0  0  0
  188.0660  177.5430  145.1000 C   0  0  0  0  0  0  0  0  0  0  0  0
  184.4680  178.0930  144.4390 N   0  0  0  0  0  0  0  0  0  0  0  0
  183.1230  178.2780  142.4900 C   0  0  0  0  0  3  0  0  0  0  0  0
  190.4090  177.1560  146.6360 C   0  0  0  0  0  3  0  0  0  0  0  0
  185.3970  177.9530  140.8990 C   0  0  0  0  0  3  0  0  0  0  0  0
  184.3730  178.1010  143.0910 C   0  0  0  0  0  0  0  0  0  0  0  0
  183.0030  178.2930  141.0970 C   0  0  0  0  0  0  0  0  0  0  0  0
  184.1450  178.1290  140.3030 C   0  0  0  0  0  3  0  0  0  0  0  0
  189.1870  177.3680  147.2730 C   0  0  0  0  0  3  0  0  0  0  0  0
  186.7820  177.7620  142.9240 C   0  0  0  0  0  0  0  0  0  0  0  0
  185.6490  177.9220  145.0820 C   0  0  0  0  0  0  0  0  0  0  0  0
  190.4720  177.1310  145.2440 C   0  0  0  0  0  3  0  0  0  0  0  0
  186.8210  177.7510  147.1910 C   0  0  0  0  0  3  0  0  0  0  0  0
  188.0230  177.5560  146.5210 C   0  0  0  0  0  0  0  0  0  0  0  0
  189.3130  177.3200  144.4890 C   0  0  0  0  0  3  0  0  0  0  0  0
  186.8600  177.7400  144.3540 C   0  0  0  0  0  0  0  0  0  0  0  0
  187.9980  177.6490  142.0460 C   0  0  0  0  0  2  0  0  0  0  0  0
  187.9390  176.3670  141.2310 C   0  0  0  0  0  2  0  0  0  0  0  0
  187.7670  175.1690  142.1460 C   0  0  0  0  0  2  0  0  0  0  0  0
  188.7970  174.1010  141.8170 C   0  0  0  0  0  2  0  0  0  0  0  0
  190.8760  173.8330  143.7610 O   0  0  0  0  0  0  0  0  0  0  0  0
  190.1210  174.6970  141.7240 N   0  0  0  0  0  2  0  0  0  0  0  0
  192.4590  175.1330  142.5560 C   0  0  0  0  0  1  0  0  0  0  0  0
  191.1200  174.5130  142.7290 C   0  0  0  0  0  0  0  0  0  0  0  0
  181.7110  178.4740  140.5110 N   0  0  0  0  0  2  0  0  0  0  0  0
  180.6190  179.1450  141.2000 C   0  0  0  0  0  2  0  0  0  0  0  0
  178.8350  180.3850  140.1890 O   0  0  0  0  0  1  0  0  0  0  0  0
  179.3640  179.1010  140.3450 C   0  0  2  0  0  3  0  0  0  0  0  0
  178.3210  178.1620  140.9440 C   0  0  0  0  0  2  0  0  0  0  0  0
  178.7890  177.5510  142.2560 C   0  0  0  0  0  2  0  0  0  0  0  0
  177.7110  177.4550  143.1340 O   0  0  0  0  0  1  0  0  0  0  0  0
  1 12  2  0  0  0  0
  1  8  1  0  0  0  0
  2 15  1  0  0  0  0
  3 16  1  0  0  0  0
  4 13  1  0  0  0  0
  5  8  1  0  0  0  0
  6 11  2  0  0  0  0
  7  1  1  0  0  0  0
  8  4  2  0  0  0  0
  9  5  2  0  0  0  0
 10  7  2  0  0  0  0
 10  9  1  0  0  0  0
 12 18  1  0  0  0  0
 13  2  2  0  0  0  0
 14  6  1  0  0  0  0
 16 15  2  0  0  0  0
 16 11  1  0  0  0  0
 17  3  1  0  0  0  0
 17 14  2  0  0  0  0
 18 13  1  0  0  0  0
 18  3  2  0  0  0  0
 19 12  1  0  0  0  0
 20 19  1  0  0  0  0
 20 21  1  0  0  0  0
 22 21  1  0  0  0  0
 24 22  1  0  0  0  0
 24 26  1  0  0  0  0
 25 26  1  0  0  0  0
 26 23  2  0  0  0  0
 27  9  1  0  0  0  0
 27 28  1  0  0  0  0
 30 29  1  1  0  0  0
 30 31  1  0  0  0  0
 30 28  1  0  0  0  0
 31 32  1  0  0  0  0
 32 33  1  0  0  0  0
M  END
>  <MODEL>
6

>  <REMARK>
 VINA RESULT:      -6.9      4.688      9.316
  Name = 
  10 active torsions:
  status: ('A' for Active; 'I' for Inactive)
    1  A    between atoms: C_1  and  C_19
    2  A    between atoms: C_1  and  C_26
    3  A    between atoms: C_2  and  C_12
    4  A    between atoms: C_5  and  N_24
    5  A    between atoms: C_5  and  C_30
    6  A    between atoms: N_6  and  C_25
    7  A    between atoms: C_12  and  C_30
    8  A    between atoms: C_14  and  C_19
    9  A    between atoms: C_14  and  C_25
   10  A    between atoms: C_18  and  N_24
                            x       y       z     vdW  Elec       q    Type
                         _______ _______ _______ _____ _____    ______ ____

>  <TORSDO>
F 10

$$$$
=
 OpenBabel11042416163D

 33 36  0  0  1  0  0  0  0  0999 V2000
  188.6710  175.3150  143.3280 C   0  0  0  0  0  0  0  0  0  0  0  0
  185.1850  177.5500  142.7690 C   0  0  0  0  0  3  0  0  0  0  0  0
  186.2060  177.3540  145.3810 C   0  0  0  0  0  0  0  0  0  0  0  0
  186.9330  176.2010  141.9420 N   0  0  0  0  0  0  0  0  0  0  0  0
  188.6140  174.8570  140.9370 C   0  0  0  0  0  3  0  0  0  0  0  0
  184.7940  178.6660  147.4510 C   0  0  0  0  0  3  0  0  0  0  0  0
  189.8440  174.5460  143.4260 C   0  0  0  0  0  3  0  0  0  0  0  0
  188.0590  175.4640  142.0670 C   0  0  0  0  0  0  0  0  0  0  0  0
  189.7800  174.0940  141.0430 C   0  0  0  0  0  0  0  0  0  0  0  0
  190.3930  173.9400  142.2930 C   0  0  0  0  0  3  0  0  0  0  0  0
  184.3360  178.7470  146.1370 C   0  0  0  0  0  3  0  0  0  0  0  0
  188.0980  175.9390  144.4590 C   0  0  0  0  0  0  0  0  0  0  0  0
  186.3440  176.8110  142.9990 C   0  0  0  0  0  0  0  0  0  0  0  0
  185.9450  177.9350  147.7420 C   0  0  0  0  0  3  0  0  0  0  0  0
  184.5310  178.1910  143.8120 C   0  0  0  0  0  3  0  0  0  0  0  0
  185.0260  178.0990  145.1080 C   0  0  0  0  0  0  0  0  0  0  0  0
  186.6370  177.2870  146.7180 C   0  0  0  0  0  3  0  0  0  0  0  0
  186.8950  176.7010  144.3090 C   0  0  0  0  0  0  0  0  0  0  0  0
  188.8110  175.8050  145.7760 C   0  0  0  0  0  2  0  0  0  0  0  0
  189.8190  176.9310  145.9440 C   0  0  0  0  0  2  0  0  0  0  0  0
  190.5480  176.7910  147.2680 C   0  0  0  0  0  2  0  0  0  0  0  0
  191.6540  175.7550  147.1560 C   0  0  0  0  0  2  0  0  0  0  0  0
  193.0670  175.6310  144.6750 O   0  0  0  0  0  0  0  0  0  0  0  0
  192.9230  176.4080  146.8750 N   0  0  0  0  0  2  0  0  0  0  0  0
  194.8560  177.0260  145.3820 C   0  0  0  0  0  1  0  0  0  0  0  0
  193.5720  176.3130  145.6050 C   0  0  0  0  0  0  0  0  0  0  0  0
  190.3230  173.4830  139.8700 N   0  0  0  0  0  2  0  0  0  0  0  0
  189.5790  172.5300  139.0600 C   0  0  0  0  0  2  0  0  0  0  0  0
  189.6850  170.2000  138.5100 O   0  0  0  0  0  1  0  0  0  0  0  0
  190.4630  171.3410  138.7180 C   0  0  2  0  0  3  0  0  0  0  0  0
  191.4980  171.0920  139.8090 C   0  0  0  0  0  2  0  0  0  0  0  0
  191.1080  169.9330  140.7140 C   0  0  0  0  0  2  0  0  0  0  0  0
  190.4410  170.4240  141.8350 O   0  0  0  0  0  1  0  0  0  0  0  0
  1  7  1  0  0  0  0
  1 12  2  0  0  0  0
  2 13  2  0  0  0  0
  2 15  1  0  0  0  0
  3 17  1  0  0  0  0
  4  8  2  0  0  0  0
  4 13  1  0  0  0  0
  5  9  2  0  0  0  0
  5  8  1  0  0  0  0
  6 14  1  0  0  0  0
  8  1  1  0  0  0  0
  9 10  1  0  0  0  0
 10  7  2  0  0  0  0
 11  6  2  0  0  0  0
 12 19  1  0  0  0  0
 13 18  1  0  0  0  0
 15 16  2  0  0  0  0
 16  3  1  0  0  0  0
 16 11  1  0  0  0  0
 17 14  2  0  0  0  0
 18 12  1  0  0  0  0
 18  3  2  0  0  0  0
 19 20  1  0  0  0  0
 20 21  1  0  0  0  0
 22 21  1  0  0  0  0
 23 26  2  0  0  0  0
 24 22  1  0  0  0  0
 25 26  1  0  0  0  0
 26 24  1  0  0  0  0
 27  9  1  0  0  0  0
 28 27  1  0  0  0  0
 30 29  1  1  0  0  0
 30 28  1  0  0  0  0
 30 31  1  0  0  0  0
 31 32  1  0  0  0  0
 32 33  1  0  0  0  0
M  END
>  <MODEL>
7

>  <REMARK>
 VINA RESULT:      -6.8      2.483      5.655
  Name = 
  10 active torsions:
  status: ('A' for Active; 'I' for Inactive)
    1  A    between atoms: C_1  and  C_19
    2  A    between atoms: C_1  and  C_26
    3  A    between atoms: C_2  and  C_12
    4  A    between atoms: C_5  and  N_24
    5  A    between atoms: C_5  and  C_30
    6  A    between atoms: N_6  and  C_25
    7  A    between atoms: C_12  and  C_30
    8  A    between atoms: C_14  and  C_19
    9  A    between atoms: C_14  and  C_25
   10  A    between atoms: C_18  and  N_24
                            x       y       z     vdW  Elec       q    Type
                         _______ _______ _______ _____ _____    ______ ____

>  <TORSDO>
F 10

$$$$
=
 OpenBabel11042416163D

 33 36  0  0  1  0  0  0  0  0999 V2000
  189.8480  176.4070  144.8000 C   0  0  0  0  0  0  0  0  0  0  0  0
  193.5880  176.5010  146.6620 C   0  0  0  0  0  3  0  0  0  0  0  0
  193.5270  176.2060  143.8670 C   0  0  0  0  0  0  0  0  0  0  0  0
  191.2320  176.5580  146.7470 N   0  0  0  0  0  0  0  0  0  0  0  0
  188.8730  176.6300  147.0210 C   0  0  0  0  0  3  0  0  0  0  0  0
  195.9990  175.9740  142.5110 C   0  0  0  0  0  3  0  0  0  0  0  0
  188.5520  176.3850  144.2570 C   0  0  0  0  0  3  0  0  0  0  0  0
  189.9980  176.5300  146.1970 C   0  0  0  0  0  0  0  0  0  0  0  0
  187.5880  176.6070  146.4720 C   0  0  0  0  0  0  0  0  0  0  0  0
  187.4310  176.4830  145.0860 C   0  0  0  0  0  3  0  0  0  0  0  0
  195.9770  176.1380  143.8950 C   0  0  0  0  0  3  0  0  0  0  0  0
  190.9960  176.3110  143.9820 C   0  0  0  0  0  0  0  0  0  0  0  0
  192.3610  176.4610  146.0020 C   0  0  0  0  0  0  0  0  0  0  0  0
  194.8010  175.9200  141.7990 C   0  0  0  0  0  3  0  0  0  0  0  0
  194.7780  176.3980  145.9560 C   0  0  0  0  0  3  0  0  0  0  0  0
  194.7600  176.2490  144.5740 C   0  0  0  0  0  0  0  0  0  0  0  0
  193.5830  176.0320  142.4720 C   0  0  0  0  0  3  0  0  0  0  0  0
  192.2940  176.3250  144.5850 C   0  0  0  0  0  0  0  0  0  0  0  0
  190.7970  176.2390  142.4930 C   0  0  0  0  0  2  0  0  0  0  0  0
  190.0830  174.9490  142.1200 C   0  0  0  0  0  2  0  0  0  0  0  0
  191.0060  174.0480  141.3230 C   0  0  0  0  0  2  0  0  0  0  0  0
  191.1350  172.6920  141.9990 C   0  0  0  0  0  2  0  0  0  0  0  0
  191.0690  172.8960  144.8490 O   0  0  0  0  0  0  0  0  0  0  0  0
  192.2980  172.6790  142.8720 N   0  0  0  0  0  2  0  0  0  0  0  0
  193.4240  172.7300  145.1250 C   0  0  0  0  0  1  0  0  0  0  0  0
  192.1930  172.7740  144.2940 C   0  0  0  0  0  0  0  0  0  0  0  0
  186.4580  176.7090  147.3410 N   0  0  0  0  0  2  0  0  0  0  0  0
  185.9940  177.9750  147.8890 C   0  0  0  0  0  2  0  0  0  0  0  0
  184.1480  177.5060  146.4350 O   0  0  0  0  0  1  0  0  0  0  0  0
  184.8840  178.5400  147.0180 C   0  0  2  0  0  3  0  0  0  0  0  0
  185.4440  179.4690  145.9460 C   0  0  0  0  0  2  0  0  0  0  0  0
  184.8050  179.2240  144.5870 C   0  0  0  0  0  2  0  0  0  0  0  0
  185.6920  179.6070  143.5820 O   0  0  0  0  0  1  0  0  0  0  0  0
  1  8  1  0  0  0  0
  3 16  1  0  0  0  0
  3 18  1  0  0  0  0
  6 11  1  0  0  0  0
  7  1  2  0  0  0  0
  7 10  1  0  0  0  0
  8  4  1  0  0  0  0
  8  5  2  0  0  0  0
  9  5  1  0  0  0  0
  9 27  1  0  0  0  0
 10  9  2  0  0  0  0
 11 16  2  0  0  0  0
 12 18  2  0  0  0  0
 12  1  1  0  0  0  0
 13  2  1  0  0  0  0
 13  4  2  0  0  0  0
 14 17  1  0  0  0  0
 14  6  2  0  0  0  0
 15  2  2  0  0  0  0
 16 15  1  0  0  0  0
 17  3  2  0  0  0  0
 18 13  1  0  0  0  0
 19 12  1  0  0  0  0
 20 19  1  0  0  0  0
 21 22  1  0  0  0  0
 21 20  1  0  0  0  0
 22 24  1  0  0  0  0
 24 26  1  0  0  0  0
 26 23  2  0  0  0  0
 26 25  1  0  0  0  0
 27 28  1  0  0  0  0
 30 29  1  6  0  0  0
 30 28  1  0  0  0  0
 31 30  1  0  0  0  0
 32 31  1  0  0  0  0
 33 32  1  0  0  0  0
M  END
>  <MODEL>
8

>  <REMARK>
 VINA RESULT:      -6.7      2.671      7.457
  Name = 
  10 active torsions:
  status: ('A' for Active; 'I' for Inactive)
    1  A    between atoms: C_1  and  C_19
    2  A    between atoms: C_1  and  C_26
    3  A    between atoms: C_2  and  C_12
    4  A    between atoms: C_5  and  N_24
    5  A    between atoms: C_5  and  C_30
    6  A    between atoms: N_6  and  C_25
    7  A    between atoms: C_12  and  C_30
    8  A    between atoms: C_14  and  C_19
    9  A    between atoms: C_14  and  C_25
   10  A    between atoms: C_18  and  N_24
                            x       y       z     vdW  Elec       q    Type
                         _______ _______ _______ _____ _____    ______ ____

>  <TORSDO>
F 10

$$$$
=
 OpenBabel11042416163D

 33 36  0  0  1  0  0  0  0  0999 V2000
  189.1980  174.9620  143.7680 C   0  0  0  0  0  0  0  0  0  0  0  0
  186.6090  178.0880  142.7750 C   0  0  0  0  0  3  0  0  0  0  0  0
  186.9730  177.5100  145.5020 C   0  0  0  0  0  0  0  0  0  0  0  0
  188.0800  176.3480  142.1690 N   0  0  0  0  0  0  0  0  0  0  0  0
  189.5270  174.6390  141.3760 C   0  0  0  0  0  3  0  0  0  0  0  0
  185.5490  179.0690  147.3830 C   0  0  0  0  0  3  0  0  0  0  0  0
  190.0840  173.8980  144.0120 C   0  0  0  0  0  3  0  0  0  0  0  0
  188.9250  175.3270  142.4340 C   0  0  0  0  0  0  0  0  0  0  0  0
  190.4060  173.5820  141.6280 C   0  0  0  0  0  0  0  0  0  0  0  0
  190.6820  173.2130  142.9510 C   0  0  0  0  0  3  0  0  0  0  0  0
  185.4140  179.3290  146.0200 C   0  0  0  0  0  3  0  0  0  0  0  0
  188.5830  175.6710  144.8240 C   0  0  0  0  0  0  0  0  0  0  0  0
  187.4620  177.0510  143.1490 C   0  0  0  0  0  0  0  0  0  0  0  0
  186.3830  178.0390  147.8150 C   0  0  0  0  0  3  0  0  0  0  0  0
  185.9410  178.8390  143.7320 C   0  0  0  0  0  3  0  0  0  0  0  0
  186.1110  178.5600  145.0830 C   0  0  0  0  0  0  0  0  0  0  0  0
  187.0820  177.2700  146.8840 C   0  0  0  0  0  3  0  0  0  0  0  0
  187.6780  176.7390  144.5220 C   0  0  0  0  0  0  0  0  0  0  0  0
  188.9440  175.2910  146.2340 C   0  0  0  0  0  2  0  0  0  0  0  0
  190.0880  176.1580  146.7340 C   0  0  0  0  0  2  0  0  0  0  0  0
  191.2220  175.2900  147.2470 C   0  0  0  0  0  2  0  0  0  0  0  0
  192.5560  175.8090  146.7380 C   0  0  0  0  0  2  0  0  0  0  0  0
  193.8490  174.8350  144.3820 O   0  0  0  0  0  0  0  0  0  0  0  0
  192.4000  176.3610  145.4010 N   0  0  0  0  0  2  0  0  0  0  0  0
  192.8450  176.4180  142.9220 C   0  0  0  0  0  1  0  0  0  0  0  0
  193.0690  175.8170  144.2620 C   0  0  0  0  0  0  0  0  0  0  0  0
  191.0050  172.8960  140.5260 N   0  0  0  0  0  2  0  0  0  0  0  0
  190.6050  173.1190  139.1450 C   0  0  0  0  0  2  0  0  0  0  0  0
  188.3490  172.3200  139.0260 O   0  0  0  0  0  1  0  0  0  0  0  0
  189.6690  172.0110  138.6920 C   0  0  2  0  0  3  0  0  0  0  0  0
  190.0730  170.6690  139.2940 C   0  0  0  0  0  2  0  0  0  0  0  0
  190.2400  169.5920  138.2310 C   0  0  0  0  0  2  0  0  0  0  0  0
  189.6980  170.0410  137.0280 O   0  0  0  0  0  1  0  0  0  0  0  0
  1  7  1  0  0  0  0
  1 12  2  0  0  0  0
  2 13  2  0  0  0  0
  2 15  1  0  0  0  0
  3 17  1  0  0  0  0
  4  8  2  0  0  0  0
  4 13  1  0  0  0  0
  5  9  2  0  0  0  0
  5  8  1  0  0  0  0
  6 14  1  0  0  0  0
  8  1  1  0  0  0  0
  9 10  1  0  0  0  0
 10  7  2  0  0  0  0
 11  6  2  0  0  0  0
 12 19  1  0  0  0  0
 13 18  1  0  0  0  0
 15 16  2  0  0  0  0
 16  3  1  0  0  0  0
 16 11  1  0  0  0  0
 17 14  2  0  0  0  0
 18 12  1  0  0  0  0
 18  3  2  0  0  0  0
 19 20  1  0  0  0  0
 20 21  1  0  0  0  0
 22 21  1  0  0  0  0
 24 22  1  0  0  0  0
 25 26  1  0  0  0  0
 26 23  2  0  0  0  0
 26 24  1  0  0  0  0
 27  9  1  0  0  0  0
 28 27  1  0  0  0  0
 30 29  1  1  0  0  0
 30 28  1  0  0  0  0
 30 31  1  0  0  0  0
 32 31  1  0  0  0  0
 33 32  1  0  0  0  0
M  END
>  <MODEL>
9

>  <REMARK>
 VINA RESULT:      -6.7      2.714      5.788
  Name = 
  10 active torsions:
  status: ('A' for Active; 'I' for Inactive)
    1  A    between atoms: C_1  and  C_19
    2  A    between atoms: C_1  and  C_26
    3  A    between atoms: C_2  and  C_12
    4  A    between atoms: C_5  and  N_24
    5  A    between atoms: C_5  and  C_30
    6  A    between atoms: N_6  and  C_25
    7  A    between atoms: C_12  and  C_30
    8  A    between atoms: C_14  and  C_19
    9  A    between atoms: C_14  and  C_25
   10  A    between atoms: C_18  and  N_24
                            x       y       z     vdW  Elec       q    Type
                         _______ _______ _______ _____ _____    ______ ____

>  <TORSDO>
F 10

$$$$
