=
 OpenBabel11042418063D

 65 75  0  0  1  0  0  0  0  0999 V2000
  188.6560  172.5930  137.7640 C   0  0  0  0  0  2  0  0  0  0  0  0
  194.1480  171.1480  145.5060 C   0  0  0  0  0  2  0  0  0  0  0  0
  189.1750  172.5030  138.9820 C   0  0  0  0  0  0  0  0  0  0  0  0
  190.4160  173.2340  143.2660 C   0  0  0  0  0  0  0  0  0  0  0  0
  194.2940  169.8390  144.7860 C   0  0  1  0  0  3  0  0  0  0  0  0
  194.0890  169.9400  142.8880 S   0  0  0  0  0  0  0  0  0  0  0  0
  193.2610  172.0590  144.4610 C   0  0  2  0  0  3  0  0  0  0  0  0
  190.9460  172.2460  142.1820 C   0  0  1  0  0  3  0  0  0  0  0  0
  192.2100  172.9650  145.1070 N   0  0  0  0  0  2  0  0  0  0  0  0
  188.5930  174.7580  142.1000 C   0  0  0  0  0  3  0  0  0  0  0  0
  189.0760  172.9700  140.4200 C   0  0  1  0  0  0  0  0  0  0  0  0
  188.6230  174.4610  140.6700 C   0  0  0  0  0  2  0  0  0  0  0  0
  190.3430  171.7500  139.5520 C   0  0  2  0  0  0  0  0  0  0  0  0
  191.1330  173.5470  144.6110 C   0  0  2  0  0  3  0  0  0  0  0  0
  192.8720  171.2370  143.1150 C   0  0  2  0  0  3  0  0  0  0  0  0
  189.4710  174.0310  142.8630 C   0  0  0  0  0  0  0  0  0  0  0  0
  191.4130  170.8170  142.6020 C   0  0  0  0  0  2  0  0  0  0  0  0
  190.5520  172.6620  140.6800 C   0  0  2  0  0  3  0  0  0  0  0  0
  190.3870  174.4840  145.6620 C   0  0  0  0  0  2  0  0  0  0  0  0
  189.8230  175.6250  145.3690 C   0  0  0  0  0  2  0  0  0  0  0  0
  189.2900  176.3170  146.5410 C   0  0  0  0  0  2  0  0  0  0  0  0
  187.8700  175.9010  146.7070 N   0  0  0  0  0  2  0  0  0  0  0  0
  186.3470  177.8380  147.6680 C   0  0  0  0  0  2  0  0  0  0  0  0
  185.6790  176.8740  146.6850 C   0  0  2  0  0  3  0  0  0  0  0  0
  187.1030  177.1940  146.4850 C   0  0  2  0  0  3  0  0  0  0  0  0
  184.8760  177.5610  145.6320 C   0  0  0  0  0  0  0  0  0  0  0  0
  184.3370  178.6660  146.0330 O   0  0  0  0  0  0  0  0  0  0  0  0
  185.8620  179.4380  143.7340 O   0  0  0  0  0  0  0  0  0  0  0  0
  185.3480  178.4050  143.2660 C   0  0  0  0  0  0  0  0  0  0  0  0
  184.9350  177.3310  144.1860 N   0  0  0  0  0  2  0  0  0  0  0  0
  186.9960  178.5200  141.3780 C   0  0  2  0  0  3  0  0  0  0  0  0
  186.3770  177.2220  141.0020 C   0  0  0  0  0  2  0  0  0  0  0  0
  188.1110  177.9060  142.1980 C   0  0  0  0  0  1  0  0  0  0  0  0
  185.5450  178.2310  141.7250 C   0  0  1  0  0  0  0  0  0  0  0  0
  182.1830  177.9280  140.2770 C   0  0  0  0  0  1  0  0  0  0  0  0
  183.1470  178.3120  141.2890 C   0  0  0  0  0  0  0  0  0  0  0  0
  182.7400  178.3880  142.4650 O   0  0  0  0  0  0  0  0  0  0  0  0
  184.4430  178.7850  140.9330 N   0  0  0  0  0  2  0  0  0  0  0  0
  191.3350  170.9180  138.7910 C   0  0  0  0  0  2  0  0  0  0  0  0
  192.6140  171.8580  138.4670 C   0  0  0  0  0  0  0  0  0  0  0  0
  193.7730  171.9360  139.0060 O   0  0  0  0  0  0  0  0  0  0  0  0
  193.1410  172.5810  135.9390 S   0  0  0  0  0  0  0  0  0  0  0  0
  192.8590  174.1340  135.3690 C   0  0  0  0  0  3  0  0  0  0  0  0
  192.5800  172.8450  137.4440 C   0  0  0  0  0  0  0  0  0  0  0  0
  192.1070  174.0530  137.5750 N   0  0  0  0  0  0  0  0  0  0  0  0
  192.2890  174.7730  136.4160 N   0  0  0  0  0  0  0  0  0  0  0  0
  195.7540  169.3520  145.1600 C   0  0  0  0  0  2  0  0  0  0  0  0
  196.5900  170.5320  145.4410 C   0  0  0  0  0  2  0  0  0  0  0  0
  197.9410  170.5050  144.6920 C   0  0  0  0  0  2  0  0  0  0  0  0
  197.8080  171.2800  143.3840 C   0  0  0  0  0  0  0  0  0  0  0  0
  197.4040  170.7400  142.3460 O   0  0  0  0  0  0  0  0  0  0  0  0
  197.7430  172.8860  143.4400 C   0  0  0  0  0  2  0  0  0  0  0  0
  193.1320  177.0400  144.7660 C   0  0  0  0  0  2  0  0  0  0  0  0
  195.4410  174.5010  142.9520 C   0  0  2  0  0  0  0  0  0  0  0  0
  196.1550  175.0440  141.6770 C   0  0  0  0  0  2  0  0  0  0  0  0
  194.8660  175.7500  143.6630 C   0  0  2  0  0  3  0  0  0  0  0  0
  194.6920  175.9050  146.4630 C   0  0  0  0  0  2  0  0  0  0  0  0
  196.4750  173.7850  143.8790 C   0  0  2  0  0  3  0  0  0  0  0  0
  195.3960  175.5120  145.1370 C   0  0  1  0  0  3  0  0  0  0  0  0
  193.2440  176.3010  146.1240 C   0  0  0  0  0  2  0  0  0  0  0  0
  195.8750  173.0760  141.0860 O   0  0  0  0  0  1  0  0  0  0  0  0
  195.0520  174.0810  141.5340 C   0  0  1  0  0  3  0  0  0  0  0  0
  196.7170  173.6630  146.2740 O   0  0  0  0  0  1  0  0  0  0  0  0
  193.3900  176.1650  143.5240 C   0  0  0  0  0  2  0  0  0  0  0  0
  196.6560  174.5690  145.1590 C   0  0  1  0  0  3  0  0  0  0  0  0
  1  3  2  0  0  0  0
  3 13  1  0  0  0  0
  3 11  1  0  0  0  0
  4 14  1  0  0  0  0
  5 47  1  6  0  0  0
  5  2  1  0  0  0  0
  6 15  1  0  0  0  0
  6  5  1  0  0  0  0
  7  9  1  0  0  0  0
  7  2  1  1  0  0  0
  8 17  1  1  0  0  0
  8  4  1  0  0  0  0
 10 16  2  0  0  0  0
 11 12  1  1  0  0  0
 11 18  1  0  0  0  0
 12 10  1  0  0  0  0
 13 39  1  1  0  0  0
 13 11  1  0  0  0  0
 13 18  1  0  0  0  0
 14  9  1  0  0  0  0
 14 19  1  1  0  0  0
 15 17  1  1  0  0  0
 15  7  1  0  0  0  0
 16  4  2  0  0  0  0
 18  8  1  0  0  0  0
 20 19  1  0  0  0  0
 20 21  1  0  0  0  0
 21 22  1  0  0  0  0
 24 23  1  0  0  0  0
 25 24  1  0  0  0  0
 25 22  1  0  0  0  0
 25 23  1  0  0  0  0
 26 27  2  0  0  0  0
 26 24  1  0  0  0  0
 29 28  2  0  0  0  0
 29 30  1  0  0  0  0
 30 26  1  0  0  0  0
 31 34  1  0  0  0  0
 31 33  1  0  0  0  0
 32 31  1  0  0  0  0
 32 34  1  0  0  0  0
 34 29  1  0  0  0  0
 35 36  1  0  0  0  0
 36 37  2  0  0  0  0
 38 36  1  0  0  0  0
 38 34  1  0  0  0  0
 40 39  1  0  0  0  0
 40 41  2  0  0  0  0
 42 44  1  0  0  0  0
 43 42  1  0  0  0  0
 43 46  2  0  0  0  0
 44 45  2  0  0  0  0
 44 40  1  0  0  0  0
 46 45  1  0  0  0  0
 47 48  1  0  0  0  0
 49 48  1  0  0  0  0
 50 52  1  0  0  0  0
 50 49  1  0  0  0  0
 51 50  2  0  0  0  0
 52 58  1  0  0  0  0
 53 60  1  0  0  0  0
 54 56  1  0  0  0  0
 54 58  1  0  0  0  0
 55 54  1  0  0  0  0
 56 59  1  0  0  0  0
 58 65  1  0  0  0  0
 59 65  1  0  0  0  0
 59 57  1  0  0  0  0
 60 57  1  0  0  0  0
 61 62  1  0  0  0  0
 62 55  1  0  0  0  0
 62 54  1  0  0  0  0
 64 56  1  0  0  0  0
 64 53  1  0  0  0  0
 65 63  1  0  0  0  0
M  END
>  <MODEL>
1

>  <REMARK>
 VINA RESULT:      -8.2      0.000      0.000
  Name = 
  16 active torsions:
  status: ('A' for Active; 'I' for Inactive)
    1  A    between atoms: N_1  and  C_15
    2  A    between atoms: N_1  and  C_40
    3  A    between atoms: C_3  and  C_34
    4  A    between atoms: C_4  and  C_56
    5  A    between atoms: C_9  and  C_20
    6  A    between atoms: C_9  and  C_46
    7  A    between atoms: C_15  and  C_54
    8  A    between atoms: C_20  and  C_64
    9  A    between atoms: C_21  and  C_25
   10  A    between atoms: C_24  and  C_41
   11  A    between atoms: C_25  and  C_46
   12  A    between atoms: C_28  and  C_60
   13  A    between atoms: C_31  and  C_64
   14  A    between atoms: N_36  and  C_60
   15  A    between atoms: C_41  and  C_50
   16  A    between atoms: C_50  and  C_53
                            x       y       z     vdW  Elec       q    Type
                         _______ _______ _______ _____ _____    ______ ____

>  <TORSDO>
F 16

$$$$
=
 OpenBabel11042418063D

 65 75  0  0  1  0  0  0  0  0999 V2000
  197.5790  174.4800  144.6360 C   0  0  0  0  0  2  0  0  0  0  0  0
  189.4580  173.3890  139.6300 C   0  0  0  0  0  2  0  0  0  0  0  0
  196.3390  174.5020  144.1630 C   0  0  0  0  0  0  0  0  0  0  0  0
  191.8450  174.4590  143.6860 C   0  0  0  0  0  0  0  0  0  0  0  0
  190.4280  173.7700  138.5490 C   0  0  1  0  0  3  0  0  0  0  0  0
  192.2460  173.2890  138.8960 S   0  0  0  0  0  0  0  0  0  0  0  0
  190.4110  173.2580  140.9660 C   0  0  2  0  0  3  0  0  0  0  0  0
  193.0030  174.2530  142.6630 C   0  0  1  0  0  3  0  0  0  0  0  0
  189.7950  173.7790  142.2660 N   0  0  0  0  0  2  0  0  0  0  0  0
  192.9560  174.6820  146.0790 C   0  0  0  0  0  3  0  0  0  0  0  0
  194.8830  174.7670  144.4870 C   0  0  1  0  0  0  0  0  0  0  0  0
  194.3770  174.3810  145.9310 C   0  0  0  0  0  2  0  0  0  0  0  0
  195.7410  174.1820  142.8230 C   0  0  2  0  0  0  0  0  0  0  0  0
  190.3460  174.1450  143.4100 C   0  0  2  0  0  3  0  0  0  0  0  0
  191.9660  173.5950  140.6400 C   0  0  2  0  0  3  0  0  0  0  0  0
  192.2290  174.6340  144.9170 C   0  0  0  0  0  0  0  0  0  0  0  0
  192.8550  174.8010  141.2090 C   0  0  0  0  0  2  0  0  0  0  0  0
  194.4070  173.8680  143.3440 C   0  0  2  0  0  3  0  0  0  0  0  0
  189.2760  174.5370  144.5230 C   0  0  0  0  0  2  0  0  0  0  0  0
  189.2820  175.6560  145.1970 C   0  0  0  0  0  2  0  0  0  0  0  0
  188.2370  175.7160  146.2170 C   0  0  0  0  0  2  0  0  0  0  0  0
  188.5270  176.8830  147.0950 N   0  0  0  0  0  2  0  0  0  0  0  0
  186.4950  178.4070  147.8300 C   0  0  0  0  0  2  0  0  0  0  0  0
  186.1520  177.1880  146.9720 C   0  0  2  0  0  3  0  0  0  0  0  0
  187.4330  177.8720  146.7270 C   0  0  2  0  0  3  0  0  0  0  0  0
  185.2180  177.4940  145.8500 C   0  0  0  0  0  0  0  0  0  0  0  0
  184.3250  178.3800  146.1500 O   0  0  0  0  0  0  0  0  0  0  0  0
  185.6150  179.4600  143.8300 O   0  0  0  0  0  0  0  0  0  0  0  0
  185.4940  178.2850  143.4350 C   0  0  0  0  0  0  0  0  0  0  0  0
  185.4180  177.2000  144.4290 N   0  0  0  0  0  2  0  0  0  0  0  0
  187.2990  178.2940  141.6910 C   0  0  2  0  0  3  0  0  0  0  0  0
  186.6480  177.0240  141.2750 C   0  0  0  0  0  2  0  0  0  0  0  0
  188.3090  177.6350  142.6070 C   0  0  0  0  0  1  0  0  0  0  0  0
  185.8110  178.0820  141.9180 C   0  0  1  0  0  0  0  0  0  0  0  0
  182.6020  177.9020  140.1400 C   0  0  0  0  0  1  0  0  0  0  0  0
  183.4710  178.2420  141.2490 C   0  0  0  0  0  0  0  0  0  0  0  0
  182.9520  178.3110  142.3810 O   0  0  0  0  0  0  0  0  0  0  0  0
  184.8090  178.6810  141.0310 N   0  0  0  0  0  2  0  0  0  0  0  0
  196.4590  173.6300  141.6250 C   0  0  0  0  0  2  0  0  0  0  0  0
  196.8720  174.8820  140.6830 C   0  0  0  0  0  0  0  0  0  0  0  0
  197.4550  175.9920  140.9480 O   0  0  0  0  0  0  0  0  0  0  0  0
  197.6320  174.4640  138.1460 S   0  0  0  0  0  0  0  0  0  0  0  0
  196.6470  174.8300  136.8390 C   0  0  0  0  0  3  0  0  0  0  0  0
  196.5690  174.9100  139.2950 C   0  0  0  0  0  0  0  0  0  0  0  0
  195.4320  175.2850  138.7770 N   0  0  0  0  0  0  0  0  0  0  0  0
  195.4940  175.2580  137.4020 N   0  0  0  0  0  0  0  0  0  0  0  0
  189.8910  173.0170  137.2640 C   0  0  0  0  0  2  0  0  0  0  0  0
  190.8270  171.9290  136.9260 C   0  0  0  0  0  2  0  0  0  0  0  0
  190.1740  170.8150  136.0770 C   0  0  0  0  0  2  0  0  0  0  0  0
  191.2160  169.7460  135.7630 C   0  0  0  0  0  0  0  0  0  0  0  0
  191.8480  169.7450  134.6980 O   0  0  0  0  0  0  0  0  0  0  0  0
  191.8360  168.8910  136.9760 C   0  0  0  0  0  2  0  0  0  0  0  0
  193.7200  170.3400  142.8600 C   0  0  0  0  0  2  0  0  0  0  0  0
  193.6170  169.7820  139.0200 C   0  0  2  0  0  0  0  0  0  0  0  0
  194.6750  168.7800  138.4650 C   0  0  0  0  0  2  0  0  0  0  0  0
  193.6340  169.5860  140.5550 C   0  0  2  0  0  3  0  0  0  0  0  0
  191.3090  169.8770  142.1050 C   0  0  0  0  0  2  0  0  0  0  0  0
  192.2040  169.4360  138.4510 C   0  0  2  0  0  3  0  0  0  0  0  0
  192.0850  169.4200  140.8420 C   0  0  1  0  0  3  0  0  0  0  0  0
  192.2400  170.7930  142.9200 C   0  0  0  0  0  2  0  0  0  0  0  0
  194.5930  170.0960  136.8630 O   0  0  0  0  0  1  0  0  0  0  0  0
  194.8390  170.2200  138.2100 C   0  0  1  0  0  3  0  0  0  0  0  0
  189.9910  169.5150  139.4040 O   0  0  0  0  0  1  0  0  0  0  0  0
  194.4070  170.5310  141.4940 C   0  0  0  0  0  2  0  0  0  0  0  0
  191.3030  168.9460  139.5610 C   0  0  1  0  0  3  0  0  0  0  0  0
  3 11  1  0  0  0  0
  3  1  2  0  0  0  0
  4 16  2  0  0  0  0
  5 47  1  6  0  0  0
  5  6  1  0  0  0  0
  5  2  1  0  0  0  0
  6 15  1  0  0  0  0
  7  2  1  6  0  0  0
  7  9  1  0  0  0  0
  8 17  1  1  0  0  0
  8 18  1  0  0  0  0
  8  4  1  0  0  0  0
  9 14  1  0  0  0  0
 11 12  1  1  0  0  0
 12 10  1  0  0  0  0
 13 39  1  6  0  0  0
 13 18  1  0  0  0  0
 13  3  1  0  0  0  0
 13 11  1  0  0  0  0
 14  4  1  0  0  0  0
 14 19  1  6  0  0  0
 15  7  1  0  0  0  0
 15 17  1  6  0  0  0
 16 10  2  0  0  0  0
 18 11  1  0  0  0  0
 19 20  1  0  0  0  0
 20 21  1  0  0  0  0
 21 22  1  0  0  0  0
 24 23  1  0  0  0  0
 25 24  1  0  0  0  0
 25 22  1  0  0  0  0
 25 23  1  0  0  0  0
 26 27  2  0  0  0  0
 26 24  1  0  0  0  0
 29 28  2  0  0  0  0
 29 30  1  0  0  0  0
 30 26  1  0  0  0  0
 31 34  1  0  0  0  0
 31 33  1  0  0  0  0
 32 31  1  0  0  0  0
 32 34  1  0  0  0  0
 34 29  1  0  0  0  0
 35 36  1  0  0  0  0
 36 37  2  0  0  0  0
 38 36  1  0  0  0  0
 38 34  1  0  0  0  0
 40 41  2  0  0  0  0
 40 39  1  0  0  0  0
 42 44  1  0  0  0  0
 43 46  2  0  0  0  0
 43 42  1  0  0  0  0
 44 40  1  0  0  0  0
 45 44  2  0  0  0  0
 46 45  1  0  0  0  0
 48 47  1  0  0  0  0
 49 48  1  0  0  0  0
 50 49  1  0  0  0  0
 50 52  1  0  0  0  0
 51 50  2  0  0  0  0
 52 58  1  0  0  0  0
 53 60  1  0  0  0  0
 54 56  1  0  0  0  0
 55 54  1  0  0  0  0
 56 59  1  0  0  0  0
 56 64  1  0  0  0  0
 57 60  1  0  0  0  0
 58 54  1  0  0  0  0
 58 65  1  0  0  0  0
 59 57  1  0  0  0  0
 61 62  1  0  0  0  0
 62 55  1  0  0  0  0
 62 54  1  0  0  0  0
 63 65  1  0  0  0  0
 64 53  1  0  0  0  0
 65 59  1  0  0  0  0
M  END
>  <MODEL>
2

>  <REMARK>
 VINA RESULT:      -8.0      2.216      5.901
  Name = 
  16 active torsions:
  status: ('A' for Active; 'I' for Inactive)
    1  A    between atoms: N_1  and  C_15
    2  A    between atoms: N_1  and  C_40
    3  A    between atoms: C_3  and  C_34
    4  A    between atoms: C_4  and  C_56
    5  A    between atoms: C_9  and  C_20
    6  A    between atoms: C_9  and  C_46
    7  A    between atoms: C_15  and  C_54
    8  A    between atoms: C_20  and  C_64
    9  A    between atoms: C_21  and  C_25
   10  A    between atoms: C_24  and  C_41
   11  A    between atoms: C_25  and  C_46
   12  A    between atoms: C_28  and  C_60
   13  A    between atoms: C_31  and  C_64
   14  A    between atoms: N_36  and  C_60
   15  A    between atoms: C_41  and  C_50
   16  A    between atoms: C_50  and  C_53
                            x       y       z     vdW  Elec       q    Type
                         _______ _______ _______ _____ _____    ______ ____

>  <TORSDO>
F 16

$$$$
=
 OpenBabel11042418063D

 65 75  0  0  1  0  0  0  0  0999 V2000
  191.5200  169.5340  134.5960 C   0  0  0  0  0  2  0  0  0  0  0  0
  188.4190  174.5380  142.1810 C   0  0  0  0  0  2  0  0  0  0  0  0
  191.3480  170.1280  135.7700 C   0  0  0  0  0  0  0  0  0  0  0  0
  191.1930  171.1370  140.1730 C   0  0  0  0  0  0  0  0  0  0  0  0
  188.2330  175.5310  141.0710 C   0  0  1  0  0  3  0  0  0  0  0  0
  187.9250  174.7590  139.3490 S   0  0  0  0  0  0  0  0  0  0  0  0
  188.9010  173.1740  141.3950 C   0  0  2  0  0  3  0  0  0  0  0  0
  190.5090  171.7850  138.9310 C   0  0  1  0  0  3  0  0  0  0  0  0
  189.9800  172.3530  142.1050 N   0  0  0  0  0  2  0  0  0  0  0  0
  192.4750  168.9850  139.3160 C   0  0  0  0  0  3  0  0  0  0  0  0
  191.7670  170.1620  137.2260 C   0  0  1  0  0  0  0  0  0  0  0  0
  192.1070  168.7850  137.9170 C   0  0  0  0  0  2  0  0  0  0  0  0
  190.4570  171.2410  136.2430 C   0  0  2  0  0  0  0  0  0  0  0  0
  190.8220  171.4400  141.6530 C   0  0  2  0  0  3  0  0  0  0  0  0
  189.0120  173.4040  139.7910 C   0  0  2  0  0  3  0  0  0  0  0  0
  191.9100  170.0830  139.9130 C   0  0  0  0  0  0  0  0  0  0  0  0
  190.3240  173.3340  138.8720 C   0  0  0  0  0  2  0  0  0  0  0  0
  190.4520  170.8210  137.6470 C   0  0  2  0  0  3  0  0  0  0  0  0
  191.7100  170.7850  142.8030 C   0  0  0  0  0  2  0  0  0  0  0  0
  192.3610  171.4600  143.7130 C   0  0  0  0  0  2  0  0  0  0  0  0
  193.1660  170.6110  144.5880 C   0  0  0  0  0  2  0  0  0  0  0  0
  194.1000  171.4940  145.3410 N   0  0  0  0  0  2  0  0  0  0  0  0
  196.7230  171.8310  145.3100 C   0  0  0  0  0  2  0  0  0  0  0  0
  195.9640  172.2980  144.0660 C   0  0  2  0  0  3  0  0  0  0  0  0
  195.4610  171.1130  144.7820 C   0  0  2  0  0  3  0  0  0  0  0  0
  196.5930  171.8580  142.7860 C   0  0  0  0  0  0  0  0  0  0  0  0
  197.1270  170.6820  142.8520 O   0  0  0  0  0  0  0  0  0  0  0  0
  195.2860  170.4810  140.6660 O   0  0  0  0  0  0  0  0  0  0  0  0
  195.7830  171.5850  140.3770 C   0  0  0  0  0  0  0  0  0  0  0  0
  196.3590  172.4130  141.4510 N   0  0  0  0  0  2  0  0  0  0  0  0
  194.0660  172.8390  139.0440 C   0  0  2  0  0  3  0  0  0  0  0  0
  195.2640  173.5250  138.4920 C   0  0  0  0  0  2  0  0  0  0  0  0
  193.8250  173.8520  140.1430 C   0  0  0  0  0  1  0  0  0  0  0  0
  195.3970  172.1110  138.9570 C   0  0  1  0  0  0  0  0  0  0  0  0
  196.2820  171.3750  135.4680 C   0  0  0  0  0  1  0  0  0  0  0  0
  196.5590  171.6110  136.8710 C   0  0  0  0  0  0  0  0  0  0  0  0
  197.6820  172.0680  137.1620 O   0  0  0  0  0  0  0  0  0  0  0  0
  195.6740  171.1470  137.8870 N   0  0  0  0  0  2  0  0  0  0  0  0
  189.3960  171.9450  135.4460 C   0  0  0  0  0  2  0  0  0  0  0  0
  189.6930  173.5350  135.5340 C   0  0  0  0  0  0  0  0  0  0  0  0
  188.9410  174.5260  135.8370 O   0  0  0  0  0  0  0  0  0  0  0  0
  191.3110  175.6640  135.3500 S   0  0  0  0  0  0  0  0  0  0  0  0
  192.8750  175.5580  134.7530 C   0  0  0  0  0  3  0  0  0  0  0  0
  190.9670  174.0800  135.2170 C   0  0  0  0  0  0  0  0  0  0  0  0
  191.9950  173.3990  134.7930 N   0  0  0  0  0  0  0  0  0  0  0  0
  193.0500  174.2390  134.5140 N   0  0  0  0  0  0  0  0  0  0  0  0
  186.9820  176.3890  141.5250 C   0  0  0  0  0  2  0  0  0  0  0  0
  186.6560  176.0500  142.9210 C   0  0  0  0  0  2  0  0  0  0  0  0
  186.0640  177.2410  143.7080 C   0  0  0  0  0  2  0  0  0  0  0  0
  186.4850  177.1380  145.1710 C   0  0  0  0  0  0  0  0  0  0  0  0
  185.8930  176.3980  145.9670 O   0  0  0  0  0  0  0  0  0  0  0  0
  187.9620  177.6190  145.5850 C   0  0  0  0  0  2  0  0  0  0  0  0
  193.7500  175.1520  144.7510 C   0  0  0  0  0  2  0  0  0  0  0  0
  190.1650  175.8670  146.0580 C   0  0  2  0  0  0  0  0  0  0  0  0
  190.0700  176.2370  147.5690 C   0  0  0  0  0  2  0  0  0  0  0  0
  191.6700  175.9560  145.7090 C   0  0  2  0  0  3  0  0  0  0  0  0
  192.5500  176.7850  143.1720 C   0  0  0  0  0  2  0  0  0  0  0  0
  189.3550  176.8950  145.2040 C   0  0  2  0  0  3  0  0  0  0  0  0
  191.6110  176.8560  144.4060 C   0  0  1  0  0  3  0  0  0  0  0  0
  193.3750  175.4910  143.2860 C   0  0  0  0  0  2  0  0  0  0  0  0
  188.2790  175.2120  147.3660 O   0  0  0  0  0  1  0  0  0  0  0  0
  189.5980  174.9190  147.1160 C   0  0  1  0  0  3  0  0  0  0  0  0
  189.7310  177.8790  143.0370 O   0  0  0  0  0  1  0  0  0  0  0  0
  192.5720  174.7100  145.6400 C   0  0  0  0  0  2  0  0  0  0  0  0
  190.2940  177.7150  144.3500 C   0  0  1  0  0  3  0  0  0  0  0  0
  1  3  2  0  0  0  0
  3 13  1  0  0  0  0
  3 11  1  0  0  0  0
  4 14  1  0  0  0  0
  5 47  1  1  0  0  0
  5  2  1  0  0  0  0
  6 15  1  0  0  0  0
  6  5  1  0  0  0  0
  7  9  1  0  0  0  0
  7  2  1  1  0  0  0
  8 17  1  6  0  0  0
  8  4  1  0  0  0  0
 10 16  2  0  0  0  0
 11 18  1  0  0  0  0
 11 12  1  1  0  0  0
 12 10  1  0  0  0  0
 13 39  1  6  0  0  0
 13 11  1  0  0  0  0
 13 18  1  0  0  0  0
 14  9  1  0  0  0  0
 14 19  1  1  0  0  0
 15 17  1  1  0  0  0
 15  7  1  0  0  0  0
 16  4  2  0  0  0  0
 18  8  1  0  0  0  0
 19 20  1  0  0  0  0
 20 21  1  0  0  0  0
 21 22  1  0  0  0  0
 24 25  1  0  0  0  0
 24 23  1  0  0  0  0
 25 23  1  0  0  0  0
 25 22  1  0  0  0  0
 26 27  2  0  0  0  0
 26 24  1  0  0  0  0
 29 28  2  0  0  0  0
 29 30  1  0  0  0  0
 30 26  1  0  0  0  0
 31 33  1  0  0  0  0
 32 34  1  0  0  0  0
 32 31  1  0  0  0  0
 34 31  1  0  0  0  0
 34 29  1  0  0  0  0
 35 36  1  0  0  0  0
 36 37  2  0  0  0  0
 36 38  1  0  0  0  0
 38 34  1  0  0  0  0
 39 40  1  0  0  0  0
 40 41  2  0  0  0  0
 43 42  1  0  0  0  0
 44 42  1  0  0  0  0
 44 40  1  0  0  0  0
 45 44  2  0  0  0  0
 46 43  2  0  0  0  0
 46 45  1  0  0  0  0
 47 48  1  0  0  0  0
 48 49  1  0  0  0  0
 49 50  1  0  0  0  0
 50 52  1  0  0  0  0
 50 51  2  0  0  0  0
 53 64  1  0  0  0  0
 54 62  1  0  0  0  0
 54 55  1  0  0  0  0
 56 54  1  0  0  0  0
 57 60  1  0  0  0  0
 57 59  1  0  0  0  0
 58 52  1  0  0  0  0
 58 54  1  0  0  0  0
 59 56  1  0  0  0  0
 60 53  1  0  0  0  0
 62 61  1  0  0  0  0
 62 55  1  0  0  0  0
 63 65  1  0  0  0  0
 64 56  1  0  0  0  0
 65 59  1  0  0  0  0
 65 58  1  0  0  0  0
M  END
>  <MODEL>
3

>  <REMARK>
 VINA RESULT:      -7.8      2.862      8.778
  Name = 
  16 active torsions:
  status: ('A' for Active; 'I' for Inactive)
    1  A    between atoms: N_1  and  C_15
    2  A    between atoms: N_1  and  C_40
    3  A    between atoms: C_3  and  C_34
    4  A    between atoms: C_4  and  C_56
    5  A    between atoms: C_9  and  C_20
    6  A    between atoms: C_9  and  C_46
    7  A    between atoms: C_15  and  C_54
    8  A    between atoms: C_20  and  C_64
    9  A    between atoms: C_21  and  C_25
   10  A    between atoms: C_24  and  C_41
   11  A    between atoms: C_25  and  C_46
   12  A    between atoms: C_28  and  C_60
   13  A    between atoms: C_31  and  C_64
   14  A    between atoms: N_36  and  C_60
   15  A    between atoms: C_41  and  C_50
   16  A    between atoms: C_50  and  C_53
                            x       y       z     vdW  Elec       q    Type
                         _______ _______ _______ _____ _____    ______ ____

>  <TORSDO>
F 16

$$$$
=
 OpenBabel11042418063D

 65 75  0  0  1  0  0  0  0  0999 V2000
  186.7770  177.9810  146.1310 C   0  0  0  0  0  2  0  0  0  0  0  0
  190.9290  172.6480  139.3110 C   0  0  0  0  0  2  0  0  0  0  0  0
  187.5620  177.1990  145.4000 C   0  0  0  0  0  0  0  0  0  0  0  0
  191.0830  175.1650  143.4270 C   0  0  0  0  0  0  0  0  0  0  0  0
  189.5170  172.1410  139.2700 C   0  0  1  0  0  3  0  0  0  0  0  0
  188.1930  173.4090  139.8140 S   0  0  0  0  0  0  0  0  0  0  0  0
  190.8560  173.8890  140.3900 C   0  0  2  0  0  3  0  0  0  0  0  0
  189.5630  175.1860  143.0790 C   0  0  1  0  0  3  0  0  0  0  0  0
  192.0600  174.0180  141.3270 N   0  0  0  0  0  2  0  0  0  0  0  0
  191.4360  176.8220  145.4600 C   0  0  0  0  0  3  0  0  0  0  0  0
  188.9530  176.6150  145.2500 C   0  0  1  0  0  0  0  0  0  0  0  0
  190.1720  177.5190  145.6810 C   0  0  0  0  0  2  0  0  0  0  0  0
  187.3510  176.4200  144.1340 C   0  0  2  0  0  0  0  0  0  0  0  0
  192.2030  174.6330  142.4870 C   0  0  2  0  0  3  0  0  0  0  0  0
  189.3610  174.0810  140.9970 C   0  0  2  0  0  3  0  0  0  0  0  0
  191.4200  175.9000  144.4450 C   0  0  0  0  0  0  0  0  0  0  0  0
  188.8820  173.8990  142.5150 C   0  0  0  0  0  2  0  0  0  0  0  0
  188.7640  176.4110  143.7450 C   0  0  2  0  0  3  0  0  0  0  0  0
  193.6920  174.5660  143.0510 C   0  0  0  0  0  2  0  0  0  0  0  0
  194.5170  175.5780  143.0900 C   0  0  0  0  0  2  0  0  0  0  0  0
  195.8460  175.2130  143.5750 C   0  0  0  0  0  2  0  0  0  0  0  0
  195.8150  175.2640  145.0630 N   0  0  0  0  0  2  0  0  0  0  0  0
  197.0990  173.4690  146.5210 C   0  0  0  0  0  2  0  0  0  0  0  0
  197.3850  173.4520  145.0180 C   0  0  2  0  0  3  0  0  0  0  0  0
  196.0280  173.8140  145.4630 C   0  0  2  0  0  3  0  0  0  0  0  0
  197.3500  172.0850  144.4210 C   0  0  0  0  0  0  0  0  0  0  0  0
  197.9410  171.1920  145.1460 O   0  0  0  0  0  0  0  0  0  0  0  0
  195.2960  170.1500  144.7900 O   0  0  0  0  0  0  0  0  0  0  0  0
  195.5030  170.5130  143.6170 C   0  0  0  0  0  0  0  0  0  0  0  0
  196.4580  171.6060  143.3640 N   0  0  0  0  0  2  0  0  0  0  0  0
  195.1530  169.3280  141.4330 C   0  0  2  0  0  3  0  0  0  0  0  0
  194.1150  168.5970  142.2060 C   0  0  0  0  0  2  0  0  0  0  0  0
  196.2550  168.3240  141.7010 C   0  0  0  0  0  1  0  0  0  0  0  0
  194.4390  170.0040  142.5910 C   0  0  1  0  0  0  0  0  0  0  0  0
  190.8510  170.7610  142.3660 C   0  0  0  0  0  1  0  0  0  0  0  0
  192.1300  170.6510  143.0390 C   0  0  0  0  0  0  0  0  0  0  0  0
  192.1120  170.4580  144.2700 O   0  0  0  0  0  0  0  0  0  0  0  0
  193.3480  170.9580  142.3660 N   0  0  0  0  0  2  0  0  0  0  0  0
  186.1180  176.4120  143.2770 C   0  0  0  0  0  2  0  0  0  0  0  0
  186.2650  177.6110  142.1980 C   0  0  0  0  0  0  0  0  0  0  0  0
  186.4010  178.8770  142.3430 O   0  0  0  0  0  0  0  0  0  0  0  0
  184.9490  177.7640  139.8670 S   0  0  0  0  0  0  0  0  0  0  0  0
  185.5670  177.1340  138.4400 C   0  0  0  0  0  3  0  0  0  0  0  0
  186.2250  177.3710  140.7970 C   0  0  0  0  0  0  0  0  0  0  0  0
  187.1780  176.8220  140.0980 N   0  0  0  0  0  0  0  0  0  0  0  0
  186.7910  176.6720  138.7850 N   0  0  0  0  0  0  0  0  0  0  0  0
  189.2980  171.7270  137.7570 C   0  0  0  0  0  2  0  0  0  0  0  0
  189.4170  172.9310  136.9150 C   0  0  0  0  0  2  0  0  0  0  0  0
  189.7310  172.6030  135.4380 C   0  0  0  0  0  2  0  0  0  0  0  0
  190.7610  173.5970  134.9090 C   0  0  0  0  0  0  0  0  0  0  0  0
  190.5070  174.8030  134.8020 O   0  0  0  0  0  0  0  0  0  0  0  0
  192.3140  173.1800  134.9230 C   0  0  0  0  0  2  0  0  0  0  0  0
  195.7930  173.2420  140.2320 C   0  0  0  0  0  2  0  0  0  0  0  0
  194.0940  172.1650  136.9110 C   0  0  2  0  0  0  0  0  0  0  0  0
  193.1850  170.9030  137.0090 C   0  0  0  0  0  2  0  0  0  0  0  0
  194.3770  172.5790  138.3750 C   0  0  2  0  0  3  0  0  0  0  0  0
  194.6860  175.2730  139.1140 C   0  0  0  0  0  2  0  0  0  0  0  0
  193.3370  173.3110  136.1670 C   0  0  2  0  0  3  0  0  0  0  0  0
  194.0210  174.1220  138.3130 C   0  0  1  0  0  3  0  0  0  0  0  0
  195.9600  174.7110  139.7680 C   0  0  0  0  0  2  0  0  0  0  0  0
  193.9170  170.6360  135.0870 O   0  0  0  0  0  1  0  0  0  0  0  0
  194.4850  170.8070  136.3260 C   0  0  1  0  0  3  0  0  0  0  0  0
  193.2890  175.7030  136.4630 O   0  0  0  0  0  1  0  0  0  0  0  0
  195.6870  172.2070  139.0940 C   0  0  0  0  0  2  0  0  0  0  0  0
  193.0460  174.4480  137.1210 C   0  0  1  0  0  3  0  0  0  0  0  0
  3  1  2  0  0  0  0
  4 16  2  0  0  0  0
  5 47  1  6  0  0  0
  5  2  1  0  0  0  0
  5  6  1  0  0  0  0
  6 15  1  0  0  0  0
  7  2  1  1  0  0  0
  7 15  1  0  0  0  0
  7  9  1  0  0  0  0
  8 17  1  1  0  0  0
  8  4  1  0  0  0  0
  8 18  1  0  0  0  0
  9 14  1  0  0  0  0
 10 12  1  0  0  0  0
 11  3  1  0  0  0  0
 11 12  1  1  0  0  0
 13 39  1  1  0  0  0
 13 11  1  0  0  0  0
 13  3  1  0  0  0  0
 14 19  1  1  0  0  0
 14  4  1  0  0  0  0
 15 17  1  1  0  0  0
 16 10  2  0  0  0  0
 18 13  1  0  0  0  0
 18 11  1  0  0  0  0
 19 20  1  0  0  0  0
 20 21  1  0  0  0  0
 21 22  1  0  0  0  0
 22 25  1  0  0  0  0
 24 25  1  0  0  0  0
 24 23  1  0  0  0  0
 25 23  1  0  0  0  0
 26 24  1  0  0  0  0
 26 27  2  0  0  0  0
 29 28  2  0  0  0  0
 30 29  1  0  0  0  0
 30 26  1  0  0  0  0
 31 33  1  0  0  0  0
 31 32  1  0  0  0  0
 31 34  1  0  0  0  0
 32 34  1  0  0  0  0
 34 29  1  0  0  0  0
 35 36  1  0  0  0  0
 36 37  2  0  0  0  0
 38 34  1  0  0  0  0
 38 36  1  0  0  0  0
 40 41  2  0  0  0  0
 40 39  1  0  0  0  0
 42 44  1  0  0  0  0
 43 46  2  0  0  0  0
 43 42  1  0  0  0  0
 44 40  1  0  0  0  0
 45 44  2  0  0  0  0
 46 45  1  0  0  0  0
 48 47  1  0  0  0  0
 49 48  1  0  0  0  0
 50 52  1  0  0  0  0
 50 49  1  0  0  0  0
 51 50  2  0  0  0  0
 52 58  1  0  0  0  0
 54 55  1  0  0  0  0
 54 56  1  0  0  0  0
 56 64  1  0  0  0  0
 57 60  1  0  0  0  0
 58 54  1  0  0  0  0
 58 65  1  0  0  0  0
 59 56  1  0  0  0  0
 59 57  1  0  0  0  0
 60 53  1  0  0  0  0
 61 62  1  0  0  0  0
 62 54  1  0  0  0  0
 62 55  1  0  0  0  0
 63 65  1  0  0  0  0
 64 53  1  0  0  0  0
 65 59  1  0  0  0  0
M  END
>  <MODEL>
4

>  <REMARK>
 VINA RESULT:      -7.6      2.897      9.053
  Name = 
  16 active torsions:
  status: ('A' for Active; 'I' for Inactive)
    1  A    between atoms: N_1  and  C_15
    2  A    between atoms: N_1  and  C_40
    3  A    between atoms: C_3  and  C_34
    4  A    between atoms: C_4  and  C_56
    5  A    between atoms: C_9  and  C_20
    6  A    between atoms: C_9  and  C_46
    7  A    between atoms: C_15  and  C_54
    8  A    between atoms: C_20  and  C_64
    9  A    between atoms: C_21  and  C_25
   10  A    between atoms: C_24  and  C_41
   11  A    between atoms: C_25  and  C_46
   12  A    between atoms: C_28  and  C_60
   13  A    between atoms: C_31  and  C_64
   14  A    between atoms: N_36  and  C_60
   15  A    between atoms: C_41  and  C_50
   16  A    between atoms: C_50  and  C_53
                            x       y       z     vdW  Elec       q    Type
                         _______ _______ _______ _____ _____    ______ ____

>  <TORSDO>
F 16

$$$$
=
 OpenBabel11042418063D

 65 75  0  0  1  0  0  0  0  0999 V2000
  192.1380  168.5690  134.8490 C   0  0  0  0  0  2  0  0  0  0  0  0
  190.3420  173.5240  142.8750 C   0  0  0  0  0  2  0  0  0  0  0  0
  191.6310  169.3220  135.8170 C   0  0  0  0  0  0  0  0  0  0  0  0
  189.5710  172.5560  138.2100 C   0  0  0  0  0  0  0  0  0  0  0  0
  190.7890  172.2040  143.4320 C   0  0  1  0  0  3  0  0  0  0  0  0
  191.9950  171.2290  142.3130 S   0  0  0  0  0  0  0  0  0  0  0  0
  190.5710  173.3500  141.2540 C   0  0  2  0  0  3  0  0  0  0  0  0
  190.5820  171.4420  138.6180 C   0  0  1  0  0  3  0  0  0  0  0  0
  189.4930  173.9780  140.3670 N   0  0  0  0  0  2  0  0  0  0  0  0
  189.3070  172.4350  135.5780 C   0  0  0  0  0  3  0  0  0  0  0  0
  190.6060  170.3820  136.1680 C   0  0  1  0  0  0  0  0  0  0  0  0
  190.2980  171.4840  135.0820 C   0  0  0  0  0  2  0  0  0  0  0  0
  191.9520  169.4810  137.2750 C   0  0  2  0  0  0  0  0  0  0  0  0
  189.1620  173.7610  139.1060 C   0  0  0  0  0  0  0  0  0  0  0  0
  191.1460  171.8790  140.8750 C   0  0  2  0  0  3  0  0  0  0  0  0
  189.2930  172.6020  136.9400 C   0  0  0  0  0  0  0  0  0  0  0  0
  190.4360  170.7370  140.0030 C   0  0  0  0  0  2  0  0  0  0  0  0
  191.4160  170.8410  137.3830 C   0  0  2  0  0  3  0  0  0  0  0  0
  188.0170  174.7360  138.5830 C   0  0  0  0  0  3  0  0  0  0  0  0
  187.5340  175.7450  139.2590 C   0  0  0  0  0  2  0  0  0  0  0  0
  186.4300  176.4150  138.5760 C   0  0  0  0  0  2  0  0  0  0  0  0
  186.2680  177.7620  139.1920 N   0  0  0  0  0  2  0  0  0  0  0  0
  184.0440  178.2870  140.5220 C   0  0  0  0  0  2  0  0  0  0  0  0
  185.3510  178.7230  141.1880 C   0  0  2  0  0  3  0  0  0  0  0  0
  185.3590  177.4920  140.3800 C   0  0  2  0  0  3  0  0  0  0  0  0
  185.4350  178.3550  142.6320 C   0  0  0  0  0  0  0  0  0  0  0  0
  184.4500  177.6190  143.0330 O   0  0  0  0  0  0  0  0  0  0  0  0
  186.7760  176.0860  143.7050 O   0  0  0  0  0  0  0  0  0  0  0  0
  187.1760  177.1970  144.1010 C   0  0  0  0  0  0  0  0  0  0  0  0
  186.6190  178.4170  143.4910 N   0  0  0  0  0  2  0  0  0  0  0  0
  188.1420  177.2550  146.4160 C   0  0  2  0  0  3  0  0  0  0  0  0
  188.9310  176.0990  145.9170 C   0  0  0  0  0  2  0  0  0  0  0  0
  187.0240  176.4160  146.9980 C   0  0  0  0  0  1  0  0  0  0  0  0
  188.4920  177.1420  144.9420 C   0  0  1  0  0  0  0  0  0  0  0  0
  191.7310  177.2970  143.2150 C   0  0  0  0  0  1  0  0  0  0  0  0
  190.2830  177.2710  143.2910 C   0  0  0  0  0  0  0  0  0  0  0  0
  189.6680  176.8240  142.3040 O   0  0  0  0  0  0  0  0  0  0  0  0
  189.5880  177.9180  144.3530 N   0  0  0  0  0  2  0  0  0  0  0  0
  193.0790  168.8290  138.0250 C   0  0  0  0  0  2  0  0  0  0  0  0
  194.1700  169.9780  138.3630 C   0  0  0  0  0  0  0  0  0  0  0  0
  194.3450  170.7090  139.4000 O   0  0  0  0  0  0  0  0  0  0  0  0
  196.5950  169.6280  137.2730 S   0  0  0  0  0  0  0  0  0  0  0  0
  197.2100  170.6520  136.0960 C   0  0  0  0  0  3  0  0  0  0  0  0
  195.1570  170.3760  137.4210 C   0  0  0  0  0  0  0  0  0  0  0  0
  195.0410  171.3620  136.5760 N   0  0  0  0  0  0  0  0  0  0  0  0
  196.2030  171.5230  135.8560 N   0  0  0  0  0  0  0  0  0  0  0  0
  191.4860  172.5780  144.8040 C   0  0  0  0  0  2  0  0  0  0  0  0
  192.3510  173.7510  144.5910 C   0  0  0  0  0  2  0  0  0  0  0  0
  193.1700  174.1300  145.8460 C   0  0  0  0  0  2  0  0  0  0  0  0
  194.1220  175.2710  145.5010 C   0  0  0  0  0  0  0  0  0  0  0  0
  193.8570  176.4470  145.7800 O   0  0  0  0  0  0  0  0  0  0  0  0
  195.6630  174.9260  145.1970 C   0  0  0  0  0  2  0  0  0  0  0  0
  197.2980  172.6280  139.5110 C   0  0  0  0  0  2  0  0  0  0  0  0
  196.5820  175.0050  142.4960 C   0  0  2  0  0  0  0  0  0  0  0  0
  195.5240  176.1160  142.2220 C   0  0  0  0  0  2  0  0  0  0  0  0
  196.4510  174.0150  141.3140 C   0  0  2  0  0  3  0  0  0  0  0  0
  196.8810  171.2580  141.6440 C   0  0  0  0  0  2  0  0  0  0  0  0
  196.2580  174.2800  143.8410 C   0  0  2  0  0  3  0  0  0  0  0  0
  196.3460  172.6420  142.0980 C   0  0  1  0  0  3  0  0  0  0  0  0
  197.8010  171.4870  140.4310 C   0  0  0  0  0  2  0  0  0  0  0  0
  196.7730  177.1590  143.5090 O   0  0  0  0  0  1  0  0  0  0  0  0
  196.9460  176.4810  142.3260 C   0  0  1  0  0  3  0  0  0  0  0  0
  196.4480  171.9840  144.5510 O   0  0  0  0  0  1  0  0  0  0  0  0
  197.4090  174.0440  140.1090 C   0  0  0  0  0  2  0  0  0  0  0  0
  195.8440  172.8510  143.5750 C   0  0  1  0  0  3  0  0  0  0  0  0
  1  3  2  0  0  0  0
  2  5  1  0  0  0  0
  3 11  1  0  0  0  0
  3 13  1  0  0  0  0
  4  8  1  0  0  0  0
  4 14  1  0  0  0  0
  5 47  1  1  0  0  0
  6  5  1  0  0  0  0
  7  2  1  1  0  0  0
  8 17  1  6  0  0  0
  9  7  1  0  0  0  0
 10 16  2  0  0  0  0
 11 12  1  1  0  0  0
 11 13  1  0  0  0  0
 11 18  1  0  0  0  0
 12 10  1  0  0  0  0
 13 18  1  0  0  0  0
 13 39  1  1  0  0  0
 14  9  1  0  0  0  0
 15 17  1  1  0  0  0
 15  7  1  0  0  0  0
 15  6  1  0  0  0  0
 16  4  2  0  0  0  0
 18  8  1  0  0  0  0
 19 14  2  0  0  0  0
 19 20  1  0  0  0  0
 21 22  1  0  0  0  0
 21 20  1  0  0  0  0
 22 25  1  0  0  0  0
 23 24  1  0  0  0  0
 24 26  1  0  0  0  0
 25 23  1  0  0  0  0
 25 24  1  0  0  0  0
 26 27  2  0  0  0  0
 26 30  1  0  0  0  0
 28 29  2  0  0  0  0
 29 34  1  0  0  0  0
 30 29  1  0  0  0  0
 31 33  1  0  0  0  0
 32 31  1  0  0  0  0
 34 32  1  0  0  0  0
 34 31  1  0  0  0  0
 35 36  1  0  0  0  0
 36 38  1  0  0  0  0
 37 36  2  0  0  0  0
 38 34  1  0  0  0  0
 39 40  1  0  0  0  0
 40 41  2  0  0  0  0
 42 44  1  0  0  0  0
 43 42  1  0  0  0  0
 44 40  1  0  0  0  0
 45 44  2  0  0  0  0
 46 43  2  0  0  0  0
 46 45  1  0  0  0  0
 48 47  1  0  0  0  0
 48 49  1  0  0  0  0
 50 51  2  0  0  0  0
 50 49  1  0  0  0  0
 52 50  1  0  0  0  0
 53 64  1  0  0  0  0
 53 60  1  0  0  0  0
 54 58  1  0  0  0  0
 55 62  1  0  0  0  0
 55 54  1  0  0  0  0
 56 59  1  0  0  0  0
 56 54  1  0  0  0  0
 57 59  1  0  0  0  0
 58 52  1  0  0  0  0
 59 65  1  0  0  0  0
 60 57  1  0  0  0  0
 62 54  1  0  0  0  0
 62 61  1  0  0  0  0
 64 56  1  0  0  0  0
 65 58  1  0  0  0  0
 65 63  1  0  0  0  0
M  END
>  <MODEL>
5

>  <REMARK>
 VINA RESULT:      -7.4      2.516      5.295
  Name = 
  16 active torsions:
  status: ('A' for Active; 'I' for Inactive)
    1  A    between atoms: N_1  and  C_15
    2  A    between atoms: N_1  and  C_40
    3  A    between atoms: C_3  and  C_34
    4  A    between atoms: C_4  and  C_56
    5  A    between atoms: C_9  and  C_20
    6  A    between atoms: C_9  and  C_46
    7  A    between atoms: C_15  and  C_54
    8  A    between atoms: C_20  and  C_64
    9  A    between atoms: C_21  and  C_25
   10  A    between atoms: C_24  and  C_41
   11  A    between atoms: C_25  and  C_46
   12  A    between atoms: C_28  and  C_60
   13  A    between atoms: C_31  and  C_64
   14  A    between atoms: N_36  and  C_60
   15  A    between atoms: C_41  and  C_50
   16  A    between atoms: C_50  and  C_53
                            x       y       z     vdW  Elec       q    Type
                         _______ _______ _______ _____ _____    ______ ____

>  <TORSDO>
F 16

$$$$
=
 OpenBabel11042418063D

 65 75  0  0  1  0  0  0  0  0999 V2000
  189.4730  169.7860  137.6510 C   0  0  0  0  0  2  0  0  0  0  0  0
  192.6730  175.1950  144.9100 C   0  0  0  0  0  2  0  0  0  0  0  0
  190.1350  170.3250  138.6670 C   0  0  0  0  0  0  0  0  0  0  0  0
  192.4910  171.0420  142.4570 C   0  0  0  0  0  0  0  0  0  0  0  0
  192.4190  176.2310  143.8530 C   0  0  1  0  0  3  0  0  0  0  0  0
  191.0540  175.7750  142.5950 S   0  0  0  0  0  0  0  0  0  0  0  0
  192.1170  173.8070  144.2220 C   0  0  2  0  0  3  0  0  0  0  0  0
  191.6440  171.9960  141.5600 C   0  0  1  0  0  3  0  0  0  0  0  0
  192.9510  172.5540  144.5020 N   0  0  0  0  0  0  0  0  0  0  0  0
  192.2000  168.6000  141.4790 C   0  0  0  0  0  3  0  0  0  0  0  0
  191.1570  170.0860  139.7600 C   0  0  1  0  0  0  0  0  0  0  0  0
  191.1750  168.6630  140.4400 C   0  0  0  0  0  2  0  0  0  0  0  0
  190.1210  171.6870  139.3000 C   0  0  2  0  0  0  0  0  0  0  0  0
  193.0190  171.3920  143.8780 C   0  0  0  0  0  0  0  0  0  0  0  0
  191.5480  174.0560  142.7210 C   0  0  2  0  0  3  0  0  0  0  0  0
  192.4930  169.7970  142.0790 C   0  0  0  0  0  0  0  0  0  0  0  0
  192.1140  173.4690  141.3410 C   0  0  0  0  0  2  0  0  0  0  0  0
  190.6000  171.2320  140.6080 C   0  0  2  0  0  3  0  0  0  0  0  0
  193.9800  170.3470  144.6030 C   0  0  0  0  0  2  0  0  0  0  0  0
  194.8380  170.6550  145.5390 C   0  0  0  0  0  2  0  0  0  0  0  0
  195.6510  169.5180  145.9640 C   0  0  0  0  0  2  0  0  0  0  0  0
  196.8990  169.5240  145.1510 N   0  0  0  0  0  2  0  0  0  0  0  0
  196.1290  168.1660  143.0170 C   0  0  0  0  0  2  0  0  0  0  0  0
  197.4490  168.9300  142.8940 C   0  0  2  0  0  3  0  0  0  0  0  0
  196.3810  169.5160  143.7230 C   0  0  2  0  0  3  0  0  0  0  0  0
  197.5660  169.7150  141.6300 C   0  0  0  0  0  0  0  0  0  0  0  0
  197.0270  169.1320  140.6100 O   0  0  0  0  0  0  0  0  0  0  0  0
  195.7310  171.6850  140.7080 O   0  0  0  0  0  0  0  0  0  0  0  0
  196.8990  172.0720  140.9010 C   0  0  0  0  0  0  0  0  0  0  0  0
  197.8700  171.1420  141.5030 N   0  0  0  0  0  2  0  0  0  0  0  0
  197.9130  173.9540  139.5880 C   0  0  2  0  0  3  0  0  0  0  0  0
  196.5710  174.5650  139.7770 C   0  0  0  0  0  2  0  0  0  0  0  0
  197.5850  173.3170  138.2540 C   0  0  0  0  0  1  0  0  0  0  0  0
  197.0830  173.6220  140.8170 C   0  0  1  0  0  0  0  0  0  0  0  0
  196.7910  176.4680  143.1200 C   0  0  0  0  0  1  0  0  0  0  0  0
  196.3890  175.2020  142.5410 C   0  0  0  0  0  0  0  0  0  0  0  0
  195.1790  174.9070  142.5960 O   0  0  0  0  0  0  0  0  0  0  0  0
  197.3560  174.2440  142.1160 N   0  0  0  0  0  2  0  0  0  0  0  0
  189.2110  172.8310  138.9540 C   0  0  0  0  0  2  0  0  0  0  0  0
  189.9240  173.6830  137.7750 C   0  0  0  0  0  0  0  0  0  0  0  0
  189.6580  174.8310  137.2730 O   0  0  0  0  0  0  0  0  0  0  0  0
  190.9250  172.5640  135.5540 S   0  0  0  0  0  0  0  0  0  0  0  0
  192.5380  172.1250  135.4140 C   0  0  0  0  0  3  0  0  0  0  0  0
  191.0420  173.1800  137.0550 C   0  0  0  0  0  0  0  0  0  0  0  0
  192.2700  173.1500  137.4920 N   0  0  0  0  0  0  0  0  0  0  0  0
  193.0950  172.5370  136.5760 N   0  0  0  0  0  0  0  0  0  0  0  0
  192.0100  177.5240  144.6700 C   0  0  0  0  0  2  0  0  0  0  0  0
  190.5610  177.4800  144.9330 C   0  0  0  0  0  2  0  0  0  0  0  0
  190.2200  177.5460  146.4390 C   0  0  0  0  0  2  0  0  0  0  0  0
  189.4840  176.2730  146.8450 C   0  0  0  0  0  0  0  0  0  0  0  0
  190.0240  175.4030  147.5410 O   0  0  0  0  0  0  0  0  0  0  0  0
  187.8780  176.2530  146.7740 C   0  0  0  0  0  2  0  0  0  0  0  0
  183.6000  178.7980  142.8360 C   0  0  0  0  0  2  0  0  0  0  0  0
  185.8170  178.0380  145.9310 C   0  0  2  0  0  0  0  0  0  0  0  0
  185.0390  177.6750  147.2330 C   0  0  0  0  0  2  0  0  0  0  0  0
  184.7680  177.9690  144.7950 C   0  0  2  0  0  3  0  0  0  0  0  0
  185.4570  177.1390  142.2010 C   0  0  0  0  0  2  0  0  0  0  0  0
  186.9520  176.9950  145.6780 C   0  0  2  0  0  3  0  0  0  0  0  0
  185.5370  177.0620  143.7480 C   0  0  1  0  0  3  0  0  0  0  0  0
  184.7300  178.4460  141.8350 C   0  0  0  0  0  2  0  0  0  0  0  0
  186.6490  178.6730  148.0770 O   0  0  0  0  0  1  0  0  0  0  0  0
  185.7040  178.9840  147.1290 C   0  0  1  0  0  3  0  0  0  0  0  0
  187.8470  176.0040  143.6720 O   0  0  0  0  0  1  0  0  0  0  0  0
  184.0800  179.2280  144.2360 C   0  0  0  0  0  2  0  0  0  0  0  0
  186.6450  176.1840  144.4400 C   0  0  1  0  0  3  0  0  0  0  0  0
  1  3  2  0  0  0  0
  3 13  1  0  0  0  0
  3 11  1  0  0  0  0
  4 14  1  0  0  0  0
  5 47  1  1  0  0  0
  5  2  1  0  0  0  0
  6 15  1  0  0  0  0
  6  5  1  0  0  0  0
  7  9  1  0  0  0  0
  7  2  1  6  0  0  0
  8 17  1  6  0  0  0
  8  4  1  0  0  0  0
 10 16  2  0  0  0  0
 11 12  1  6  0  0  0
 11 18  1  0  0  0  0
 12 10  1  0  0  0  0
 13 39  1  6  0  0  0
 13 11  1  0  0  0  0
 13 18  1  0  0  0  0
 14  9  2  0  0  0  0
 14 19  1  0  0  0  0
 15 17  1  6  0  0  0
 15  7  1  0  0  0  0
 16  4  2  0  0  0  0
 18  8  1  0  0  0  0
 19 20  1  0  0  0  0
 20 21  1  0  0  0  0
 22 21  1  0  0  0  0
 23 25  1  0  0  0  0
 24 23  1  0  0  0  0
 24 25  1  0  0  0  0
 25 22  1  0  0  0  0
 26 24  1  0  0  0  0
 27 26  2  0  0  0  0
 28 29  2  0  0  0  0
 29 30  1  0  0  0  0
 30 26  1  0  0  0  0
 31 32  1  0  0  0  0
 31 34  1  0  0  0  0
 32 34  1  0  0  0  0
 33 31  1  0  0  0  0
 34 29  1  0  0  0  0
 34 38  1  0  0  0  0
 36 37  2  0  0  0  0
 36 35  1  0  0  0  0
 38 36  1  0  0  0  0
 40 39  1  0  0  0  0
 41 40  2  0  0  0  0
 42 44  1  0  0  0  0
 43 42  1  0  0  0  0
 43 46  2  0  0  0  0
 44 45  2  0  0  0  0
 44 40  1  0  0  0  0
 46 45  1  0  0  0  0
 47 48  1  0  0  0  0
 48 49  1  0  0  0  0
 49 50  1  0  0  0  0
 50 51  2  0  0  0  0
 52 50  1  0  0  0  0
 53 64  1  0  0  0  0
 54 62  1  0  0  0  0
 54 55  1  0  0  0  0
 56 54  1  0  0  0  0
 57 59  1  0  0  0  0
 58 54  1  0  0  0  0
 58 52  1  0  0  0  0
 59 65  1  0  0  0  0
 59 56  1  0  0  0  0
 60 57  1  0  0  0  0
 60 53  1  0  0  0  0
 62 55  1  0  0  0  0
 62 61  1  0  0  0  0
 63 65  1  0  0  0  0
 64 56  1  0  0  0  0
 65 58  1  0  0  0  0
M  END
>  <MODEL>
6

>  <REMARK>
 VINA RESULT:      -6.9      2.860      9.376
  Name = 
  16 active torsions:
  status: ('A' for Active; 'I' for Inactive)
    1  A    between atoms: N_1  and  C_15
    2  A    between atoms: N_1  and  C_40
    3  A    between atoms: C_3  and  C_34
    4  A    between atoms: C_4  and  C_56
    5  A    between atoms: C_9  and  C_20
    6  A    between atoms: C_9  and  C_46
    7  A    between atoms: C_15  and  C_54
    8  A    between atoms: C_20  and  C_64
    9  A    between atoms: C_21  and  C_25
   10  A    between atoms: C_24  and  C_41
   11  A    between atoms: C_25  and  C_46
   12  A    between atoms: C_28  and  C_60
   13  A    between atoms: C_31  and  C_64
   14  A    between atoms: N_36  and  C_60
   15  A    between atoms: C_41  and  C_50
   16  A    between atoms: C_50  and  C_53
                            x       y       z     vdW  Elec       q    Type
                         _______ _______ _______ _____ _____    ______ ____

>  <TORSDO>
F 16

$$$$
=
 OpenBabel11042418063D

 65 75  0  0  1  0  0  0  0  0999 V2000
  191.6840  169.2810  136.7520 C   0  0  0  0  0  2  0  0  0  0  0  0
  189.7120  175.1940  144.0560 C   0  0  0  0  0  2  0  0  0  0  0  0
  191.1530  170.1430  137.6110 C   0  0  0  0  0  0  0  0  0  0  0  0
  189.0050  173.6140  139.5500 C   0  0  0  0  0  0  0  0  0  0  0  0
  190.1810  173.9660  144.7820 C   0  0  1  0  0  3  0  0  0  0  0  0
  191.4170  172.8810  143.8070 S   0  0  0  0  0  0  0  0  0  0  0  0
  189.9600  174.8160  142.4730 C   0  0  2  0  0  3  0  0  0  0  0  0
  190.0350  172.5840  140.1070 C   0  0  1  0  0  3  0  0  0  0  0  0
  188.8780  175.3010  141.5040 N   0  0  0  0  0  2  0  0  0  0  0  0
  188.7680  173.1480  136.9550 C   0  0  0  0  0  3  0  0  0  0  0  0
  190.1030  171.2170  137.8150 C   0  0  1  0  0  0  0  0  0  0  0  0
  189.7830  172.1620  136.5930 C   0  0  0  0  0  2  0  0  0  0  0  0
  191.4570  170.4960  139.0380 C   0  0  2  0  0  0  0  0  0  0  0  0
  188.5640  174.9160  140.2810 C   0  0  0  0  0  0  0  0  0  0  0  0
  190.5680  173.3210  142.2910 C   0  0  2  0  0  3  0  0  0  0  0  0
  188.7380  173.4890  138.2830 C   0  0  0  0  0  0  0  0  0  0  0  0
  189.8900  172.0610  141.5700 C   0  0  0  0  0  2  0  0  0  0  0  0
  190.8920  171.8460  138.9650 C   0  0  2  0  0  3  0  0  0  0  0  0
  187.4030  175.7900  139.6270 C   0  0  0  0  0  3  0  0  0  0  0  0
  186.9080  176.8780  140.1550 C   0  0  0  0  0  2  0  0  0  0  0  0
  185.7930  177.4290  139.3870 C   0  0  0  0  0  2  0  0  0  0  0  0
  185.0450  178.3590  140.2790 N   0  0  0  0  0  2  0  0  0  0  0  0
  184.5140  177.4880  142.7200 C   0  0  0  0  0  2  0  0  0  0  0  0
  184.9480  178.9500  142.6010 C   0  0  2  0  0  3  0  0  0  0  0  0
  185.5330  177.9740  141.6660 C   0  0  2  0  0  3  0  0  0  0  0  0
  185.9850  179.3460  143.5990 C   0  0  0  0  0  0  0  0  0  0  0  0
  185.9420  180.5980  143.9180 O   0  0  0  0  0  0  0  0  0  0  0  0
  185.7100  179.2380  146.4290 O   0  0  0  0  0  0  0  0  0  0  0  0
  186.6290  178.5540  145.9420 C   0  0  0  0  0  0  0  0  0  0  0  0
  186.7490  178.4560  144.4770 N   0  0  0  0  0  2  0  0  0  0  0  0
  186.2520  176.7320  147.6250 C   0  0  2  0  0  3  0  0  0  0  0  0
  187.3930  176.0940  146.9180 C   0  0  0  0  0  2  0  0  0  0  0  0
  185.1820  176.0620  146.7900 C   0  0  0  0  0  1  0  0  0  0  0  0
  187.3170  177.5860  146.9580 C   0  0  1  0  0  0  0  0  0  0  0  0
  190.7220  177.5550  148.3360 C   0  0  0  0  0  1  0  0  0  0  0  0
  189.7090  177.8670  147.3480 C   0  0  0  0  0  0  0  0  0  0  0  0
  190.0830  177.9890  146.1650 O   0  0  0  0  0  0  0  0  0  0  0  0
  188.3850  178.2240  147.7350 N   0  0  0  0  0  2  0  0  0  0  0  0
  192.5890  169.9700  139.8740 C   0  0  0  0  0  2  0  0  0  0  0  0
  191.9430  169.1850  141.1340 C   0  0  0  0  0  0  0  0  0  0  0  0
  190.7470  168.7920  141.3710 O   0  0  0  0  0  0  0  0  0  0  0  0
  192.1710  168.9800  143.7980 S   0  0  0  0  0  0  0  0  0  0  0  0
  193.5840  168.4710  144.5450 C   0  0  0  0  0  3  0  0  0  0  0  0
  192.7150  168.8260  142.2720 C   0  0  0  0  0  0  0  0  0  0  0  0
  193.9240  168.3390  142.2410 N   0  0  0  0  0  0  0  0  0  0  0  0
  194.4100  168.1660  143.5180 N   0  0  0  0  0  0  0  0  0  0  0  0
  190.8570  174.5290  146.0990 C   0  0  0  0  0  2  0  0  0  0  0  0
  191.9790  175.4050  145.7180 C   0  0  0  0  0  2  0  0  0  0  0  0
  193.2850  175.0730  146.4730 C   0  0  0  0  0  2  0  0  0  0  0  0
  194.4320  175.8840  145.8780 C   0  0  0  0  0  0  0  0  0  0  0  0
  194.5130  177.1090  146.0330 O   0  0  0  0  0  0  0  0  0  0  0  0
  195.7770  175.1160  145.4440 C   0  0  0  0  0  2  0  0  0  0  0  0
  196.1300  172.4880  139.6780 C   0  0  0  0  0  2  0  0  0  0  0  0
  196.2130  175.0130  142.6260 C   0  0  2  0  0  0  0  0  0  0  0  0
  195.2530  176.2330  142.4830 C   0  0  0  0  0  2  0  0  0  0  0  0
  195.7690  174.0130  141.5310 C   0  0  2  0  0  3  0  0  0  0  0  0
  195.9430  171.2350  141.9120 C   0  0  0  0  0  2  0  0  0  0  0  0
  196.0510  174.3680  144.0390 C   0  0  2  0  0  3  0  0  0  0  0  0
  195.6520  172.6840  142.3850 C   0  0  1  0  0  3  0  0  0  0  0  0
  196.6560  171.3220  140.5510 C   0  0  0  0  0  2  0  0  0  0  0  0
  196.8140  177.1570  143.4880 O   0  0  0  0  0  1  0  0  0  0  0  0
  196.7020  176.4320  142.3270 C   0  0  1  0  0  3  0  0  0  0  0  0
  196.1070  172.0860  144.8130 O   0  0  0  0  0  1  0  0  0  0  0  0
  196.4990  173.8980  140.1800 C   0  0  0  0  0  2  0  0  0  0  0  0
  195.4410  172.9900  143.9140 C   0  0  1  0  0  3  0  0  0  0  0  0
  1  3  2  0  0  0  0
  2  5  1  0  0  0  0
  3 11  1  0  0  0  0
  3 13  1  0  0  0  0
  4  8  1  0  0  0  0
  4 14  1  0  0  0  0
  5 47  1  1  0  0  0
  6  5  1  0  0  0  0
  7  2  1  1  0  0  0
  8 17  1  6  0  0  0
  9  7  1  0  0  0  0
 10 16  2  0  0  0  0
 11 12  1  1  0  0  0
 11 18  1  0  0  0  0
 11 13  1  0  0  0  0
 12 10  1  0  0  0  0
 13 39  1  1  0  0  0
 14  9  1  0  0  0  0
 15 17  1  1  0  0  0
 15  7  1  0  0  0  0
 15  6  1  0  0  0  0
 16  4  2  0  0  0  0
 18 13  1  0  0  0  0
 18  8  1  0  0  0  0
 19 20  1  0  0  0  0
 19 14  2  0  0  0  0
 21 20  1  0  0  0  0
 21 22  1  0  0  0  0
 22 25  1  0  0  0  0
 24 23  1  0  0  0  0
 24 26  1  0  0  0  0
 25 24  1  0  0  0  0
 25 23  1  0  0  0  0
 26 27  2  0  0  0  0
 26 30  1  0  0  0  0
 29 28  2  0  0  0  0
 29 34  1  0  0  0  0
 30 29  1  0  0  0  0
 32 34  1  0  0  0  0
 32 31  1  0  0  0  0
 33 31  1  0  0  0  0
 34 31  1  0  0  0  0
 34 38  1  0  0  0  0
 36 38  1  0  0  0  0
 36 35  1  0  0  0  0
 37 36  2  0  0  0  0
 39 40  1  0  0  0  0
 40 41  2  0  0  0  0
 40 44  1  0  0  0  0
 42 43  1  0  0  0  0
 44 42  1  0  0  0  0
 45 44  2  0  0  0  0
 45 46  1  0  0  0  0
 46 43  2  0  0  0  0
 48 47  1  0  0  0  0
 48 49  1  0  0  0  0
 50 51  2  0  0  0  0
 50 49  1  0  0  0  0
 52 50  1  0  0  0  0
 53 64  1  0  0  0  0
 53 60  1  0  0  0  0
 54 58  1  0  0  0  0
 55 54  1  0  0  0  0
 56 59  1  0  0  0  0
 56 54  1  0  0  0  0
 57 59  1  0  0  0  0
 58 52  1  0  0  0  0
 59 65  1  0  0  0  0
 60 57  1  0  0  0  0
 62 55  1  0  0  0  0
 62 54  1  0  0  0  0
 62 61  1  0  0  0  0
 64 56  1  0  0  0  0
 65 58  1  0  0  0  0
 65 63  1  0  0  0  0
M  END
>  <MODEL>
7

>  <REMARK>
 VINA RESULT:      -6.9      2.516      5.675
  Name = 
  16 active torsions:
  status: ('A' for Active; 'I' for Inactive)
    1  A    between atoms: N_1  and  C_15
    2  A    between atoms: N_1  and  C_40
    3  A    between atoms: C_3  and  C_34
    4  A    between atoms: C_4  and  C_56
    5  A    between atoms: C_9  and  C_20
    6  A    between atoms: C_9  and  C_46
    7  A    between atoms: C_15  and  C_54
    8  A    between atoms: C_20  and  C_64
    9  A    between atoms: C_21  and  C_25
   10  A    between atoms: C_24  and  C_41
   11  A    between atoms: C_25  and  C_46
   12  A    between atoms: C_28  and  C_60
   13  A    between atoms: C_31  and  C_64
   14  A    between atoms: N_36  and  C_60
   15  A    between atoms: C_41  and  C_50
   16  A    between atoms: C_50  and  C_53
                            x       y       z     vdW  Elec       q    Type
                         _______ _______ _______ _____ _____    ______ ____

>  <TORSDO>
F 16

$$$$
=
 OpenBabel11042418063D

 65 75  0  0  1  0  0  0  0  0999 V2000
  187.0450  177.9300  147.4330 C   0  0  0  0  0  2  0  0  0  0  0  0
  189.9120  172.7450  139.8780 C   0  0  0  0  0  2  0  0  0  0  0  0
  187.5390  177.0220  146.6020 C   0  0  0  0  0  0  0  0  0  0  0  0
  190.0860  173.8940  144.5630 C   0  0  0  0  0  0  0  0  0  0  0  0
  188.5000  173.0800  139.4930 C   0  0  1  0  0  3  0  0  0  0  0  0
  187.8330  174.7110  140.2340 S   0  0  0  0  0  0  0  0  0  0  0  0
  190.1340  173.5850  141.2760 C   0  0  2  0  0  3  0  0  0  0  0  0
  188.9150  174.7840  144.0450 C   0  0  1  0  0  3  0  0  0  0  0  0
  190.9480  172.8650  142.3540 N   0  0  0  0  0  2  0  0  0  0  0  0
  190.5990  174.6580  147.0450 C   0  0  0  0  0  3  0  0  0  0  0  0
  188.4750  175.8390  146.4570 C   0  0  1  0  0  0  0  0  0  0  0  0
  189.8030  175.8530  147.3090 C   0  0  0  0  0  2  0  0  0  0  0  0
  187.3460  176.7510  145.1370 C   0  0  2  0  0  0  0  0  0  0  0  0
  191.0370  173.0580  143.6580 C   0  0  2  0  0  3  0  0  0  0  0  0
  188.8020  174.4070  141.7110 C   0  0  2  0  0  3  0  0  0  0  0  0
  190.4330  174.1140  145.7970 C   0  0  0  0  0  0  0  0  0  0  0  0
  187.8960  174.1980  143.0170 C   0  0  0  0  0  2  0  0  0  0  0  0
  188.6350  176.0790  144.9540 C   0  0  2  0  0  3  0  0  0  0  0  0
  192.1000  172.1020  144.3620 C   0  0  0  0  0  2  0  0  0  0  0  0
  193.1540  171.6040  143.7720 C   0  0  0  0  0  2  0  0  0  0  0  0
  193.9070  170.6890  144.6260 C   0  0  0  0  0  2  0  0  0  0  0  0
  195.1610  170.3280  143.9080 N   0  0  0  0  0  2  0  0  0  0  0  0
  197.5170  171.5000  144.1740 C   0  0  0  0  0  2  0  0  0  0  0  0
  196.5520  171.6420  145.3530 C   0  0  2  0  0  3  0  0  0  0  0  0
  195.9870  171.6010  143.9940 C   0  0  2  0  0  3  0  0  0  0  0  0
  196.4540  173.0360  145.8770 C   0  0  0  0  0  0  0  0  0  0  0  0
  197.5520  173.4650  146.4070 O   0  0  0  0  0  0  0  0  0  0  0  0
  196.9450  175.4170  144.3980 O   0  0  0  0  0  0  0  0  0  0  0  0
  195.8030  175.2970  144.8790 C   0  0  0  0  0  0  0  0  0  0  0  0
  195.4350  174.0340  145.5430 N   0  0  0  0  0  2  0  0  0  0  0  0
  193.5820  176.3790  145.3190 C   0  0  2  0  0  3  0  0  0  0  0  0
  194.3500  177.6290  145.0740 C   0  0  0  0  0  2  0  0  0  0  0  0
  193.7850  176.3880  146.8200 C   0  0  0  0  0  1  0  0  0  0  0  0
  194.7830  176.3740  144.3870 C   0  0  1  0  0  0  0  0  0  0  0  0
  193.5900  174.8200  141.2800 C   0  0  0  0  0  1  0  0  0  0  0  0
  193.4880  175.6860  142.4380 C   0  0  0  0  0  0  0  0  0  0  0  0
  192.3450  175.9280  142.8710 O   0  0  0  0  0  0  0  0  0  0  0  0
  194.6210  176.3960  142.9300 N   0  0  0  0  0  2  0  0  0  0  0  0
  186.5420  177.5710  144.1680 C   0  0  0  0  0  2  0  0  0  0  0  0
  187.4600  177.8140  142.8560 C   0  0  0  0  0  0  0  0  0  0  0  0
  188.7190  178.0130  142.7220 O   0  0  0  0  0  0  0  0  0  0  0  0
  185.3000  177.9090  141.2700 S   0  0  0  0  0  0  0  0  0  0  0  0
  185.4100  177.8890  139.5970 C   0  0  0  0  0  3  0  0  0  0  0  0
  186.9030  177.8740  141.5500 C   0  0  0  0  0  0  0  0  0  0  0  0
  187.5850  177.9090  140.4390 N   0  0  0  0  0  0  0  0  0  0  0  0
  186.7400  177.8940  139.3520 N   0  0  0  0  0  0  0  0  0  0  0  0
  188.5390  173.1650  137.9130 C   0  0  0  0  0  2  0  0  0  0  0  0
  189.7270  173.9380  137.5090 C   0  0  0  0  0  2  0  0  0  0  0  0
  190.2230  173.5820  136.0900 C   0  0  0  0  0  2  0  0  0  0  0  0
  191.4550  174.4210  135.7620 C   0  0  0  0  0  0  0  0  0  0  0  0
  191.5070  175.6310  136.0180 O   0  0  0  0  0  0  0  0  0  0  0  0
  192.8560  173.6700  135.5120 C   0  0  0  0  0  2  0  0  0  0  0  0
  197.1910  173.3750  140.1380 C   0  0  0  0  0  2  0  0  0  0  0  0
  194.4110  172.4710  137.5830 C   0  0  2  0  0  0  0  0  0  0  0  0
  193.0840  171.9420  138.2060 C   0  0  0  0  0  2  0  0  0  0  0  0
  195.2120  173.0610  138.7690 C   0  0  2  0  0  3  0  0  0  0  0  0
  196.8940  175.2900  138.4510 C   0  0  0  0  0  2  0  0  0  0  0  0
  194.1020  173.5890  136.5360 C   0  0  2  0  0  3  0  0  0  0  0  0
  195.5980  174.4800  138.1790 C   0  0  1  0  0  3  0  0  0  0  0  0
  197.8890  174.3550  139.1610 C   0  0  0  0  0  2  0  0  0  0  0  0
  193.1000  170.8220  136.4600 O   0  0  0  0  0  1  0  0  0  0  0  0
  193.9760  171.0070  137.5020 C   0  0  1  0  0  3  0  0  0  0  0  0
  195.2290  175.6360  135.9460 O   0  0  0  0  0  1  0  0  0  0  0  0
  196.3400  172.2790  139.4670 C   0  0  0  0  0  2  0  0  0  0  0  0
  194.6150  174.9220  137.0320 C   0  0  1  0  0  3  0  0  0  0  0  0
  3  1  2  0  0  0  0
  4 16  2  0  0  0  0
  5 47  1  6  0  0  0
  5  2  1  0  0  0  0
  5  6  1  0  0  0  0
  6 15  1  0  0  0  0
  7  2  1  6  0  0  0
  7 15  1  0  0  0  0
  7  9  1  0  0  0  0
  8 17  1  1  0  0  0
  8  4  1  0  0  0  0
  8 18  1  0  0  0  0
  9 14  1  0  0  0  0
 10 12  1  0  0  0  0
 11  3  1  0  0  0  0
 11 12  1  1  0  0  0
 13 39  1  6  0  0  0
 13 11  1  0  0  0  0
 13  3  1  0  0  0  0
 14 19  1  1  0  0  0
 14  4  1  0  0  0  0
 15 17  1  1  0  0  0
 16 10  2  0  0  0  0
 18 13  1  0  0  0  0
 18 11  1  0  0  0  0
 20 19  1  0  0  0  0
 20 21  1  0  0  0  0
 22 25  1  0  0  0  0
 22 21  1  0  0  0  0
 23 24  1  0  0  0  0
 24 26  1  0  0  0  0
 25 23  1  0  0  0  0
 25 24  1  0  0  0  0
 26 27  2  0  0  0  0
 28 29  2  0  0  0  0
 29 30  1  0  0  0  0
 30 26  1  0  0  0  0
 31 33  1  0  0  0  0
 32 31  1  0  0  0  0
 34 29  1  0  0  0  0
 34 32  1  0  0  0  0
 34 31  1  0  0  0  0
 35 36  1  0  0  0  0
 36 37  2  0  0  0  0
 36 38  1  0  0  0  0
 38 34  1  0  0  0  0
 40 39  1  0  0  0  0
 41 40  2  0  0  0  0
 42 44  1  0  0  0  0
 43 42  1  0  0  0  0
 44 40  1  0  0  0  0
 45 44  2  0  0  0  0
 46 43  2  0  0  0  0
 46 45  1  0  0  0  0
 48 47  1  0  0  0  0
 49 48  1  0  0  0  0
 50 51  2  0  0  0  0
 50 49  1  0  0  0  0
 52 50  1  0  0  0  0
 52 58  1  0  0  0  0
 54 55  1  0  0  0  0
 54 56  1  0  0  0  0
 56 64  1  0  0  0  0
 57 60  1  0  0  0  0
 58 65  1  0  0  0  0
 58 54  1  0  0  0  0
 59 57  1  0  0  0  0
 59 56  1  0  0  0  0
 60 53  1  0  0  0  0
 61 62  1  0  0  0  0
 62 54  1  0  0  0  0
 62 55  1  0  0  0  0
 63 65  1  0  0  0  0
 64 53  1  0  0  0  0
 65 59  1  0  0  0  0
M  END
>  <MODEL>
8

>  <REMARK>
 VINA RESULT:      -6.7      2.754      8.640
  Name = 
  16 active torsions:
  status: ('A' for Active; 'I' for Inactive)
    1  A    between atoms: N_1  and  C_15
    2  A    between atoms: N_1  and  C_40
    3  A    between atoms: C_3  and  C_34
    4  A    between atoms: C_4  and  C_56
    5  A    between atoms: C_9  and  C_20
    6  A    between atoms: C_9  and  C_46
    7  A    between atoms: C_15  and  C_54
    8  A    between atoms: C_20  and  C_64
    9  A    between atoms: C_21  and  C_25
   10  A    between atoms: C_24  and  C_41
   11  A    between atoms: C_25  and  C_46
   12  A    between atoms: C_28  and  C_60
   13  A    between atoms: C_31  and  C_64
   14  A    between atoms: N_36  and  C_60
   15  A    between atoms: C_41  and  C_50
   16  A    between atoms: C_50  and  C_53
                            x       y       z     vdW  Elec       q    Type
                         _______ _______ _______ _____ _____    ______ ____

>  <TORSDO>
F 16

$$$$
=
 OpenBabel11042418063D

 65 75  0  0  1  0  0  0  0  0999 V2000
  197.6200  173.5320  146.3280 C   0  0  0  0  0  2  0  0  0  0  0  0
  189.9290  171.7660  140.8590 C   0  0  0  0  0  2  0  0  0  0  0  0
  196.7380  173.0820  145.4450 C   0  0  0  0  0  0  0  0  0  0  0  0
  194.6710  171.5500  141.7280 C   0  0  0  0  0  0  0  0  0  0  0  0
  189.3260  171.7630  142.2340 C   0  0  1  0  0  3  0  0  0  0  0  0
  190.2430  172.8480  143.5140 S   0  0  0  0  0  0  0  0  0  0  0  0
  191.4910  172.2060  141.1300 C   0  0  2  0  0  3  0  0  0  0  0  0
  194.1180  172.1630  143.0510 C   0  0  1  0  0  3  0  0  0  0  0  0
  192.5350  171.4850  140.2740 N   0  0  0  0  0  2  0  0  0  0  0  0
  197.3110  171.7010  141.8510 C   0  0  0  0  0  3  0  0  0  0  0  0
  196.5460  172.3180  144.1500 C   0  0  1  0  0  0  0  0  0  0  0  0
  197.6510  172.4840  143.0360 C   0  0  0  0  0  2  0  0  0  0  0  0
  195.2450  173.1890  145.3320 C   0  0  2  0  0  0  0  0  0  0  0  0
  193.8360  171.3210  140.4350 C   0  0  2  0  0  3  0  0  0  0  0  0
  191.7920  172.4410  142.7090 C   0  0  2  0  0  3  0  0  0  0  0  0
  195.9690  171.5060  141.6490 C   0  0  0  0  0  0  0  0  0  0  0  0
  192.7870  171.6160  143.6580 C   0  0  0  0  0  2  0  0  0  0  0  0
  195.2060  173.0070  143.8780 C   0  0  2  0  0  3  0  0  0  0  0  0
  194.5280  170.5650  139.2150 C   0  0  0  0  0  2  0  0  0  0  0  0
  194.0030  169.5530  138.5760 C   0  0  0  0  0  2  0  0  0  0  0  0
  194.8920  168.9960  137.5590 C   0  0  0  0  0  2  0  0  0  0  0  0
  194.0560  168.6140  136.3870 N   0  0  0  0  0  2  0  0  0  0  0  0
  192.7310  170.0230  134.5840 C   0  0  0  0  0  2  0  0  0  0  0  0
  194.2130  170.3630  134.7550 C   0  0  2  0  0  3  0  0  0  0  0  0
  193.4560  169.9380  135.9450 C   0  0  2  0  0  3  0  0  0  0  0  0
  194.4800  171.8280  134.8490 C   0  0  0  0  0  0  0  0  0  0  0  0
  193.4650  172.5590  134.5180 O   0  0  0  0  0  0  0  0  0  0  0  0
  194.1220  173.4490  137.1620 O   0  0  0  0  0  0  0  0  0  0  0  0
  195.2770  173.4020  136.6980 C   0  0  0  0  0  0  0  0  0  0  0  0
  195.5650  172.4820  135.5840 N   0  0  0  0  0  2  0  0  0  0  0  0
  197.7240  173.8890  136.9620 C   0  0  2  0  0  3  0  0  0  0  0  0
  197.2280  175.2450  137.3170 C   0  0  0  0  0  2  0  0  0  0  0  0
  197.9120  174.1950  135.4910 C   0  0  0  0  0  1  0  0  0  0  0  0
  196.3610  174.0640  137.6100 C   0  0  1  0  0  0  0  0  0  0  0  0
  196.1500  175.2630  141.0760 C   0  0  0  0  0  1  0  0  0  0  0  0
  195.6170  174.9010  139.7770 C   0  0  0  0  0  0  0  0  0  0  0  0
  194.5640  175.4610  139.4160 O   0  0  0  0  0  0  0  0  0  0  0  0
  196.1520  173.8060  139.0380 N   0  0  0  0  0  2  0  0  0  0  0  0
  194.3280  173.9730  146.2280 C   0  0  0  0  0  2  0  0  0  0  0  0
  194.3870  175.5200  145.7520 C   0  0  0  0  0  0  0  0  0  0  0  0
  195.1400  176.4930  146.1080 O   0  0  0  0  0  0  0  0  0  0  0  0
  191.9190  176.3660  145.1300 S   0  0  0  0  0  0  0  0  0  0  0  0
  191.4960  176.8440  143.5790 C   0  0  0  0  0  3  0  0  0  0  0  0
  193.4790  176.0460  144.7930 C   0  0  0  0  0  0  0  0  0  0  0  0
  193.7710  176.3330  143.5550 N   0  0  0  0  0  0  0  0  0  0  0  0
  192.6500  176.7570  142.8780 N   0  0  0  0  0  0  0  0  0  0  0  0
  187.8510  172.2970  142.0120 C   0  0  0  0  0  2  0  0  0  0  0  0
  187.8430  173.1930  140.8420 C   0  0  0  0  0  2  0  0  0  0  0  0
  187.4100  174.6350  141.1910 C   0  0  0  0  0  2  0  0  0  0  0  0
  188.6410  175.4520  141.5720 C   0  0  0  0  0  0  0  0  0  0  0  0
  189.7320  175.2870  141.0110 O   0  0  0  0  0  0  0  0  0  0  0  0
  188.4330  176.8350  142.3650 C   0  0  0  0  0  2  0  0  0  0  0  0
  184.4620  178.7380  146.9360 C   0  0  0  0  0  2  0  0  0  0  0  0
  186.0510  177.9390  143.4850 C   0  0  2  0  0  0  0  0  0  0  0  0
  186.2340  179.1640  142.5380 C   0  0  0  0  0  2  0  0  0  0  0  0
  185.7260  178.5410  144.8730 C   0  0  2  0  0  3  0  0  0  0  0  0
  186.5720  177.3070  147.2520 C   0  0  0  0  0  2  0  0  0  0  0  0
  187.3770  177.1160  143.5550 C   0  0  2  0  0  3  0  0  0  0  0  0
  186.7620  177.7550  145.7780 C   0  0  1  0  0  3  0  0  0  0  0  0
  185.0850  177.4880  147.6070 C   0  0  0  0  0  2  0  0  0  0  0  0
  185.8340  177.7050  141.1190 O   0  0  0  0  0  1  0  0  0  0  0  0
  185.1910  178.1690  142.2410 C   0  0  1  0  0  3  0  0  0  0  0  0
  188.4750  175.9290  145.3430 O   0  0  0  0  0  1  0  0  0  0  0  0
  184.2850  178.6380  145.4080 C   0  0  0  0  0  2  0  0  0  0  0  0
  187.9790  177.2170  144.9380 C   0  0  1  0  0  3  0  0  0  0  0  0
  2  5  1  0  0  0  0
  3  1  2  0  0  0  0
  4  8  1  0  0  0  0
  5 47  1  6  0  0  0
  5  6  1  0  0  0  0
  7  2  1  1  0  0  0
  7 15  1  0  0  0  0
  8 17  1  1  0  0  0
  8 18  1  0  0  0  0
  9 14  1  0  0  0  0
  9  7  1  0  0  0  0
 10 12  1  0  0  0  0
 11 12  1  6  0  0  0
 11 13  1  0  0  0  0
 11  3  1  0  0  0  0
 13  3  1  0  0  0  0
 13 39  1  1  0  0  0
 14 19  1  1  0  0  0
 14  4  1  0  0  0  0
 15  6  1  0  0  0  0
 15 17  1  1  0  0  0
 16  4  2  0  0  0  0
 16 10  2  0  0  0  0
 18 11  1  0  0  0  0
 18 13  1  0  0  0  0
 20 19  1  0  0  0  0
 21 20  1  0  0  0  0
 22 21  1  0  0  0  0
 23 24  1  0  0  0  0
 23 25  1  0  0  0  0
 24 26  1  0  0  0  0
 24 25  1  0  0  0  0
 25 22  1  0  0  0  0
 26 30  1  0  0  0  0
 27 26  2  0  0  0  0
 29 28  2  0  0  0  0
 29 34  1  0  0  0  0
 30 29  1  0  0  0  0
 31 32  1  0  0  0  0
 31 34  1  0  0  0  0
 32 34  1  0  0  0  0
 33 31  1  0  0  0  0
 34 38  1  0  0  0  0
 36 35  1  0  0  0  0
 37 36  2  0  0  0  0
 38 36  1  0  0  0  0
 40 41  2  0  0  0  0
 40 39  1  0  0  0  0
 43 42  1  0  0  0  0
 44 42  1  0  0  0  0
 44 40  1  0  0  0  0
 45 44  2  0  0  0  0
 46 45  1  0  0  0  0
 46 43  2  0  0  0  0
 48 49  1  0  0  0  0
 48 47  1  0  0  0  0
 49 50  1  0  0  0  0
 50 52  1  0  0  0  0
 51 50  2  0  0  0  0
 52 58  1  0  0  0  0
 53 60  1  0  0  0  0
 54 58  1  0  0  0  0
 54 56  1  0  0  0  0
 55 54  1  0  0  0  0
 56 64  1  0  0  0  0
 56 59  1  0  0  0  0
 57 60  1  0  0  0  0
 58 65  1  0  0  0  0
 59 57  1  0  0  0  0
 61 62  1  0  0  0  0
 62 55  1  0  0  0  0
 62 54  1  0  0  0  0
 64 53  1  0  0  0  0
 65 63  1  0  0  0  0
 65 59  1  0  0  0  0
M  END
>  <MODEL>
9

>  <REMARK>
 VINA RESULT:      -6.4      3.043     10.220
  Name = 
  16 active torsions:
  status: ('A' for Active; 'I' for Inactive)
    1  A    between atoms: N_1  and  C_15
    2  A    between atoms: N_1  and  C_40
    3  A    between atoms: C_3  and  C_34
    4  A    between atoms: C_4  and  C_56
    5  A    between atoms: C_9  and  C_20
    6  A    between atoms: C_9  and  C_46
    7  A    between atoms: C_15  and  C_54
    8  A    between atoms: C_20  and  C_64
    9  A    between atoms: C_21  and  C_25
   10  A    between atoms: C_24  and  C_41
   11  A    between atoms: C_25  and  C_46
   12  A    between atoms: C_28  and  C_60
   13  A    between atoms: C_31  and  C_64
   14  A    between atoms: N_36  and  C_60
   15  A    between atoms: C_41  and  C_50
   16  A    between atoms: C_50  and  C_53
                            x       y       z     vdW  Elec       q    Type
                         _______ _______ _______ _____ _____    ______ ____

>  <TORSDO>
F 16

$$$$
