=
 OpenBabel11042418003D

 36 40  0  0  1  0  0  0  0  0999 V2000
  190.7030  175.9810  145.0030 C   0  0  1  0  0  3  0  0  0  0  0  0
  189.2020  172.6180  142.0850 C   0  0  0  0  0  3  0  0  0  0  0  0
  192.2990  172.7310  142.2190 N   0  0  0  0  0  0  0  0  0  0  0  0
  191.8060  171.9760  136.7100 C   0  0  0  0  0  1  0  0  0  0  0  0
  189.6470  176.7010  147.2380 C   0  0  0  0  0  2  0  0  0  0  0  0
  191.8990  175.0430  144.9680 C   0  0  0  0  0  2  0  0  0  0  0  0
  190.1230  172.6970  141.1180 C   0  0  0  0  0  0  0  0  0  0  0  0
  192.0480  174.5480  143.6480 O   0  0  0  0  0  0  0  0  0  0  0  0
  190.7470  171.7830  137.6840 N   0  0  0  0  0  2  0  0  0  0  0  0
  191.4460  173.3920  141.2370 C   0  0  2  0  0  3  0  0  0  0  0  0
  189.1110  174.6780  143.4920 C   0  0  0  0  0  2  0  0  0  0  0  0
  189.8720  172.1160  139.8510 N   0  0  0  0  0  0  0  0  0  0  0  0
  189.3740  175.1920  144.9010 C   0  0  2  0  0  3  0  0  0  0  0  0
  190.8260  172.3110  139.0090 C   0  0  0  0  0  0  0  0  0  0  0  0
  190.8020  176.8900  146.2470 C   0  0  0  0  0  2  0  0  0  0  0  0
  188.2110  176.0150  145.3770 C   0  0  0  0  0  3  0  0  0  0  0  0
  188.3400  176.7290  146.5030 C   0  0  0  0  0  0  0  0  0  0  0  0
  192.2270  173.2700  139.5910 S   0  0  0  0  0  0  0  0  0  0  0  0
  189.3620  173.1790  143.4620 C   0  0  0  0  0  2  0  0  0  0  0  0
  192.5730  173.2860  143.3610 C   0  0  0  0  0  0  0  0  0  0  0  0
  193.8560  171.3430  144.1510 C   0  0  0  0  0  3  0  0  0  0  0  0
  193.4120  172.5830  144.3470 C   0  0  0  0  0  3  0  0  0  0  0  0
  196.2820  169.2410  146.9710 C   0  0  0  0  0  0  0  0  0  0  0  0
  195.9540  171.1470  145.5150 C   0  0  0  0  0  3  0  0  0  0  0  0
  195.0350  168.7360  146.5890 C   0  0  0  0  0  3  0  0  0  0  0  0
  194.2490  169.4350  145.6690 C   0  0  0  0  0  3  0  0  0  0  0  0
  194.7020  170.6430  145.1270 C   0  0  0  0  0  0  0  0  0  0  0  0
  197.1230  168.4930  147.9430 C   0  0  0  0  0  1  0  0  0  0  0  0
  196.7410  170.4480  146.4350 C   0  0  0  0  0  3  0  0  0  0  0  0
  187.2100  177.5610  147.0130 C   0  0  0  0  0  2  0  0  0  0  0  0
  184.8440  178.0820  146.7420 C   0  0  0  0  0  2  0  0  0  0  0  0
  185.5590  178.6050  145.5690 N   0  0  0  0  0  0  0  0  0  0  0  0
  185.9600  177.3310  146.1820 C   0  0  1  0  0  3  0  0  0  0  0  0
  184.7610  178.2660  144.4010 C   0  0  0  0  0  2  0  0  0  0  0  0
  185.2870  179.0000  143.1810 C   0  0  0  0  0  2  0  0  0  0  0  0
  186.6410  178.4430  142.7690 C   0  0  0  0  0  1  0  0  0  0  0  0
  1  6  1  1  0  0  0
  1 15  1  0  0  0  0
  2 19  1  0  0  0  0
  3 20  2  0  0  0  0
  4  9  1  0  0  0  0
  7 10  1  0  0  0  0
  7  2  2  0  0  0  0
  8  6  1  0  0  0  0
  9 14  1  0  0  0  0
 10 18  1  6  0  0  0
 10  3  1  0  0  0  0
 12  7  1  0  0  0  0
 13 11  1  6  0  0  0
 13  1  1  0  0  0  0
 13 16  1  0  0  0  0
 14 18  1  0  0  0  0
 14 12  2  0  0  0  0
 15  5  1  0  0  0  0
 16 17  2  0  0  0  0
 17 30  1  0  0  0  0
 17  5  1  0  0  0  0
 19 11  1  0  0  0  0
 20  8  1  0  0  0  0
 20 22  1  0  0  0  0
 21 22  2  0  0  0  0
 21 27  1  0  0  0  0
 23 28  1  0  0  0  0
 24 29  1  0  0  0  0
 25 23  1  0  0  0  0
 26 25  2  0  0  0  0
 27 24  2  0  0  0  0
 27 26  1  0  0  0  0
 29 23  2  0  0  0  0
 32 33  1  0  0  0  0
 32 31  1  0  0  0  0
 33 31  1  0  0  0  0
 33 30  1  1  0  0  0
 34 32  1  0  0  0  0
 35 34  1  0  0  0  0
 36 35  1  0  0  0  0
M  END
>  <MODEL>
1

>  <REMARK>
 VINA RESULT:      -7.7      0.000      0.000
  Name = 
  6 active torsions:
  status: ('A' for Active; 'I' for Inactive)
    1  A    between atoms: C_1  and  C_11
    2  A    between atoms: C_11  and  N_23
    3  A    between atoms: C_16  and  C_22
    4  A    between atoms: C_21  and  C_35
    5  A    between atoms: C_26  and  C_32
    6  A    between atoms: C_30  and  C_32
                            x       y       z     vdW  Elec       q    Type
                         _______ _______ _______ _____ _____    ______ ____

>  <TORSDO>
F 6

$$$$
=
 OpenBabel11042418003D

 36 40  0  0  1  0  0  0  0  0999 V2000
  188.0380  175.7810  143.1520 C   0  0  1  0  0  3  0  0  0  0  0  0
  192.5170  177.1320  143.5870 C   0  0  0  0  0  3  0  0  0  0  0  0
  192.2860  174.2250  142.5300 N   0  0  0  0  0  0  0  0  0  0  0  0
  196.5090  173.4050  146.0870 C   0  0  0  0  0  1  0  0  0  0  0  0
  186.0370  177.2110  142.3890 C   0  0  0  0  0  2  0  0  0  0  0  0
  188.7410  174.8400  142.1880 C   0  0  0  0  0  2  0  0  0  0  0  0
  193.0810  175.9950  144.0070 C   0  0  0  0  0  0  0  0  0  0  0  0
  189.9830  174.4570  142.7530 O   0  0  0  0  0  0  0  0  0  0  0  0
  196.0280  174.6980  145.6350 N   0  0  0  0  0  2  0  0  0  0  0  0
  192.4570  174.6340  143.9190 C   0  0  2  0  0  3  0  0  0  0  0  0
  190.0430  177.1570  143.9250 C   0  0  0  0  0  2  0  0  0  0  0  0
  194.3600  176.0200  144.6150 N   0  0  0  0  0  0  0  0  0  0  0  0
  188.7210  177.1720  143.1710 C   0  0  2  0  0  3  0  0  0  0  0  0
  194.7540  174.8600  145.0110 C   0  0  0  0  0  0  0  0  0  0  0  0
  186.5310  175.8240  142.8180 C   0  0  0  0  0  2  0  0  0  0  0  0
  187.8100  178.2210  143.7430 C   0  0  0  0  0  3  0  0  0  0  0  0
  186.5280  178.2450  143.3590 C   0  0  0  0  0  0  0  0  0  0  0  0
  193.6240  173.4920  144.7380 S   0  0  0  0  0  0  0  0  0  0  0  0
  191.1820  177.2240  142.9200 C   0  0  0  0  0  2  0  0  0  0  0  0
  191.1090  174.1500  141.9850 C   0  0  0  0  0  0  0  0  0  0  0  0
  190.5270  172.5630  140.2000 C   0  0  0  0  0  3  0  0  0  0  0  0
  190.9670  173.7630  140.5710 C   0  0  0  0  0  3  0  0  0  0  0  0
  190.1300  171.4970  136.0810 C   0  0  0  0  0  0  0  0  0  0  0  0
  189.9900  170.8780  138.4180 C   0  0  0  0  0  3  0  0  0  0  0  0
  190.5100  172.7920  136.4480 C   0  0  0  0  0  3  0  0  0  0  0  0
  190.6320  173.1300  137.7990 C   0  0  0  0  0  3  0  0  0  0  0  0
  190.3740  172.1770  138.7910 C   0  0  0  0  0  0  0  0  0  0  0  0
  190.0090  171.1340  134.6440 C   0  0  0  0  0  1  0  0  0  0  0  0
  189.8690  170.5410  137.0670 C   0  0  0  0  0  3  0  0  0  0  0  0
  185.5870  179.2710  143.9010 C   0  0  0  0  0  2  0  0  0  0  0  0
  184.1710  178.9890  145.8660 C   0  0  0  0  0  2  0  0  0  0  0  0
  185.1060  177.8570  145.8180 N   0  0  0  0  0  0  0  0  0  0  0  0
  185.5410  179.2030  145.4180 C   0  0  1  0  0  3  0  0  0  0  0  0
  185.5950  177.6530  147.1730 C   0  0  0  0  0  2  0  0  0  0  0  0
  186.4170  176.3790  147.2420 C   0  0  0  0  0  2  0  0  0  0  0  0
  187.8770  176.6710  146.9360 C   0  0  0  0  0  1  0  0  0  0  0  0
  1  6  1  6  0  0  0
  1 13  1  0  0  0  0
  2  7  2  0  0  0  0
  5 15  1  0  0  0  0
  5 17  1  0  0  0  0
  6  8  1  0  0  0  0
  7 12  1  0  0  0  0
  9  4  1  0  0  0  0
 10  3  1  6  0  0  0
 10  7  1  0  0  0  0
 10 18  1  0  0  0  0
 12 14  2  0  0  0  0
 13 16  1  1  0  0  0
 13 11  1  0  0  0  0
 14  9  1  0  0  0  0
 15  1  1  0  0  0  0
 17 16  2  0  0  0  0
 17 30  1  0  0  0  0
 18 14  1  0  0  0  0
 19  2  1  0  0  0  0
 19 11  1  0  0  0  0
 20  3  2  0  0  0  0
 20  8  1  0  0  0  0
 21 22  2  0  0  0  0
 22 20  1  0  0  0  0
 23 25  2  0  0  0  0
 23 29  1  0  0  0  0
 24 27  1  0  0  0  0
 25 26  1  0  0  0  0
 26 27  2  0  0  0  0
 27 21  1  0  0  0  0
 28 23  1  0  0  0  0
 29 24  2  0  0  0  0
 32 31  1  0  0  0  0
 32 34  1  0  0  0  0
 33 30  1  6  0  0  0
 33 32  1  0  0  0  0
 33 31  1  0  0  0  0
 34 35  1  0  0  0  0
 36 35  1  0  0  0  0
M  END
>  <MODEL>
2

>  <REMARK>
 VINA RESULT:      -7.6      2.735      6.725
  Name = 
  6 active torsions:
  status: ('A' for Active; 'I' for Inactive)
    1  A    between atoms: C_1  and  C_11
    2  A    between atoms: C_11  and  N_23
    3  A    between atoms: C_16  and  C_22
    4  A    between atoms: C_21  and  C_35
    5  A    between atoms: C_26  and  C_32
    6  A    between atoms: C_30  and  C_32
                            x       y       z     vdW  Elec       q    Type
                         _______ _______ _______ _____ _____    ______ ____

>  <TORSDO>
F 6

$$$$
=
 OpenBabel11042418003D

 36 40  0  0  1  0  0  0  0  0999 V2000
  189.8040  175.0910  144.3450 C   0  0  1  0  0  3  0  0  0  0  0  0
  194.3290  174.9440  145.6020 C   0  0  0  0  0  3  0  0  0  0  0  0
  193.8020  173.3460  142.9970 N   0  0  0  0  0  0  0  0  0  0  0  0
  197.2900  169.7220  145.4190 C   0  0  0  0  0  1  0  0  0  0  0  0
  188.1810  177.0790  144.5620 C   0  0  0  0  0  2  0  0  0  0  0  0
  190.4840  174.7760  143.0230 C   0  0  0  0  0  2  0  0  0  0  0  0
  194.6420  173.6900  145.2600 C   0  0  0  0  0  0  0  0  0  0  0  0
  191.5560  173.8820  143.2670 O   0  0  0  0  0  0  0  0  0  0  0  0
  197.0860  171.0990  145.8320 N   0  0  0  0  0  2  0  0  0  0  0  0
  193.8330  172.8120  144.3540 C   0  0  2  0  0  3  0  0  0  0  0  0
  191.8670  175.2870  145.8350 C   0  0  0  0  0  2  0  0  0  0  0  0
  195.8090  173.0820  145.7860 N   0  0  0  0  0  0  0  0  0  0  0  0
  190.6850  176.0210  145.2160 C   0  0  2  0  0  3  0  0  0  0  0  0
  195.9560  171.8610  145.4070 C   0  0  0  0  0  0  0  0  0  0  0  0
  188.3860  175.6400  144.0740 C   0  0  0  0  0  2  0  0  0  0  0  0
  189.8760  176.6960  146.2870 C   0  0  0  0  0  3  0  0  0  0  0  0
  188.6820  177.2120  145.9700 C   0  0  0  0  0  0  0  0  0  0  0  0
  194.6780  171.1930  144.3380 S   0  0  0  0  0  0  0  0  0  0  0  0
  193.1340  175.6910  145.1000 C   0  0  0  0  0  2  0  0  0  0  0  0
  192.7190  173.8560  142.4940 C   0  0  0  0  0  0  0  0  0  0  0  0
  192.8580  173.6550  140.0470 C   0  0  0  0  0  3  0  0  0  0  0  0
  192.7240  174.4160  141.1310 C   0  0  0  0  0  3  0  0  0  0  0  0
  192.9190  175.2710  136.0920 C   0  0  0  0  0  0  0  0  0  0  0  0
  191.8040  173.9510  137.7880 C   0  0  0  0  0  3  0  0  0  0  0  0
  193.9640  175.5320  136.9840 C   0  0  0  0  0  3  0  0  0  0  0  0
  193.9310  175.0010  138.2760 C   0  0  0  0  0  3  0  0  0  0  0  0
  192.8530  174.2090  138.6870 C   0  0  0  0  0  0  0  0  0  0  0  0
  192.9580  175.8270  134.7140 C   0  0  0  0  0  1  0  0  0  0  0  0
  191.8370  174.4810  136.4960 C   0  0  0  0  0  3  0  0  0  0  0  0
  187.8440  177.8920  147.0020 C   0  0  0  0  0  2  0  0  0  0  0  0
  185.5740  178.1970  147.8390 C   0  0  0  0  0  2  0  0  0  0  0  0
  185.6230  178.7170  146.4640 N   0  0  0  0  0  0  0  0  0  0  0  0
  186.3820  177.5140  146.8360 C   0  0  1  0  0  3  0  0  0  0  0  0
  184.4200  178.2520  145.7930 C   0  0  0  0  0  2  0  0  0  0  0  0
  184.3750  178.7910  144.3740 C   0  0  0  0  0  2  0  0  0  0  0  0
  185.4280  179.8700  144.1820 C   0  0  0  0  0  1  0  0  0  0  0  0
  1  6  1  6  0  0  0
  1 13  1  0  0  0  0
  4  9  1  0  0  0  0
  5 17  1  0  0  0  0
  6  8  1  0  0  0  0
  7  2  2  0  0  0  0
  7 12  1  0  0  0  0
 10  3  1  6  0  0  0
 10  7  1  0  0  0  0
 13 11  1  1  0  0  0
 13 16  1  0  0  0  0
 14 12  2  0  0  0  0
 14  9  1  0  0  0  0
 15  1  1  0  0  0  0
 15  5  1  0  0  0  0
 17 16  2  0  0  0  0
 17 30  1  0  0  0  0
 18 10  1  0  0  0  0
 18 14  1  0  0  0  0
 19  2  1  0  0  0  0
 19 11  1  0  0  0  0
 20  3  2  0  0  0  0
 20  8  1  0  0  0  0
 21 22  2  0  0  0  0
 22 20  1  0  0  0  0
 23 29  2  0  0  0  0
 23 25  1  0  0  0  0
 24 27  2  0  0  0  0
 25 26  2  0  0  0  0
 26 27  1  0  0  0  0
 27 21  1  0  0  0  0
 28 23  1  0  0  0  0
 29 24  1  0  0  0  0
 32 33  1  0  0  0  0
 32 31  1  0  0  0  0
 33 30  1  1  0  0  0
 33 31  1  0  0  0  0
 34 32  1  0  0  0  0
 35 34  1  0  0  0  0
 36 35  1  0  0  0  0
M  END
>  <MODEL>
3

>  <REMARK>
 VINA RESULT:      -7.0      2.491      6.533
  Name = 
  6 active torsions:
  status: ('A' for Active; 'I' for Inactive)
    1  A    between atoms: C_1  and  C_11
    2  A    between atoms: C_11  and  N_23
    3  A    between atoms: C_16  and  C_22
    4  A    between atoms: C_21  and  C_35
    5  A    between atoms: C_26  and  C_32
    6  A    between atoms: C_30  and  C_32
                            x       y       z     vdW  Elec       q    Type
                         _______ _______ _______ _____ _____    ______ ____

>  <TORSDO>
F 6

$$$$
=
 OpenBabel11042418003D

 36 40  0  0  1  0  0  0  0  0999 V2000
  189.2950  176.0540  142.4780 C   0  0  1  0  0  3  0  0  0  0  0  0
  188.6080  172.5470  139.4270 C   0  0  0  0  0  3  0  0  0  0  0  0
  191.5950  172.8210  140.2180 N   0  0  0  0  0  0  0  0  0  0  0  0
  192.3350  171.9020  134.7610 C   0  0  0  0  0  1  0  0  0  0  0  0
  187.7520  176.7770  144.4080 C   0  0  0  0  0  2  0  0  0  0  0  0
  190.5100  175.1780  142.7330 C   0  0  0  0  0  2  0  0  0  0  0  0
  189.7110  172.6480  138.6790 C   0  0  0  0  0  0  0  0  0  0  0  0
  190.9620  174.6580  141.4940 O   0  0  0  0  0  0  0  0  0  0  0  0
  191.1000  171.6800  135.4920 N   0  0  0  0  0  2  0  0  0  0  0  0
  190.9450  173.4120  139.0530 C   0  0  2  0  0  3  0  0  0  0  0  0
  188.1250  174.6350  140.7090 C   0  0  0  0  0  2  0  0  0  0  0  0
  189.7650  172.0230  137.4080 N   0  0  0  0  0  0  0  0  0  0  0  0
  188.0550  175.1970  142.1220 C   0  0  2  0  0  3  0  0  0  0  0  0
  190.8690  172.2450  136.7830 C   0  0  0  0  0  0  0  0  0  0  0  0
  189.0830  176.9990  143.6810 C   0  0  0  0  0  2  0  0  0  0  0  0
  186.7820  175.9720  142.3090 C   0  0  0  0  0  3  0  0  0  0  0  0
  186.6330  176.7200  143.4090 C   0  0  0  0  0  0  0  0  0  0  0  0
  192.0680  173.2890  137.6170 S   0  0  0  0  0  0  0  0  0  0  0  0
  188.4430  173.1500  140.7860 C   0  0  0  0  0  2  0  0  0  0  0  0
  191.5920  173.4170  141.3710 C   0  0  0  0  0  0  0  0  0  0  0  0
  192.6430  171.5180  142.5250 C   0  0  0  0  0  3  0  0  0  0  0  0
  192.2290  172.7830  142.5380 C   0  0  0  0  0  3  0  0  0  0  0  0
  194.5140  169.7420  145.9320 C   0  0  0  0  0  0  0  0  0  0  0  0
  193.2680  169.4930  143.8710 C   0  0  0  0  0  3  0  0  0  0  0  0
  194.5400  171.1290  145.7470 C   0  0  0  0  0  3  0  0  0  0  0  0
  193.9280  171.6970  144.6270 C   0  0  0  0  0  3  0  0  0  0  0  0
  193.2890  170.8850  143.6830 C   0  0  0  0  0  0  0  0  0  0  0  0
  195.1570  169.1370  147.1280 C   0  0  0  0  0  1  0  0  0  0  0  0
  193.8790  168.9250  144.9920 C   0  0  0  0  0  3  0  0  0  0  0  0
  185.3840  177.5060  143.6360 C   0  0  0  0  0  2  0  0  0  0  0  0
  184.4380  179.4640  144.7380 C   0  0  0  0  0  2  0  0  0  0  0  0
  184.9310  178.5540  145.7810 N   0  0  0  0  0  0  0  0  0  0  0  0
  185.6650  178.7110  144.5170 C   0  0  1  0  0  3  0  0  0  0  0  0
  185.6250  179.3730  146.7630 C   0  0  0  0  0  2  0  0  0  0  0  0
  186.4660  178.4930  147.6710 C   0  0  0  0  0  2  0  0  0  0  0  0
  185.9600  177.0600  147.6400 C   0  0  0  0  0  1  0  0  0  0  0  0
  1  6  1  1  0  0  0
  1 15  1  0  0  0  0
  2 19  1  0  0  0  0
  3 20  2  0  0  0  0
  4  9  1  0  0  0  0
  7 10  1  0  0  0  0
  7  2  2  0  0  0  0
  8  6  1  0  0  0  0
  9 14  1  0  0  0  0
 10 18  1  6  0  0  0
 10  3  1  0  0  0  0
 11 19  1  0  0  0  0
 12  7  1  0  0  0  0
 13 11  1  6  0  0  0
 13 16  1  0  0  0  0
 13  1  1  0  0  0  0
 14 12  2  0  0  0  0
 14 18  1  0  0  0  0
 15  5  1  0  0  0  0
 16 17  2  0  0  0  0
 17 30  1  0  0  0  0
 17  5  1  0  0  0  0
 20  8  1  0  0  0  0
 20 22  1  0  0  0  0
 21 22  2  0  0  0  0
 21 27  1  0  0  0  0
 23 28  1  0  0  0  0
 24 29  1  0  0  0  0
 25 23  1  0  0  0  0
 26 25  2  0  0  0  0
 27 24  2  0  0  0  0
 27 26  1  0  0  0  0
 29 23  2  0  0  0  0
 31 32  1  0  0  0  0
 32 34  1  0  0  0  0
 33 30  1  6  0  0  0
 33 31  1  0  0  0  0
 33 32  1  0  0  0  0
 34 35  1  0  0  0  0
 36 35  1  0  0  0  0
M  END
>  <MODEL>
4

>  <REMARK>
 VINA RESULT:      -6.8      1.747      2.821
  Name = 
  6 active torsions:
  status: ('A' for Active; 'I' for Inactive)
    1  A    between atoms: C_1  and  C_11
    2  A    between atoms: C_11  and  N_23
    3  A    between atoms: C_16  and  C_22
    4  A    between atoms: C_21  and  C_35
    5  A    between atoms: C_26  and  C_32
    6  A    between atoms: C_30  and  C_32
                            x       y       z     vdW  Elec       q    Type
                         _______ _______ _______ _____ _____    ______ ____

>  <TORSDO>
F 6

$$$$
=
 OpenBabel11042418003D

 36 40  0  0  1  0  0  0  0  0999 V2000
  188.8800  173.2130  141.3590 C   0  0  1  0  0  3  0  0  0  0  0  0
  188.0910  177.6940  142.5310 C   0  0  0  0  0  3  0  0  0  0  0  0
  188.7460  175.9510  145.0110 N   0  0  0  0  0  0  0  0  0  0  0  0
  184.6140  178.9540  147.2640 C   0  0  0  0  0  1  0  0  0  0  0  0
  190.0800  172.3310  139.2590 C   0  0  0  0  0  2  0  0  0  0  0  0
  189.6070  173.3190  142.6900 C   0  0  0  0  0  2  0  0  0  0  0  0
  187.4470  177.5390  143.6930 C   0  0  0  0  0  0  0  0  0  0  0  0
  188.8440  174.1380  143.5590 O   0  0  0  0  0  0  0  0  0  0  0  0
  185.3010  179.2650  146.0230 N   0  0  0  0  0  2  0  0  0  0  0  0
  187.4180  176.2790  144.5050 C   0  0  2  0  0  3  0  0  0  0  0  0
  188.0680  175.6220  141.1380 C   0  0  0  0  0  2  0  0  0  0  0  0
  186.6950  178.6100  144.2360 N   0  0  0  0  0  0  0  0  0  0  0  0
  188.9740  174.5400  140.5660 C   0  0  2  0  0  3  0  0  0  0  0  0
  186.0940  178.3000  145.3310 C   0  0  0  0  0  0  0  0  0  0  0  0
  189.4010  171.9810  140.5880 C   0  0  0  0  0  2  0  0  0  0  0  0
  188.6740  174.3300  139.1090 C   0  0  0  0  0  3  0  0  0  0  0  0
  189.2120  173.2770  138.4820 C   0  0  0  0  0  0  0  0  0  0  0  0
  186.3080  176.6170  145.9150 S   0  0  0  0  0  0  0  0  0  0  0  0
  188.9240  176.6420  141.8720 C   0  0  0  0  0  2  0  0  0  0  0  0
  189.4150  174.9380  144.5520 C   0  0  0  0  0  0  0  0  0  0  0  0
  191.8680  174.9790  144.3890 C   0  0  0  0  0  3  0  0  0  0  0  0
  190.7670  174.6470  145.0600 C   0  0  0  0  0  3  0  0  0  0  0  0
  195.7960  174.1050  145.8270 C   0  0  0  0  0  0  0  0  0  0  0  0
  194.0660  175.7290  145.3430 C   0  0  0  0  0  3  0  0  0  0  0  0
  194.9540  173.0790  145.3860 C   0  0  0  0  0  3  0  0  0  0  0  0
  193.6700  173.3770  144.9230 C   0  0  0  0  0  3  0  0  0  0  0  0
  193.2180  174.7010  144.8970 C   0  0  0  0  0  0  0  0  0  0  0  0
  197.1660  173.7900  146.3120 C   0  0  0  0  0  1  0  0  0  0  0  0
  195.3500  175.4310  145.8070 C   0  0  0  0  0  3  0  0  0  0  0  0
  188.9410  173.0290  137.0340 C   0  0  0  0  0  2  0  0  0  0  0  0
  189.6480  173.5810  134.7670 C   0  0  0  0  0  2  0  0  0  0  0  0
  188.8770  174.7190  135.2890 N   0  0  0  0  0  0  0  0  0  0  0  0
  189.7760  173.9580  136.1690 C   0  0  1  0  0  3  0  0  0  0  0  0
  189.5960  175.9260  134.9120 C   0  0  0  0  0  2  0  0  0  0  0  0
  188.6460  177.1100  134.8880 C   0  0  0  0  0  2  0  0  0  0  0  0
  187.4120  176.8190  135.7280 C   0  0  0  0  0  1  0  0  0  0  0  0
  1 15  1  6  0  0  0
  1  6  1  0  0  0  0
  2  7  2  0  0  0  0
  5 15  1  0  0  0  0
  6  8  1  0  0  0  0
  7 12  1  0  0  0  0
  8 20  1  0  0  0  0
  9  4  1  0  0  0  0
 10  7  1  6  0  0  0
 10  3  1  0  0  0  0
 10 18  1  0  0  0  0
 11 19  1  0  0  0  0
 12 14  2  0  0  0  0
 13 16  1  6  0  0  0
 13 11  1  0  0  0  0
 13  1  1  0  0  0  0
 14 18  1  0  0  0  0
 14  9  1  0  0  0  0
 17 16  2  0  0  0  0
 17  5  1  0  0  0  0
 19  2  1  0  0  0  0
 20  3  2  0  0  0  0
 20 22  1  0  0  0  0
 21 27  1  0  0  0  0
 21 22  2  0  0  0  0
 23 28  1  0  0  0  0
 24 29  2  0  0  0  0
 25 23  2  0  0  0  0
 26 25  1  0  0  0  0
 27 26  2  0  0  0  0
 27 24  1  0  0  0  0
 29 23  1  0  0  0  0
 30 17  1  0  0  0  0
 31 32  1  0  0  0  0
 31 33  1  0  0  0  0
 32 33  1  0  0  0  0
 33 30  1  1  0  0  0
 34 32  1  0  0  0  0
 35 34  1  0  0  0  0
 35 36  1  0  0  0  0
M  END
>  <MODEL>
5

>  <REMARK>
 VINA RESULT:      -6.7      3.155      7.697
  Name = 
  6 active torsions:
  status: ('A' for Active; 'I' for Inactive)
    1  A    between atoms: C_1  and  C_11
    2  A    between atoms: C_11  and  N_23
    3  A    between atoms: C_16  and  C_22
    4  A    between atoms: C_21  and  C_35
    5  A    between atoms: C_26  and  C_32
    6  A    between atoms: C_30  and  C_32
                            x       y       z     vdW  Elec       q    Type
                         _______ _______ _______ _____ _____    ______ ____

>  <TORSDO>
F 6

$$$$
=
 OpenBabel11042418003D

 36 40  0  0  1  0  0  0  0  0999 V2000
  190.3780  173.4870  140.2270 C   0  0  1  0  0  3  0  0  0  0  0  0
  192.5880  171.1800  143.6720 C   0  0  0  0  0  3  0  0  0  0  0  0
  192.0200  174.1310  144.4400 N   0  0  0  0  0  0  0  0  0  0  0  0
  197.1910  173.7910  146.5130 C   0  0  0  0  0  1  0  0  0  0  0  0
  188.5690  172.5730  138.6390 C   0  0  0  0  0  2  0  0  0  0  0  0
  190.0050  174.3150  141.4460 C   0  0  0  0  0  2  0  0  0  0  0  0
  193.3940  172.1390  144.1380 C   0  0  0  0  0  0  0  0  0  0  0  0
  191.1270  174.3850  142.3080 O   0  0  0  0  0  0  0  0  0  0  0  0
  196.3710  172.6630  146.1090 N   0  0  0  0  0  2  0  0  0  0  0  0
  193.2490  173.6050  143.8570 C   0  0  2  0  0  3  0  0  0  0  0  0
  191.7510  171.6650  141.3710 C   0  0  0  0  0  2  0  0  0  0  0  0
  194.5060  171.8000  144.9480 N   0  0  0  0  0  0  0  0  0  0  0  0
  190.4850  171.9840  140.5870 C   0  0  2  0  0  3  0  0  0  0  0  0
  195.2170  172.8200  145.2820 C   0  0  0  0  0  0  0  0  0  0  0  0
  189.3910  173.7910  139.0790 C   0  0  0  0  0  2  0  0  0  0  0  0
  190.4030  171.1200  139.3610 C   0  0  0  0  0  3  0  0  0  0  0  0
  189.4780  171.3970  138.4340 C   0  0  0  0  0  0  0  0  0  0  0  0
  194.6800  174.4130  144.6540 S   0  0  0  0  0  0  0  0  0  0  0  0
  191.3800  171.4200  142.8240 C   0  0  0  0  0  2  0  0  0  0  0  0
  191.0180  174.4920  143.6960 C   0  0  0  0  0  0  0  0  0  0  0  0
  189.5900  176.2780  144.5990 C   0  0  0  0  0  3  0  0  0  0  0  0
  189.7770  174.9920  144.3120 C   0  0  0  0  0  3  0  0  0  0  0  0
  185.9560  177.7620  146.2890 C   0  0  0  0  0  0  0  0  0  0  0  0
  187.8810  176.3010  146.4380 C   0  0  0  0  0  3  0  0  0  0  0  0
  186.4200  178.2450  145.0610 C   0  0  0  0  0  3  0  0  0  0  0  0
  187.6120  177.7550  144.5210 C   0  0  0  0  0  3  0  0  0  0  0  0
  188.3490  176.7810  145.2040 C   0  0  0  0  0  0  0  0  0  0  0  0
  184.6830  178.2760  146.8600 C   0  0  0  0  0  1  0  0  0  0  0  0
  186.6890  176.7910  146.9780 C   0  0  0  0  0  3  0  0  0  0  0  0
  189.3600  170.5650  137.1990 C   0  0  0  0  0  2  0  0  0  0  0  0
  190.7450  170.4160  135.1990 C   0  0  0  0  0  2  0  0  0  0  0  0
  191.3150  171.4570  136.0660 N   0  0  0  0  0  0  0  0  0  0  0  0
  190.7350  170.2360  136.6450 C   0  0  1  0  0  3  0  0  0  0  0  0
  192.7570  171.2660  136.0650 C   0  0  0  0  0  2  0  0  0  0  0  0
  193.4190  172.2980  136.9610 C   0  0  0  0  0  2  0  0  0  0  0  0
  192.5210  173.5140  137.1240 C   0  0  0  0  0  1  0  0  0  0  0  0
  1 15  1  6  0  0  0
  1 13  1  0  0  0  0
  1  6  1  0  0  0  0
  2  7  2  0  0  0  0
  5 15  1  0  0  0  0
  6  8  1  0  0  0  0
  7 12  1  0  0  0  0
  8 20  1  0  0  0  0
  9  4  1  0  0  0  0
 10  7  1  1  0  0  0
 10  3  1  0  0  0  0
 10 18  1  0  0  0  0
 11 19  1  0  0  0  0
 12 14  2  0  0  0  0
 13 16  1  6  0  0  0
 13 11  1  0  0  0  0
 14  9  1  0  0  0  0
 17  5  1  0  0  0  0
 17 16  2  0  0  0  0
 18 14  1  0  0  0  0
 19  2  1  0  0  0  0
 20 22  1  0  0  0  0
 20  3  2  0  0  0  0
 21 27  1  0  0  0  0
 22 21  2  0  0  0  0
 23 28  1  0  0  0  0
 23 29  1  0  0  0  0
 24 29  2  0  0  0  0
 25 23  2  0  0  0  0
 26 25  1  0  0  0  0
 26 27  2  0  0  0  0
 27 24  1  0  0  0  0
 30 17  1  0  0  0  0
 31 32  1  0  0  0  0
 31 33  1  0  0  0  0
 32 33  1  0  0  0  0
 33 30  1  1  0  0  0
 34 32  1  0  0  0  0
 34 35  1  0  0  0  0
 35 36  1  0  0  0  0
M  END
>  <MODEL>
6

>  <REMARK>
 VINA RESULT:      -6.6      2.707      9.242
  Name = 
  6 active torsions:
  status: ('A' for Active; 'I' for Inactive)
    1  A    between atoms: C_1  and  C_11
    2  A    between atoms: C_11  and  N_23
    3  A    between atoms: C_16  and  C_22
    4  A    between atoms: C_21  and  C_35
    5  A    between atoms: C_26  and  C_32
    6  A    between atoms: C_30  and  C_32
                            x       y       z     vdW  Elec       q    Type
                         _______ _______ _______ _____ _____    ______ ____

>  <TORSDO>
F 6

$$$$
=
 OpenBabel11042418003D

 36 40  0  0  1  0  0  0  0  0999 V2000
  192.3770  172.3920  143.4680 C   0  0  1  0  0  3  0  0  0  0  0  0
  192.8660  174.0380  139.0950 C   0  0  0  0  0  3  0  0  0  0  0  0
  189.8860  173.8650  139.9360 N   0  0  0  0  0  0  0  0  0  0  0  0
  189.3160  171.9470  134.7240 C   0  0  0  0  0  1  0  0  0  0  0  0
  193.8910  172.8610  145.4970 C   0  0  0  0  0  2  0  0  0  0  0  0
  191.0730  173.1480  143.2730 C   0  0  0  0  0  2  0  0  0  0  0  0
  191.8140  173.4710  138.4960 C   0  0  0  0  0  0  0  0  0  0  0  0
  190.6320  172.9530  141.9400 O   0  0  0  0  0  0  0  0  0  0  0  0
  190.4890  172.6250  135.2480 N   0  0  0  0  0  2  0  0  0  0  0  0
  190.6430  172.8570  139.2010 C   0  0  2  0  0  3  0  0  0  0  0  0
  193.4870  172.8940  141.2260 C   0  0  0  0  0  2  0  0  0  0  0  0
  191.7590  173.3950  137.0820 N   0  0  0  0  0  0  0  0  0  0  0  0
  193.5450  173.0970  142.7340 C   0  0  2  0  0  3  0  0  0  0  0  0
  190.7130  172.7830  136.6500 C   0  0  0  0  0  0  0  0  0  0  0  0
  192.6230  172.1750  144.9770 C   0  0  0  0  0  2  0  0  0  0  0  0
  194.8760  172.6490  143.2660 C   0  0  0  0  0  3  0  0  0  0  0  0
  195.0440  172.5470  144.5900 C   0  0  0  0  0  0  0  0  0  0  0  0
  189.5820  172.1510  137.8930 S   0  0  0  0  0  0  0  0  0  0  0  0
  193.0250  174.1880  140.5740 C   0  0  0  0  0  2  0  0  0  0  0  0
  189.8920  173.9040  141.2340 C   0  0  0  0  0  0  0  0  0  0  0  0
  188.2230  175.7050  141.3530 C   0  0  0  0  0  3  0  0  0  0  0  0
  189.1440  174.9520  141.9500 C   0  0  0  0  0  3  0  0  0  0  0  0
  186.0780  178.7280  143.4790 C   0  0  0  0  0  0  0  0  0  0  0  0
  186.5250  177.5530  141.4090 C   0  0  0  0  0  3  0  0  0  0  0  0
  187.0140  177.9230  144.1370 C   0  0  0  0  0  3  0  0  0  0  0  0
  187.7050  176.9340  143.4310 C   0  0  0  0  0  3  0  0  0  0  0  0
  187.4660  176.7430  142.0660 C   0  0  0  0  0  0  0  0  0  0  0  0
  185.3490  179.7870  144.2260 C   0  0  0  0  0  1  0  0  0  0  0  0
  185.8330  178.5420  142.1150 C   0  0  0  0  0  3  0  0  0  0  0  0
  196.3510  172.1060  145.1630 C   0  0  0  0  0  2  0  0  0  0  0  0
  197.9410  170.2630  145.0240 C   0  0  0  0  0  2  0  0  0  0  0  0
  197.1260  170.0650  146.2310 N   0  0  0  0  0  0  0  0  0  0  0  0
  196.5250  170.6060  145.0020 C   0  0  1  0  0  3  0  0  0  0  0  0
  196.7710  168.6560  146.2750 C   0  0  0  0  0  2  0  0  0  0  0  0
  196.1950  168.3080  147.6370 C   0  0  0  0  0  2  0  0  0  0  0  0
  194.6910  168.5330  147.6500 C   0  0  0  0  0  1  0  0  0  0  0  0
  1  6  1  1  0  0  0
  1 15  1  0  0  0  0
  2 19  1  0  0  0  0
  3 20  2  0  0  0  0
  4  9  1  0  0  0  0
  7  2  2  0  0  0  0
  7 10  1  0  0  0  0
  8  6  1  0  0  0  0
  9 14  1  0  0  0  0
 10 18  1  6  0  0  0
 10  3  1  0  0  0  0
 12  7  1  0  0  0  0
 13 11  1  6  0  0  0
 13 16  1  0  0  0  0
 13  1  1  0  0  0  0
 14 12  2  0  0  0  0
 14 18  1  0  0  0  0
 15  5  1  0  0  0  0
 16 17  2  0  0  0  0
 17 30  1  0  0  0  0
 17  5  1  0  0  0  0
 19 11  1  0  0  0  0
 20  8  1  0  0  0  0
 20 22  1  0  0  0  0
 21 22  2  0  0  0  0
 21 27  1  0  0  0  0
 23 25  1  0  0  0  0
 23 28  1  0  0  0  0
 24 27  2  0  0  0  0
 24 29  1  0  0  0  0
 26 25  2  0  0  0  0
 27 26  1  0  0  0  0
 29 23  2  0  0  0  0
 31 32  1  0  0  0  0
 32 34  1  0  0  0  0
 33 31  1  0  0  0  0
 33 30  1  1  0  0  0
 33 32  1  0  0  0  0
 34 35  1  0  0  0  0
 35 36  1  0  0  0  0
M  END
>  <MODEL>
7

>  <REMARK>
 VINA RESULT:      -6.5      2.628      9.264
  Name = 
  6 active torsions:
  status: ('A' for Active; 'I' for Inactive)
    1  A    between atoms: C_1  and  C_11
    2  A    between atoms: C_11  and  N_23
    3  A    between atoms: C_16  and  C_22
    4  A    between atoms: C_21  and  C_35
    5  A    between atoms: C_26  and  C_32
    6  A    between atoms: C_30  and  C_32
                            x       y       z     vdW  Elec       q    Type
                         _______ _______ _______ _____ _____    ______ ____

>  <TORSDO>
F 6

$$$$
=
 OpenBabel11042418003D

 36 40  0  0  1  0  0  0  0  0999 V2000
  193.8860  174.4440  143.9010 C   0  0  1  0  0  3  0  0  0  0  0  0
  189.6840  174.0050  145.9550 C   0  0  0  0  0  3  0  0  0  0  0  0
  189.5290  175.7010  143.3630 N   0  0  0  0  0  0  0  0  0  0  0  0
  186.1370  178.8210  146.5130 C   0  0  0  0  0  1  0  0  0  0  0  0
  195.7460  172.6710  143.7440 C   0  0  0  0  0  2  0  0  0  0  0  0
  192.9430  174.6950  142.7360 C   0  0  0  0  0  2  0  0  0  0  0  0
  189.1650  175.2160  145.7250 C   0  0  0  0  0  0  0  0  0  0  0  0
  191.8340  175.4440  143.2030 O   0  0  0  0  0  0  0  0  0  0  0  0
  186.5760  177.4730  146.8280 N   0  0  0  0  0  2  0  0  0  0  0  0
  189.6840  176.2030  144.7230 C   0  0  2  0  0  3  0  0  0  0  0  0
  192.1700  173.9680  145.7280 C   0  0  0  0  0  2  0  0  0  0  0  0
  188.0510  175.6650  146.4760 N   0  0  0  0  0  0  0  0  0  0  0  0
  193.2970  173.3970  144.8790 C   0  0  2  0  0  3  0  0  0  0  0  0
  187.6920  176.8650  146.1780 C   0  0  0  0  0  0  0  0  0  0  0  0
  195.2850  174.0810  143.3580 C   0  0  0  0  0  2  0  0  0  0  0  0
  194.3630  172.8100  145.7590 C   0  0  0  0  0  3  0  0  0  0  0  0
  195.5320  172.4530  145.2130 C   0  0  0  0  0  0  0  0  0  0  0  0
  188.6630  177.7050  144.9230 S   0  0  0  0  0  0  0  0  0  0  0  0
  190.8460  173.4220  145.2180 C   0  0  0  0  0  2  0  0  0  0  0  0
  190.5540  175.3380  142.6530 C   0  0  0  0  0  0  0  0  0  0  0  0
  190.1060  173.5200  141.0600 C   0  0  0  0  0  3  0  0  0  0  0  0
  190.3670  174.8040  141.2930 C   0  0  0  0  0  3  0  0  0  0  0  0
  189.5160  172.0390  137.0960 C   0  0  0  0  0  0  0  0  0  0  0  0
  190.4610  171.7590  139.3070 C   0  0  0  0  0  3  0  0  0  0  0  0
  188.9610  173.2610  137.4890 C   0  0  0  0  0  3  0  0  0  0  0  0
  189.1570  173.7320  138.7900 C   0  0  0  0  0  3  0  0  0  0  0  0
  189.9070  172.9860  139.7060 C   0  0  0  0  0  0  0  0  0  0  0  0
  189.3160  171.5400  135.7090 C   0  0  0  0  0  1  0  0  0  0  0  0
  190.2660  171.2870  138.0060 C   0  0  0  0  0  3  0  0  0  0  0  0
  196.6190  171.8650  146.0500 C   0  0  0  0  0  2  0  0  0  0  0  0
  196.9290  169.6560  147.0330 C   0  0  0  0  0  2  0  0  0  0  0  0
  195.6110  169.6800  146.3830 N   0  0  0  0  0  0  0  0  0  0  0  0
  196.7560  170.3770  145.7790 C   0  0  1  0  0  3  0  0  0  0  0  0
  195.4710  168.4220  145.6660 C   0  0  0  0  0  2  0  0  0  0  0  0
  194.0080  168.1660  145.3490 C   0  0  0  0  0  2  0  0  0  0  0  0
  193.4040  169.3580  144.6250 C   0  0  0  0  0  1  0  0  0  0  0  0
  1  6  1  6  0  0  0
  1 13  1  0  0  0  0
  4  9  1  0  0  0  0
  5 17  1  0  0  0  0
  6  8  1  0  0  0  0
  7  2  2  0  0  0  0
  7 12  1  0  0  0  0
 10  3  1  6  0  0  0
 10 18  1  0  0  0  0
 10  7  1  0  0  0  0
 13 11  1  1  0  0  0
 13 16  1  0  0  0  0
 14 12  2  0  0  0  0
 14  9  1  0  0  0  0
 15  5  1  0  0  0  0
 15  1  1  0  0  0  0
 17 16  2  0  0  0  0
 17 30  1  0  0  0  0
 18 14  1  0  0  0  0
 19 11  1  0  0  0  0
 19  2  1  0  0  0  0
 20  8  1  0  0  0  0
 20  3  2  0  0  0  0
 21 22  2  0  0  0  0
 22 20  1  0  0  0  0
 23 25  2  0  0  0  0
 23 29  1  0  0  0  0
 24 27  1  0  0  0  0
 25 26  1  0  0  0  0
 26 27  2  0  0  0  0
 27 21  1  0  0  0  0
 28 23  1  0  0  0  0
 29 24  2  0  0  0  0
 32 31  1  0  0  0  0
 33 30  1  1  0  0  0
 33 32  1  0  0  0  0
 33 31  1  0  0  0  0
 34 32  1  0  0  0  0
 35 34  1  0  0  0  0
 36 35  1  0  0  0  0
M  END
>  <MODEL>
8

>  <REMARK>
 VINA RESULT:      -6.2      2.631      9.147
  Name = 
  6 active torsions:
  status: ('A' for Active; 'I' for Inactive)
    1  A    between atoms: C_1  and  C_11
    2  A    between atoms: C_11  and  N_23
    3  A    between atoms: C_16  and  C_22
    4  A    between atoms: C_21  and  C_35
    5  A    between atoms: C_26  and  C_32
    6  A    between atoms: C_30  and  C_32
                            x       y       z     vdW  Elec       q    Type
                         _______ _______ _______ _____ _____    ______ ____

>  <TORSDO>
F 6

$$$$
=
 OpenBabel11042418003D

 36 40  0  0  1  0  0  0  0  0999 V2000
  189.9640  173.9540  144.9550 C   0  0  1  0  0  3  0  0  0  0  0  0
  194.6500  173.7430  145.2290 C   0  0  0  0  0  3  0  0  0  0  0  0
  193.4870  171.4120  143.5460 N   0  0  0  0  0  0  0  0  0  0  0  0
  197.3220  168.4820  146.3510 C   0  0  0  0  0  1  0  0  0  0  0  0
  188.4990  176.0630  144.7620 C   0  0  0  0  0  2  0  0  0  0  0  0
  190.3110  173.1260  143.7280 C   0  0  0  0  0  2  0  0  0  0  0  0
  194.8360  172.4220  145.3090 C   0  0  0  0  0  0  0  0  0  0  0  0
  191.3820  172.2570  144.0550 O   0  0  0  0  0  0  0  0  0  0  0  0
  197.2630  169.9310  146.2690 N   0  0  0  0  0  2  0  0  0  0  0  0
  193.8130  171.3810  144.9670 C   0  0  2  0  0  3  0  0  0  0  0  0
  192.3200  174.4200  145.8180 C   0  0  0  0  0  2  0  0  0  0  0  0
  196.0730  171.9060  145.7690 N   0  0  0  0  0  0  0  0  0  0  0  0
  191.0510  175.0230  145.2300 C   0  0  2  0  0  3  0  0  0  0  0  0
  196.0900  170.6210  145.8370 C   0  0  0  0  0  0  0  0  0  0  0  0
  188.5400  174.5300  144.7980 C   0  0  0  0  0  2  0  0  0  0  0  0
  190.5330  176.1120  146.1250 C   0  0  0  0  0  3  0  0  0  0  0  0
  189.3150  176.6170  145.8930 C   0  0  0  0  0  0  0  0  0  0  0  0
  194.5790  169.7720  145.3670 S   0  0  0  0  0  0  0  0  0  0  0  0
  193.3960  174.3990  144.7450 C   0  0  0  0  0  2  0  0  0  0  0  0
  192.3340  171.8350  143.1240 C   0  0  0  0  0  0  0  0  0  0  0  0
  191.4750  170.8710  141.0320 C   0  0  0  0  0  3  0  0  0  0  0  0
  192.0420  171.8860  141.6810 C   0  0  0  0  0  3  0  0  0  0  0  0
  190.5580  171.0820  136.8640 C   0  0  0  0  0  0  0  0  0  0  0  0
  191.9880  170.2820  138.6460 C   0  0  0  0  0  3  0  0  0  0  0  0
  189.7430  171.7190  137.8050 C   0  0  0  0  0  3  0  0  0  0  0  0
  190.0500  171.6380  139.1660 C   0  0  0  0  0  3  0  0  0  0  0  0
  191.1730  170.9220  139.5950 C   0  0  0  0  0  0  0  0  0  0  0  0
  190.2370  171.1750  135.4150 C   0  0  0  0  0  1  0  0  0  0  0  0
  191.6810  170.3630  137.2850 C   0  0  0  0  0  3  0  0  0  0  0  0
  188.7590  177.7020  146.7560 C   0  0  0  0  0  2  0  0  0  0  0  0
  186.7570  178.5210  147.8810 C   0  0  0  0  0  2  0  0  0  0  0  0
  186.4730  178.4600  146.4400 N   0  0  0  0  0  0  0  0  0  0  0  0
  187.3010  177.4300  147.0830 C   0  0  1  0  0  3  0  0  0  0  0  0
  185.1440  177.8880  146.2950 C   0  0  0  0  0  2  0  0  0  0  0  0
  184.4270  178.5310  145.1220 C   0  0  0  0  0  2  0  0  0  0  0  0
  185.3070  179.5900  144.4760 C   0  0  0  0  0  1  0  0  0  0  0  0
  1  6  1  6  0  0  0
  1 13  1  0  0  0  0
  2  7  2  0  0  0  0
  5 15  1  0  0  0  0
  5 17  1  0  0  0  0
  6  8  1  0  0  0  0
  7 12  1  0  0  0  0
  9  4  1  0  0  0  0
 10  3  1  6  0  0  0
 10  7  1  0  0  0  0
 10 18  1  0  0  0  0
 12 14  2  0  0  0  0
 13 11  1  1  0  0  0
 13 16  1  0  0  0  0
 14  9  1  0  0  0  0
 15  1  1  0  0  0  0
 17 16  2  0  0  0  0
 17 30  1  0  0  0  0
 18 14  1  0  0  0  0
 19  2  1  0  0  0  0
 19 11  1  0  0  0  0
 20  3  2  0  0  0  0
 20  8  1  0  0  0  0
 21 22  2  0  0  0  0
 22 20  1  0  0  0  0
 23 29  2  0  0  0  0
 23 25  1  0  0  0  0
 24 27  2  0  0  0  0
 25 26  2  0  0  0  0
 26 27  1  0  0  0  0
 27 21  1  0  0  0  0
 28 23  1  0  0  0  0
 29 24  1  0  0  0  0
 32 33  1  0  0  0  0
 32 31  1  0  0  0  0
 33 30  1  6  0  0  0
 33 31  1  0  0  0  0
 34 32  1  0  0  0  0
 35 34  1  0  0  0  0
 36 35  1  0  0  0  0
M  END
>  <MODEL>
9

>  <REMARK>
 VINA RESULT:      -6.1      2.354      6.345
  Name = 
  6 active torsions:
  status: ('A' for Active; 'I' for Inactive)
    1  A    between atoms: C_1  and  C_11
    2  A    between atoms: C_11  and  N_23
    3  A    between atoms: C_16  and  C_22
    4  A    between atoms: C_21  and  C_35
    5  A    between atoms: C_26  and  C_32
    6  A    between atoms: C_30  and  C_32
                            x       y       z     vdW  Elec       q    Type
                         _______ _______ _______ _____ _____    ______ ____

>  <TORSDO>
F 6

$$$$
