=
 OpenBabel11042414203D

 27 30  0  0  0  0  0  0  0  0999 V2000
  186.6240  177.3360  146.2090 C   0  0  0  0  0  0  0  0  0  0  0  0
  186.0090  177.7110  147.4080 C   0  0  0  0  0  3  0  0  0  0  0  0
  184.1500  178.5350  142.5000 C   0  0  0  0  0  3  0  0  0  0  0  0
  186.0070  177.6230  144.9640 C   0  0  0  0  0  0  0  0  0  0  0  0
  187.1120  176.9000  141.4150 C   0  0  0  0  0  0  0  0  0  0  0  0
  184.1690  178.6590  146.1900 C   0  0  0  0  0  3  0  0  0  0  0  0
  188.4240  176.1940  141.4670 C   0  0  0  0  0  1  0  0  0  0  0  0
  186.7110  177.2030  143.8300 C   0  0  0  0  0  3  0  0  0  0  0  0
  186.3770  177.3350  142.4970 C   0  0  0  0  0  0  0  0  0  0  0  0
  185.2210  177.9350  141.8840 C   0  0  0  0  0  0  0  0  0  0  0  0
  183.9640  178.6840  143.8670 C   0  0  0  0  0  3  0  0  0  0  0  0
  184.7870  178.3700  147.4000 C   0  0  0  0  0  3  0  0  0  0  0  0
  184.7450  178.3040  144.9650 C   0  0  0  0  0  0  0  0  0  0  0  0
  186.4750  177.2010  140.2660 N   0  0  0  0  0  0  0  0  0  0  0  0
  185.3380  177.8240  140.5470 N   0  0  0  0  0  0  0  0  0  0  0  0
  188.9850  177.2780  146.4340 N   0  0  0  0  0  0  0  0  0  0  0  0
  187.8890  176.6560  146.2480 N   0  0  0  0  0  0  0  0  0  0  0  0
  191.7840  175.0450  147.5270 C   0  0  0  0  0  3  0  0  0  0  0  0
  192.7090  175.2650  146.5020 C   0  0  0  0  0  0  0  0  0  0  0  0
  190.2380  176.5930  146.4710 C   0  0  0  0  0  0  0  0  0  0  0  0
  192.4020  176.1550  145.4620 C   0  0  0  0  0  0  0  0  0  0  0  0
  193.8980  174.6130  146.5260 F   0  0  0  0  0  0  0  0  0  0  0  0
  191.1660  176.8090  145.4480 C   0  0  0  0  0  3  0  0  0  0  0  0
  190.5540  175.7070  147.5140 C   0  0  0  0  0  3  0  0  0  0  0  0
  193.3650  176.3840  144.3460 C   0  0  0  0  0  2  0  0  0  0  0  0
  194.5010  177.0320  144.8300 O   0  0  0  0  0  0  0  0  0  0  0  0
  195.5630  176.4120  144.1730 C   0  0  0  0  0  1  0  0  0  0  0  0
  1 17  1  0  0  0  0
  1  2  1  0  0  0  0
  3 11  2  0  0  0  0
  4 13  1  0  0  0  0
  4  1  2  0  0  0  0
  5  7  1  0  0  0  0
  5  9  1  0  0  0  0
  6 12  1  0  0  0  0
  8  4  1  0  0  0  0
  9  8  2  0  0  0  0
 10  9  1  0  0  0  0
 10  3  1  0  0  0  0
 11 13  1  0  0  0  0
 12  2  2  0  0  0  0
 13  6  2  0  0  0  0
 14 15  1  0  0  0  0
 14  5  2  0  0  0  0
 15 10  2  0  0  0  0
 16 20  1  0  0  0  0
 17 16  2  0  0  0  0
 19 22  1  0  0  0  0
 19 18  2  0  0  0  0
 20 24  2  0  0  0  0
 21 19  1  0  0  0  0
 23 21  2  0  0  0  0
 23 20  1  0  0  0  0
 24 18  1  0  0  0  0
 25 26  1  0  0  0  0
 25 21  1  0  0  0  0
 27 26  1  0  0  0  0
M  END
>  <MODEL>
1

>  <REMARK>
 VINA RESULT:      -8.4      0.000      0.000
  Name = 
  4 active torsions:
  status: ('A' for Active; 'I' for Inactive)
    1  A    between atoms: N_2  and  C_13
    2  A    between atoms: C_3  and  N_9
    3  A    between atoms: C_16  and  C_21
    4  A    between atoms: C_21  and  O_22
                            x       y       z     vdW  Elec       q    Type
                         _______ _______ _______ _____ _____    ______ ____

>  <TORSDO>
F 4

$$$$
=
 OpenBabel11042414203D

 27 30  0  0  0  0  0  0  0  0999 V2000
  186.7050  177.0740  146.1700 C   0  0  0  0  0  0  0  0  0  0  0  0
  186.2290  177.4070  147.4430 C   0  0  0  0  0  3  0  0  0  0  0  0
  184.0330  178.7410  142.7940 C   0  0  0  0  0  3  0  0  0  0  0  0
  186.0090  177.5020  145.0100 C   0  0  0  0  0  0  0  0  0  0  0  0
  186.7380  176.9580  141.3330 C   0  0  0  0  0  0  0  0  0  0  0  0
  184.3810  178.5880  146.4660 C   0  0  0  0  0  3  0  0  0  0  0  0
  187.9830  176.1480  141.2170 C   0  0  0  0  0  1  0  0  0  0  0  0
  186.5740  177.1120  143.7900 C   0  0  0  0  0  3  0  0  0  0  0  0
  186.1400  177.3700  142.5050 C   0  0  0  0  0  0  0  0  0  0  0  0
  184.9920  178.1050  142.0420 C   0  0  0  0  0  0  0  0  0  0  0  0
  183.9800  178.8020  144.1790 C   0  0  0  0  0  3  0  0  0  0  0  0
  185.0730  178.1600  147.5920 C   0  0  0  0  0  3  0  0  0  0  0  0
  184.8160  178.2800  145.1720 C   0  0  0  0  0  0  0  0  0  0  0  0
  186.0330  177.3950  140.2700 N   0  0  0  0  0  0  0  0  0  0  0  0
  184.9830  178.0850  140.6960 N   0  0  0  0  0  0  0  0  0  0  0  0
  189.0400  176.7380  146.4130 N   0  0  0  0  0  0  0  0  0  0  0  0
  187.9040  176.2930  146.0470 N   0  0  0  0  0  0  0  0  0  0  0  0
  192.5500  175.5080  146.8430 C   0  0  0  0  0  3  0  0  0  0  0  0
  192.5360  174.3830  146.0130 C   0  0  0  0  0  0  0  0  0  0  0  0
  190.2280  175.9540  146.2870 C   0  0  0  0  0  0  0  0  0  0  0  0
  191.3680  174.0450  145.3140 C   0  0  0  0  0  0  0  0  0  0  0  0
  193.6570  173.6300  145.8940 F   0  0  0  0  0  0  0  0  0  0  0  0
  190.2180  174.8280  145.4590 C   0  0  0  0  0  3  0  0  0  0  0  0
  191.4020  176.2930  146.9800 C   0  0  0  0  0  3  0  0  0  0  0  0
  191.3250  172.8350  144.4440 C   0  0  0  0  0  2  0  0  0  0  0  0
  190.0770  172.2220  144.5500 O   0  0  0  0  0  0  0  0  0  0  0  0
  189.7470  171.8720  143.2420 C   0  0  0  0  0  1  0  0  0  0  0  0
  1  2  1  0  0  0  0
  2 12  2  0  0  0  0
  3 11  2  0  0  0  0
  4 13  1  0  0  0  0
  4  1  2  0  0  0  0
  5  9  1  0  0  0  0
  6 12  1  0  0  0  0
  7  5  1  0  0  0  0
  8  4  1  0  0  0  0
  9  8  2  0  0  0  0
 10  9  1  0  0  0  0
 10  3  1  0  0  0  0
 11 13  1  0  0  0  0
 13  6  2  0  0  0  0
 14 15  1  0  0  0  0
 14  5  2  0  0  0  0
 15 10  2  0  0  0  0
 17  1  1  0  0  0  0
 17 16  2  0  0  0  0
 18 24  1  0  0  0  0
 19 18  2  0  0  0  0
 20 16  1  0  0  0  0
 20 24  2  0  0  0  0
 21 23  2  0  0  0  0
 21 19  1  0  0  0  0
 22 19  1  0  0  0  0
 23 20  1  0  0  0  0
 25 26  1  0  0  0  0
 25 21  1  0  0  0  0
 27 26  1  0  0  0  0
M  END
>  <MODEL>
2

>  <REMARK>
 VINA RESULT:      -8.2      1.867      2.220
  Name = 
  4 active torsions:
  status: ('A' for Active; 'I' for Inactive)
    1  A    between atoms: N_2  and  C_13
    2  A    between atoms: C_3  and  N_9
    3  A    between atoms: C_16  and  C_21
    4  A    between atoms: C_21  and  O_22
                            x       y       z     vdW  Elec       q    Type
                         _______ _______ _______ _____ _____    ______ ____

>  <TORSDO>
F 4

$$$$
=
 OpenBabel11042414203D

 27 30  0  0  0  0  0  0  0  0999 V2000
  187.5330  177.5220  145.8200 C   0  0  0  0  0  0  0  0  0  0  0  0
  187.4640  177.7280  147.2020 C   0  0  0  0  0  3  0  0  0  0  0  0
  183.6920  178.8660  143.6390 C   0  0  0  0  0  3  0  0  0  0  0  0
  186.4410  177.8770  144.9860 C   0  0  0  0  0  0  0  0  0  0  0  0
  185.9820  177.5940  141.2380 C   0  0  0  0  0  0  0  0  0  0  0  0
  185.2520  178.6340  146.9770 C   0  0  0  0  0  3  0  0  0  0  0  0
  187.2190  176.9980  140.6580 C   0  0  0  0  0  1  0  0  0  0  0  0
  186.6190  177.6280  143.6200 C   0  0  0  0  0  3  0  0  0  0  0  0
  185.7540  177.8600  142.5710 C   0  0  0  0  0  0  0  0  0  0  0  0
  184.4270  178.4190  142.5670 C   0  0  0  0  0  0  0  0  0  0  0  0
  184.0920  178.8660  144.9680 C   0  0  0  0  0  3  0  0  0  0  0  0
  186.3290  178.2800  147.7800 C   0  0  0  0  0  3  0  0  0  0  0  0
  185.2740  178.4470  145.5900 C   0  0  0  0  0  0  0  0  0  0  0  0
  184.9120  177.9520  140.4990 N   0  0  0  0  0  0  0  0  0  0  0  0
  183.9770  178.4480  141.2990 N   0  0  0  0  0  0  0  0  0  0  0  0
  189.8350  177.5660  145.2490 N   0  0  0  0  0  0  0  0  0  0  0  0
  188.7210  176.9490  145.2510 N   0  0  0  0  0  0  0  0  0  0  0  0
  192.5450  176.6810  142.8220 C   0  0  0  0  0  3  0  0  0  0  0  0
  193.3320  175.8330  143.6060 C   0  0  0  0  0  0  0  0  0  0  0  0
  191.0110  176.9870  144.6800 C   0  0  0  0  0  0  0  0  0  0  0  0
  192.9560  175.5560  144.9290 C   0  0  0  0  0  0  0  0  0  0  0  0
  194.4530  175.2860  143.0760 F   0  0  0  0  0  0  0  0  0  0  0  0
  191.8020  176.1390  145.4620 C   0  0  0  0  0  3  0  0  0  0  0  0
  191.3880  177.2560  143.3540 C   0  0  0  0  0  3  0  0  0  0  0  0
  193.7950  174.6730  145.7900 C   0  0  0  0  0  2  0  0  0  0  0  0
  194.9500  175.3520  146.1750 O   0  0  0  0  0  0  0  0  0  0  0  0
  195.9850  174.4520  145.9250 C   0  0  0  0  0  1  0  0  0  0  0  0
  1  2  1  0  0  0  0
  2 12  2  0  0  0  0
  3 11  2  0  0  0  0
  4 13  1  0  0  0  0
  4  1  2  0  0  0  0
  5  9  1  0  0  0  0
  6 12  1  0  0  0  0
  7  5  1  0  0  0  0
  8  4  1  0  0  0  0
  9  8  2  0  0  0  0
 10  9  1  0  0  0  0
 10  3  1  0  0  0  0
 11 13  1  0  0  0  0
 13  6  2  0  0  0  0
 14  5  2  0  0  0  0
 14 15  1  0  0  0  0
 15 10  2  0  0  0  0
 16 17  2  0  0  0  0
 17  1  1  0  0  0  0
 18 24  2  0  0  0  0
 18 19  1  0  0  0  0
 19 21  2  0  0  0  0
 20 16  1  0  0  0  0
 20 23  2  0  0  0  0
 21 23  1  0  0  0  0
 21 25  1  0  0  0  0
 22 19  1  0  0  0  0
 24 20  1  0  0  0  0
 25 26  1  0  0  0  0
 27 26  1  0  0  0  0
M  END
>  <MODEL>
3

>  <REMARK>
 VINA RESULT:      -8.0      1.472      2.094
  Name = 
  4 active torsions:
  status: ('A' for Active; 'I' for Inactive)
    1  A    between atoms: N_2  and  C_13
    2  A    between atoms: C_3  and  N_9
    3  A    between atoms: C_16  and  C_21
    4  A    between atoms: C_21  and  O_22
                            x       y       z     vdW  Elec       q    Type
                         _______ _______ _______ _____ _____    ______ ____

>  <TORSDO>
F 4

$$$$
=
 OpenBabel11042414203D

 27 30  0  0  0  0  0  0  0  0999 V2000
  188.0180  176.8930  142.6510 C   0  0  0  0  0  0  0  0  0  0  0  0
  188.1710  176.6990  141.2740 C   0  0  0  0  0  3  0  0  0  0  0  0
  183.8900  178.6510  143.7380 C   0  0  0  0  0  3  0  0  0  0  0  0
  186.8100  177.4270  143.1700 C   0  0  0  0  0  0  0  0  0  0  0  0
  185.7560  178.1900  146.7270 C   0  0  0  0  0  0  0  0  0  0  0  0
  185.9590  177.5470  140.8870 C   0  0  0  0  0  3  0  0  0  0  0  0
  186.8800  177.8280  147.6360 C   0  0  0  0  0  1  0  0  0  0  0  0
  186.7660  177.5780  144.5610 C   0  0  0  0  0  3  0  0  0  0  0  0
  185.7450  178.0620  145.3540 C   0  0  0  0  0  0  0  0  0  0  0  0
  184.4400  178.5510  144.9930 C   0  0  0  0  0  0  0  0  0  0  0  0
  184.4970  178.2940  142.5420 C   0  0  0  0  0  3  0  0  0  0  0  0
  187.1480  177.0240  140.3950 C   0  0  0  0  0  3  0  0  0  0  0  0
  185.7580  177.7600  142.2550 C   0  0  0  0  0  0  0  0  0  0  0  0
  184.5850  178.7010  147.1580 N   0  0  0  0  0  0  0  0  0  0  0  0
  183.7930  178.9180  146.1150 N   0  0  0  0  0  0  0  0  0  0  0  0
  190.2590  177.0460  143.4120 N   0  0  0  0  0  0  0  0  0  0  0  0
  189.0940  176.5460  143.5370 N   0  0  0  0  0  0  0  0  0  0  0  0
  192.1770  176.2740  146.5340 C   0  0  0  0  0  3  0  0  0  0  0  0
  193.4400  175.9970  146.0020 C   0  0  0  0  0  0  0  0  0  0  0  0
  191.3230  176.6960  144.2990 C   0  0  0  0  0  0  0  0  0  0  0  0
  193.6480  176.0750  144.6180 C   0  0  0  0  0  0  0  0  0  0  0  0
  194.4530  175.6560  146.8370 F   0  0  0  0  0  0  0  0  0  0  0  0
  192.5880  176.4170  143.7720 C   0  0  0  0  0  3  0  0  0  0  0  0
  191.1220  176.6230  145.6870 C   0  0  0  0  0  3  0  0  0  0  0  0
  194.9820  175.7600  144.0290 C   0  0  0  0  0  2  0  0  0  0  0  0
  195.8550  176.8260  144.2420 O   0  0  0  0  0  0  0  0  0  0  0  0
  196.7270  176.7860  143.1560 C   0  0  0  0  0  1  0  0  0  0  0  0
  1  4  1  0  0  0  0
  1 17  1  0  0  0  0
  2  1  2  0  0  0  0
  3 10  1  0  0  0  0
  4  8  1  0  0  0  0
  5 14  2  0  0  0  0
  5  7  1  0  0  0  0
  6 13  1  0  0  0  0
  8  9  2  0  0  0  0
  9  5  1  0  0  0  0
 10  9  1  0  0  0  0
 10 15  2  0  0  0  0
 11  3  2  0  0  0  0
 12  6  2  0  0  0  0
 12  2  1  0  0  0  0
 13 11  1  0  0  0  0
 13  4  2  0  0  0  0
 15 14  1  0  0  0  0
 16 17  2  0  0  0  0
 16 20  1  0  0  0  0
 19 18  1  0  0  0  0
 19 22  1  0  0  0  0
 20 24  1  0  0  0  0
 21 19  2  0  0  0  0
 23 20  2  0  0  0  0
 23 21  1  0  0  0  0
 24 18  2  0  0  0  0
 25 26  1  0  0  0  0
 25 21  1  0  0  0  0
 27 26  1  0  0  0  0
M  END
>  <MODEL>
4

>  <REMARK>
 VINA RESULT:      -7.7      1.774      3.836
  Name = 
  4 active torsions:
  status: ('A' for Active; 'I' for Inactive)
    1  A    between atoms: N_2  and  C_13
    2  A    between atoms: C_3  and  N_9
    3  A    between atoms: C_16  and  C_21
    4  A    between atoms: C_21  and  O_22
                            x       y       z     vdW  Elec       q    Type
                         _______ _______ _______ _____ _____    ______ ____

>  <TORSDO>
F 4

$$$$
=
 OpenBabel11042414203D

 27 30  0  0  0  0  0  0  0  0999 V2000
  187.6050  177.1270  142.1160 C   0  0  0  0  0  0  0  0  0  0  0  0
  187.5520  177.1120  140.7180 C   0  0  0  0  0  3  0  0  0  0  0  0
  183.7010  178.7030  144.0130 C   0  0  0  0  0  3  0  0  0  0  0  0
  186.4920  177.5810  142.8710 C   0  0  0  0  0  0  0  0  0  0  0  0
  185.9790  177.8750  146.6110 C   0  0  0  0  0  0  0  0  0  0  0  0
  185.3180  177.9880  140.7720 C   0  0  0  0  0  3  0  0  0  0  0  0
  187.2190  177.4060  147.2930 C   0  0  0  0  0  1  0  0  0  0  0  0
  186.6540  177.5530  144.2610 C   0  0  0  0  0  3  0  0  0  0  0  0
  185.7660  177.9240  145.2500 C   0  0  0  0  0  0  0  0  0  0  0  0
  184.4280  178.4470  145.1500 C   0  0  0  0  0  0  0  0  0  0  0  0
  184.1220  178.5060  142.7050 C   0  0  0  0  0  3  0  0  0  0  0  0
  186.4160  177.5410  140.0470 C   0  0  0  0  0  3  0  0  0  0  0  0
  185.3220  178.0220  142.1700 C   0  0  0  0  0  0  0  0  0  0  0  0
  184.8900  178.3180  147.2710 N   0  0  0  0  0  0  0  0  0  0  0  0
  183.9570  178.6620  146.3930 N   0  0  0  0  0  0  0  0  0  0  0  0
  189.7390  177.4740  143.0910 N   0  0  0  0  0  0  0  0  0  0  0  0
  188.7940  176.6770  142.7830 N   0  0  0  0  0  0  0  0  0  0  0  0
  193.2720  176.4150  143.7340 C   0  0  0  0  0  3  0  0  0  0  0  0
  193.2120  176.1220  145.1000 C   0  0  0  0  0  0  0  0  0  0  0  0
  190.9180  177.0170  143.7550 C   0  0  0  0  0  0  0  0  0  0  0  0
  192.0030  176.2700  145.7940 C   0  0  0  0  0  0  0  0  0  0  0  0
  194.3290  175.6940  145.7380 F   0  0  0  0  0  0  0  0  0  0  0  0
  190.8640  176.7230  145.1210 C   0  0  0  0  0  3  0  0  0  0  0  0
  192.1300  176.8590  143.0620 C   0  0  0  0  0  3  0  0  0  0  0  0
  191.9240  175.9860  147.2560 C   0  0  0  0  0  2  0  0  0  0  0  0
  190.9170  176.7590  147.8330 O   0  0  0  0  0  0  0  0  0  0  0  0
  191.5720  177.5300  148.7910 C   0  0  0  0  0  1  0  0  0  0  0  0
  1 17  1  0  0  0  0
  1  4  1  0  0  0  0
  2  1  2  0  0  0  0
  3 10  1  0  0  0  0
  4  8  1  0  0  0  0
  5 14  2  0  0  0  0
  5  7  1  0  0  0  0
  6 13  1  0  0  0  0
  8  9  2  0  0  0  0
  9  5  1  0  0  0  0
 10  9  1  0  0  0  0
 10 15  2  0  0  0  0
 11  3  2  0  0  0  0
 12  2  1  0  0  0  0
 12  6  2  0  0  0  0
 13 11  1  0  0  0  0
 13  4  2  0  0  0  0
 15 14  1  0  0  0  0
 16 20  1  0  0  0  0
 17 16  2  0  0  0  0
 18 19  1  0  0  0  0
 19 22  1  0  0  0  0
 19 21  2  0  0  0  0
 20 23  2  0  0  0  0
 21 25  1  0  0  0  0
 23 21  1  0  0  0  0
 24 18  2  0  0  0  0
 24 20  1  0  0  0  0
 25 26  1  0  0  0  0
 26 27  1  0  0  0  0
M  END
>  <MODEL>
5

>  <REMARK>
 VINA RESULT:      -7.6      1.960      4.294
  Name = 
  4 active torsions:
  status: ('A' for Active; 'I' for Inactive)
    1  A    between atoms: N_2  and  C_13
    2  A    between atoms: C_3  and  N_9
    3  A    between atoms: C_16  and  C_21
    4  A    between atoms: C_21  and  O_22
                            x       y       z     vdW  Elec       q    Type
                         _______ _______ _______ _____ _____    ______ ____

>  <TORSDO>
F 4

$$$$
=
 OpenBabel11042414203D

 27 30  0  0  0  0  0  0  0  0999 V2000
  187.3440  177.5000  141.9370 C   0  0  0  0  0  0  0  0  0  0  0  0
  186.8960  177.5710  140.6140 C   0  0  0  0  0  3  0  0  0  0  0  0
  184.0910  178.7360  144.9720 C   0  0  0  0  0  3  0  0  0  0  0  0
  186.4770  177.8440  143.0080 C   0  0  0  0  0  0  0  0  0  0  0  0
  187.0420  177.8710  146.7520 C   0  0  0  0  0  0  0  0  0  0  0  0
  184.7400  178.3180  141.3620 C   0  0  0  0  0  3  0  0  0  0  0  0
  188.4400  177.4280  147.0190 C   0  0  0  0  0  1  0  0  0  0  0  0
  187.0290  177.7360  144.2890 C   0  0  0  0  0  3  0  0  0  0  0  0
  186.4480  177.9950  145.5140 C   0  0  0  0  0  0  0  0  0  0  0  0
  185.1200  178.4480  145.8360 C   0  0  0  0  0  0  0  0  0  0  0  0
  184.1280  178.6460  143.5880 C   0  0  0  0  0  3  0  0  0  0  0  0
  185.6010  177.9780  140.3260 C   0  0  0  0  0  3  0  0  0  0  0  0
  185.1420  178.2630  142.7010 C   0  0  0  0  0  0  0  0  0  0  0  0
  186.1720  178.2110  147.7240 N   0  0  0  0  0  0  0  0  0  0  0  0
  185.0160  178.5580  147.1730 N   0  0  0  0  0  0  0  0  0  0  0  0
  189.0330  175.8490  142.1500 N   0  0  0  0  0  0  0  0  0  0  0  0
  188.6890  177.0740  142.2050 N   0  0  0  0  0  0  0  0  0  0  0  0
  192.2350  173.9080  142.0870 C   0  0  0  0  0  3  0  0  0  0  0  0
  193.0150  174.6630  142.9680 C   0  0  0  0  0  0  0  0  0  0  0  0
  190.3750  175.4350  142.4170 C   0  0  0  0  0  0  0  0  0  0  0  0
  192.4740  175.8030  143.5800 C   0  0  0  0  0  0  0  0  0  0  0  0
  194.2910  174.2810  143.2220 F   0  0  0  0  0  0  0  0  0  0  0  0
  191.1590  176.1870  143.2970 C   0  0  0  0  0  3  0  0  0  0  0  0
  190.9190  174.2910  141.8130 C   0  0  0  0  0  3  0  0  0  0  0  0
  193.2970  176.6350  144.5040 C   0  0  0  0  0  2  0  0  0  0  0  0
  193.0120  176.2960  145.8260 O   0  0  0  0  0  0  0  0  0  0  0  0
  194.2540  176.0060  146.3880 C   0  0  0  0  0  1  0  0  0  0  0  0
  1 17  1  0  0  0  0
  1  4  1  0  0  0  0
  2  1  2  0  0  0  0
  3 10  1  0  0  0  0
  4  8  1  0  0  0  0
  5  7  1  0  0  0  0
  5 14  2  0  0  0  0
  6 13  1  0  0  0  0
  8  9  2  0  0  0  0
  9 10  1  0  0  0  0
  9  5  1  0  0  0  0
 10 15  2  0  0  0  0
 11  3  2  0  0  0  0
 12  2  1  0  0  0  0
 12  6  2  0  0  0  0
 13  4  2  0  0  0  0
 13 11  1  0  0  0  0
 15 14  1  0  0  0  0
 16 17  2  0  0  0  0
 16 20  1  0  0  0  0
 18 19  1  0  0  0  0
 19 22  1  0  0  0  0
 19 21  2  0  0  0  0
 20 23  2  0  0  0  0
 21 25  1  0  0  0  0
 23 21  1  0  0  0  0
 24 18  2  0  0  0  0
 24 20  1  0  0  0  0
 25 26  1  0  0  0  0
 26 27  1  0  0  0  0
M  END
>  <MODEL>
6

>  <REMARK>
 VINA RESULT:      -7.6      2.039      4.345
  Name = 
  4 active torsions:
  status: ('A' for Active; 'I' for Inactive)
    1  A    between atoms: N_2  and  C_13
    2  A    between atoms: C_3  and  N_9
    3  A    between atoms: C_16  and  C_21
    4  A    between atoms: C_21  and  O_22
                            x       y       z     vdW  Elec       q    Type
                         _______ _______ _______ _____ _____    ______ ____

>  <TORSDO>
F 4

$$$$
=
 OpenBabel11042414203D

 27 30  0  0  0  0  0  0  0  0999 V2000
  190.6200  175.8460  145.6930 C   0  0  0  0  0  0  0  0  0  0  0  0
  191.4730  176.4090  146.6480 C   0  0  0  0  0  3  0  0  0  0  0  0
  192.4750  172.1580  143.6230 C   0  0  0  0  0  3  0  0  0  0  0  0
  191.0240  174.7020  144.9550 C   0  0  0  0  0  0  0  0  0  0  0  0
  189.2360  172.7150  142.2730 C   0  0  0  0  0  0  0  0  0  0  0  0
  193.1350  174.7420  146.1760 C   0  0  0  0  0  3  0  0  0  0  0  0
  187.8990  173.3330  142.0440 C   0  0  0  0  0  1  0  0  0  0  0  0
  190.0930  174.2230  144.0270 C   0  0  0  0  0  3  0  0  0  0  0  0
  190.1890  173.1440  143.1710 C   0  0  0  0  0  0  0  0  0  0  0  0
  191.2620  172.2030  142.9800 C   0  0  0  0  0  0  0  0  0  0  0  0
  192.9170  173.0310  144.6080 C   0  0  0  0  0  3  0  0  0  0  0  0
  192.7250  175.8610  146.8900 C   0  0  0  0  0  3  0  0  0  0  0  0
  192.3190  174.1430  145.2110 C   0  0  0  0  0  0  0  0  0  0  0  0
  189.6770  171.6300  141.6050 N   0  0  0  0  0  0  0  0  0  0  0  0
  190.8960  171.3220  142.0300 N   0  0  0  0  0  0  0  0  0  0  0  0
  188.5190  176.6750  146.4170 N   0  0  0  0  0  0  0  0  0  0  0  0
  189.3290  176.4330  145.4640 N   0  0  0  0  0  0  0  0  0  0  0  0
  184.9380  177.6820  146.8380 C   0  0  0  0  0  3  0  0  0  0  0  0
  184.7390  178.4330  145.6760 C   0  0  0  0  0  0  0  0  0  0  0  0
  187.2370  177.2610  146.1790 C   0  0  0  0  0  0  0  0  0  0  0  0
  185.7880  178.5930  144.7590 C   0  0  0  0  0  0  0  0  0  0  0  0
  183.5280  178.9980  145.4470 F   0  0  0  0  0  0  0  0  0  0  0  0
  187.0340  178.0120  145.0180 C   0  0  0  0  0  3  0  0  0  0  0  0
  186.1810  177.0970  147.0900 C   0  0  0  0  0  3  0  0  0  0  0  0
  185.6040  179.4100  143.5260 C   0  0  0  0  0  2  0  0  0  0  0  0
  185.9690  178.6630  142.4060 O   0  0  0  0  0  0  0  0  0  0  0  0
  184.7910  178.0340  142.0070 C   0  0  0  0  0  1  0  0  0  0  0  0
  1  2  1  0  0  0  0
  2 12  2  0  0  0  0
  3 11  2  0  0  0  0
  4 13  1  0  0  0  0
  4  1  2  0  0  0  0
  5  9  1  0  0  0  0
  6 12  1  0  0  0  0
  7  5  1  0  0  0  0
  8  4  1  0  0  0  0
  9  8  2  0  0  0  0
 10  9  1  0  0  0  0
 10  3  1  0  0  0  0
 11 13  1  0  0  0  0
 13  6  2  0  0  0  0
 14 15  1  0  0  0  0
 14  5  2  0  0  0  0
 15 10  2  0  0  0  0
 17  1  1  0  0  0  0
 17 16  2  0  0  0  0
 18 24  1  0  0  0  0
 19 18  2  0  0  0  0
 20 16  1  0  0  0  0
 20 24  2  0  0  0  0
 21 23  2  0  0  0  0
 21 19  1  0  0  0  0
 22 19  1  0  0  0  0
 23 20  1  0  0  0  0
 25 21  1  0  0  0  0
 26 25  1  0  0  0  0
 27 26  1  0  0  0  0
M  END
>  <MODEL>
7

>  <REMARK>
 VINA RESULT:      -7.6      3.973      7.343
  Name = 
  4 active torsions:
  status: ('A' for Active; 'I' for Inactive)
    1  A    between atoms: N_2  and  C_13
    2  A    between atoms: C_3  and  N_9
    3  A    between atoms: C_16  and  C_21
    4  A    between atoms: C_21  and  O_22
                            x       y       z     vdW  Elec       q    Type
                         _______ _______ _______ _____ _____    ______ ____

>  <TORSDO>
F 4

$$$$
=
 OpenBabel11042414203D

 27 30  0  0  0  0  0  0  0  0999 V2000
  191.2490  176.0710  145.8300 C   0  0  0  0  0  0  0  0  0  0  0  0
  192.1780  176.4280  146.8130 C   0  0  0  0  0  3  0  0  0  0  0  0
  193.2520  174.2850  142.0730 C   0  0  0  0  0  3  0  0  0  0  0  0
  191.6840  175.5050  144.6040 C   0  0  0  0  0  0  0  0  0  0  0  0
  189.7340  174.3340  141.5750 C   0  0  0  0  0  0  0  0  0  0  0  0
  193.9790  175.6820  145.4130 C   0  0  0  0  0  3  0  0  0  0  0  0
  188.2840  174.5580  141.8360 C   0  0  0  0  0  1  0  0  0  0  0  0
  190.6700  175.1850  143.6930 C   0  0  0  0  0  3  0  0  0  0  0  0
  190.7720  174.6290  142.4340 C   0  0  0  0  0  0  0  0  0  0  0  0
  191.9340  174.2180  141.6910 C   0  0  0  0  0  0  0  0  0  0  0  0
  193.7360  174.7730  143.2790 C   0  0  0  0  0  3  0  0  0  0  0  0
  193.5360  176.2360  146.6070 C   0  0  0  0  0  3  0  0  0  0  0  0
  193.0890  175.3090  144.3990 C   0  0  0  0  0  0  0  0  0  0  0  0
  190.2110  173.8010  140.4320 N   0  0  0  0  0  0  0  0  0  0  0  0
  191.5340  173.7310  140.5010 N   0  0  0  0  0  0  0  0  0  0  0  0
  189.1920  177.2010  145.4820 N   0  0  0  0  0  0  0  0  0  0  0  0
  189.8490  176.2820  146.0710 N   0  0  0  0  0  0  0  0  0  0  0  0
  185.7990  177.0270  147.0540 C   0  0  0  0  0  3  0  0  0  0  0  0
  185.0630  177.8290  146.1770 C   0  0  0  0  0  0  0  0  0  0  0  0
  187.7990  177.4020  145.7280 C   0  0  0  0  0  0  0  0  0  0  0  0
  185.6940  178.4150  145.0700 C   0  0  0  0  0  0  0  0  0  0  0  0
  183.7430  178.0310  146.4090 F   0  0  0  0  0  0  0  0  0  0  0  0
  187.0590  178.2050  144.8540 C   0  0  0  0  0  3  0  0  0  0  0  0
  187.1610  176.8110  146.8310 C   0  0  0  0  0  3  0  0  0  0  0  0
  184.9330  179.2950  144.1370 C   0  0  0  0  0  2  0  0  0  0  0  0
  185.2300  178.9530  142.8190 O   0  0  0  0  0  0  0  0  0  0  0  0
  184.1460  178.1820  142.4040 C   0  0  0  0  0  1  0  0  0  0  0  0
  1 17  1  0  0  0  0
  1  2  1  0  0  0  0
  3 11  2  0  0  0  0
  4  1  2  0  0  0  0
  5  7  1  0  0  0  0
  5  9  1  0  0  0  0
  6 12  1  0  0  0  0
  8  4  1  0  0  0  0
  9  8  2  0  0  0  0
 10  3  1  0  0  0  0
 10  9  1  0  0  0  0
 11 13  1  0  0  0  0
 12  2  2  0  0  0  0
 13  4  1  0  0  0  0
 13  6  2  0  0  0  0
 14 15  1  0  0  0  0
 14  5  2  0  0  0  0
 15 10  2  0  0  0  0
 16 20  1  0  0  0  0
 16 17  2  0  0  0  0
 19 22  1  0  0  0  0
 19 18  2  0  0  0  0
 20 24  2  0  0  0  0
 21 19  1  0  0  0  0
 23 21  2  0  0  0  0
 23 20  1  0  0  0  0
 24 18  1  0  0  0  0
 25 21  1  0  0  0  0
 26 25  1  0  0  0  0
 27 26  1  0  0  0  0
M  END
>  <MODEL>
8

>  <REMARK>
 VINA RESULT:      -7.3      3.560      7.215
  Name = 
  4 active torsions:
  status: ('A' for Active; 'I' for Inactive)
    1  A    between atoms: N_2  and  C_13
    2  A    between atoms: C_3  and  N_9
    3  A    between atoms: C_16  and  C_21
    4  A    between atoms: C_21  and  O_22
                            x       y       z     vdW  Elec       q    Type
                         _______ _______ _______ _____ _____    ______ ____

>  <TORSDO>
F 4

$$$$
=
 OpenBabel11042414203D

 27 30  0  0  0  0  0  0  0  0999 V2000
  187.5030  176.5000  142.1470 C   0  0  0  0  0  0  0  0  0  0  0  0
  187.5780  176.5170  140.7500 C   0  0  0  0  0  3  0  0  0  0  0  0
  183.8580  178.8370  143.7490 C   0  0  0  0  0  3  0  0  0  0  0  0
  186.4460  177.1690  142.8170 C   0  0  0  0  0  0  0  0  0  0  0  0
  185.6630  177.5110  146.5070 C   0  0  0  0  0  0  0  0  0  0  0  0
  185.5800  177.8440  140.6380 C   0  0  0  0  0  3  0  0  0  0  0  0
  186.7100  176.7820  147.2770 C   0  0  0  0  0  1  0  0  0  0  0  0
  186.4690  177.0870  144.2140 C   0  0  0  0  0  3  0  0  0  0  0  0
  185.5910  177.6230  145.1340 C   0  0  0  0  0  0  0  0  0  0  0  0
  184.4070  178.4170  144.9360 C   0  0  0  0  0  0  0  0  0  0  0  0
  184.3470  178.5750  142.4770 C   0  0  0  0  0  3  0  0  0  0  0  0
  186.6220  177.1850  139.9980 C   0  0  0  0  0  3  0  0  0  0  0  0
  185.4630  177.8560  142.0320 C   0  0  0  0  0  0  0  0  0  0  0  0
  184.6350  178.1640  147.0840 N   0  0  0  0  0  0  0  0  0  0  0  0
  183.8790  178.7100  146.1390 N   0  0  0  0  0  0  0  0  0  0  0  0
  189.6030  176.3510  143.2400 N   0  0  0  0  0  0  0  0  0  0  0  0
  188.5060  175.8000  142.9000 N   0  0  0  0  0  0  0  0  0  0  0  0
  192.3480  175.5890  145.6690 C   0  0  0  0  0  3  0  0  0  0  0  0
  192.5270  174.2220  145.4410 C   0  0  0  0  0  0  0  0  0  0  0  0
  190.5950  175.6460  143.9890 C   0  0  0  0  0  0  0  0  0  0  0  0
  191.7430  173.5650  144.4810 C   0  0  0  0  0  0  0  0  0  0  0  0
  193.4610  173.5440  146.1530 F   0  0  0  0  0  0  0  0  0  0  0  0
  190.7770  174.2780  143.7640 C   0  0  0  0  0  3  0  0  0  0  0  0
  191.3870  176.3010  144.9460 C   0  0  0  0  0  3  0  0  0  0  0  0
  191.9020  172.1020  144.2400 C   0  0  0  0  0  2  0  0  0  0  0  0
  190.7720  171.6070  143.5890 O   0  0  0  0  0  0  0  0  0  0  0  0
  191.2790  170.7750  142.5920 C   0  0  0  0  0  1  0  0  0  0  0  0
  1  4  1  0  0  0  0
  1 17  1  0  0  0  0
  2  1  2  0  0  0  0
  3 10  1  0  0  0  0
  4  8  1  0  0  0  0
  5 14  2  0  0  0  0
  5  7  1  0  0  0  0
  6 13  1  0  0  0  0
  8  9  2  0  0  0  0
  9  5  1  0  0  0  0
 10  9  1  0  0  0  0
 10 15  2  0  0  0  0
 11  3  2  0  0  0  0
 12  6  2  0  0  0  0
 12  2  1  0  0  0  0
 13 11  1  0  0  0  0
 13  4  2  0  0  0  0
 15 14  1  0  0  0  0
 16 20  1  0  0  0  0
 17 16  2  0  0  0  0
 19 18  1  0  0  0  0
 19 22  1  0  0  0  0
 20 24  1  0  0  0  0
 21 19  2  0  0  0  0
 23 20  2  0  0  0  0
 23 21  1  0  0  0  0
 24 18  2  0  0  0  0
 25 21  1  0  0  0  0
 26 25  1  0  0  0  0
 27 26  1  0  0  0  0
M  END
>  <MODEL>
9

>  <REMARK>
 VINA RESULT:      -7.3      2.653      4.421
  Name = 
  4 active torsions:
  status: ('A' for Active; 'I' for Inactive)
    1  A    between atoms: N_2  and  C_13
    2  A    between atoms: C_3  and  N_9
    3  A    between atoms: C_16  and  C_21
    4  A    between atoms: C_21  and  O_22
                            x       y       z     vdW  Elec       q    Type
                         _______ _______ _______ _____ _____    ______ ____

>  <TORSDO>
F 4

$$$$
