=
 OpenBabel11042419233D

 42 49  0  0  1  0  0  0  0  0999 V2000
  188.5590  176.6410  146.1210 C   0  0  0  0  0  0  0  0  0  0  0  0
  188.4740  175.4760  144.0160 C   0  0  0  0  0  3  0  0  0  0  0  0
  187.8360  176.1420  145.0490 C   0  0  0  0  0  3  0  0  0  0  0  0
  192.9080  175.1130  143.0620 C   0  0  1  0  0  3  0  0  0  0  0  0
  194.0070  174.3120  144.9020 C   0  0  0  0  0  0  0  0  0  0  0  0
  195.9410  173.1000  143.5120 C   0  0  1  0  0  3  0  0  0  0  0  0
  191.7240  174.5480  142.3910 C   0  0  0  0  0  0  0  0  0  0  0  0
  190.7690  177.0370  147.2770 C   0  0  0  0  0  1  0  0  0  0  0  0
  194.3400  174.1430  146.1060 O   0  0  0  0  0  0  0  0  0  0  0  0
  191.7210  174.0120  141.1780 C   0  0  0  0  0  3  0  0  0  0  0  0
  194.8190  174.1050  143.7090 C   0  0  1  0  0  0  0  0  0  0  0  0
  192.7820  174.8290  144.4770 N   0  0  0  0  0  0  0  0  0  0  0  0
  189.8600  175.2700  143.9870 C   0  0  0  0  0  0  0  0  0  0  0  0
  190.6270  175.7500  145.1170 C   0  0  0  0  0  0  0  0  0  0  0  0
  190.3490  174.6560  142.8720 C   0  0  1  0  0  3  0  0  0  0  0  0
  188.1340  173.8130  141.6630 C   0  0  0  0  0  1  0  0  0  0  0  0
  189.6030  174.0590  141.7410 C   0  0  0  0  0  0  0  0  0  0  0  0
  194.1240  174.5420  142.5670 O   0  0  0  0  0  0  0  0  0  0  0  0
  191.8960  175.5040  145.3230 N   0  0  0  0  0  2  0  0  0  0  0  0
  196.2490  174.5800  143.7740 C   0  0  0  0  0  2  0  0  0  0  0  0
  190.3920  173.6860  140.7880 N   0  0  0  0  0  0  0  0  0  0  0  0
  189.9600  176.4610  146.1530 C   0  0  0  0  0  0  0  0  0  0  0  0
  197.0260  169.8600  146.1330 N   0  0  1  0  0  0  0  0  0  0  0  0
  195.2450  171.0940  144.8260 C   0  0  0  0  0  2  0  0  0  0  0  0
  197.8170  170.3100  144.9840 C   0  0  0  0  0  2  0  0  0  0  0  0
  196.2140  172.2740  144.7610 C   0  0  1  0  0  3  0  0  0  0  0  0
  195.5790  170.2130  146.0340 C   0  0  1  0  0  3  0  0  0  0  0  0
  197.6780  171.8190  144.7790 C   0  0  0  0  0  2  0  0  0  0  0  0
  196.0460  168.9010  145.5990 C   0  0  0  0  0  2  0  0  0  0  0  0
  187.8160  177.3220  147.1460 N   0  0  0  0  0  2  0  0  0  0  0  0
  186.4160  177.3270  147.2370 N   0  0  0  0  0  2  0  0  0  0  0  0
  185.9830  178.7110  147.1250 C   0  0  0  0  0  2  0  0  0  0  0  0
  185.1060  178.8610  145.9340 C   0  0  0  0  0  0  0  0  0  0  0  0
  185.6910  179.0190  144.6410 N   0  0  0  0  0  2  0  0  0  0  0  0
  183.8550  178.8140  146.0690 O   0  0  0  0  0  0  0  0  0  0  0  0
  184.9040  179.0540  143.4800 N   0  0  0  0  0  2  0  0  0  0  0  0
  186.2860  177.6670  140.2600 C   0  0  0  0  0  2  0  0  0  0  0  0
  187.1820  178.4760  142.8200 C   0  0  0  0  0  2  0  0  0  0  0  0
  185.2300  177.9550  141.3270 C   0  0  0  0  0  2  0  0  0  0  0  0
  185.8050  178.9370  142.3440 C   0  0  0  0  0  3  0  0  0  0  0  0
  188.0410  178.1410  141.6010 C   0  0  0  0  0  2  0  0  0  0  0  0
  187.4340  177.1120  140.8570 O   0  0  0  0  0  0  0  0  0  0  0  0
  1 22  1  0  0  0  0
  1 30  1  0  0  0  0
  2  3  1  0  0  0  0
  3  1  2  0  0  0  0
  4  7  1  6  0  0  0
  4 12  1  0  0  0  0
  5  9  2  0  0  0  0
  6 11  1  0  0  0  0
  6 20  1  1  0  0  0
  6 26  1  0  0  0  0
  7 15  1  0  0  0  0
 10  7  2  0  0  0  0
 11 20  1  1  0  0  0
 11  5  1  0  0  0  0
 12  5  1  0  0  0  0
 12 19  1  0  0  0  0
 13  2  2  0  0  0  0
 13 14  1  0  0  0  0
 14 19  1  0  0  0  0
 14 22  2  0  0  0  0
 15 17  1  6  0  0  0
 15 13  1  0  0  0  0
 16 17  1  0  0  0  0
 18  4  1  0  0  0  0
 18 11  1  0  0  0  0
 21 10  1  0  0  0  0
 21 17  2  0  0  0  0
 22  8  1  0  0  0  0
 23 25  1  6  0  0  0
 26 28  1  6  0  0  0
 26 24  1  0  0  0  0
 27 24  1  6  0  0  0
 27 23  1  0  0  0  0
 28 25  1  0  0  0  0
 29 27  1  0  0  0  0
 29 23  1  0  0  0  0
 30 31  1  0  0  0  0
 32 31  1  0  0  0  0
 33 35  2  0  0  0  0
 33 32  1  0  0  0  0
 34 33  1  0  0  0  0
 36 34  1  0  0  0  0
 37 42  1  0  0  0  0
 37 39  1  0  0  0  0
 39 40  1  0  0  0  0
 40 38  1  0  0  0  0
 40 36  1  0  0  0  0
 41 38  1  0  0  0  0
 42 41  1  0  0  0  0
M  END
>  <MODEL>
1

>  <REMARK>
 VINA RESULT:      -8.3      0.000      0.000
  Name = 
  7 active torsions:
  status: ('A' for Active; 'I' for Inactive)
    1  A    between atoms: N_5  and  N_15
    2  A    between atoms: N_5  and  C_25
    3  A    between atoms: C_6  and  C_20
    4  A    between atoms: C_7  and  N_22
    5  A    between atoms: C_11  and  C_14
    6  A    between atoms: C_14  and  N_35
    7  A    between atoms: N_22  and  N_35
                            x       y       z     vdW  Elec       q    Type
                         _______ _______ _______ _____ _____    ______ ____

>  <TORSDO>
F 7

$$$$
=
 OpenBabel11042419233D

 42 49  0  0  1  0  0  0  0  0999 V2000
  192.2030  171.2700  143.9590 C   0  0  0  0  0  0  0  0  0  0  0  0
  193.2230  173.2840  144.7930 C   0  0  0  0  0  3  0  0  0  0  0  0
  193.2220  171.9070  144.6470 C   0  0  0  0  0  3  0  0  0  0  0  0
  190.6570  176.4460  142.7640 C   0  0  1  0  0  3  0  0  0  0  0  0
  188.4500  175.9310  143.0750 C   0  0  0  0  0  0  0  0  0  0  0  0
  187.6030  178.4650  142.9960 C   0  0  1  0  0  3  0  0  0  0  0  0
  191.7160  176.5660  143.7820 C   0  0  0  0  0  0  0  0  0  0  0  0
  190.0680  171.3790  142.6130 C   0  0  0  0  0  1  0  0  0  0  0  0
  187.3900  175.2550  143.1690 O   0  0  0  0  0  0  0  0  0  0  0  0
  192.3180  177.6970  144.1250 C   0  0  0  0  0  3  0  0  0  0  0  0
  188.5870  177.3400  142.7240 C   0  0  1  0  0  0  0  0  0  0  0  0
  189.7400  175.4170  143.2100 N   0  0  0  0  0  0  0  0  0  0  0  0
  192.2170  174.1040  144.2650 C   0  0  0  0  0  0  0  0  0  0  0  0
  191.1230  173.4530  143.5760 C   0  0  0  0  0  0  0  0  0  0  0  0
  192.3910  175.4470  144.4340 C   0  0  1  0  0  3  0  0  0  0  0  0
  194.4130  175.5500  146.1600 C   0  0  0  0  0  1  0  0  0  0  0  0
  193.4320  176.1540  145.2130 C   0  0  0  0  0  0  0  0  0  0  0  0
  189.9450  177.6760  142.5900 O   0  0  0  0  0  0  0  0  0  0  0  0
  190.0330  174.0500  143.1630 N   0  0  0  0  0  2  0  0  0  0  0  0
  187.7180  177.8430  141.5990 C   0  0  0  0  0  2  0  0  0  0  0  0
  193.3750  177.4330  145.0390 N   0  0  0  0  0  0  0  0  0  0  0  0
  191.1560  172.0420  143.4070 C   0  0  0  0  0  0  0  0  0  0  0  0
  184.1050  178.2960  145.5010 N   0  0  1  0  0  0  0  0  0  0  0  0
  186.5780  177.8630  145.1930 C   0  0  0  0  0  2  0  0  0  0  0  0
  184.4520  179.4150  144.6210 C   0  0  0  0  0  2  0  0  0  0  0  0
  186.3360  177.9820  143.6880 C   0  0  1  0  0  3  0  0  0  0  0  0
  185.2780  177.4640  145.8980 C   0  0  1  0  0  3  0  0  0  0  0  0
  185.1700  178.9220  143.3640 C   0  0  0  0  0  2  0  0  0  0  0  0
  184.8140  178.5410  146.7670 C   0  0  0  0  0  2  0  0  0  0  0  0
  192.2840  169.8390  143.8520 N   0  0  0  0  0  2  0  0  0  0  0  0
  193.4830  169.1110  143.8770 N   0  0  0  0  0  2  0  0  0  0  0  0
  193.4890  168.3330  145.1050 C   0  0  0  0  0  2  0  0  0  0  0  0
  194.5950  168.7980  145.9820 C   0  0  0  0  0  0  0  0  0  0  0  0
  195.7140  169.4770  145.4100 N   0  0  0  0  0  2  0  0  0  0  0  0
  194.5230  168.6210  147.2270 O   0  0  0  0  0  0  0  0  0  0  0  0
  196.7250  170.0280  146.2100 N   0  0  0  0  0  2  0  0  0  0  0  0
  197.2110  173.6360  145.2330 C   0  0  0  0  0  2  0  0  0  0  0  0
  196.8450  171.1040  144.0220 C   0  0  0  0  0  2  0  0  0  0  0  0
  196.8170  172.4650  146.1330 C   0  0  0  0  0  2  0  0  0  0  0  0
  197.2790  171.1620  145.4860 C   0  0  0  0  0  3  0  0  0  0  0  0
  197.2420  172.4110  143.3360 C   0  0  0  0  0  2  0  0  0  0  0  0
  196.6070  173.4950  143.9690 O   0  0  0  0  0  0  0  0  0  0  0  0
  1  3  1  0  0  0  0
  3  2  2  0  0  0  0
  4 18  1  1  0  0  0
  4 12  1  0  0  0  0
  4  7  1  0  0  0  0
  5  9  2  0  0  0  0
  5 12  1  0  0  0  0
  6 20  1  6  0  0  0
  6 26  1  0  0  0  0
  7 10  2  0  0  0  0
  8 22  1  0  0  0  0
 10 21  1  0  0  0  0
 11 20  1  6  0  0  0
 11  6  1  0  0  0  0
 11  5  1  0  0  0  0
 13 15  1  0  0  0  0
 13  2  1  0  0  0  0
 14 13  2  0  0  0  0
 15  7  1  6  0  0  0
 15 17  1  0  0  0  0
 17 16  1  0  0  0  0
 18 11  1  0  0  0  0
 19 12  1  0  0  0  0
 19 14  1  0  0  0  0
 21 17  2  0  0  0  0
 22 14  1  0  0  0  0
 22  1  2  0  0  0  0
 23 25  1  6  0  0  0
 23 27  1  0  0  0  0
 23 29  1  0  0  0  0
 26 28  1  1  0  0  0
 26 24  1  0  0  0  0
 27 24  1  6  0  0  0
 27 29  1  0  0  0  0
 28 25  1  0  0  0  0
 30 31  1  0  0  0  0
 30  1  1  0  0  0  0
 31 32  1  0  0  0  0
 32 33  1  0  0  0  0
 33 35  2  0  0  0  0
 34 33  1  0  0  0  0
 34 36  1  0  0  0  0
 37 39  1  0  0  0  0
 38 40  1  0  0  0  0
 40 39  1  0  0  0  0
 40 36  1  0  0  0  0
 41 42  1  0  0  0  0
 41 38  1  0  0  0  0
 42 37  1  0  0  0  0
M  END
>  <MODEL>
2

>  <REMARK>
 VINA RESULT:      -8.2      2.329     10.071
  Name = 
  7 active torsions:
  status: ('A' for Active; 'I' for Inactive)
    1  A    between atoms: N_5  and  N_15
    2  A    between atoms: N_5  and  C_25
    3  A    between atoms: C_6  and  C_20
    4  A    between atoms: C_7  and  N_22
    5  A    between atoms: C_11  and  C_14
    6  A    between atoms: C_14  and  N_35
    7  A    between atoms: N_22  and  N_35
                            x       y       z     vdW  Elec       q    Type
                         _______ _______ _______ _____ _____    ______ ____

>  <TORSDO>
F 7

$$$$
=
 OpenBabel11042419233D

 42 49  0  0  1  0  0  0  0  0999 V2000
  195.4720  175.0710  144.2980 C   0  0  0  0  0  0  0  0  0  0  0  0
  193.9870  173.2170  143.9070 C   0  0  0  0  0  3  0  0  0  0  0  0
  195.2500  173.7820  143.8410 C   0  0  0  0  0  3  0  0  0  0  0  0
  190.2510  174.6440  146.0750 C   0  0  1  0  0  3  0  0  0  0  0  0
  189.7840  176.7890  145.4320 C   0  0  0  0  0  0  0  0  0  0  0  0
  187.1450  176.5760  145.7940 C   0  0  1  0  0  3  0  0  0  0  0  0
  190.4830  173.4670  145.2200 C   0  0  0  0  0  0  0  0  0  0  0  0
  194.6200  177.1870  145.3830 C   0  0  0  0  0  1  0  0  0  0  0  0
  189.9550  177.9960  145.1110 O   0  0  0  0  0  0  0  0  0  0  0  0
  189.6730  172.4220  145.1270 C   0  0  0  0  0  2  0  0  0  0  0  0
  188.5940  176.1730  146.0060 C   0  0  1  0  0  0  0  0  0  0  0  0
  190.7680  175.8010  145.3730 N   0  0  0  0  0  0  0  0  0  0  0  0
  192.8790  173.8950  144.4310 C   0  0  0  0  0  0  0  0  0  0  0  0
  193.0840  175.2570  144.8790 C   0  0  0  0  0  0  0  0  0  0  0  0
  191.7160  173.1840  144.4900 C   0  0  0  0  0  0  0  0  0  0  0  0
  192.2940  171.0220  143.0510 C   0  0  0  0  0  1  0  0  0  0  0  0
  191.4300  171.8330  143.9570 C   0  0  0  0  0  0  0  0  0  0  0  0
  188.8580  174.8360  146.3500 O   0  0  0  0  0  0  0  0  0  0  0  0
  192.1320  176.0790  145.2450 N   0  0  0  0  0  2  0  0  0  0  0  0
  187.8840  176.9530  147.0840 C   0  0  0  0  0  2  0  0  0  0  0  0
  190.2620  171.4130  144.3150 N   0  0  0  0  0  0  0  0  0  0  0  0
  194.3930  175.8090  144.8340 C   0  0  0  0  0  0  0  0  0  0  0  0
  185.5820  179.4360  142.9810 N   0  0  1  0  0  0  0  0  0  0  0  0
  186.9450  177.3530  143.4290 C   0  0  0  0  0  2  0  0  0  0  0  0
  184.8360  178.8820  144.1140 C   0  0  0  0  0  2  0  0  0  0  0  0
  187.0010  177.7930  144.8920 C   0  0  1  0  0  3  0  0  0  0  0  0
  186.7090  178.5700  142.5290 C   0  0  1  0  0  3  0  0  0  0  0  0
  185.7640  178.6030  145.2970 C   0  0  0  0  0  2  0  0  0  0  0  0
  185.4070  178.4800  141.8760 C   0  0  0  0  0  2  0  0  0  0  0  0
  196.8140  175.5760  144.1950 N   0  0  0  0  0  2  0  0  0  0  0  0
  197.4750  175.8200  142.9810 N   0  0  0  0  0  2  0  0  0  0  0  0
  196.6170  176.6860  142.1900 C   0  0  0  0  0  2  0  0  0  0  0  0
  196.3590  176.0550  140.8690 C   0  0  0  0  0  0  0  0  0  0  0  0
  195.0320  175.6580  140.5220 N   0  0  0  0  0  2  0  0  0  0  0  0
  197.3050  175.9050  140.0520 O   0  0  0  0  0  0  0  0  0  0  0  0
  194.7240  175.1600  139.2480 N   0  0  0  0  0  2  0  0  0  0  0  0
  191.5650  173.2680  138.4440 C   0  0  0  0  0  2  0  0  0  0  0  0
  192.8400  174.4980  140.6510 C   0  0  0  0  0  2  0  0  0  0  0  0
  192.7920  174.1370  138.1660 C   0  0  0  0  0  2  0  0  0  0  0  0
  193.6720  174.1700  139.4130 C   0  0  0  0  0  3  0  0  0  0  0  0
  191.6120  173.5890  140.6790 C   0  0  0  0  0  2  0  0  0  0  0  0
  190.8360  173.7990  139.5250 O   0  0  0  0  0  0  0  0  0  0  0  0
  1 22  1  0  0  0  0
  2 13  2  0  0  0  0
  3  2  1  0  0  0  0
  3  1  2  0  0  0  0
  4  7  1  6  0  0  0
  4 18  1  0  0  0  0
  5 11  1  0  0  0  0
  6 11  1  0  0  0  0
  6 20  1  1  0  0  0
  9  5  2  0  0  0  0
 10  7  1  0  0  0  0
 11 18  1  0  0  0  0
 11 20  1  1  0  0  0
 12  5  1  0  0  0  0
 12  4  1  0  0  0  0
 13 15  1  0  0  0  0
 13 14  1  0  0  0  0
 14 19  1  0  0  0  0
 15  7  2  0  0  0  0
 16 17  1  0  0  0  0
 17 21  2  0  0  0  0
 17 15  1  0  0  0  0
 19 12  1  0  0  0  0
 21 10  1  0  0  0  0
 22 14  2  0  0  0  0
 22  8  1  0  0  0  0
 23 29  1  6  0  0  0
 23 25  1  0  0  0  0
 25 28  1  0  0  0  0
 26 24  1  6  0  0  0
 26 28  1  0  0  0  0
 26  6  1  0  0  0  0
 27 29  1  6  0  0  0
 27 23  1  0  0  0  0
 27 24  1  0  0  0  0
 30  1  1  0  0  0  0
 31 30  1  0  0  0  0
 32 31  1  0  0  0  0
 33 32  1  0  0  0  0
 34 33  1  0  0  0  0
 35 33  2  0  0  0  0
 36 40  1  0  0  0  0
 36 34  1  0  0  0  0
 37 42  1  0  0  0  0
 38 41  1  0  0  0  0
 39 37  1  0  0  0  0
 39 40  1  0  0  0  0
 40 38  1  0  0  0  0
 42 41  1  0  0  0  0
M  END
>  <MODEL>
3

>  <REMARK>
 VINA RESULT:      -8.2      2.927      8.828
  Name = 
  7 active torsions:
  status: ('A' for Active; 'I' for Inactive)
    1  A    between atoms: N_5  and  N_15
    2  A    between atoms: N_5  and  C_25
    3  A    between atoms: C_6  and  C_20
    4  A    between atoms: C_7  and  N_22
    5  A    between atoms: C_11  and  C_14
    6  A    between atoms: C_14  and  N_35
    7  A    between atoms: N_22  and  N_35
                            x       y       z     vdW  Elec       q    Type
                         _______ _______ _______ _____ _____    ______ ____

>  <TORSDO>
F 7

$$$$
=
 OpenBabel11042419233D

 42 49  0  0  1  0  0  0  0  0999 V2000
  188.1310  175.9270  142.8540 C   0  0  0  0  0  0  0  0  0  0  0  0
  188.9150  174.5450  141.0450 C   0  0  0  0  0  3  0  0  0  0  0  0
  187.9220  175.3120  141.6300 C   0  0  0  0  0  3  0  0  0  0  0  0
  193.3100  174.1140  142.1420 C   0  0  1  0  0  3  0  0  0  0  0  0
  193.4770  173.5210  144.3450 C   0  0  0  0  0  0  0  0  0  0  0  0
  195.7720  172.1820  144.0550 C   0  0  1  0  0  3  0  0  0  0  0  0
  192.5090  173.4730  141.0840 C   0  0  0  0  0  0  0  0  0  0  0  0
  189.6430  176.4590  144.8060 C   0  0  0  0  0  1  0  0  0  0  0  0
  193.2530  173.4830  145.5850 O   0  0  0  0  0  0  0  0  0  0  0  0
  193.0060  172.8100  140.0490 C   0  0  0  0  0  3  0  0  0  0  0  0
  194.7150  173.1930  143.6470 C   0  0  1  0  0  0  0  0  0  0  0  0
  192.5760  173.9810  143.3840 N   0  0  0  0  0  0  0  0  0  0  0  0
  190.1690  174.3460  141.6380 C   0  0  0  0  0  0  0  0  0  0  0  0
  190.3930  174.9490  142.9350 C   0  0  0  0  0  0  0  0  0  0  0  0
  191.0660  173.6200  140.9110 C   0  0  1  0  0  3  0  0  0  0  0  0
  189.5550  172.6380  138.9530 C   0  0  0  0  0  1  0  0  0  0  0  0
  190.8560  172.9020  139.6340 C   0  0  0  0  0  0  0  0  0  0  0  0
  194.5970  173.5020  142.2800 O   0  0  0  0  0  0  0  0  0  0  0  0
  191.4400  174.7360  143.6930 N   0  0  0  0  0  2  0  0  0  0  0  0
  195.9950  173.6830  144.2760 C   0  0  0  0  0  2  0  0  0  0  0  0
  191.9630  172.4350  139.1580 N   0  0  0  0  0  0  0  0  0  0  0  0
  189.3740  175.7610  143.5050 C   0  0  0  0  0  0  0  0  0  0  0  0
  195.6010  169.2930  147.2430 N   0  0  1  0  0  0  0  0  0  0  0  0
  194.6130  170.2410  145.1160 C   0  0  0  0  0  2  0  0  0  0  0  0
  196.8270  169.7130  146.5580 C   0  0  0  0  0  2  0  0  0  0  0  0
  195.4480  171.4950  145.3740 C   0  0  1  0  0  3  0  0  0  0  0  0
  194.3650  169.5010  146.4350 C   0  0  1  0  0  3  0  0  0  0  0  0
  196.7430  171.1790  146.1330 C   0  0  0  0  0  2  0  0  0  0  0  0
  195.0350  168.2050  146.4310 C   0  0  0  0  0  2  0  0  0  0  0  0
  187.0480  176.7070  143.3840 N   0  0  0  0  0  2  0  0  0  0  0  0
  185.7870  176.8240  142.7790 N   0  0  0  0  0  2  0  0  0  0  0  0
  185.5970  178.2270  142.4490 C   0  0  0  0  0  2  0  0  0  0  0  0
  185.1330  178.9610  143.6550 C   0  0  0  0  0  0  0  0  0  0  0  0
  184.2270  178.3320  144.5620 N   0  0  0  0  0  2  0  0  0  0  0  0
  185.5670  180.1210  143.8860 O   0  0  0  0  0  0  0  0  0  0  0  0
  183.8490  178.9450  145.7650 N   0  0  0  0  0  2  0  0  0  0  0  0
  186.7880  178.6690  148.1090 C   0  0  0  0  0  2  0  0  0  0  0  0
  185.2680  177.0480  146.3550 C   0  0  0  0  0  2  0  0  0  0  0  0
  185.7930  179.3630  147.1780 C   0  0  0  0  0  2  0  0  0  0  0  0
  184.6810  178.3810  146.8160 C   0  0  0  0  0  3  0  0  0  0  0  0
  186.3110  176.5870  147.3720 C   0  0  0  0  0  2  0  0  0  0  0  0
  187.3400  177.5430  147.4690 O   0  0  0  0  0  0  0  0  0  0  0  0
  1 30  1  0  0  0  0
  1 22  1  0  0  0  0
  2  3  1  0  0  0  0
  2 13  2  0  0  0  0
  3  1  2  0  0  0  0
  4  7  1  6  0  0  0
  4 18  1  0  0  0  0
  4 12  1  0  0  0  0
  5  9  2  0  0  0  0
  6 20  1  1  0  0  0
  6 26  1  0  0  0  0
 10  7  2  0  0  0  0
 11  6  1  0  0  0  0
 11 20  1  1  0  0  0
 11  5  1  0  0  0  0
 12 19  1  0  0  0  0
 12  5  1  0  0  0  0
 13 14  1  0  0  0  0
 14 22  2  0  0  0  0
 14 19  1  0  0  0  0
 15 17  1  6  0  0  0
 15  7  1  0  0  0  0
 15 13  1  0  0  0  0
 16 17  1  0  0  0  0
 18 11  1  0  0  0  0
 21 17  2  0  0  0  0
 21 10  1  0  0  0  0
 22  8  1  0  0  0  0
 23 29  1  6  0  0  0
 25 23  1  0  0  0  0
 26 24  1  6  0  0  0
 26 28  1  0  0  0  0
 27 24  1  6  0  0  0
 27 23  1  0  0  0  0
 28 25  1  0  0  0  0
 29 27  1  0  0  0  0
 31 30  1  0  0  0  0
 32 31  1  0  0  0  0
 32 33  1  0  0  0  0
 33 35  2  0  0  0  0
 33 34  1  0  0  0  0
 34 36  1  0  0  0  0
 36 40  1  0  0  0  0
 38 40  1  0  0  0  0
 38 41  1  0  0  0  0
 39 37  1  0  0  0  0
 40 39  1  0  0  0  0
 41 42  1  0  0  0  0
 42 37  1  0  0  0  0
M  END
>  <MODEL>
4

>  <REMARK>
 VINA RESULT:      -7.8      1.837      3.219
  Name = 
  7 active torsions:
  status: ('A' for Active; 'I' for Inactive)
    1  A    between atoms: N_5  and  N_15
    2  A    between atoms: N_5  and  C_25
    3  A    between atoms: C_6  and  C_20
    4  A    between atoms: C_7  and  N_22
    5  A    between atoms: C_11  and  C_14
    6  A    between atoms: C_14  and  N_35
    7  A    between atoms: N_22  and  N_35
                            x       y       z     vdW  Elec       q    Type
                         _______ _______ _______ _____ _____    ______ ____

>  <TORSDO>
F 7

$$$$
=
 OpenBabel11042419233D

 42 49  0  0  1  0  0  0  0  0999 V2000
  195.0140  174.9960  142.5420 C   0  0  0  0  0  0  0  0  0  0  0  0
  193.3670  173.2790  142.1760 C   0  0  0  0  0  3  0  0  0  0  0  0
  194.6180  173.8190  141.9280 C   0  0  0  0  0  3  0  0  0  0  0  0
  190.2850  174.3640  145.3420 C   0  0  1  0  0  3  0  0  0  0  0  0
  189.8240  176.6000  145.2040 C   0  0  0  0  0  0  0  0  0  0  0  0
  187.3180  176.3810  146.1060 C   0  0  1  0  0  3  0  0  0  0  0  0
  190.2530  173.3590  144.2650 C   0  0  0  0  0  0  0  0  0  0  0  0
  194.5500  176.8950  144.1420 C   0  0  0  0  0  1  0  0  0  0  0  0
  189.9960  177.8420  145.0690 O   0  0  0  0  0  0  0  0  0  0  0  0
  189.3780  172.3660  144.1750 C   0  0  0  0  0  2  0  0  0  0  0  0
  188.7510  175.9150  145.9140 C   0  0  1  0  0  0  0  0  0  0  0  0
  190.7080  175.6180  144.7540 N   0  0  0  0  0  0  0  0  0  0  0  0
  192.4420  173.8730  143.0450 C   0  0  0  0  0  0  0  0  0  0  0  0
  192.8240  175.1240  143.6660 C   0  0  0  0  0  0  0  0  0  0  0  0
  191.2790  173.1880  143.2390 C   0  0  0  0  0  0  0  0  0  0  0  0
  191.3960  171.3150  141.3520 C   0  0  0  0  0  1  0  0  0  0  0  0
  190.8010  171.9650  142.5560 C   0  0  0  0  0  0  0  0  0  0  0  0
  188.9990  174.5320  145.9510 O   0  0  0  0  0  0  0  0  0  0  0  0
  192.0270  175.8850  144.3750 N   0  0  0  0  0  2  0  0  0  0  0  0
  188.3400  176.4980  147.2430 C   0  0  0  0  0  2  0  0  0  0  0  0
  189.7140  171.5120  143.0880 N   0  0  0  0  0  0  0  0  0  0  0  0
  194.1240  175.6470  143.4260 C   0  0  0  0  0  0  0  0  0  0  0  0
  185.3620  179.7440  144.2610 N   0  0  1  0  0  0  0  0  0  0  0  0
  186.6560  177.5840  144.0190 C   0  0  0  0  0  2  0  0  0  0  0  0
  184.8480  179.0090  145.4190 C   0  0  0  0  0  2  0  0  0  0  0  0
  187.0570  177.7460  145.4850 C   0  0  1  0  0  3  0  0  0  0  0  0
  186.3060  178.9500  143.4220 C   0  0  1  0  0  3  0  0  0  0  0  0
  185.9930  178.4960  146.2950 C   0  0  0  0  0  2  0  0  0  0  0  0
  184.8900  179.0120  143.0750 C   0  0  0  0  0  2  0  0  0  0  0  0
  196.3300  175.4830  142.2300 N   0  0  0  0  0  2  0  0  0  0  0  0
  197.3470  175.6750  143.1770 N   0  0  0  0  0  2  0  0  0  0  0  0
  197.9380  174.3730  143.4430 C   0  0  0  0  0  2  0  0  0  0  0  0
  197.3120  173.7830  144.6540 C   0  0  0  0  0  0  0  0  0  0  0  0
  197.3010  172.3650  144.8260 N   0  0  0  0  0  2  0  0  0  0  0  0
  196.8240  174.5370  145.5370 O   0  0  0  0  0  0  0  0  0  0  0  0
  196.8200  171.7720  146.0030 N   0  0  0  0  0  2  0  0  0  0  0  0
  195.0820  169.2120  143.8510 C   0  0  0  0  0  2  0  0  0  0  0  0
  194.4820  171.5410  145.3420 C   0  0  0  0  0  2  0  0  0  0  0  0
  196.2520  170.0420  144.3800 C   0  0  0  0  0  2  0  0  0  0  0  0
  195.7970  170.8140  145.6150 C   0  0  0  0  0  3  0  0  0  0  0  0
  193.4900  170.5580  144.7220 C   0  0  0  0  0  2  0  0  0  0  0  0
  194.0080  170.0560  143.5130 O   0  0  0  0  0  0  0  0  0  0  0  0
  1 22  1  0  0  0  0
  2 13  2  0  0  0  0
  3  2  1  0  0  0  0
  3  1  2  0  0  0  0
  4  7  1  6  0  0  0
  4 18  1  0  0  0  0
  5 11  1  0  0  0  0
  6 20  1  1  0  0  0
  9  5  2  0  0  0  0
 10  7  1  0  0  0  0
 11 18  1  0  0  0  0
 11  6  1  0  0  0  0
 11 20  1  1  0  0  0
 12  5  1  0  0  0  0
 12  4  1  0  0  0  0
 13 15  1  0  0  0  0
 13 14  1  0  0  0  0
 14 19  1  0  0  0  0
 15  7  2  0  0  0  0
 16 17  1  0  0  0  0
 17 21  2  0  0  0  0
 17 15  1  0  0  0  0
 19 12  1  0  0  0  0
 21 10  1  0  0  0  0
 22 14  2  0  0  0  0
 22  8  1  0  0  0  0
 23 29  1  6  0  0  0
 23 25  1  0  0  0  0
 25 28  1  0  0  0  0
 26 24  1  6  0  0  0
 26  6  1  0  0  0  0
 26 28  1  0  0  0  0
 27 29  1  6  0  0  0
 27 24  1  0  0  0  0
 27 23  1  0  0  0  0
 30  1  1  0  0  0  0
 30 31  1  0  0  0  0
 31 32  1  0  0  0  0
 32 33  1  0  0  0  0
 33 34  1  0  0  0  0
 33 35  2  0  0  0  0
 34 36  1  0  0  0  0
 37 39  1  0  0  0  0
 38 40  1  0  0  0  0
 39 40  1  0  0  0  0
 40 36  1  0  0  0  0
 41 38  1  0  0  0  0
 42 37  1  0  0  0  0
 42 41  1  0  0  0  0
M  END
>  <MODEL>
5

>  <REMARK>
 VINA RESULT:      -7.7      2.357      9.634
  Name = 
  7 active torsions:
  status: ('A' for Active; 'I' for Inactive)
    1  A    between atoms: N_5  and  N_15
    2  A    between atoms: N_5  and  C_25
    3  A    between atoms: C_6  and  C_20
    4  A    between atoms: C_7  and  N_22
    5  A    between atoms: C_11  and  C_14
    6  A    between atoms: C_14  and  N_35
    7  A    between atoms: N_22  and  N_35
                            x       y       z     vdW  Elec       q    Type
                         _______ _______ _______ _____ _____    ______ ____

>  <TORSDO>
F 7

$$$$
=
 OpenBabel11042419233D

 42 49  0  0  1  0  0  0  0  0999 V2000
  188.3210  177.2060  142.8930 C   0  0  0  0  0  0  0  0  0  0  0  0
  188.2150  175.1330  141.6740 C   0  0  0  0  0  3  0  0  0  0  0  0
  187.5850  176.2160  142.2630 C   0  0  0  0  0  3  0  0  0  0  0  0
  192.6230  174.4370  140.7880 C   0  0  1  0  0  3  0  0  0  0  0  0
  193.8260  174.7060  142.7150 C   0  0  0  0  0  0  0  0  0  0  0  0
  195.7640  173.0010  142.0230 C   0  0  1  0  0  3  0  0  0  0  0  0
  191.4440  173.5830  140.5620 C   0  0  0  0  0  0  0  0  0  0  0  0
  190.5520  178.1850  143.5640 C   0  0  0  0  0  1  0  0  0  0  0  0
  194.2110  175.1780  143.8180 O   0  0  0  0  0  0  0  0  0  0  0  0
  191.4210  172.5050  139.7900 C   0  0  0  0  0  3  0  0  0  0  0  0
  194.6030  173.9400  141.7470 C   0  0  1  0  0  0  0  0  0  0  0  0
  192.5630  174.9080  142.1570 N   0  0  0  0  0  0  0  0  0  0  0  0
  189.6070  174.9720  141.6760 C   0  0  0  0  0  0  0  0  0  0  0  0
  190.3910  175.9770  142.3630 C   0  0  0  0  0  0  0  0  0  0  0  0
  190.0840  173.8880  140.9990 C   0  0  1  0  0  3  0  0  0  0  0  0
  187.8690  172.4980  140.5090 C   0  0  0  0  0  1  0  0  0  0  0  0
  189.3260  172.7840  140.3690 C   0  0  0  0  0  0  0  0  0  0  0  0
  193.8460  173.7210  140.5820 O   0  0  0  0  0  0  0  0  0  0  0  0
  191.6780  175.8980  142.5930 N   0  0  0  0  0  2  0  0  0  0  0  0
  196.0100  174.4150  141.4820 C   0  0  0  0  0  2  0  0  0  0  0  0
  190.0960  171.9970  139.6930 N   0  0  0  0  0  0  0  0  0  0  0  0
  189.7290  177.0990  142.9330 C   0  0  0  0  0  0  0  0  0  0  0  0
  197.1510  171.5820  145.8440 N   0  0  1  0  0  0  0  0  0  0  0  0
  195.2550  171.8790  144.1950 C   0  0  0  0  0  2  0  0  0  0  0  0
  197.8860  171.4480  144.5840 C   0  0  0  0  0  2  0  0  0  0  0  0
  196.1220  172.9280  143.5000 C   0  0  1  0  0  3  0  0  0  0  0  0
  195.6790  171.7430  145.6610 C   0  0  1  0  0  3  0  0  0  0  0  0
  197.6190  172.6390  143.6640 C   0  0  0  0  0  2  0  0  0  0  0  0
  196.2470  170.4230  145.9110 C   0  0  0  0  0  2  0  0  0  0  0  0
  187.5850  178.2960  143.4730 N   0  0  0  0  0  2  0  0  0  0  0  0
  186.2690  178.1960  143.9490 N   0  0  0  0  0  2  0  0  0  0  0  0
  186.3080  178.4580  145.3790 C   0  0  0  0  0  2  0  0  0  0  0  0
  186.4830  177.1770  146.1120 C   0  0  0  0  0  0  0  0  0  0  0  0
  187.7970  176.7120  146.4230 N   0  0  0  0  0  2  0  0  0  0  0  0
  185.4710  176.5260  146.4840 O   0  0  0  0  0  0  0  0  0  0  0  0
  188.0050  175.5680  147.2060 N   0  0  0  0  0  2  0  0  0  0  0  0
  191.6970  176.3260  147.2070 C   0  0  0  0  0  2  0  0  0  0  0  0
  189.8360  174.6710  145.8630 C   0  0  0  0  0  2  0  0  0  0  0  0
  190.2100  176.5850  147.4470 C   0  0  0  0  0  2  0  0  0  0  0  0
  189.4330  175.2940  147.1990 C   0  0  0  0  0  3  0  0  0  0  0  0
  191.3600  174.6020  145.7870 C   0  0  0  0  0  2  0  0  0  0  0  0
  191.9030  175.8970  145.8830 O   0  0  0  0  0  0  0  0  0  0  0  0
  1 22  1  0  0  0  0
  1 30  1  0  0  0  0
  2 13  2  0  0  0  0
  2  3  1  0  0  0  0
  3  1  2  0  0  0  0
  4  7  1  1  0  0  0
  4 12  1  0  0  0  0
  5  9  2  0  0  0  0
  6 20  1  6  0  0  0
  6 26  1  0  0  0  0
  7 15  1  0  0  0  0
 10  7  2  0  0  0  0
 11 20  1  6  0  0  0
 11  6  1  0  0  0  0
 11  5  1  0  0  0  0
 12 19  1  0  0  0  0
 12  5  1  0  0  0  0
 13 14  1  0  0  0  0
 14 19  1  0  0  0  0
 14 22  2  0  0  0  0
 15 17  1  6  0  0  0
 15 13  1  0  0  0  0
 17 16  1  0  0  0  0
 18  4  1  0  0  0  0
 18 11  1  0  0  0  0
 21 10  1  0  0  0  0
 21 17  2  0  0  0  0
 22  8  1  0  0  0  0
 23 25  1  6  0  0  0
 23 29  1  0  0  0  0
 26 28  1  6  0  0  0
 26 24  1  0  0  0  0
 27 24  1  6  0  0  0
 27 23  1  0  0  0  0
 27 29  1  0  0  0  0
 28 25  1  0  0  0  0
 30 31  1  0  0  0  0
 31 32  1  0  0  0  0
 32 33  1  0  0  0  0
 33 34  1  0  0  0  0
 33 35  2  0  0  0  0
 34 36  1  0  0  0  0
 37 39  1  0  0  0  0
 38 40  1  0  0  0  0
 40 36  1  0  0  0  0
 40 39  1  0  0  0  0
 41 38  1  0  0  0  0
 41 42  1  0  0  0  0
 42 37  1  0  0  0  0
M  END
>  <MODEL>
6

>  <REMARK>
 VINA RESULT:      -7.6      1.983      3.621
  Name = 
  7 active torsions:
  status: ('A' for Active; 'I' for Inactive)
    1  A    between atoms: N_5  and  N_15
    2  A    between atoms: N_5  and  C_25
    3  A    between atoms: C_6  and  C_20
    4  A    between atoms: C_7  and  N_22
    5  A    between atoms: C_11  and  C_14
    6  A    between atoms: C_14  and  N_35
    7  A    between atoms: N_22  and  N_35
                            x       y       z     vdW  Elec       q    Type
                         _______ _______ _______ _____ _____    ______ ____

>  <TORSDO>
F 7

$$$$
=
 OpenBabel11042419233D

 42 49  0  0  1  0  0  0  0  0999 V2000
  187.5410  176.5410  142.3440 C   0  0  0  0  0  0  0  0  0  0  0  0
  188.9720  176.6520  144.2760 C   0  0  0  0  0  3  0  0  0  0  0  0
  187.8220  177.0360  143.6070 C   0  0  0  0  0  3  0  0  0  0  0  0
  191.9420  173.3390  143.3300 C   0  0  1  0  0  3  0  0  0  0  0  0
  192.6980  173.6000  141.1870 C   0  0  0  0  0  0  0  0  0  0  0  0
  195.0860  172.4890  141.6410 C   0  0  1  0  0  3  0  0  0  0  0  0
  191.9180  174.3360  144.4150 C   0  0  0  0  0  0  0  0  0  0  0  0
  188.1350  175.0490  140.3940 C   0  0  0  0  0  1  0  0  0  0  0  0
  192.6990  173.8360  139.9480 O   0  0  0  0  0  0  0  0  0  0  0  0
  192.6610  174.2860  145.5120 C   0  0  0  0  0  2  0  0  0  0  0  0
  193.6210  172.7600  141.9400 C   0  0  1  0  0  0  0  0  0  0  0  0
  191.7270  174.0460  142.0840 N   0  0  0  0  0  0  0  0  0  0  0  0
  189.9030  175.7580  143.7330 C   0  0  0  0  0  0  0  0  0  0  0  0
  189.6460  175.2590  142.3980 C   0  0  0  0  0  0  0  0  0  0  0  0
  190.9520  175.4250  144.5390 C   0  0  0  0  0  0  0  0  0  0  0  0
  190.7240  177.1760  146.5290 C   0  0  0  0  0  1  0  0  0  0  0  0
  191.3130  175.9790  145.8630 C   0  0  0  0  0  0  0  0  0  0  0  0
  193.1940  172.6440  143.2740 O   0  0  0  0  0  0  0  0  0  0  0  0
  190.4830  174.5470  141.6870 N   0  0  0  0  0  2  0  0  0  0  0  0
  194.0120  171.4480  141.3070 C   0  0  0  0  0  2  0  0  0  0  0  0
  192.2930  175.3320  146.4040 N   0  0  0  0  0  0  0  0  0  0  0  0
  188.4440  175.6380  141.7390 C   0  0  0  0  0  0  0  0  0  0  0  0
  197.5670  174.4790  138.7390 N   0  0  1  0  0  0  0  0  0  0  0  0
  195.9610  174.6260  140.6880 C   0  0  0  0  0  2  0  0  0  0  0  0
  197.9410  173.2650  139.4690 C   0  0  0  0  0  2  0  0  0  0  0  0
  195.5640  173.1830  140.3740 C   0  0  1  0  0  3  0  0  0  0  0  0
  196.5270  175.2940  139.4310 C   0  0  1  0  0  3  0  0  0  0  0  0
  196.7170  172.3920  139.7450 C   0  0  0  0  0  2  0  0  0  0  0  0
  197.9410  175.6060  139.6070 C   0  0  0  0  0  2  0  0  0  0  0  0
  186.3240  176.9900  141.7240 N   0  0  0  0  0  2  0  0  0  0  0  0
  185.7730  178.2690  141.8980 N   0  0  0  0  0  2  0  0  0  0  0  0
  184.3300  178.1360  141.7800 C   0  0  0  0  0  2  0  0  0  0  0  0
  183.6890  178.5490  143.0550 C   0  0  0  0  0  0  0  0  0  0  0  0
  184.3970  178.3980  144.2860 N   0  0  0  0  0  2  0  0  0  0  0  0
  182.5380  179.0610  143.0390 O   0  0  0  0  0  0  0  0  0  0  0  0
  183.8750  178.8740  145.4970 N   0  0  0  0  0  2  0  0  0  0  0  0
  186.7300  178.5330  147.9320 C   0  0  0  0  0  2  0  0  0  0  0  0
  185.2490  176.9520  146.1110 C   0  0  0  0  0  2  0  0  0  0  0  0
  185.7770  179.2500  146.9780 C   0  0  0  0  0  2  0  0  0  0  0  0
  184.6640  178.2880  146.5680 C   0  0  0  0  0  3  0  0  0  0  0  0
  186.2520  176.4660  147.1570 C   0  0  0  0  0  2  0  0  0  0  0  0
  187.2890  177.4070  147.2980 O   0  0  0  0  0  0  0  0  0  0  0  0
  1  3  1  0  0  0  0
  3  2  2  0  0  0  0
  4 18  1  6  0  0  0
  4  7  1  0  0  0  0
  5 11  1  0  0  0  0
  5 12  1  0  0  0  0
  6 20  1  6  0  0  0
  6 11  1  0  0  0  0
  7 15  2  0  0  0  0
  7 10  1  0  0  0  0
  8 22  1  0  0  0  0
  9  5  2  0  0  0  0
 10 21  1  0  0  0  0
 11 20  1  6  0  0  0
 11 18  1  0  0  0  0
 12  4  1  0  0  0  0
 13  2  1  0  0  0  0
 13 15  1  0  0  0  0
 14 13  2  0  0  0  0
 15 17  1  0  0  0  0
 17 21  2  0  0  0  0
 17 16  1  0  0  0  0
 19 12  1  0  0  0  0
 19 14  1  0  0  0  0
 22  1  2  0  0  0  0
 22 14  1  0  0  0  0
 23 27  1  0  0  0  0
 23 25  1  1  0  0  0
 23 29  1  0  0  0  0
 25 28  1  0  0  0  0
 26 28  1  1  0  0  0
 26 24  1  0  0  0  0
 26  6  1  0  0  0  0
 27 29  1  1  0  0  0
 27 24  1  0  0  0  0
 30 31  1  0  0  0  0
 30  1  1  0  0  0  0
 32 31  1  0  0  0  0
 32 33  1  0  0  0  0
 33 34  1  0  0  0  0
 34 36  1  0  0  0  0
 35 33  2  0  0  0  0
 36 40  1  0  0  0  0
 38 40  1  0  0  0  0
 38 41  1  0  0  0  0
 39 37  1  0  0  0  0
 40 39  1  0  0  0  0
 41 42  1  0  0  0  0
 42 37  1  0  0  0  0
M  END
>  <MODEL>
7

>  <REMARK>
 VINA RESULT:      -7.6      2.833      4.975
  Name = 
  7 active torsions:
  status: ('A' for Active; 'I' for Inactive)
    1  A    between atoms: N_5  and  N_15
    2  A    between atoms: N_5  and  C_25
    3  A    between atoms: C_6  and  C_20
    4  A    between atoms: C_7  and  N_22
    5  A    between atoms: C_11  and  C_14
    6  A    between atoms: C_14  and  N_35
    7  A    between atoms: N_22  and  N_35
                            x       y       z     vdW  Elec       q    Type
                         _______ _______ _______ _____ _____    ______ ____

>  <TORSDO>
F 7

$$$$
=
 OpenBabel11042419233D

 42 49  0  0  1  0  0  0  0  0999 V2000
  192.6020  171.0710  143.9960 C   0  0  0  0  0  0  0  0  0  0  0  0
  193.5840  173.0560  144.9410 C   0  0  0  0  0  3  0  0  0  0  0  0
  193.5920  171.6850  144.7470 C   0  0  0  0  0  3  0  0  0  0  0  0
  191.0940  176.2850  142.9230 C   0  0  1  0  0  3  0  0  0  0  0  0
  188.8780  175.7570  143.1250 C   0  0  0  0  0  0  0  0  0  0  0  0
  188.0280  178.2910  143.1010 C   0  0  1  0  0  3  0  0  0  0  0  0
  192.1110  176.3700  143.9860 C   0  0  0  0  0  0  0  0  0  0  0  0
  190.5240  171.2260  142.5690 C   0  0  0  0  0  1  0  0  0  0  0  0
  187.8160  175.0770  143.1520 O   0  0  0  0  0  0  0  0  0  0  0  0
  192.6950  177.4880  144.3930 C   0  0  0  0  0  3  0  0  0  0  0  0
  189.0250  177.1770  142.8300 C   0  0  1  0  0  0  0  0  0  0  0  0
  190.1620  175.2400  143.2950 N   0  0  0  0  0  0  0  0  0  0  0  0
  192.5980  173.8930  144.4020 C   0  0  0  0  0  0  0  0  0  0  0  0
  191.5340  173.2660  143.6470 C   0  0  0  0  0  0  0  0  0  0  0  0
  192.7610  175.2290  144.6250 C   0  0  1  0  0  3  0  0  0  0  0  0
  194.7120  175.2730  146.4350 C   0  0  0  0  0  1  0  0  0  0  0  0
  193.7690  175.9090  145.4700 C   0  0  0  0  0  0  0  0  0  0  0  0
  190.3870  177.5200  142.7630 O   0  0  0  0  0  0  0  0  0  0  0  0
  190.4610  173.8760  143.2120 N   0  0  0  0  0  2  0  0  0  0  0  0
  188.2010  177.7190  141.6890 C   0  0  0  0  0  2  0  0  0  0  0  0
  193.7160  177.1940  145.3400 N   0  0  0  0  0  0  0  0  0  0  0  0
  191.5770  171.8610  143.4290 C   0  0  0  0  0  0  0  0  0  0  0  0
  184.4350  178.0280  145.4590 N   0  0  1  0  0  0  0  0  0  0  0  0
  186.9190  177.6050  145.2310 C   0  0  0  0  0  2  0  0  0  0  0  0
  184.8160  179.1810  144.6380 C   0  0  0  0  0  2  0  0  0  0  0  0
  186.7360  177.7830  143.7240 C   0  0  1  0  0  3  0  0  0  0  0  0
  185.5920  177.1810  145.8690 C   0  0  1  0  0  3  0  0  0  0  0  0
  185.5820  178.7370  143.3920 C   0  0  0  0  0  2  0  0  0  0  0  0
  185.0940  178.2230  146.7600 C   0  0  0  0  0  2  0  0  0  0  0  0
  192.6910  169.6450  143.8430 N   0  0  0  0  0  2  0  0  0  0  0  0
  193.8200  168.9720  143.3500 N   0  0  0  0  0  2  0  0  0  0  0  0
  194.0300  169.4280  141.9850 C   0  0  0  0  0  2  0  0  0  0  0  0
  195.3500  170.1030  141.8870 C   0  0  0  0  0  0  0  0  0  0  0  0
  195.4100  171.5170  141.6910 N   0  0  0  0  0  2  0  0  0  0  0  0
  196.4080  169.4300  142.0110 O   0  0  0  0  0  0  0  0  0  0  0  0
  196.6300  172.2080  141.7020 N   0  0  0  0  0  2  0  0  0  0  0  0
  196.6900  175.9630  142.0150 C   0  0  0  0  0  2  0  0  0  0  0  0
  194.8520  173.8710  141.5120 C   0  0  0  0  0  2  0  0  0  0  0  0
  197.1670  174.5280  142.2330 C   0  0  0  0  0  2  0  0  0  0  0  0
  196.3450  173.5910  141.3510 C   0  0  0  0  0  3  0  0  0  0  0  0
  194.6100  175.3720  141.3620 C   0  0  0  0  0  2  0  0  0  0  0  0
  195.3270  176.0730  142.3490 O   0  0  0  0  0  0  0  0  0  0  0  0
  1  3  1  0  0  0  0
  3  2  2  0  0  0  0
  4 18  1  1  0  0  0
  4 12  1  0  0  0  0
  4  7  1  0  0  0  0
  5  9  2  0  0  0  0
  5 12  1  0  0  0  0
  6 20  1  6  0  0  0
  6 26  1  0  0  0  0
  7 10  2  0  0  0  0
  8 22  1  0  0  0  0
 10 21  1  0  0  0  0
 11 20  1  6  0  0  0
 11  6  1  0  0  0  0
 11  5  1  0  0  0  0
 13 15  1  0  0  0  0
 13  2  1  0  0  0  0
 14 13  2  0  0  0  0
 15  7  1  6  0  0  0
 15 17  1  0  0  0  0
 17 16  1  0  0  0  0
 18 11  1  0  0  0  0
 19 12  1  0  0  0  0
 19 14  1  0  0  0  0
 21 17  2  0  0  0  0
 22 14  1  0  0  0  0
 22  1  2  0  0  0  0
 23 25  1  6  0  0  0
 23 27  1  0  0  0  0
 23 29  1  0  0  0  0
 26 28  1  1  0  0  0
 26 24  1  0  0  0  0
 27 24  1  6  0  0  0
 27 29  1  0  0  0  0
 28 25  1  0  0  0  0
 30  1  1  0  0  0  0
 31 30  1  0  0  0  0
 32 31  1  0  0  0  0
 33 32  1  0  0  0  0
 33 35  2  0  0  0  0
 34 36  1  0  0  0  0
 34 33  1  0  0  0  0
 37 39  1  0  0  0  0
 37 42  1  0  0  0  0
 40 38  1  0  0  0  0
 40 36  1  0  0  0  0
 40 39  1  0  0  0  0
 41 38  1  0  0  0  0
 41 42  1  0  0  0  0
M  END
>  <MODEL>
8

>  <REMARK>
 VINA RESULT:      -7.6      2.653      9.581
  Name = 
  7 active torsions:
  status: ('A' for Active; 'I' for Inactive)
    1  A    between atoms: N_5  and  N_15
    2  A    between atoms: N_5  and  C_25
    3  A    between atoms: C_6  and  C_20
    4  A    between atoms: C_7  and  N_22
    5  A    between atoms: C_11  and  C_14
    6  A    between atoms: C_14  and  N_35
    7  A    between atoms: N_22  and  N_35
                            x       y       z     vdW  Elec       q    Type
                         _______ _______ _______ _____ _____    ______ ____

>  <TORSDO>
F 7

$$$$
=
 OpenBabel11042419233D

 42 49  0  0  1  0  0  0  0  0999 V2000
  188.9300  177.0800  146.5440 C   0  0  0  0  0  0  0  0  0  0  0  0
  191.2710  176.5280  146.6160 C   0  0  0  0  0  3  0  0  0  0  0  0
  190.2030  177.2950  147.0470 C   0  0  0  0  0  3  0  0  0  0  0  0
  191.3270  172.7170  144.1300 C   0  0  1  0  0  3  0  0  0  0  0  0
  190.1760  173.0750  142.1860 C   0  0  0  0  0  0  0  0  0  0  0  0
  191.5870  171.3180  140.7500 C   0  0  1  0  0  3  0  0  0  0  0  0
  192.4260  173.5180  144.6990 C   0  0  0  0  0  0  0  0  0  0  0  0
  187.3520  175.7810  145.0590 C   0  0  0  0  0  1  0  0  0  0  0  0
  189.2850  173.4790  141.3900 O   0  0  0  0  0  0  0  0  0  0  0  0
  193.6840  173.1150  144.8080 C   0  0  0  0  0  3  0  0  0  0  0  0
  191.0540  171.9210  142.0380 C   0  0  1  0  0  0  0  0  0  0  0  0
  190.4370  173.6280  143.4400 N   0  0  0  0  0  0  0  0  0  0  0  0
  191.1380  175.5060  145.6660 C   0  0  0  0  0  0  0  0  0  0  0  0
  189.8230  175.2920  145.1010 C   0  0  0  0  0  0  0  0  0  0  0  0
  192.2690  174.7940  145.3920 C   0  0  1  0  0  3  0  0  0  0  0  0
  194.1580  176.2370  146.5870 C   0  0  0  0  0  1  0  0  0  0  0  0
  193.6510  175.0360  145.8630 C   0  0  0  0  0  0  0  0  0  0  0  0
  191.8080  171.7310  143.2100 O   0  0  0  0  0  0  0  0  0  0  0  0
  189.5560  174.4930  144.0990 N   0  0  0  0  0  2  0  0  0  0  0  0
  190.4270  170.6570  141.5040 C   0  0  0  0  0  2  0  0  0  0  0  0
  194.4500  174.0810  145.5170 N   0  0  0  0  0  0  0  0  0  0  0  0
  188.7310  176.0670  145.5800 C   0  0  0  0  0  0  0  0  0  0  0  0
  191.2720  172.8910  136.7540 N   0  0  1  0  0  0  0  0  0  0  0  0
  192.0030  173.1960  139.1570 C   0  0  0  0  0  2  0  0  0  0  0  0
  191.6420  171.5120  137.0850 C   0  0  0  0  0  2  0  0  0  0  0  0
  191.0730  172.0350  139.5100 C   0  0  1  0  0  3  0  0  0  0  0  0
  191.5360  173.8600  137.8580 C   0  0  1  0  0  3  0  0  0  0  0  0
  190.9260  171.0410  138.3510 C   0  0  0  0  0  2  0  0  0  0  0  0
  192.5210  173.6680  136.7990 C   0  0  0  0  0  2  0  0  0  0  0  0
  187.8790  177.9200  147.0510 N   0  0  0  0  0  2  0  0  0  0  0  0
  186.5440  177.5130  147.1990 N   0  0  0  0  0  2  0  0  0  0  0  0
  185.7230  178.7130  147.1710 C   0  0  0  0  0  2  0  0  0  0  0  0
  185.0480  178.8220  145.8520 C   0  0  0  0  0  0  0  0  0  0  0  0
  185.8150  179.1280  144.6870 N   0  0  0  0  0  2  0  0  0  0  0  0
  183.8100  178.6100  145.7640 O   0  0  0  0  0  0  0  0  0  0  0  0
  185.2390  179.1320  143.4090 N   0  0  0  0  0  2  0  0  0  0  0  0
  187.0410  177.0430  140.8420 C   0  0  0  0  0  2  0  0  0  0  0  0
  187.5860  178.4940  143.2100 C   0  0  0  0  0  2  0  0  0  0  0  0
  185.8520  177.5460  141.6590 C   0  0  0  0  0  2  0  0  0  0  0  0
  186.2830  178.7710  142.4630 C   0  0  0  0  0  3  0  0  0  0  0  0
  188.6000  177.8990  142.2330 C   0  0  0  0  0  2  0  0  0  0  0  0
  188.1020  176.6960  141.7000 O   0  0  0  0  0  0  0  0  0  0  0  0
  1  3  1  0  0  0  0
  1 30  1  0  0  0  0
  2  3  2  0  0  0  0
  4 18  1  6  0  0  0
  4  7  1  0  0  0  0
  5 12  1  0  0  0  0
  6 20  1  6  0  0  0
  6 11  1  0  0  0  0
  7 10  2  0  0  0  0
  8 22  1  0  0  0  0
  9  5  2  0  0  0  0
 10 21  1  0  0  0  0
 11 20  1  1  0  0  0
 11  5  1  0  0  0  0
 11 18  1  0  0  0  0
 12 19  1  0  0  0  0
 12  4  1  0  0  0  0
 13  2  1  0  0  0  0
 14 22  1  0  0  0  0
 14 13  2  0  0  0  0
 15  7  1  1  0  0  0
 15 13  1  0  0  0  0
 15 17  1  0  0  0  0
 17 16  1  0  0  0  0
 19 14  1  0  0  0  0
 21 17  2  0  0  0  0
 22  1  2  0  0  0  0
 23 29  1  6  0  0  0
 23 25  1  0  0  0  0
 23 27  1  0  0  0  0
 24 26  1  0  0  0  0
 25 28  1  0  0  0  0
 26 28  1  6  0  0  0
 26  6  1  0  0  0  0
 27 29  1  6  0  0  0
 27 24  1  0  0  0  0
 30 31  1  0  0  0  0
 32 31  1  0  0  0  0
 33 32  1  0  0  0  0
 34 33  1  0  0  0  0
 35 33  2  0  0  0  0
 36 34  1  0  0  0  0
 37 39  1  0  0  0  0
 37 42  1  0  0  0  0
 39 40  1  0  0  0  0
 40 38  1  0  0  0  0
 40 36  1  0  0  0  0
 41 38  1  0  0  0  0
 42 41  1  0  0  0  0
M  END
>  <MODEL>
9

>  <REMARK>
 VINA RESULT:      -7.5      2.342      5.069
  Name = 
  7 active torsions:
  status: ('A' for Active; 'I' for Inactive)
    1  A    between atoms: N_5  and  N_15
    2  A    between atoms: N_5  and  C_25
    3  A    between atoms: C_6  and  C_20
    4  A    between atoms: C_7  and  N_22
    5  A    between atoms: C_11  and  C_14
    6  A    between atoms: C_14  and  N_35
    7  A    between atoms: N_22  and  N_35
                            x       y       z     vdW  Elec       q    Type
                         _______ _______ _______ _____ _____    ______ ____

>  <TORSDO>
F 7

$$$$
