=
 OpenBabel11042414023D

 31 33  0  0  1  0  0  0  0  0999 V2000
  190.6690  175.5530  144.1490 C   0  0  2  0  0  3  0  0  0  0  0  0
  192.5250  174.0020  144.7820 C   0  0  0  0  0  2  0  0  0  0  0  0
  190.7870  173.6380  142.4730 C   0  0  0  0  0  2  0  0  0  0  0  0
  189.9060  174.6770  143.1520 C   0  0  0  0  0  2  0  0  0  0  0  0
  190.9830  172.4520  143.4100 C   0  0  2  0  0  3  0  0  0  0  0  0
  192.2160  172.5810  144.3090 C   0  0  0  0  0  2  0  0  0  0  0  0
  191.2900  174.7320  145.3030 C   0  0  1  0  0  3  0  0  0  0  0  0
  189.6970  174.6980  147.5990 C   0  0  0  0  0  1  0  0  0  0  0  0
  191.9690  174.8180  147.6160 O   0  0  0  0  0  0  0  0  0  0  0  0
  191.6900  175.5860  146.5280 C   0  0  2  0  0  0  0  0  0  0  0  0
  190.8310  175.6090  147.7060 N   0  0  0  0  0  0  0  0  0  0  0  0
  192.7080  176.7270  146.3790 C   0  0  0  0  0  2  0  0  0  0  0  0
  194.1640  176.2920  146.5350 C   0  0  0  0  0  2  0  0  0  0  0  0
  195.7710  175.5440  144.9370 O   0  0  0  0  0  1  0  0  0  0  0  0
  194.9720  176.6300  145.2940 C   0  0  0  0  0  2  0  0  0  0  0  0
  188.4670  176.3250  145.1540 N   0  0  0  0  0  2  0  0  0  0  0  0
  189.7540  176.6440  144.6120 C   0  0  0  0  0  0  0  0  0  0  0  0
  190.1390  177.8410  144.5340 O   0  0  0  0  0  0  0  0  0  0  0  0
  186.6860  177.9730  144.5720 C   0  0  0  0  0  0  0  0  0  0  0  0
  187.3010  177.5420  146.8920 C   0  0  0  0  0  3  0  0  0  0  0  0
  185.6030  179.1790  146.3980 C   0  0  0  0  0  3  0  0  0  0  0  0
  187.4860  177.3000  145.5290 C   0  0  0  0  0  0  0  0  0  0  0  0
  185.7460  178.9380  145.0280 C   0  0  0  0  0  0  0  0  0  0  0  0
  186.3680  178.4790  147.3270 C   0  0  0  0  0  3  0  0  0  0  0  0
  186.1350  176.6550  142.5850 N   0  0  0  0  0  2  0  0  0  0  0  0
  186.8270  177.5910  143.1450 C   0  0  0  0  0  3  0  0  0  0  0  0
  184.8950  179.7490  144.1030 C   0  0  0  0  0  2  0  0  0  0  0  0
  183.6050  179.0100  143.7980 C   0  0  0  0  0  1  0  0  0  0  0  0
  190.0540  170.8020  141.9460 O   0  0  0  0  0  0  0  0  0  0  0  0
  191.0380  171.1760  142.6380 C   0  0  0  0  0  0  0  0  0  0  0  0
  192.1850  170.3960  142.6840 O   0  0  0  0  0  1  0  0  0  0  0  0
  1 17  1  1  0  0  0
  1  7  1  0  0  0  0
  3  4  1  0  0  0  0
  3  5  1  0  0  0  0
  4  1  1  0  0  0  0
  5 30  1  6  0  0  0
  5  6  1  0  0  0  0
  6  2  1  0  0  0  0
  7  2  1  6  0  0  0
  7 10  1  0  0  0  0
  8 11  1  0  0  0  0
  9 11  1  0  0  0  0
 10 12  1  6  0  0  0
 10  9  1  0  0  0  0
 10 11  1  0  0  0  0
 12 13  1  0  0  0  0
 14 15  1  0  0  0  0
 15 13  1  0  0  0  0
 16 22  1  0  0  0  0
 17 16  1  0  0  0  0
 18 17  2  0  0  0  0
 19 23  2  0  0  0  0
 19 22  1  0  0  0  0
 20 24  1  0  0  0  0
 21 24  2  0  0  0  0
 22 20  2  0  0  0  0
 23 21  1  0  0  0  0
 25 26  2  0  0  0  0
 26 19  1  0  0  0  0
 27 23  1  0  0  0  0
 28 27  1  0  0  0  0
 29 30  2  0  0  0  0
 30 31  1  0  0  0  0
M  END
>  <MODEL>
1

>  <REMARK>
 VINA RESULT:      -6.5      0.000      0.000
  Name = 
  9 active torsions:
  status: ('A' for Active; 'I' for Inactive)
    1  A    between atoms: C_2  and  C_28
    2  A    between atoms: C_3  and  C_7
    3  A    between atoms: C_3  and  C_9
    4  A    between atoms: C_4  and  C_19
    5  A    between atoms: N_5  and  C_15
    6  A    between atoms: C_9  and  C_18
    7  A    between atoms: C_14  and  C_22
    8  A    between atoms: C_18  and  C_27
    9  A    between atoms: C_21  and  C_25
                            x       y       z     vdW  Elec       q    Type
                         _______ _______ _______ _____ _____    ______ ____

>  <TORSDO>
F 9

$$$$
=
 OpenBabel11042414023D

 31 33  0  0  1  0  0  0  0  0999 V2000
  190.5000  175.2800  142.4640 C   0  0  2  0  0  3  0  0  0  0  0  0
  192.2060  173.6160  143.2210 C   0  0  0  0  0  2  0  0  0  0  0  0
  190.5340  173.3040  140.8560 C   0  0  0  0  0  2  0  0  0  0  0  0
  189.7110  174.4300  141.4660 C   0  0  0  0  0  2  0  0  0  0  0  0
  190.6020  172.1400  141.8380 C   0  0  2  0  0  3  0  0  0  0  0  0
  191.8070  172.2060  142.7820 C   0  0  0  0  0  2  0  0  0  0  0  0
  191.0120  174.4550  143.6680 C   0  0  1  0  0  3  0  0  0  0  0  0
  189.7190  174.1200  146.1230 C   0  0  0  0  0  1  0  0  0  0  0  0
  191.9380  174.5650  145.8920 O   0  0  0  0  0  0  0  0  0  0  0  0
  191.4290  175.3190  144.8800 C   0  0  2  0  0  0  0  0  0  0  0  0
  190.7190  175.1800  146.1470 N   0  0  0  0  0  0  0  0  0  0  0  0
  192.2540  176.5990  144.6730 C   0  0  0  0  0  2  0  0  0  0  0  0
  193.7640  176.3730  144.6410 C   0  0  0  0  0  2  0  0  0  0  0  0
  194.0280  176.9840  146.9340 O   0  0  0  0  0  1  0  0  0  0  0  0
  194.4730  177.2690  145.6420 C   0  0  0  0  0  2  0  0  0  0  0  0
  188.3230  176.2520  143.3390 N   0  0  0  0  0  2  0  0  0  0  0  0
  189.6550  176.4520  142.8540 C   0  0  0  0  0  0  0  0  0  0  0  0
  190.1390  177.6120  142.7660 O   0  0  0  0  0  0  0  0  0  0  0  0
  187.0460  177.6410  144.9710 C   0  0  0  0  0  0  0  0  0  0  0  0
  186.9020  178.0570  142.5730 C   0  0  0  0  0  3  0  0  0  0  0  0
  185.6080  179.4080  144.0920 C   0  0  0  0  0  3  0  0  0  0  0  0
  187.4060  177.3120  143.6410 C   0  0  0  0  0  0  0  0  0  0  0  0
  186.1170  178.6970  145.1830 C   0  0  0  0  0  0  0  0  0  0  0  0
  186.0040  179.0980  142.7940 C   0  0  0  0  0  3  0  0  0  0  0  0
  188.5380  177.4550  146.9030 N   0  0  0  0  0  2  0  0  0  0  0  0
  187.7040  176.9080  146.0800 C   0  0  0  0  0  3  0  0  0  0  0  0
  185.6220  179.0900  146.5390 C   0  0  0  0  0  2  0  0  0  0  0  0
  184.3580  178.3200  146.8760 C   0  0  0  0  0  1  0  0  0  0  0  0
  190.4620  170.8040  139.8570 O   0  0  0  0  0  0  0  0  0  0  0  0
  190.5880  170.8380  141.1100 C   0  0  0  0  0  0  0  0  0  0  0  0
  190.7160  169.6530  141.8220 O   0  0  0  0  0  1  0  0  0  0  0  0
  1 17  1  1  0  0  0
  1  7  1  0  0  0  0
  3  4  1  0  0  0  0
  3  5  1  0  0  0  0
  4  1  1  0  0  0  0
  5 30  1  6  0  0  0
  5  6  1  0  0  0  0
  6  2  1  0  0  0  0
  7  2  1  6  0  0  0
  7 10  1  0  0  0  0
  8 11  1  0  0  0  0
  9 11  1  0  0  0  0
 10 12  1  6  0  0  0
 10  9  1  0  0  0  0
 10 11  1  0  0  0  0
 13 12  1  0  0  0  0
 13 15  1  0  0  0  0
 15 14  1  0  0  0  0
 16 22  1  0  0  0  0
 17 16  1  0  0  0  0
 18 17  2  0  0  0  0
 19 23  1  0  0  0  0
 19 26  1  0  0  0  0
 20 24  2  0  0  0  0
 20 22  1  0  0  0  0
 21 23  2  0  0  0  0
 22 19  2  0  0  0  0
 23 27  1  0  0  0  0
 24 21  1  0  0  0  0
 26 25  2  0  0  0  0
 27 28  1  0  0  0  0
 29 30  2  0  0  0  0
 30 31  1  0  0  0  0
M  END
>  <MODEL>
2

>  <REMARK>
 VINA RESULT:      -6.5      1.488      2.339
  Name = 
  9 active torsions:
  status: ('A' for Active; 'I' for Inactive)
    1  A    between atoms: C_2  and  C_28
    2  A    between atoms: C_3  and  C_7
    3  A    between atoms: C_3  and  C_9
    4  A    between atoms: C_4  and  C_19
    5  A    between atoms: N_5  and  C_15
    6  A    between atoms: C_9  and  C_18
    7  A    between atoms: C_14  and  C_22
    8  A    between atoms: C_18  and  C_27
    9  A    between atoms: C_21  and  C_25
                            x       y       z     vdW  Elec       q    Type
                         _______ _______ _______ _____ _____    ______ ____

>  <TORSDO>
F 9

$$$$
=
 OpenBabel11042414023D

 31 33  0  0  1  0  0  0  0  0999 V2000
  190.9020  175.4720  145.6310 C   0  0  2  0  0  3  0  0  0  0  0  0
  192.0790  174.1870  143.8390 C   0  0  0  0  0  2  0  0  0  0  0  0
  193.2630  174.9060  146.4010 C   0  0  0  0  0  2  0  0  0  0  0  0
  192.0890  175.8690  146.5110 C   0  0  0  0  0  2  0  0  0  0  0  0
  194.0570  175.2190  145.1390 C   0  0  2  0  0  3  0  0  0  0  0  0
  193.5880  174.4320  143.9110 C   0  0  0  0  0  2  0  0  0  0  0  0
  191.2630  175.4440  144.1280 C   0  0  1  0  0  3  0  0  0  0  0  0
  190.5790  177.8070  142.8000 C   0  0  0  0  0  1  0  0  0  0  0  0
  190.3790  175.7260  141.9010 O   0  0  0  0  0  0  0  0  0  0  0  0
  190.0330  175.4710  143.1920 C   0  0  2  0  0  0  0  0  0  0  0  0
  189.6450  176.7170  142.5410 N   0  0  0  0  0  0  0  0  0  0  0  0
  188.9730  174.3610  143.2730 C   0  0  0  0  0  2  0  0  0  0  0  0
  189.0580  173.3310  142.1490 C   0  0  0  0  0  2  0  0  0  0  0  0
  189.3420  171.9790  144.0960 O   0  0  0  0  0  1  0  0  0  0  0  0
  189.2530  171.9300  142.7040 C   0  0  0  0  0  2  0  0  0  0  0  0
  188.4410  175.8360  146.1450 N   0  0  0  0  0  2  0  0  0  0  0  0
  189.7530  176.3760  145.9550 C   0  0  0  0  0  0  0  0  0  0  0  0
  189.9620  177.6130  146.0740 O   0  0  0  0  0  0  0  0  0  0  0  0
  186.4890  177.1300  145.2840 C   0  0  0  0  0  0  0  0  0  0  0  0
  186.8690  176.8580  147.6770 C   0  0  0  0  0  3  0  0  0  0  0  0
  184.9890  178.1580  146.9130 C   0  0  0  0  0  3  0  0  0  0  0  0
  187.2650  176.6280  146.3580 C   0  0  0  0  0  0  0  0  0  0  0  0
  185.3450  177.9210  145.5820 C   0  0  0  0  0  0  0  0  0  0  0  0
  185.7390  177.6220  147.9560 C   0  0  0  0  0  3  0  0  0  0  0  0
  186.0890  176.1280  143.0870 N   0  0  0  0  0  2  0  0  0  0  0  0
  186.8740  176.7530  143.9010 C   0  0  0  0  0  3  0  0  0  0  0  0
  184.4900  178.5510  144.5280 C   0  0  0  0  0  2  0  0  0  0  0  0
  185.0650  179.8970  144.1250 C   0  0  0  0  0  1  0  0  0  0  0  0
  195.9210  174.4290  146.4140 O   0  0  0  0  0  1  0  0  0  0  0  0
  195.5150  174.9990  145.3660 C   0  0  0  0  0  0  0  0  0  0  0  0
  196.4300  175.4250  144.4140 O   0  0  0  0  0  0  0  0  0  0  0  0
  1 17  1  6  0  0  0
  1  4  1  0  0  0  0
  2  6  1  0  0  0  0
  3  4  1  0  0  0  0
  5 30  1  1  0  0  0
  5  3  1  0  0  0  0
  6  5  1  0  0  0  0
  7  2  1  1  0  0  0
  7  1  1  0  0  0  0
  9 11  1  0  0  0  0
  9 10  1  0  0  0  0
 10 12  1  1  0  0  0
 10  7  1  0  0  0  0
 11  8  1  0  0  0  0
 11 10  1  0  0  0  0
 13 15  1  0  0  0  0
 13 12  1  0  0  0  0
 15 14  1  0  0  0  0
 16 22  1  0  0  0  0
 17 18  2  0  0  0  0
 17 16  1  0  0  0  0
 19 23  2  0  0  0  0
 19 22  1  0  0  0  0
 20 24  1  0  0  0  0
 21 24  2  0  0  0  0
 22 20  2  0  0  0  0
 23 21  1  0  0  0  0
 25 26  2  0  0  0  0
 26 19  1  0  0  0  0
 27 23  1  0  0  0  0
 28 27  1  0  0  0  0
 30 29  1  0  0  0  0
 31 30  2  0  0  0  0
M  END
>  <MODEL>
3

>  <REMARK>
 VINA RESULT:      -6.3      1.688      4.251
  Name = 
  9 active torsions:
  status: ('A' for Active; 'I' for Inactive)
    1  A    between atoms: C_2  and  C_28
    2  A    between atoms: C_3  and  C_7
    3  A    between atoms: C_3  and  C_9
    4  A    between atoms: C_4  and  C_19
    5  A    between atoms: N_5  and  C_15
    6  A    between atoms: C_9  and  C_18
    7  A    between atoms: C_14  and  C_22
    8  A    between atoms: C_18  and  C_27
    9  A    between atoms: C_21  and  C_25
                            x       y       z     vdW  Elec       q    Type
                         _______ _______ _______ _____ _____    ______ ____

>  <TORSDO>
F 9

$$$$
=
 OpenBabel11042414023D

 31 33  0  0  1  0  0  0  0  0999 V2000
  187.9610  175.6340  143.4900 C   0  0  2  0  0  3  0  0  0  0  0  0
  187.6200  177.0940  145.4910 C   0  0  0  0  0  2  0  0  0  0  0  0
  185.6710  176.7410  143.3550 C   0  0  0  0  0  2  0  0  0  0  0  0
  186.8390  176.1430  142.5840 C   0  0  0  0  0  2  0  0  0  0  0  0
  186.0180  178.1650  143.7730 C   0  0  2  0  0  3  0  0  0  0  0  0
  186.6810  178.2530  145.1510 C   0  0  0  0  0  2  0  0  0  0  0  0
  188.5800  176.7590  144.3530 C   0  0  1  0  0  3  0  0  0  0  0  0
  190.8400  178.2280  143.6140 C   0  0  0  0  0  1  0  0  0  0  0  0
  190.4700  177.4080  145.7030 O   0  0  0  0  0  0  0  0  0  0  0  0
  189.9600  176.3970  144.9490 C   0  0  2  0  0  0  0  0  0  0  0  0
  191.1470  177.1300  144.5230 N   0  0  0  0  0  0  0  0  0  0  0  0
  190.1800  175.0350  145.6250 C   0  0  0  0  0  2  0  0  0  0  0  0
  189.9120  175.0320  147.1290 C   0  0  0  0  0  2  0  0  0  0  0  0
  192.2980  174.9570  147.1090 O   0  0  0  0  0  1  0  0  0  0  0  0
  191.1950  175.2470  147.9130 C   0  0  0  0  0  2  0  0  0  0  0  0
  188.9740  173.4790  142.6070 N   0  0  0  0  0  2  0  0  0  0  0  0
  188.9600  174.9110  142.6420 C   0  0  0  0  0  0  0  0  0  0  0  0
  189.7740  175.5780  141.9490 O   0  0  0  0  0  0  0  0  0  0  0  0
  189.7690  172.2890  140.5630 C   0  0  0  0  0  0  0  0  0  0  0  0
  191.1350  172.3850  142.5810 C   0  0  0  0  0  3  0  0  0  0  0  0
  191.9430  171.1810  140.6560 C   0  0  0  0  0  3  0  0  0  0  0  0
  189.9520  172.6990  141.9070 C   0  0  0  0  0  0  0  0  0  0  0  0
  190.7810  171.5030  139.9470 C   0  0  0  0  0  0  0  0  0  0  0  0
  192.1250  171.6270  141.9620 C   0  0  0  0  0  3  0  0  0  0  0  0
  188.5060  173.8510  139.1650 N   0  0  0  0  0  2  0  0  0  0  0  0
  188.5560  172.7540  139.8450 C   0  0  0  0  0  3  0  0  0  0  0  0
  190.6660  170.9660  138.5550 C   0  0  0  0  0  2  0  0  0  0  0  0
  190.1400  169.5430  138.5860 C   0  0  0  0  0  1  0  0  0  0  0  0
  184.8190  180.1780  144.2580 O   0  0  0  0  0  1  0  0  0  0  0  0
  184.8080  179.0360  143.7260 C   0  0  0  0  0  0  0  0  0  0  0  0
  183.6600  178.5830  143.0910 O   0  0  0  0  0  0  0  0  0  0  0  0
  1 17  1  6  0  0  0
  1  7  1  0  0  0  0
  3  5  1  0  0  0  0
  4  3  1  0  0  0  0
  4  1  1  0  0  0  0
  5 30  1  1  0  0  0
  5  6  1  0  0  0  0
  6  2  1  0  0  0  0
  7 10  1  0  0  0  0
  7  2  1  1  0  0  0
  8 11  1  0  0  0  0
 10 12  1  1  0  0  0
 10  9  1  0  0  0  0
 11 10  1  0  0  0  0
 11  9  1  0  0  0  0
 12 13  1  0  0  0  0
 13 15  1  0  0  0  0
 14 15  1  0  0  0  0
 16 17  1  0  0  0  0
 18 17  2  0  0  0  0
 19 22  1  0  0  0  0
 21 24  2  0  0  0  0
 22 20  2  0  0  0  0
 22 16  1  0  0  0  0
 23 19  2  0  0  0  0
 23 21  1  0  0  0  0
 24 20  1  0  0  0  0
 25 26  2  0  0  0  0
 26 19  1  0  0  0  0
 27 28  1  0  0  0  0
 27 23  1  0  0  0  0
 30 29  1  0  0  0  0
 31 30  2  0  0  0  0
M  END
>  <MODEL>
4

>  <REMARK>
 VINA RESULT:      -6.3      2.762      7.240
  Name = 
  9 active torsions:
  status: ('A' for Active; 'I' for Inactive)
    1  A    between atoms: C_2  and  C_28
    2  A    between atoms: C_3  and  C_7
    3  A    between atoms: C_3  and  C_9
    4  A    between atoms: C_4  and  C_19
    5  A    between atoms: N_5  and  C_15
    6  A    between atoms: C_9  and  C_18
    7  A    between atoms: C_14  and  C_22
    8  A    between atoms: C_18  and  C_27
    9  A    between atoms: C_21  and  C_25
                            x       y       z     vdW  Elec       q    Type
                         _______ _______ _______ _____ _____    ______ ____

>  <TORSDO>
F 9

$$$$
=
 OpenBabel11042414023D

 31 33  0  0  1  0  0  0  0  0999 V2000
  189.6430  175.7600  143.0140 C   0  0  2  0  0  3  0  0  0  0  0  0
  187.3130  175.6320  142.1160 C   0  0  0  0  0  2  0  0  0  0  0  0
  188.2040  177.5470  144.1210 C   0  0  0  0  0  2  0  0  0  0  0  0
  189.4130  176.6320  144.2510 C   0  0  0  0  0  2  0  0  0  0  0  0
  186.9360  176.7520  144.4110 C   0  0  2  0  0  3  0  0  0  0  0  0
  186.3110  176.1230  143.1610 C   0  0  0  0  0  2  0  0  0  0  0  0
  188.4510  174.8180  142.7250 C   0  0  1  0  0  3  0  0  0  0  0  0
  188.8970  172.2640  143.7700 C   0  0  0  0  0  1  0  0  0  0  0  0
  187.8480  172.6760  141.7940 O   0  0  0  0  0  0  0  0  0  0  0  0
  188.7990  173.6490  141.7750 C   0  0  2  0  0  0  0  0  0  0  0  0
  189.0830  172.3290  142.3250 N   0  0  0  0  0  0  0  0  0  0  0  0
  189.2760  173.9310  140.3420 C   0  0  0  0  0  2  0  0  0  0  0  0
  188.3620  173.3680  139.2550 C   0  0  0  0  0  2  0  0  0  0  0  0
  187.4740  175.0680  137.8330 O   0  0  0  0  0  1  0  0  0  0  0  0
  188.5130  174.1440  137.9580 C   0  0  0  0  0  2  0  0  0  0  0  0
  191.2400  174.3460  144.3930 N   0  0  0  0  0  2  0  0  0  0  0  0
  190.9480  175.0450  143.1780 C   0  0  0  0  0  0  0  0  0  0  0  0
  191.7750  175.0550  142.2280 O   0  0  0  0  0  0  0  0  0  0  0  0
  193.5950  174.4410  145.2120 C   0  0  0  0  0  0  0  0  0  0  0  0
  192.5990  172.3430  144.4660 C   0  0  0  0  0  3  0  0  0  0  0  0
  194.8930  172.3730  145.2040 C   0  0  0  0  0  3  0  0  0  0  0  0
  192.4960  173.7200  144.6820 C   0  0  0  0  0  0  0  0  0  0  0  0
  194.8120  173.7470  145.4550 C   0  0  0  0  0  0  0  0  0  0  0  0
  193.7910  171.6720  144.7220 C   0  0  0  0  0  3  0  0  0  0  0  0
  193.0000  176.2900  146.7020 N   0  0  0  0  0  2  0  0  0  0  0  0
  193.4000  175.8740  145.5450 C   0  0  0  0  0  3  0  0  0  0  0  0
  196.0510  174.4190  145.9560 C   0  0  0  0  0  2  0  0  0  0  0  0
  197.1250  173.3870  146.2430 C   0  0  0  0  0  1  0  0  0  0  0  0
  185.8600  178.8370  144.8830 O   0  0  0  0  0  0  0  0  0  0  0  0
  185.9330  177.6010  145.1180 C   0  0  0  0  0  0  0  0  0  0  0  0
  185.0730  177.0230  146.0410 O   0  0  0  0  0  1  0  0  0  0  0  0
  1 17  1  1  0  0  0
  1  4  1  0  0  0  0
  2  6  1  0  0  0  0
  3  4  1  0  0  0  0
  3  5  1  0  0  0  0
  5 30  1  6  0  0  0
  6  5  1  0  0  0  0
  7  2  1  6  0  0  0
  7  1  1  0  0  0  0
  9 11  1  0  0  0  0
 10 12  1  6  0  0  0
 10  9  1  0  0  0  0
 10 11  1  0  0  0  0
 10  7  1  0  0  0  0
 11  8  1  0  0  0  0
 13 12  1  0  0  0  0
 14 15  1  0  0  0  0
 15 13  1  0  0  0  0
 16 22  1  0  0  0  0
 17 16  1  0  0  0  0
 18 17  2  0  0  0  0
 19 23  1  0  0  0  0
 19 26  1  0  0  0  0
 20 22  1  0  0  0  0
 20 24  2  0  0  0  0
 21 23  2  0  0  0  0
 22 19  2  0  0  0  0
 23 27  1  0  0  0  0
 24 21  1  0  0  0  0
 26 25  2  0  0  0  0
 27 28  1  0  0  0  0
 29 30  2  0  0  0  0
 30 31  1  0  0  0  0
M  END
>  <MODEL>
5

>  <REMARK>
 VINA RESULT:      -6.2      2.981      8.040
  Name = 
  9 active torsions:
  status: ('A' for Active; 'I' for Inactive)
    1  A    between atoms: C_2  and  C_28
    2  A    between atoms: C_3  and  C_7
    3  A    between atoms: C_3  and  C_9
    4  A    between atoms: C_4  and  C_19
    5  A    between atoms: N_5  and  C_15
    6  A    between atoms: C_9  and  C_18
    7  A    between atoms: C_14  and  C_22
    8  A    between atoms: C_18  and  C_27
    9  A    between atoms: C_21  and  C_25
                            x       y       z     vdW  Elec       q    Type
                         _______ _______ _______ _____ _____    ______ ____

>  <TORSDO>
F 9

$$$$
=
 OpenBabel11042414023D

 31 33  0  0  1  0  0  0  0  0999 V2000
  192.1000  176.7870  144.4550 C   0  0  2  0  0  3  0  0  0  0  0  0
  193.3370  175.3030  146.0420 C   0  0  0  0  0  2  0  0  0  0  0  0
  194.2110  175.9090  143.3310 C   0  0  0  0  0  2  0  0  0  0  0  0
  192.7890  176.4170  143.1400 C   0  0  0  0  0  2  0  0  0  0  0  0
  194.1710  174.4460  143.7550 C   0  0  2  0  0  3  0  0  0  0  0  0
  194.1380  174.2500  145.2740 C   0  0  0  0  0  2  0  0  0  0  0  0
  191.9740  175.5810  145.4150 C   0  0  1  0  0  3  0  0  0  0  0  0
  189.7670  173.8760  145.6030 C   0  0  0  0  0  1  0  0  0  0  0  0
  190.8850  174.7290  147.3910 O   0  0  0  0  0  0  0  0  0  0  0  0
  190.9350  175.7900  146.5410 C   0  0  2  0  0  0  0  0  0  0  0  0
  189.7570  174.9330  146.6070 N   0  0  0  0  0  0  0  0  0  0  0  0
  190.8810  177.1190  147.3100 C   0  0  0  0  0  2  0  0  0  0  0  0
  191.5690  177.0840  148.6730 C   0  0  0  0  0  2  0  0  0  0  0  0
  191.5560  178.0900  150.8380 O   0  0  0  0  0  1  0  0  0  0  0  0
  191.1970  178.2980  149.5060 C   0  0  0  0  0  2  0  0  0  0  0  0
  189.7280  176.6750  143.5550 N   0  0  0  0  0  2  0  0  0  0  0  0
  190.7920  177.4390  144.1340 C   0  0  0  0  0  0  0  0  0  0  0  0
  190.6360  178.6620  144.3950 O   0  0  0  0  0  0  0  0  0  0  0  0
  187.3570  177.3260  143.9820 C   0  0  0  0  0  0  0  0  0  0  0  0
  188.4080  177.7260  141.8170 C   0  0  0  0  0  3  0  0  0  0  0  0
  186.1010  178.3390  142.1490 C   0  0  0  0  0  3  0  0  0  0  0  0
  188.4790  177.2300  143.1220 C   0  0  0  0  0  0  0  0  0  0  0  0
  186.1500  177.8750  143.4670 C   0  0  0  0  0  0  0  0  0  0  0  0
  187.2250  178.2740  141.3300 C   0  0  0  0  0  3  0  0  0  0  0  0
  187.4170  177.7150  146.3970 N   0  0  0  0  0  2  0  0  0  0  0  0
  187.5170  176.9050  145.3950 C   0  0  0  0  0  3  0  0  0  0  0  0
  184.8900  177.9690  144.2670 C   0  0  0  0  0  2  0  0  0  0  0  0
  184.6140  179.4140  144.6400 C   0  0  0  0  0  1  0  0  0  0  0  0
  196.2570  174.3090  142.5880 O   0  0  0  0  0  0  0  0  0  0  0  0
  195.3180  173.6960  143.1640 C   0  0  0  0  0  0  0  0  0  0  0  0
  195.3510  172.3110  143.2500 O   0  0  0  0  0  1  0  0  0  0  0  0
  1 17  1  6  0  0  0
  1  7  1  0  0  0  0
  3  5  1  0  0  0  0
  4  3  1  0  0  0  0
  4  1  1  0  0  0  0
  5 30  1  1  0  0  0
  5  6  1  0  0  0  0
  6  2  1  0  0  0  0
  7  2  1  1  0  0  0
  7 10  1  0  0  0  0
  8 11  1  0  0  0  0
 10 11  1  0  0  0  0
 10 12  1  1  0  0  0
 10  9  1  0  0  0  0
 11  9  1  0  0  0  0
 12 13  1  0  0  0  0
 13 15  1  0  0  0  0
 15 14  1  0  0  0  0
 16 17  1  0  0  0  0
 17 18  2  0  0  0  0
 19 26  1  0  0  0  0
 20 22  1  0  0  0  0
 21 23  2  0  0  0  0
 22 16  1  0  0  0  0
 22 19  2  0  0  0  0
 23 19  1  0  0  0  0
 23 27  1  0  0  0  0
 24 20  2  0  0  0  0
 24 21  1  0  0  0  0
 26 25  2  0  0  0  0
 27 28  1  0  0  0  0
 29 30  2  0  0  0  0
 30 31  1  0  0  0  0
M  END
>  <MODEL>
6

>  <REMARK>
 VINA RESULT:      -6.1      2.349      3.588
  Name = 
  9 active torsions:
  status: ('A' for Active; 'I' for Inactive)
    1  A    between atoms: C_2  and  C_28
    2  A    between atoms: C_3  and  C_7
    3  A    between atoms: C_3  and  C_9
    4  A    between atoms: C_4  and  C_19
    5  A    between atoms: N_5  and  C_15
    6  A    between atoms: C_9  and  C_18
    7  A    between atoms: C_14  and  C_22
    8  A    between atoms: C_18  and  C_27
    9  A    between atoms: C_21  and  C_25
                            x       y       z     vdW  Elec       q    Type
                         _______ _______ _______ _____ _____    ______ ____

>  <TORSDO>
F 9

$$$$
=
 OpenBabel11042414023D

 31 33  0  0  1  0  0  0  0  0999 V2000
  190.3160  176.5750  143.3620 C   0  0  2  0  0  3  0  0  0  0  0  0
  188.0970  175.6590  144.0590 C   0  0  0  0  0  2  0  0  0  0  0  0
  188.4560  177.9100  142.2460 C   0  0  0  0  0  2  0  0  0  0  0  0
  189.8850  177.9180  142.7690 C   0  0  0  0  0  2  0  0  0  0  0  0
  187.4910  178.0840  143.4130 C   0  0  2  0  0  3  0  0  0  0  0  0
  187.0340  176.7580  144.0300 C   0  0  0  0  0  2  0  0  0  0  0  0
  189.4460  176.1560  144.5700 C   0  0  1  0  0  3  0  0  0  0  0  0
  190.3440  176.7790  147.1430 C   0  0  0  0  0  1  0  0  0  0  0  0
  189.3600  174.8100  146.5690 O   0  0  0  0  0  0  0  0  0  0  0  0
  190.0890  175.0570  145.4470 C   0  0  2  0  0  0  0  0  0  0  0  0
  190.6040  175.3940  146.7690 N   0  0  0  0  0  0  0  0  0  0  0  0
  190.5880  173.7500  144.8100 C   0  0  0  0  0  2  0  0  0  0  0  0
  189.6340  172.5690  144.9750 C   0  0  0  0  0  2  0  0  0  0  0  0
  189.4940  172.8470  142.6080 O   0  0  0  0  0  1  0  0  0  0  0  0
  189.3330  171.9170  143.6360 C   0  0  0  0  0  2  0  0  0  0  0  0
  192.6880  175.7100  143.0790 N   0  0  0  0  0  2  0  0  0  0  0  0
  191.7790  176.6450  143.6710 C   0  0  0  0  0  0  0  0  0  0  0  0
  192.1990  177.5460  144.4450 O   0  0  0  0  0  0  0  0  0  0  0  0
  194.5800  174.8250  144.4440 C   0  0  0  0  0  0  0  0  0  0  0  0
  194.9690  176.3570  142.5860 C   0  0  0  0  0  3  0  0  0  0  0  0
  196.8370  175.5740  143.8910 C   0  0  0  0  0  3  0  0  0  0  0  0
  194.0850  175.6340  143.3910 C   0  0  0  0  0  0  0  0  0  0  0  0
  195.9800  174.8190  144.6970 C   0  0  0  0  0  0  0  0  0  0  0  0
  196.3380  176.3320  142.8350 C   0  0  0  0  0  3  0  0  0  0  0  0
  193.6140  172.6850  145.1330 N   0  0  0  0  0  2  0  0  0  0  0  0
  193.6190  173.9760  145.1900 C   0  0  0  0  0  3  0  0  0  0  0  0
  196.6040  174.0500  145.8180 C   0  0  0  0  0  2  0  0  0  0  0  0
  197.2200  172.7670  145.2910 C   0  0  0  0  0  1  0  0  0  0  0  0
  185.8490  179.7900  143.7610 O   0  0  0  0  0  1  0  0  0  0  0  0
  186.3090  178.8960  143.0010 C   0  0  0  0  0  0  0  0  0  0  0  0
  185.7110  178.6620  141.7710 O   0  0  0  0  0  0  0  0  0  0  0  0
  1 17  1  1  0  0  0
  1  7  1  0  0  0  0
  3  4  1  0  0  0  0
  3  5  1  0  0  0  0
  4  1  1  0  0  0  0
  5 30  1  6  0  0  0
  5  6  1  0  0  0  0
  6  2  1  0  0  0  0
  7  2  1  6  0  0  0
  7 10  1  0  0  0  0
  9 11  1  0  0  0  0
 10 12  1  6  0  0  0
 10  9  1  0  0  0  0
 10 11  1  0  0  0  0
 11  8  1  0  0  0  0
 12 13  1  0  0  0  0
 14 15  1  0  0  0  0
 15 13  1  0  0  0  0
 16 22  1  0  0  0  0
 16 17  1  0  0  0  0
 17 18  2  0  0  0  0
 19 23  1  0  0  0  0
 19 26  1  0  0  0  0
 20 24  2  0  0  0  0
 20 22  1  0  0  0  0
 21 23  2  0  0  0  0
 22 19  2  0  0  0  0
 23 27  1  0  0  0  0
 24 21  1  0  0  0  0
 25 26  2  0  0  0  0
 28 27  1  0  0  0  0
 30 29  1  0  0  0  0
 31 30  2  0  0  0  0
M  END
>  <MODEL>
7

>  <REMARK>
 VINA RESULT:      -6.1      2.647      7.606
  Name = 
  9 active torsions:
  status: ('A' for Active; 'I' for Inactive)
    1  A    between atoms: C_2  and  C_28
    2  A    between atoms: C_3  and  C_7
    3  A    between atoms: C_3  and  C_9
    4  A    between atoms: C_4  and  C_19
    5  A    between atoms: N_5  and  C_15
    6  A    between atoms: C_9  and  C_18
    7  A    between atoms: C_14  and  C_22
    8  A    between atoms: C_18  and  C_27
    9  A    between atoms: C_21  and  C_25
                            x       y       z     vdW  Elec       q    Type
                         _______ _______ _______ _____ _____    ______ ____

>  <TORSDO>
F 9

$$$$
=
 OpenBabel11042414023D

 31 33  0  0  1  0  0  0  0  0999 V2000
  187.6900  175.8970  143.7010 C   0  0  2  0  0  3  0  0  0  0  0  0
  188.2940  176.3490  146.0850 C   0  0  0  0  0  2  0  0  0  0  0  0
  185.6620  176.8250  144.9320 C   0  0  0  0  0  2  0  0  0  0  0  0
  186.3780  176.6780  143.5970 C   0  0  0  0  0  2  0  0  0  0  0  0
  186.3050  177.9550  145.7270 C   0  0  2  0  0  3  0  0  0  0  0  0
  187.4400  177.4880  146.6440 C   0  0  0  0  0  2  0  0  0  0  0  0
  188.7130  176.5830  144.6360 C   0  0  1  0  0  3  0  0  0  0  0  0
  190.6430  178.2910  143.5530 C   0  0  0  0  0  1  0  0  0  0  0  0
  191.0490  176.7800  145.2050 O   0  0  0  0  0  0  0  0  0  0  0  0
  190.1630  176.0810  144.4450 C   0  0  2  0  0  0  0  0  0  0  0  0
  191.1570  176.9550  143.8310 N   0  0  0  0  0  0  0  0  0  0  0  0
  190.4730  174.5770  144.4740 C   0  0  0  0  0  2  0  0  0  0  0  0
  191.4530  174.1600  145.5690 C   0  0  0  0  0  2  0  0  0  0  0  0
  193.6140  174.6390  144.6730 O   0  0  0  0  0  1  0  0  0  0  0  0
  192.7330  173.5990  144.9730 C   0  0  0  0  0  2  0  0  0  0  0  0
  188.2700  174.3290  141.7890 N   0  0  0  0  0  2  0  0  0  0  0  0
  188.2070  175.6580  142.3170 C   0  0  0  0  0  0  0  0  0  0  0  0
  188.5690  176.6440  141.6200 O   0  0  0  0  0  0  0  0  0  0  0  0
  189.9980  173.1810  140.4020 C   0  0  0  0  0  0  0  0  0  0  0  0
  188.1900  174.4520  139.3720 C   0  0  0  0  0  3  0  0  0  0  0  0
  189.8500  173.4050  137.9750 C   0  0  0  0  0  3  0  0  0  0  0  0
  188.8410  173.9910  140.5180 C   0  0  0  0  0  0  0  0  0  0  0  0
  190.5090  172.9060  139.1040 C   0  0  0  0  0  0  0  0  0  0  0  0
  188.6910  174.1650  138.1060 C   0  0  0  0  0  3  0  0  0  0  0  0
  190.1810  171.5000  142.1720 N   0  0  0  0  0  2  0  0  0  0  0  0
  190.5820  172.6080  141.6400 C   0  0  0  0  0  3  0  0  0  0  0  0
  191.7550  172.1140  138.8670 C   0  0  0  0  0  2  0  0  0  0  0  0
  191.4040  170.6790  138.5190 C   0  0  0  0  0  1  0  0  0  0  0  0
  184.0640  178.6680  146.1730 O   0  0  0  0  0  0  0  0  0  0  0  0
  185.2760  178.6940  146.5160 C   0  0  0  0  0  0  0  0  0  0  0  0
  185.6600  179.4160  147.6380 O   0  0  0  0  0  1  0  0  0  0  0  0
  1 17  1  6  0  0  0
  1  7  1  0  0  0  0
  2  6  1  0  0  0  0
  3  5  1  0  0  0  0
  4  1  1  0  0  0  0
  4  3  1  0  0  0  0
  5 30  1  1  0  0  0
  5  6  1  0  0  0  0
  7  2  1  1  0  0  0
  8 11  1  0  0  0  0
 10 12  1  6  0  0  0
 10  7  1  0  0  0  0
 10  9  1  0  0  0  0
 11 10  1  0  0  0  0
 11  9  1  0  0  0  0
 12 13  1  0  0  0  0
 14 15  1  0  0  0  0
 15 13  1  0  0  0  0
 16 17  1  0  0  0  0
 18 17  2  0  0  0  0
 19 22  1  0  0  0  0
 19 26  1  0  0  0  0
 20 22  2  0  0  0  0
 21 24  2  0  0  0  0
 21 23  1  0  0  0  0
 22 16  1  0  0  0  0
 23 19  2  0  0  0  0
 24 20  1  0  0  0  0
 26 25  2  0  0  0  0
 27 23  1  0  0  0  0
 28 27  1  0  0  0  0
 29 30  2  0  0  0  0
 30 31  1  0  0  0  0
M  END
>  <MODEL>
8

>  <REMARK>
 VINA RESULT:      -6.0      3.076      7.153
  Name = 
  9 active torsions:
  status: ('A' for Active; 'I' for Inactive)
    1  A    between atoms: C_2  and  C_28
    2  A    between atoms: C_3  and  C_7
    3  A    between atoms: C_3  and  C_9
    4  A    between atoms: C_4  and  C_19
    5  A    between atoms: N_5  and  C_15
    6  A    between atoms: C_9  and  C_18
    7  A    between atoms: C_14  and  C_22
    8  A    between atoms: C_18  and  C_27
    9  A    between atoms: C_21  and  C_25
                            x       y       z     vdW  Elec       q    Type
                         _______ _______ _______ _____ _____    ______ ____

>  <TORSDO>
F 9

$$$$
=
 OpenBabel11042414023D

 31 33  0  0  1  0  0  0  0  0999 V2000
  189.4540  174.5140  141.0940 C   0  0  2  0  0  3  0  0  0  0  0  0
  191.6630  173.4000  140.7300 C   0  0  0  0  0  2  0  0  0  0  0  0
  189.4660  173.3690  138.8190 C   0  0  0  0  0  2  0  0  0  0  0  0
  188.6260  173.8470  139.9940 C   0  0  0  0  0  2  0  0  0  0  0  0
  190.1190  172.0380  139.1730 C   0  0  2  0  0  3  0  0  0  0  0  0
  191.5040  172.1880  139.8110 C   0  0  0  0  0  2  0  0  0  0  0  0
  190.5010  173.5560  141.7080 C   0  0  1  0  0  3  0  0  0  0  0  0
  189.6840  172.2790  144.0560 C   0  0  0  0  0  1  0  0  0  0  0  0
  191.7870  173.0650  143.6890 O   0  0  0  0  0  0  0  0  0  0  0  0
  191.0530  174.0300  143.0720 C   0  0  2  0  0  0  0  0  0  0  0  0
  190.5860  173.3980  144.3010 N   0  0  0  0  0  0  0  0  0  0  0  0
  191.7250  175.4060  143.2010 C   0  0  0  0  0  2  0  0  0  0  0  0
  193.2390  175.3480  143.3940 C   0  0  0  0  0  2  0  0  0  0  0  0
  192.5240  176.4000  145.4150 O   0  0  0  0  0  1  0  0  0  0  0  0
  193.6340  175.8510  144.7730 C   0  0  0  0  0  2  0  0  0  0  0  0
  188.8080  176.3630  142.7110 N   0  0  0  0  0  2  0  0  0  0  0  0
  188.5150  175.1010  142.1000 C   0  0  0  0  0  0  0  0  0  0  0  0
  187.4590  174.4780  142.3890 O   0  0  0  0  0  0  0  0  0  0  0  0
  187.0410  177.9430  143.4910 C   0  0  0  0  0  0  0  0  0  0  0  0
  188.2250  176.4960  145.0580 C   0  0  0  0  0  3  0  0  0  0  0  0
  186.5610  178.0300  145.8840 C   0  0  0  0  0  3  0  0  0  0  0  0
  188.0240  176.9560  143.7540 C   0  0  0  0  0  0  0  0  0  0  0  0
  186.3180  178.4920  144.5860 C   0  0  0  0  0  0  0  0  0  0  0  0
  187.5010  177.0310  146.1190 C   0  0  0  0  0  3  0  0  0  0  0  0
  185.8570  177.7480  141.3590 N   0  0  0  0  0  2  0  0  0  0  0  0
  186.7720  178.3080  142.0790 C   0  0  0  0  0  3  0  0  0  0  0  0
  185.3020  179.5790  144.4320 C   0  0  0  0  0  2  0  0  0  0  0  0
  183.9130  179.0410  144.7260 C   0  0  0  0  0  1  0  0  0  0  0  0
  190.9980  171.4140  137.0370 O   0  0  0  0  0  0  0  0  0  0  0  0
  190.1970  171.1540  137.9730 C   0  0  0  0  0  0  0  0  0  0  0  0
  189.3780  170.0370  137.8900 O   0  0  0  0  0  1  0  0  0  0  0  0
  1  7  1  0  0  0  0
  1 17  1  1  0  0  0
  3  5  1  0  0  0  0
  3  4  1  0  0  0  0
  4  1  1  0  0  0  0
  5 30  1  6  0  0  0
  5  6  1  0  0  0  0
  6  2  1  0  0  0  0
  7  2  1  6  0  0  0
  7 10  1  0  0  0  0
  8 11  1  0  0  0  0
  9 11  1  0  0  0  0
 10 12  1  1  0  0  0
 10  9  1  0  0  0  0
 10 11  1  0  0  0  0
 12 13  1  0  0  0  0
 13 15  1  0  0  0  0
 15 14  1  0  0  0  0
 16 22  1  0  0  0  0
 17 18  2  0  0  0  0
 17 16  1  0  0  0  0
 19 22  2  0  0  0  0
 19 23  1  0  0  0  0
 20 24  2  0  0  0  0
 21 24  1  0  0  0  0
 22 20  1  0  0  0  0
 23 21  2  0  0  0  0
 25 26  2  0  0  0  0
 26 19  1  0  0  0  0
 27 23  1  0  0  0  0
 27 28  1  0  0  0  0
 29 30  2  0  0  0  0
 31 30  1  0  0  0  0
M  END
>  <MODEL>
9

>  <REMARK>
 VINA RESULT:      -6.0      2.580      3.410
  Name = 
  9 active torsions:
  status: ('A' for Active; 'I' for Inactive)
    1  A    between atoms: C_2  and  C_28
    2  A    between atoms: C_3  and  C_7
    3  A    between atoms: C_3  and  C_9
    4  A    between atoms: C_4  and  C_19
    5  A    between atoms: N_5  and  C_15
    6  A    between atoms: C_9  and  C_18
    7  A    between atoms: C_14  and  C_22
    8  A    between atoms: C_18  and  C_27
    9  A    between atoms: C_21  and  C_25
                            x       y       z     vdW  Elec       q    Type
                         _______ _______ _______ _____ _____    ______ ____

>  <TORSDO>
F 9

$$$$
