=
 OpenBabel11042419413D

 61 65  0  0  1  0  0  0  0  0999 V2000
  189.8110  174.4000  142.8410 C   0  0  0  0  0  0  0  0  0  0  0  0
  192.7790  172.1980  144.3230 O   0  0  0  0  0  0  0  0  0  0  0  0
  192.0310  170.3200  143.1200 N   0  0  0  0  0  2  0  0  0  0  0  0
  191.0660  170.3760  140.9420 N   0  0  0  0  0  0  0  0  0  0  0  0
  190.5370  173.2230  143.1120 C   0  0  0  0  0  3  0  0  0  0  0  0
  190.2580  172.5450  140.8100 C   0  0  0  0  0  0  0  0  0  0  0  0
  189.5140  173.6890  140.5140 C   0  0  0  0  0  3  0  0  0  0  0  0
  191.2720  170.9610  142.0830 C   0  0  0  0  0  0  0  0  0  0  0  0
  190.4220  171.2980  140.0020 C   0  0  1  0  0  3  0  0  0  0  0  0
  192.8260  170.9480  144.1370 C   0  0  0  0  0  0  0  0  0  0  0  0
  189.3090  174.6320  141.5380 C   0  0  0  0  0  3  0  0  0  0  0  0
  190.7670  172.3260  142.0660 C   0  0  0  0  0  0  0  0  0  0  0  0
  191.1130  170.6240  137.6630 C   0  0  0  0  0  0  0  0  0  0  0  0
  191.2910  171.4700  138.7730 C   0  0  0  0  0  0  0  0  0  0  0  0
  192.4180  172.3000  138.8120 C   0  0  0  0  0  3  0  0  0  0  0  0
  193.3510  172.2620  137.7710 C   0  0  0  0  0  3  0  0  0  0  0  0
  189.9910  169.6350  137.6200 C   0  0  0  0  0  1  0  0  0  0  0  0
  192.0340  170.6070  136.6580 N   0  0  0  0  0  0  0  0  0  0  0  0
  193.1530  171.3800  136.7090 C   0  0  0  0  0  0  0  0  0  0  0  0
  194.2030  171.2590  135.6500 C   0  0  0  0  0  2  0  0  0  0  0  0
  195.4620  171.8240  136.1220 N   0  0  0  0  0  0  0  0  0  0  0  0
  196.3830  170.8280  136.0870 O   0  0  0  0  0  1  0  0  0  0  0  0
  197.0050  174.4220  135.7850 C   0  0  1  0  0  0  0  0  0  0  0  0
  195.8470  172.8900  135.1920 C   0  0  1  0  0  3  0  0  0  0  0  0
  195.6260  174.1380  135.8200 O   0  0  0  0  0  0  0  0  0  0  0  0
  197.3490  173.1110  135.1230 C   0  0  0  0  0  2  0  0  0  0  0  0
  196.9700  176.8190  135.5150 O   0  0  0  0  0  1  0  0  0  0  0  0
  197.2600  175.6150  134.8670 C   0  0  0  0  0  2  0  0  0  0  0  0
  197.6150  174.6430  137.1760 C   0  0  0  0  0  2  0  0  0  0  0  0
  196.6650  174.3500  138.3420 C   0  0  0  0  0  2  0  0  0  0  0  0
  197.1260  173.1280  139.1200 C   0  0  0  0  0  2  0  0  0  0  0  0
  196.0770  172.6900  140.0320 N   0  0  0  0  0  2  0  0  0  0  0  0
  196.7000  172.1680  141.1130 O   0  0  0  0  0  1  0  0  0  0  0  0
  188.8360  176.5070  143.3850 O   0  0  0  0  0  1  0  0  0  0  0  0
  189.5580  175.4260  143.9060 C   0  0  2  0  0  3  0  0  0  0  0  0
  191.6910  176.5720  143.9660 C   0  0  0  0  0  3  0  0  0  0  0  0
  192.9450  177.1550  144.5330 C   0  0  0  0  0  2  0  0  0  0  0  0
  192.2120  175.2330  146.6480 C   0  0  0  0  0  3  0  0  0  0  0  0
  190.8020  175.8510  144.6630 C   0  0  0  0  0  0  0  0  0  0  0  0
  193.5360  175.2680  145.9940 C   0  0  0  0  0  3  0  0  0  0  0  0
  193.8860  176.0860  145.0040 C   0  0  0  0  0  0  0  0  0  0  0  0
  191.0050  175.5030  146.1090 C   0  0  0  0  0  0  0  0  0  0  0  0
  195.7720  174.7690  144.4520 O   0  0  0  0  0  0  0  0  0  0  0  0
  196.8120  175.4040  141.9470 O   0  0  0  0  0  0  0  0  0  0  0  0
  195.3180  176.0360  144.5420 C   0  0  0  0  0  2  0  0  0  0  0  0
  194.2650  174.5550  142.2930 O   0  0  0  0  0  0  0  0  0  0  0  0
  195.3960  175.3820  142.8610 P   0  0  0  0  0  0  0  0  0  0  0  0
  189.1580  174.2110  146.8430 O   0  0  0  0  0  1  0  0  0  0  0  0
  189.8160  175.4280  147.0290 C   0  0  2  0  0  3  0  0  0  0  0  0
  188.8430  176.5790  146.8040 C   0  0  0  0  0  2  0  0  0  0  0  0
  187.3940  176.1390  146.9670 C   0  0  0  0  0  2  0  0  0  0  0  0
  186.9380  178.1620  145.5660 C   0  0  0  0  0  1  0  0  0  0  0  0
  186.4610  177.3170  146.7350 C   0  0  0  0  0  3  0  0  0  0  0  0
  185.0600  176.8220  146.4580 C   0  0  0  0  0  1  0  0  0  0  0  0
  193.8290  170.1270  144.8890 C   0  0  0  0  0  2  0  0  0  0  0  0
  194.7140  168.6120  143.2760 O   0  0  0  0  0  0  0  0  0  0  0  0
  194.9210  169.6270  144.0030 C   0  0  0  0  0  0  0  0  0  0  0  0
  196.6760  171.3570  144.7530 C   0  0  0  0  0  0  0  0  0  0  0  0
  196.1880  170.3060  143.9030 N   0  0  0  0  0  2  0  0  0  0  0  0
  197.9300  172.0690  144.3820 C   0  0  0  0  0  1  0  0  0  0  0  0
  196.0630  171.6840  145.8430 N   0  0  0  0  0  2  0  0  0  0  0  0
  1  5  1  0  0  0  0
  1 35  1  0  0  0  0
  3 10  1  0  0  0  0
  4  8  2  0  0  0  0
  6 12  1  0  0  0  0
  7  6  2  0  0  0  0
  7 11  1  0  0  0  0
  8  3  1  0  0  0  0
  9 14  1  6  0  0  0
  9  6  1  0  0  0  0
  9  4  1  0  0  0  0
 10  2  2  0  0  0  0
 10 55  1  0  0  0  0
 11  1  2  0  0  0  0
 12  8  1  0  0  0  0
 12  5  2  0  0  0  0
 13 14  1  0  0  0  0
 14 15  2  0  0  0  0
 16 15  1  0  0  0  0
 17 13  1  0  0  0  0
 18 19  1  0  0  0  0
 18 13  2  0  0  0  0
 19 16  2  0  0  0  0
 20 21  1  0  0  0  0
 20 19  1  0  0  0  0
 22 21  1  0  0  0  0
 23 28  1  6  0  0  0
 23 25  1  0  0  0  0
 23 29  1  0  0  0  0
 24 25  1  0  0  0  0
 24 21  1  1  0  0  0
 26 24  1  0  0  0  0
 26 23  1  0  0  0  0
 28 27  1  0  0  0  0
 29 30  1  0  0  0  0
 30 31  1  0  0  0  0
 31 32  1  0  0  0  0
 32 33  1  0  0  0  0
 35 34  1  6  0  0  0
 35 39  1  0  0  0  0
 36 37  1  0  0  0  0
 36 39  2  0  0  0  0
 37 41  1  0  0  0  0
 39 42  1  0  0  0  0
 40 38  1  0  0  0  0
 41 40  2  0  0  0  0
 42 38  2  0  0  0  0
 42 49  1  0  0  0  0
 43 45  1  0  0  0  0
 44 47  2  0  0  0  0
 45 41  1  0  0  0  0
 46 47  2  0  0  0  0
 47 43  1  0  0  0  0
 49 48  1  6  0  0  0
 50 51  1  0  0  0  0
 50 49  1  0  0  0  0
 52 53  1  0  0  0  0
 53 51  1  0  0  0  0
 54 53  1  0  0  0  0
 56 57  2  0  0  0  0
 57 55  1  0  0  0  0
 58 61  2  0  0  0  0
 59 57  1  0  0  0  0
 59 58  1  0  0  0  0
 60 58  1  0  0  0  0
M  END
>  <MODEL>
1

>  <REMARK>
 VINA RESULT:      -6.4      0.000      0.000
  Name = 
  18 active torsions:
  status: ('A' for Active; 'I' for Inactive)
    1  A    between atoms: C_2  and  C_40
    2  A    between atoms: C_7  and  C_30
    3  A    between atoms: C_7  and  C_49
    4  A    between atoms: N_11  and  C_36
    5  A    between atoms: C_15  and  C_18
    6  A    between atoms: C_17  and  C_41
    7  A    between atoms: C_18  and  C_48
    8  A    between atoms: C_20  and  C_40
    9  A    between atoms: C_21  and  C_22
   10  A    between atoms: C_21  and  C_53
   11  A    between atoms: C_22  and  C_46
   12  A    between atoms: C_23  and  C_30
   13  A    between atoms: N_24  and  C_38
   14  A    between atoms: N_24  and  C_43
   15  A    between atoms: C_32  and  C_44
   16  A    between atoms: C_36  and  C_49
   17  A    between atoms: C_38  and  C_58
   18  A    between atoms: C_42  and  C_53
                            x       y       z     vdW  Elec       q    Type
                         _______ _______ _______ _____ _____    ______ ____

>  <TORSDO>
F 18

$$$$
=
 OpenBabel11042419413D

 61 65  0  0  1  0  0  0  0  0999 V2000
  192.8970  170.5630  142.2970 C   0  0  0  0  0  0  0  0  0  0  0  0
  194.9370  173.9070  141.5830 O   0  0  0  0  0  0  0  0  0  0  0  0
  193.8020  174.2040  139.5440 N   0  0  0  0  0  2  0  0  0  0  0  0
  191.5170  173.6550  139.1480 N   0  0  0  0  0  0  0  0  0  0  0  0
  193.3570  171.6610  141.5420 C   0  0  0  0  0  3  0  0  0  0  0  0
  191.1020  172.0510  140.7690 C   0  0  0  0  0  0  0  0  0  0  0  0
  190.6170  170.9540  141.4860 C   0  0  0  0  0  3  0  0  0  0  0  0
  192.6240  173.4180  139.7860 C   0  0  0  0  0  0  0  0  0  0  0  0
  190.4270  172.8410  139.6950 C   0  0  1  0  0  3  0  0  0  0  0  0
  194.8620  174.4980  140.4670 C   0  0  0  0  0  0  0  0  0  0  0  0
  191.5240  170.2200  142.2720 C   0  0  0  0  0  3  0  0  0  0  0  0
  192.4290  172.4020  140.8090 C   0  0  0  0  0  0  0  0  0  0  0  0
  188.3770  174.2680  139.2910 C   0  0  0  0  0  0  0  0  0  0  0  0
  189.3160  173.7400  140.1970 C   0  0  0  0  0  0  0  0  0  0  0  0
  189.3440  174.2400  141.5040 C   0  0  0  0  0  3  0  0  0  0  0  0
  188.4640  175.2580  141.8820 C   0  0  0  0  0  3  0  0  0  0  0  0
  188.3770  173.8550  137.8520 C   0  0  0  0  0  1  0  0  0  0  0  0
  187.5270  175.2580  139.6830 N   0  0  0  0  0  0  0  0  0  0  0  0
  187.5760  175.7780  140.9400 C   0  0  0  0  0  0  0  0  0  0  0  0
  186.7110  176.9410  141.3110 C   0  0  0  0  0  2  0  0  0  0  0  0
  187.1080  177.4720  142.6100 N   0  0  0  0  0  0  0  0  0  0  0  0
  187.5230  178.7470  142.4090 O   0  0  0  0  0  1  0  0  0  0  0  0
  186.0940  177.5490  145.4750 C   0  0  1  0  0  0  0  0  0  0  0  0
  185.9240  177.4630  143.4750 C   0  0  1  0  0  3  0  0  0  0  0  0
  186.1290  176.5240  144.5110 O   0  0  0  0  0  0  0  0  0  0  0  0
  185.8830  178.6320  144.4460 C   0  0  0  0  0  2  0  0  0  0  0  0
  184.8990  178.2670  147.4440 O   0  0  0  0  0  1  0  0  0  0  0  0
  184.8750  177.3660  146.3750 C   0  0  0  0  0  2  0  0  0  0  0  0
  187.3870  177.6570  146.2950 C   0  0  0  0  0  2  0  0  0  0  0  0
  188.0440  176.3130  146.6290 C   0  0  0  0  0  2  0  0  0  0  0  0
  189.5510  176.4650  146.7560 C   0  0  0  0  0  2  0  0  0  0  0  0
  190.0680  177.2700  145.6570 N   0  0  0  0  0  2  0  0  0  0  0  0
  190.2860  176.4220  144.6270 O   0  0  0  0  0  1  0  0  0  0  0  0
  193.1530  168.6660  143.7190 O   0  0  0  0  0  1  0  0  0  0  0  0
  193.8310  169.7450  143.1390 C   0  0  2  0  0  3  0  0  0  0  0  0
  193.9310  171.4480  144.8580 C   0  0  0  0  0  3  0  0  0  0  0  0
  194.5010  172.2950  145.9490 C   0  0  0  0  0  2  0  0  0  0  0  0
  196.9640  171.3410  144.6340 C   0  0  0  0  0  3  0  0  0  0  0  0
  194.6300  170.5550  144.1420 C   0  0  0  0  0  0  0  0  0  0  0  0
  196.6660  172.7660  144.8840 C   0  0  0  0  0  3  0  0  0  0  0  0
  195.5460  173.2360  145.4280 C   0  0  0  0  0  0  0  0  0  0  0  0
  196.1040  170.3460  144.3340 C   0  0  0  0  0  0  0  0  0  0  0  0
  195.6080  175.4360  144.5580 O   0  0  0  0  0  0  0  0  0  0  0  0
  193.4180  176.9560  145.3640 O   0  0  0  0  0  0  0  0  0  0  0  0
  195.4770  174.7170  145.6920 C   0  0  0  0  0  2  0  0  0  0  0  0
  193.1550  174.6500  143.9700 O   0  0  0  0  0  0  0  0  0  0  0  0
  193.9300  175.3840  145.0410 P   0  0  0  0  0  0  0  0  0  0  0  0
  197.8900  168.8840  144.8710 O   0  0  0  0  0  1  0  0  0  0  0  0
  196.6860  168.9670  144.1720 C   0  0  2  0  0  3  0  0  0  0  0  0
  196.9140  168.6100  142.7080 C   0  0  0  0  0  2  0  0  0  0  0  0
  197.9410  169.5260  142.0530 C   0  0  0  0  0  2  0  0  0  0  0  0
  196.1040  169.3510  140.3620 C   0  0  0  0  0  1  0  0  0  0  0  0
  197.4100  170.0380  140.7230 C   0  0  0  0  0  3  0  0  0  0  0  0
  197.1900  171.5320  140.7940 C   0  0  0  0  0  1  0  0  0  0  0  0
  195.8060  175.6200  140.1600 C   0  0  0  0  0  2  0  0  0  0  0  0
  197.9140  175.1450  141.1680 O   0  0  0  0  0  0  0  0  0  0  0  0
  197.2240  175.1600  140.1060 C   0  0  0  0  0  0  0  0  0  0  0  0
  197.2690  174.7600  137.5620 C   0  0  0  0  0  0  0  0  0  0  0  0
  197.8170  174.6690  138.8880 N   0  0  0  0  0  2  0  0  0  0  0  0
  197.9350  174.0280  136.4490 C   0  0  0  0  0  1  0  0  0  0  0  0
  196.2250  175.4770  137.3090 N   0  0  0  0  0  2  0  0  0  0  0  0
  1 35  1  0  0  0  0
  3  8  1  0  0  0  0
  3 10  1  0  0  0  0
  4  9  1  0  0  0  0
  4  8  2  0  0  0  0
  5  1  2  0  0  0  0
  6 12  2  0  0  0  0
  6  7  1  0  0  0  0
  7 11  2  0  0  0  0
  8 12  1  0  0  0  0
  9 14  1  1  0  0  0
  9  6  1  0  0  0  0
 10  2  2  0  0  0  0
 11  1  1  0  0  0  0
 12  5  1  0  0  0  0
 13 18  2  0  0  0  0
 13 14  1  0  0  0  0
 14 15  2  0  0  0  0
 15 16  1  0  0  0  0
 17 13  1  0  0  0  0
 18 19  1  0  0  0  0
 19 20  1  0  0  0  0
 19 16  2  0  0  0  0
 20 21  1  0  0  0  0
 22 21  1  0  0  0  0
 23 29  1  1  0  0  0
 23 28  1  0  0  0  0
 24 21  1  6  0  0  0
 24 26  1  0  0  0  0
 24 25  1  0  0  0  0
 25 23  1  0  0  0  0
 26 23  1  0  0  0  0
 28 27  1  0  0  0  0
 29 30  1  0  0  0  0
 30 31  1  0  0  0  0
 32 31  1  0  0  0  0
 33 32  1  0  0  0  0
 35 34  1  1  0  0  0
 35 39  1  0  0  0  0
 36 37  1  0  0  0  0
 38 40  1  0  0  0  0
 39 42  1  0  0  0  0
 39 36  2  0  0  0  0
 40 41  2  0  0  0  0
 41 45  1  0  0  0  0
 41 37  1  0  0  0  0
 42 38  2  0  0  0  0
 43 47  1  0  0  0  0
 43 45  1  0  0  0  0
 46 47  2  0  0  0  0
 47 44  2  0  0  0  0
 49 42  1  0  0  0  0
 49 48  1  1  0  0  0
 50 49  1  0  0  0  0
 51 50  1  0  0  0  0
 52 53  1  0  0  0  0
 53 54  1  0  0  0  0
 53 51  1  0  0  0  0
 55 10  1  0  0  0  0
 57 55  1  0  0  0  0
 57 56  2  0  0  0  0
 58 59  1  0  0  0  0
 59 57  1  0  0  0  0
 60 58  1  0  0  0  0
 61 58  2  0  0  0  0
M  END
>  <MODEL>
2

>  <REMARK>
 VINA RESULT:      -6.4      2.874      8.944
  Name = 
  18 active torsions:
  status: ('A' for Active; 'I' for Inactive)
    1  A    between atoms: C_2  and  C_40
    2  A    between atoms: C_7  and  C_30
    3  A    between atoms: C_7  and  C_49
    4  A    between atoms: N_11  and  C_36
    5  A    between atoms: C_15  and  C_18
    6  A    between atoms: C_17  and  C_41
    7  A    between atoms: C_18  and  C_48
    8  A    between atoms: C_20  and  C_40
    9  A    between atoms: C_21  and  C_22
   10  A    between atoms: C_21  and  C_53
   11  A    between atoms: C_22  and  C_46
   12  A    between atoms: C_23  and  C_30
   13  A    between atoms: N_24  and  C_38
   14  A    between atoms: N_24  and  C_43
   15  A    between atoms: C_32  and  C_44
   16  A    between atoms: C_36  and  C_49
   17  A    between atoms: C_38  and  C_58
   18  A    between atoms: C_42  and  C_53
                            x       y       z     vdW  Elec       q    Type
                         _______ _______ _______ _____ _____    ______ ____

>  <TORSDO>
F 18

$$$$
=
 OpenBabel11042419413D

 61 65  0  0  1  0  0  0  0  0999 V2000
  188.1150  175.2210  140.7670 C   0  0  0  0  0  0  0  0  0  0  0  0
  190.6170  173.5100  143.3500 O   0  0  0  0  0  0  0  0  0  0  0  0
  190.3550  171.4320  142.2790 N   0  0  0  0  0  2  0  0  0  0  0  0
  190.0760  171.1180  139.9330 N   0  0  0  0  0  0  0  0  0  0  0  0
  188.7870  174.1600  141.4080 C   0  0  0  0  0  3  0  0  0  0  0  0
  189.2370  173.1680  139.2510 C   0  0  0  0  0  0  0  0  0  0  0  0
  188.5570  174.1910  138.5860 C   0  0  0  0  0  3  0  0  0  0  0  0
  189.9050  171.8620  140.9840 C   0  0  0  0  0  0  0  0  0  0  0  0
  189.6950  171.8480  138.7210 C   0  0  1  0  0  3  0  0  0  0  0  0
  190.7800  172.2560  143.3750 C   0  0  0  0  0  0  0  0  0  0  0  0
  188.0110  175.2360  139.3550 C   0  0  0  0  0  3  0  0  0  0  0  0
  189.3610  173.1610  140.6190 C   0  0  0  0  0  0  0  0  0  0  0  0
  190.6990  171.7250  136.4010 C   0  0  0  0  0  0  0  0  0  0  0  0
  190.8790  171.9390  137.7810 C   0  0  0  0  0  0  0  0  0  0  0  0
  192.1830  172.0030  138.2860 C   0  0  0  0  0  3  0  0  0  0  0  0
  193.2740  171.8340  137.4300 C   0  0  0  0  0  3  0  0  0  0  0  0
  189.3320  171.5340  135.8230 C   0  0  0  0  0  1  0  0  0  0  0  0
  191.7780  171.5670  135.5840 N   0  0  0  0  0  0  0  0  0  0  0  0
  193.0480  171.5860  136.0760 C   0  0  0  0  0  0  0  0  0  0  0  0
  194.2100  171.2970  135.1790 C   0  0  0  0  0  2  0  0  0  0  0  0
  195.4580  171.6770  135.8300 N   0  0  0  0  0  0  0  0  0  0  0  0
  196.2860  170.6060  135.7590 O   0  0  0  0  0  1  0  0  0  0  0  0
  197.1680  174.1870  135.9790 C   0  0  1  0  0  0  0  0  0  0  0  0
  196.0280  172.7990  135.0770 C   0  0  1  0  0  3  0  0  0  0  0  0
  195.7850  173.9930  135.7930 O   0  0  0  0  0  0  0  0  0  0  0  0
  197.5340  172.9240  135.2390 C   0  0  0  0  0  2  0  0  0  0  0  0
  197.1280  176.5960  135.8520 O   0  0  0  0  0  1  0  0  0  0  0  0
  197.6150  175.4410  135.2320 C   0  0  0  0  0  2  0  0  0  0  0  0
  197.5820  174.2340  137.4560 C   0  0  0  0  0  2  0  0  0  0  0  0
  196.4560  173.9120  138.4440 C   0  0  0  0  0  2  0  0  0  0  0  0
  195.8310  175.1870  138.9850 C   0  0  0  0  0  2  0  0  0  0  0  0
  194.3910  175.0180  139.1260 N   0  0  0  0  0  2  0  0  0  0  0  0
  193.8400  175.4120  137.9560 O   0  0  0  0  0  1  0  0  0  0  0  0
  186.9750  177.3130  140.6850 O   0  0  0  0  0  1  0  0  0  0  0  0
  187.5070  176.3480  141.5490 C   0  0  2  0  0  3  0  0  0  0  0  0
  189.6040  177.3940  142.1600 C   0  0  0  0  0  3  0  0  0  0  0  0
  190.6250  178.0770  143.0120 C   0  0  0  0  0  2  0  0  0  0  0  0
  188.8890  176.8740  145.0710 C   0  0  0  0  0  3  0  0  0  0  0  0
  188.4260  176.9340  142.6040 C   0  0  0  0  0  0  0  0  0  0  0  0
  190.3520  176.6770  145.0140 C   0  0  0  0  0  3  0  0  0  0  0  0
  191.1590  177.1620  144.0730 C   0  0  0  0  0  0  0  0  0  0  0  0
  188.0220  177.0150  144.0470 C   0  0  0  0  0  0  0  0  0  0  0  0
  192.9260  175.6300  144.4260 O   0  0  0  0  0  0  0  0  0  0  0  0
  194.9630  175.9090  142.5460 O   0  0  0  0  0  0  0  0  0  0  0  0
  192.6370  176.9350  144.2500 C   0  0  0  0  0  2  0  0  0  0  0  0
  192.4100  175.3340  141.8530 O   0  0  0  0  0  0  0  0  0  0  0  0
  193.3070  176.1090  142.7910 P   0  0  0  0  0  0  0  0  0  0  0  0
  185.7890  176.2520  143.8240 O   0  0  0  0  0  1  0  0  0  0  0  0
  186.5780  177.2460  144.4030 C   0  0  2  0  0  3  0  0  0  0  0  0
  186.0900  178.6190  143.9540 C   0  0  0  0  0  2  0  0  0  0  0  0
  185.5320  179.4310  145.1150 C   0  0  0  0  0  2  0  0  0  0  0  0
  186.0850  179.3690  147.5550 C   0  0  0  0  0  1  0  0  0  0  0  0
  185.5170  178.5900  146.3810 C   0  0  0  0  0  3  0  0  0  0  0  0
  184.1030  178.1600  146.7000 C   0  0  0  0  0  1  0  0  0  0  0  0
  191.5540  171.6340  144.4970 C   0  0  0  0  0  2  0  0  0  0  0  0
  192.4480  169.7050  143.4190 O   0  0  0  0  0  0  0  0  0  0  0  0
  192.6900  170.8030  144.0000 C   0  0  0  0  0  0  0  0  0  0  0  0
  194.5500  172.3610  144.8660 C   0  0  0  0  0  0  0  0  0  0  0  0
  194.0570  171.2460  144.1050 N   0  0  0  0  0  2  0  0  0  0  0  0
  195.9680  172.7830  144.7040 C   0  0  0  0  0  1  0  0  0  0  0  0
  193.7960  172.9940  145.7030 N   0  0  0  0  0  2  0  0  0  0  0  0
  1  5  1  0  0  0  0
  1 35  1  0  0  0  0
  2 10  2  0  0  0  0
  3 10  1  0  0  0  0
  4  8  2  0  0  0  0
  6 12  1  0  0  0  0
  7  6  2  0  0  0  0
  7 11  1  0  0  0  0
  8  3  1  0  0  0  0
  9 14  1  6  0  0  0
  9  6  1  0  0  0  0
  9  4  1  0  0  0  0
 10 55  1  0  0  0  0
 11  1  2  0  0  0  0
 12  8  1  0  0  0  0
 12  5  2  0  0  0  0
 13 14  1  0  0  0  0
 14 15  2  0  0  0  0
 16 15  1  0  0  0  0
 17 13  1  0  0  0  0
 18 19  1  0  0  0  0
 18 13  2  0  0  0  0
 19 16  2  0  0  0  0
 20 21  1  0  0  0  0
 20 19  1  0  0  0  0
 22 21  1  0  0  0  0
 23 28  1  6  0  0  0
 23 29  1  0  0  0  0
 24 26  1  0  0  0  0
 24 25  1  0  0  0  0
 24 21  1  1  0  0  0
 25 23  1  0  0  0  0
 26 23  1  0  0  0  0
 28 27  1  0  0  0  0
 29 30  1  0  0  0  0
 30 31  1  0  0  0  0
 31 32  1  0  0  0  0
 33 32  1  0  0  0  0
 35 34  1  6  0  0  0
 35 39  1  0  0  0  0
 36 39  2  0  0  0  0
 36 37  1  0  0  0  0
 37 41  1  0  0  0  0
 39 42  1  0  0  0  0
 40 38  1  0  0  0  0
 41 45  1  0  0  0  0
 41 40  2  0  0  0  0
 42 49  1  0  0  0  0
 42 38  2  0  0  0  0
 44 47  2  0  0  0  0
 45 43  1  0  0  0  0
 46 47  2  0  0  0  0
 47 43  1  0  0  0  0
 49 48  1  6  0  0  0
 50 49  1  0  0  0  0
 50 51  1  0  0  0  0
 51 53  1  0  0  0  0
 53 54  1  0  0  0  0
 53 52  1  0  0  0  0
 56 57  2  0  0  0  0
 57 59  1  0  0  0  0
 57 55  1  0  0  0  0
 58 61  2  0  0  0  0
 59 58  1  0  0  0  0
 60 58  1  0  0  0  0
M  END
>  <MODEL>
3

>  <REMARK>
 VINA RESULT:      -6.3      1.829      2.542
  Name = 
  18 active torsions:
  status: ('A' for Active; 'I' for Inactive)
    1  A    between atoms: C_2  and  C_40
    2  A    between atoms: C_7  and  C_30
    3  A    between atoms: C_7  and  C_49
    4  A    between atoms: N_11  and  C_36
    5  A    between atoms: C_15  and  C_18
    6  A    between atoms: C_17  and  C_41
    7  A    between atoms: C_18  and  C_48
    8  A    between atoms: C_20  and  C_40
    9  A    between atoms: C_21  and  C_22
   10  A    between atoms: C_21  and  C_53
   11  A    between atoms: C_22  and  C_46
   12  A    between atoms: C_23  and  C_30
   13  A    between atoms: N_24  and  C_38
   14  A    between atoms: N_24  and  C_43
   15  A    between atoms: C_32  and  C_44
   16  A    between atoms: C_36  and  C_49
   17  A    between atoms: C_38  and  C_58
   18  A    between atoms: C_42  and  C_53
                            x       y       z     vdW  Elec       q    Type
                         _______ _______ _______ _____ _____    ______ ____

>  <TORSDO>
F 18

$$$$
=
 OpenBabel11042419413D

 61 65  0  0  1  0  0  0  0  0999 V2000
  189.9760  172.7590  141.2480 C   0  0  0  0  0  0  0  0  0  0  0  0
  190.1650  173.6460  145.1250 O   0  0  0  0  0  0  0  0  0  0  0  0
  190.2050  175.9450  144.6320 N   0  0  0  0  0  2  0  0  0  0  0  0
  189.0210  176.9910  142.8470 N   0  0  0  0  0  0  0  0  0  0  0  0
  190.1430  173.5830  142.3800 C   0  0  0  0  0  3  0  0  0  0  0  0
  188.7070  175.2380  141.3630 C   0  0  0  0  0  0  0  0  0  0  0  0
  188.5400  174.4580  140.2170 C   0  0  0  0  0  3  0  0  0  0  0  0
  189.6210  175.9400  143.3200 C   0  0  0  0  0  0  0  0  0  0  0  0
  188.3640  176.6780  141.5750 C   0  0  1  0  0  3  0  0  0  0  0  0
  190.3720  174.8300  145.5200 C   0  0  0  0  0  0  0  0  0  0  0  0
  189.1660  173.1980  140.1730 C   0  0  0  0  0  3  0  0  0  0  0  0
  189.4730  174.8070  142.4180 C   0  0  0  0  0  0  0  0  0  0  0  0
  186.1710  177.4520  140.5760 C   0  0  0  0  0  0  0  0  0  0  0  0
  186.8770  176.9460  141.6850 C   0  0  0  0  0  0  0  0  0  0  0  0
  186.2410  176.9200  142.9310 C   0  0  0  0  0  3  0  0  0  0  0  0
  184.9380  177.4100  143.0620 C   0  0  0  0  0  3  0  0  0  0  0  0
  186.8380  177.6110  139.2460 C   0  0  0  0  0  1  0  0  0  0  0  0
  184.9010  177.9210  140.7270 N   0  0  0  0  0  0  0  0  0  0  0  0
  184.2910  177.9370  141.9450 C   0  0  0  0  0  0  0  0  0  0  0  0
  182.9410  178.5610  142.1050 C   0  0  0  0  0  2  0  0  0  0  0  0
  182.1860  178.4570  140.8610 N   0  0  0  0  0  0  0  0  0  0  0  0
  182.6190  177.3400  140.2250 O   0  0  0  0  0  1  0  0  0  0  0  0
  179.4500  179.7830  140.8360 C   0  0  1  0  0  0  0  0  0  0  0  0
  180.7690  178.3140  141.2110 C   0  0  1  0  0  3  0  0  0  0  0  0
  180.3490  179.4870  141.8790 O   0  0  0  0  0  0  0  0  0  0  0  0
  179.8350  178.5620  140.0380 C   0  0  0  0  0  2  0  0  0  0  0  0
  177.9940  179.4790  142.7350 O   0  0  0  0  0  1  0  0  0  0  0  0
  178.0170  179.7020  141.3550 C   0  0  0  0  0  2  0  0  0  0  0  0
  179.7280  181.1320  140.1580 C   0  0  0  0  0  2  0  0  0  0  0  0
  178.5280  181.7330  139.4190 C   0  0  0  0  0  2  0  0  0  0  0  0
  178.6830  183.2380  139.2700 C   0  0  0  0  0  2  0  0  0  0  0  0
  178.7250  183.6000  137.8590 N   0  0  0  0  0  2  0  0  0  0  0  0
  180.0240  183.5430  137.4860 O   0  0  0  0  0  1  0  0  0  0  0  0
  190.1740  170.5700  142.1710 O   0  0  0  0  0  1  0  0  0  0  0  0
  190.6350  171.4150  141.1540 C   0  0  2  0  0  3  0  0  0  0  0  0
  192.8070  171.1930  142.2020 C   0  0  0  0  0  3  0  0  0  0  0  0
  194.2950  171.1180  142.3230 C   0  0  0  0  0  2  0  0  0  0  0  0
  194.0120  172.4900  139.7270 C   0  0  0  0  0  3  0  0  0  0  0  0
  192.1480  171.4730  141.0680 C   0  0  0  0  0  0  0  0  0  0  0  0
  194.8270  173.0080  140.8440 C   0  0  0  0  0  3  0  0  0  0  0  0
  194.9390  172.4440  142.0440 C   0  0  0  0  0  0  0  0  0  0  0  0
  192.8560  171.7970  139.7850 C   0  0  0  0  0  0  0  0  0  0  0  0
  195.9030  174.4200  142.9180 O   0  0  0  0  0  0  0  0  0  0  0  0
  195.7390  174.5400  145.6960 O   0  0  0  0  0  0  0  0  0  0  0  0
  195.9010  173.0740  143.0150 C   0  0  0  0  0  2  0  0  0  0  0  0
  193.5500  174.3460  144.1160 O   0  0  0  0  0  0  0  0  0  0  0  0
  194.9870  173.9240  144.3200 P   0  0  0  0  0  0  0  0  0  0  0  0
  192.9320  170.2200  138.0170 O   0  0  0  0  0  1  0  0  0  0  0  0
  192.2600  171.3540  138.4750 C   0  0  2  0  0  3  0  0  0  0  0  0
  192.3190  172.4510  137.4190 C   0  0  0  0  0  2  0  0  0  0  0  0
  191.5060  173.6740  137.8250 C   0  0  0  0  0  2  0  0  0  0  0  0
  191.5770  173.7930  135.3260 C   0  0  0  0  0  1  0  0  0  0  0  0
  190.9630  174.3730  136.5890 C   0  0  0  0  0  3  0  0  0  0  0  0
  189.4600  174.2280  136.5300 C   0  0  0  0  0  1  0  0  0  0  0  0
  190.6550  175.0870  146.9690 C   0  0  0  0  0  2  0  0  0  0  0  0
  191.8480  177.0740  147.5250 O   0  0  0  0  0  0  0  0  0  0  0  0
  190.7260  176.5460  147.2750 C   0  0  0  0  0  0  0  0  0  0  0  0
  188.1870  176.9630  147.1370 C   0  0  0  0  0  0  0  0  0  0  0  0
  189.5570  177.3880  147.2320 N   0  0  0  0  0  2  0  0  0  0  0  0
  187.1240  177.9810  146.9140 C   0  0  0  0  0  1  0  0  0  0  0  0
  187.8550  175.7200  147.2610 N   0  0  0  0  0  2  0  0  0  0  0  0
  1  5  1  0  0  0  0
  2 10  2  0  0  0  0
  3 10  1  0  0  0  0
  4  8  2  0  0  0  0
  5 12  2  0  0  0  0
  6  9  1  0  0  0  0
  6 12  1  0  0  0  0
  7  6  2  0  0  0  0
  8  3  1  0  0  0  0
  9 14  1  1  0  0  0
  9  4  1  0  0  0  0
 10 55  1  0  0  0  0
 11  7  1  0  0  0  0
 11  1  2  0  0  0  0
 12  8  1  0  0  0  0
 13 18  2  0  0  0  0
 13 14  1  0  0  0  0
 14 15  2  0  0  0  0
 15 16  1  0  0  0  0
 17 13  1  0  0  0  0
 18 19  1  0  0  0  0
 19 20  1  0  0  0  0
 19 16  2  0  0  0  0
 21 20  1  0  0  0  0
 22 21  1  0  0  0  0
 23 29  1  6  0  0  0
 23 28  1  0  0  0  0
 23 25  1  0  0  0  0
 24 21  1  6  0  0  0
 24 25  1  0  0  0  0
 26 23  1  0  0  0  0
 26 24  1  0  0  0  0
 28 27  1  0  0  0  0
 30 29  1  0  0  0  0
 31 30  1  0  0  0  0
 32 31  1  0  0  0  0
 33 32  1  0  0  0  0
 35  1  1  0  0  0  0
 35 34  1  1  0  0  0
 36 37  1  0  0  0  0
 38 42  2  0  0  0  0
 38 40  1  0  0  0  0
 39 35  1  0  0  0  0
 39 36  2  0  0  0  0
 40 41  2  0  0  0  0
 41 37  1  0  0  0  0
 41 45  1  0  0  0  0
 42 39  1  0  0  0  0
 43 45  1  0  0  0  0
 43 47  1  0  0  0  0
 46 47  2  0  0  0  0
 47 44  2  0  0  0  0
 49 48  1  6  0  0  0
 49 42  1  0  0  0  0
 50 51  1  0  0  0  0
 50 49  1  0  0  0  0
 52 53  1  0  0  0  0
 53 51  1  0  0  0  0
 54 53  1  0  0  0  0
 55 57  1  0  0  0  0
 57 56  2  0  0  0  0
 58 59  1  0  0  0  0
 58 61  2  0  0  0  0
 59 57  1  0  0  0  0
 60 58  1  0  0  0  0
M  END
>  <MODEL>
4

>  <REMARK>
 VINA RESULT:      -5.9      5.889     11.239
  Name = 
  18 active torsions:
  status: ('A' for Active; 'I' for Inactive)
    1  A    between atoms: C_2  and  C_40
    2  A    between atoms: C_7  and  C_30
    3  A    between atoms: C_7  and  C_49
    4  A    between atoms: N_11  and  C_36
    5  A    between atoms: C_15  and  C_18
    6  A    between atoms: C_17  and  C_41
    7  A    between atoms: C_18  and  C_48
    8  A    between atoms: C_20  and  C_40
    9  A    between atoms: C_21  and  C_22
   10  A    between atoms: C_21  and  C_53
   11  A    between atoms: C_22  and  C_46
   12  A    between atoms: C_23  and  C_30
   13  A    between atoms: N_24  and  C_38
   14  A    between atoms: N_24  and  C_43
   15  A    between atoms: C_32  and  C_44
   16  A    between atoms: C_36  and  C_49
   17  A    between atoms: C_38  and  C_58
   18  A    between atoms: C_42  and  C_53
                            x       y       z     vdW  Elec       q    Type
                         _______ _______ _______ _____ _____    ______ ____

>  <TORSDO>
F 18

$$$$
=
 OpenBabel11042419413D

 61 65  0  0  1  0  0  0  0  0999 V2000
  188.6620  176.1450  141.7240 C   0  0  0  0  0  0  0  0  0  0  0  0
  192.5210  176.6790  142.5480 O   0  0  0  0  0  0  0  0  0  0  0  0
  192.7840  174.3790  142.9680 N   0  0  0  0  0  2  0  0  0  0  0  0
  191.6650  172.6300  141.8000 N   0  0  0  0  0  0  0  0  0  0  0  0
  189.9480  175.7910  142.1820 C   0  0  0  0  0  3  0  0  0  0  0  0
  189.7820  173.7040  140.9780 C   0  0  0  0  0  0  0  0  0  0  0  0
  188.4960  174.0120  140.5270 C   0  0  0  0  0  3  0  0  0  0  0  0
  191.6640  173.8520  142.2400 C   0  0  0  0  0  0  0  0  0  0  0  0
  190.4970  172.3910  140.9460 C   0  0  1  0  0  3  0  0  0  0  0  0
  193.2270  175.7430  143.0240 C   0  0  0  0  0  0  0  0  0  0  0  0
  187.9450  175.2540  140.8900 C   0  0  0  0  0  3  0  0  0  0  0  0
  190.4910  174.5740  141.7690 C   0  0  0  0  0  0  0  0  0  0  0  0
  191.2770  170.6250  139.3100 C   0  0  0  0  0  0  0  0  0  0  0  0
  190.9490  171.9710  139.5630 C   0  0  0  0  0  0  0  0  0  0  0  0
  191.2690  172.9330  138.5970 C   0  0  0  0  0  3  0  0  0  0  0  0
  191.9190  172.5530  137.4200 C   0  0  0  0  0  3  0  0  0  0  0  0
  191.0640  169.5720  140.3510 C   0  0  0  0  0  1  0  0  0  0  0  0
  191.9070  170.2780  138.1530 N   0  0  0  0  0  0  0  0  0  0  0  0
  192.2590  171.2140  137.2280 C   0  0  0  0  0  0  0  0  0  0  0  0
  193.0510  170.8220  136.0210 C   0  0  0  0  0  2  0  0  0  0  0  0
  194.2760  170.1410  136.4210 N   0  0  0  0  0  0  0  0  0  0  0  0
  194.2640  168.9200  135.8290 O   0  0  0  0  0  1  0  0  0  0  0  0
  196.5330  172.0440  137.1520 C   0  0  1  0  0  0  0  0  0  0  0  0
  195.4070  170.9270  135.9170 C   0  0  1  0  0  3  0  0  0  0  0  0
  195.3240  172.2320  136.4550 O   0  0  0  0  0  0  0  0  0  0  0  0
  196.7100  170.6350  136.6430 C   0  0  0  0  0  2  0  0  0  0  0  0
  197.1990  174.3250  136.7420 O   0  0  0  0  0  1  0  0  0  0  0  0
  197.5950  172.9920  136.6040 C   0  0  0  0  0  2  0  0  0  0  0  0
  196.3840  172.1850  138.6740 C   0  0  0  0  0  2  0  0  0  0  0  0
  195.1730  173.0090  139.1220 C   0  0  0  0  0  2  0  0  0  0  0  0
  195.5450  173.9370  140.2670 C   0  0  0  0  0  2  0  0  0  0  0  0
  196.9460  174.3230  140.1650 N   0  0  0  0  0  2  0  0  0  0  0  0
  196.9640  175.6580  139.9550 O   0  0  0  0  0  1  0  0  0  0  0  0
  188.5800  178.4960  141.3400 O   0  0  0  0  0  1  0  0  0  0  0  0
  188.0310  177.4540  142.0970 C   0  0  2  0  0  3  0  0  0  0  0  0
  189.2170  177.6520  144.1990 C   0  0  0  0  0  3  0  0  0  0  0  0
  189.4540  177.9630  145.6410 C   0  0  0  0  0  2  0  0  0  0  0  0
  186.5120  177.7480  145.5900 C   0  0  0  0  0  3  0  0  0  0  0  0
  188.0270  177.7370  143.5860 C   0  0  0  0  0  0  0  0  0  0  0  0
  187.3750  176.9900  146.5190 C   0  0  0  0  0  3  0  0  0  0  0  0
  188.7050  177.0230  146.5390 C   0  0  0  0  0  0  0  0  0  0  0  0
  186.7710  178.1130  144.3170 C   0  0  0  0  0  0  0  0  0  0  0  0
  189.1920  174.9270  147.5200 O   0  0  0  0  0  0  0  0  0  0  0  0
  191.9240  174.5510  147.9170 O   0  0  0  0  0  0  0  0  0  0  0  0
  189.3980  176.2560  147.6320 C   0  0  0  0  0  2  0  0  0  0  0  0
  190.8570  175.0070  145.4710 O   0  0  0  0  0  0  0  0  0  0  0  0
  190.7900  175.3330  146.9450 P   0  0  0  0  0  0  0  0  0  0  0  0
  185.3020  179.9690  144.4420 O   0  0  0  0  0  1  0  0  0  0  0  0
  185.7170  178.9260  143.6130 C   0  0  2  0  0  3  0  0  0  0  0  0
  184.5160  178.0790  143.2090 C   0  0  0  0  0  2  0  0  0  0  0  0
  184.4250  177.9080  141.6980 C   0  0  0  0  0  2  0  0  0  0  0  0
  182.5060  177.6000  140.1210 C   0  0  0  0  0  1  0  0  0  0  0  0
  183.1210  178.4960  141.1830 C   0  0  0  0  0  3  0  0  0  0  0  0
  182.1450  178.6660  142.3230 C   0  0  0  0  0  1  0  0  0  0  0  0
  194.6080  176.0420  143.5240 C   0  0  0  0  0  2  0  0  0  0  0  0
  193.9980  176.9300  145.6510 O   0  0  0  0  0  0  0  0  0  0  0  0
  194.6700  176.0660  145.0150 C   0  0  0  0  0  0  0  0  0  0  0  0
  196.3750  174.1480  145.2340 C   0  0  0  0  0  0  0  0  0  0  0  0
  195.4250  175.0900  145.7590 N   0  0  0  0  0  2  0  0  0  0  0  0
  196.9190  173.0890  146.1290 C   0  0  0  0  0  1  0  0  0  0  0  0
  196.7840  174.2100  144.0100 N   0  0  0  0  0  2  0  0  0  0  0  0
  1 35  1  0  0  0  0
  1  5  1  0  0  0  0
  2 10  2  0  0  0  0
  3 10  1  0  0  0  0
  4  8  2  0  0  0  0
  6 12  1  0  0  0  0
  7 11  1  0  0  0  0
  7  6  2  0  0  0  0
  8  3  1  0  0  0  0
  9 14  1  6  0  0  0
  9  6  1  0  0  0  0
  9  4  1  0  0  0  0
 10 55  1  0  0  0  0
 11  1  2  0  0  0  0
 12  5  2  0  0  0  0
 12  8  1  0  0  0  0
 13 14  1  0  0  0  0
 13 17  1  0  0  0  0
 15 14  2  0  0  0  0
 16 15  1  0  0  0  0
 18 13  2  0  0  0  0
 19 16  2  0  0  0  0
 19 18  1  0  0  0  0
 20 21  1  0  0  0  0
 20 19  1  0  0  0  0
 22 21  1  0  0  0  0
 23 28  1  6  0  0  0
 23 29  1  0  0  0  0
 24 21  1  1  0  0  0
 24 25  1  0  0  0  0
 24 26  1  0  0  0  0
 25 23  1  0  0  0  0
 26 23  1  0  0  0  0
 28 27  1  0  0  0  0
 29 30  1  0  0  0  0
 30 31  1  0  0  0  0
 32 31  1  0  0  0  0
 33 32  1  0  0  0  0
 35 34  1  6  0  0  0
 35 39  1  0  0  0  0
 36 37  1  0  0  0  0
 37 41  1  0  0  0  0
 38 40  1  0  0  0  0
 39 36  2  0  0  0  0
 39 42  1  0  0  0  0
 40 41  2  0  0  0  0
 41 45  1  0  0  0  0
 42 38  2  0  0  0  0
 43 45  1  0  0  0  0
 46 47  2  0  0  0  0
 47 43  1  0  0  0  0
 47 44  2  0  0  0  0
 49 42  1  0  0  0  0
 49 48  1  1  0  0  0
 50 49  1  0  0  0  0
 51 50  1  0  0  0  0
 52 53  1  0  0  0  0
 53 51  1  0  0  0  0
 53 54  1  0  0  0  0
 55 57  1  0  0  0  0
 57 56  2  0  0  0  0
 57 59  1  0  0  0  0
 58 59  1  0  0  0  0
 58 60  1  0  0  0  0
 61 58  2  0  0  0  0
M  END
>  <MODEL>
5

>  <REMARK>
 VINA RESULT:      -5.7      2.631      4.290
  Name = 
  18 active torsions:
  status: ('A' for Active; 'I' for Inactive)
    1  A    between atoms: C_2  and  C_40
    2  A    between atoms: C_7  and  C_30
    3  A    between atoms: C_7  and  C_49
    4  A    between atoms: N_11  and  C_36
    5  A    between atoms: C_15  and  C_18
    6  A    between atoms: C_17  and  C_41
    7  A    between atoms: C_18  and  C_48
    8  A    between atoms: C_20  and  C_40
    9  A    between atoms: C_21  and  C_22
   10  A    between atoms: C_21  and  C_53
   11  A    between atoms: C_22  and  C_46
   12  A    between atoms: C_23  and  C_30
   13  A    between atoms: N_24  and  C_38
   14  A    between atoms: N_24  and  C_43
   15  A    between atoms: C_32  and  C_44
   16  A    between atoms: C_36  and  C_49
   17  A    between atoms: C_38  and  C_58
   18  A    between atoms: C_42  and  C_53
                            x       y       z     vdW  Elec       q    Type
                         _______ _______ _______ _____ _____    ______ ____

>  <TORSDO>
F 18

$$$$
=
 OpenBabel11042419413D

 61 65  0  0  1  0  0  0  0  0999 V2000
  190.3970  173.9560  145.2040 C   0  0  0  0  0  0  0  0  0  0  0  0
  194.2390  172.9760  145.5750 O   0  0  0  0  0  0  0  0  0  0  0  0
  193.7890  170.7930  144.8210 N   0  0  0  0  0  2  0  0  0  0  0  0
  192.1830  170.2140  143.1580 N   0  0  0  0  0  0  0  0  0  0  0  0
  191.5160  173.0990  145.2380 C   0  0  0  0  0  3  0  0  0  0  0  0
  190.7150  172.0060  143.2370 C   0  0  0  0  0  0  0  0  0  0  0  0
  189.5830  172.8230  143.1880 C   0  0  0  0  0  3  0  0  0  0  0  0
  192.5580  171.0110  144.1130 C   0  0  0  0  0  0  0  0  0  0  0  0
  190.9960  170.7460  142.4840 C   0  0  1  0  0  3  0  0  0  0  0  0
  194.6270  171.7800  145.4410 C   0  0  0  0  0  0  0  0  0  0  0  0
  189.4380  173.8190  144.1710 C   0  0  0  0  0  3  0  0  0  0  0  0
  191.6600  172.1500  144.2230 C   0  0  0  0  0  0  0  0  0  0  0  0
  191.4190  169.8540  140.1540 C   0  0  0  0  0  0  0  0  0  0  0  0
  191.2920  170.9610  141.0140 C   0  0  0  0  0  0  0  0  0  0  0  0
  191.6690  172.2240  140.5430 C   0  0  0  0  0  3  0  0  0  0  0  0
  192.1810  172.3650  139.2500 C   0  0  0  0  0  3  0  0  0  0  0  0
  191.1390  168.4660  140.6380 C   0  0  0  0  0  1  0  0  0  0  0  0
  191.9170  170.0150  138.8960 N   0  0  0  0  0  0  0  0  0  0  0  0
  192.3250  171.2340  138.4460 C   0  0  0  0  0  0  0  0  0  0  0  0
  192.9730  171.3660  137.1040 C   0  0  0  0  0  2  0  0  0  0  0  0
  194.4240  171.3880  137.2450 N   0  0  0  0  0  0  0  0  0  0  0  0
  194.8530  170.1050  137.1430 O   0  0  0  0  0  1  0  0  0  0  0  0
  194.5100  174.1300  135.9350 C   0  0  1  0  0  0  0  0  0  0  0  0
  194.9670  172.1840  136.1390 C   0  0  1  0  0  3  0  0  0  0  0  0
  193.9100  172.9150  135.5500 O   0  0  0  0  0  0  0  0  0  0  0  0
  195.6770  173.4460  136.6020 C   0  0  0  0  0  2  0  0  0  0  0  0
  194.6700  176.2740  134.8400 O   0  0  0  0  0  1  0  0  0  0  0  0
  194.9340  174.9090  134.6930 C   0  0  0  0  0  2  0  0  0  0  0  0
  193.6240  174.9800  136.8560 C   0  0  0  0  0  2  0  0  0  0  0  0
  192.3500  175.5190  136.1970 C   0  0  0  0  0  2  0  0  0  0  0  0
  191.1830  174.5710  136.4190 C   0  0  0  0  0  2  0  0  0  0  0  0
  189.9780  175.1060  135.8000 N   0  0  0  0  0  2  0  0  0  0  0  0
  189.1340  174.0620  135.6360 O   0  0  0  0  0  1  0  0  0  0  0  0
  189.7590  174.4620  147.4440 O   0  0  0  0  0  1  0  0  0  0  0  0
  190.1970  175.0240  146.2390 C   0  0  2  0  0  3  0  0  0  0  0  0
  188.1860  176.3570  146.4390 C   0  0  0  0  0  3  0  0  0  0  0  0
  187.2270  177.4780  146.1980 C   0  0  0  0  0  2  0  0  0  0  0  0
  188.9060  177.6460  143.7780 C   0  0  0  0  0  3  0  0  0  0  0  0
  189.3370  176.1830  145.7740 C   0  0  0  0  0  0  0  0  0  0  0  0
  187.4330  177.5470  143.7490 C   0  0  0  0  0  3  0  0  0  0  0  0
  186.6470  177.4200  144.8160 C   0  0  0  0  0  0  0  0  0  0  0  0
  189.7660  177.0880  144.6560 C   0  0  0  0  0  0  0  0  0  0  0  0
  184.5360  178.3200  145.3900 O   0  0  0  0  0  0  0  0  0  0  0  0
  183.1390  179.2490  143.1670 O   0  0  0  0  0  0  0  0  0  0  0  0
  185.1600  177.4380  144.5820 C   0  0  0  0  0  2  0  0  0  0  0  0
  185.5730  180.2080  143.8620 O   0  0  0  0  0  0  0  0  0  0  0  0
  184.6850  178.9870  143.7830 P   0  0  0  0  0  0  0  0  0  0  0  0
  191.3700  178.6800  143.9440 O   0  0  0  0  0  1  0  0  0  0  0  0
  191.2270  177.3950  144.4680 C   0  0  2  0  0  3  0  0  0  0  0  0
  191.9120  176.3850  143.5550 C   0  0  0  0  0  2  0  0  0  0  0  0
  193.2880  175.9910  144.0750 C   0  0  0  0  0  2  0  0  0  0  0  0
  193.8700  174.1740  142.4550 C   0  0  0  0  0  1  0  0  0  0  0  0
  194.1870  175.5860  142.9170 C   0  0  0  0  0  3  0  0  0  0  0  0
  194.0080  176.5450  141.7630 C   0  0  0  0  0  1  0  0  0  0  0  0
  196.0350  171.4160  145.8030 C   0  0  0  0  0  2  0  0  0  0  0  0
  197.1400  170.1930  144.0800 O   0  0  0  0  0  0  0  0  0  0  0  0
  196.9160  171.3240  144.6020 C   0  0  0  0  0  0  0  0  0  0  0  0
  197.4780  173.8360  144.5000 C   0  0  0  0  0  0  0  0  0  0  0  0
  197.4720  172.4980  143.9760 N   0  0  0  0  0  2  0  0  0  0  0  0
  197.9290  174.9560  143.6290 C   0  0  0  0  0  1  0  0  0  0  0  0
  197.1220  174.0880  145.7160 N   0  0  0  0  0  2  0  0  0  0  0  0
  1  5  1  0  0  0  0
  1 35  1  0  0  0  0
  3 10  1  0  0  0  0
  4  8  2  0  0  0  0
  6 12  1  0  0  0  0
  7  6  2  0  0  0  0
  7 11  1  0  0  0  0
  8 12  1  0  0  0  0
  8  3  1  0  0  0  0
  9 14  1  6  0  0  0
  9  4  1  0  0  0  0
  9  6  1  0  0  0  0
 10  2  2  0  0  0  0
 10 55  1  0  0  0  0
 11  1  2  0  0  0  0
 12  5  2  0  0  0  0
 13 17  1  0  0  0  0
 13 14  1  0  0  0  0
 15 14  2  0  0  0  0
 16 15  1  0  0  0  0
 18 13  2  0  0  0  0
 19 18  1  0  0  0  0
 19 16  2  0  0  0  0
 20 21  1  0  0  0  0
 20 19  1  0  0  0  0
 22 21  1  0  0  0  0
 23 28  1  6  0  0  0
 23 26  1  0  0  0  0
 23 29  1  0  0  0  0
 24 26  1  0  0  0  0
 24 21  1  1  0  0  0
 25 23  1  0  0  0  0
 25 24  1  0  0  0  0
 28 27  1  0  0  0  0
 30 31  1  0  0  0  0
 30 29  1  0  0  0  0
 32 31  1  0  0  0  0
 33 32  1  0  0  0  0
 35 34  1  1  0  0  0
 37 36  1  0  0  0  0
 38 42  2  0  0  0  0
 39 35  1  0  0  0  0
 39 36  2  0  0  0  0
 40 38  1  0  0  0  0
 40 41  2  0  0  0  0
 41 37  1  0  0  0  0
 42 39  1  0  0  0  0
 44 47  2  0  0  0  0
 45 41  1  0  0  0  0
 45 43  1  0  0  0  0
 47 46  2  0  0  0  0
 47 43  1  0  0  0  0
 49 48  1  6  0  0  0
 49 42  1  0  0  0  0
 50 51  1  0  0  0  0
 50 49  1  0  0  0  0
 52 53  1  0  0  0  0
 53 51  1  0  0  0  0
 54 53  1  0  0  0  0
 56 57  2  0  0  0  0
 57 55  1  0  0  0  0
 58 61  2  0  0  0  0
 59 58  1  0  0  0  0
 59 57  1  0  0  0  0
 60 58  1  0  0  0  0
M  END
>  <MODEL>
6

>  <REMARK>
 VINA RESULT:      -5.7      2.858      5.296
  Name = 
  18 active torsions:
  status: ('A' for Active; 'I' for Inactive)
    1  A    between atoms: C_2  and  C_40
    2  A    between atoms: C_7  and  C_30
    3  A    between atoms: C_7  and  C_49
    4  A    between atoms: N_11  and  C_36
    5  A    between atoms: C_15  and  C_18
    6  A    between atoms: C_17  and  C_41
    7  A    between atoms: C_18  and  C_48
    8  A    between atoms: C_20  and  C_40
    9  A    between atoms: C_21  and  C_22
   10  A    between atoms: C_21  and  C_53
   11  A    between atoms: C_22  and  C_46
   12  A    between atoms: C_23  and  C_30
   13  A    between atoms: N_24  and  C_38
   14  A    between atoms: N_24  and  C_43
   15  A    between atoms: C_32  and  C_44
   16  A    between atoms: C_36  and  C_49
   17  A    between atoms: C_38  and  C_58
   18  A    between atoms: C_42  and  C_53
                            x       y       z     vdW  Elec       q    Type
                         _______ _______ _______ _____ _____    ______ ____

>  <TORSDO>
F 18

$$$$
=
 OpenBabel11042419413D

 61 65  0  0  1  0  0  0  0  0999 V2000
  189.6820  174.9930  141.8280 C   0  0  0  0  0  0  0  0  0  0  0  0
  193.4800  174.2730  142.7850 O   0  0  0  0  0  0  0  0  0  0  0  0
  193.1120  171.9540  142.6360 N   0  0  0  0  0  2  0  0  0  0  0  0
  191.6680  170.8870  141.0700 N   0  0  0  0  0  0  0  0  0  0  0  0
  190.7980  174.2140  142.1960 C   0  0  0  0  0  3  0  0  0  0  0  0
  190.1880  172.5850  140.5200 C   0  0  0  0  0  0  0  0  0  0  0  0
  189.0610  173.3200  140.1470 C   0  0  0  0  0  3  0  0  0  0  0  0
  191.9500  171.9290  141.7930 C   0  0  0  0  0  0  0  0  0  0  0  0
  190.5430  171.1740  140.1750 C   0  0  1  0  0  3  0  0  0  0  0  0
  193.8860  173.0990  143.0250 C   0  0  0  0  0  0  0  0  0  0  0  0
  188.8220  174.5460  140.7970 C   0  0  0  0  0  3  0  0  0  0  0  0
  191.0380  173.0260  141.5030 C   0  0  0  0  0  0  0  0  0  0  0  0
  190.9810  169.6910  138.1720 C   0  0  0  0  0  0  0  0  0  0  0  0
  190.9700  170.9810  138.7340 C   0  0  0  0  0  0  0  0  0  0  0  0
  191.5720  172.0280  138.0260 C   0  0  0  0  0  3  0  0  0  0  0  0
  192.1880  171.7770  136.7970 C   0  0  0  0  0  3  0  0  0  0  0  0
  190.4540  168.5140  138.9320 C   0  0  0  0  0  1  0  0  0  0  0  0
  191.5830  169.4710  136.9700 N   0  0  0  0  0  0  0  0  0  0  0  0
  192.2080  170.4760  136.2960 C   0  0  0  0  0  0  0  0  0  0  0  0
  192.9600  170.1860  135.0350 C   0  0  0  0  0  2  0  0  0  0  0  0
  194.3650  169.9380  135.3320 N   0  0  0  0  0  0  0  0  0  0  0  0
  194.6330  168.6640  134.9500 O   0  0  0  0  0  1  0  0  0  0  0  0
  196.4630  172.1370  135.4000 C   0  0  1  0  0  0  0  0  0  0  0  0
  195.1620  170.8750  134.5340 C   0  0  1  0  0  3  0  0  0  0  0  0
  195.0820  172.1550  135.1280 O   0  0  0  0  0  0  0  0  0  0  0  0
  196.6550  170.7680  134.7960 C   0  0  0  0  0  2  0  0  0  0  0  0
  197.7310  174.1900  135.4240 O   0  0  0  0  0  1  0  0  0  0  0  0
  197.1600  173.2260  134.5880 C   0  0  0  0  0  2  0  0  0  0  0  0
  196.7900  172.2550  136.8950 C   0  0  0  0  0  2  0  0  0  0  0  0
  195.5650  172.3240  137.8120 C   0  0  0  0  0  2  0  0  0  0  0  0
  195.2800  173.7580  138.2270 C   0  0  0  0  0  2  0  0  0  0  0  0
  194.5410  173.7800  139.4820 N   0  0  0  0  0  2  0  0  0  0  0  0
  193.4970  174.6190  139.3000 O   0  0  0  0  0  1  0  0  0  0  0  0
  190.5710  176.9650  142.8310 O   0  0  0  0  0  1  0  0  0  0  0  0
  189.3830  176.3000  142.5030 C   0  0  2  0  0  3  0  0  0  0  0  0
  187.1180  176.1950  143.3520 C   0  0  0  0  0  3  0  0  0  0  0  0
  186.0040  176.0200  144.3330 C   0  0  0  0  0  2  0  0  0  0  0  0
  188.2640  176.5830  146.1440 C   0  0  0  0  0  3  0  0  0  0  0  0
  188.4210  176.1870  143.6690 C   0  0  0  0  0  0  0  0  0  0  0  0
  186.9890  177.3300  146.1650 C   0  0  0  0  0  3  0  0  0  0  0  0
  185.9690  177.1380  145.3330 C   0  0  0  0  0  0  0  0  0  0  0  0
  188.9040  176.0500  145.0840 C   0  0  0  0  0  0  0  0  0  0  0  0
  184.9450  179.2610  145.5310 O   0  0  0  0  0  0  0  0  0  0  0  0
  182.6910  179.5070  143.9140 O   0  0  0  0  0  0  0  0  0  0  0  0
  184.7160  177.9330  145.5840 C   0  0  0  0  0  2  0  0  0  0  0  0
  185.1470  178.9590  142.9150 O   0  0  0  0  0  0  0  0  0  0  0  0
  184.1800  178.7300  144.0550 P   0  0  0  0  0  0  0  0  0  0  0  0
  189.8920  174.1590  146.1160 O   0  0  0  0  0  1  0  0  0  0  0  0
  190.1780  175.2980  145.3640 C   0  0  2  0  0  3  0  0  0  0  0  0
  191.2010  176.1580  146.0980 C   0  0  0  0  0  2  0  0  0  0  0  0
  192.4560  175.3700  146.4500 C   0  0  0  0  0  2  0  0  0  0  0  0
  194.9390  175.3660  146.1390 C   0  0  0  0  0  1  0  0  0  0  0  0
  193.6910  176.2280  146.2250 C   0  0  0  0  0  3  0  0  0  0  0  0
  193.5420  177.0260  144.9500 C   0  0  0  0  0  1  0  0  0  0  0  0
  195.2570  172.8940  143.5930 C   0  0  0  0  0  2  0  0  0  0  0  0
  196.2670  171.0540  142.4610 O   0  0  0  0  0  0  0  0  0  0  0  0
  196.1970  172.3110  142.5910 C   0  0  0  0  0  0  0  0  0  0  0  0
  197.1760  174.5640  141.8140 C   0  0  0  0  0  0  0  0  0  0  0  0
  196.9850  173.1430  141.7160 N   0  0  0  0  0  2  0  0  0  0  0  0
  197.8710  175.2820  140.7100 C   0  0  0  0  0  1  0  0  0  0  0  0
  196.7780  175.2300  142.8470 N   0  0  0  0  0  2  0  0  0  0  0  0
  1  5  1  0  0  0  0
  1 35  1  0  0  0  0
  2 10  2  0  0  0  0
  3 10  1  0  0  0  0
  4  8  2  0  0  0  0
  6 12  1  0  0  0  0
  7  6  2  0  0  0  0
  7 11  1  0  0  0  0
  8  3  1  0  0  0  0
  9 14  1  6  0  0  0
  9  6  1  0  0  0  0
  9  4  1  0  0  0  0
 10 55  1  0  0  0  0
 11  1  2  0  0  0  0
 12  8  1  0  0  0  0
 12  5  2  0  0  0  0
 13 14  1  0  0  0  0
 13 17  1  0  0  0  0
 15 14  2  0  0  0  0
 16 15  1  0  0  0  0
 18 13  2  0  0  0  0
 19 16  2  0  0  0  0
 19 18  1  0  0  0  0
 20 21  1  0  0  0  0
 20 19  1  0  0  0  0
 22 21  1  0  0  0  0
 23 28  1  6  0  0  0
 23 29  1  0  0  0  0
 24 26  1  0  0  0  0
 24 25  1  0  0  0  0
 24 21  1  1  0  0  0
 25 23  1  0  0  0  0
 26 23  1  0  0  0  0
 28 27  1  0  0  0  0
 29 30  1  0  0  0  0
 30 31  1  0  0  0  0
 31 32  1  0  0  0  0
 33 32  1  0  0  0  0
 35 34  1  1  0  0  0
 35 39  1  0  0  0  0
 36 39  2  0  0  0  0
 36 37  1  0  0  0  0
 37 41  1  0  0  0  0
 38 40  1  0  0  0  0
 39 42  1  0  0  0  0
 41 45  1  0  0  0  0
 41 40  2  0  0  0  0
 42 49  1  0  0  0  0
 42 38  2  0  0  0  0
 43 45  1  0  0  0  0
 44 47  2  0  0  0  0
 46 47  2  0  0  0  0
 47 43  1  0  0  0  0
 49 50  1  0  0  0  0
 49 48  1  1  0  0  0
 50 51  1  0  0  0  0
 52 53  1  0  0  0  0
 53 51  1  0  0  0  0
 54 53  1  0  0  0  0
 56 57  2  0  0  0  0
 57 55  1  0  0  0  0
 58 61  2  0  0  0  0
 59 58  1  0  0  0  0
 59 57  1  0  0  0  0
 60 58  1  0  0  0  0
M  END
>  <MODEL>
7

>  <REMARK>
 VINA RESULT:      -5.7      2.583      4.812
  Name = 
  18 active torsions:
  status: ('A' for Active; 'I' for Inactive)
    1  A    between atoms: C_2  and  C_40
    2  A    between atoms: C_7  and  C_30
    3  A    between atoms: C_7  and  C_49
    4  A    between atoms: N_11  and  C_36
    5  A    between atoms: C_15  and  C_18
    6  A    between atoms: C_17  and  C_41
    7  A    between atoms: C_18  and  C_48
    8  A    between atoms: C_20  and  C_40
    9  A    between atoms: C_21  and  C_22
   10  A    between atoms: C_21  and  C_53
   11  A    between atoms: C_22  and  C_46
   12  A    between atoms: C_23  and  C_30
   13  A    between atoms: N_24  and  C_38
   14  A    between atoms: N_24  and  C_43
   15  A    between atoms: C_32  and  C_44
   16  A    between atoms: C_36  and  C_49
   17  A    between atoms: C_38  and  C_58
   18  A    between atoms: C_42  and  C_53
                            x       y       z     vdW  Elec       q    Type
                         _______ _______ _______ _____ _____    ______ ____

>  <TORSDO>
F 18

$$$$
=
 OpenBabel11042419413D

 61 65  0  0  1  0  0  0  0  0999 V2000
  190.7190  171.5310  140.4300 C   0  0  0  0  0  0  0  0  0  0  0  0
  192.0080  172.1430  144.1480 O   0  0  0  0  0  0  0  0  0  0  0  0
  192.1310  174.4600  143.7580 N   0  0  0  0  0  2  0  0  0  0  0  0
  190.6220  175.7110  142.4030 N   0  0  0  0  0  0  0  0  0  0  0  0
  191.2560  172.2630  141.5090 C   0  0  0  0  0  3  0  0  0  0  0  0
  189.7640  174.0900  140.9860 C   0  0  0  0  0  0  0  0  0  0  0  0
  189.2270  173.4020  139.8950 C   0  0  0  0  0  3  0  0  0  0  0  0
  191.2240  174.5870  142.6530 C   0  0  0  0  0  0  0  0  0  0  0  0
  189.6260  175.5350  141.3430 C   0  0  1  0  0  3  0  0  0  0  0  0
  192.4210  173.2790  144.5210 C   0  0  0  0  0  0  0  0  0  0  0  0
  189.6990  172.1020  139.6320 C   0  0  0  0  0  3  0  0  0  0  0  0
  190.7370  173.5310  141.7770 C   0  0  0  0  0  0  0  0  0  0  0  0
  187.9040  177.2690  142.0000 C   0  0  0  0  0  0  0  0  0  0  0  0
  188.2530  175.9120  141.8590 C   0  0  0  0  0  0  0  0  0  0  0  0
  187.4120  174.9420  142.4160 C   0  0  0  0  0  3  0  0  0  0  0  0
  186.2630  175.3280  143.1130 C   0  0  0  0  0  3  0  0  0  0  0  0
  188.8200  178.3530  141.5260 C   0  0  0  0  0  1  0  0  0  0  0  0
  186.7770  177.6220  142.6800 N   0  0  0  0  0  0  0  0  0  0  0  0
  185.9770  176.6850  143.2600 C   0  0  0  0  0  0  0  0  0  0  0  0
  184.8110  177.1020  144.0980 C   0  0  0  0  0  2  0  0  0  0  0  0
  184.7750  178.5540  144.2260 N   0  0  0  0  0  0  0  0  0  0  0  0
  183.6110  178.9740  143.6690 O   0  0  0  0  0  1  0  0  0  0  0  0
  186.4020  178.5080  146.7940 C   0  0  1  0  0  0  0  0  0  0  0  0
  184.7870  178.8760  145.6570 C   0  0  1  0  0  3  0  0  0  0  0  0
  185.2890  177.7600  146.3650 O   0  0  0  0  0  0  0  0  0  0  0  0
  185.9600  179.7520  146.0640 C   0  0  0  0  0  2  0  0  0  0  0  0
  187.4510  179.4120  148.7700 O   0  0  0  0  0  1  0  0  0  0  0  0
  186.3510  178.6820  148.3090 C   0  0  0  0  0  2  0  0  0  0  0  0
  187.7440  177.9150  146.3410 C   0  0  0  0  0  2  0  0  0  0  0  0
  187.8250  176.3870  146.4230 C   0  0  0  0  0  2  0  0  0  0  0  0
  189.0210  175.9540  147.2550 C   0  0  0  0  0  2  0  0  0  0  0  0
  189.3830  174.5790  146.9360 N   0  0  0  0  0  2  0  0  0  0  0  0
  189.2850  174.4580  145.5920 O   0  0  0  0  0  1  0  0  0  0  0  0
  190.8530  169.2550  141.1280 O   0  0  0  0  0  1  0  0  0  0  0  0
  191.2000  170.1470  140.1060 C   0  0  2  0  0  3  0  0  0  0  0  0
  193.5290  169.9710  140.7470 C   0  0  0  0  0  3  0  0  0  0  0  0
  195.0070  169.8120  140.5980 C   0  0  0  0  0  2  0  0  0  0  0  0
  194.2590  170.6780  137.8790 C   0  0  0  0  0  3  0  0  0  0  0  0
  192.6670  170.0760  139.7260 C   0  0  0  0  0  0  0  0  0  0  0  0
  195.2980  171.3390  138.6940 C   0  0  0  0  0  3  0  0  0  0  0  0
  195.6280  171.0090  139.9410 C   0  0  0  0  0  0  0  0  0  0  0  0
  193.1150  170.0960  138.2940 C   0  0  0  0  0  0  0  0  0  0  0  0
  196.8180  173.0380  140.1950 O   0  0  0  0  0  0  0  0  0  0  0  0
  197.2120  173.7080  142.8690 O   0  0  0  0  0  0  0  0  0  0  0  0
  196.7860  171.7400  140.5640 C   0  0  0  0  0  2  0  0  0  0  0  0
  194.7470  173.3770  141.7990 O   0  0  0  0  0  0  0  0  0  0  0  0
  196.1800  172.8950  141.8140 P   0  0  0  0  0  0  0  0  0  0  0  0
  193.0530  169.0450  136.1700 O   0  0  0  0  0  1  0  0  0  0  0  0
  192.2540  169.4550  137.2370 C   0  0  2  0  0  3  0  0  0  0  0  0
  191.1670  170.3990  136.7350 C   0  0  0  0  0  2  0  0  0  0  0  0
  191.6890  171.8170  136.5470 C   0  0  0  0  0  2  0  0  0  0  0  0
  189.3610  171.9090  135.6310 C   0  0  0  0  0  1  0  0  0  0  0  0
  190.6880  172.6400  135.7510 C   0  0  0  0  0  3  0  0  0  0  0  0
  190.4660  173.9760  136.4220 C   0  0  0  0  0  1  0  0  0  0  0  0
  193.1000  173.4170  145.8500 C   0  0  0  0  0  2  0  0  0  0  0  0
  195.4000  172.9090  145.4820 O   0  0  0  0  0  0  0  0  0  0  0  0
  194.5340  173.8040  145.7080 C   0  0  0  0  0  0  0  0  0  0  0  0
  194.1710  176.3130  146.1670 C   0  0  0  0  0  0  0  0  0  0  0  0
  194.9570  175.1810  145.7580 N   0  0  0  0  0  2  0  0  0  0  0  0
  194.7170  177.6850  145.9740 C   0  0  0  0  0  1  0  0  0  0  0  0
  193.0110  176.1680  146.7170 N   0  0  0  0  0  2  0  0  0  0  0  0
  1  5  1  0  0  0  0
  2 10  2  0  0  0  0
  3 10  1  0  0  0  0
  4  8  2  0  0  0  0
  5 12  2  0  0  0  0
  6  9  1  0  0  0  0
  6 12  1  0  0  0  0
  7  6  2  0  0  0  0
  8  3  1  0  0  0  0
  9 14  1  1  0  0  0
  9  4  1  0  0  0  0
 10 55  1  0  0  0  0
 11  7  1  0  0  0  0
 11  1  2  0  0  0  0
 12  8  1  0  0  0  0
 13 18  1  0  0  0  0
 14 13  2  0  0  0  0
 14 15  1  0  0  0  0
 15 16  2  0  0  0  0
 16 19  1  0  0  0  0
 17 13  1  0  0  0  0
 18 19  2  0  0  0  0
 19 20  1  0  0  0  0
 20 21  1  0  0  0  0
 22 21  1  0  0  0  0
 23 29  1  6  0  0  0
 23 28  1  0  0  0  0
 24 21  1  6  0  0  0
 24 26  1  0  0  0  0
 24 25  1  0  0  0  0
 25 23  1  0  0  0  0
 26 23  1  0  0  0  0
 28 27  1  0  0  0  0
 29 30  1  0  0  0  0
 30 31  1  0  0  0  0
 32 31  1  0  0  0  0
 33 32  1  0  0  0  0
 35  1  1  0  0  0  0
 35 34  1  1  0  0  0
 37 36  1  0  0  0  0
 38 42  2  0  0  0  0
 38 40  1  0  0  0  0
 39 35  1  0  0  0  0
 39 36  2  0  0  0  0
 40 41  2  0  0  0  0
 41 45  1  0  0  0  0
 41 37  1  0  0  0  0
 42 39  1  0  0  0  0
 43 45  1  0  0  0  0
 43 47  1  0  0  0  0
 46 47  2  0  0  0  0
 47 44  2  0  0  0  0
 49 48  1  6  0  0  0
 49 42  1  0  0  0  0
 50 49  1  0  0  0  0
 51 50  1  0  0  0  0
 52 53  1  0  0  0  0
 53 54  1  0  0  0  0
 53 51  1  0  0  0  0
 56 57  2  0  0  0  0
 57 59  1  0  0  0  0
 57 55  1  0  0  0  0
 58 61  2  0  0  0  0
 59 58  1  0  0  0  0
 60 58  1  0  0  0  0
M  END
>  <MODEL>
8

>  <REMARK>
 VINA RESULT:      -5.6      3.274      9.577
  Name = 
  18 active torsions:
  status: ('A' for Active; 'I' for Inactive)
    1  A    between atoms: C_2  and  C_40
    2  A    between atoms: C_7  and  C_30
    3  A    between atoms: C_7  and  C_49
    4  A    between atoms: N_11  and  C_36
    5  A    between atoms: C_15  and  C_18
    6  A    between atoms: C_17  and  C_41
    7  A    between atoms: C_18  and  C_48
    8  A    between atoms: C_20  and  C_40
    9  A    between atoms: C_21  and  C_22
   10  A    between atoms: C_21  and  C_53
   11  A    between atoms: C_22  and  C_46
   12  A    between atoms: C_23  and  C_30
   13  A    between atoms: N_24  and  C_38
   14  A    between atoms: N_24  and  C_43
   15  A    between atoms: C_32  and  C_44
   16  A    between atoms: C_36  and  C_49
   17  A    between atoms: C_38  and  C_58
   18  A    between atoms: C_42  and  C_53
                            x       y       z     vdW  Elec       q    Type
                         _______ _______ _______ _____ _____    ______ ____

>  <TORSDO>
F 18

$$$$
=
 OpenBabel11042419413D

 61 65  0  0  1  0  0  0  0  0999 V2000
  190.4730  174.8320  142.7150 C   0  0  0  0  0  0  0  0  0  0  0  0
  193.5120  172.8790  144.3910 O   0  0  0  0  0  0  0  0  0  0  0  0
  192.4360  170.8200  144.0210 N   0  0  0  0  0  2  0  0  0  0  0  0
  191.0950  170.2880  142.1240 N   0  0  0  0  0  0  0  0  0  0  0  0
  191.1580  173.7240  143.2560 C   0  0  0  0  0  3  0  0  0  0  0  0
  190.4200  172.3810  141.3890 C   0  0  0  0  0  0  0  0  0  0  0  0
  189.7100  173.4500  140.8390 C   0  0  0  0  0  3  0  0  0  0  0  0
  191.5440  171.1800  142.9550 C   0  0  0  0  0  0  0  0  0  0  0  0
  190.3520  170.9300  141.0350 C   0  0  1  0  0  3  0  0  0  0  0  0
  193.4430  171.6390  144.6340 C   0  0  0  0  0  0  0  0  0  0  0  0
  189.7580  174.6910  141.5020 C   0  0  0  0  0  3  0  0  0  0  0  0
  191.1340  172.5180  142.5530 C   0  0  0  0  0  0  0  0  0  0  0  0
  191.0410  169.2510  139.2710 C   0  0  0  0  0  0  0  0  0  0  0  0
  190.9920  170.5900  139.7050 C   0  0  0  0  0  0  0  0  0  0  0  0
  191.7380  171.5490  139.0110 C   0  0  0  0  0  3  0  0  0  0  0  0
  192.5290  171.1670  137.9230 C   0  0  0  0  0  3  0  0  0  0  0  0
  190.3570  168.1660  140.0420 C   0  0  0  0  0  1  0  0  0  0  0  0
  191.8160  168.9030  138.2060 N   0  0  0  0  0  0  0  0  0  0  0  0
  192.5770  169.8230  137.5520 C   0  0  0  0  0  0  0  0  0  0  0  0
  193.5060  169.3960  136.4600 C   0  0  0  0  0  2  0  0  0  0  0  0
  194.8890  169.6500  136.8450 N   0  0  0  0  0  0  0  0  0  0  0  0
  195.4930  168.4430  136.9810 O   0  0  0  0  0  1  0  0  0  0  0  0
  196.8710  171.8450  136.1390 C   0  0  1  0  0  0  0  0  0  0  0  0
  195.5230  170.4040  135.7590 C   0  0  1  0  0  3  0  0  0  0  0  0
  195.4660  171.7820  136.0730 O   0  0  0  0  0  0  0  0  0  0  0  0
  197.0410  170.3810  135.8190 C   0  0  0  0  0  2  0  0  0  0  0  0
  197.9250  173.9300  135.5360 O   0  0  0  0  0  1  0  0  0  0  0  0
  197.3970  172.7420  135.0210 C   0  0  0  0  0  2  0  0  0  0  0  0
  197.3960  172.2900  137.5110 C   0  0  0  0  0  2  0  0  0  0  0  0
  196.3080  172.7120  138.5030 C   0  0  0  0  0  2  0  0  0  0  0  0
  196.4410  174.1850  138.8560 C   0  0  0  0  0  2  0  0  0  0  0  0
  195.1920  174.8820  138.5780 N   0  0  0  0  0  2  0  0  0  0  0  0
  195.2230  175.2180  137.2680 O   0  0  0  0  0  1  0  0  0  0  0  0
  191.7830  176.6960  143.4160 O   0  0  0  0  0  1  0  0  0  0  0  0
  190.4860  176.1690  143.3960 C   0  0  2  0  0  3  0  0  0  0  0  0
  188.4940  175.9660  144.7580 C   0  0  0  0  0  3  0  0  0  0  0  0
  187.6520  175.8590  145.9880 C   0  0  0  0  0  2  0  0  0  0  0  0
  190.1200  177.0340  147.0990 C   0  0  0  0  0  3  0  0  0  0  0  0
  189.8190  176.1760  144.7570 C   0  0  0  0  0  0  0  0  0  0  0  0
  188.7750  177.6130  147.2930 C   0  0  0  0  0  3  0  0  0  0  0  0
  187.6470  177.1400  146.7670 C   0  0  0  0  0  0  0  0  0  0  0  0
  190.6020  176.3800  146.0210 C   0  0  0  0  0  0  0  0  0  0  0  0
  186.4490  179.1580  147.0680 O   0  0  0  0  0  0  0  0  0  0  0  0
  183.9910  179.1360  145.7570 O   0  0  0  0  0  0  0  0  0  0  0  0
  186.3630  177.8150  147.1690 C   0  0  0  0  0  2  0  0  0  0  0  0
  186.3400  178.8050  144.4530 O   0  0  0  0  0  0  0  0  0  0  0  0
  185.5570  178.5130  145.7120 P   0  0  0  0  0  0  0  0  0  0  0  0
  191.9870  174.5410  146.5840 O   0  0  0  0  0  1  0  0  0  0  0  0
  192.0090  175.8550  146.1160 C   0  0  2  0  0  3  0  0  0  0  0  0
  192.8800  176.7120  147.0270 C   0  0  0  0  0  2  0  0  0  0  0  0
  194.2400  177.0030  146.4050 C   0  0  0  0  0  2  0  0  0  0  0  0
  195.3230  176.4660  144.2130 C   0  0  0  0  0  1  0  0  0  0  0  0
  194.6150  175.8970  145.4310 C   0  0  0  0  0  3  0  0  0  0  0  0
  195.5150  174.8910  146.1110 C   0  0  0  0  0  1  0  0  0  0  0  0
  194.5100  170.9880  145.4590 C   0  0  0  0  0  2  0  0  0  0  0  0
  194.0930  168.6470  145.6260 O   0  0  0  0  0  0  0  0  0  0  0  0
  194.7440  169.5710  145.0550 C   0  0  0  0  0  0  0  0  0  0  0  0
  196.5910  170.0920  143.3370 C   0  0  0  0  0  0  0  0  0  0  0  0
  195.6460  169.2250  143.9860 N   0  0  0  0  0  2  0  0  0  0  0  0
  197.3070  169.6100  142.1240 C   0  0  0  0  0  1  0  0  0  0  0  0
  196.8490  171.2730  143.7940 N   0  0  0  0  0  2  0  0  0  0  0  0
  1  5  1  0  0  0  0
  1 35  1  0  0  0  0
  2 10  2  0  0  0  0
  3 10  1  0  0  0  0
  4  8  2  0  0  0  0
  6 12  1  0  0  0  0
  7  6  2  0  0  0  0
  7 11  1  0  0  0  0
  8  3  1  0  0  0  0
  9 14  1  6  0  0  0
  9  6  1  0  0  0  0
  9  4  1  0  0  0  0
 10 55  1  0  0  0  0
 11  1  2  0  0  0  0
 12  8  1  0  0  0  0
 12  5  2  0  0  0  0
 13 14  1  0  0  0  0
 13 17  1  0  0  0  0
 15 14  2  0  0  0  0
 16 15  1  0  0  0  0
 18 13  2  0  0  0  0
 19 16  2  0  0  0  0
 19 18  1  0  0  0  0
 20 21  1  0  0  0  0
 20 19  1  0  0  0  0
 21 22  1  0  0  0  0
 23 28  1  6  0  0  0
 23 29  1  0  0  0  0
 24 26  1  0  0  0  0
 24 25  1  0  0  0  0
 24 21  1  1  0  0  0
 25 23  1  0  0  0  0
 26 23  1  0  0  0  0
 28 27  1  0  0  0  0
 29 30  1  0  0  0  0
 30 31  1  0  0  0  0
 32 31  1  0  0  0  0
 33 32  1  0  0  0  0
 35 34  1  1  0  0  0
 35 39  1  0  0  0  0
 36 37  1  0  0  0  0
 37 41  1  0  0  0  0
 38 40  1  0  0  0  0
 39 36  2  0  0  0  0
 39 42  1  0  0  0  0
 41 45  1  0  0  0  0
 41 40  2  0  0  0  0
 42 49  1  0  0  0  0
 42 38  2  0  0  0  0
 43 45  1  0  0  0  0
 46 47  2  0  0  0  0
 47 44  2  0  0  0  0
 47 43  1  0  0  0  0
 49 48  1  1  0  0  0
 49 50  1  0  0  0  0
 51 50  1  0  0  0  0
 52 53  1  0  0  0  0
 53 54  1  0  0  0  0
 53 51  1  0  0  0  0
 57 55  1  0  0  0  0
 57 56  2  0  0  0  0
 58 61  2  0  0  0  0
 58 59  1  0  0  0  0
 59 57  1  0  0  0  0
 60 58  1  0  0  0  0
M  END
>  <MODEL>
9

>  <REMARK>
 VINA RESULT:      -5.4      2.361      4.511
  Name = 
  18 active torsions:
  status: ('A' for Active; 'I' for Inactive)
    1  A    between atoms: C_2  and  C_40
    2  A    between atoms: C_7  and  C_30
    3  A    between atoms: C_7  and  C_49
    4  A    between atoms: N_11  and  C_36
    5  A    between atoms: C_15  and  C_18
    6  A    between atoms: C_17  and  C_41
    7  A    between atoms: C_18  and  C_48
    8  A    between atoms: C_20  and  C_40
    9  A    between atoms: C_21  and  C_22
   10  A    between atoms: C_21  and  C_53
   11  A    between atoms: C_22  and  C_46
   12  A    between atoms: C_23  and  C_30
   13  A    between atoms: N_24  and  C_38
   14  A    between atoms: N_24  and  C_43
   15  A    between atoms: C_32  and  C_44
   16  A    between atoms: C_36  and  C_49
   17  A    between atoms: C_38  and  C_58
   18  A    between atoms: C_42  and  C_53
                            x       y       z     vdW  Elec       q    Type
                         _______ _______ _______ _____ _____    ______ ____

>  <TORSDO>
F 18

$$$$
