=
 OpenBabel11042417293D

 39 42  0  0  1  0  0  0  0  0999 V2000
  190.7100  175.5910  145.0460 C   0  0  2  0  0  3  0  0  0  0  0  0
  193.2110  175.9990  144.3940 C   0  0  0  0  0  0  0  0  0  0  0  0
  194.0390  176.2000  146.5180 N   0  0  0  0  0  0  0  0  0  0  0  0
  194.1460  176.1320  142.1120 C   0  0  0  0  0  3  0  0  0  0  0  0
  192.1780  175.8300  145.3030 C   0  0  0  0  0  0  0  0  0  0  0  0
  193.1120  175.9620  143.0160 C   0  0  0  0  0  3  0  0  0  0  0  0
  194.3790  176.2300  145.2160 C   0  0  0  0  0  0  0  0  0  0  0  0
  192.7110  175.9600  146.5750 C   0  0  0  0  0  3  0  0  0  0  0  0
  195.6490  176.4400  144.8150 N   0  0  0  0  0  0  0  0  0  0  0  0
  196.3490  176.4960  141.1250 C   0  0  0  0  0  1  0  0  0  0  0  0
  195.5000  176.3730  142.3370 C   0  0  0  0  0  0  0  0  0  0  0  0
  196.1590  176.5090  143.5610 C   0  0  0  0  0  3  0  0  0  0  0  0
  188.4630  175.9500  146.1350 N   0  0  0  0  0  2  0  0  0  0  0  0
  189.7310  176.4820  145.7570 C   0  0  0  0  0  0  0  0  0  0  0  0
  190.0320  177.6690  146.0540 O   0  0  0  0  0  0  0  0  0  0  0  0
  187.4600  176.7520  146.8200 C   0  0  0  0  0  2  0  0  0  0  0  0
  186.3490  178.0030  143.7130 C   0  0  0  0  0  3  0  0  0  0  0  0
  185.1850  176.2120  146.2910 F   0  0  0  0  0  0  0  0  0  0  0  0
  185.8830  178.4360  145.9030 C   0  0  0  0  0  0  0  0  0  0  0  0
  186.2620  176.9950  145.9090 C   0  0  1  0  0  0  0  0  0  0  0  0
  185.9360  178.9340  144.5480 C   0  0  0  0  0  0  0  0  0  0  0  0
  186.6270  176.7220  144.4400 C   0  0  0  0  0  2  0  0  0  0  0  0
  185.5970  180.2240  144.1610 O   0  0  0  0  0  1  0  0  0  0  0  0
  185.3470  179.0910  146.9250 C   0  0  0  0  0  2  0  0  0  0  0  0
  190.3290  174.1770  145.0270 N   0  0  0  0  0  2  0  0  0  0  0  0
  189.6650  173.9660  142.6930 C   0  0  0  0  0  2  0  0  0  0  0  0
  190.5880  172.0390  143.8490 C   0  0  2  0  0  3  0  0  0  0  0  0
  189.7280  171.5550  142.6780 C   0  0  1  0  0  3  0  0  0  0  0  0
  190.6740  173.5610  143.7500 C   0  0  2  0  0  3  0  0  0  0  0  0
  189.5240  172.7620  141.7810 C   0  0  1  0  0  3  0  0  0  0  0  0
  190.3250  170.5200  141.9600 O   0  0  0  0  0  1  0  0  0  0  0  0
  188.1890  172.7390  141.0870 C   0  0  0  0  0  0  0  0  0  0  0  0
  187.1230  172.6800  141.7580 O   0  0  0  0  0  0  0  0  0  0  0  0
  188.1190  172.7030  139.6650 N   0  0  0  0  0  1  0  0  0  0  0  0
  191.9080  171.3940  143.9320 N   0  0  0  0  0  2  0  0  0  0  0  0
  192.9730  172.3140  143.5350 C   0  0  0  0  0  2  0  0  0  0  0  0
  194.1920  172.0090  144.2710 N   0  0  0  0  0  0  0  0  0  0  0  0
  194.0330  172.5420  145.6160 C   0  0  0  0  0  1  0  0  0  0  0  0
  195.2520  172.7770  143.6440 C   0  0  0  0  0  1  0  0  0  0  0  0
  1 25  1  1  0  0  0
  1  5  1  0  0  0  0
  1 14  1  0  0  0  0
  2  7  1  0  0  0  0
  2  5  1  0  0  0  0
  3  8  1  0  0  0  0
  4 11  2  0  0  0  0
  4  6  1  0  0  0  0
  5  8  2  0  0  0  0
  6  2  2  0  0  0  0
  7  3  2  0  0  0  0
  9  7  1  0  0  0  0
 10 11  1  0  0  0  0
 11 12  1  0  0  0  0
 12  9  2  0  0  0  0
 13 16  1  0  0  0  0
 14 15  2  0  0  0  0
 14 13  1  0  0  0  0
 17 22  1  0  0  0  0
 17 21  2  0  0  0  0
 19 20  1  0  0  0  0
 19 24  2  0  0  0  0
 20 18  1  1  0  0  0
 20 16  1  0  0  0  0
 21 19  1  0  0  0  0
 22 20  1  0  0  0  0
 23 21  1  0  0  0  0
 26 29  1  0  0  0  0
 27 35  1  6  0  0  0
 28 31  1  6  0  0  0
 28 27  1  0  0  0  0
 29 27  1  0  0  0  0
 29 25  1  1  0  0  0
 30 32  1  1  0  0  0
 30 28  1  0  0  0  0
 30 26  1  0  0  0  0
 32 33  2  0  0  0  0
 34 32  1  0  0  0  0
 36 35  1  0  0  0  0
 36 37  1  0  0  0  0
 37 38  1  0  0  0  0
 39 37  1  0  0  0  0
M  END
>  <MODEL>
1

>  <REMARK>
 VINA RESULT:      -7.5      0.000      0.000
  Name = 
  10 active torsions:
  status: ('A' for Active; 'I' for Inactive)
    1  A    between atoms: C_4  and  N_9
    2  A    between atoms: C_4  and  N_18
    3  A    between atoms: C_7  and  N_18
    4  A    between atoms: N_8  and  C_37
    5  A    between atoms: C_10  and  C_37
    6  A    between atoms: C_12  and  C_16
    7  A    between atoms: C_16  and  C_19
    8  A    between atoms: C_16  and  N_27
    9  A    between atoms: C_23  and  C_34
   10  A    between atoms: N_27  and  C_32
                            x       y       z     vdW  Elec       q    Type
                         _______ _______ _______ _____ _____    ______ ____

>  <TORSDO>
F 10

$$$$
=
 OpenBabel11042417293D

 39 42  0  0  1  0  0  0  0  0999 V2000
  188.8770  175.9420  142.3950 C   0  0  2  0  0  3  0  0  0  0  0  0
  187.0800  177.4060  143.6090 C   0  0  0  0  0  0  0  0  0  0  0  0
  186.3620  178.5690  141.7720 N   0  0  0  0  0  0  0  0  0  0  0  0
  186.5370  177.3950  146.0180 C   0  0  0  0  0  3  0  0  0  0  0  0
  187.7780  176.9710  142.4930 C   0  0  0  0  0  0  0  0  0  0  0  0
  187.2350  176.9570  144.9060 C   0  0  0  0  0  3  0  0  0  0  0  0
  186.1860  178.4230  143.0990 C   0  0  0  0  0  0  0  0  0  0  0  0
  187.3230  177.6950  141.4020 C   0  0  0  0  0  3  0  0  0  0  0  0
  185.2800  179.1520  143.7830 N   0  0  0  0  0  0  0  0  0  0  0  0
  184.9850  178.5790  147.4840 C   0  0  0  0  0  1  0  0  0  0  0  0
  185.5360  178.3580  146.1220 C   0  0  0  0  0  0  0  0  0  0  0  0
  184.9830  179.1400  145.1050 C   0  0  0  0  0  3  0  0  0  0  0  0
  190.8940  175.3690  143.7970 N   0  0  0  0  0  2  0  0  0  0  0  0
  190.2190  176.3080  142.9630 C   0  0  0  0  0  0  0  0  0  0  0  0
  190.7640  177.4080  142.6810 O   0  0  0  0  0  0  0  0  0  0  0  0
  192.1920  175.6530  144.3900 C   0  0  0  0  0  2  0  0  0  0  0  0
  190.5810  175.7210  147.5290 C   0  0  0  0  0  3  0  0  0  0  0  0
  193.0710  174.0980  145.9890 F   0  0  0  0  0  0  0  0  0  0  0  0
  192.6450  176.2960  146.7450 C   0  0  0  0  0  0  0  0  0  0  0  0
  192.2280  175.1870  145.8410 C   0  0  1  0  0  0  0  0  0  0  0  0
  191.6120  176.5150  147.7310 C   0  0  0  0  0  0  0  0  0  0  0  0
  190.8140  174.8400  146.3380 C   0  0  0  0  0  2  0  0  0  0  0  0
  191.6840  177.4400  148.7660 O   0  0  0  0  0  1  0  0  0  0  0  0
  193.8600  176.8260  146.7960 C   0  0  0  0  0  2  0  0  0  0  0  0
  188.9390  175.2550  141.1020 N   0  0  0  0  0  2  0  0  0  0  0  0
  188.7640  173.4610  142.7390 C   0  0  0  0  0  2  0  0  0  0  0  0
  189.9300  173.0570  140.6470 C   0  0  2  0  0  3  0  0  0  0  0  0
  190.4410  172.0710  141.7020 C   0  0  1  0  0  3  0  0  0  0  0  0
  188.7590  173.8170  141.2660 C   0  0  2  0  0  3  0  0  0  0  0  0
  189.4230  172.0960  142.8270 C   0  0  1  0  0  3  0  0  0  0  0  0
  190.5800  170.7750  141.2100 O   0  0  0  0  0  1  0  0  0  0  0  0
  190.0520  171.8650  144.1740 C   0  0  0  0  0  0  0  0  0  0  0  0
  189.3420  171.8510  145.2150 O   0  0  0  0  0  0  0  0  0  0  0  0
  191.4660  171.7390  144.2930 N   0  0  0  0  0  1  0  0  0  0  0  0
  189.5940  172.4340  139.3570 N   0  0  0  0  0  2  0  0  0  0  0  0
  188.4430  173.0890  138.7360 C   0  0  0  0  0  2  0  0  0  0  0  0
  188.8980  174.0800  137.7700 N   0  0  0  0  0  0  0  0  0  0  0  0
  187.7500  174.9030  137.4190 C   0  0  0  0  0  1  0  0  0  0  0  0
  189.2620  173.3450  136.5720 C   0  0  0  0  0  1  0  0  0  0  0  0
  1 25  1  6  0  0  0
  1  5  1  0  0  0  0
  1 14  1  0  0  0  0
  2  6  2  0  0  0  0
  3  7  2  0  0  0  0
  4 11  2  0  0  0  0
  5  2  1  0  0  0  0
  6  4  1  0  0  0  0
  7  2  1  0  0  0  0
  7  9  1  0  0  0  0
  8  3  1  0  0  0  0
  8  5  2  0  0  0  0
  9 12  2  0  0  0  0
 11 10  1  0  0  0  0
 12 11  1  0  0  0  0
 13 16  1  0  0  0  0
 14 13  1  0  0  0  0
 15 14  2  0  0  0  0
 16 20  1  0  0  0  0
 17 21  2  0  0  0  0
 19 24  2  0  0  0  0
 19 21  1  0  0  0  0
 20 18  1  1  0  0  0
 20 22  1  0  0  0  0
 20 19  1  0  0  0  0
 21 23  1  0  0  0  0
 22 17  1  0  0  0  0
 26 30  1  0  0  0  0
 27 35  1  6  0  0  0
 27 29  1  0  0  0  0
 27 28  1  0  0  0  0
 28 31  1  6  0  0  0
 28 30  1  0  0  0  0
 29 25  1  1  0  0  0
 29 26  1  0  0  0  0
 30 32  1  1  0  0  0
 32 34  1  0  0  0  0
 32 33  2  0  0  0  0
 36 35  1  0  0  0  0
 37 36  1  0  0  0  0
 38 37  1  0  0  0  0
 39 37  1  0  0  0  0
M  END
>  <MODEL>
2

>  <REMARK>
 VINA RESULT:      -7.4      2.924      6.950
  Name = 
  10 active torsions:
  status: ('A' for Active; 'I' for Inactive)
    1  A    between atoms: C_4  and  N_9
    2  A    between atoms: C_4  and  N_18
    3  A    between atoms: C_7  and  N_18
    4  A    between atoms: N_8  and  C_37
    5  A    between atoms: C_10  and  C_37
    6  A    between atoms: C_12  and  C_16
    7  A    between atoms: C_16  and  C_19
    8  A    between atoms: C_16  and  N_27
    9  A    between atoms: C_23  and  C_34
   10  A    between atoms: N_27  and  C_32
                            x       y       z     vdW  Elec       q    Type
                         _______ _______ _______ _____ _____    ______ ____

>  <TORSDO>
F 10

$$$$
=
 OpenBabel11042417293D

 39 42  0  0  1  0  0  0  0  0999 V2000
  190.2860  174.6270  145.5820 C   0  0  2  0  0  3  0  0  0  0  0  0
  192.8910  174.4490  145.7410 C   0  0  0  0  0  0  0  0  0  0  0  0
  193.2690  176.5050  146.6740 N   0  0  0  0  0  0  0  0  0  0  0  0
  194.2980  172.5580  145.0020 C   0  0  0  0  0  3  0  0  0  0  0  0
  191.6780  175.0920  145.9320 C   0  0  0  0  0  0  0  0  0  0  0  0
  193.0840  173.1960  145.1910 C   0  0  0  0  0  3  0  0  0  0  0  0
  193.8760  175.3880  146.2320 C   0  0  0  0  0  0  0  0  0  0  0  0
  191.9420  176.3310  146.4940 C   0  0  0  0  0  3  0  0  0  0  0  0
  195.2160  175.2370  146.2820 N   0  0  0  0  0  0  0  0  0  0  0  0
  196.6820  172.0360  144.9720 C   0  0  0  0  0  1  0  0  0  0  0  0
  195.5890  172.9870  145.3020 C   0  0  0  0  0  0  0  0  0  0  0  0
  195.9830  174.1960  145.8780 C   0  0  0  0  0  3  0  0  0  0  0  0
  188.2950  176.0950  146.0770 N   0  0  0  0  0  2  0  0  0  0  0  0
  189.1680  175.0460  146.4940 C   0  0  0  0  0  0  0  0  0  0  0  0
  188.9730  174.4620  147.5930 O   0  0  0  0  0  0  0  0  0  0  0  0
  187.1950  176.5610  146.9070 C   0  0  0  0  0  2  0  0  0  0  0  0
  186.0990  177.9140  143.8370 C   0  0  0  0  0  3  0  0  0  0  0  0
  184.8570  176.2590  146.4690 F   0  0  0  0  0  0  0  0  0  0  0  0
  185.7660  178.3980  146.0410 C   0  0  0  0  0  0  0  0  0  0  0  0
  185.9940  176.9260  146.0410 C   0  0  1  0  0  0  0  0  0  0  0  0
  185.8180  178.8840  144.6820 C   0  0  0  0  0  0  0  0  0  0  0  0
  186.2720  176.6120  144.5610 C   0  0  0  0  0  2  0  0  0  0  0  0
  185.6000  180.2020  144.2990 O   0  0  0  0  0  1  0  0  0  0  0  0
  185.3410  179.1070  147.0780 C   0  0  0  0  0  2  0  0  0  0  0  0
  190.2140  173.2290  145.1490 N   0  0  0  0  0  2  0  0  0  0  0  0
  189.7270  171.7000  143.3170 C   0  0  0  0  0  2  0  0  0  0  0  0
  190.3590  173.9930  142.8210 C   0  0  2  0  0  3  0  0  0  0  0  0
  190.6820  173.1110  141.6110 C   0  0  1  0  0  3  0  0  0  0  0  0
  189.6070  173.1230  143.8270 C   0  0  2  0  0  3  0  0  0  0  0  0
  189.9150  171.8190  141.8160 C   0  0  1  0  0  3  0  0  0  0  0  0
  190.3170  173.6990  140.4010 O   0  0  0  0  0  1  0  0  0  0  0  0
  190.6370  170.6280  141.2470 C   0  0  0  0  0  0  0  0  0  0  0  0
  190.6340  170.4140  140.0050 O   0  0  0  0  0  0  0  0  0  0  0  0
  191.2640  169.6880  142.1140 N   0  0  0  0  0  1  0  0  0  0  0  0
  189.6430  175.2330  142.4870 N   0  0  0  0  0  2  0  0  0  0  0  0
  190.5180  176.3990  142.6090 C   0  0  0  0  0  2  0  0  0  0  0  0
  189.7780  177.5170  143.1800 N   0  0  0  0  0  0  0  0  0  0  0  0
  189.1410  178.2240  142.0800 C   0  0  0  0  0  1  0  0  0  0  0  0
  190.7690  178.4210  143.7360 C   0  0  0  0  0  1  0  0  0  0  0  0
  1 25  1  1  0  0  0
  1  5  1  0  0  0  0
  1 14  1  0  0  0  0
  2  5  1  0  0  0  0
  2  7  1  0  0  0  0
  4  6  1  0  0  0  0
  4 11  2  0  0  0  0
  5  8  2  0  0  0  0
  6  2  2  0  0  0  0
  7  9  1  0  0  0  0
  7  3  2  0  0  0  0
  8  3  1  0  0  0  0
 10 11  1  0  0  0  0
 11 12  1  0  0  0  0
 12  9  2  0  0  0  0
 13 14  1  0  0  0  0
 13 16  1  0  0  0  0
 14 15  2  0  0  0  0
 17 22  1  0  0  0  0
 17 21  2  0  0  0  0
 19 24  2  0  0  0  0
 20 19  1  0  0  0  0
 20 18  1  1  0  0  0
 20 16  1  0  0  0  0
 21 19  1  0  0  0  0
 22 20  1  0  0  0  0
 23 21  1  0  0  0  0
 26 29  1  0  0  0  0
 27 35  1  6  0  0  0
 27 29  1  0  0  0  0
 28 31  1  6  0  0  0
 28 30  1  0  0  0  0
 28 27  1  0  0  0  0
 29 25  1  1  0  0  0
 30 32  1  1  0  0  0
 30 26  1  0  0  0  0
 32 34  1  0  0  0  0
 33 32  2  0  0  0  0
 35 36  1  0  0  0  0
 36 37  1  0  0  0  0
 37 39  1  0  0  0  0
 38 37  1  0  0  0  0
M  END
>  <MODEL>
3

>  <REMARK>
 VINA RESULT:      -7.4      2.151      3.339
  Name = 
  10 active torsions:
  status: ('A' for Active; 'I' for Inactive)
    1  A    between atoms: C_4  and  N_9
    2  A    between atoms: C_4  and  N_18
    3  A    between atoms: C_7  and  N_18
    4  A    between atoms: N_8  and  C_37
    5  A    between atoms: C_10  and  C_37
    6  A    between atoms: C_12  and  C_16
    7  A    between atoms: C_16  and  C_19
    8  A    between atoms: C_16  and  N_27
    9  A    between atoms: C_23  and  C_34
   10  A    between atoms: N_27  and  C_32
                            x       y       z     vdW  Elec       q    Type
                         _______ _______ _______ _____ _____    ______ ____

>  <TORSDO>
F 10

$$$$
=
 OpenBabel11042417293D

 39 42  0  0  1  0  0  0  0  0999 V2000
  189.4150  175.0020  144.4310 C   0  0  2  0  0  3  0  0  0  0  0  0
  191.8140  175.7950  145.1120 C   0  0  0  0  0  0  0  0  0  0  0  0
  191.3430  176.3150  147.2910 N   0  0  0  0  0  0  0  0  0  0  0  0
  193.8090  175.9040  143.6610 C   0  0  0  0  0  3  0  0  0  0  0  0
  190.4790  175.5190  145.3680 C   0  0  0  0  0  0  0  0  0  0  0  0
  192.4760  175.6270  143.9120 C   0  0  0  0  0  3  0  0  0  0  0  0
  192.3240  176.2970  146.3700 C   0  0  0  0  0  0  0  0  0  0  0  0
  190.2270  175.8470  146.6900 C   0  0  0  0  0  3  0  0  0  0  0  0
  193.5790  176.6970  146.6570 N   0  0  0  0  0  0  0  0  0  0  0  0
  196.1430  176.5740  143.9140 C   0  0  0  0  0  1  0  0  0  0  0  0
  194.7940  176.4010  144.5120 C   0  0  0  0  0  0  0  0  0  0  0  0
  194.6720  176.7520  145.8580 C   0  0  0  0  0  3  0  0  0  0  0  0
  189.4910  173.3030  142.5690 N   0  0  0  0  0  2  0  0  0  0  0  0
  189.5360  173.5780  143.9680 C   0  0  0  0  0  0  0  0  0  0  0  0
  189.7120  172.6410  144.7910 O   0  0  0  0  0  0  0  0  0  0  0  0
  189.5940  171.9500  142.0430 C   0  0  0  0  0  2  0  0  0  0  0  0
  192.0390  173.7030  140.1980 C   0  0  0  0  0  3  0  0  0  0  0  0
  191.3000  170.5620  141.0870 F   0  0  0  0  0  0  0  0  0  0  0  0
  190.3680  172.2320  139.7010 C   0  0  0  0  0  0  0  0  0  0  0  0
  190.7720  171.8430  141.0810 C   0  0  1  0  0  0  0  0  0  0  0  0
  191.2000  173.3250  139.2550 C   0  0  0  0  0  0  0  0  0  0  0  0
  191.8610  172.8710  141.4320 C   0  0  0  0  0  2  0  0  0  0  0  0
  191.1370  173.9120  137.9970 O   0  0  0  0  0  1  0  0  0  0  0  0
  189.5540  171.5380  138.9160 C   0  0  0  0  0  2  0  0  0  0  0  0
  189.0380  175.9470  143.3770 N   0  0  0  0  0  2  0  0  0  0  0  0
  186.9380  176.2430  142.1790 C   0  0  0  0  0  2  0  0  0  0  0  0
  187.5550  177.8270  143.9150 C   0  0  2  0  0  3  0  0  0  0  0  0
  186.5810  178.5020  142.9440 C   0  0  1  0  0  3  0  0  0  0  0  0
  187.6450  176.3550  143.5160 C   0  0  2  0  0  3  0  0  0  0  0  0
  185.9360  177.3820  142.1500 C   0  0  1  0  0  3  0  0  0  0  0  0
  185.6040  179.2540  143.5940 O   0  0  0  0  0  1  0  0  0  0  0  0
  185.6020  177.7970  140.7430 C   0  0  0  0  0  0  0  0  0  0  0  0
  186.4500  177.6650  139.8210 O   0  0  0  0  0  0  0  0  0  0  0  0
  184.3520  178.4190  140.4560 N   0  0  0  0  0  1  0  0  0  0  0  0
  187.2180  178.0180  145.3330 N   0  0  0  0  0  2  0  0  0  0  0  0
  186.5830  176.8250  145.8930 C   0  0  0  0  0  2  0  0  0  0  0  0
  185.7560  177.1910  147.0340 N   0  0  0  0  0  0  0  0  0  0  0  0
  184.5190  177.7530  146.5120 C   0  0  0  0  0  1  0  0  0  0  0  0
  186.4480  178.2720  147.7110 C   0  0  0  0  0  1  0  0  0  0  0  0
  1 25  1  6  0  0  0
  1  5  1  0  0  0  0
  2  5  1  0  0  0  0
  2  7  1  0  0  0  0
  4  6  1  0  0  0  0
  4 11  2  0  0  0  0
  5  8  2  0  0  0  0
  6  2  2  0  0  0  0
  7  9  1  0  0  0  0
  7  3  2  0  0  0  0
  8  3  1  0  0  0  0
 10 11  1  0  0  0  0
 11 12  1  0  0  0  0
 12  9  2  0  0  0  0
 13 14  1  0  0  0  0
 14  1  1  0  0  0  0
 14 15  2  0  0  0  0
 16 13  1  0  0  0  0
 17 22  1  0  0  0  0
 19 20  1  0  0  0  0
 20 18  1  1  0  0  0
 20 22  1  0  0  0  0
 20 16  1  0  0  0  0
 21 19  1  0  0  0  0
 21 17  2  0  0  0  0
 23 21  1  0  0  0  0
 24 19  2  0  0  0  0
 26 29  1  0  0  0  0
 27 35  1  1  0  0  0
 28 31  1  1  0  0  0
 28 27  1  0  0  0  0
 29 25  1  6  0  0  0
 29 27  1  0  0  0  0
 30 32  1  6  0  0  0
 30 26  1  0  0  0  0
 30 28  1  0  0  0  0
 33 32  2  0  0  0  0
 34 32  1  0  0  0  0
 35 36  1  0  0  0  0
 36 37  1  0  0  0  0
 37 39  1  0  0  0  0
 38 37  1  0  0  0  0
M  END
>  <MODEL>
4

>  <REMARK>
 VINA RESULT:      -7.4      2.909      6.695
  Name = 
  10 active torsions:
  status: ('A' for Active; 'I' for Inactive)
    1  A    between atoms: C_4  and  N_9
    2  A    between atoms: C_4  and  N_18
    3  A    between atoms: C_7  and  N_18
    4  A    between atoms: N_8  and  C_37
    5  A    between atoms: C_10  and  C_37
    6  A    between atoms: C_12  and  C_16
    7  A    between atoms: C_16  and  C_19
    8  A    between atoms: C_16  and  N_27
    9  A    between atoms: C_23  and  C_34
   10  A    between atoms: N_27  and  C_32
                            x       y       z     vdW  Elec       q    Type
                         _______ _______ _______ _____ _____    ______ ____

>  <TORSDO>
F 10

$$$$
=
 OpenBabel11042417293D

 39 42  0  0  1  0  0  0  0  0999 V2000
  190.4860  175.1840  144.2720 C   0  0  2  0  0  3  0  0  0  0  0  0
  192.9810  174.7650  144.9370 C   0  0  0  0  0  0  0  0  0  0  0  0
  193.6420  176.9570  144.9910 N   0  0  0  0  0  0  0  0  0  0  0  0
  194.0750  172.5800  145.2970 C   0  0  0  0  0  3  0  0  0  0  0  0
  191.8970  175.5750  144.6340 C   0  0  0  0  0  0  0  0  0  0  0  0
  192.9900  173.3850  144.9940 C   0  0  0  0  0  3  0  0  0  0  0  0
  194.0700  175.6920  145.1600 C   0  0  0  0  0  0  0  0  0  0  0  0
  192.3310  176.8910  144.6720 C   0  0  0  0  0  3  0  0  0  0  0  0
  195.3450  175.4100  145.4980 N   0  0  0  0  0  0  0  0  0  0  0  0
  196.3090  171.8010  145.8970 C   0  0  0  0  0  1  0  0  0  0  0  0
  195.3860  172.9300  145.6120 C   0  0  0  0  0  0  0  0  0  0  0  0
  195.9400  174.2090  145.6980 C   0  0  0  0  0  3  0  0  0  0  0  0
  188.4900  176.3410  145.2920 N   0  0  0  0  0  2  0  0  0  0  0  0
  189.4440  175.2820  145.3500 C   0  0  0  0  0  0  0  0  0  0  0  0
  189.3820  174.4260  146.2720 O   0  0  0  0  0  0  0  0  0  0  0  0
  187.4550  176.5060  146.3020 C   0  0  0  0  0  2  0  0  0  0  0  0
  185.9340  178.0720  143.5290 C   0  0  0  0  0  3  0  0  0  0  0  0
  185.0730  176.2530  146.2050 F   0  0  0  0  0  0  0  0  0  0  0  0
  185.9460  178.4080  145.7850 C   0  0  0  0  0  0  0  0  0  0  0  0
  186.1440  176.9380  145.6540 C   0  0  1  0  0  0  0  0  0  0  0  0
  185.8000  178.9850  144.4690 C   0  0  0  0  0  0  0  0  0  0  0  0
  186.1900  176.7230  144.1320 C   0  0  0  0  0  2  0  0  0  0  0  0
  185.5510  180.3270  144.2110 O   0  0  0  0  0  1  0  0  0  0  0  0
  185.6940  179.0490  146.9190 C   0  0  0  0  0  2  0  0  0  0  0  0
  190.3920  173.9710  143.4560 N   0  0  0  0  0  2  0  0  0  0  0  0
  189.4470  174.4480  141.2630 C   0  0  0  0  0  2  0  0  0  0  0  0
  191.4330  173.0590  141.4300 C   0  0  2  0  0  3  0  0  0  0  0  0
  190.7070  172.7390  140.1190 C   0  0  1  0  0  3  0  0  0  0  0  0
  190.7200  174.2520  142.0630 C   0  0  2  0  0  3  0  0  0  0  0  0
  189.7400  173.8850  139.8850 C   0  0  1  0  0  3  0  0  0  0  0  0
  191.5750  172.6160  139.0360 O   0  0  0  0  0  1  0  0  0  0  0  0
  188.4850  173.4400  139.1850 C   0  0  0  0  0  0  0  0  0  0  0  0
  187.8370  172.4460  139.6090 O   0  0  0  0  0  0  0  0  0  0  0  0
  188.0620  174.0890  137.9890 N   0  0  0  0  0  1  0  0  0  0  0  0
  192.8810  173.2700  141.2780 N   0  0  0  0  0  2  0  0  0  0  0  0
  193.2120  174.6940  141.2730 C   0  0  0  0  0  2  0  0  0  0  0  0
  194.5880  174.8860  141.7100 N   0  0  0  0  0  0  0  0  0  0  0  0
  194.9050  176.2960  141.5410 C   0  0  0  0  0  1  0  0  0  0  0  0
  195.4210  174.1580  140.7690 C   0  0  0  0  0  1  0  0  0  0  0  0
  1 25  1  1  0  0  0
  1  5  1  0  0  0  0
  1 14  1  0  0  0  0
  2  6  2  0  0  0  0
  2  7  1  0  0  0  0
  3  7  2  0  0  0  0
  4 11  2  0  0  0  0
  5  8  2  0  0  0  0
  5  2  1  0  0  0  0
  6  4  1  0  0  0  0
  7  9  1  0  0  0  0
  8  3  1  0  0  0  0
  9 12  2  0  0  0  0
 11 12  1  0  0  0  0
 11 10  1  0  0  0  0
 13 14  1  0  0  0  0
 13 16  1  0  0  0  0
 14 15  2  0  0  0  0
 17 22  1  0  0  0  0
 17 21  2  0  0  0  0
 19 24  2  0  0  0  0
 20 19  1  0  0  0  0
 20 18  1  1  0  0  0
 20 16  1  0  0  0  0
 21 19  1  0  0  0  0
 22 20  1  0  0  0  0
 23 21  1  0  0  0  0
 26 29  1  0  0  0  0
 27 35  1  6  0  0  0
 27 29  1  0  0  0  0
 28 31  1  6  0  0  0
 28 27  1  0  0  0  0
 29 25  1  1  0  0  0
 30 32  1  1  0  0  0
 30 28  1  0  0  0  0
 30 26  1  0  0  0  0
 32 33  2  0  0  0  0
 34 32  1  0  0  0  0
 36 35  1  0  0  0  0
 36 37  1  0  0  0  0
 38 37  1  0  0  0  0
 39 37  1  0  0  0  0
M  END
>  <MODEL>
5

>  <REMARK>
 VINA RESULT:      -7.2      1.788      2.658
  Name = 
  10 active torsions:
  status: ('A' for Active; 'I' for Inactive)
    1  A    between atoms: C_4  and  N_9
    2  A    between atoms: C_4  and  N_18
    3  A    between atoms: C_7  and  N_18
    4  A    between atoms: N_8  and  C_37
    5  A    between atoms: C_10  and  C_37
    6  A    between atoms: C_12  and  C_16
    7  A    between atoms: C_16  and  C_19
    8  A    between atoms: C_16  and  N_27
    9  A    between atoms: C_23  and  C_34
   10  A    between atoms: N_27  and  C_32
                            x       y       z     vdW  Elec       q    Type
                         _______ _______ _______ _____ _____    ______ ____

>  <TORSDO>
F 10

$$$$
=
 OpenBabel11042417293D

 39 42  0  0  1  0  0  0  0  0999 V2000
  188.4500  176.1130  142.4730 C   0  0  2  0  0  3  0  0  0  0  0  0
  186.4590  177.2800  143.7040 C   0  0  0  0  0  0  0  0  0  0  0  0
  185.2420  177.8230  141.8430 N   0  0  0  0  0  0  0  0  0  0  0  0
  186.2110  177.6170  146.1380 C   0  0  0  0  0  3  0  0  0  0  0  0
  187.1230  176.8230  142.5770 C   0  0  0  0  0  0  0  0  0  0  0  0
  186.8780  177.1580  145.0150 C   0  0  0  0  0  3  0  0  0  0  0  0
  185.2630  177.9090  143.1860 C   0  0  0  0  0  0  0  0  0  0  0  0
  186.3640  177.1690  141.4710 C   0  0  0  0  0  3  0  0  0  0  0  0
  184.2700  178.5030  143.8790 N   0  0  0  0  0  0  0  0  0  0  0  0
  184.5610  178.6340  147.6220 C   0  0  0  0  0  1  0  0  0  0  0  0
  184.9970  178.2920  146.2430 C   0  0  0  0  0  0  0  0  0  0  0  0
  184.1360  178.6820  145.2150 C   0  0  0  0  0  3  0  0  0  0  0  0
  190.1120  176.3060  144.3600 N   0  0  0  0  0  2  0  0  0  0  0  0
  189.6410  176.7800  143.1000 C   0  0  0  0  0  0  0  0  0  0  0  0
  190.2440  177.7170  142.5120 O   0  0  0  0  0  0  0  0  0  0  0  0
  191.2550  176.9050  145.0340 C   0  0  0  0  0  2  0  0  0  0  0  0
  194.5510  176.3190  146.1520 C   0  0  0  0  0  3  0  0  0  0  0  0
  191.9140  174.6000  145.0110 F   0  0  0  0  0  0  0  0  0  0  0  0
  193.4580  176.1700  144.1550 C   0  0  0  0  0  0  0  0  0  0  0  0
  192.3900  175.8930  145.1550 C   0  0  1  0  0  0  0  0  0  0  0  0
  194.7100  176.3790  144.8460 C   0  0  0  0  0  0  0  0  0  0  0  0
  193.1180  176.0480  146.5010 C   0  0  0  0  0  2  0  0  0  0  0  0
  195.9310  176.6130  144.2260 O   0  0  0  0  0  1  0  0  0  0  0  0
  193.3400  176.0080  142.8440 C   0  0  0  0  0  2  0  0  0  0  0  0
  188.7140  175.5290  141.1550 N   0  0  0  0  0  2  0  0  0  0  0  0
  188.6590  173.6200  142.6660 C   0  0  0  0  0  2  0  0  0  0  0  0
  190.0150  173.5100  140.6540 C   0  0  2  0  0  3  0  0  0  0  0  0
  190.5740  172.5270  141.6890 C   0  0  1  0  0  3  0  0  0  0  0  0
  188.7130  174.0720  141.2200 C   0  0  2  0  0  3  0  0  0  0  0  0
  189.4830  172.3470  142.7280 C   0  0  1  0  0  3  0  0  0  0  0  0
  190.9170  171.2950  141.1350 O   0  0  0  0  0  1  0  0  0  0  0  0
  190.0380  172.1060  144.1050 C   0  0  0  0  0  0  0  0  0  0  0  0
  189.3880  172.4590  145.1250 O   0  0  0  0  0  0  0  0  0  0  0  0
  191.3400  171.5510  144.2670 N   0  0  0  0  0  1  0  0  0  0  0  0
  189.8570  172.9380  139.3080 N   0  0  0  0  0  2  0  0  0  0  0  0
  188.4490  172.8820  138.9180 C   0  0  0  0  0  2  0  0  0  0  0  0
  188.2870  173.4030  137.5680 N   0  0  0  0  0  0  0  0  0  0  0  0
  189.6100  173.4730  136.9670 C   0  0  0  0  0  1  0  0  0  0  0  0
  187.8220  174.7700  137.7100 C   0  0  0  0  0  1  0  0  0  0  0  0
  1 25  1  6  0  0  0
  1  5  1  0  0  0  0
  1 14  1  0  0  0  0
  2  6  2  0  0  0  0
  3  7  2  0  0  0  0
  4 11  2  0  0  0  0
  5  2  1  0  0  0  0
  6  4  1  0  0  0  0
  7  2  1  0  0  0  0
  7  9  1  0  0  0  0
  8  3  1  0  0  0  0
  8  5  2  0  0  0  0
  9 12  2  0  0  0  0
 11 10  1  0  0  0  0
 12 11  1  0  0  0  0
 13 16  1  0  0  0  0
 14 13  1  0  0  0  0
 15 14  2  0  0  0  0
 16 20  1  0  0  0  0
 17 22  1  0  0  0  0
 19 21  1  0  0  0  0
 19 20  1  0  0  0  0
 20 18  1  6  0  0  0
 20 22  1  0  0  0  0
 21 17  2  0  0  0  0
 23 21  1  0  0  0  0
 24 19  2  0  0  0  0
 26 30  1  0  0  0  0
 27 35  1  6  0  0  0
 27 29  1  0  0  0  0
 27 28  1  0  0  0  0
 28 31  1  6  0  0  0
 28 30  1  0  0  0  0
 29 25  1  1  0  0  0
 29 26  1  0  0  0  0
 30 32  1  1  0  0  0
 32 34  1  0  0  0  0
 32 33  2  0  0  0  0
 36 35  1  0  0  0  0
 37 39  1  0  0  0  0
 37 36  1  0  0  0  0
 38 37  1  0  0  0  0
M  END
>  <MODEL>
6

>  <REMARK>
 VINA RESULT:      -7.1      2.702      7.421
  Name = 
  10 active torsions:
  status: ('A' for Active; 'I' for Inactive)
    1  A    between atoms: C_4  and  N_9
    2  A    between atoms: C_4  and  N_18
    3  A    between atoms: C_7  and  N_18
    4  A    between atoms: N_8  and  C_37
    5  A    between atoms: C_10  and  C_37
    6  A    between atoms: C_12  and  C_16
    7  A    between atoms: C_16  and  C_19
    8  A    between atoms: C_16  and  N_27
    9  A    between atoms: C_23  and  C_34
   10  A    between atoms: N_27  and  C_32
                            x       y       z     vdW  Elec       q    Type
                         _______ _______ _______ _____ _____    ______ ____

>  <TORSDO>
F 10

$$$$
=
 OpenBabel11042417293D

 39 42  0  0  1  0  0  0  0  0999 V2000
  190.7700  175.6870  144.1740 C   0  0  2  0  0  3  0  0  0  0  0  0
  193.3240  176.0470  143.7350 C   0  0  0  0  0  0  0  0  0  0  0  0
  193.9040  176.6560  145.8640 N   0  0  0  0  0  0  0  0  0  0  0  0
  194.5100  175.7930  141.5840 C   0  0  0  0  0  3  0  0  0  0  0  0
  192.1960  176.0130  144.5410 C   0  0  0  0  0  0  0  0  0  0  0  0
  193.3820  175.7580  142.3850 C   0  0  0  0  0  3  0  0  0  0  0  0
  194.3880  176.4590  144.6240 C   0  0  0  0  0  0  0  0  0  0  0  0
  192.5810  176.3890  145.8180 C   0  0  0  0  0  3  0  0  0  0  0  0
  195.6940  176.6330  144.3320 N   0  0  0  0  0  0  0  0  0  0  0  0
  196.8060  176.0400  140.7930 C   0  0  0  0  0  1  0  0  0  0  0  0
  195.8270  176.1130  141.9080 C   0  0  0  0  0  0  0  0  0  0  0  0
  196.3410  176.4890  143.1510 C   0  0  0  0  0  3  0  0  0  0  0  0
  188.5350  176.8360  144.3860 N   0  0  0  0  0  2  0  0  0  0  0  0
  189.8580  176.8380  143.8550 C   0  0  0  0  0  0  0  0  0  0  0  0
  190.2600  177.8110  143.1630 O   0  0  0  0  0  0  0  0  0  0  0  0
  187.5920  177.9120  144.1170 C   0  0  0  0  0  2  0  0  0  0  0  0
  184.2790  178.8850  144.8500 C   0  0  0  0  0  3  0  0  0  0  0  0
  185.9760  176.1510  143.9250 F   0  0  0  0  0  0  0  0  0  0  0  0
  185.8360  177.5390  145.8330 C   0  0  0  0  0  0  0  0  0  0  0  0
  186.1640  177.4450  144.3820 C   0  0  1  0  0  0  0  0  0  0  0  0
  184.6830  178.3920  146.0020 C   0  0  0  0  0  0  0  0  0  0  0  0
  185.1480  178.3960  143.7290 C   0  0  0  0  0  2  0  0  0  0  0  0
  184.0680  178.6660  147.2170 O   0  0  0  0  0  1  0  0  0  0  0  0
  186.3540  176.7750  146.7860 C   0  0  0  0  0  2  0  0  0  0  0  0
  190.1590  174.6520  145.0130 N   0  0  0  0  0  2  0  0  0  0  0  0
  191.6920  172.7970  144.6430 C   0  0  0  0  0  2  0  0  0  0  0  0
  190.1430  173.4330  142.8830 C   0  0  2  0  0  3  0  0  0  0  0  0
  191.3410  172.7110  142.2590 C   0  0  1  0  0  3  0  0  0  0  0  0
  190.2960  173.3360  144.4000 C   0  0  2  0  0  3  0  0  0  0  0  0
  192.0460  172.0010  143.4000 C   0  0  1  0  0  3  0  0  0  0  0  0
  190.9690  171.7920  141.2800 O   0  0  0  0  0  1  0  0  0  0  0  0
  193.5330  171.9200  143.1920 C   0  0  0  0  0  0  0  0  0  0  0  0
  194.2990  172.7640  143.7300 O   0  0  0  0  0  0  0  0  0  0  0  0
  194.0830  170.9370  142.3200 N   0  0  0  0  0  1  0  0  0  0  0  0
  188.8380  172.9520  142.4060 N   0  0  0  0  0  2  0  0  0  0  0  0
  187.9670  174.0650  142.0310 C   0  0  0  0  0  2  0  0  0  0  0  0
  188.6270  174.8980  141.0350 N   0  0  0  0  0  0  0  0  0  0  0  0
  187.8160  176.0940  140.8620 C   0  0  0  0  0  1  0  0  0  0  0  0
  188.5590  174.1680  139.7820 C   0  0  0  0  0  1  0  0  0  0  0  0
  1 14  1  1  0  0  0
  1  5  1  0  0  0  0
  1 25  1  0  0  0  0
  2  5  1  0  0  0  0
  2  7  1  0  0  0  0
  4 11  2  0  0  0  0
  4  6  1  0  0  0  0
  5  8  2  0  0  0  0
  6  2  2  0  0  0  0
  7  3  2  0  0  0  0
  8  3  1  0  0  0  0
  9  7  1  0  0  0  0
 10 11  1  0  0  0  0
 11 12  1  0  0  0  0
 12  9  2  0  0  0  0
 14 13  1  0  0  0  0
 15 14  2  0  0  0  0
 16 20  1  0  0  0  0
 16 13  1  0  0  0  0
 17 21  2  0  0  0  0
 19 21  1  0  0  0  0
 19 24  2  0  0  0  0
 20 18  1  6  0  0  0
 20 19  1  0  0  0  0
 21 23  1  0  0  0  0
 22 20  1  0  0  0  0
 22 17  1  0  0  0  0
 27 35  1  6  0  0  0
 27 29  1  0  0  0  0
 28 31  1  6  0  0  0
 28 27  1  0  0  0  0
 28 30  1  0  0  0  0
 29 26  1  0  0  0  0
 29 25  1  1  0  0  0
 30 32  1  6  0  0  0
 30 26  1  0  0  0  0
 32 33  2  0  0  0  0
 34 32  1  0  0  0  0
 36 35  1  0  0  0  0
 37 36  1  0  0  0  0
 38 37  1  0  0  0  0
 39 37  1  0  0  0  0
M  END
>  <MODEL>
7

>  <REMARK>
 VINA RESULT:      -7.1      1.791      3.474
  Name = 
  10 active torsions:
  status: ('A' for Active; 'I' for Inactive)
    1  A    between atoms: C_4  and  N_9
    2  A    between atoms: C_4  and  N_18
    3  A    between atoms: C_7  and  N_18
    4  A    between atoms: N_8  and  C_37
    5  A    between atoms: C_10  and  C_37
    6  A    between atoms: C_12  and  C_16
    7  A    between atoms: C_16  and  C_19
    8  A    between atoms: C_16  and  N_27
    9  A    between atoms: C_23  and  C_34
   10  A    between atoms: N_27  and  C_32
                            x       y       z     vdW  Elec       q    Type
                         _______ _______ _______ _____ _____    ______ ____

>  <TORSDO>
F 10

$$$$
=
 OpenBabel11042417293D

 39 42  0  0  1  0  0  0  0  0999 V2000
  191.3570  175.2290  145.3120 C   0  0  2  0  0  3  0  0  0  0  0  0
  193.8030  174.3400  145.5860 C   0  0  0  0  0  0  0  0  0  0  0  0
  194.8340  176.3740  145.7790 N   0  0  0  0  0  0  0  0  0  0  0  0
  194.5360  171.9810  145.5630 C   0  0  0  0  0  3  0  0  0  0  0  0
  192.8480  175.3420  145.5190 C   0  0  0  0  0  0  0  0  0  0  0  0
  193.5790  172.9800  145.4960 C   0  0  0  0  0  3  0  0  0  0  0  0
  195.0540  175.0470  145.7550 C   0  0  0  0  0  0  0  0  0  0  0  0
  193.5040  176.5580  145.6350 C   0  0  0  0  0  3  0  0  0  0  0  0
  196.2910  174.5260  145.8860 N   0  0  0  0  0  0  0  0  0  0  0  0
  196.6550  170.7890  145.7710 C   0  0  0  0  0  1  0  0  0  0  0  0
  195.9150  172.0760  145.7330 C   0  0  0  0  0  0  0  0  0  0  0  0
  196.6880  173.2300  145.8770 C   0  0  0  0  0  3  0  0  0  0  0  0
  189.5320  176.8490  145.9480 N   0  0  0  0  0  2  0  0  0  0  0  0
  190.4670  175.8500  146.3500 C   0  0  0  0  0  0  0  0  0  0  0  0
  190.5110  175.4730  147.5510 O   0  0  0  0  0  0  0  0  0  0  0  0
  188.6410  177.5010  146.8960 C   0  0  0  0  0  2  0  0  0  0  0  0
  186.0460  177.4400  144.5040 C   0  0  0  0  0  3  0  0  0  0  0  0
  186.7280  176.2080  147.5420 F   0  0  0  0  0  0  0  0  0  0  0  0
  186.3210  178.3310  146.5860 C   0  0  0  0  0  0  0  0  0  0  0  0
  187.1920  177.1220  146.6100 C   0  0  1  0  0  0  0  0  0  0  0  0
  185.6610  178.4130  145.3040 C   0  0  0  0  0  0  0  0  0  0  0  0
  187.0460  176.5550  145.1880 C   0  0  0  0  0  2  0  0  0  0  0  0
  184.7360  179.3860  144.9470 O   0  0  0  0  0  1  0  0  0  0  0  0
  186.0080  179.0700  147.6430 C   0  0  0  0  0  2  0  0  0  0  0  0
  190.9170  173.9080  144.8550 N   0  0  0  0  0  2  0  0  0  0  0  0
  190.3600  175.3320  142.9590 C   0  0  0  0  0  2  0  0  0  0  0  0
  189.3780  173.1150  143.1150 C   0  0  2  0  0  3  0  0  0  0  0  0
  188.4790  174.0010  142.2470 C   0  0  1  0  0  3  0  0  0  0  0  0
  190.6420  173.9160  143.4230 C   0  0  2  0  0  3  0  0  0  0  0  0
  189.3210  175.2030  141.8610 C   0  0  1  0  0  3  0  0  0  0  0  0
  188.0200  173.3500  141.1030 O   0  0  0  0  0  1  0  0  0  0  0  0
  188.4990  176.4540  141.7190 C   0  0  0  0  0  0  0  0  0  0  0  0
  188.8660  177.5240  142.2740 O   0  0  0  0  0  0  0  0  0  0  0  0
  187.2560  176.4220  141.0220 N   0  0  0  0  0  1  0  0  0  0  0  0
  189.6630  171.7950  142.5330 N   0  0  0  0  0  2  0  0  0  0  0  0
  191.1020  171.5810  142.3800 C   0  0  0  0  0  2  0  0  0  0  0  0
  191.3560  170.7000  141.2490 N   0  0  0  0  0  0  0  0  0  0  0  0
  190.5560  171.1820  140.1330 C   0  0  0  0  0  1  0  0  0  0  0  0
  190.8180  169.4020  141.6140 C   0  0  0  0  0  1  0  0  0  0  0  0
  1 25  1  1  0  0  0
  1  5  1  0  0  0  0
  1 14  1  0  0  0  0
  2  7  1  0  0  0  0
  4 11  2  0  0  0  0
  5  2  1  0  0  0  0
  5  8  2  0  0  0  0
  6  4  1  0  0  0  0
  6  2  2  0  0  0  0
  7  3  2  0  0  0  0
  7  9  1  0  0  0  0
  8  3  1  0  0  0  0
 11 10  1  0  0  0  0
 11 12  1  0  0  0  0
 12  9  2  0  0  0  0
 13 14  1  0  0  0  0
 13 16  1  0  0  0  0
 14 15  2  0  0  0  0
 17 22  1  0  0  0  0
 17 21  2  0  0  0  0
 19 20  1  0  0  0  0
 19 24  2  0  0  0  0
 20 16  1  0  0  0  0
 20 18  1  1  0  0  0
 21 19  1  0  0  0  0
 22 20  1  0  0  0  0
 23 21  1  0  0  0  0
 26 29  1  0  0  0  0
 27 35  1  6  0  0  0
 27 29  1  0  0  0  0
 28 31  1  6  0  0  0
 28 27  1  0  0  0  0
 29 25  1  1  0  0  0
 30 32  1  1  0  0  0
 30 28  1  0  0  0  0
 30 26  1  0  0  0  0
 32 33  2  0  0  0  0
 34 32  1  0  0  0  0
 36 35  1  0  0  0  0
 37 39  1  0  0  0  0
 37 36  1  0  0  0  0
 38 37  1  0  0  0  0
M  END
>  <MODEL>
8

>  <REMARK>
 VINA RESULT:      -7.1      2.065      3.155
  Name = 
  10 active torsions:
  status: ('A' for Active; 'I' for Inactive)
    1  A    between atoms: C_4  and  N_9
    2  A    between atoms: C_4  and  N_18
    3  A    between atoms: C_7  and  N_18
    4  A    between atoms: N_8  and  C_37
    5  A    between atoms: C_10  and  C_37
    6  A    between atoms: C_12  and  C_16
    7  A    between atoms: C_16  and  C_19
    8  A    between atoms: C_16  and  N_27
    9  A    between atoms: C_23  and  C_34
   10  A    between atoms: N_27  and  C_32
                            x       y       z     vdW  Elec       q    Type
                         _______ _______ _______ _____ _____    ______ ____

>  <TORSDO>
F 10

$$$$
=
 OpenBabel11042417293D

 39 42  0  0  1  0  0  0  0  0999 V2000
  190.4840  175.2220  142.7800 C   0  0  2  0  0  3  0  0  0  0  0  0
  190.7570  172.7360  142.0110 C   0  0  0  0  0  0  0  0  0  0  0  0
  189.6050  172.9120  140.0400 N   0  0  0  0  0  0  0  0  0  0  0  0
  191.9080  170.9230  143.2300 C   0  0  0  0  0  3  0  0  0  0  0  0
  190.3210  174.0430  141.8530 C   0  0  0  0  0  0  0  0  0  0  0  0
  191.4750  172.2290  143.0760 C   0  0  0  0  0  3  0  0  0  0  0  0
  190.2790  172.0540  140.8280 C   0  0  0  0  0  0  0  0  0  0  0  0
  189.6270  174.1140  140.6560 C   0  0  0  0  0  3  0  0  0  0  0  0
  190.4500  170.7590  140.4900 N   0  0  0  0  0  0  0  0  0  0  0  0
  192.3530  168.5520  142.8600 C   0  0  0  0  0  1  0  0  0  0  0  0
  191.7450  169.8230  142.3900 C   0  0  0  0  0  0  0  0  0  0  0  0
  191.0860  169.7680  141.1600 C   0  0  0  0  0  3  0  0  0  0  0  0
  188.1130  175.9320  143.2620 N   0  0  0  0  0  2  0  0  0  0  0  0
  189.4060  176.2680  142.7630 C   0  0  0  0  0  0  0  0  0  0  0  0
  189.6420  177.4360  142.3530 O   0  0  0  0  0  0  0  0  0  0  0  0
  187.0160  176.8890  143.2730 C   0  0  0  0  0  2  0  0  0  0  0  0
  185.3620  176.9670  146.3900 C   0  0  0  0  0  3  0  0  0  0  0  0
  188.0680  178.2800  144.9180 F   0  0  0  0  0  0  0  0  0  0  0  0
  185.7220  178.4560  144.7000 C   0  0  0  0  0  0  0  0  0  0  0  0
  186.9150  177.5660  144.6360 C   0  0  1  0  0  0  0  0  0  0  0  0
  184.8770  178.0370  145.7940 C   0  0  0  0  0  0  0  0  0  0  0  0
  186.6420  176.5320  145.7410 C   0  0  0  0  0  2  0  0  0  0  0  0
  183.7020  178.6700  146.1800 O   0  0  0  0  0  1  0  0  0  0  0  0
  185.5770  179.5920  144.0300 C   0  0  0  0  0  2  0  0  0  0  0  0
  191.8450  175.7630  142.8250 N   0  0  0  0  0  2  0  0  0  0  0  0
  191.4910  175.0480  145.1250 C   0  0  0  0  0  2  0  0  0  0  0  0
  193.3250  176.5570  144.6140 C   0  0  2  0  0  3  0  0  0  0  0  0
  192.9360  176.7220  146.0870 C   0  0  1  0  0  3  0  0  0  0  0  0
  192.5180  175.3830  144.0620 C   0  0  2  0  0  3  0  0  0  0  0  0
  192.0980  175.5070  146.4380 C   0  0  1  0  0  3  0  0  0  0  0  0
  194.0410  176.8020  146.9320 O   0  0  0  0  0  1  0  0  0  0  0  0
  191.0410  175.8190  147.4630 C   0  0  0  0  0  0  0  0  0  0  0  0
  191.1910  176.7840  148.2590 O   0  0  0  0  0  0  0  0  0  0  0  0
  189.9000  174.9770  147.5960 N   0  0  0  0  0  1  0  0  0  0  0  0
  194.7710  176.4170  144.3870 N   0  0  0  0  0  2  0  0  0  0  0  0
  195.0990  175.0950  143.8540 C   0  0  0  0  0  2  0  0  0  0  0  0
  196.2140  175.1970  142.9230 N   0  0  0  0  0  0  0  0  0  0  0  0
  196.7840  176.5280  143.0720 C   0  0  0  0  0  1  0  0  0  0  0  0
  195.6410  175.1380  141.5910 C   0  0  0  0  0  1  0  0  0  0  0  0
  1 14  1  6  0  0  0
  1 25  1  0  0  0  0
  2  6  2  0  0  0  0
  3  8  1  0  0  0  0
  3  7  2  0  0  0  0
  5  2  1  0  0  0  0
  5  1  1  0  0  0  0
  6  4  1  0  0  0  0
  7  2  1  0  0  0  0
  8  5  2  0  0  0  0
  9  7  1  0  0  0  0
  9 12  2  0  0  0  0
 11 10  1  0  0  0  0
 11  4  2  0  0  0  0
 12 11  1  0  0  0  0
 13 16  1  0  0  0  0
 14 13  1  0  0  0  0
 15 14  2  0  0  0  0
 16 20  1  0  0  0  0
 19 21  1  0  0  0  0
 20 19  1  0  0  0  0
 20 18  1  1  0  0  0
 20 22  1  0  0  0  0
 21 23  1  0  0  0  0
 21 17  2  0  0  0  0
 22 17  1  0  0  0  0
 24 19  2  0  0  0  0
 26 30  1  0  0  0  0
 27 35  1  1  0  0  0
 27 28  1  0  0  0  0
 28 30  1  0  0  0  0
 28 31  1  1  0  0  0
 29 25  1  6  0  0  0
 29 27  1  0  0  0  0
 29 26  1  0  0  0  0
 30 32  1  1  0  0  0
 32 34  1  0  0  0  0
 32 33  2  0  0  0  0
 36 35  1  0  0  0  0
 37 38  1  0  0  0  0
 37 36  1  0  0  0  0
 39 37  1  0  0  0  0
M  END
>  <MODEL>
9

>  <REMARK>
 VINA RESULT:      -7.0      2.387      5.512
  Name = 
  10 active torsions:
  status: ('A' for Active; 'I' for Inactive)
    1  A    between atoms: C_4  and  N_9
    2  A    between atoms: C_4  and  N_18
    3  A    between atoms: C_7  and  N_18
    4  A    between atoms: N_8  and  C_37
    5  A    between atoms: C_10  and  C_37
    6  A    between atoms: C_12  and  C_16
    7  A    between atoms: C_16  and  C_19
    8  A    between atoms: C_16  and  N_27
    9  A    between atoms: C_23  and  C_34
   10  A    between atoms: N_27  and  C_32
                            x       y       z     vdW  Elec       q    Type
                         _______ _______ _______ _____ _____    ______ ____

>  <TORSDO>
F 10

$$$$
