=
 OpenBabel11042417183D

 63 68  0  0  1  0  0  0  0  0999 V2000
  189.2210  175.6840  145.5760 N   0  0  0  0  0  0  0  0  0  0  0  0
  188.8620  175.3950  144.3400 C   0  0  0  0  0  0  0  0  0  0  0  0
  185.5020  178.1110  143.8070 C   0  0  0  0  0  0  0  0  0  0  0  0
  187.8170  176.4270  143.8450 C   0  0  0  0  0  0  0  0  0  0  0  0
  187.7370  177.6410  144.5590 C   0  0  0  0  0  3  0  0  0  0  0  0
  186.6160  178.4490  144.5640 C   0  0  0  0  0  3  0  0  0  0  0  0
  186.7090  176.1250  143.0070 C   0  0  0  0  0  3  0  0  0  0  0  0
  185.5660  176.9980  142.9750 C   0  0  0  0  0  3  0  0  0  0  0  0
  184.3450  178.9060  143.8510 O   0  0  0  0  0  1  0  0  0  0  0  0
  189.5120  174.2440  143.6160 C   0  0  0  0  0  0  0  0  0  0  0  0
  189.5670  173.0810  144.1210 O   0  0  0  0  0  0  0  0  0  0  0  0
  190.1320  174.3770  142.3070 C   0  0  0  0  0  3  0  0  0  0  0  0
  191.4220  174.7030  142.1800 C   0  0  0  0  0  0  0  0  0  0  0  0
  192.7240  175.0490  142.0080 C   0  0  0  0  0  3  0  0  0  0  0  0
  193.4550  174.5980  140.7990 C   0  0  0  0  0  0  0  0  0  0  0  0
  193.2690  173.8670  138.3870 C   0  0  0  0  0  2  0  0  0  0  0  0
  194.7230  174.0560  138.2850 N   0  0  0  0  0  0  0  0  0  0  0  0
  192.7350  174.2530  139.7540 C   0  0  0  0  0  3  0  0  0  0  0  0
  195.1710  173.8080  136.9510 C   0  0  0  0  0  0  0  0  0  0  0  0
  194.9780  174.6010  140.6970 C   0  0  0  0  0  0  0  0  0  0  0  0
  195.5490  174.4430  139.4510 C   0  0  0  0  0  0  0  0  0  0  0  0
  195.7600  174.9630  141.8740 C   0  0  0  0  0  1  0  0  0  0  0  0
  196.3940  174.0170  136.6710 O   0  0  0  0  0  0  0  0  0  0  0  0
  197.9060  175.5210  139.4490 C   0  0  0  0  0  1  0  0  0  0  0  0
  197.7080  173.1450  140.0800 C   0  0  0  0  0  1  0  0  0  0  0  0
  197.0960  174.2560  139.2890 C   0  0  0  0  0  3  0  0  0  0  0  0
  194.2910  173.3800  135.7930 C   0  0  0  0  0  0  0  0  0  0  0  0
  193.9450  174.2450  134.9540 O   0  0  0  0  0  0  0  0  0  0  0  0
  194.5490  170.8460  136.0580 C   0  0  0  0  0  3  0  0  0  0  0  0
  194.7490  168.4370  136.3850 N   0  0  0  0  0  1  0  0  0  0  0  0
  192.8980  169.3570  135.1440 C   0  0  0  0  0  3  0  0  0  0  0  0
  192.1500  170.4280  134.6710 C   0  0  0  0  0  3  0  0  0  0  0  0
  194.0790  169.5580  135.8670 C   0  0  0  0  0  0  0  0  0  0  0  0
  192.6040  171.7280  134.8810 C   0  0  0  0  0  3  0  0  0  0  0  0
  193.8160  171.9580  135.5860 C   0  0  0  0  0  0  0  0  0  0  0  0
  190.2640  175.3400  146.5880 C   0  0  0  0  0  2  0  0  0  0  0  0
  193.3570  176.9590  144.9820 C   0  0  0  0  0  3  0  0  0  0  0  0
  191.6630  175.4550  145.9220 C   0  0  0  0  0  0  0  0  0  0  0  0
  194.2820  175.9830  145.1620 C   0  0  0  0  0  3  0  0  0  0  0  0
  191.1410  177.6090  144.9320 F   0  0  0  0  0  0  0  0  0  0  0  0
  193.9480  174.7070  145.5770 C   0  0  0  0  0  0  0  0  0  0  0  0
  192.6350  174.4610  145.9960 C   0  0  0  0  0  3  0  0  0  0  0  0
  192.0140  176.6550  145.3440 C   0  0  0  0  0  0  0  0  0  0  0  0
  194.9970  172.3100  145.3940 C   0  0  2  0  0  3  0  0  0  0  0  0
  194.9680  173.7650  145.6910 N   0  0  0  0  0  0  0  0  0  0  0  0
  196.1670  172.2400  144.5950 N   0  0  1  0  0  0  0  0  0  0  0  0
  193.7920  171.6860  144.6370 C   0  0  0  0  0  1  0  0  0  0  0  0
  196.3560  174.2850  145.6820 C   0  0  0  0  0  2  0  0  0  0  0  0
  197.1470  173.1650  145.1410 C   0  0  0  0  0  2  0  0  0  0  0  0
  196.6510  170.9020  144.4460 C   0  0  1  0  0  3  0  0  0  0  0  0
  196.7350  170.7490  142.8870 C   0  0  1  0  0  3  0  0  0  0  0  0
  197.8630  170.6750  143.6890 O   0  0  0  0  0  0  0  0  0  0  0  0
  196.8940  168.3220  141.9280 O   0  0  0  0  0  1  0  0  0  0  0  0
  196.0210  169.3720  142.4630 C   0  0  2  0  0  3  0  0  0  0  0  0
  194.7000  169.4490  141.6170 C   0  0  0  0  0  2  0  0  0  0  0  0
  196.1850  169.9010  139.8640 O   0  0  0  0  0  1  0  0  0  0  0  0
  194.8410  169.5400  140.1130 C   0  0  2  0  0  3  0  0  0  0  0  0
  193.9210  170.6690  139.6800 C   0  0  0  0  0  2  0  0  0  0  0  0
  191.7720  171.2930  141.6470 O   0  0  0  0  0  0  0  0  0  0  0  0
  192.5140  170.2910  139.6560 N   0  0  0  0  0  0  0  0  0  0  0  0
  192.1960  169.0420  138.9900 C   0  0  0  0  0  1  0  0  0  0  0  0
  191.5300  170.9390  140.4740 C   0  0  0  0  0  0  0  0  0  0  0  0
  190.2450  171.3050  139.8690 C   0  0  0  0  0  1  0  0  0  0  0  0
  1 36  1  0  0  0  0
  2  1  2  0  0  0  0
  3  9  1  0  0  0  0
  3  6  1  0  0  0  0
  4  2  1  0  0  0  0
  4  5  1  0  0  0  0
  5  6  2  0  0  0  0
  7  4  2  0  0  0  0
  8  7  1  0  0  0  0
  8  3  2  0  0  0  0
 10 11  2  0  0  0  0
 10  2  1  0  0  0  0
 12 10  1  0  0  0  0
 13 12  2  0  0  0  0
 14 13  2  0  0  0  0
 15 14  1  0  0  0  0
 16 18  1  0  0  0  0
 17 16  1  0  0  0  0
 17 21  1  0  0  0  0
 18 15  2  0  0  0  0
 19 17  1  0  0  0  0
 20 15  1  0  0  0  0
 20 22  1  0  0  0  0
 21 20  2  0  0  0  0
 23 19  2  0  0  0  0
 26 24  1  0  0  0  0
 26 21  1  0  0  0  0
 26 25  1  0  0  0  0
 27 19  1  0  0  0  0
 28 27  2  0  0  0  0
 31 33  2  0  0  0  0
 32 34  2  0  0  0  0
 32 31  1  0  0  0  0
 33 29  1  0  0  0  0
 33 30  1  0  0  0  0
 34 35  1  0  0  0  0
 35 27  1  0  0  0  0
 35 29  2  0  0  0  0
 37 39  2  0  0  0  0
 37 43  1  0  0  0  0
 38 42  1  0  0  0  0
 38 36  1  0  0  0  0
 39 41  1  0  0  0  0
 40 43  1  0  0  0  0
 41 45  1  0  0  0  0
 41 42  2  0  0  0  0
 43 38  2  0  0  0  0
 44 47  1  6  0  0  0
 44 45  1  0  0  0  0
 46 49  1  1  0  0  0
 46 44  1  0  0  0  0
 48 45  1  0  0  0  0
 49 48  1  0  0  0  0
 50 52  1  1  0  0  0
 50 46  1  0  0  0  0
 51 54  1  1  0  0  0
 51 52  1  0  0  0  0
 51 50  1  0  0  0  0
 54 53  1  6  0  0  0
 55 54  1  0  0  0  0
 57 56  1  1  0  0  0
 57 55  1  0  0  0  0
 58 57  1  0  0  0  0
 60 58  1  0  0  0  0
 60 62  1  0  0  0  0
 61 60  1  0  0  0  0
 62 59  2  0  0  0  0
 63 62  1  0  0  0  0
M  END
>  <MODEL>
1

>  <REMARK>
 VINA RESULT:      -6.1      0.000      0.000
  Name = 
  16 active torsions:
  status: ('A' for Active; 'I' for Inactive)
    1  A    between atoms: C_1  and  C_47
    2  A    between atoms: C_3  and  C_39
    3  A    between atoms: C_3  and  C_54
    4  A    between atoms: C_6  and  C_16
    5  A    between atoms: N_7  and  C_59
    6  A    between atoms: C_12  and  N_24
    7  A    between atoms: C_12  and  C_46
    8  A    between atoms: N_15  and  C_25
    9  A    between atoms: C_16  and  C_42
   10  A    between atoms: C_17  and  C_42
   11  A    between atoms: C_19  and  N_26
   12  A    between atoms: C_20  and  C_31
   13  A    between atoms: C_20  and  C_46
   14  A    between atoms: C_25  and  C_32
   15  A    between atoms: C_27  and  C_31
   16  A    between atoms: C_49  and  C_60
                            x       y       z     vdW  Elec       q    Type
                         _______ _______ _______ _____ _____    ______ ____

>  <TORSDO>
F 16

$$$$
=
 OpenBabel11042417183D

 63 68  0  0  1  0  0  0  0  0999 V2000
  195.2150  175.2530  145.5280 N   0  0  0  0  0  0  0  0  0  0  0  0
  195.9120  175.0910  144.4190 C   0  0  0  0  0  0  0  0  0  0  0  0
  196.3360  170.7600  144.5290 C   0  0  0  0  0  0  0  0  0  0  0  0
  196.3630  173.6130  144.2970 C   0  0  0  0  0  0  0  0  0  0  0  0
  195.5910  172.7810  143.4600 C   0  0  0  0  0  3  0  0  0  0  0  0
  195.5560  171.4050  143.5780 C   0  0  0  0  0  3  0  0  0  0  0  0
  197.2230  172.9480  145.2130 C   0  0  0  0  0  3  0  0  0  0  0  0
  197.2200  171.5110  145.2960 C   0  0  0  0  0  3  0  0  0  0  0  0
  196.2620  169.3660  144.6820 O   0  0  0  0  0  1  0  0  0  0  0  0
  196.0960  176.2470  143.4700 C   0  0  0  0  0  0  0  0  0  0  0  0
  196.7090  177.3040  143.8140 O   0  0  0  0  0  0  0  0  0  0  0  0
  195.5820  176.2490  142.1090 C   0  0  0  0  0  3  0  0  0  0  0  0
  196.1770  175.5440  141.1420 C   0  0  0  0  0  0  0  0  0  0  0  0
  196.7620  174.8560  140.1280 C   0  0  0  0  0  3  0  0  0  0  0  0
  195.9430  174.3860  138.9850 C   0  0  0  0  0  0  0  0  0  0  0  0
  193.8290  173.2030  138.2660 C   0  0  0  0  0  2  0  0  0  0  0  0
  194.0730  173.7240  136.9140 N   0  0  0  0  0  0  0  0  0  0  0  0
  194.8640  173.6880  139.2640 C   0  0  0  0  0  3  0  0  0  0  0  0
  193.0110  173.3540  136.0320 C   0  0  0  0  0  0  0  0  0  0  0  0
  196.2520  174.7470  137.5340 C   0  0  0  0  0  0  0  0  0  0  0  0
  195.2820  174.5110  136.5810 C   0  0  0  0  0  0  0  0  0  0  0  0
  197.4660  175.5010  137.2420 C   0  0  0  0  0  1  0  0  0  0  0  0
  193.0240  173.8050  134.8430 O   0  0  0  0  0  0  0  0  0  0  0  0
  195.7240  176.1200  134.5990 C   0  0  0  0  0  1  0  0  0  0  0  0
  196.7120  173.8610  134.5140 C   0  0  0  0  0  1  0  0  0  0  0  0
  195.5880  174.6860  135.0550 C   0  0  0  0  0  3  0  0  0  0  0  0
  191.8050  172.5170  136.4100 C   0  0  0  0  0  0  0  0  0  0  0  0
  191.8710  171.2740  136.2610 O   0  0  0  0  0  0  0  0  0  0  0  0
  189.9780  172.6610  138.1980 C   0  0  0  0  0  3  0  0  0  0  0  0
  188.2840  172.8600  139.9420 N   0  0  0  0  0  1  0  0  0  0  0  0
  188.1440  174.1940  137.9380 C   0  0  0  0  0  3  0  0  0  0  0  0
  188.6590  174.6500  136.7300 C   0  0  0  0  0  3  0  0  0  0  0  0
  188.8150  173.2240  138.6920 C   0  0  0  0  0  0  0  0  0  0  0  0
  189.8420  174.1050  136.2380 C   0  0  0  0  0  3  0  0  0  0  0  0
  190.5250  173.0990  136.9710 C   0  0  0  0  0  0  0  0  0  0  0  0
  194.3110  176.2390  146.1930 C   0  0  0  0  0  2  0  0  0  0  0  0
  190.5920  175.3640  146.6020 C   0  0  0  0  0  3  0  0  0  0  0  0
  192.8430  175.9150  145.8000 C   0  0  0  0  0  0  0  0  0  0  0  0
  190.0970  175.7760  145.4080 C   0  0  0  0  0  3  0  0  0  0  0  0
  192.4090  174.7850  147.9040 F   0  0  0  0  0  0  0  0  0  0  0  0
  190.9090  176.1290  144.3460 C   0  0  0  0  0  0  0  0  0  0  0  0
  192.2880  176.2340  144.5640 C   0  0  0  0  0  3  0  0  0  0  0  0
  192.0050  175.4100  146.7700 C   0  0  0  0  0  0  0  0  0  0  0  0
  189.1850  175.8840  142.3840 C   0  0  2  0  0  3  0  0  0  0  0  0
  190.3020  176.4970  143.1470 N   0  0  0  0  0  0  0  0  0  0  0  0
  188.3700  177.0250  142.1730 N   0  0  1  0  0  0  0  0  0  0  0  0
  188.3620  174.7530  143.0600 C   0  0  0  0  0  1  0  0  0  0  0  0
  190.4380  177.9170  142.7440 C   0  0  0  0  0  2  0  0  0  0  0  0
  189.2370  178.1650  141.9260 C   0  0  0  0  0  2  0  0  0  0  0  0
  187.3840  176.8140  141.1580 C   0  0  1  0  0  3  0  0  0  0  0  0
  186.6730  178.2110  141.0880 C   0  0  1  0  0  3  0  0  0  0  0  0
  187.3650  177.6900  140.0060 O   0  0  0  0  0  0  0  0  0  0  0  0
  184.2780  178.7620  140.1940 O   0  0  0  0  0  1  0  0  0  0  0  0
  185.0820  177.9850  141.1440 C   0  0  2  0  0  3  0  0  0  0  0  0
  184.3810  177.9720  142.5490 C   0  0  0  0  0  2  0  0  0  0  0  0
  185.3600  176.3170  143.8840 O   0  0  0  0  0  1  0  0  0  0  0  0
  185.2520  177.7210  143.7610 C   0  0  2  0  0  3  0  0  0  0  0  0
  184.4830  178.2800  144.9450 C   0  0  0  0  0  2  0  0  0  0  0  0
  184.6630  176.0850  146.9520 O   0  0  0  0  0  0  0  0  0  0  0  0
  185.2330  178.2340  146.1940 N   0  0  0  0  0  0  0  0  0  0  0  0
  185.4440  179.5030  146.8630 C   0  0  0  0  0  1  0  0  0  0  0  0
  185.5050  177.0060  146.8840 C   0  0  0  0  0  0  0  0  0  0  0  0
  186.8530  176.7820  147.4150 C   0  0  0  0  0  1  0  0  0  0  0  0
  1 36  1  0  0  0  0
  2  1  2  0  0  0  0
  3  9  1  0  0  0  0
  3  8  1  0  0  0  0
  4  2  1  0  0  0  0
  4  7  1  0  0  0  0
  5  6  1  0  0  0  0
  5  4  2  0  0  0  0
  6  3  2  0  0  0  0
  7  8  2  0  0  0  0
 10 11  2  0  0  0  0
 10  2  1  0  0  0  0
 12 10  1  0  0  0  0
 13 12  2  0  0  0  0
 14 13  2  0  0  0  0
 15 18  2  0  0  0  0
 15 14  1  0  0  0  0
 16 18  1  0  0  0  0
 17 16  1  0  0  0  0
 19 27  1  0  0  0  0
 19 17  1  0  0  0  0
 20 15  1  0  0  0  0
 21 17  1  0  0  0  0
 21 20  2  0  0  0  0
 22 20  1  0  0  0  0
 23 19  2  0  0  0  0
 24 26  1  0  0  0  0
 25 26  1  0  0  0  0
 26 21  1  0  0  0  0
 27 35  1  0  0  0  0
 28 27  2  0  0  0  0
 29 33  1  0  0  0  0
 31 33  2  0  0  0  0
 32 31  1  0  0  0  0
 33 30  1  0  0  0  0
 34 32  2  0  0  0  0
 34 35  1  0  0  0  0
 35 29  2  0  0  0  0
 37 43  1  0  0  0  0
 38 36  1  0  0  0  0
 38 43  2  0  0  0  0
 39 37  2  0  0  0  0
 41 42  2  0  0  0  0
 41 39  1  0  0  0  0
 42 38  1  0  0  0  0
 43 40  1  0  0  0  0
 44 47  1  1  0  0  0
 44 45  1  0  0  0  0
 45 41  1  0  0  0  0
 46 49  1  6  0  0  0
 46 44  1  0  0  0  0
 48 45  1  0  0  0  0
 49 48  1  0  0  0  0
 50 52  1  6  0  0  0
 50 46  1  0  0  0  0
 51 54  1  6  0  0  0
 51 50  1  0  0  0  0
 52 51  1  0  0  0  0
 54 53  1  6  0  0  0
 54 55  1  0  0  0  0
 55 57  1  0  0  0  0
 57 56  1  1  0  0  0
 57 58  1  0  0  0  0
 58 60  1  0  0  0  0
 60 61  1  0  0  0  0
 60 62  1  0  0  0  0
 62 59  2  0  0  0  0
 62 63  1  0  0  0  0
M  END
>  <MODEL>
2

>  <REMARK>
 VINA RESULT:      -5.9      2.636      8.476
  Name = 
  16 active torsions:
  status: ('A' for Active; 'I' for Inactive)
    1  A    between atoms: C_1  and  C_47
    2  A    between atoms: C_3  and  C_39
    3  A    between atoms: C_3  and  C_54
    4  A    between atoms: C_6  and  C_16
    5  A    between atoms: N_7  and  C_59
    6  A    between atoms: C_12  and  N_24
    7  A    between atoms: C_12  and  C_46
    8  A    between atoms: N_15  and  C_25
    9  A    between atoms: C_16  and  C_42
   10  A    between atoms: C_17  and  C_42
   11  A    between atoms: C_19  and  N_26
   12  A    between atoms: C_20  and  C_31
   13  A    between atoms: C_20  and  C_46
   14  A    between atoms: C_25  and  C_32
   15  A    between atoms: C_27  and  C_31
   16  A    between atoms: C_49  and  C_60
                            x       y       z     vdW  Elec       q    Type
                         _______ _______ _______ _____ _____    ______ ____

>  <TORSDO>
F 16

$$$$
=
 OpenBabel11042417183D

 63 68  0  0  1  0  0  0  0  0999 V2000
  185.9970  178.0640  141.5320 N   0  0  0  0  0  0  0  0  0  0  0  0
  185.2050  178.5980  142.4430 C   0  0  0  0  0  0  0  0  0  0  0  0
  181.1430  178.4280  140.8870 C   0  0  0  0  0  0  0  0  0  0  0  0
  183.7280  178.2700  142.1070 C   0  0  0  0  0  0  0  0  0  0  0  0
  183.4630  177.8000  140.8040 C   0  0  0  0  0  3  0  0  0  0  0  0
  182.2240  177.8920  140.1990 C   0  0  0  0  0  3  0  0  0  0  0  0
  182.6030  178.7400  142.8390 C   0  0  0  0  0  3  0  0  0  0  0  0
  181.3050  178.7850  142.2210 C   0  0  0  0  0  3  0  0  0  0  0  0
  179.8960  178.5660  140.2550 O   0  0  0  0  0  1  0  0  0  0  0  0
  185.7970  179.3280  143.6210 C   0  0  0  0  0  0  0  0  0  0  0  0
  185.4820  180.5270  143.8920 O   0  0  0  0  0  0  0  0  0  0  0  0
  186.7710  178.7290  144.5190 C   0  0  0  0  0  3  0  0  0  0  0  0
  187.2450  177.4970  144.3080 C   0  0  0  0  0  0  0  0  0  0  0  0
  187.7380  176.2430  144.1380 C   0  0  0  0  0  3  0  0  0  0  0  0
  189.0890  175.9050  144.6460 C   0  0  0  0  0  0  0  0  0  0  0  0
  191.3910  175.0380  144.0680 C   0  0  0  0  0  2  0  0  0  0  0  0
  191.8380  175.5350  145.3770 N   0  0  0  0  0  0  0  0  0  0  0  0
  189.9340  175.3630  143.7960 C   0  0  0  0  0  3  0  0  0  0  0  0
  193.2420  175.3280  145.5420 C   0  0  0  0  0  0  0  0  0  0  0  0
  189.5530  176.2350  146.0630 C   0  0  0  0  0  0  0  0  0  0  0  0
  190.9000  176.1480  146.3460 C   0  0  0  0  0  0  0  0  0  0  0  0
  188.5950  176.8140  146.9980 C   0  0  0  0  0  1  0  0  0  0  0  0
  193.8040  175.7850  146.5880 O   0  0  0  0  0  0  0  0  0  0  0  0
  191.0810  177.6040  148.4810 C   0  0  0  0  0  1  0  0  0  0  0  0
  191.1410  175.1510  148.7310 C   0  0  0  0  0  1  0  0  0  0  0  0
  191.4300  176.2950  147.8120 C   0  0  0  0  0  3  0  0  0  0  0  0
  194.1580  174.6640  144.5340 C   0  0  0  0  0  0  0  0  0  0  0  0
  194.2650  175.1770  143.3950 O   0  0  0  0  0  0  0  0  0  0  0  0
  194.3510  172.1970  145.1910 C   0  0  0  0  0  3  0  0  0  0  0  0
  194.5320  169.8250  145.7330 N   0  0  0  0  0  1  0  0  0  0  0  0
  196.5110  171.1600  145.3920 C   0  0  0  0  0  3  0  0  0  0  0  0
  197.1450  172.3440  145.0350 C   0  0  0  0  0  3  0  0  0  0  0  0
  195.1150  171.0700  145.4400 C   0  0  0  0  0  0  0  0  0  0  0  0
  196.3820  173.4760  144.7600 C   0  0  0  0  0  3  0  0  0  0  0  0
  194.9640  173.4180  144.8300 C   0  0  0  0  0  0  0  0  0  0  0  0
  187.4380  177.7560  141.2890 C   0  0  0  0  0  2  0  0  0  0  0  0
  187.3370  175.5110  138.1720 C   0  0  0  0  0  3  0  0  0  0  0  0
  187.5340  176.4710  140.4200 C   0  0  0  0  0  0  0  0  0  0  0  0
  188.0870  174.4600  138.5870 C   0  0  0  0  0  3  0  0  0  0  0  0
  186.1130  177.4020  138.6850 F   0  0  0  0  0  0  0  0  0  0  0  0
  188.4660  174.2880  139.9050 C   0  0  0  0  0  0  0  0  0  0  0  0
  188.2180  175.3240  140.8130 C   0  0  0  0  0  3  0  0  0  0  0  0
  187.0340  176.5130  139.1370 C   0  0  0  0  0  0  0  0  0  0  0  0
  190.4840  172.6250  139.7110 C   0  0  2  0  0  3  0  0  0  0  0  0
  189.2000  173.1510  140.2360 N   0  0  0  0  0  0  0  0  0  0  0  0
  191.1810  172.4000  140.9250 N   0  0  1  0  0  0  0  0  0  0  0  0
  191.3240  173.5320  138.7700 C   0  0  0  0  0  1  0  0  0  0  0  0
  188.9580  172.5740  141.5800 C   0  0  0  0  0  2  0  0  0  0  0  0
  190.2310  171.9080  141.9090 C   0  0  0  0  0  2  0  0  0  0  0  0
  192.3270  171.5620  140.7540 C   0  0  1  0  0  3  0  0  0  0  0  0
  193.4310  172.3390  141.5540 C   0  0  1  0  0  3  0  0  0  0  0  0
  193.0180  171.0700  141.9270 O   0  0  0  0  0  0  0  0  0  0  0  0
  195.5220  171.2350  140.4390 O   0  0  0  0  0  1  0  0  0  0  0  0
  194.7440  172.4640  140.6350 C   0  0  2  0  0  3  0  0  0  0  0  0
  195.7140  173.6740  140.8830 C   0  0  0  0  0  2  0  0  0  0  0  0
  196.6090  175.7250  140.1970 O   0  0  0  0  0  1  0  0  0  0  0  0
  196.1090  174.5070  139.6820 C   0  0  2  0  0  3  0  0  0  0  0  0
  194.8230  174.7660  138.9180 C   0  0  0  0  0  2  0  0  0  0  0  0
  193.1030  175.8950  136.7630 O   0  0  0  0  0  0  0  0  0  0  0  0
  194.9810  174.6750  137.4720 N   0  0  0  0  0  0  0  0  0  0  0  0
  195.6430  173.4860  136.9730 C   0  0  0  0  0  1  0  0  0  0  0  0
  194.2860  175.5430  136.5660 C   0  0  0  0  0  0  0  0  0  0  0  0
  195.0280  176.1290  135.4450 C   0  0  0  0  0  1  0  0  0  0  0  0
  1  2  2  0  0  0  0
  2 10  1  0  0  0  0
  3  8  1  0  0  0  0
  4  2  1  0  0  0  0
  4  7  1  0  0  0  0
  5  4  2  0  0  0  0
  6  5  1  0  0  0  0
  6  3  2  0  0  0  0
  8  7  2  0  0  0  0
  9  3  1  0  0  0  0
 10 11  2  0  0  0  0
 10 12  1  0  0  0  0
 13 12  2  0  0  0  0
 14 13  2  0  0  0  0
 14 15  1  0  0  0  0
 15 20  1  0  0  0  0
 16 17  1  0  0  0  0
 17 19  1  0  0  0  0
 17 21  1  0  0  0  0
 18 16  1  0  0  0  0
 18 15  2  0  0  0  0
 19 23  2  0  0  0  0
 20 21  2  0  0  0  0
 20 22  1  0  0  0  0
 21 26  1  0  0  0  0
 26 24  1  0  0  0  0
 26 25  1  0  0  0  0
 27 35  1  0  0  0  0
 27 19  1  0  0  0  0
 28 27  2  0  0  0  0
 29 33  1  0  0  0  0
 31 33  2  0  0  0  0
 32 31  1  0  0  0  0
 33 30  1  0  0  0  0
 34 35  1  0  0  0  0
 34 32  2  0  0  0  0
 35 29  2  0  0  0  0
 36  1  1  0  0  0  0
 37 39  2  0  0  0  0
 37 43  1  0  0  0  0
 38 42  1  0  0  0  0
 38 36  1  0  0  0  0
 39 41  1  0  0  0  0
 40 43  1  0  0  0  0
 41 45  1  0  0  0  0
 41 42  2  0  0  0  0
 43 38  2  0  0  0  0
 44 47  1  6  0  0  0
 44 45  1  0  0  0  0
 44 46  1  0  0  0  0
 45 48  1  0  0  0  0
 46 49  1  1  0  0  0
 48 49  1  0  0  0  0
 50 46  1  0  0  0  0
 50 51  1  0  0  0  0
 50 52  1  1  0  0  0
 51 54  1  6  0  0  0
 51 52  1  0  0  0  0
 54 53  1  1  0  0  0
 54 55  1  0  0  0  0
 57 56  1  1  0  0  0
 57 55  1  0  0  0  0
 58 57  1  0  0  0  0
 60 58  1  0  0  0  0
 61 60  1  0  0  0  0
 62 59  2  0  0  0  0
 62 60  1  0  0  0  0
 63 62  1  0  0  0  0
M  END
>  <MODEL>
3

>  <REMARK>
 VINA RESULT:      -5.5      2.879      7.479
  Name = 
  16 active torsions:
  status: ('A' for Active; 'I' for Inactive)
    1  A    between atoms: C_1  and  C_47
    2  A    between atoms: C_3  and  C_39
    3  A    between atoms: C_3  and  C_54
    4  A    between atoms: C_6  and  C_16
    5  A    between atoms: N_7  and  C_59
    6  A    between atoms: C_12  and  N_24
    7  A    between atoms: C_12  and  C_46
    8  A    between atoms: N_15  and  C_25
    9  A    between atoms: C_16  and  C_42
   10  A    between atoms: C_17  and  C_42
   11  A    between atoms: C_19  and  N_26
   12  A    between atoms: C_20  and  C_31
   13  A    between atoms: C_20  and  C_46
   14  A    between atoms: C_25  and  C_32
   15  A    between atoms: C_27  and  C_31
   16  A    between atoms: C_49  and  C_60
                            x       y       z     vdW  Elec       q    Type
                         _______ _______ _______ _____ _____    ______ ____

>  <TORSDO>
F 16

$$$$
=
 OpenBabel11042417183D

 63 68  0  0  1  0  0  0  0  0999 V2000
  189.9450  176.9300  146.7310 N   0  0  0  0  0  0  0  0  0  0  0  0
  188.8460  176.2020  146.7950 C   0  0  0  0  0  0  0  0  0  0  0  0
  184.9900  178.1970  146.4810 C   0  0  0  0  0  0  0  0  0  0  0  0
  187.6210  177.0720  146.4130 C   0  0  0  0  0  0  0  0  0  0  0  0
  187.2310  178.0600  147.3410 C   0  0  0  0  0  3  0  0  0  0  0  0
  185.9580  178.5940  147.3950 C   0  0  0  0  0  3  0  0  0  0  0  0
  186.6560  176.7290  145.4280 C   0  0  0  0  0  3  0  0  0  0  0  0
  185.3470  177.3260  145.4570 C   0  0  0  0  0  3  0  0  0  0  0  0
  183.6820  178.7020  146.5670 O   0  0  0  0  0  1  0  0  0  0  0  0
  188.9330  174.7350  147.1300 C   0  0  0  0  0  0  0  0  0  0  0  0
  188.7740  174.3090  148.3160 O   0  0  0  0  0  0  0  0  0  0  0  0
  189.2140  173.7080  146.1390 C   0  0  0  0  0  3  0  0  0  0  0  0
  189.5470  174.0270  144.8850 C   0  0  0  0  0  0  0  0  0  0  0  0
  189.8720  174.3090  143.5960 C   0  0  0  0  0  3  0  0  0  0  0  0
  190.7090  173.3620  142.8220 C   0  0  0  0  0  0  0  0  0  0  0  0
  192.5340  171.6170  142.9140 C   0  0  0  0  0  2  0  0  0  0  0  0
  192.1580  171.2420  141.5440 N   0  0  0  0  0  0  0  0  0  0  0  0
  191.6400  172.7060  143.4790 C   0  0  0  0  0  3  0  0  0  0  0  0
  192.9330  170.1300  141.0950 C   0  0  0  0  0  0  0  0  0  0  0  0
  190.4790  173.0650  141.3420 C   0  0  0  0  0  0  0  0  0  0  0  0
  191.1120  171.9710  140.7900 C   0  0  0  0  0  0  0  0  0  0  0  0
  189.4580  173.8210  140.6240 C   0  0  0  0  0  1  0  0  0  0  0  0
  192.6670  169.6220  139.9590 O   0  0  0  0  0  0  0  0  0  0  0  0
  189.7620  171.1490  138.7370 C   0  0  0  0  0  1  0  0  0  0  0  0
  191.5280  172.8310  138.3760 C   0  0  0  0  0  1  0  0  0  0  0  0
  191.0700  171.7060  139.2470 C   0  0  0  0  0  3  0  0  0  0  0  0
  194.0190  169.4350  141.8920 C   0  0  0  0  0  0  0  0  0  0  0  0
  193.9480  168.1920  142.0410 O   0  0  0  0  0  0  0  0  0  0  0  0
  195.3920  170.2130  143.9080 C   0  0  0  0  0  3  0  0  0  0  0  0
  196.7480  170.8800  145.8230 N   0  0  0  0  0  1  0  0  0  0  0  0
  197.3730  171.5360  143.5890 C   0  0  0  0  0  3  0  0  0  0  0  0
  197.2120  171.4980  142.2090 C   0  0  0  0  0  3  0  0  0  0  0  0
  196.4870  170.8690  144.4420 C   0  0  0  0  0  0  0  0  0  0  0  0
  196.1260  170.8190  141.6630 C   0  0  0  0  0  3  0  0  0  0  0  0
  195.1960  170.1590  142.5100 C   0  0  0  0  0  0  0  0  0  0  0  0
  191.4310  176.7830  146.7240 C   0  0  0  0  0  2  0  0  0  0  0  0
  191.8180  177.7110  143.0150 C   0  0  0  0  0  3  0  0  0  0  0  0
  191.9190  176.7070  145.2510 C   0  0  0  0  0  0  0  0  0  0  0  0
  192.9800  177.0800  142.7120 C   0  0  0  0  0  3  0  0  0  0  0  0
  190.0160  177.9760  144.4360 F   0  0  0  0  0  0  0  0  0  0  0  0
  193.5750  176.1650  143.5600 C   0  0  0  0  0  0  0  0  0  0  0  0
  193.0570  176.0130  144.8510 C   0  0  0  0  0  3  0  0  0  0  0  0
  191.2720  177.4770  144.3100 C   0  0  0  0  0  0  0  0  0  0  0  0
  195.0090  174.6080  142.0100 C   0  0  2  0  0  3  0  0  0  0  0  0
  194.7460  175.5400  143.1360 N   0  0  0  0  0  0  0  0  0  0  0  0
  196.1300  175.2410  141.4150 N   0  0  1  0  0  0  0  0  0  0  0  0
  193.8910  174.3920  140.9540 C   0  0  0  0  0  1  0  0  0  0  0  0
  196.0220  176.1780  143.5390 C   0  0  0  0  0  2  0  0  0  0  0  0
  196.9630  175.7810  142.4770 C   0  0  0  0  0  2  0  0  0  0  0  0
  196.8270  174.3830  140.5080 C   0  0  1  0  0  3  0  0  0  0  0  0
  196.6980  175.1590  139.1500 C   0  0  1  0  0  3  0  0  0  0  0  0
  197.9290  174.9230  139.7400 O   0  0  0  0  0  0  0  0  0  0  0  0
  194.7480  174.0440  137.8100 O   0  0  0  0  0  1  0  0  0  0  0  0
  196.1980  174.1350  138.0150 C   0  0  2  0  0  3  0  0  0  0  0  0
  196.8320  172.6990  137.9770 C   0  0  0  0  0  2  0  0  0  0  0  0
  196.6390  172.9280  135.6550 O   0  0  0  0  0  1  0  0  0  0  0  0
  197.3380  172.1960  136.6420 C   0  0  2  0  0  3  0  0  0  0  0  0
  196.9360  170.7330  136.5730 C   0  0  0  0  0  2  0  0  0  0  0  0
  194.0050  170.6330  137.0990 O   0  0  0  0  0  0  0  0  0  0  0  0
  195.8440  170.4770  135.6440 N   0  0  0  0  0  0  0  0  0  0  0  0
  196.1490  169.6230  134.5130 C   0  0  0  0  0  1  0  0  0  0  0  0
  194.4800  170.7960  135.9540 C   0  0  0  0  0  0  0  0  0  0  0  0
  193.6590  171.4470  134.9280 C   0  0  0  0  0  1  0  0  0  0  0  0
  1  2  2  0  0  0  0
  2 10  1  0  0  0  0
  3  9  1  0  0  0  0
  3  6  1  0  0  0  0
  4  2  1  0  0  0  0
  4  5  1  0  0  0  0
  5  6  2  0  0  0  0
  7  8  1  0  0  0  0
  7  4  2  0  0  0  0
  8  3  2  0  0  0  0
 10 11  2  0  0  0  0
 12 10  1  0  0  0  0
 13 12  2  0  0  0  0
 14 13  2  0  0  0  0
 15 18  2  0  0  0  0
 15 14  1  0  0  0  0
 16 18  1  0  0  0  0
 17 16  1  0  0  0  0
 19 17  1  0  0  0  0
 19 27  1  0  0  0  0
 20 15  1  0  0  0  0
 21 20  2  0  0  0  0
 21 17  1  0  0  0  0
 22 20  1  0  0  0  0
 23 19  2  0  0  0  0
 24 26  1  0  0  0  0
 25 26  1  0  0  0  0
 26 21  1  0  0  0  0
 27 28  2  0  0  0  0
 27 35  1  0  0  0  0
 29 33  1  0  0  0  0
 31 33  2  0  0  0  0
 32 31  1  0  0  0  0
 33 30  1  0  0  0  0
 34 32  2  0  0  0  0
 34 35  1  0  0  0  0
 35 29  2  0  0  0  0
 36  1  1  0  0  0  0
 37 43  1  0  0  0  0
 38 36  1  0  0  0  0
 39 37  2  0  0  0  0
 39 41  1  0  0  0  0
 41 42  2  0  0  0  0
 42 38  1  0  0  0  0
 43 40  1  0  0  0  0
 43 38  2  0  0  0  0
 44 47  1  6  0  0  0
 44 45  1  0  0  0  0
 45 48  1  0  0  0  0
 45 41  1  0  0  0  0
 46 44  1  0  0  0  0
 46 49  1  1  0  0  0
 49 48  1  0  0  0  0
 50 52  1  1  0  0  0
 50 46  1  0  0  0  0
 51 54  1  6  0  0  0
 51 52  1  0  0  0  0
 51 50  1  0  0  0  0
 54 53  1  1  0  0  0
 55 54  1  0  0  0  0
 57 56  1  6  0  0  0
 57 55  1  0  0  0  0
 58 57  1  0  0  0  0
 60 62  1  0  0  0  0
 60 58  1  0  0  0  0
 61 60  1  0  0  0  0
 62 59  2  0  0  0  0
 63 62  1  0  0  0  0
M  END
>  <MODEL>
4

>  <REMARK>
 VINA RESULT:      -5.4      2.034      5.348
  Name = 
  16 active torsions:
  status: ('A' for Active; 'I' for Inactive)
    1  A    between atoms: C_1  and  C_47
    2  A    between atoms: C_3  and  C_39
    3  A    between atoms: C_3  and  C_54
    4  A    between atoms: C_6  and  C_16
    5  A    between atoms: N_7  and  C_59
    6  A    between atoms: C_12  and  N_24
    7  A    between atoms: C_12  and  C_46
    8  A    between atoms: N_15  and  C_25
    9  A    between atoms: C_16  and  C_42
   10  A    between atoms: C_17  and  C_42
   11  A    between atoms: C_19  and  N_26
   12  A    between atoms: C_20  and  C_31
   13  A    between atoms: C_20  and  C_46
   14  A    between atoms: C_25  and  C_32
   15  A    between atoms: C_27  and  C_31
   16  A    between atoms: C_49  and  C_60
                            x       y       z     vdW  Elec       q    Type
                         _______ _______ _______ _____ _____    ______ ____

>  <TORSDO>
F 16

$$$$
=
 OpenBabel11042417183D

 63 68  0  0  1  0  0  0  0  0999 V2000
  191.1440  171.8380  137.6260 N   0  0  0  0  0  0  0  0  0  0  0  0
  190.8610  173.0690  137.2450 C   0  0  0  0  0  0  0  0  0  0  0  0
  194.7460  174.8330  136.3780 C   0  0  0  0  0  0  0  0  0  0  0  0
  192.1180  173.7220  136.6140 C   0  0  0  0  0  0  0  0  0  0  0  0
  193.2850  172.9320  136.5640 C   0  0  0  0  0  3  0  0  0  0  0  0
  194.5580  173.4590  136.4710 C   0  0  0  0  0  3  0  0  0  0  0  0
  192.3060  175.1190  136.4350 C   0  0  0  0  0  3  0  0  0  0  0  0
  193.6310  175.6590  136.2870 C   0  0  0  0  0  3  0  0  0  0  0  0
  196.0420  175.3710  136.3340 O   0  0  0  0  0  1  0  0  0  0  0  0
  189.4590  173.6010  137.3950 C   0  0  0  0  0  0  0  0  0  0  0  0
  188.6560  173.6580  136.4130 O   0  0  0  0  0  0  0  0  0  0  0  0
  188.9270  174.0970  138.6540 C   0  0  0  0  0  3  0  0  0  0  0  0
  189.4850  173.7640  139.8220 C   0  0  0  0  0  0  0  0  0  0  0  0
  190.0130  173.4350  141.0300 C   0  0  0  0  0  3  0  0  0  0  0  0
  189.8770  174.3690  142.1740 C   0  0  0  0  0  0  0  0  0  0  0  0
  188.4360  175.1220  144.1080 C   0  0  0  0  0  2  0  0  0  0  0  0
  189.6080  175.8480  144.6160 N   0  0  0  0  0  0  0  0  0  0  0  0
  188.7480  174.3380  142.8470 C   0  0  0  0  0  3  0  0  0  0  0  0
  189.3130  176.4670  145.8700 C   0  0  0  0  0  0  0  0  0  0  0  0
  191.0070  175.2850  142.6400 C   0  0  0  0  0  0  0  0  0  0  0  0
  190.8870  175.8950  143.8720 C   0  0  0  0  0  0  0  0  0  0  0  0
  192.2430  175.3240  141.8670 C   0  0  0  0  0  1  0  0  0  0  0  0
  190.2510  177.0600  146.4910 O   0  0  0  0  0  0  0  0  0  0  0  0
  191.3880  178.3980  144.3140 C   0  0  0  0  0  1  0  0  0  0  0  0
  192.6120  176.7110  145.6320 C   0  0  0  0  0  1  0  0  0  0  0  0
  191.9130  176.9820  144.3390 C   0  0  0  0  0  3  0  0  0  0  0  0
  187.9750  176.4200  146.5810 C   0  0  0  0  0  0  0  0  0  0  0  0
  187.8220  175.5940  147.5120 O   0  0  0  0  0  0  0  0  0  0  0  0
  186.8300  178.1690  145.1030 C   0  0  0  0  0  3  0  0  0  0  0  0
  185.7030  179.7710  143.6490 N   0  0  0  0  0  1  0  0  0  0  0  0
  184.6460  178.9960  145.6720 C   0  0  0  0  0  3  0  0  0  0  0  0
  184.5940  178.1750  146.7920 C   0  0  0  0  0  3  0  0  0  0  0  0
  185.7440  178.9740  144.8050 C   0  0  0  0  0  0  0  0  0  0  0  0
  185.6730  177.3440  147.0840 C   0  0  0  0  0  3  0  0  0  0  0  0
  186.8130  177.3260  146.2370 C   0  0  0  0  0  0  0  0  0  0  0  0
  190.4700  170.5810  138.0690 C   0  0  0  0  0  2  0  0  0  0  0  0
  193.5310  168.2620  137.9260 C   0  0  0  0  0  3  0  0  0  0  0  0
  191.5540  169.5750  138.5450 C   0  0  0  0  0  0  0  0  0  0  0  0
  193.8460  168.1690  139.2420 C   0  0  0  0  0  3  0  0  0  0  0  0
  192.0010  168.8100  136.2850 F   0  0  0  0  0  0  0  0  0  0  0  0
  193.0080  168.6250  140.2430 C   0  0  0  0  0  0  0  0  0  0  0  0
  191.8760  169.3660  139.8830 C   0  0  0  0  0  3  0  0  0  0  0  0
  192.3330  168.9550  137.5920 C   0  0  0  0  0  0  0  0  0  0  0  0
  194.6550  168.8140  142.2760 C   0  0  2  0  0  3  0  0  0  0  0  0
  193.4050  168.4440  141.5670 N   0  0  0  0  0  0  0  0  0  0  0  0
  194.1160  169.4710  143.4110 N   0  0  1  0  0  0  0  0  0  0  0  0
  195.6690  169.7410  141.5500 C   0  0  0  0  0  1  0  0  0  0  0  0
  192.3230  168.2600  142.5630 C   0  0  0  0  0  2  0  0  0  0  0  0
  192.9130  168.7640  143.8170 C   0  0  0  0  0  2  0  0  0  0  0  0
  195.0760  169.6340  144.4580 C   0  0  1  0  0  3  0  0  0  0  0  0
  194.9470  171.1620  144.7940 C   0  0  1  0  0  3  0  0  0  0  0  0
  194.6440  170.1820  145.7260 O   0  0  0  0  0  0  0  0  0  0  0  0
  196.8890  172.2830  146.1400 O   0  0  0  0  0  1  0  0  0  0  0  0
  196.4190  171.8080  144.8330 C   0  0  2  0  0  3  0  0  0  0  0  0
  196.8060  172.8460  143.7200 C   0  0  0  0  0  2  0  0  0  0  0  0
  195.0990  174.4480  143.6730 O   0  0  0  0  0  1  0  0  0  0  0  0
  196.4720  174.3000  143.9760 C   0  0  2  0  0  3  0  0  0  0  0  0
  197.3030  175.0950  142.9830 C   0  0  0  0  0  2  0  0  0  0  0  0
  197.5740  173.8180  140.3050 O   0  0  0  0  0  0  0  0  0  0  0  0
  196.5940  175.3940  141.7460 N   0  0  0  0  0  0  0  0  0  0  0  0
  196.1560  176.7650  141.5720 C   0  0  0  0  0  1  0  0  0  0  0  0
  196.5710  174.4870  140.6340 C   0  0  0  0  0  0  0  0  0  0  0  0
  195.2980  174.2520  139.9450 C   0  0  0  0  0  1  0  0  0  0  0  0
  1 36  1  0  0  0  0
  2 10  1  0  0  0  0
  2  1  2  0  0  0  0
  3  6  1  0  0  0  0
  4  2  1  0  0  0  0
  5  4  1  0  0  0  0
  6  5  2  0  0  0  0
  7  4  2  0  0  0  0
  8  3  2  0  0  0  0
  8  7  1  0  0  0  0
  9  3  1  0  0  0  0
 10 12  1  0  0  0  0
 11 10  2  0  0  0  0
 12 13  2  0  0  0  0
 13 14  2  0  0  0  0
 14 15  1  0  0  0  0
 15 20  1  0  0  0  0
 15 18  2  0  0  0  0
 16 17  1  0  0  0  0
 17 19  1  0  0  0  0
 18 16  1  0  0  0  0
 19 23  2  0  0  0  0
 19 27  1  0  0  0  0
 20 21  2  0  0  0  0
 21 26  1  0  0  0  0
 21 17  1  0  0  0  0
 22 20  1  0  0  0  0
 24 26  1  0  0  0  0
 26 25  1  0  0  0  0
 27 28  2  0  0  0  0
 29 35  1  0  0  0  0
 30 33  1  0  0  0  0
 31 32  2  0  0  0  0
 32 34  1  0  0  0  0
 33 29  2  0  0  0  0
 33 31  1  0  0  0  0
 35 27  1  0  0  0  0
 35 34  2  0  0  0  0
 36 38  1  0  0  0  0
 37 39  1  0  0  0  0
 38 42  2  0  0  0  0
 39 41  2  0  0  0  0
 40 43  1  0  0  0  0
 41 45  1  0  0  0  0
 42 41  1  0  0  0  0
 43 37  2  0  0  0  0
 43 38  1  0  0  0  0
 44 47  1  6  0  0  0
 44 46  1  0  0  0  0
 45 44  1  0  0  0  0
 45 48  1  0  0  0  0
 46 49  1  1  0  0  0
 46 50  1  0  0  0  0
 48 49  1  0  0  0  0
 50 51  1  0  0  0  0
 50 52  1  1  0  0  0
 51 54  1  1  0  0  0
 51 52  1  0  0  0  0
 54 53  1  1  0  0  0
 55 57  1  0  0  0  0
 55 54  1  0  0  0  0
 57 56  1  6  0  0  0
 58 57  1  0  0  0  0
 59 62  2  0  0  0  0
 60 58  1  0  0  0  0
 61 60  1  0  0  0  0
 62 60  1  0  0  0  0
 63 62  1  0  0  0  0
M  END
>  <MODEL>
5

>  <REMARK>
 VINA RESULT:      -5.1      2.917      9.223
  Name = 
  16 active torsions:
  status: ('A' for Active; 'I' for Inactive)
    1  A    between atoms: C_1  and  C_47
    2  A    between atoms: C_3  and  C_39
    3  A    between atoms: C_3  and  C_54
    4  A    between atoms: C_6  and  C_16
    5  A    between atoms: N_7  and  C_59
    6  A    between atoms: C_12  and  N_24
    7  A    between atoms: C_12  and  C_46
    8  A    between atoms: N_15  and  C_25
    9  A    between atoms: C_16  and  C_42
   10  A    between atoms: C_17  and  C_42
   11  A    between atoms: C_19  and  N_26
   12  A    between atoms: C_20  and  C_31
   13  A    between atoms: C_20  and  C_46
   14  A    between atoms: C_25  and  C_32
   15  A    between atoms: C_27  and  C_31
   16  A    between atoms: C_49  and  C_60
                            x       y       z     vdW  Elec       q    Type
                         _______ _______ _______ _____ _____    ______ ____

>  <TORSDO>
F 16

$$$$
=
 OpenBabel11042417183D

 63 68  0  0  1  0  0  0  0  0999 V2000
  189.5710  177.0720  143.9250 N   0  0  0  0  0  0  0  0  0  0  0  0
  188.6450  176.4880  144.6620 C   0  0  0  0  0  0  0  0  0  0  0  0
  185.0750  177.7000  142.4850 C   0  0  0  0  0  0  0  0  0  0  0  0
  187.2700  176.5950  143.9540 C   0  0  0  0  0  0  0  0  0  0  0  0
  187.2890  176.7620  142.5540 C   0  0  0  0  0  3  0  0  0  0  0  0
  186.2430  177.3130  141.8390 C   0  0  0  0  0  3  0  0  0  0  0  0
  186.0450  176.9130  144.6020 C   0  0  0  0  0  3  0  0  0  0  0  0
  184.9410  177.4380  143.8440 C   0  0  0  0  0  3  0  0  0  0  0  0
  184.0330  178.3060  141.7650 O   0  0  0  0  0  1  0  0  0  0  0  0
  189.0290  175.7930  145.9430 C   0  0  0  0  0  0  0  0  0  0  0  0
  188.2300  175.7120  146.9260 O   0  0  0  0  0  0  0  0  0  0  0  0
  190.3310  175.1800  146.1550 C   0  0  0  0  0  3  0  0  0  0  0  0
  190.6630  174.0310  145.5600 C   0  0  0  0  0  0  0  0  0  0  0  0
  191.0310  172.8550  144.9870 C   0  0  0  0  0  3  0  0  0  0  0  0
  192.4640  172.5820  144.7200 C   0  0  0  0  0  0  0  0  0  0  0  0
  194.1330  171.0470  143.6050 C   0  0  0  0  0  2  0  0  0  0  0  0
  195.1410  172.0960  143.8130 N   0  0  0  0  0  0  0  0  0  0  0  0
  192.7550  171.4720  144.0770 C   0  0  0  0  0  3  0  0  0  0  0  0
  196.3930  171.7130  143.2410 C   0  0  0  0  0  0  0  0  0  0  0  0
  193.5800  173.5600  145.0780 C   0  0  0  0  0  0  0  0  0  0  0  0
  194.8310  173.3510  144.5350 C   0  0  0  0  0  0  0  0  0  0  0  0
  193.2400  174.7740  145.8120 C   0  0  0  0  0  1  0  0  0  0  0  0
  197.3490  172.5520  143.2550 O   0  0  0  0  0  0  0  0  0  0  0  0
  195.9880  175.6670  144.6380 C   0  0  0  0  0  1  0  0  0  0  0  0
  196.4790  174.0350  146.4210 C   0  0  0  0  0  1  0  0  0  0  0  0
  196.0640  174.2010  144.9940 C   0  0  0  0  0  3  0  0  0  0  0  0
  196.6740  170.4000  142.5390 C   0  0  0  0  0  0  0  0  0  0  0  0
  197.0840  169.4320  143.2230 O   0  0  0  0  0  0  0  0  0  0  0  0
  195.4010  169.4210  140.5440 C   0  0  0  0  0  3  0  0  0  0  0  0
  194.1420  168.5630  138.6400 N   0  0  0  0  0  1  0  0  0  0  0  0
  196.1800  169.8060  138.3020 C   0  0  0  0  0  3  0  0  0  0  0  0
  197.2430  170.5680  138.7710 C   0  0  0  0  0  3  0  0  0  0  0  0
  195.2370  169.2580  139.1800 C   0  0  0  0  0  0  0  0  0  0  0  0
  197.4020  170.7570  140.1410 C   0  0  0  0  0  3  0  0  0  0  0  0
  196.4750  170.1860  141.0540 C   0  0  0  0  0  0  0  0  0  0  0  0
  191.0550  177.1840  143.8070 C   0  0  0  0  0  2  0  0  0  0  0  0
  193.4780  175.0300  141.7440 C   0  0  0  0  0  3  0  0  0  0  0  0
  191.5480  176.1780  142.7310 C   0  0  0  0  0  0  0  0  0  0  0  0
  192.6290  174.1010  141.2370 C   0  0  0  0  0  3  0  0  0  0  0  0
  193.8010  177.0810  142.7540 F   0  0  0  0  0  0  0  0  0  0  0  0
  191.2540  174.2230  141.3200 C   0  0  0  0  0  0  0  0  0  0  0  0
  190.7200  175.2500  142.1070 C   0  0  0  0  0  3  0  0  0  0  0  0
  192.9000  176.1060  142.4760 C   0  0  0  0  0  0  0  0  0  0  0  0
  190.1330  172.9690  139.3080 C   0  0  2  0  0  3  0  0  0  0  0  0
  190.4690  173.2350  140.7290 N   0  0  0  0  0  0  0  0  0  0  0  0
  190.4410  171.5870  139.2310 N   0  0  1  0  0  0  0  0  0  0  0  0
  190.9000  173.7530  138.2070 C   0  0  0  0  0  1  0  0  0  0  0  0
  190.2660  171.9930  141.5120 C   0  0  0  0  0  2  0  0  0  0  0  0
  190.0450  170.9620  140.4820 C   0  0  0  0  0  2  0  0  0  0  0  0
  189.8860  170.9640  138.0690 C   0  0  1  0  0  3  0  0  0  0  0  0
  191.1390  170.2690  137.4310 C   0  0  1  0  0  3  0  0  0  0  0  0
  190.0540  169.5380  137.8890 O   0  0  0  0  0  0  0  0  0  0  0  0
  191.2480  169.5050  134.9330 O   0  0  0  0  0  1  0  0  0  0  0  0
  191.1940  170.6350  135.8670 C   0  0  2  0  0  3  0  0  0  0  0  0
  192.1870  171.7590  135.4000 C   0  0  0  0  0  2  0  0  0  0  0  0
  194.1360  170.4930  135.6790 O   0  0  0  0  0  1  0  0  0  0  0  0
  193.4770  171.3200  134.7410 C   0  0  2  0  0  3  0  0  0  0  0  0
  194.2820  172.5890  134.5240 C   0  0  0  0  0  2  0  0  0  0  0  0
  193.8180  174.9310  136.3060 O   0  0  0  0  0  0  0  0  0  0  0  0
  195.0280  173.0090  135.7030 N   0  0  0  0  0  0  0  0  0  0  0  0
  196.4380  172.6710  135.7260 C   0  0  0  0  0  1  0  0  0  0  0  0
  194.4980  173.9420  136.6550 C   0  0  0  0  0  0  0  0  0  0  0  0
  194.6580  173.6550  138.0850 C   0  0  0  0  0  1  0  0  0  0  0  0
  1  2  2  0  0  0  0
  2 10  1  0  0  0  0
  3  8  1  0  0  0  0
  4  7  1  0  0  0  0
  4  2  1  0  0  0  0
  5  4  2  0  0  0  0
  6  3  2  0  0  0  0
  6  5  1  0  0  0  0
  8  7  2  0  0  0  0
  9  3  1  0  0  0  0
 10 12  1  0  0  0  0
 10 11  2  0  0  0  0
 13 12  2  0  0  0  0
 14 13  2  0  0  0  0
 15 14  1  0  0  0  0
 15 20  1  0  0  0  0
 16 17  1  0  0  0  0
 16 18  1  0  0  0  0
 17 21  1  0  0  0  0
 18 15  2  0  0  0  0
 19 23  2  0  0  0  0
 19 17  1  0  0  0  0
 20 22  1  0  0  0  0
 21 26  1  0  0  0  0
 21 20  2  0  0  0  0
 24 26  1  0  0  0  0
 26 25  1  0  0  0  0
 27 28  2  0  0  0  0
 27 19  1  0  0  0  0
 29 35  1  0  0  0  0
 30 33  1  0  0  0  0
 31 32  2  0  0  0  0
 31 33  1  0  0  0  0
 32 34  1  0  0  0  0
 33 29  2  0  0  0  0
 34 35  2  0  0  0  0
 35 27  1  0  0  0  0
 36  1  1  0  0  0  0
 37 43  1  0  0  0  0
 38 36  1  0  0  0  0
 39 41  1  0  0  0  0
 39 37  2  0  0  0  0
 41 42  2  0  0  0  0
 42 38  1  0  0  0  0
 43 38  2  0  0  0  0
 43 40  1  0  0  0  0
 44 47  1  6  0  0  0
 44 45  1  0  0  0  0
 45 41  1  0  0  0  0
 45 48  1  0  0  0  0
 46 44  1  0  0  0  0
 46 49  1  1  0  0  0
 49 48  1  0  0  0  0
 50 52  1  1  0  0  0
 50 46  1  0  0  0  0
 51 54  1  6  0  0  0
 51 52  1  0  0  0  0
 51 50  1  0  0  0  0
 54 53  1  6  0  0  0
 55 54  1  0  0  0  0
 57 55  1  0  0  0  0
 57 56  1  1  0  0  0
 58 57  1  0  0  0  0
 58 60  1  0  0  0  0
 59 62  2  0  0  0  0
 60 61  1  0  0  0  0
 60 62  1  0  0  0  0
 62 63  1  0  0  0  0
M  END
>  <MODEL>
6

>  <REMARK>
 VINA RESULT:      -5.0      1.992      5.689
  Name = 
  16 active torsions:
  status: ('A' for Active; 'I' for Inactive)
    1  A    between atoms: C_1  and  C_47
    2  A    between atoms: C_3  and  C_39
    3  A    between atoms: C_3  and  C_54
    4  A    between atoms: C_6  and  C_16
    5  A    between atoms: N_7  and  C_59
    6  A    between atoms: C_12  and  N_24
    7  A    between atoms: C_12  and  C_46
    8  A    between atoms: N_15  and  C_25
    9  A    between atoms: C_16  and  C_42
   10  A    between atoms: C_17  and  C_42
   11  A    between atoms: C_19  and  N_26
   12  A    between atoms: C_20  and  C_31
   13  A    between atoms: C_20  and  C_46
   14  A    between atoms: C_25  and  C_32
   15  A    between atoms: C_27  and  C_31
   16  A    between atoms: C_49  and  C_60
                            x       y       z     vdW  Elec       q    Type
                         _______ _______ _______ _____ _____    ______ ____

>  <TORSDO>
F 16

$$$$
=
 OpenBabel11042417183D

 63 68  0  0  1  0  0  0  0  0999 V2000
  191.1060  176.5460  146.4880 N   0  0  0  0  0  0  0  0  0  0  0  0
  190.4730  176.1030  145.4180 C   0  0  0  0  0  0  0  0  0  0  0  0
  186.7140  177.8900  144.1430 C   0  0  0  0  0  0  0  0  0  0  0  0
  189.2670  177.0260  145.1070 C   0  0  0  0  0  0  0  0  0  0  0  0
  188.0570  176.7340  145.7680 C   0  0  0  0  0  3  0  0  0  0  0  0
  186.8180  177.1280  145.2990 C   0  0  0  0  0  3  0  0  0  0  0  0
  189.1660  177.8750  143.9710 C   0  0  0  0  0  3  0  0  0  0  0  0
  187.8770  178.3260  143.5170 C   0  0  0  0  0  3  0  0  0  0  0  0
  185.4530  178.2490  143.6400 O   0  0  0  0  0  1  0  0  0  0  0  0
  191.0040  174.9080  144.6690 C   0  0  0  0  0  0  0  0  0  0  0  0
  191.3000  173.8240  145.2610 O   0  0  0  0  0  0  0  0  0  0  0  0
  191.2290  174.9050  143.2330 C   0  0  0  0  0  3  0  0  0  0  0  0
  192.4530  175.0620  142.7210 C   0  0  0  0  0  0  0  0  0  0  0  0
  193.6790  175.2360  142.1630 C   0  0  0  0  0  3  0  0  0  0  0  0
  193.9760  174.6450  140.8350 C   0  0  0  0  0  0  0  0  0  0  0  0
  193.0180  173.6100  138.7390 C   0  0  0  0  0  2  0  0  0  0  0  0
  194.3350  173.8060  138.1170 N   0  0  0  0  0  0  0  0  0  0  0  0
  192.9630  174.1590  140.1530 C   0  0  0  0  0  3  0  0  0  0  0  0
  194.3110  173.3970  136.7480 C   0  0  0  0  0  0  0  0  0  0  0  0
  195.3690  174.6570  140.2100 C   0  0  0  0  0  0  0  0  0  0  0  0
  195.4860  174.3510  138.8710 C   0  0  0  0  0  0  0  0  0  0  0  0
  196.4850  175.1780  140.9930 C   0  0  0  0  0  1  0  0  0  0  0  0
  195.3500  173.5870  136.0390 O   0  0  0  0  0  0  0  0  0  0  0  0
  197.5600  175.4520  137.7740 C   0  0  0  0  0  1  0  0  0  0  0  0
  197.8600  173.3020  138.9430 C   0  0  0  0  0  1  0  0  0  0  0  0
  196.8910  174.1670  138.2030 C   0  0  0  0  0  3  0  0  0  0  0  0
  193.1140  172.8120  136.0250 C   0  0  0  0  0  0  0  0  0  0  0  0
  193.1840  171.6300  135.6120 O   0  0  0  0  0  0  0  0  0  0  0  0
  191.8240  174.9100  135.3240 C   0  0  0  0  0  3  0  0  0  0  0  0
  190.5930  176.8780  134.5740 N   0  0  0  0  0  1  0  0  0  0  0  0
  189.4210  174.9330  135.3860 C   0  0  0  0  0  3  0  0  0  0  0  0
  189.3900  173.6180  135.8340 C   0  0  0  0  0  3  0  0  0  0  0  0
  190.6310  175.5740  135.0970 C   0  0  0  0  0  0  0  0  0  0  0  0
  190.5860  172.9350  136.0410 C   0  0  0  0  0  3  0  0  0  0  0  0
  191.8290  173.5740  135.7840 C   0  0  0  0  0  0  0  0  0  0  0  0
  192.3900  176.3640  147.2300 C   0  0  0  0  0  2  0  0  0  0  0  0
  195.1970  177.0270  144.6900 C   0  0  0  0  0  3  0  0  0  0  0  0
  193.5210  176.0720  146.2070 C   0  0  0  0  0  0  0  0  0  0  0  0
  195.8580  175.8420  144.7230 C   0  0  0  0  0  3  0  0  0  0  0  0
  193.2970  178.2520  145.1620 F   0  0  0  0  0  0  0  0  0  0  0  0
  195.3480  174.7200  145.3490 C   0  0  0  0  0  0  0  0  0  0  0  0
  194.1920  174.8550  146.1260 C   0  0  0  0  0  3  0  0  0  0  0  0
  193.9820  177.1120  145.4290 C   0  0  0  0  0  0  0  0  0  0  0  0
  195.6900  172.1510  144.9430 C   0  0  2  0  0  3  0  0  0  0  0  0
  196.0860  173.5400  145.2880 N   0  0  0  0  0  0  0  0  0  0  0  0
  196.6890  171.8350  143.9870 N   0  0  1  0  0  0  0  0  0  0  0  0
  194.2770  171.9130  144.3430 C   0  0  0  0  0  1  0  0  0  0  0  0
  197.5500  173.6830  145.1020 C   0  0  0  0  0  2  0  0  0  0  0  0
  197.9390  172.4350  144.4200 C   0  0  0  0  0  2  0  0  0  0  0  0
  196.7770  170.4310  143.7300 C   0  0  1  0  0  3  0  0  0  0  0  0
  196.8690  170.3840  142.1640 C   0  0  1  0  0  3  0  0  0  0  0  0
  197.9000  169.9260  142.9690 O   0  0  0  0  0  0  0  0  0  0  0  0
  196.2020  168.5530  140.4210 O   0  0  0  0  0  1  0  0  0  0  0  0
  195.8080  169.3070  141.6150 C   0  0  2  0  0  3  0  0  0  0  0  0
  194.3020  169.7380  141.5000 C   0  0  0  0  0  2  0  0  0  0  0  0
  194.5860  170.6660  139.3700 O   0  0  0  0  0  1  0  0  0  0  0  0
  193.7110  169.8400  140.1110 C   0  0  2  0  0  3  0  0  0  0  0  0
  192.3730  170.5380  140.2810 C   0  0  0  0  0  2  0  0  0  0  0  0
  189.6580  171.4910  139.5060 O   0  0  0  0  0  0  0  0  0  0  0  0
  191.2530  169.7810  139.7370 N   0  0  0  0  0  0  0  0  0  0  0  0
  191.1690  168.3870  140.1290 C   0  0  0  0  0  1  0  0  0  0  0  0
  190.1380  170.4140  139.0930 C   0  0  0  0  0  0  0  0  0  0  0  0
  189.6300  169.8380  137.8430 C   0  0  0  0  0  1  0  0  0  0  0  0
  1 36  1  0  0  0  0
  2  1  2  0  0  0  0
  3  6  1  0  0  0  0
  4  2  1  0  0  0  0
  4  5  1  0  0  0  0
  6  5  2  0  0  0  0
  7  4  2  0  0  0  0
  8  7  1  0  0  0  0
  8  3  2  0  0  0  0
  9  3  1  0  0  0  0
 10 11  2  0  0  0  0
 10  2  1  0  0  0  0
 12 10  1  0  0  0  0
 13 12  2  0  0  0  0
 14 13  2  0  0  0  0
 15 14  1  0  0  0  0
 16 18  1  0  0  0  0
 17 16  1  0  0  0  0
 17 21  1  0  0  0  0
 18 15  2  0  0  0  0
 19 17  1  0  0  0  0
 20 15  1  0  0  0  0
 20 22  1  0  0  0  0
 21 20  2  0  0  0  0
 23 19  2  0  0  0  0
 24 26  1  0  0  0  0
 26 21  1  0  0  0  0
 26 25  1  0  0  0  0
 27 19  1  0  0  0  0
 28 27  2  0  0  0  0
 29 35  1  0  0  0  0
 30 33  1  0  0  0  0
 31 32  2  0  0  0  0
 32 34  1  0  0  0  0
 33 29  2  0  0  0  0
 33 31  1  0  0  0  0
 35 27  1  0  0  0  0
 35 34  2  0  0  0  0
 37 39  2  0  0  0  0
 37 43  1  0  0  0  0
 38 36  1  0  0  0  0
 39 41  1  0  0  0  0
 40 43  1  0  0  0  0
 41 42  2  0  0  0  0
 42 38  1  0  0  0  0
 43 38  2  0  0  0  0
 44 47  1  6  0  0  0
 44 45  1  0  0  0  0
 45 41  1  0  0  0  0
 46 49  1  1  0  0  0
 46 44  1  0  0  0  0
 48 45  1  0  0  0  0
 49 48  1  0  0  0  0
 50 52  1  1  0  0  0
 50 46  1  0  0  0  0
 51 54  1  1  0  0  0
 51 52  1  0  0  0  0
 51 50  1  0  0  0  0
 54 53  1  6  0  0  0
 55 54  1  0  0  0  0
 57 56  1  6  0  0  0
 57 58  1  0  0  0  0
 57 55  1  0  0  0  0
 60 61  1  0  0  0  0
 60 58  1  0  0  0  0
 62 59  2  0  0  0  0
 62 60  1  0  0  0  0
 63 62  1  0  0  0  0
M  END
>  <MODEL>
7

>  <REMARK>
 VINA RESULT:      -5.0      1.865      2.486
  Name = 
  16 active torsions:
  status: ('A' for Active; 'I' for Inactive)
    1  A    between atoms: C_1  and  C_47
    2  A    between atoms: C_3  and  C_39
    3  A    between atoms: C_3  and  C_54
    4  A    between atoms: C_6  and  C_16
    5  A    between atoms: N_7  and  C_59
    6  A    between atoms: C_12  and  N_24
    7  A    between atoms: C_12  and  C_46
    8  A    between atoms: N_15  and  C_25
    9  A    between atoms: C_16  and  C_42
   10  A    between atoms: C_17  and  C_42
   11  A    between atoms: C_19  and  N_26
   12  A    between atoms: C_20  and  C_31
   13  A    between atoms: C_20  and  C_46
   14  A    between atoms: C_25  and  C_32
   15  A    between atoms: C_27  and  C_31
   16  A    between atoms: C_49  and  C_60
                            x       y       z     vdW  Elec       q    Type
                         _______ _______ _______ _____ _____    ______ ____

>  <TORSDO>
F 16

$$$$
=
 OpenBabel11042417183D

 63 68  0  0  1  0  0  0  0  0999 V2000
  186.4230  177.6590  141.8160 N   0  0  0  0  0  0  0  0  0  0  0  0
  185.6860  177.7920  142.9030 C   0  0  0  0  0  0  0  0  0  0  0  0
  181.8280  178.9770  141.2690 C   0  0  0  0  0  0  0  0  0  0  0  0
  184.1950  177.9450  142.5050 C   0  0  0  0  0  0  0  0  0  0  0  0
  183.8720  177.7160  141.1520 C   0  0  0  0  0  3  0  0  0  0  0  0
  182.7440  178.2270  140.5410 C   0  0  0  0  0  3  0  0  0  0  0  0
  183.2170  178.6400  143.2680 C   0  0  0  0  0  3  0  0  0  0  0  0
  182.0180  179.1260  142.6380 C   0  0  0  0  0  3  0  0  0  0  0  0
  180.7070  179.5380  140.6360 O   0  0  0  0  0  1  0  0  0  0  0  0
  186.3270  177.7120  144.2640 C   0  0  0  0  0  0  0  0  0  0  0  0
  185.6560  177.8640  145.3300 O   0  0  0  0  0  0  0  0  0  0  0  0
  187.7480  177.4710  144.4600 C   0  0  0  0  0  3  0  0  0  0  0  0
  188.1830  176.4210  145.1620 C   0  0  0  0  0  0  0  0  0  0  0  0
  188.6650  175.3750  145.8830 C   0  0  0  0  0  3  0  0  0  0  0  0
  190.0040  174.8190  145.5730 C   0  0  0  0  0  0  0  0  0  0  0  0
  191.2950  172.8570  144.6390 C   0  0  0  0  0  2  0  0  0  0  0  0
  192.4710  173.7370  144.5890 N   0  0  0  0  0  0  0  0  0  0  0  0
  190.0530  173.5850  145.1190 C   0  0  0  0  0  3  0  0  0  0  0  0
  193.5860  173.0550  144.0110 C   0  0  0  0  0  0  0  0  0  0  0  0
  191.2900  175.6350  145.6760 C   0  0  0  0  0  0  0  0  0  0  0  0
  192.4340  175.1280  145.0950 C   0  0  0  0  0  0  0  0  0  0  0  0
  191.2190  176.9930  146.2040 C   0  0  0  0  0  1  0  0  0  0  0  0
  194.6600  173.7070  143.8110 O   0  0  0  0  0  0  0  0  0  0  0  0
  194.0260  177.0930  144.5300 C   0  0  0  0  0  1  0  0  0  0  0  0
  194.2460  176.0070  146.7340 C   0  0  0  0  0  1  0  0  0  0  0  0
  193.8240  175.8160  145.3130 C   0  0  0  0  0  3  0  0  0  0  0  0
  193.5880  171.6160  143.5360 C   0  0  0  0  0  0  0  0  0  0  0  0
  193.3040  171.3820  142.3380 O   0  0  0  0  0  0  0  0  0  0  0  0
  195.1450  170.3670  145.1390 C   0  0  0  0  0  3  0  0  0  0  0  0
  196.5900  169.2170  146.7330 N   0  0  0  0  0  1  0  0  0  0  0  0
  194.5030  168.2310  146.0370 C   0  0  0  0  0  3  0  0  0  0  0  0
  193.2930  168.2760  145.3550 C   0  0  0  0  0  3  0  0  0  0  0  0
  195.4190  169.2870  145.9600 C   0  0  0  0  0  0  0  0  0  0  0  0
  193.0000  169.3710  144.5460 C   0  0  0  0  0  3  0  0  0  0  0  0
  193.9260  170.4410  144.4280 C   0  0  0  0  0  0  0  0  0  0  0  0
  187.8000  177.2640  141.3950 C   0  0  0  0  0  2  0  0  0  0  0  0
  187.1320  175.6770  137.9600 C   0  0  0  0  0  3  0  0  0  0  0  0
  187.6930  176.1710  140.2960 C   0  0  0  0  0  0  0  0  0  0  0  0
  187.8580  174.5350  138.0580 C   0  0  0  0  0  3  0  0  0  0  0  0
  186.1190  177.4790  138.9890 F   0  0  0  0  0  0  0  0  0  0  0  0
  188.3980  174.0950  139.2520 C   0  0  0  0  0  0  0  0  0  0  0  0
  188.3440  174.9430  140.3640 C   0  0  0  0  0  3  0  0  0  0  0  0
  187.0300  176.4830  139.1290 C   0  0  0  0  0  0  0  0  0  0  0  0
  190.0480  172.3010  138.2820 C   0  0  2  0  0  3  0  0  0  0  0  0
  189.0910  172.8860  139.2550 N   0  0  0  0  0  0  0  0  0  0  0  0
  191.1080  171.9440  139.1540 N   0  0  1  0  0  0  0  0  0  0  0  0
  190.5780  173.2040  137.1340 C   0  0  0  0  0  1  0  0  0  0  0  0
  189.2920  172.2400  140.5740 C   0  0  0  0  0  2  0  0  0  0  0  0
  190.5300  171.4600  140.3970 C   0  0  0  0  0  2  0  0  0  0  0  0
  192.0330  171.0360  138.5500 C   0  0  1  0  0  3  0  0  0  0  0  0
  193.4120  171.7310  138.8290 C   0  0  1  0  0  3  0  0  0  0  0  0
  193.1030  170.4870  139.3550 O   0  0  0  0  0  0  0  0  0  0  0  0
  195.5060  171.0190  137.4340 O   0  0  0  0  0  1  0  0  0  0  0  0
  194.2530  171.7810  137.4600 C   0  0  2  0  0  3  0  0  0  0  0  0
  194.4640  173.1740  136.7660 C   0  0  0  0  0  2  0  0  0  0  0  0
  194.8400  175.4850  136.8060 O   0  0  0  0  0  1  0  0  0  0  0  0
  194.7390  174.3640  137.6610 C   0  0  2  0  0  3  0  0  0  0  0  0
  196.0860  174.0920  138.3070 C   0  0  0  0  0  2  0  0  0  0  0  0
  196.4140  172.2610  140.6350 O   0  0  0  0  0  0  0  0  0  0  0  0
  196.1200  174.4090  139.7290 N   0  0  0  0  0  0  0  0  0  0  0  0
  195.3580  175.5700  140.1460 C   0  0  0  0  0  1  0  0  0  0  0  0
  196.6230  173.4910  140.7100 C   0  0  0  0  0  0  0  0  0  0  0  0
  197.5110  174.0010  141.7600 C   0  0  0  0  0  1  0  0  0  0  0  0
  1  2  2  0  0  0  0
  2 10  1  0  0  0  0
  3  8  1  0  0  0  0
  4  2  1  0  0  0  0
  4  7  1  0  0  0  0
  5  4  2  0  0  0  0
  6  5  1  0  0  0  0
  6  3  2  0  0  0  0
  8  7  2  0  0  0  0
  9  3  1  0  0  0  0
 10 12  1  0  0  0  0
 10 11  2  0  0  0  0
 12 13  2  0  0  0  0
 13 14  2  0  0  0  0
 15 20  1  0  0  0  0
 15 14  1  0  0  0  0
 16 18  1  0  0  0  0
 17 16  1  0  0  0  0
 17 21  1  0  0  0  0
 18 15  2  0  0  0  0
 19 17  1  0  0  0  0
 20 22  1  0  0  0  0
 21 26  1  0  0  0  0
 21 20  2  0  0  0  0
 23 19  2  0  0  0  0
 24 26  1  0  0  0  0
 26 25  1  0  0  0  0
 27 19  1  0  0  0  0
 27 35  1  0  0  0  0
 28 27  2  0  0  0  0
 29 33  1  0  0  0  0
 32 31  1  0  0  0  0
 33 31  2  0  0  0  0
 33 30  1  0  0  0  0
 34 32  2  0  0  0  0
 35 34  1  0  0  0  0
 35 29  2  0  0  0  0
 36  1  1  0  0  0  0
 37 39  2  0  0  0  0
 37 43  1  0  0  0  0
 38 42  1  0  0  0  0
 38 36  1  0  0  0  0
 39 41  1  0  0  0  0
 40 43  1  0  0  0  0
 41 45  1  0  0  0  0
 41 42  2  0  0  0  0
 43 38  2  0  0  0  0
 44 47  1  6  0  0  0
 44 46  1  0  0  0  0
 44 45  1  0  0  0  0
 45 48  1  0  0  0  0
 46 49  1  1  0  0  0
 49 48  1  0  0  0  0
 50 51  1  0  0  0  0
 50 46  1  0  0  0  0
 50 52  1  1  0  0  0
 51 54  1  6  0  0  0
 51 52  1  0  0  0  0
 54 53  1  1  0  0  0
 55 54  1  0  0  0  0
 55 57  1  0  0  0  0
 57 56  1  6  0  0  0
 57 58  1  0  0  0  0
 58 60  1  0  0  0  0
 59 62  2  0  0  0  0
 60 61  1  0  0  0  0
 60 62  1  0  0  0  0
 62 63  1  0  0  0  0
M  END
>  <MODEL>
8

>  <REMARK>
 VINA RESULT:      -4.9      2.748      7.117
  Name = 
  16 active torsions:
  status: ('A' for Active; 'I' for Inactive)
    1  A    between atoms: C_1  and  C_47
    2  A    between atoms: C_3  and  C_39
    3  A    between atoms: C_3  and  C_54
    4  A    between atoms: C_6  and  C_16
    5  A    between atoms: N_7  and  C_59
    6  A    between atoms: C_12  and  N_24
    7  A    between atoms: C_12  and  C_46
    8  A    between atoms: N_15  and  C_25
    9  A    between atoms: C_16  and  C_42
   10  A    between atoms: C_17  and  C_42
   11  A    between atoms: C_19  and  N_26
   12  A    between atoms: C_20  and  C_31
   13  A    between atoms: C_20  and  C_46
   14  A    between atoms: C_25  and  C_32
   15  A    between atoms: C_27  and  C_31
   16  A    between atoms: C_49  and  C_60
                            x       y       z     vdW  Elec       q    Type
                         _______ _______ _______ _____ _____    ______ ____

>  <TORSDO>
F 16

$$$$
=
 OpenBabel11042417183D

 63 68  0  0  1  0  0  0  0  0999 V2000
  190.9960  171.9920  138.1060 N   0  0  0  0  0  0  0  0  0  0  0  0
  190.1760  173.0190  137.9950 C   0  0  0  0  0  0  0  0  0  0  0  0
  191.4280  176.1990  135.2980 C   0  0  0  0  0  0  0  0  0  0  0  0
  190.6050  173.9020  136.7950 C   0  0  0  0  0  0  0  0  0  0  0  0
  191.9250  174.3980  136.8120 C   0  0  0  0  0  3  0  0  0  0  0  0
  192.3260  175.5180  136.1100 C   0  0  0  0  0  3  0  0  0  0  0  0
  189.7090  174.5490  135.9000 C   0  0  0  0  0  3  0  0  0  0  0  0
  190.1480  175.6830  135.1310 C   0  0  0  0  0  3  0  0  0  0  0  0
  191.8240  177.3660  134.6240 O   0  0  0  0  0  1  0  0  0  0  0  0
  188.9950  173.1450  138.9230 C   0  0  0  0  0  0  0  0  0  0  0  0
  187.8740  172.6130  138.6550 O   0  0  0  0  0  0  0  0  0  0  0  0
  189.0430  173.8850  140.1740 C   0  0  0  0  0  3  0  0  0  0  0  0
  188.2600  174.9470  140.3820 C   0  0  0  0  0  0  0  0  0  0  0  0
  187.4930  176.0430  140.6250 C   0  0  0  0  0  3  0  0  0  0  0  0
  187.1120  176.3830  142.0170 C   0  0  0  0  0  0  0  0  0  0  0  0
  187.4840  175.9040  144.4700 C   0  0  0  0  0  2  0  0  0  0  0  0
  186.7590  177.1490  144.7580 N   0  0  0  0  0  0  0  0  0  0  0  0
  187.6470  175.6650  142.9800 C   0  0  0  0  0  3  0  0  0  0  0  0
  186.7390  177.4070  146.1630 C   0  0  0  0  0  0  0  0  0  0  0  0
  186.2100  177.5640  142.3690 C   0  0  0  0  0  0  0  0  0  0  0  0
  186.1510  177.9700  143.6860 C   0  0  0  0  0  0  0  0  0  0  0  0
  185.6070  178.3330  141.2870 C   0  0  0  0  0  1  0  0  0  0  0  0
  186.2280  178.4970  146.5740 O   0  0  0  0  0  0  0  0  0  0  0  0
  185.5650  180.4800  143.9520 C   0  0  0  0  0  1  0  0  0  0  0  0
  183.7170  178.8720  143.6630 C   0  0  0  0  0  1  0  0  0  0  0  0
  185.1180  179.0500  144.1530 C   0  0  0  0  0  3  0  0  0  0  0  0
  187.3490  176.5190  147.2290 C   0  0  0  0  0  0  0  0  0  0  0  0
  186.6070  176.0890  148.1450 O   0  0  0  0  0  0  0  0  0  0  0  0
  189.8430  177.0390  147.4880 C   0  0  0  0  0  3  0  0  0  0  0  0
  192.2120  177.5160  147.8200 N   0  0  0  0  0  1  0  0  0  0  0  0
  191.4780  175.2960  147.2310 C   0  0  0  0  0  3  0  0  0  0  0  0
  190.4830  174.3560  146.9930 C   0  0  0  0  0  3  0  0  0  0  0  0
  191.1650  176.6310  147.5120 C   0  0  0  0  0  0  0  0  0  0  0  0
  189.1480  174.7550  146.9910 C   0  0  0  0  0  3  0  0  0  0  0  0
  188.8060  176.1100  147.2450 C   0  0  0  0  0  0  0  0  0  0  0  0
  191.1130  170.6750  138.8010 C   0  0  0  0  0  2  0  0  0  0  0  0
  194.3310  169.4240  137.1140 C   0  0  0  0  0  3  0  0  0  0  0  0
  192.5720  170.1620  138.6570 C   0  0  0  0  0  0  0  0  0  0  0  0
  195.2480  169.6900  138.0790 C   0  0  0  0  0  3  0  0  0  0  0  0
  192.1230  169.1480  136.4970 F   0  0  0  0  0  0  0  0  0  0  0  0
  194.8930  170.0520  139.3650 C   0  0  0  0  0  0  0  0  0  0  0  0
  193.5470  170.3260  139.6360 C   0  0  0  0  0  3  0  0  0  0  0  0
  192.9620  169.6390  137.4430 C   0  0  0  0  0  0  0  0  0  0  0  0
  196.2600  171.4470  141.1160 C   0  0  2  0  0  3  0  0  0  0  0  0
  195.9100  170.2610  140.2940 N   0  0  0  0  0  0  0  0  0  0  0  0
  196.3650  170.8450  142.3950 N   0  0  1  0  0  0  0  0  0  0  0  0
  195.2600  172.6350  141.1610 C   0  0  0  0  0  1  0  0  0  0  0  0
  196.4930  169.0520  140.9220 C   0  0  0  0  0  2  0  0  0  0  0  0
  196.9690  169.5330  142.2320 C   0  0  0  0  0  2  0  0  0  0  0  0
  197.0360  171.6800  143.3420 C   0  0  1  0  0  3  0  0  0  0  0  0
  196.2680  171.3620  144.6720 C   0  0  1  0  0  3  0  0  0  0  0  0
  197.6160  171.0760  144.5230 O   0  0  0  0  0  0  0  0  0  0  0  0
  196.7830  173.2410  146.4150 O   0  0  0  0  0  1  0  0  0  0  0  0
  195.8660  172.7470  145.3820 C   0  0  2  0  0  3  0  0  0  0  0  0
  194.3800  172.9380  145.8530 C   0  0  0  0  0  2  0  0  0  0  0  0
  193.1070  172.6150  143.9150 O   0  0  0  0  0  1  0  0  0  0  0  0
  193.4210  173.5950  144.8840 C   0  0  2  0  0  3  0  0  0  0  0  0
  194.2000  174.7250  144.2330 C   0  0  0  0  0  2  0  0  0  0  0  0
  192.2100  175.6350  142.2120 O   0  0  0  0  0  0  0  0  0  0  0  0
  193.4590  175.9780  144.1720 N   0  0  0  0  0  0  0  0  0  0  0  0
  194.1110  177.1380  144.7480 C   0  0  0  0  0  1  0  0  0  0  0  0
  192.2940  176.1430  143.3510 C   0  0  0  0  0  0  0  0  0  0  0  0
  191.1260  176.8240  143.9170 C   0  0  0  0  0  1  0  0  0  0  0  0
  1 36  1  0  0  0  0
  2  1  2  0  0  0  0
  2 10  1  0  0  0  0
  3  6  1  0  0  0  0
  4  5  1  0  0  0  0
  4  2  1  0  0  0  0
  6  5  2  0  0  0  0
  7  4  2  0  0  0  0
  8  3  2  0  0  0  0
  8  7  1  0  0  0  0
  9  3  1  0  0  0  0
 10 12  1  0  0  0  0
 11 10  2  0  0  0  0
 12 13  2  0  0  0  0
 13 14  2  0  0  0  0
 14 15  1  0  0  0  0
 15 20  1  0  0  0  0
 15 18  2  0  0  0  0
 16 17  1  0  0  0  0
 17 19  1  0  0  0  0
 18 16  1  0  0  0  0
 19 23  2  0  0  0  0
 19 27  1  0  0  0  0
 20 21  2  0  0  0  0
 21 26  1  0  0  0  0
 21 17  1  0  0  0  0
 22 20  1  0  0  0  0
 24 26  1  0  0  0  0
 25 26  1  0  0  0  0
 27 35  1  0  0  0  0
 27 28  2  0  0  0  0
 29 33  1  0  0  0  0
 31 33  2  0  0  0  0
 32 31  1  0  0  0  0
 33 30  1  0  0  0  0
 34 32  2  0  0  0  0
 34 35  1  0  0  0  0
 35 29  2  0  0  0  0
 37 43  2  0  0  0  0
 37 39  1  0  0  0  0
 38 36  1  0  0  0  0
 38 42  2  0  0  0  0
 39 41  2  0  0  0  0
 40 43  1  0  0  0  0
 41 42  1  0  0  0  0
 41 45  1  0  0  0  0
 43 38  1  0  0  0  0
 44 47  1  1  0  0  0
 44 46  1  0  0  0  0
 45 48  1  0  0  0  0
 45 44  1  0  0  0  0
 46 49  1  6  0  0  0
 46 50  1  0  0  0  0
 48 49  1  0  0  0  0
 50 52  1  1  0  0  0
 50 51  1  0  0  0  0
 51 54  1  1  0  0  0
 52 51  1  0  0  0  0
 54 55  1  0  0  0  0
 54 53  1  1  0  0  0
 57 56  1  6  0  0  0
 57 55  1  0  0  0  0
 58 57  1  0  0  0  0
 59 62  2  0  0  0  0
 60 58  1  0  0  0  0
 60 61  1  0  0  0  0
 62 63  1  0  0  0  0
 62 60  1  0  0  0  0
M  END
>  <MODEL>
9

>  <REMARK>
 VINA RESULT:      -4.8      2.909      9.436
  Name = 
  16 active torsions:
  status: ('A' for Active; 'I' for Inactive)
    1  A    between atoms: C_1  and  C_47
    2  A    between atoms: C_3  and  C_39
    3  A    between atoms: C_3  and  C_54
    4  A    between atoms: C_6  and  C_16
    5  A    between atoms: N_7  and  C_59
    6  A    between atoms: C_12  and  N_24
    7  A    between atoms: C_12  and  C_46
    8  A    between atoms: N_15  and  C_25
    9  A    between atoms: C_16  and  C_42
   10  A    between atoms: C_17  and  C_42
   11  A    between atoms: C_19  and  N_26
   12  A    between atoms: C_20  and  C_31
   13  A    between atoms: C_20  and  C_46
   14  A    between atoms: C_25  and  C_32
   15  A    between atoms: C_27  and  C_31
   16  A    between atoms: C_49  and  C_60
                            x       y       z     vdW  Elec       q    Type
                         _______ _______ _______ _____ _____    ______ ____

>  <TORSDO>
F 16

$$$$
