=
 OpenBabel11042415453D

 59 63  0  0  1  0  0  0  0  0999 V2000
  189.0790  172.6930  139.5370 C   0  0  0  0  0  3  0  0  0  0  0  0
  189.1370  172.8390  140.8420 C   0  0  0  0  0  0  0  0  0  0  0  0
  190.4540  172.3210  141.3440 C   0  0  1  0  0  3  0  0  0  0  0  0
  190.2930  172.1070  139.1000 N   0  0  0  0  0  0  0  0  0  0  0  0
  191.1780  171.8460  140.1580 N   0  0  0  0  0  2  0  0  0  0  0  0
  189.7040  171.2950  136.9050 C   0  0  0  0  0  3  0  0  0  0  0  0
  190.6200  171.8150  137.7340 C   0  0  0  0  0  0  0  0  0  0  0  0
  192.0050  172.1080  137.2160 C   0  0  0  0  0  2  0  0  0  0  0  0
  191.4450  170.4830  135.3650 C   0  0  0  0  0  0  0  0  0  0  0  0
  192.5190  170.9800  136.3100 C   0  0  1  0  0  3  0  0  0  0  0  0
  191.7160  169.6510  134.5130 O   0  0  0  0  0  0  0  0  0  0  0  0
  190.0390  171.0060  135.4700 C   0  0  0  0  0  2  0  0  0  0  0  0
  193.6720  171.4560  135.5640 N   0  0  0  0  0  2  0  0  0  0  0  0
  193.4320  172.8560  135.2590 C   0  0  0  0  0  2  0  0  0  0  0  0
  195.8940  173.1250  135.9150 C   0  0  0  0  0  3  0  0  0  0  0  0
  196.1720  175.2500  135.5560 N   0  0  0  0  0  0  0  0  0  0  0  0
  196.8270  176.5440  135.4560 C   0  0  0  0  0  1  0  0  0  0  0  0
  196.7860  174.1410  135.9440 N   0  0  0  0  0  0  0  0  0  0  0  0
  194.6790  173.6380  135.4960 C   0  0  0  0  0  0  0  0  0  0  0  0
  194.8890  174.9810  135.2690 C   0  0  0  0  0  0  0  0  0  0  0  0
  193.8850  175.9760  134.7820 C   0  0  0  0  0  1  0  0  0  0  0  0
  186.7520  175.2680  142.5710 C   0  0  0  0  0  3  0  0  0  0  0  0
  187.3870  172.5330  142.3940 O   0  0  0  0  0  0  0  0  0  0  0  0
  188.3300  175.7780  141.1480 C   0  0  0  0  0  3  0  0  0  0  0  0
  186.7290  176.6390  142.3930 C   0  0  0  0  0  0  0  0  0  0  0  0
  188.0530  173.3600  141.7100 C   0  0  0  0  0  0  0  0  0  0  0  0
  187.7350  176.9760  141.4990 C   0  0  0  0  0  3  0  0  0  0  0  0
  187.7290  174.7600  141.7970 N   0  0  0  0  0  0  0  0  0  0  0  0
  185.8630  177.5730  143.0770 N   0  0  0  0  0  0  0  0  0  0  0  0
  183.7090  178.5210  143.0520 O   0  0  0  0  0  1  0  0  0  0  0  0
  186.2250  178.0230  144.4010 C   0  0  0  0  0  0  0  0  0  0  0  0
  184.7260  178.2990  141.0170 O   0  0  0  0  0  0  0  0  0  0  0  0
  187.4040  178.4090  144.6220 O   0  0  0  0  0  0  0  0  0  0  0  0
  184.7190  178.1390  142.4010 C   0  0  0  0  0  0  0  0  0  0  0  0
  185.2500  178.0130  145.5490 C   0  0  1  0  0  3  0  0  0  0  0  0
  185.2490  176.6630  146.2510 C   0  0  0  0  0  1  0  0  0  0  0  0
  185.5280  179.0400  146.4600 O   0  0  0  0  0  0  0  0  0  0  0  0
  185.8520  178.3900  147.6570 C   0  0  0  0  0  2  0  0  0  0  0  0
  186.9540  179.1570  148.3700 C   0  0  0  0  0  1  0  0  0  0  0  0
  191.5990  174.4360  141.1650 O   0  0  0  0  0  1  0  0  0  0  0  0
  191.2480  173.4150  142.0590 C   0  0  2  0  0  3  0  0  0  0  0  0
  192.4910  172.8140  142.7000 C   0  0  0  0  0  2  0  0  0  0  0  0
  192.5670  173.1850  144.1720 C   0  0  0  0  0  2  0  0  0  0  0  0
  192.1570  174.6380  144.3680 C   0  0  0  0  0  2  0  0  0  0  0  0
  193.3620  175.5720  144.4860 C   0  0  1  0  0  3  0  0  0  0  0  0
  194.0140  177.2380  146.5050 O   0  0  0  0  0  0  0  0  0  0  0  0
  194.9580  174.9660  146.5710 O   0  0  0  0  0  0  0  0  0  0  0  0
  193.7430  175.7860  146.2200 S   0  0  0  0  0  0  0  0  0  0  0  0
  192.3870  175.2600  147.1560 N   0  0  0  0  0  2  0  0  0  0  0  0
  191.6860  176.4510  147.6210 C   0  0  0  0  0  2  0  0  0  0  0  0
  190.0430  177.0270  145.9710 O   0  0  0  0  0  1  0  0  0  0  0  0
  189.7080  174.9910  147.1640 C   0  0  0  0  0  1  0  0  0  0  0  0
  190.2230  176.4140  147.2160 C   0  0  1  0  0  3  0  0  0  0  0  0
  194.4650  175.0150  143.8330 O   0  0  0  0  0  0  0  0  0  0  0  0
  196.2440  176.2750  141.0250 C   0  0  0  0  0  2  0  0  0  0  0  0
  195.0210  176.0520  143.0780 C   0  0  0  0  0  3  0  0  0  0  0  0
  197.2700  176.1630  142.1330 C   0  0  0  0  0  2  0  0  0  0  0  0
  194.9720  175.7100  141.6030 C   0  0  0  0  0  2  0  0  0  0  0  0
  196.4850  176.2190  143.4330 C   0  0  0  0  0  2  0  0  0  0  0  0
  1  2  2  0  0  0  0
  2  3  1  0  0  0  0
  2 26  1  0  0  0  0
  3 41  1  6  0  0  0
  4  1  1  0  0  0  0
  4  5  1  0  0  0  0
  5  3  1  0  0  0  0
  6  7  2  0  0  0  0
  7  4  1  0  0  0  0
  8  7  1  0  0  0  0
  9 12  1  0  0  0  0
  9 10  1  0  0  0  0
 10 13  1  6  0  0  0
 10  8  1  0  0  0  0
 11  9  2  0  0  0  0
 12  6  1  0  0  0  0
 14 19  1  0  0  0  0
 14 13  1  0  0  0  0
 15 18  2  0  0  0  0
 16 18  1  0  0  0  0
 17 16  1  0  0  0  0
 19 15  1  0  0  0  0
 20 19  2  0  0  0  0
 20 16  1  0  0  0  0
 21 20  1  0  0  0  0
 24 27  2  0  0  0  0
 24 28  1  0  0  0  0
 25 22  2  0  0  0  0
 25 29  1  0  0  0  0
 26 28  1  0  0  0  0
 26 23  2  0  0  0  0
 27 25  1  0  0  0  0
 28 22  1  0  0  0  0
 29 31  1  0  0  0  0
 31 33  2  0  0  0  0
 31 35  1  0  0  0  0
 32 34  2  0  0  0  0
 34 30  1  0  0  0  0
 34 29  1  0  0  0  0
 35 36  1  1  0  0  0
 35 37  1  0  0  0  0
 37 38  1  0  0  0  0
 38 39  1  0  0  0  0
 41 40  1  6  0  0  0
 41 42  1  0  0  0  0
 42 43  1  0  0  0  0
 43 44  1  0  0  0  0
 45 44  1  1  0  0  0
 45 48  1  0  0  0  0
 48 46  2  0  0  0  0
 48 47  2  0  0  0  0
 48 49  1  0  0  0  0
 49 50  1  0  0  0  0
 51 53  1  0  0  0  0
 53 52  1  6  0  0  0
 53 50  1  0  0  0  0
 54 45  1  0  0  0  0
 55 58  1  0  0  0  0
 55 57  1  0  0  0  0
 56 59  1  0  0  0  0
 56 54  1  0  0  0  0
 57 59  1  0  0  0  0
 58 56  1  0  0  0  0
M  END
>  <MODEL>
1

>  <REMARK>
 VINA RESULT:      -6.7      0.000      0.000
  Name = 
  20 active torsions:
  status: ('A' for Active; 'I' for Inactive)
    1  A    between atoms: O_1  and  C_7
    2  A    between atoms: O_1  and  C_29
    3  A    between atoms: N_4  and  C_5
    4  A    between atoms: N_4  and  C_38
    5  A    between atoms: C_5  and  C_46
    6  A    between atoms: C_6  and  N_48
    7  A    between atoms: C_6  and  C_52
    8  A    between atoms: C_7  and  C_39
    9  A    between atoms: C_10  and  C_15
   10  A    between atoms: C_10  and  O_17
   11  A    between atoms: C_10  and  S_51
   12  A    between atoms: N_11  and  C_22
   13  A    between atoms: C_14  and  O_17
   14  A    between atoms: C_15  and  C_24
   15  A    between atoms: C_18  and  N_42
   16  A    between atoms: C_24  and  C_31
   17  A    between atoms: C_31  and  C_54
   18  A    between atoms: C_33  and  C_34
   19  A    between atoms: C_36  and  C_54
   20  A    between atoms: N_48  and  S_51
                            x       y       z     vdW  Elec       q    Type
                         _______ _______ _______ _____ _____    ______ ____

>  <TORSDO>
F 20

$$$$
=
 OpenBabel11042415453D

 59 63  0  0  1  0  0  0  0  0999 V2000
  189.1730  172.6980  139.6240 C   0  0  0  0  0  3  0  0  0  0  0  0
  189.1460  172.6430  140.9370 C   0  0  0  0  0  0  0  0  0  0  0  0
  190.3280  171.8580  141.4280 C   0  0  1  0  0  3  0  0  0  0  0  0
  190.3200  171.9980  139.1720 N   0  0  0  0  0  0  0  0  0  0  0  0
  191.0680  171.4520  140.2270 N   0  0  0  0  0  2  0  0  0  0  0  0
  189.9790  171.1240  136.9490 C   0  0  0  0  0  3  0  0  0  0  0  0
  190.7100  171.8580  137.7990 C   0  0  0  0  0  0  0  0  0  0  0  0
  191.9490  172.5560  137.2970 C   0  0  0  0  0  2  0  0  0  0  0  0
  191.8720  170.9000  135.3910 C   0  0  0  0  0  0  0  0  0  0  0  0
  192.7620  171.6540  136.3570 C   0  0  1  0  0  3  0  0  0  0  0  0
  192.3680  170.2110  134.5130 O   0  0  0  0  0  0  0  0  0  0  0  0
  190.3760  170.9910  135.5070 C   0  0  0  0  0  2  0  0  0  0  0  0
  193.7250  172.4670  135.6320 N   0  0  0  0  0  2  0  0  0  0  0  0
  195.0450  172.0750  136.0950 C   0  0  0  0  0  2  0  0  0  0  0  0
  196.0400  174.4360  136.1360 C   0  0  0  0  0  3  0  0  0  0  0  0
  196.5620  174.6110  138.2370 N   0  0  0  0  0  0  0  0  0  0  0  0
  197.0460  175.1890  139.4810 C   0  0  0  0  0  1  0  0  0  0  0  0
  196.5640  175.2530  137.0770 N   0  0  0  0  0  0  0  0  0  0  0  0
  195.7110  173.2390  136.7480 C   0  0  0  0  0  0  0  0  0  0  0  0
  196.0430  173.3840  138.0770 C   0  0  0  0  0  0  0  0  0  0  0  0
  195.8610  172.3740  139.1630 C   0  0  0  0  0  1  0  0  0  0  0  0
  186.7670  175.1290  142.5920 C   0  0  0  0  0  3  0  0  0  0  0  0
  187.4630  172.4030  142.5730 O   0  0  0  0  0  0  0  0  0  0  0  0
  188.2770  175.5770  141.0770 C   0  0  0  0  0  3  0  0  0  0  0  0
  186.7030  176.4840  142.3250 C   0  0  0  0  0  0  0  0  0  0  0  0
  188.0820  173.1970  141.8100 C   0  0  0  0  0  0  0  0  0  0  0  0
  187.6650  176.7820  141.3700 C   0  0  0  0  0  3  0  0  0  0  0  0
  187.7270  174.5920  141.8160 N   0  0  0  0  0  0  0  0  0  0  0  0
  185.8400  177.4430  142.9780 N   0  0  0  0  0  0  0  0  0  0  0  0
  183.6900  178.3990  142.9210 O   0  0  0  0  0  1  0  0  0  0  0  0
  186.2020  177.9310  144.2890 C   0  0  0  0  0  0  0  0  0  0  0  0
  184.7090  178.1100  140.8950 O   0  0  0  0  0  0  0  0  0  0  0  0
  187.3820  178.3190  144.4990 O   0  0  0  0  0  0  0  0  0  0  0  0
  184.7000  177.9930  142.2830 C   0  0  0  0  0  0  0  0  0  0  0  0
  185.2260  177.9610  145.4350 C   0  0  1  0  0  3  0  0  0  0  0  0
  185.2950  176.6730  146.2430 C   0  0  0  0  0  1  0  0  0  0  0  0
  185.4440  179.0710  146.2590 O   0  0  0  0  0  0  0  0  0  0  0  0
  185.6750  178.5400  147.5340 C   0  0  0  0  0  2  0  0  0  0  0  0
  186.8350  179.2740  148.1890 C   0  0  0  0  0  1  0  0  0  0  0  0
  190.5520  172.9730  143.5560 O   0  0  0  0  0  1  0  0  0  0  0  0
  191.2120  172.7000  142.3490 C   0  0  2  0  0  3  0  0  0  0  0  0
  191.6030  173.9920  141.6480 C   0  0  0  0  0  2  0  0  0  0  0  0
  191.2170  175.1970  142.4900 C   0  0  0  0  0  2  0  0  0  0  0  0
  192.4350  176.0760  142.7360 C   0  0  0  0  0  2  0  0  0  0  0  0
  193.0090  175.8970  144.1420 C   0  0  1  0  0  3  0  0  0  0  0  0
  195.4850  176.8960  144.5240 O   0  0  0  0  0  0  0  0  0  0  0  0
  195.1450  175.4500  142.5620 O   0  0  0  0  0  0  0  0  0  0  0  0
  194.7780  175.6730  144.0060 S   0  0  0  0  0  0  0  0  0  0  0  0
  195.2380  174.3000  144.9500 N   0  0  0  0  0  2  0  0  0  0  0  0
  194.6730  173.1170  144.3100 C   0  0  0  0  0  2  0  0  0  0  0  0
  193.1290  171.3810  144.9010 O   0  0  0  0  0  1  0  0  0  0  0  0
  195.3780  171.1240  145.6450 C   0  0  0  0  0  1  0  0  0  0  0  0
  194.2510  172.0890  145.3440 C   0  0  1  0  0  3  0  0  0  0  0  0
  192.7420  177.0310  144.9160 O   0  0  0  0  0  0  0  0  0  0  0  0
  190.4180  174.7580  146.3540 C   0  0  0  0  0  2  0  0  0  0  0  0
  191.9110  176.5940  145.9510 C   0  0  0  0  0  3  0  0  0  0  0  0
  189.5800  175.8850  145.7890 C   0  0  0  0  0  2  0  0  0  0  0  0
  191.8360  175.0800  145.9590 C   0  0  0  0  0  2  0  0  0  0  0  0
  190.4980  177.0930  145.7240 C   0  0  0  0  0  2  0  0  0  0  0  0
  1  2  2  0  0  0  0
  2  3  1  0  0  0  0
  2 26  1  0  0  0  0
  3 41  1  1  0  0  0
  4  1  1  0  0  0  0
  4  5  1  0  0  0  0
  5  3  1  0  0  0  0
  6  7  2  0  0  0  0
  7  4  1  0  0  0  0
  8  7  1  0  0  0  0
  9 12  1  0  0  0  0
  9 10  1  0  0  0  0
 10 13  1  6  0  0  0
 10  8  1  0  0  0  0
 11  9  2  0  0  0  0
 12  6  1  0  0  0  0
 13 14  1  0  0  0  0
 14 19  1  0  0  0  0
 15 19  1  0  0  0  0
 15 18  2  0  0  0  0
 16 17  1  0  0  0  0
 18 16  1  0  0  0  0
 19 20  2  0  0  0  0
 20 16  1  0  0  0  0
 20 21  1  0  0  0  0
 24 27  2  0  0  0  0
 24 28  1  0  0  0  0
 25 22  2  0  0  0  0
 25 29  1  0  0  0  0
 26 28  1  0  0  0  0
 26 23  2  0  0  0  0
 27 25  1  0  0  0  0
 28 22  1  0  0  0  0
 29 31  1  0  0  0  0
 31 33  2  0  0  0  0
 31 35  1  0  0  0  0
 32 34  2  0  0  0  0
 34 30  1  0  0  0  0
 34 29  1  0  0  0  0
 35 36  1  1  0  0  0
 35 37  1  0  0  0  0
 37 38  1  0  0  0  0
 38 39  1  0  0  0  0
 41 40  1  1  0  0  0
 42 41  1  0  0  0  0
 42 43  1  0  0  0  0
 43 44  1  0  0  0  0
 45 44  1  6  0  0  0
 45 54  1  0  0  0  0
 47 48  2  0  0  0  0
 48 45  1  0  0  0  0
 48 46  2  0  0  0  0
 48 49  1  0  0  0  0
 50 49  1  0  0  0  0
 50 53  1  0  0  0  0
 51 53  1  0  0  0  0
 53 52  1  6  0  0  0
 54 56  1  0  0  0  0
 56 58  1  0  0  0  0
 57 55  1  0  0  0  0
 58 55  1  0  0  0  0
 59 57  1  0  0  0  0
 59 56  1  0  0  0  0
M  END
>  <MODEL>
2

>  <REMARK>
 VINA RESULT:      -6.6      1.534      3.065
  Name = 
  20 active torsions:
  status: ('A' for Active; 'I' for Inactive)
    1  A    between atoms: O_1  and  C_7
    2  A    between atoms: O_1  and  C_29
    3  A    between atoms: N_4  and  C_5
    4  A    between atoms: N_4  and  C_38
    5  A    between atoms: C_5  and  C_46
    6  A    between atoms: C_6  and  N_48
    7  A    between atoms: C_6  and  C_52
    8  A    between atoms: C_7  and  C_39
    9  A    between atoms: C_10  and  C_15
   10  A    between atoms: C_10  and  O_17
   11  A    between atoms: C_10  and  S_51
   12  A    between atoms: N_11  and  C_22
   13  A    between atoms: C_14  and  O_17
   14  A    between atoms: C_15  and  C_24
   15  A    between atoms: C_18  and  N_42
   16  A    between atoms: C_24  and  C_31
   17  A    between atoms: C_31  and  C_54
   18  A    between atoms: C_33  and  C_34
   19  A    between atoms: C_36  and  C_54
   20  A    between atoms: N_48  and  S_51
                            x       y       z     vdW  Elec       q    Type
                         _______ _______ _______ _____ _____    ______ ____

>  <TORSDO>
F 20

$$$$
=
 OpenBabel11042415453D

 59 63  0  0  1  0  0  0  0  0999 V2000
  189.0260  175.1570  142.6450 C   0  0  0  0  0  3  0  0  0  0  0  0
  189.6860  174.1350  142.1500 C   0  0  0  0  0  0  0  0  0  0  0  0
  190.5920  173.5670  143.2050 C   0  0  1  0  0  3  0  0  0  0  0  0
  189.4160  175.3290  143.9970 N   0  0  0  0  0  0  0  0  0  0  0  0
  190.3800  174.3910  144.4020 N   0  0  0  0  0  2  0  0  0  0  0  0
  189.2260  176.3320  146.1830 C   0  0  0  0  0  3  0  0  0  0  0  0
  188.8950  176.3270  144.8840 C   0  0  0  0  0  0  0  0  0  0  0  0
  187.9740  177.3960  144.3510 C   0  0  0  0  0  2  0  0  0  0  0  0
  187.2710  177.7140  146.7570 C   0  0  0  0  0  0  0  0  0  0  0  0
  186.8100  177.6680  145.3150 C   0  0  1  0  0  3  0  0  0  0  0  0
  186.4850  178.0140  147.6420 O   0  0  0  0  0  0  0  0  0  0  0  0
  188.6960  177.3880  147.1100 C   0  0  0  0  0  2  0  0  0  0  0  0
  186.1690  178.9200  144.9460 N   0  0  0  0  0  2  0  0  0  0  0  0
  186.2540  179.0300  143.5000 C   0  0  0  0  0  2  0  0  0  0  0  0
  183.7050  178.7690  143.5330 C   0  0  0  0  0  3  0  0  0  0  0  0
  183.3380  178.1950  141.4700 N   0  0  0  0  0  0  0  0  0  0  0  0
  182.6160  177.8260  140.2620 C   0  0  0  0  0  1  0  0  0  0  0  0
  182.7500  178.4520  142.6300 N   0  0  0  0  0  0  0  0  0  0  0  0
  184.9320  178.6950  142.8960 C   0  0  0  0  0  0  0  0  0  0  0  0
  184.6660  178.3390  141.5920 C   0  0  0  0  0  0  0  0  0  0  0  0
  185.6610  178.1510  140.4930 C   0  0  0  0  0  1  0  0  0  0  0  0
  190.7510  173.1600  138.6150 C   0  0  0  0  0  3  0  0  0  0  0  0
  188.5030  173.2660  140.3030 O   0  0  0  0  0  0  0  0  0  0  0  0
  192.0340  173.9630  140.1910 C   0  0  0  0  0  3  0  0  0  0  0  0
  192.0340  173.2440  138.1080 C   0  0  0  0  0  0  0  0  0  0  0  0
  189.6200  173.6500  140.7500 C   0  0  0  0  0  0  0  0  0  0  0  0
  192.8570  173.7630  139.0970 C   0  0  0  0  0  3  0  0  0  0  0  0
  190.7720  173.5950  139.8890 N   0  0  0  0  0  0  0  0  0  0  0  0
  192.4410  172.9230  136.7580 N   0  0  0  0  0  0  0  0  0  0  0  0
  192.8370  173.8500  134.6310 O   0  0  0  0  0  0  0  0  0  0  0  0
  193.0700  171.6480  136.5010 C   0  0  0  0  0  0  0  0  0  0  0  0
  190.9840  174.6190  135.7270 O   0  0  0  0  0  1  0  0  0  0  0  0
  192.5550  170.5990  136.9730 O   0  0  0  0  0  0  0  0  0  0  0  0
  192.1170  173.8110  135.6660 C   0  0  0  0  0  0  0  0  0  0  0  0
  194.3490  171.5240  135.7160 C   0  0  1  0  0  3  0  0  0  0  0  0
  195.5610  171.6990  136.6190 C   0  0  0  0  0  1  0  0  0  0  0  0
  194.4130  170.3010  135.0390 O   0  0  0  0  0  0  0  0  0  0  0  0
  195.5610  169.6690  135.5320 C   0  0  0  0  0  2  0  0  0  0  0  0
  195.3360  168.1660  135.5750 C   0  0  0  0  0  1  0  0  0  0  0  0
  189.8560  171.9390  144.8250 O   0  0  0  0  0  1  0  0  0  0  0  0
  190.2630  172.1020  143.4930 C   0  0  2  0  0  3  0  0  0  0  0  0
  191.4760  171.2330  143.1930 C   0  0  0  0  0  2  0  0  0  0  0  0
  192.5320  171.3960  144.2740 C   0  0  0  0  0  2  0  0  0  0  0  0
  193.8970  171.6280  143.6420 C   0  0  0  0  0  2  0  0  0  0  0  0
  195.0420  171.4240  144.6350 C   0  0  1  0  0  3  0  0  0  0  0  0
  196.5730  173.5010  143.8490 O   0  0  0  0  0  0  0  0  0  0  0  0
  196.6270  172.9030  146.2360 O   0  0  0  0  0  0  0  0  0  0  0  0
  195.7520  173.0210  145.0150 S   0  0  0  0  0  0  0  0  0  0  0  0
  194.4700  174.1420  145.3150 N   0  0  0  0  0  2  0  0  0  0  0  0
  195.0180  175.2330  146.1130 C   0  0  0  0  0  2  0  0  0  0  0  0
  195.3490  176.7680  144.3010 O   0  0  0  0  0  1  0  0  0  0  0  0
  193.1750  176.7000  145.2750 C   0  0  0  0  0  1  0  0  0  0  0  0
  194.6670  176.5800  145.5080 C   0  0  1  0  0  3  0  0  0  0  0  0
  194.5580  170.8400  145.8090 O   0  0  0  0  0  0  0  0  0  0  0  0
  196.5100  168.3150  147.3740 C   0  0  0  0  0  2  0  0  0  0  0  0
  195.1300  169.5660  145.8600 C   0  0  0  0  0  3  0  0  0  0  0  0
  197.4420  168.9940  146.3940 C   0  0  0  0  0  2  0  0  0  0  0  0
  195.2190  169.0890  147.2960 C   0  0  0  0  0  2  0  0  0  0  0  0
  196.5500  169.6170  145.3350 C   0  0  0  0  0  2  0  0  0  0  0  0
  1  4  1  0  0  0  0
  2  1  2  0  0  0  0
  2  3  1  0  0  0  0
  3 41  1  1  0  0  0
  3  5  1  0  0  0  0
  4  5  1  0  0  0  0
  4  7  1  0  0  0  0
  6 12  1  0  0  0  0
  7  6  2  0  0  0  0
  8  7  1  0  0  0  0
  8 10  1  0  0  0  0
  9 12  1  0  0  0  0
  9 11  2  0  0  0  0
 10 13  1  6  0  0  0
 10  9  1  0  0  0  0
 14 13  1  0  0  0  0
 16 20  1  0  0  0  0
 16 18  1  0  0  0  0
 17 16  1  0  0  0  0
 18 15  2  0  0  0  0
 19 14  1  0  0  0  0
 19 15  1  0  0  0  0
 20 19  2  0  0  0  0
 21 20  1  0  0  0  0
 22 28  1  0  0  0  0
 23 26  2  0  0  0  0
 25 22  2  0  0  0  0
 25 27  1  0  0  0  0
 26  2  1  0  0  0  0
 27 24  2  0  0  0  0
 28 24  1  0  0  0  0
 28 26  1  0  0  0  0
 29 25  1  0  0  0  0
 30 34  2  0  0  0  0
 31 29  1  0  0  0  0
 31 33  2  0  0  0  0
 34 32  1  0  0  0  0
 34 29  1  0  0  0  0
 35 31  1  0  0  0  0
 35 36  1  1  0  0  0
 37 38  1  0  0  0  0
 37 35  1  0  0  0  0
 38 39  1  0  0  0  0
 41 40  1  1  0  0  0
 42 41  1  0  0  0  0
 42 43  1  0  0  0  0
 44 43  1  0  0  0  0
 45 44  1  6  0  0  0
 45 48  1  0  0  0  0
 45 54  1  0  0  0  0
 46 48  2  0  0  0  0
 48 49  1  0  0  0  0
 48 47  2  0  0  0  0
 49 50  1  0  0  0  0
 51 53  1  0  0  0  0
 53 52  1  6  0  0  0
 53 50  1  0  0  0  0
 54 56  1  0  0  0  0
 56 58  1  0  0  0  0
 57 55  1  0  0  0  0
 58 55  1  0  0  0  0
 59 56  1  0  0  0  0
 59 57  1  0  0  0  0
M  END
>  <MODEL>
3

>  <REMARK>
 VINA RESULT:      -6.1      2.955      9.945
  Name = 
  20 active torsions:
  status: ('A' for Active; 'I' for Inactive)
    1  A    between atoms: O_1  and  C_7
    2  A    between atoms: O_1  and  C_29
    3  A    between atoms: N_4  and  C_5
    4  A    between atoms: N_4  and  C_38
    5  A    between atoms: C_5  and  C_46
    6  A    between atoms: C_6  and  N_48
    7  A    between atoms: C_6  and  C_52
    8  A    between atoms: C_7  and  C_39
    9  A    between atoms: C_10  and  C_15
   10  A    between atoms: C_10  and  O_17
   11  A    between atoms: C_10  and  S_51
   12  A    between atoms: N_11  and  C_22
   13  A    between atoms: C_14  and  O_17
   14  A    between atoms: C_15  and  C_24
   15  A    between atoms: C_18  and  N_42
   16  A    between atoms: C_24  and  C_31
   17  A    between atoms: C_31  and  C_54
   18  A    between atoms: C_33  and  C_34
   19  A    between atoms: C_36  and  C_54
   20  A    between atoms: N_48  and  S_51
                            x       y       z     vdW  Elec       q    Type
                         _______ _______ _______ _____ _____    ______ ____

>  <TORSDO>
F 20

$$$$
=
 OpenBabel11042415453D

 59 63  0  0  1  0  0  0  0  0999 V2000
  190.4420  171.5970  142.3900 C   0  0  0  0  0  3  0  0  0  0  0  0
  189.7020  172.2960  141.5590 C   0  0  0  0  0  0  0  0  0  0  0  0
  190.3680  172.3400  140.2140 C   0  0  1  0  0  3  0  0  0  0  0  0
  191.5890  171.1410  141.6920 N   0  0  0  0  0  0  0  0  0  0  0  0
  191.6090  171.5670  140.3540 N   0  0  0  0  0  2  0  0  0  0  0  0
  192.3340  169.1360  142.8090 C   0  0  0  0  0  3  0  0  0  0  0  0
  192.6230  170.3220  142.2530 C   0  0  0  0  0  0  0  0  0  0  0  0
  194.0560  170.7880  142.2080 C   0  0  0  0  0  2  0  0  0  0  0  0
  194.4520  169.1190  144.0630 C   0  0  0  0  0  0  0  0  0  0  0  0
  194.7850  170.4960  143.5270 C   0  0  1  0  0  3  0  0  0  0  0  0
  195.0210  168.6940  145.0570 O   0  0  0  0  0  0  0  0  0  0  0  0
  193.4170  168.2680  143.3800 C   0  0  0  0  0  2  0  0  0  0  0  0
  196.2180  170.6270  143.3190 N   0  0  0  0  0  2  0  0  0  0  0  0
  196.4700  172.0120  142.9610 C   0  0  0  0  0  2  0  0  0  0  0  0
  197.0400  172.8270  145.3220 C   0  0  0  0  0  3  0  0  0  0  0  0
  195.6340  174.4710  145.5250 N   0  0  0  0  0  0  0  0  0  0  0  0
  194.9360  175.6090  146.1040 C   0  0  0  0  0  1  0  0  0  0  0  0
  196.6090  173.8160  146.1380 N   0  0  0  0  0  0  0  0  0  0  0  0
  196.2880  172.8780  144.1610 C   0  0  0  0  0  0  0  0  0  0  0  0
  195.4150  173.9320  144.3160 C   0  0  0  0  0  0  0  0  0  0  0  0
  194.4030  174.4130  143.3260 C   0  0  0  0  0  1  0  0  0  0  0  0
  187.2640  175.0990  142.4390 C   0  0  0  0  0  3  0  0  0  0  0  0
  187.3800  172.3260  141.9750 O   0  0  0  0  0  0  0  0  0  0  0  0
  189.4130  175.2970  142.0960 C   0  0  0  0  0  3  0  0  0  0  0  0
  187.5900  176.4340  142.5860 C   0  0  0  0  0  0  0  0  0  0  0  0
  188.4430  173.0040  141.8970 C   0  0  0  0  0  0  0  0  0  0  0  0
  188.9550  176.5710  142.3800 C   0  0  0  0  0  3  0  0  0  0  0  0
  188.3860  174.4230  142.1320 N   0  0  0  0  0  0  0  0  0  0  0  0
  186.6850  177.4970  142.9650 N   0  0  0  0  0  0  0  0  0  0  0  0
  184.7520  178.6610  142.3000 O   0  0  0  0  0  1  0  0  0  0  0  0
  186.7150  177.9910  144.3220 C   0  0  0  0  0  0  0  0  0  0  0  0
  186.2600  178.2030  140.6450 O   0  0  0  0  0  0  0  0  0  0  0  0
  187.8240  178.2650  144.8550 O   0  0  0  0  0  0  0  0  0  0  0  0
  185.8500  178.1340  141.9740 C   0  0  0  0  0  0  0  0  0  0  0  0
  185.4660  178.1570  145.1470 C   0  0  1  0  0  3  0  0  0  0  0  0
  185.1940  176.9150  145.9810 C   0  0  0  0  0  1  0  0  0  0  0  0
  185.5450  179.2910  145.9650 O   0  0  0  0  0  0  0  0  0  0  0  0
  185.4400  178.8050  147.2740 C   0  0  0  0  0  2  0  0  0  0  0  0
  186.6190  179.3010  148.0960 C   0  0  0  0  0  1  0  0  0  0  0  0
  189.9770  170.4940  138.7110 O   0  0  0  0  0  1  0  0  0  0  0  0
  189.4750  171.7350  139.1290 C   0  0  2  0  0  3  0  0  0  0  0  0
  189.3710  172.6940  137.9530 C   0  0  0  0  0  2  0  0  0  0  0  0
  190.4250  173.7840  138.0550 C   0  0  0  0  0  2  0  0  0  0  0  0
  190.9280  174.1570  136.6670 C   0  0  0  0  0  2  0  0  0  0  0  0
  192.3680  173.7010  136.4270 C   0  0  1  0  0  3  0  0  0  0  0  0
  192.7390  176.3710  136.3590 O   0  0  0  0  0  0  0  0  0  0  0  0
  194.6810  174.9520  135.8370 O   0  0  0  0  0  0  0  0  0  0  0  0
  193.4550  175.0940  136.7020 S   0  0  0  0  0  0  0  0  0  0  0  0
  193.9120  175.1210  138.3700 N   0  0  0  0  0  2  0  0  0  0  0  0
  195.3650  175.0080  138.4290 C   0  0  0  0  0  2  0  0  0  0  0  0
  196.0580  173.1130  139.7240 O   0  0  0  0  0  1  0  0  0  0  0  0
  197.0600  175.2080  140.2560 C   0  0  0  0  0  1  0  0  0  0  0  0
  195.8150  174.4890  139.7830 C   0  0  1  0  0  3  0  0  0  0  0  0
  192.6980  172.6710  137.3130 O   0  0  0  0  0  0  0  0  0  0  0  0
  193.9780  169.5300  136.2500 C   0  0  0  0  0  2  0  0  0  0  0  0
  192.6320  171.4930  136.5650 C   0  0  0  0  0  3  0  0  0  0  0  0
  194.3850  170.5150  135.1750 C   0  0  0  0  0  2  0  0  0  0  0  0
  193.3040  170.3590  137.3130 C   0  0  0  0  0  2  0  0  0  0  0  0
  193.3960  171.6640  135.2670 C   0  0  0  0  0  2  0  0  0  0  0  0
  2 26  1  0  0  0  0
  2  1  2  0  0  0  0
  3 41  1  6  0  0  0
  3  5  1  0  0  0  0
  3  2  1  0  0  0  0
  4  7  1  0  0  0  0
  4  1  1  0  0  0  0
  5  4  1  0  0  0  0
  6 12  1  0  0  0  0
  7  6  2  0  0  0  0
  8  7  1  0  0  0  0
  8 10  1  0  0  0  0
  9 11  2  0  0  0  0
 10 13  1  6  0  0  0
 10  9  1  0  0  0  0
 12  9  1  0  0  0  0
 14 13  1  0  0  0  0
 14 19  1  0  0  0  0
 15 18  2  0  0  0  0
 16 17  1  0  0  0  0
 16 18  1  0  0  0  0
 19 20  2  0  0  0  0
 19 15  1  0  0  0  0
 20 16  1  0  0  0  0
 21 20  1  0  0  0  0
 22 25  2  0  0  0  0
 24 28  1  0  0  0  0
 24 27  2  0  0  0  0
 25 29  1  0  0  0  0
 26 23  2  0  0  0  0
 26 28  1  0  0  0  0
 27 25  1  0  0  0  0
 28 22  1  0  0  0  0
 29 31  1  0  0  0  0
 31 33  2  0  0  0  0
 31 35  1  0  0  0  0
 32 34  2  0  0  0  0
 34 30  1  0  0  0  0
 34 29  1  0  0  0  0
 35 37  1  0  0  0  0
 35 36  1  1  0  0  0
 37 38  1  0  0  0  0
 38 39  1  0  0  0  0
 41 40  1  6  0  0  0
 42 43  1  0  0  0  0
 42 41  1  0  0  0  0
 44 43  1  0  0  0  0
 45 44  1  1  0  0  0
 45 48  1  0  0  0  0
 45 54  1  0  0  0  0
 46 48  2  0  0  0  0
 47 48  2  0  0  0  0
 48 49  1  0  0  0  0
 49 50  1  0  0  0  0
 50 53  1  0  0  0  0
 51 53  1  0  0  0  0
 53 52  1  6  0  0  0
 55 58  1  0  0  0  0
 56 58  1  0  0  0  0
 56 54  1  0  0  0  0
 57 59  1  0  0  0  0
 57 55  1  0  0  0  0
 59 56  1  0  0  0  0
M  END
>  <MODEL>
4

>  <REMARK>
 VINA RESULT:      -5.9      3.058      6.794
  Name = 
  20 active torsions:
  status: ('A' for Active; 'I' for Inactive)
    1  A    between atoms: O_1  and  C_7
    2  A    between atoms: O_1  and  C_29
    3  A    between atoms: N_4  and  C_5
    4  A    between atoms: N_4  and  C_38
    5  A    between atoms: C_5  and  C_46
    6  A    between atoms: C_6  and  N_48
    7  A    between atoms: C_6  and  C_52
    8  A    between atoms: C_7  and  C_39
    9  A    between atoms: C_10  and  C_15
   10  A    between atoms: C_10  and  O_17
   11  A    between atoms: C_10  and  S_51
   12  A    between atoms: N_11  and  C_22
   13  A    between atoms: C_14  and  O_17
   14  A    between atoms: C_15  and  C_24
   15  A    between atoms: C_18  and  N_42
   16  A    between atoms: C_24  and  C_31
   17  A    between atoms: C_31  and  C_54
   18  A    between atoms: C_33  and  C_34
   19  A    between atoms: C_36  and  C_54
   20  A    between atoms: N_48  and  S_51
                            x       y       z     vdW  Elec       q    Type
                         _______ _______ _______ _____ _____    ______ ____

>  <TORSDO>
F 20

$$$$
=
 OpenBabel11042415453D

 59 63  0  0  1  0  0  0  0  0999 V2000
  192.5150  171.7800  142.6920 C   0  0  0  0  0  3  0  0  0  0  0  0
  191.4240  171.7630  141.9590 C   0  0  0  0  0  0  0  0  0  0  0  0
  191.7120  171.0830  140.6520 C   0  0  1  0  0  3  0  0  0  0  0  0
  193.5500  171.1390  141.9670 N   0  0  0  0  0  0  0  0  0  0  0  0
  193.1270  170.6940  140.7040 N   0  0  0  0  0  2  0  0  0  0  0  0
  195.4470  169.7180  142.4190 C   0  0  0  0  0  3  0  0  0  0  0  0
  194.8860  170.9350  142.4450 C   0  0  0  0  0  0  0  0  0  0  0  0
  195.6800  172.1040  142.9720 C   0  0  0  0  0  2  0  0  0  0  0  0
  197.1180  170.3650  144.1070 C   0  0  0  0  0  0  0  0  0  0  0  0
  196.4680  171.7270  144.2340 C   0  0  1  0  0  3  0  0  0  0  0  0
  197.8590  169.9560  144.9870 O   0  0  0  0  0  0  0  0  0  0  0  0
  196.8530  169.5070  142.9010 C   0  0  0  0  0  2  0  0  0  0  0  0
  197.4720  172.7470  144.4910 N   0  0  0  0  0  2  0  0  0  0  0  0
  197.0580  173.9400  143.7720 C   0  0  0  0  0  2  0  0  0  0  0  0
  195.8320  174.6210  145.9160 C   0  0  0  0  0  3  0  0  0  0  0  0
  194.3190  175.9510  145.1040 N   0  0  0  0  0  0  0  0  0  0  0  0
  193.2020  176.8820  145.0540 C   0  0  0  0  0  1  0  0  0  0  0  0
  194.7950  175.4310  146.2260 N   0  0  0  0  0  0  0  0  0  0  0  0
  195.9900  174.6410  144.5420 C   0  0  0  0  0  0  0  0  0  0  0  0
  195.0260  175.4980  144.0580 C   0  0  0  0  0  0  0  0  0  0  0  0
  194.7960  175.8750  142.6300 C   0  0  0  0  0  1  0  0  0  0  0  0
  188.7820  174.4000  142.7640 C   0  0  0  0  0  3  0  0  0  0  0  0
  189.1350  171.6200  142.5140 O   0  0  0  0  0  0  0  0  0  0  0  0
  190.8820  174.7600  142.2750 C   0  0  0  0  0  3  0  0  0  0  0  0
  188.9880  175.7660  142.7850 C   0  0  0  0  0  0  0  0  0  0  0  0
  190.1240  172.3800  142.3180 C   0  0  0  0  0  0  0  0  0  0  0  0
  190.3210  176.0080  142.4850 C   0  0  0  0  0  3  0  0  0  0  0  0
  189.9460  173.8030  142.4430 N   0  0  0  0  0  0  0  0  0  0  0  0
  188.0090  176.7720  143.1340 N   0  0  0  0  0  0  0  0  0  0  0  0
  185.9970  177.7740  142.4370 O   0  0  0  0  0  1  0  0  0  0  0  0
  188.0030  177.3070  144.4760 C   0  0  0  0  0  0  0  0  0  0  0  0
  187.5360  177.3760  140.7950 O   0  0  0  0  0  0  0  0  0  0  0  0
  189.0880  177.6750  144.9990 O   0  0  0  0  0  0  0  0  0  0  0  0
  187.1310  177.3180  142.1260 C   0  0  0  0  0  0  0  0  0  0  0  0
  186.7440  177.4070  145.2970 C   0  0  1  0  0  3  0  0  0  0  0  0
  186.8680  176.6070  146.5850 C   0  0  0  0  0  1  0  0  0  0  0  0
  186.4250  178.7410  145.5760 O   0  0  0  0  0  0  0  0  0  0  0  0
  185.1890  178.6920  146.2330 C   0  0  0  0  0  2  0  0  0  0  0  0
  184.0730  178.9720  145.2380 C   0  0  0  0  0  1  0  0  0  0  0  0
  191.0520  168.9080  141.4600 O   0  0  0  0  0  1  0  0  0  0  0  0
  190.8210  169.8560  140.4530 C   0  0  2  0  0  3  0  0  0  0  0  0
  191.0750  169.2520  139.0800 C   0  0  0  0  0  2  0  0  0  0  0  0
  189.9860  169.6620  138.1030 C   0  0  0  0  0  2  0  0  0  0  0  0
  190.6000  170.3550  136.8940 C   0  0  0  0  0  2  0  0  0  0  0  0
  190.9410  171.8190  137.1720 C   0  0  1  0  0  3  0  0  0  0  0  0
  192.6250  172.1930  135.0980 O   0  0  0  0  0  0  0  0  0  0  0  0
  193.5130  171.0200  137.0710 O   0  0  0  0  0  0  0  0  0  0  0  0
  192.6070  172.1290  136.6010 S   0  0  0  0  0  0  0  0  0  0  0  0
  193.1440  173.6410  137.2470 N   0  0  0  0  0  2  0  0  0  0  0  0
  194.5460  173.8030  136.8790 C   0  0  0  0  0  2  0  0  0  0  0  0
  195.1430  175.1260  134.9700 O   0  0  0  0  0  1  0  0  0  0  0  0
  193.5980  176.0870  136.5100 C   0  0  0  0  0  1  0  0  0  0  0  0
  194.8060  175.1920  136.3260 C   0  0  1  0  0  3  0  0  0  0  0  0
  190.0530  172.6550  136.4890 O   0  0  0  0  0  0  0  0  0  0  0  0
  188.3170  174.2760  139.1340 C   0  0  0  0  0  2  0  0  0  0  0  0
  189.8220  173.7380  137.3430 C   0  0  0  0  0  3  0  0  0  0  0  0
  187.6810  174.7910  137.8610 C   0  0  0  0  0  2  0  0  0  0  0  0
  189.3230  173.2460  138.6870 C   0  0  0  0  0  2  0  0  0  0  0  0
  188.7270  174.6180  136.7740 C   0  0  0  0  0  2  0  0  0  0  0  0
  2 26  1  0  0  0  0
  2  1  2  0  0  0  0
  3 41  1  1  0  0  0
  3  5  1  0  0  0  0
  3  2  1  0  0  0  0
  4  7  1  0  0  0  0
  4  1  1  0  0  0  0
  5  4  1  0  0  0  0
  6  7  2  0  0  0  0
  6 12  1  0  0  0  0
  7  8  1  0  0  0  0
  8 10  1  0  0  0  0
  9 10  1  0  0  0  0
  9 11  2  0  0  0  0
 10 13  1  6  0  0  0
 12  9  1  0  0  0  0
 14 13  1  0  0  0  0
 14 19  1  0  0  0  0
 15 18  2  0  0  0  0
 16 18  1  0  0  0  0
 17 16  1  0  0  0  0
 19 15  1  0  0  0  0
 20 19  2  0  0  0  0
 20 16  1  0  0  0  0
 21 20  1  0  0  0  0
 22 25  2  0  0  0  0
 24 28  1  0  0  0  0
 24 27  2  0  0  0  0
 25 29  1  0  0  0  0
 26 28  1  0  0  0  0
 26 23  2  0  0  0  0
 27 25  1  0  0  0  0
 28 22  1  0  0  0  0
 29 31  1  0  0  0  0
 31 33  2  0  0  0  0
 31 35  1  0  0  0  0
 32 34  2  0  0  0  0
 34 30  1  0  0  0  0
 34 29  1  0  0  0  0
 35 37  1  0  0  0  0
 35 36  1  1  0  0  0
 37 38  1  0  0  0  0
 39 38  1  0  0  0  0
 41 40  1  1  0  0  0
 42 41  1  0  0  0  0
 43 42  1  0  0  0  0
 44 43  1  0  0  0  0
 45 44  1  6  0  0  0
 46 48  2  0  0  0  0
 48 47  2  0  0  0  0
 48 45  1  0  0  0  0
 48 49  1  0  0  0  0
 50 49  1  0  0  0  0
 51 53  1  0  0  0  0
 53 52  1  6  0  0  0
 53 50  1  0  0  0  0
 54 45  1  0  0  0  0
 54 56  1  0  0  0  0
 56 58  1  0  0  0  0
 57 55  1  0  0  0  0
 58 55  1  0  0  0  0
 59 56  1  0  0  0  0
 59 57  1  0  0  0  0
M  END
>  <MODEL>
5

>  <REMARK>
 VINA RESULT:      -5.7      3.146      7.552
  Name = 
  20 active torsions:
  status: ('A' for Active; 'I' for Inactive)
    1  A    between atoms: O_1  and  C_7
    2  A    between atoms: O_1  and  C_29
    3  A    between atoms: N_4  and  C_5
    4  A    between atoms: N_4  and  C_38
    5  A    between atoms: C_5  and  C_46
    6  A    between atoms: C_6  and  N_48
    7  A    between atoms: C_6  and  C_52
    8  A    between atoms: C_7  and  C_39
    9  A    between atoms: C_10  and  C_15
   10  A    between atoms: C_10  and  O_17
   11  A    between atoms: C_10  and  S_51
   12  A    between atoms: N_11  and  C_22
   13  A    between atoms: C_14  and  O_17
   14  A    between atoms: C_15  and  C_24
   15  A    between atoms: C_18  and  N_42
   16  A    between atoms: C_24  and  C_31
   17  A    between atoms: C_31  and  C_54
   18  A    between atoms: C_33  and  C_34
   19  A    between atoms: C_36  and  C_54
   20  A    between atoms: N_48  and  S_51
                            x       y       z     vdW  Elec       q    Type
                         _______ _______ _______ _____ _____    ______ ____

>  <TORSDO>
F 20

$$$$
=
 OpenBabel11042415453D

 59 63  0  0  1  0  0  0  0  0999 V2000
  188.5730  175.0470  142.6230 C   0  0  0  0  0  3  0  0  0  0  0  0
  189.4400  174.1810  142.1480 C   0  0  0  0  0  0  0  0  0  0  0  0
  190.3700  173.7530  143.2470 C   0  0  1  0  0  3  0  0  0  0  0  0
  188.8430  175.2390  144.0010 N   0  0  0  0  0  0  0  0  0  0  0  0
  189.9380  174.4810  144.4470 N   0  0  0  0  0  2  0  0  0  0  0  0
  188.2490  176.0220  146.2050 C   0  0  0  0  0  3  0  0  0  0  0  0
  188.0930  176.0930  144.8760 C   0  0  0  0  0  0  0  0  0  0  0  0
  187.1260  177.0950  144.2970 C   0  0  0  0  0  2  0  0  0  0  0  0
  186.0830  177.1230  146.5980 C   0  0  0  0  0  0  0  0  0  0  0  0
  185.8220  177.1520  145.1060 C   0  0  1  0  0  3  0  0  0  0  0  0
  185.1570  177.2560  147.3840 O   0  0  0  0  0  0  0  0  0  0  0  0
  187.4790  176.9280  147.1220 C   0  0  0  0  0  2  0  0  0  0  0  0
  185.0870  178.3520  144.7410 N   0  0  0  0  0  2  0  0  0  0  0  0
  185.8590  179.0250  143.7110 C   0  0  0  0  0  2  0  0  0  0  0  0
  184.1870  178.3010  141.9100 C   0  0  0  0  0  3  0  0  0  0  0  0
  185.5420  177.7910  140.2910 N   0  0  0  0  0  0  0  0  0  0  0  0
  186.0050  177.3670  138.9790 C   0  0  0  0  0  1  0  0  0  0  0  0
  184.2640  177.8670  140.6320 N   0  0  0  0  0  0  0  0  0  0  0  0
  185.4780  178.4910  142.3720 C   0  0  0  0  0  0  0  0  0  0  0  0
  186.3110  178.1690  141.3240 C   0  0  0  0  0  0  0  0  0  0  0  0
  187.8050  178.2300  141.3130 C   0  0  0  0  0  1  0  0  0  0  0  0
  190.9350  173.3320  138.7390 C   0  0  0  0  0  3  0  0  0  0  0  0
  188.4990  173.3630  140.1460 O   0  0  0  0  0  0  0  0  0  0  0  0
  192.0090  174.0950  140.4830 C   0  0  0  0  0  3  0  0  0  0  0  0
  192.2690  173.4450  138.3940 C   0  0  0  0  0  0  0  0  0  0  0  0
  189.5490  173.7420  140.7360 C   0  0  0  0  0  0  0  0  0  0  0  0
  192.9600  173.9390  139.4910 C   0  0  0  0  0  3  0  0  0  0  0  0
  190.7970  173.7260  140.0190 N   0  0  0  0  0  0  0  0  0  0  0  0
  192.8390  173.1720  137.0930 N   0  0  0  0  0  0  0  0  0  0  0  0
  194.0340  174.1390  135.3120 O   0  0  0  0  0  0  0  0  0  0  0  0
  193.0060  171.7990  136.6760 C   0  0  0  0  0  0  0  0  0  0  0  0
  192.3820  175.4290  136.2230 O   0  0  0  0  0  1  0  0  0  0  0  0
  192.0510  170.9900  136.8190 O   0  0  0  0  0  0  0  0  0  0  0  0
  193.1260  174.2530  136.1790 C   0  0  0  0  0  0  0  0  0  0  0  0
  194.3010  171.2820  136.1080 C   0  0  1  0  0  3  0  0  0  0  0  0
  195.4490  171.4980  137.0820 C   0  0  0  0  0  1  0  0  0  0  0  0
  194.1990  169.9290  135.7610 O   0  0  0  0  0  0  0  0  0  0  0  0
  194.9990  169.2520  136.6900 C   0  0  0  0  0  2  0  0  0  0  0  0
  194.1810  168.1660  137.3700 C   0  0  0  0  0  1  0  0  0  0  0  0
  189.9650  171.9610  144.8090 O   0  0  0  0  0  1  0  0  0  0  0  0
  190.3030  172.2430  143.4780 C   0  0  2  0  0  3  0  0  0  0  0  0
  191.6370  171.6070  143.1180 C   0  0  0  0  0  2  0  0  0  0  0  0
  192.6610  171.8530  144.2140 C   0  0  0  0  0  2  0  0  0  0  0  0
  193.7330  172.8160  143.7210 C   0  0  0  0  0  2  0  0  0  0  0  0
  194.5490  173.4160  144.8670 C   0  0  1  0  0  3  0  0  0  0  0  0
  196.3420  171.8200  143.6380 O   0  0  0  0  0  0  0  0  0  0  0  0
  196.7670  172.3840  145.9960 O   0  0  0  0  0  0  0  0  0  0  0  0
  196.2510  172.9030  144.6780 S   0  0  0  0  0  0  0  0  0  0  0  0
  197.1900  174.2650  144.1730 N   0  0  0  0  0  2  0  0  0  0  0  0
  197.2020  174.2730  142.7150 C   0  0  0  0  0  2  0  0  0  0  0  0
  196.4050  175.8360  141.0800 O   0  0  0  0  0  1  0  0  0  0  0  0
  196.8830  176.6940  143.2520 C   0  0  0  0  0  1  0  0  0  0  0  0
  197.2580  175.6930  142.1800 C   0  0  1  0  0  3  0  0  0  0  0  0
  194.4760  174.8110  144.8260 O   0  0  0  0  0  0  0  0  0  0  0  0
  191.8450  177.0730  145.5970 C   0  0  0  0  0  2  0  0  0  0  0  0
  193.1300  175.1260  145.0340 C   0  0  0  0  0  3  0  0  0  0  0  0
  192.1660  176.3710  146.8990 C   0  0  0  0  0  2  0  0  0  0  0  0
  192.8550  176.5540  144.6060 C   0  0  0  0  0  2  0  0  0  0  0  0
  192.8060  175.0490  146.5120 C   0  0  0  0  0  2  0  0  0  0  0  0
  1  4  1  0  0  0  0
  2  1  2  0  0  0  0
  2  3  1  0  0  0  0
  3 41  1  1  0  0  0
  3  5  1  0  0  0  0
  4  5  1  0  0  0  0
  4  7  1  0  0  0  0
  6 12  1  0  0  0  0
  7  6  2  0  0  0  0
  8  7  1  0  0  0  0
  8 10  1  0  0  0  0
  9 12  1  0  0  0  0
  9 11  2  0  0  0  0
 10 13  1  1  0  0  0
 10  9  1  0  0  0  0
 14 13  1  0  0  0  0
 15 19  1  0  0  0  0
 16 18  1  0  0  0  0
 16 20  1  0  0  0  0
 17 16  1  0  0  0  0
 18 15  2  0  0  0  0
 19 14  1  0  0  0  0
 20 19  2  0  0  0  0
 21 20  1  0  0  0  0
 22 28  1  0  0  0  0
 23 26  2  0  0  0  0
 25 22  2  0  0  0  0
 25 27  1  0  0  0  0
 26  2  1  0  0  0  0
 27 24  2  0  0  0  0
 28 24  1  0  0  0  0
 28 26  1  0  0  0  0
 29 25  1  0  0  0  0
 30 34  2  0  0  0  0
 31 33  2  0  0  0  0
 31 29  1  0  0  0  0
 34 32  1  0  0  0  0
 34 29  1  0  0  0  0
 35 31  1  0  0  0  0
 35 36  1  1  0  0  0
 37 35  1  0  0  0  0
 37 38  1  0  0  0  0
 38 39  1  0  0  0  0
 41 40  1  1  0  0  0
 42 41  1  0  0  0  0
 42 43  1  0  0  0  0
 44 43  1  0  0  0  0
 45 44  1  6  0  0  0
 46 48  2  0  0  0  0
 48 45  1  0  0  0  0
 48 47  2  0  0  0  0
 49 48  1  0  0  0  0
 50 49  1  0  0  0  0
 51 53  1  0  0  0  0
 53 50  1  0  0  0  0
 53 52  1  1  0  0  0
 54 45  1  0  0  0  0
 54 56  1  0  0  0  0
 55 57  1  0  0  0  0
 56 59  1  0  0  0  0
 58 56  1  0  0  0  0
 58 55  1  0  0  0  0
 59 57  1  0  0  0  0
M  END
>  <MODEL>
6

>  <REMARK>
 VINA RESULT:      -5.7      2.511      9.543
  Name = 
  20 active torsions:
  status: ('A' for Active; 'I' for Inactive)
    1  A    between atoms: O_1  and  C_7
    2  A    between atoms: O_1  and  C_29
    3  A    between atoms: N_4  and  C_5
    4  A    between atoms: N_4  and  C_38
    5  A    between atoms: C_5  and  C_46
    6  A    between atoms: C_6  and  N_48
    7  A    between atoms: C_6  and  C_52
    8  A    between atoms: C_7  and  C_39
    9  A    between atoms: C_10  and  C_15
   10  A    between atoms: C_10  and  O_17
   11  A    between atoms: C_10  and  S_51
   12  A    between atoms: N_11  and  C_22
   13  A    between atoms: C_14  and  O_17
   14  A    between atoms: C_15  and  C_24
   15  A    between atoms: C_18  and  N_42
   16  A    between atoms: C_24  and  C_31
   17  A    between atoms: C_31  and  C_54
   18  A    between atoms: C_33  and  C_34
   19  A    between atoms: C_36  and  C_54
   20  A    between atoms: N_48  and  S_51
                            x       y       z     vdW  Elec       q    Type
                         _______ _______ _______ _____ _____    ______ ____

>  <TORSDO>
F 20

$$$$
=
 OpenBabel11042415453D

 59 63  0  0  1  0  0  0  0  0999 V2000
  189.2850  175.7960  144.6570 C   0  0  0  0  0  3  0  0  0  0  0  0
  189.7160  174.8350  143.8720 C   0  0  0  0  0  0  0  0  0  0  0  0
  188.5900  174.3640  142.9970 C   0  0  1  0  0  3  0  0  0  0  0  0
  187.9170  176.0290  144.3700 N   0  0  0  0  0  0  0  0  0  0  0  0
  187.4250  175.1790  143.3660 N   0  0  0  0  0  2  0  0  0  0  0  0
  187.2260  177.2830  146.3130 C   0  0  0  0  0  3  0  0  0  0  0  0
  187.1000  177.0230  145.0040 C   0  0  0  0  0  0  0  0  0  0  0  0
  186.0970  177.7990  144.1890 C   0  0  0  0  0  2  0  0  0  0  0  0
  184.9960  178.3190  146.4030 C   0  0  0  0  0  0  0  0  0  0  0  0
  184.7720  177.9730  144.9450 C   0  0  1  0  0  3  0  0  0  0  0  0
  184.0450  178.5840  147.1220 O   0  0  0  0  0  0  0  0  0  0  0  0
  186.3860  178.3370  146.9740 C   0  0  0  0  0  2  0  0  0  0  0  0
  183.9840  179.0060  144.2930 N   0  0  0  0  0  2  0  0  0  0  0  0
  183.9140  178.6610  142.8840 C   0  0  0  0  0  2  0  0  0  0  0  0
  181.4450  179.3090  143.1030 C   0  0  0  0  0  3  0  0  0  0  0  0
  180.6720  178.5760  141.2090 N   0  0  0  0  0  0  0  0  0  0  0  0
  179.7340  178.2930  140.1340 C   0  0  0  0  0  1  0  0  0  0  0  0
  180.3410  179.2020  142.3300 N   0  0  0  0  0  0  0  0  0  0  0  0
  182.4960  178.7140  142.4260 C   0  0  0  0  0  0  0  0  0  0  0  0
  181.9780  178.2690  141.2300 C   0  0  0  0  0  0  0  0  0  0  0  0
  182.7200  177.5750  140.1340 C   0  0  0  0  0  1  0  0  0  0  0  0
  193.4720  174.4070  143.3370 C   0  0  0  0  0  3  0  0  0  0  0  0
  191.2210  173.0980  144.4040 O   0  0  0  0  0  0  0  0  0  0  0  0
  192.2560  176.1250  142.7490 C   0  0  0  0  0  3  0  0  0  0  0  0
  194.3110  175.3290  142.7400 C   0  0  0  0  0  0  0  0  0  0  0  0
  191.0740  174.2410  143.8860 C   0  0  0  0  0  0  0  0  0  0  0  0
  193.5480  176.4210  142.3530 C   0  0  0  0  0  3  0  0  0  0  0  0
  192.2240  174.9130  143.3400 N   0  0  0  0  0  0  0  0  0  0  0  0
  195.7250  175.1590  142.4900 N   0  0  0  0  0  0  0  0  0  0  0  0
  197.8580  175.3880  143.4570 O   0  0  0  0  0  0  0  0  0  0  0  0
  196.1450  174.3760  141.3500 C   0  0  0  0  0  0  0  0  0  0  0  0
  196.3830  177.0820  143.8790 O   0  0  0  0  0  1  0  0  0  0  0  0
  195.6100  174.5820  140.2280 O   0  0  0  0  0  0  0  0  0  0  0  0
  196.6990  175.8580  143.2940 C   0  0  0  0  0  0  0  0  0  0  0  0
  197.1780  173.2860  141.4590 C   0  0  1  0  0  3  0  0  0  0  0  0
  196.7010  172.1730  142.3800 C   0  0  0  0  0  1  0  0  0  0  0  0
  197.5110  172.7740  140.2000 O   0  0  0  0  0  0  0  0  0  0  0  0
  197.0640  171.4470  140.2140 C   0  0  0  0  0  2  0  0  0  0  0  0
  197.9350  170.6060  139.2950 C   0  0  0  0  0  1  0  0  0  0  0  0
  188.2010  175.6110  140.9690 O   0  0  0  0  0  1  0  0  0  0  0  0
  188.9240  174.5400  141.5150 C   0  0  2  0  0  3  0  0  0  0  0  0
  188.6240  173.2520  140.7620 C   0  0  0  0  0  2  0  0  0  0  0  0
  188.7500  173.4660  139.2630 C   0  0  0  0  0  2  0  0  0  0  0  0
  190.2160  173.4300  138.8510 C   0  0  0  0  0  2  0  0  0  0  0  0
  190.4760  172.4460  137.7100 C   0  0  1  0  0  3  0  0  0  0  0  0
  189.4980  173.8350  135.6140 O   0  0  0  0  0  0  0  0  0  0  0  0
  191.5410  172.5150  135.2350 O   0  0  0  0  0  0  0  0  0  0  0  0
  190.7980  173.3820  136.2200 S   0  0  0  0  0  0  0  0  0  0  0  0
  191.7560  174.7630  136.6270 N   0  0  0  0  0  2  0  0  0  0  0  0
  193.1370  174.3150  136.7680 C   0  0  0  0  0  2  0  0  0  0  0  0
  195.1630  174.9860  135.6750 O   0  0  0  0  0  1  0  0  0  0  0  0
  193.4090  176.5960  135.7810 C   0  0  0  0  0  1  0  0  0  0  0  0
  194.1070  175.4440  136.4710 C   0  0  1  0  0  3  0  0  0  0  0  0
  191.5860  171.6510  138.0080 O   0  0  0  0  0  0  0  0  0  0  0  0
  191.5340  168.1950  138.8390 C   0  0  0  0  0  2  0  0  0  0  0  0
  191.0840  170.5490  138.7070 C   0  0  0  0  0  3  0  0  0  0  0  0
  190.4510  168.3740  137.7960 C   0  0  0  0  0  2  0  0  0  0  0  0
  192.1900  169.5460  138.9660 C   0  0  0  0  0  2  0  0  0  0  0  0
  190.0450  169.8360  137.8650 C   0  0  0  0  0  2  0  0  0  0  0  0
  2 26  1  0  0  0  0
  2  1  2  0  0  0  0
  3 41  1  6  0  0  0
  3  5  1  0  0  0  0
  3  2  1  0  0  0  0
  4  1  1  0  0  0  0
  4  7  1  0  0  0  0
  5  4  1  0  0  0  0
  6 12  1  0  0  0  0
  7  6  2  0  0  0  0
  8 10  1  0  0  0  0
  8  7  1  0  0  0  0
  9 12  1  0  0  0  0
  9 11  2  0  0  0  0
 10 13  1  6  0  0  0
 10  9  1  0  0  0  0
 14 13  1  0  0  0  0
 16 20  1  0  0  0  0
 16 18  1  0  0  0  0
 17 16  1  0  0  0  0
 18 15  2  0  0  0  0
 19 14  1  0  0  0  0
 19 15  1  0  0  0  0
 20 19  2  0  0  0  0
 21 20  1  0  0  0  0
 22 28  1  0  0  0  0
 24 28  1  0  0  0  0
 25 22  2  0  0  0  0
 26 23  2  0  0  0  0
 27 25  1  0  0  0  0
 27 24  2  0  0  0  0
 28 26  1  0  0  0  0
 29 25  1  0  0  0  0
 29 34  1  0  0  0  0
 31 35  1  0  0  0  0
 31 29  1  0  0  0  0
 33 31  2  0  0  0  0
 34 30  2  0  0  0  0
 34 32  1  0  0  0  0
 35 36  1  1  0  0  0
 37 38  1  0  0  0  0
 37 35  1  0  0  0  0
 39 38  1  0  0  0  0
 41 40  1  6  0  0  0
 42 41  1  0  0  0  0
 43 42  1  0  0  0  0
 44 43  1  0  0  0  0
 45 54  1  0  0  0  0
 45 44  1  1  0  0  0
 46 48  2  0  0  0  0
 47 48  2  0  0  0  0
 48 49  1  0  0  0  0
 48 45  1  0  0  0  0
 49 50  1  0  0  0  0
 51 53  1  0  0  0  0
 53 52  1  6  0  0  0
 53 50  1  0  0  0  0
 54 56  1  0  0  0  0
 55 58  1  0  0  0  0
 56 58  1  0  0  0  0
 57 59  1  0  0  0  0
 57 55  1  0  0  0  0
 59 56  1  0  0  0  0
M  END
>  <MODEL>
7

>  <REMARK>
 VINA RESULT:      -5.6      3.376     11.265
  Name = 
  20 active torsions:
  status: ('A' for Active; 'I' for Inactive)
    1  A    between atoms: O_1  and  C_7
    2  A    between atoms: O_1  and  C_29
    3  A    between atoms: N_4  and  C_5
    4  A    between atoms: N_4  and  C_38
    5  A    between atoms: C_5  and  C_46
    6  A    between atoms: C_6  and  N_48
    7  A    between atoms: C_6  and  C_52
    8  A    between atoms: C_7  and  C_39
    9  A    between atoms: C_10  and  C_15
   10  A    between atoms: C_10  and  O_17
   11  A    between atoms: C_10  and  S_51
   12  A    between atoms: N_11  and  C_22
   13  A    between atoms: C_14  and  O_17
   14  A    between atoms: C_15  and  C_24
   15  A    between atoms: C_18  and  N_42
   16  A    between atoms: C_24  and  C_31
   17  A    between atoms: C_31  and  C_54
   18  A    between atoms: C_33  and  C_34
   19  A    between atoms: C_36  and  C_54
   20  A    between atoms: N_48  and  S_51
                            x       y       z     vdW  Elec       q    Type
                         _______ _______ _______ _____ _____    ______ ____

>  <TORSDO>
F 20

$$$$
=
 OpenBabel11042415453D

 59 63  0  0  1  0  0  0  0  0999 V2000
  188.5140  175.9030  143.8530 C   0  0  0  0  0  3  0  0  0  0  0  0
  189.0430  174.7730  143.4410 C   0  0  0  0  0  0  0  0  0  0  0  0
  188.2070  174.2080  142.3290 C   0  0  1  0  0  3  0  0  0  0  0  0
  187.3550  176.1620  143.0800 N   0  0  0  0  0  0  0  0  0  0  0  0
  187.1050  175.1580  142.1310 N   0  0  0  0  0  2  0  0  0  0  0  0
  186.7050  178.1900  144.2150 C   0  0  0  0  0  3  0  0  0  0  0  0
  186.5170  177.3180  143.2140 C   0  0  0  0  0  0  0  0  0  0  0  0
  185.4190  177.5700  142.2110 C   0  0  0  0  0  2  0  0  0  0  0  0
  184.4230  179.0810  143.9740 C   0  0  0  0  0  0  0  0  0  0  0  0
  184.1340  178.0590  142.8940 C   0  0  1  0  0  3  0  0  0  0  0  0
  183.5030  179.6400  144.5490 O   0  0  0  0  0  0  0  0  0  0  0  0
  185.8420  179.4110  144.3470 C   0  0  0  0  0  2  0  0  0  0  0  0
  183.2450  178.6190  141.8890 N   0  0  0  0  0  2  0  0  0  0  0  0
  182.2120  177.6290  141.6370 C   0  0  0  0  0  2  0  0  0  0  0  0
  180.4390  178.4090  139.9590 C   0  0  0  0  0  3  0  0  0  0  0  0
  179.0060  179.3400  141.3000 N   0  0  0  0  0  0  0  0  0  0  0  0
  177.8050  180.0230  141.7570 C   0  0  0  0  0  1  0  0  0  0  0  0
  179.2490  179.0470  140.0310 N   0  0  0  0  0  0  0  0  0  0  0  0
  180.9480  178.3160  141.2430 C   0  0  0  0  0  0  0  0  0  0  0  0
  180.0160  178.9050  142.0680 C   0  0  0  0  0  0  0  0  0  0  0  0
  180.0920  179.0400  143.5550 C   0  0  0  0  0  1  0  0  0  0  0  0
  192.6830  173.8670  144.1500 C   0  0  0  0  0  3  0  0  0  0  0  0
  190.0500  173.2030  144.8850 O   0  0  0  0  0  0  0  0  0  0  0  0
  191.9630  175.3760  142.7440 C   0  0  0  0  0  3  0  0  0  0  0  0
  193.7890  174.4520  143.5630 C   0  0  0  0  0  0  0  0  0  0  0  0
  190.2330  174.1060  144.0210 C   0  0  0  0  0  0  0  0  0  0  0  0
  193.3440  175.4070  142.6590 C   0  0  0  0  0  3  0  0  0  0  0  0
  191.5800  174.4480  143.6450 N   0  0  0  0  0  0  0  0  0  0  0  0
  195.1690  174.0860  143.7880 N   0  0  0  0  0  0  0  0  0  0  0  0
  197.0890  174.6240  145.0370 O   0  0  0  0  0  1  0  0  0  0  0  0
  195.6440  172.8110  143.2990 C   0  0  0  0  0  0  0  0  0  0  0  0
  195.8970  176.3970  144.2250 O   0  0  0  0  0  0  0  0  0  0  0  0
  195.3750  172.4640  142.1180 O   0  0  0  0  0  0  0  0  0  0  0  0
  196.0880  175.0260  144.3850 C   0  0  0  0  0  0  0  0  0  0  0  0
  196.4220  171.8560  144.1640 C   0  0  1  0  0  3  0  0  0  0  0  0
  195.6010  171.4190  145.3690 C   0  0  0  0  0  1  0  0  0  0  0  0
  196.8510  170.7420  143.4330 O   0  0  0  0  0  0  0  0  0  0  0  0
  196.2240  169.6450  144.0350 C   0  0  0  0  0  2  0  0  0  0  0  0
  195.8220  168.6400  142.9670 C   0  0  0  0  0  1  0  0  0  0  0  0
  188.3150  174.5610  139.9450 O   0  0  0  0  0  1  0  0  0  0  0  0
  189.0210  174.0510  141.0440 C   0  0  2  0  0  3  0  0  0  0  0  0
  189.3630  172.5840  140.8260 C   0  0  0  0  0  2  0  0  0  0  0  0
  190.8170  172.4280  140.4130 C   0  0  0  0  0  2  0  0  0  0  0  0
  191.2660  173.6410  139.6110 C   0  0  0  0  0  2  0  0  0  0  0  0
  192.0380  173.2520  138.3490 C   0  0  1  0  0  3  0  0  0  0  0  0
  191.6110  173.5860  135.7070 O   0  0  0  0  0  0  0  0  0  0  0  0
  189.7760  174.1960  137.2290 O   0  0  0  0  0  0  0  0  0  0  0  0
  190.8930  173.2160  136.9760 S   0  0  0  0  0  0  0  0  0  0  0  0
  190.2520  171.6170  136.8290 N   0  0  0  0  0  2  0  0  0  0  0  0
  191.3810  170.6980  136.7310 C   0  0  0  0  0  2  0  0  0  0  0  0
  190.0460  169.6760  138.4400 O   0  0  0  0  0  1  0  0  0  0  0  0
  191.2240  168.2150  136.9720 C   0  0  0  0  0  1  0  0  0  0  0  0
  191.2260  169.5420  137.7020 C   0  0  1  0  0  3  0  0  0  0  0  0
  193.0410  174.1910  138.0940 O   0  0  0  0  0  0  0  0  0  0  0  0
  196.1380  174.9210  139.6780 C   0  0  0  0  0  2  0  0  0  0  0  0
  193.9980  174.0040  139.0950 C   0  0  0  0  0  3  0  0  0  0  0  0
  196.4050  173.7070  138.8130 C   0  0  0  0  0  2  0  0  0  0  0  0
  194.7110  175.3080  139.3890 C   0  0  0  0  0  2  0  0  0  0  0  0
  195.0590  173.0320  138.6170 C   0  0  0  0  0  2  0  0  0  0  0  0
  2  1  2  0  0  0  0
  2 26  1  0  0  0  0
  3 41  1  6  0  0  0
  3  2  1  0  0  0  0
  4  7  1  0  0  0  0
  4  1  1  0  0  0  0
  5  3  1  0  0  0  0
  5  4  1  0  0  0  0
  6 12  1  0  0  0  0
  7  6  2  0  0  0  0
  8 10  1  0  0  0  0
  8  7  1  0  0  0  0
  9 12  1  0  0  0  0
  9 11  2  0  0  0  0
 10 13  1  6  0  0  0
 10  9  1  0  0  0  0
 14 13  1  0  0  0  0
 15 18  2  0  0  0  0
 15 19  1  0  0  0  0
 16 17  1  0  0  0  0
 16 20  1  0  0  0  0
 18 16  1  0  0  0  0
 19 14  1  0  0  0  0
 19 20  2  0  0  0  0
 20 21  1  0  0  0  0
 24 28  1  0  0  0  0
 25 29  1  0  0  0  0
 25 22  2  0  0  0  0
 26 23  2  0  0  0  0
 27 24  2  0  0  0  0
 27 25  1  0  0  0  0
 28 26  1  0  0  0  0
 28 22  1  0  0  0  0
 29 34  1  0  0  0  0
 31 29  1  0  0  0  0
 31 35  1  0  0  0  0
 32 34  2  0  0  0  0
 33 31  2  0  0  0  0
 34 30  1  0  0  0  0
 35 36  1  1  0  0  0
 37 38  1  0  0  0  0
 37 35  1  0  0  0  0
 39 38  1  0  0  0  0
 41 40  1  6  0  0  0
 42 41  1  0  0  0  0
 43 42  1  0  0  0  0
 44 43  1  0  0  0  0
 45 44  1  1  0  0  0
 46 48  2  0  0  0  0
 48 47  2  0  0  0  0
 48 45  1  0  0  0  0
 49 48  1  0  0  0  0
 50 49  1  0  0  0  0
 50 53  1  0  0  0  0
 53 52  1  6  0  0  0
 53 51  1  0  0  0  0
 54 45  1  0  0  0  0
 54 56  1  0  0  0  0
 56 58  1  0  0  0  0
 57 55  1  0  0  0  0
 58 55  1  0  0  0  0
 59 57  1  0  0  0  0
 59 56  1  0  0  0  0
M  END
>  <MODEL>
8

>  <REMARK>
 VINA RESULT:      -5.4      3.541     10.864
  Name = 
  20 active torsions:
  status: ('A' for Active; 'I' for Inactive)
    1  A    between atoms: O_1  and  C_7
    2  A    between atoms: O_1  and  C_29
    3  A    between atoms: N_4  and  C_5
    4  A    between atoms: N_4  and  C_38
    5  A    between atoms: C_5  and  C_46
    6  A    between atoms: C_6  and  N_48
    7  A    between atoms: C_6  and  C_52
    8  A    between atoms: C_7  and  C_39
    9  A    between atoms: C_10  and  C_15
   10  A    between atoms: C_10  and  O_17
   11  A    between atoms: C_10  and  S_51
   12  A    between atoms: N_11  and  C_22
   13  A    between atoms: C_14  and  O_17
   14  A    between atoms: C_15  and  C_24
   15  A    between atoms: C_18  and  N_42
   16  A    between atoms: C_24  and  C_31
   17  A    between atoms: C_31  and  C_54
   18  A    between atoms: C_33  and  C_34
   19  A    between atoms: C_36  and  C_54
   20  A    between atoms: N_48  and  S_51
                            x       y       z     vdW  Elec       q    Type
                         _______ _______ _______ _____ _____    ______ ____

>  <TORSDO>
F 20

$$$$
=
 OpenBabel11042415453D

 59 63  0  0  1  0  0  0  0  0999 V2000
  188.9250  175.1380  142.8640 C   0  0  0  0  0  3  0  0  0  0  0  0
  189.5920  174.1070  142.3970 C   0  0  0  0  0  0  0  0  0  0  0  0
  190.4910  173.5650  143.4710 C   0  0  1  0  0  3  0  0  0  0  0  0
  189.3050  175.3400  144.2150 N   0  0  0  0  0  0  0  0  0  0  0  0
  190.2670  174.4140  144.6480 N   0  0  0  0  0  2  0  0  0  0  0  0
  189.1130  176.4040  146.3720 C   0  0  0  0  0  3  0  0  0  0  0  0
  188.7740  176.3570  145.0750 C   0  0  0  0  0  0  0  0  0  0  0  0
  187.8350  177.3960  144.5180 C   0  0  0  0  0  2  0  0  0  0  0  0
  187.1410  177.7740  146.9170 C   0  0  0  0  0  0  0  0  0  0  0  0
  186.6730  177.6790  145.4800 C   0  0  1  0  0  3  0  0  0  0  0  0
  186.3560  178.0890  147.7980 O   0  0  0  0  0  0  0  0  0  0  0  0
  188.5730  177.4790  147.2710 C   0  0  0  0  0  2  0  0  0  0  0  0
  186.0120  178.9110  145.0790 N   0  0  0  0  0  2  0  0  0  0  0  0
  186.1140  178.9950  143.6320 C   0  0  0  0  0  2  0  0  0  0  0  0
  183.5510  178.9960  143.6190 C   0  0  0  0  0  3  0  0  0  0  0  0
  183.1640  178.2890  141.6010 N   0  0  0  0  0  0  0  0  0  0  0  0
  182.4310  177.8940  140.4090 C   0  0  0  0  0  1  0  0  0  0  0  0
  182.5850  178.7010  142.7200 N   0  0  0  0  0  0  0  0  0  0  0  0
  184.7750  178.7460  143.0230 C   0  0  0  0  0  0  0  0  0  0  0  0
  184.4980  178.3090  141.7460 C   0  0  0  0  0  0  0  0  0  0  0  0
  185.4880  177.9290  140.6930 C   0  0  0  0  0  1  0  0  0  0  0  0
  190.6850  173.0690  138.8880 C   0  0  0  0  0  3  0  0  0  0  0  0
  188.4280  173.1840  140.5640 O   0  0  0  0  0  0  0  0  0  0  0  0
  191.9510  173.9230  140.4520 C   0  0  0  0  0  3  0  0  0  0  0  0
  191.9690  173.1590  138.3850 C   0  0  0  0  0  0  0  0  0  0  0  0
  189.5380  173.5910  141.0070 C   0  0  0  0  0  0  0  0  0  0  0  0
  192.7810  173.7100  139.3660 C   0  0  0  0  0  3  0  0  0  0  0  0
  190.6950  173.5320  140.1520 N   0  0  0  0  0  0  0  0  0  0  0  0
  192.3850  172.8140  137.0440 N   0  0  0  0  0  0  0  0  0  0  0  0
  192.0610  173.3310  134.7710 O   0  0  0  0  0  0  0  0  0  0  0  0
  193.5840  172.0270  136.8630 C   0  0  0  0  0  0  0  0  0  0  0  0
  190.1720  173.2450  136.0550 O   0  0  0  0  0  1  0  0  0  0  0  0
  193.7540  170.9930  137.5630 O   0  0  0  0  0  0  0  0  0  0  0  0
  191.5540  173.1480  135.9110 C   0  0  0  0  0  0  0  0  0  0  0  0
  194.6650  172.4190  135.8910 C   0  0  1  0  0  3  0  0  0  0  0  0
  195.1380  173.8420  136.1460 C   0  0  0  0  0  1  0  0  0  0  0  0
  195.7430  171.5270  135.9450 O   0  0  0  0  0  0  0  0  0  0  0  0
  196.7520  172.2120  136.6310 C   0  0  0  0  0  2  0  0  0  0  0  0
  197.4160  171.2750  137.6280 C   0  0  0  0  0  1  0  0  0  0  0  0
  189.8150  171.9590  145.1390 O   0  0  0  0  0  1  0  0  0  0  0  0
  190.1630  172.1050  143.7880 C   0  0  2  0  0  3  0  0  0  0  0  0
  191.3550  171.2230  143.4440 C   0  0  0  0  0  2  0  0  0  0  0  0
  192.6200  171.7530  144.0970 C   0  0  0  0  0  2  0  0  0  0  0  0
  193.7240  171.8970  143.0580 C   0  0  0  0  0  2  0  0  0  0  0  0
  195.0890  171.4630  143.5950 C   0  0  1  0  0  3  0  0  0  0  0  0
  195.6230  169.4480  141.8840 O   0  0  0  0  0  0  0  0  0  0  0  0
  193.9750  169.0100  143.6580 O   0  0  0  0  0  0  0  0  0  0  0  0
  195.2700  169.7050  143.3230 S   0  0  0  0  0  0  0  0  0  0  0  0
  196.5360  169.1120  144.3400 N   0  0  0  0  0  2  0  0  0  0  0  0
  195.9190  168.2990  145.3820 C   0  0  0  0  0  2  0  0  0  0  0  0
  194.4930  168.7660  147.2530 O   0  0  0  0  0  1  0  0  0  0  0  0
  196.8430  168.8930  147.6280 C   0  0  0  0  0  1  0  0  0  0  0  0
  195.7080  169.1080  146.6490 C   0  0  1  0  0  3  0  0  0  0  0  0
  196.1070  172.1450  142.9210 O   0  0  0  0  0  0  0  0  0  0  0  0
  196.4740  173.3940  146.2290 C   0  0  0  0  0  2  0  0  0  0  0  0
  196.7380  172.9320  143.8880 C   0  0  0  0  0  3  0  0  0  0  0  0
  195.6880  174.4520  145.4840 C   0  0  0  0  0  2  0  0  0  0  0  0
  196.6490  172.2650  145.2460 C   0  0  0  0  0  2  0  0  0  0  0  0
  196.0230  174.2630  144.0150 C   0  0  0  0  0  2  0  0  0  0  0  0
  1  4  1  0  0  0  0
  2  1  2  0  0  0  0
  2  3  1  0  0  0  0
  3 41  1  1  0  0  0
  3  5  1  0  0  0  0
  4  5  1  0  0  0  0
  4  7  1  0  0  0  0
  6 12  1  0  0  0  0
  7  6  2  0  0  0  0
  8  7  1  0  0  0  0
  8 10  1  0  0  0  0
  9 12  1  0  0  0  0
  9 11  2  0  0  0  0
 10 13  1  6  0  0  0
 10  9  1  0  0  0  0
 14 13  1  0  0  0  0
 16 20  1  0  0  0  0
 16 18  1  0  0  0  0
 17 16  1  0  0  0  0
 18 15  2  0  0  0  0
 19 15  1  0  0  0  0
 19 14  1  0  0  0  0
 20 19  2  0  0  0  0
 21 20  1  0  0  0  0
 22 28  1  0  0  0  0
 23 26  2  0  0  0  0
 25 22  2  0  0  0  0
 25 27  1  0  0  0  0
 26  2  1  0  0  0  0
 27 24  2  0  0  0  0
 28 24  1  0  0  0  0
 28 26  1  0  0  0  0
 29 25  1  0  0  0  0
 30 34  2  0  0  0  0
 31 29  1  0  0  0  0
 31 33  2  0  0  0  0
 34 32  1  0  0  0  0
 34 29  1  0  0  0  0
 35 37  1  0  0  0  0
 35 36  1  1  0  0  0
 35 31  1  0  0  0  0
 37 38  1  0  0  0  0
 38 39  1  0  0  0  0
 41 40  1  1  0  0  0
 42 41  1  0  0  0  0
 42 43  1  0  0  0  0
 44 43  1  0  0  0  0
 45 44  1  6  0  0  0
 46 48  2  0  0  0  0
 48 45  1  0  0  0  0
 48 47  2  0  0  0  0
 48 49  1  0  0  0  0
 49 50  1  0  0  0  0
 50 53  1  0  0  0  0
 53 51  1  0  0  0  0
 53 52  1  1  0  0  0
 54 45  1  0  0  0  0
 54 56  1  0  0  0  0
 56 59  1  0  0  0  0
 56 58  1  0  0  0  0
 57 55  1  0  0  0  0
 58 55  1  0  0  0  0
 59 57  1  0  0  0  0
M  END
>  <MODEL>
9

>  <REMARK>
 VINA RESULT:      -5.4      3.334     10.036
  Name = 
  20 active torsions:
  status: ('A' for Active; 'I' for Inactive)
    1  A    between atoms: O_1  and  C_7
    2  A    between atoms: O_1  and  C_29
    3  A    between atoms: N_4  and  C_5
    4  A    between atoms: N_4  and  C_38
    5  A    between atoms: C_5  and  C_46
    6  A    between atoms: C_6  and  N_48
    7  A    between atoms: C_6  and  C_52
    8  A    between atoms: C_7  and  C_39
    9  A    between atoms: C_10  and  C_15
   10  A    between atoms: C_10  and  O_17
   11  A    between atoms: C_10  and  S_51
   12  A    between atoms: N_11  and  C_22
   13  A    between atoms: C_14  and  O_17
   14  A    between atoms: C_15  and  C_24
   15  A    between atoms: C_18  and  N_42
   16  A    between atoms: C_24  and  C_31
   17  A    between atoms: C_31  and  C_54
   18  A    between atoms: C_33  and  C_34
   19  A    between atoms: C_36  and  C_54
   20  A    between atoms: N_48  and  S_51
                            x       y       z     vdW  Elec       q    Type
                         _______ _______ _______ _____ _____    ______ ____

>  <TORSDO>
F 20

$$$$
