=
 OpenBabel11042414063D

 49 55  0  0  1  0  0  0  0  0999 V2000
  190.5390  178.5640  143.3100 N   0  0  0  0  0  0  0  0  0  0  0  0
  191.6990  178.4300  143.8730 C   0  0  0  0  0  3  0  0  0  0  0  0
  193.0670  172.4050  142.2360 C   0  0  0  0  0  1  0  0  0  0  0  0
  191.2450  173.8580  143.1790 C   0  0  0  0  0  0  0  0  0  0  0  0
  190.7410  176.3000  143.8570 C   0  0  0  0  0  0  0  0  0  0  0  0
  189.8230  177.2880  143.2070 C   0  0  1  0  0  3  0  0  0  0  0  0
  193.0420  176.5610  144.6920 N   0  0  0  0  0  0  0  0  0  0  0  0
  190.8800  175.0690  143.4690 C   0  0  0  0  0  0  0  0  0  0  0  0
  192.6690  173.5740  143.0340 N   0  0  0  0  0  0  0  0  0  0  0  0
  193.2700  175.1410  144.9990 C   0  0  0  0  0  2  0  0  0  0  0  0
  191.9180  177.0500  144.2440 C   0  0  0  0  0  0  0  0  0  0  0  0
  193.7490  174.3070  143.7690 C   0  0  2  0  0  3  0  0  0  0  0  0
  186.0800  177.3830  145.3170 C   0  0  0  0  0  0  0  0  0  0  0  0
  187.2650  177.0530  141.4340 S   0  0  0  0  0  1  0  0  0  0  0  0
  188.4560  177.4420  145.3200 C   0  0  0  0  0  3  0  0  0  0  0  0
  186.0720  177.2420  143.9210 C   0  0  0  0  0  0  0  0  0  0  0  0
  187.2840  177.2310  143.2200 C   0  0  0  0  0  0  0  0  0  0  0  0
  184.9010  177.0910  143.2520 F   0  0  0  0  0  0  0  0  0  0  0  0
  188.4980  177.3470  143.9230 C   0  0  0  0  0  0  0  0  0  0  0  0
  187.2680  177.4590  145.9750 N   0  0  0  0  0  0  0  0  0  0  0  0
  184.8880  178.2910  147.2840 C   0  0  0  0  0  2  0  0  0  0  0  0
  184.8030  177.3290  146.1110 C   0  0  0  0  0  3  0  0  0  0  0  0
  184.0800  178.6660  146.0670 C   0  0  0  0  0  2  0  0  0  0  0  0
  195.1550  173.9640  140.8110 C   0  0  0  0  0  0  0  0  0  0  0  0
  194.6910  175.0220  142.8690 N   0  0  0  0  0  0  0  0  0  0  0  0
  196.8790  173.6390  139.6210 N   0  0  0  0  0  0  0  0  0  0  0  0
  194.2150  174.8840  141.4740 C   0  0  0  0  0  2  0  0  0  0  0  0
  195.5960  173.9820  139.5390 N   0  0  0  0  0  0  0  0  0  0  0  0
  196.1680  173.6660  141.6160 C   0  0  0  0  0  0  0  0  0  0  0  0
  197.2860  173.5060  140.8790 N   0  0  0  0  0  0  0  0  0  0  0  0
  196.0240  174.3630  142.9040 C   0  0  0  0  0  2  0  0  0  0  0  0
  197.7120  173.3990  138.4430 C   0  0  0  0  0  2  0  0  0  0  0  0
  197.9070  174.6490  137.5780 C   0  0  0  0  0  2  0  0  0  0  0  0
  196.8660  175.9040  136.0690 C   0  0  0  0  0  1  0  0  0  0  0  0
  197.1160  174.5820  136.4280 O   0  0  0  0  0  0  0  0  0  0  0  0
  190.3950  172.0480  144.4710 O   0  0  0  0  0  0  0  0  0  0  0  0
  190.2890  172.7630  143.4350 C   0  0  0  0  0  0  0  0  0  0  0  0
  189.2640  172.5200  142.5170 O   0  0  0  0  0  0  0  0  0  0  0  0
  189.7430  172.7020  138.3410 C   0  0  0  0  0  0  0  0  0  0  0  0
  188.8910  173.6370  140.4150 C   0  0  0  0  0  3  0  0  0  0  0  0
  189.0380  173.7030  139.0260 C   0  0  0  0  0  3  0  0  0  0  0  0
  190.1060  171.5410  140.4290 C   0  0  0  0  0  3  0  0  0  0  0  0
  189.4390  172.5640  141.1300 C   0  0  0  0  0  0  0  0  0  0  0  0
  190.2620  171.6140  139.0460 C   0  0  0  0  0  3  0  0  0  0  0  0
  189.9720  172.7880  136.8850 C   0  0  0  0  0  0  0  0  0  0  0  0
  191.0980  173.8390  134.8830 C   0  0  0  0  0  1  0  0  0  0  0  0
  190.9600  173.7010  136.3300 N   0  0  0  0  0  0  0  0  0  0  0  0
  192.0500  174.2060  137.1440 C   0  0  0  0  0  1  0  0  0  0  0  0
  189.3070  172.0130  136.1180 O   0  0  0  0  0  0  0  0  0  0  0  0
  1  2  2  0  0  0  0
  2 11  1  0  0  0  0
  3  9  1  0  0  0  0
  4 37  1  0  0  0  0
  4  8  2  0  0  0  0
  5 11  1  0  0  0  0
  6  1  1  0  0  0  0
  6  5  1  0  0  0  0
  6 19  1  1  0  0  0
  7 10  1  0  0  0  0
  8  5  2  0  0  0  0
  9  4  1  0  0  0  0
  9 12  1  0  0  0  0
 11  7  2  0  0  0  0
 12 25  1  6  0  0  0
 12 10  1  0  0  0  0
 13 20  1  0  0  0  0
 13 22  1  0  0  0  0
 14 17  1  0  0  0  0
 15 20  2  0  0  0  0
 16 13  2  0  0  0  0
 17 16  1  0  0  0  0
 17 19  2  0  0  0  0
 18 16  1  0  0  0  0
 19 15  1  0  0  0  0
 22 21  1  0  0  0  0
 23 22  1  0  0  0  0
 23 21  1  0  0  0  0
 24 27  1  0  0  0  0
 24 29  1  0  0  0  0
 25 31  1  0  0  0  0
 26 30  1  0  0  0  0
 27 25  1  0  0  0  0
 28 26  1  0  0  0  0
 28 24  2  0  0  0  0
 29 31  1  0  0  0  0
 30 29  2  0  0  0  0
 32 26  1  0  0  0  0
 33 32  1  0  0  0  0
 34 35  1  0  0  0  0
 35 33  1  0  0  0  0
 37 36  2  0  0  0  0
 38 37  1  0  0  0  0
 39 41  2  0  0  0  0
 39 44  1  0  0  0  0
 40 43  2  0  0  0  0
 41 40  1  0  0  0  0
 42 43  1  0  0  0  0
 43 38  1  0  0  0  0
 44 42  2  0  0  0  0
 45 39  1  0  0  0  0
 46 47  1  0  0  0  0
 47 45  1  0  0  0  0
 47 48  1  0  0  0  0
 49 45  2  0  0  0  0
M  END
>  <MODEL>
1

>  <REMARK>
 VINA RESULT:      -7.3      0.000      0.000
  Name = 
  10 active torsions:
  status: ('A' for Active; 'I' for Inactive)
    1  A    between atoms: C_1  and  C_7
    2  A    between atoms: C_2  and  C_10
    3  A    between atoms: N_5  and  C_47
    4  A    between atoms: C_11  and  C_18
    5  A    between atoms: C_11  and  O_29
    6  A    between atoms: O_12  and  C_32
    7  A    between atoms: O_12  and  C_42
    8  A    between atoms: N_14  and  C_18
    9  A    between atoms: C_16  and  C_42
   10  A    between atoms: C_22  and  C_39
                            x       y       z     vdW  Elec       q    Type
                         _______ _______ _______ _____ _____    ______ ____

>  <TORSDO>
F 10

$$$$
=
 OpenBabel11042414063D

 49 55  0  0  1  0  0  0  0  0999 V2000
  185.9330  179.8180  144.3270 N   0  0  0  0  0  0  0  0  0  0  0  0
  186.2770  179.3070  145.4680 C   0  0  0  0  0  3  0  0  0  0  0  0
  190.3710  174.8060  143.5050 C   0  0  0  0  0  1  0  0  0  0  0  0
  188.0880  175.7650  143.0650 C   0  0  0  0  0  0  0  0  0  0  0  0
  186.4490  177.5770  143.9080 C   0  0  0  0  0  0  0  0  0  0  0  0
  186.0170  178.8430  143.2350 C   0  0  1  0  0  3  0  0  0  0  0  0
  187.1510  177.1570  146.2300 N   0  0  0  0  0  0  0  0  0  0  0  0
  187.2380  176.6980  143.3700 C   0  0  0  0  0  0  0  0  0  0  0  0
  189.1520  175.4530  144.0150 N   0  0  0  0  0  0  0  0  0  0  0  0
  187.5630  175.7590  146.0290 C   0  0  0  0  0  2  0  0  0  0  0  0
  186.6240  177.9120  145.3060 C   0  0  0  0  0  0  0  0  0  0  0  0
  189.0230  175.6090  145.4980 C   0  0  2  0  0  3  0  0  0  0  0  0
  182.1760  178.2820  141.3870 C   0  0  0  0  0  0  0  0  0  0  0  0
  186.0710  177.8340  140.2820 S   0  0  0  0  0  1  0  0  0  0  0  0
  183.4960  178.8930  143.2670 C   0  0  0  0  0  3  0  0  0  0  0  0
  183.3370  177.9980  140.6500 C   0  0  0  0  0  0  0  0  0  0  0  0
  184.5940  178.1970  141.2330 C   0  0  0  0  0  0  0  0  0  0  0  0
  183.2450  177.5090  139.3870 F   0  0  0  0  0  0  0  0  0  0  0  0
  184.6820  178.6650  142.5580 C   0  0  0  0  0  0  0  0  0  0  0  0
  182.2900  178.7010  142.6770 N   0  0  0  0  0  0  0  0  0  0  0  0
  179.7500  178.5900  141.7450 C   0  0  0  0  0  2  0  0  0  0  0  0
  180.8100  178.0150  140.8200 C   0  0  0  0  0  3  0  0  0  0  0  0
  180.1030  179.3160  140.4710 C   0  0  0  0  0  2  0  0  0  0  0  0
  192.0270  176.8230  144.9050 C   0  0  0  0  0  0  0  0  0  0  0  0
  189.9900  176.5820  146.0730 N   0  0  0  0  0  0  0  0  0  0  0  0
  194.0710  177.0120  145.4330 N   0  0  0  0  0  0  0  0  0  0  0  0
  190.6410  177.3170  144.9650 C   0  0  0  0  0  2  0  0  0  0  0  0
  193.1510  177.4990  144.6050 N   0  0  0  0  0  0  0  0  0  0  0  0
  192.2750  175.9970  145.9150 C   0  0  0  0  0  0  0  0  0  0  0  0
  193.5600  176.1420  146.2980 N   0  0  0  0  0  0  0  0  0  0  0  0
  191.0860  175.8570  146.7700 C   0  0  0  0  0  2  0  0  0  0  0  0
  195.4860  177.3760  145.3510 C   0  0  0  0  0  2  0  0  0  0  0  0
  196.1650  176.8660  144.0750 C   0  0  0  0  0  2  0  0  0  0  0  0
  197.2150  174.9230  143.8390 C   0  0  0  0  0  1  0  0  0  0  0  0
  195.9490  175.4950  143.9150 O   0  0  0  0  0  0  0  0  0  0  0  0
  187.0020  173.7820  142.3190 O   0  0  0  0  0  0  0  0  0  0  0  0
  187.7060  174.7890  142.0260 C   0  0  0  0  0  0  0  0  0  0  0  0
  188.1350  174.9860  140.7120 O   0  0  0  0  0  0  0  0  0  0  0  0
  189.6220  171.8860  138.2850 C   0  0  0  0  0  0  0  0  0  0  0  0
  189.5450  173.0540  140.4140 C   0  0  0  0  0  3  0  0  0  0  0  0
  190.0500  172.0250  139.6130 C   0  0  0  0  0  3  0  0  0  0  0  0
  188.2220  173.8390  138.5420 C   0  0  0  0  0  3  0  0  0  0  0  0
  188.6130  173.9600  139.8900 C   0  0  0  0  0  0  0  0  0  0  0  0
  188.7170  172.8060  137.7480 C   0  0  0  0  0  3  0  0  0  0  0  0
  190.0870  170.7660  137.4440 C   0  0  0  0  0  0  0  0  0  0  0  0
  191.5090  169.8550  135.5660 C   0  0  0  0  0  1  0  0  0  0  0  0
  191.1370  170.9530  136.4530 N   0  0  0  0  0  0  0  0  0  0  0  0
  192.0670  172.0620  136.5510 C   0  0  0  0  0  1  0  0  0  0  0  0
  189.5720  169.6120  137.6280 O   0  0  0  0  0  0  0  0  0  0  0  0
  1  2  2  0  0  0  0
  3  9  1  0  0  0  0
  4  8  2  0  0  0  0
  4  9  1  0  0  0  0
  5 11  1  0  0  0  0
  6 19  1  1  0  0  0
  6  5  1  0  0  0  0
  6  1  1  0  0  0  0
  8  5  2  0  0  0  0
  9 12  1  0  0  0  0
 10  7  1  0  0  0  0
 11  2  1  0  0  0  0
 11  7  2  0  0  0  0
 12 10  1  6  0  0  0
 12 25  1  0  0  0  0
 13 20  1  0  0  0  0
 14 17  1  0  0  0  0
 16 17  1  0  0  0  0
 16 13  2  0  0  0  0
 17 19  2  0  0  0  0
 18 16  1  0  0  0  0
 19 15  1  0  0  0  0
 20 15  2  0  0  0  0
 22 13  1  0  0  0  0
 22 21  1  0  0  0  0
 23 22  1  0  0  0  0
 23 21  1  0  0  0  0
 24 27  1  0  0  0  0
 24 29  1  0  0  0  0
 25 31  1  0  0  0  0
 26 30  1  0  0  0  0
 27 25  1  0  0  0  0
 28 24  2  0  0  0  0
 28 26  1  0  0  0  0
 29 30  2  0  0  0  0
 29 31  1  0  0  0  0
 32 26  1  0  0  0  0
 33 32  1  0  0  0  0
 34 35  1  0  0  0  0
 35 33  1  0  0  0  0
 37 36  2  0  0  0  0
 37  4  1  0  0  0  0
 38 37  1  0  0  0  0
 39 41  1  0  0  0  0
 41 40  2  0  0  0  0
 42 43  2  0  0  0  0
 43 40  1  0  0  0  0
 43 38  1  0  0  0  0
 44 39  2  0  0  0  0
 44 42  1  0  0  0  0
 45 49  2  0  0  0  0
 45 39  1  0  0  0  0
 46 47  1  0  0  0  0
 47 48  1  0  0  0  0
 47 45  1  0  0  0  0
M  END
>  <MODEL>
2

>  <REMARK>
 VINA RESULT:      -6.9      3.273      5.112
  Name = 
  10 active torsions:
  status: ('A' for Active; 'I' for Inactive)
    1  A    between atoms: C_1  and  C_7
    2  A    between atoms: C_2  and  C_10
    3  A    between atoms: N_5  and  C_47
    4  A    between atoms: C_11  and  C_18
    5  A    between atoms: C_11  and  O_29
    6  A    between atoms: O_12  and  C_32
    7  A    between atoms: O_12  and  C_42
    8  A    between atoms: N_14  and  C_18
    9  A    between atoms: C_16  and  C_42
   10  A    between atoms: C_22  and  C_39
                            x       y       z     vdW  Elec       q    Type
                         _______ _______ _______ _____ _____    ______ ____

>  <TORSDO>
F 10

$$$$
=
 OpenBabel11042414063D

 49 55  0  0  1  0  0  0  0  0999 V2000
  191.7750  175.4920  145.6320 N   0  0  0  0  0  0  0  0  0  0  0  0
  192.1340  174.2470  145.6560 C   0  0  0  0  0  3  0  0  0  0  0  0
  191.2400  172.6940  139.5200 C   0  0  0  0  0  1  0  0  0  0  0  0
  190.1500  173.8430  141.4720 C   0  0  0  0  0  0  0  0  0  0  0  0
  190.5370  174.4260  143.9600 C   0  0  0  0  0  0  0  0  0  0  0  0
  190.7810  175.7630  144.5880 C   0  0  1  0  0  3  0  0  0  0  0  0
  191.6600  172.2640  144.3100 N   0  0  0  0  0  0  0  0  0  0  0  0
  190.2940  174.2460  142.6980 C   0  0  0  0  0  0  0  0  0  0  0  0
  191.0380  172.7980  140.9730 N   0  0  0  0  0  0  0  0  0  0  0  0
  190.9730  171.5420  143.2300 C   0  0  0  0  0  2  0  0  0  0  0  0
  191.4190  173.5020  144.6420 C   0  0  0  0  0  0  0  0  0  0  0  0
  191.6400  171.7290  141.8310 C   0  0  2  0  0  3  0  0  0  0  0  0
  187.1200  177.2670  146.2640 C   0  0  0  0  0  0  0  0  0  0  0  0
  189.5470  178.2370  143.1390 S   0  0  0  0  0  1  0  0  0  0  0  0
  188.9120  175.7060  146.2780 C   0  0  0  0  0  3  0  0  0  0  0  0
  187.6600  177.8940  145.1300 C   0  0  0  0  0  0  0  0  0  0  0  0
  188.8630  177.4270  144.5870 C   0  0  0  0  0  0  0  0  0  0  0  0
  187.0100  178.9320  144.5440 F   0  0  0  0  0  0  0  0  0  0  0  0
  189.5120  176.3240  145.1750 C   0  0  0  0  0  0  0  0  0  0  0  0
  187.7490  176.1820  146.7900 N   0  0  0  0  0  0  0  0  0  0  0  0
  185.8620  177.6850  148.3500 C   0  0  0  0  0  2  0  0  0  0  0  0
  185.7950  177.6950  146.8320 C   0  0  0  0  0  3  0  0  0  0  0  0
  185.9330  178.9960  147.6080 C   0  0  0  0  0  2  0  0  0  0  0  0
  194.1580  173.0270  140.1520 C   0  0  0  0  0  0  0  0  0  0  0  0
  193.1260  171.7640  141.8580 N   0  0  0  0  0  0  0  0  0  0  0  0
  195.8450  172.7880  138.8890 N   0  0  0  0  0  0  0  0  0  0  0  0
  193.5770  173.1280  141.5010 C   0  0  0  0  0  2  0  0  0  0  0  0
  195.2100  173.6890  139.6360 N   0  0  0  0  0  0  0  0  0  0  0  0
  194.2070  171.7610  139.7550 C   0  0  0  0  0  0  0  0  0  0  0  0
  195.3030  171.5790  138.9910 N   0  0  0  0  0  0  0  0  0  0  0  0
  193.6730  170.8730  140.8000 C   0  0  0  0  0  2  0  0  0  0  0  0
  196.9790  173.1270  138.0300 C   0  0  0  0  0  2  0  0  0  0  0  0
  196.5590  173.7980  136.7170 C   0  0  0  0  0  2  0  0  0  0  0  0
  197.9410  175.2450  137.6830 C   0  0  0  0  0  1  0  0  0  0  0  0
  197.3450  174.9250  136.4660 O   0  0  0  0  0  0  0  0  0  0  0  0
  188.0920  173.1710  140.4820 O   0  0  0  0  0  0  0  0  0  0  0  0
  188.8670  174.1170  140.7970 C   0  0  0  0  0  0  0  0  0  0  0  0
  188.5170  175.4370  140.5010 O   0  0  0  0  0  0  0  0  0  0  0  0
  185.2270  177.4660  142.1640 C   0  0  0  0  0  0  0  0  0  0  0  0
  186.8910  177.2120  140.4120 C   0  0  0  0  0  3  0  0  0  0  0  0
  185.8020  177.8980  140.9600 C   0  0  0  0  0  3  0  0  0  0  0  0
  186.8650  175.6940  142.3000 C   0  0  0  0  0  3  0  0  0  0  0  0
  187.4210  176.0940  141.0680 C   0  0  0  0  0  0  0  0  0  0  0  0
  185.7730  176.3710  142.8390 C   0  0  0  0  0  3  0  0  0  0  0  0
  184.0340  178.1300  142.7250 C   0  0  0  0  0  0  0  0  0  0  0  0
  181.7630  179.2000  142.4430 C   0  0  0  0  0  1  0  0  0  0  0  0
  182.8890  178.4550  141.8870 N   0  0  0  0  0  0  0  0  0  0  0  0
  182.6620  177.7620  140.6320 C   0  0  0  0  0  1  0  0  0  0  0  0
  184.0100  178.3840  143.9760 O   0  0  0  0  0  0  0  0  0  0  0  0
  1  2  2  0  0  0  0
  3  9  1  0  0  0  0
  4  8  2  0  0  0  0
  5  6  1  0  0  0  0
  5 11  1  0  0  0  0
  6 19  1  1  0  0  0
  6  1  1  0  0  0  0
  7 11  2  0  0  0  0
  8  5  2  0  0  0  0
  9  4  1  0  0  0  0
  9 12  1  0  0  0  0
 10  7  1  0  0  0  0
 11  2  1  0  0  0  0
 12 25  1  1  0  0  0
 12 10  1  0  0  0  0
 13 20  1  0  0  0  0
 13 22  1  0  0  0  0
 14 17  1  0  0  0  0
 15 20  2  0  0  0  0
 16 13  2  0  0  0  0
 17 16  1  0  0  0  0
 17 19  2  0  0  0  0
 18 16  1  0  0  0  0
 19 15  1  0  0  0  0
 22 23  1  0  0  0  0
 22 21  1  0  0  0  0
 23 21  1  0  0  0  0
 24 27  1  0  0  0  0
 26 30  1  0  0  0  0
 26 28  1  0  0  0  0
 27 25  1  0  0  0  0
 28 24  2  0  0  0  0
 29 24  1  0  0  0  0
 29 31  1  0  0  0  0
 30 29  2  0  0  0  0
 31 25  1  0  0  0  0
 32 26  1  0  0  0  0
 33 32  1  0  0  0  0
 35 33  1  0  0  0  0
 35 34  1  0  0  0  0
 36 37  2  0  0  0  0
 37  4  1  0  0  0  0
 38 37  1  0  0  0  0
 38 43  1  0  0  0  0
 39 45  1  0  0  0  0
 39 44  1  0  0  0  0
 40 41  1  0  0  0  0
 40 43  2  0  0  0  0
 41 39  2  0  0  0  0
 42 44  2  0  0  0  0
 43 42  1  0  0  0  0
 45 49  2  0  0  0  0
 47 46  1  0  0  0  0
 47 45  1  0  0  0  0
 48 47  1  0  0  0  0
M  END
>  <MODEL>
3

>  <REMARK>
 VINA RESULT:      -6.8      2.482      4.856
  Name = 
  10 active torsions:
  status: ('A' for Active; 'I' for Inactive)
    1  A    between atoms: C_1  and  C_7
    2  A    between atoms: C_2  and  C_10
    3  A    between atoms: N_5  and  C_47
    4  A    between atoms: C_11  and  C_18
    5  A    between atoms: C_11  and  O_29
    6  A    between atoms: O_12  and  C_32
    7  A    between atoms: O_12  and  C_42
    8  A    between atoms: N_14  and  C_18
    9  A    between atoms: C_16  and  C_42
   10  A    between atoms: C_22  and  C_39
                            x       y       z     vdW  Elec       q    Type
                         _______ _______ _______ _____ _____    ______ ____

>  <TORSDO>
F 10

$$$$
=
 OpenBabel11042414063D

 49 55  0  0  1  0  0  0  0  0999 V2000
  191.7980  177.6500  144.3890 N   0  0  0  0  0  0  0  0  0  0  0  0
  192.8170  177.1600  145.0240 C   0  0  0  0  0  3  0  0  0  0  0  0
  193.5810  171.6540  141.8680 C   0  0  0  0  0  1  0  0  0  0  0  0
  191.8480  173.1070  142.9680 C   0  0  0  0  0  0  0  0  0  0  0  0
  191.5850  175.3250  144.2670 C   0  0  0  0  0  0  0  0  0  0  0  0
  190.9370  176.6030  143.8300 C   0  0  1  0  0  3  0  0  0  0  0  0
  193.7270  174.9270  145.4150 N   0  0  0  0  0  0  0  0  0  0  0  0
  191.6130  174.2410  143.5550 C   0  0  0  0  0  0  0  0  0  0  0  0
  193.2220  172.6180  142.9200 N   0  0  0  0  0  0  0  0  0  0  0  0
  193.6990  173.4610  145.3160 C   0  0  0  0  0  2  0  0  0  0  0  0
  192.7740  175.7150  144.9960 C   0  0  0  0  0  0  0  0  0  0  0  0
  194.2550  172.9160  143.9620 C   0  0  2  0  0  3  0  0  0  0  0  0
  186.9610  176.8450  145.4430 C   0  0  0  0  0  0  0  0  0  0  0  0
  188.6330  175.8400  141.8670 S   0  0  0  0  0  1  0  0  0  0  0  0
  189.3120  177.0720  145.7000 C   0  0  0  0  0  3  0  0  0  0  0  0
  187.1340  176.4300  144.1130 C   0  0  0  0  0  0  0  0  0  0  0  0
  188.4220  176.3680  143.5690 C   0  0  0  0  0  0  0  0  0  0  0  0
  186.0630  176.0670  143.3620 F   0  0  0  0  0  0  0  0  0  0  0  0
  189.5330  176.7060  144.3660 C   0  0  0  0  0  0  0  0  0  0  0  0
  188.0530  177.1330  146.2010 N   0  0  0  0  0  0  0  0  0  0  0  0
  185.5340  177.9610  147.1250 C   0  0  0  0  0  2  0  0  0  0  0  0
  185.6000  176.8570  146.0830 C   0  0  0  0  0  3  0  0  0  0  0  0
  184.8720  178.1580  145.7840 C   0  0  0  0  0  2  0  0  0  0  0  0
  195.6080  173.7610  141.0820 C   0  0  0  0  0  0  0  0  0  0  0  0
  195.4260  173.6630  143.4330 N   0  0  0  0  0  0  0  0  0  0  0  0
  197.1800  173.5940  139.6690 N   0  0  0  0  0  0  0  0  0  0  0  0
  195.0010  174.4330  142.2430 C   0  0  0  0  0  2  0  0  0  0  0  0
  196.0920  174.3060  139.9500 N   0  0  0  0  0  0  0  0  0  0  0  0
  196.4220  172.7880  141.4750 C   0  0  0  0  0  0  0  0  0  0  0  0
  197.4560  172.7020  140.6140 N   0  0  0  0  0  0  0  0  0  0  0  0
  196.4570  172.7090  142.9440 C   0  0  0  0  0  2  0  0  0  0  0  0
  197.9410  173.7640  138.4310 C   0  0  0  0  0  2  0  0  0  0  0  0
  197.8600  175.1850  137.8650 C   0  0  0  0  0  2  0  0  0  0  0  0
  196.2040  175.6770  136.4680 C   0  0  0  0  0  1  0  0  0  0  0  0
  197.4960  175.1600  136.5170 O   0  0  0  0  0  0  0  0  0  0  0  0
  189.9490  171.8930  143.7350 O   0  0  0  0  0  0  0  0  0  0  0  0
  190.7180  172.1770  142.7740 C   0  0  0  0  0  0  0  0  0  0  0  0
  190.5080  171.6080  141.5170 O   0  0  0  0  0  0  0  0  0  0  0  0
  189.1000  173.7760  138.1970 C   0  0  0  0  0  0  0  0  0  0  0  0
  190.9270  173.0160  139.6070 C   0  0  0  0  0  3  0  0  0  0  0  0
  190.4680  173.7450  138.5060 C   0  0  0  0  0  3  0  0  0  0  0  0
  188.6440  172.3910  140.1240 C   0  0  0  0  0  3  0  0  0  0  0  0
  190.0200  172.3180  140.4150 C   0  0  0  0  0  0  0  0  0  0  0  0
  188.1890  173.1090  139.0190 C   0  0  0  0  0  3  0  0  0  0  0  0
  188.6010  174.4810  136.9990 C   0  0  0  0  0  0  0  0  0  0  0  0
  188.7410  175.0240  134.5360 C   0  0  0  0  0  1  0  0  0  0  0  0
  189.1850  174.2430  135.6870 N   0  0  0  0  0  0  0  0  0  0  0  0
  189.9250  173.0260  135.4080 C   0  0  0  0  0  1  0  0  0  0  0  0
  187.6160  175.2820  137.1310 O   0  0  0  0  0  0  0  0  0  0  0  0
  1  2  2  0  0  0  0
  3  9  1  0  0  0  0
  4  8  2  0  0  0  0
  5 11  1  0  0  0  0
  6  5  1  0  0  0  0
  6 19  1  1  0  0  0
  6  1  1  0  0  0  0
  8  5  2  0  0  0  0
  9  4  1  0  0  0  0
  9 12  1  0  0  0  0
 10  7  1  0  0  0  0
 11  2  1  0  0  0  0
 11  7  2  0  0  0  0
 12 25  1  6  0  0  0
 12 10  1  0  0  0  0
 13 22  1  0  0  0  0
 13 20  1  0  0  0  0
 14 17  1  0  0  0  0
 15 20  2  0  0  0  0
 16 13  2  0  0  0  0
 17 16  1  0  0  0  0
 17 19  2  0  0  0  0
 18 16  1  0  0  0  0
 19 15  1  0  0  0  0
 22 21  1  0  0  0  0
 23 22  1  0  0  0  0
 23 21  1  0  0  0  0
 24 29  1  0  0  0  0
 24 27  1  0  0  0  0
 26 28  1  0  0  0  0
 26 30  1  0  0  0  0
 27 25  1  0  0  0  0
 28 24  2  0  0  0  0
 29 31  1  0  0  0  0
 30 29  2  0  0  0  0
 31 25  1  0  0  0  0
 32 26  1  0  0  0  0
 33 32  1  0  0  0  0
 34 35  1  0  0  0  0
 35 33  1  0  0  0  0
 37  4  1  0  0  0  0
 37 36  2  0  0  0  0
 38 37  1  0  0  0  0
 39 41  2  0  0  0  0
 39 44  1  0  0  0  0
 40 43  2  0  0  0  0
 41 40  1  0  0  0  0
 42 43  1  0  0  0  0
 43 38  1  0  0  0  0
 44 42  2  0  0  0  0
 45 49  2  0  0  0  0
 45 39  1  0  0  0  0
 46 47  1  0  0  0  0
 47 45  1  0  0  0  0
 48 47  1  0  0  0  0
M  END
>  <MODEL>
4

>  <REMARK>
 VINA RESULT:      -6.5      1.364      1.565
  Name = 
  10 active torsions:
  status: ('A' for Active; 'I' for Inactive)
    1  A    between atoms: C_1  and  C_7
    2  A    between atoms: C_2  and  C_10
    3  A    between atoms: N_5  and  C_47
    4  A    between atoms: C_11  and  C_18
    5  A    between atoms: C_11  and  O_29
    6  A    between atoms: O_12  and  C_32
    7  A    between atoms: O_12  and  C_42
    8  A    between atoms: N_14  and  C_18
    9  A    between atoms: C_16  and  C_42
   10  A    between atoms: C_22  and  C_39
                            x       y       z     vdW  Elec       q    Type
                         _______ _______ _______ _____ _____    ______ ____

>  <TORSDO>
F 10

$$$$
=
 OpenBabel11042414063D

 49 55  0  0  1  0  0  0  0  0999 V2000
  191.9330  174.4940  145.3870 N   0  0  0  0  0  0  0  0  0  0  0  0
  192.0780  173.2240  145.1690 C   0  0  0  0  0  3  0  0  0  0  0  0
  190.8030  172.9970  138.9100 C   0  0  0  0  0  1  0  0  0  0  0  0
  189.9650  173.9270  141.0900 C   0  0  0  0  0  0  0  0  0  0  0  0
  190.4980  173.9690  143.6190 C   0  0  0  0  0  0  0  0  0  0  0  0
  190.9770  175.1100  144.4620 C   0  0  1  0  0  3  0  0  0  0  0  0
  191.2480  171.6270  143.5180 N   0  0  0  0  0  0  0  0  0  0  0  0
  190.2010  174.0680  142.3590 C   0  0  0  0  0  0  0  0  0  0  0  0
  190.6530  172.8630  140.3660 N   0  0  0  0  0  0  0  0  0  0  0  0
  190.4250  171.2380  142.3630 C   0  0  0  0  0  2  0  0  0  0  0  0
  191.2270  172.8050  144.0780 C   0  0  0  0  0  0  0  0  0  0  0  0
  191.0840  171.5700  140.9870 C   0  0  2  0  0  3  0  0  0  0  0  0
  187.6630  176.8470  146.5760 C   0  0  0  0  0  0  0  0  0  0  0  0
  189.9630  177.8520  143.3690 S   0  0  0  0  0  1  0  0  0  0  0  0
  189.2410  175.0930  146.2890 C   0  0  0  0  0  3  0  0  0  0  0  0
  188.1950  177.5230  145.4670 C   0  0  0  0  0  0  0  0  0  0  0  0
  189.2880  176.9790  144.7830 C   0  0  0  0  0  0  0  0  0  0  0  0
  187.6400  178.6860  145.0420 F   0  0  0  0  0  0  0  0  0  0  0  0
  189.8330  175.7510  145.2040 C   0  0  0  0  0  0  0  0  0  0  0  0
  188.1870  175.6460  146.9410 N   0  0  0  0  0  0  0  0  0  0  0  0
  185.6380  178.2480  146.3560 C   0  0  0  0  0  2  0  0  0  0  0  0
  186.4460  177.3650  147.2930 C   0  0  0  0  0  3  0  0  0  0  0  0
  185.1730  176.8430  146.6450 C   0  0  0  0  0  2  0  0  0  0  0  0
  193.4450  170.7440  138.8450 C   0  0  0  0  0  0  0  0  0  0  0  0
  192.5550  171.3590  140.9430 N   0  0  0  0  0  0  0  0  0  0  0  0
  194.9010  169.3670  138.1540 N   0  0  0  0  0  0  0  0  0  0  0  0
  193.0770  171.9060  139.6700 C   0  0  0  0  0  2  0  0  0  0  0  0
  194.4700  170.6130  137.9820 N   0  0  0  0  0  0  0  0  0  0  0  0
  193.3160  169.6170  139.5350 C   0  0  0  0  0  0  0  0  0  0  0  0
  194.2680  168.7470  139.1440 N   0  0  0  0  0  0  0  0  0  0  0  0
  192.8570  169.9020  140.9050 C   0  0  0  0  0  2  0  0  0  0  0  0
  195.9260  168.7580  137.3060 C   0  0  0  0  0  2  0  0  0  0  0  0
  196.2770  169.6090  136.0800 C   0  0  0  0  0  2  0  0  0  0  0  0
  195.3350  170.8700  134.5130 C   0  0  0  0  0  1  0  0  0  0  0  0
  195.2010  169.6610  135.1910 O   0  0  0  0  0  0  0  0  0  0  0  0
  187.8540  173.7990  139.9960 O   0  0  0  0  0  0  0  0  0  0  0  0
  188.7320  174.5250  140.5420 C   0  0  0  0  0  0  0  0  0  0  0  0
  188.5450  175.9060  140.6280 O   0  0  0  0  0  0  0  0  0  0  0  0
  184.9390  177.6580  141.9080 C   0  0  0  0  0  0  0  0  0  0  0  0
  186.8370  176.1940  142.3040 C   0  0  0  0  0  3  0  0  0  0  0  0
  185.6360  176.7650  142.7350 C   0  0  0  0  0  3  0  0  0  0  0  0
  186.6180  177.3660  140.1940 C   0  0  0  0  0  3  0  0  0  0  0  0
  187.3470  176.5030  141.0360 C   0  0  0  0  0  0  0  0  0  0  0  0
  185.4270  177.9440  140.6300 C   0  0  0  0  0  3  0  0  0  0  0  0
  183.7080  178.3280  142.3700 C   0  0  0  0  0  0  0  0  0  0  0  0
  181.3830  179.2190  141.9430 C   0  0  0  0  0  1  0  0  0  0  0  0
  182.5520  178.4660  141.4960 N   0  0  0  0  0  0  0  0  0  0  0  0
  182.3710  177.5910  140.3530 C   0  0  0  0  0  1  0  0  0  0  0  0
  183.6620  178.7550  143.5720 O   0  0  0  0  0  0  0  0  0  0  0  0
  2  1  2  0  0  0  0
  3  9  1  0  0  0  0
  4  8  2  0  0  0  0
  5 11  1  0  0  0  0
  5  6  1  0  0  0  0
  6 19  1  1  0  0  0
  6  1  1  0  0  0  0
  7 11  2  0  0  0  0
  8  5  2  0  0  0  0
  9 12  1  0  0  0  0
  9  4  1  0  0  0  0
 10  7  1  0  0  0  0
 11  2  1  0  0  0  0
 12 25  1  1  0  0  0
 12 10  1  0  0  0  0
 13 20  1  0  0  0  0
 13 22  1  0  0  0  0
 14 17  1  0  0  0  0
 15 20  2  0  0  0  0
 16 13  2  0  0  0  0
 17 19  2  0  0  0  0
 17 16  1  0  0  0  0
 18 16  1  0  0  0  0
 19 15  1  0  0  0  0
 21 23  1  0  0  0  0
 21 22  1  0  0  0  0
 23 22  1  0  0  0  0
 24 29  1  0  0  0  0
 24 27  1  0  0  0  0
 26 30  1  0  0  0  0
 27 25  1  0  0  0  0
 28 26  1  0  0  0  0
 28 24  2  0  0  0  0
 29 31  1  0  0  0  0
 30 29  2  0  0  0  0
 31 25  1  0  0  0  0
 32 26  1  0  0  0  0
 33 32  1  0  0  0  0
 34 35  1  0  0  0  0
 35 33  1  0  0  0  0
 36 37  2  0  0  0  0
 37 38  1  0  0  0  0
 37  4  1  0  0  0  0
 38 43  1  0  0  0  0
 39 45  1  0  0  0  0
 39 41  1  0  0  0  0
 40 41  2  0  0  0  0
 42 44  1  0  0  0  0
 42 43  2  0  0  0  0
 43 40  1  0  0  0  0
 44 39  2  0  0  0  0
 45 49  2  0  0  0  0
 47 46  1  0  0  0  0
 47 45  1  0  0  0  0
 48 47  1  0  0  0  0
M  END
>  <MODEL>
5

>  <REMARK>
 VINA RESULT:      -6.3      3.345      5.570
  Name = 
  10 active torsions:
  status: ('A' for Active; 'I' for Inactive)
    1  A    between atoms: C_1  and  C_7
    2  A    between atoms: C_2  and  C_10
    3  A    between atoms: N_5  and  C_47
    4  A    between atoms: C_11  and  C_18
    5  A    between atoms: C_11  and  O_29
    6  A    between atoms: O_12  and  C_32
    7  A    between atoms: O_12  and  C_42
    8  A    between atoms: N_14  and  C_18
    9  A    between atoms: C_16  and  C_42
   10  A    between atoms: C_22  and  C_39
                            x       y       z     vdW  Elec       q    Type
                         _______ _______ _______ _____ _____    ______ ____

>  <TORSDO>
F 10

$$$$
=
 OpenBabel11042414063D

 49 55  0  0  1  0  0  0  0  0999 V2000
  186.9620  176.0100  147.1060 N   0  0  0  0  0  0  0  0  0  0  0  0
  186.0870  176.9660  147.0980 C   0  0  0  0  0  3  0  0  0  0  0  0
  185.5990  178.0050  140.8090 C   0  0  0  0  0  1  0  0  0  0  0  0
  187.2690  177.6910  142.6620 C   0  0  0  0  0  0  0  0  0  0  0  0
  187.4250  177.3000  145.2120 C   0  0  0  0  0  0  0  0  0  0  0  0
  187.8670  176.0770  145.9530 C   0  0  1  0  0  3  0  0  0  0  0  0
  185.4900  178.7800  145.5740 N   0  0  0  0  0  0  0  0  0  0  0  0
  187.4390  177.4150  143.9200 C   0  0  0  0  0  0  0  0  0  0  0  0
  185.9640  178.1740  142.2240 N   0  0  0  0  0  0  0  0  0  0  0  0
  185.6750  179.5940  144.3640 C   0  0  0  0  0  2  0  0  0  0  0  0
  186.2910  177.8200  145.9490 C   0  0  0  0  0  0  0  0  0  0  0  0
  185.0320  178.9680  143.0860 C   0  0  2  0  0  3  0  0  0  0  0  0
  191.9690  176.5240  147.1570 C   0  0  0  0  0  0  0  0  0  0  0  0
  189.6910  173.5870  145.4890 S   0  0  0  0  0  1  0  0  0  0  0  0
  189.7750  177.4080  146.9240 C   0  0  0  0  0  3  0  0  0  0  0  0
  191.5530  175.3100  146.5890 C   0  0  0  0  0  0  0  0  0  0  0  0
  190.2150  175.1440  146.2120 C   0  0  0  0  0  0  0  0  0  0  0  0
  192.4440  174.3080  146.3800 F   0  0  0  0  0  0  0  0  0  0  0  0
  189.3030  176.2020  146.3930 C   0  0  0  0  0  0  0  0  0  0  0  0
  191.0750  177.5410  147.2890 N   0  0  0  0  0  0  0  0  0  0  0  0
  194.3070  176.0460  146.5130 C   0  0  0  0  0  2  0  0  0  0  0  0
  193.4110  176.7640  147.5090 C   0  0  0  0  0  3  0  0  0  0  0  0
  194.1170  177.5390  146.4060 C   0  0  0  0  0  2  0  0  0  0  0  0
  182.1030  178.5700  141.6350 C   0  0  0  0  0  0  0  0  0  0  0  0
  183.7290  178.2910  143.3220 N   0  0  0  0  0  0  0  0  0  0  0  0
  180.0140  178.9300  141.5790 N   0  0  0  0  0  0  0  0  0  0  0  0
  183.2430  177.7320  142.0400 C   0  0  0  0  0  2  0  0  0  0  0  0
  180.9700  178.2050  141.0050 N   0  0  0  0  0  0  0  0  0  0  0  0
  181.8040  179.4490  142.5840 C   0  0  0  0  0  0  0  0  0  0  0  0
  180.4710  179.6510  142.5970 N   0  0  0  0  0  0  0  0  0  0  0  0
  182.7070  179.2890  143.7360 C   0  0  0  0  0  2  0  0  0  0  0  0
  178.6330  178.9460  141.0960 C   0  0  0  0  0  2  0  0  0  0  0  0
  178.2320  180.2840  140.4660 C   0  0  0  0  0  2  0  0  0  0  0  0
  178.9770  182.0710  139.3770 C   0  0  0  0  0  1  0  0  0  0  0  0
  179.1960  180.7070  139.5480 O   0  0  0  0  0  0  0  0  0  0  0  0
  188.3780  177.9780  140.5750 O   0  0  0  0  0  0  0  0  0  0  0  0
  188.4680  177.9250  141.8340 C   0  0  0  0  0  0  0  0  0  0  0  0
  189.7090  178.0840  142.4550 O   0  0  0  0  0  0  0  0  0  0  0  0
  192.4690  174.9350  142.8730 C   0  0  0  0  0  0  0  0  0  0  0  0
  190.2710  175.7510  142.2350 C   0  0  0  0  0  3  0  0  0  0  0  0
  191.1780  174.6970  142.3770 C   0  0  0  0  0  3  0  0  0  0  0  0
  191.9250  177.2750  143.1360 C   0  0  0  0  0  3  0  0  0  0  0  0
  190.6430  177.0520  142.5970 C   0  0  0  0  0  0  0  0  0  0  0  0
  192.8330  176.2250  143.2660 C   0  0  0  0  0  3  0  0  0  0  0  0
  193.4660  173.8500  142.9650 C   0  0  0  0  0  0  0  0  0  0  0  0
  195.1480  172.2990  141.8950 C   0  0  0  0  0  1  0  0  0  0  0  0
  194.2410  173.4390  141.8030 N   0  0  0  0  0  0  0  0  0  0  0  0
  194.4170  174.3280  140.6700 C   0  0  0  0  0  1  0  0  0  0  0  0
  193.6640  173.3000  144.0990 O   0  0  0  0  0  0  0  0  0  0  0  0
  2  1  2  0  0  0  0
  3  9  1  0  0  0  0
  4  8  2  0  0  0  0
  5 11  1  0  0  0  0
  5  6  1  0  0  0  0
  6 19  1  1  0  0  0
  6  1  1  0  0  0  0
  7 11  2  0  0  0  0
  8  5  2  0  0  0  0
  9  4  1  0  0  0  0
  9 12  1  0  0  0  0
 10  7  1  0  0  0  0
 11  2  1  0  0  0  0
 12 25  1  1  0  0  0
 12 10  1  0  0  0  0
 13 20  1  0  0  0  0
 13 22  1  0  0  0  0
 14 17  1  0  0  0  0
 15 20  2  0  0  0  0
 16 13  2  0  0  0  0
 17 19  2  0  0  0  0
 17 16  1  0  0  0  0
 18 16  1  0  0  0  0
 19 15  1  0  0  0  0
 21 22  1  0  0  0  0
 23 21  1  0  0  0  0
 23 22  1  0  0  0  0
 24 27  1  0  0  0  0
 24 29  1  0  0  0  0
 25 31  1  0  0  0  0
 26 30  1  0  0  0  0
 27 25  1  0  0  0  0
 28 26  1  0  0  0  0
 28 24  2  0  0  0  0
 29 30  2  0  0  0  0
 29 31  1  0  0  0  0
 32 26  1  0  0  0  0
 33 32  1  0  0  0  0
 34 35  1  0  0  0  0
 35 33  1  0  0  0  0
 36 37  2  0  0  0  0
 37 38  1  0  0  0  0
 37  4  1  0  0  0  0
 38 43  1  0  0  0  0
 39 45  1  0  0  0  0
 39 44  1  0  0  0  0
 40 41  1  0  0  0  0
 40 43  2  0  0  0  0
 41 39  2  0  0  0  0
 42 44  2  0  0  0  0
 43 42  1  0  0  0  0
 45 49  2  0  0  0  0
 47 46  1  0  0  0  0
 47 45  1  0  0  0  0
 48 47  1  0  0  0  0
M  END
>  <MODEL>
6

>  <REMARK>
 VINA RESULT:      -6.3      4.493     10.083
  Name = 
  10 active torsions:
  status: ('A' for Active; 'I' for Inactive)
    1  A    between atoms: C_1  and  C_7
    2  A    between atoms: C_2  and  C_10
    3  A    between atoms: N_5  and  C_47
    4  A    between atoms: C_11  and  C_18
    5  A    between atoms: C_11  and  O_29
    6  A    between atoms: O_12  and  C_32
    7  A    between atoms: O_12  and  C_42
    8  A    between atoms: N_14  and  C_18
    9  A    between atoms: C_16  and  C_42
   10  A    between atoms: C_22  and  C_39
                            x       y       z     vdW  Elec       q    Type
                         _______ _______ _______ _____ _____    ______ ____

>  <TORSDO>
F 10

$$$$
=
 OpenBabel11042414063D

 49 55  0  0  1  0  0  0  0  0999 V2000
  195.1690  175.6640  142.7770 N   0  0  0  0  0  0  0  0  0  0  0  0
  194.1140  176.4150  142.7270 C   0  0  0  0  0  3  0  0  0  0  0  0
  189.7050  172.3240  144.8910 C   0  0  0  0  0  1  0  0  0  0  0  0
  191.6160  172.5340  143.2700 C   0  0  0  0  0  0  0  0  0  0  0  0
  193.3640  174.2270  142.4000 C   0  0  0  0  0  0  0  0  0  0  0  0
  194.8460  174.2430  142.6090 C   0  0  1  0  0  3  0  0  0  0  0  0
  191.7060  176.0420  142.5500 N   0  0  0  0  0  0  0  0  0  0  0  0
  192.5760  173.2920  142.8340 C   0  0  0  0  0  0  0  0  0  0  0  0
  190.5020  173.1570  143.9780 N   0  0  0  0  0  0  0  0  0  0  0  0
  190.5160  175.1940  142.3880 C   0  0  0  0  0  2  0  0  0  0  0  0
  192.9360  175.6070  142.5020 C   0  0  0  0  0  0  0  0  0  0  0  0
  190.0210  174.5520  143.7220 C   0  0  2  0  0  3  0  0  0  0  0  0
  196.8200  172.6030  139.1610 C   0  0  0  0  0  0  0  0  0  0  0  0
  195.8150  171.2890  142.8840 S   0  0  0  0  0  1  0  0  0  0  0  0
  195.7200  174.4070  140.2500 C   0  0  0  0  0  3  0  0  0  0  0  0
  196.6490  171.7960  140.2980 C   0  0  0  0  0  0  0  0  0  0  0  0
  196.0270  172.3260  141.4350 C   0  0  0  0  0  0  0  0  0  0  0  0
  197.0600  170.5030  140.2900 F   0  0  0  0  0  0  0  0  0  0  0  0
  195.5650  173.6560  141.4220 C   0  0  0  0  0  0  0  0  0  0  0  0
  196.3340  173.8730  139.1640 N   0  0  0  0  0  0  0  0  0  0  0  0
  196.4350  171.0970  137.2390 C   0  0  0  0  0  2  0  0  0  0  0  0
  197.4200  172.0490  137.8980 C   0  0  0  0  0  3  0  0  0  0  0  0
  196.6200  172.4860  136.6810 C   0  0  0  0  0  2  0  0  0  0  0  0
  188.1420  175.7810  146.1310 C   0  0  0  0  0  0  0  0  0  0  0  0
  190.1320  175.4390  144.9100 N   0  0  0  0  0  0  0  0  0  0  0  0
  187.1900  177.4310  147.0610 N   0  0  0  0  0  0  0  0  0  0  0  0
  189.3010  174.8820  146.0000 C   0  0  0  0  0  2  0  0  0  0  0  0
  187.4790  176.1460  147.2440 N   0  0  0  0  0  0  0  0  0  0  0  0
  188.2760  176.8400  145.3410 C   0  0  0  0  0  0  0  0  0  0  0  0
  187.7210  177.9120  145.9410 N   0  0  0  0  0  0  0  0  0  0  0  0
  189.5480  176.7730  144.6030 C   0  0  0  0  0  2  0  0  0  0  0  0
  186.3450  178.1940  147.9800 C   0  0  0  0  0  2  0  0  0  0  0  0
  185.2310  178.9690  147.2690 C   0  0  0  0  0  2  0  0  0  0  0  0
  184.1370  178.6700  145.3590 C   0  0  0  0  0  1  0  0  0  0  0  0
  184.3660  178.0960  146.6060 O   0  0  0  0  0  0  0  0  0  0  0  0
  191.9480  170.1770  143.2470 O   0  0  0  0  0  0  0  0  0  0  0  0
  191.4640  171.1930  142.6740 C   0  0  0  0  0  0  0  0  0  0  0  0
  190.7820  171.0550  141.4630 O   0  0  0  0  0  0  0  0  0  0  0  0
  192.3530  172.3860  137.7930 C   0  0  0  0  0  0  0  0  0  0  0  0
  192.6440  171.3190  139.9560 C   0  0  0  0  0  3  0  0  0  0  0  0
  193.1770  171.7640  138.7430 C   0  0  0  0  0  3  0  0  0  0  0  0
  190.4730  172.1660  139.2940 C   0  0  0  0  0  3  0  0  0  0  0  0
  191.2830  171.5010  140.2350 C   0  0  0  0  0  0  0  0  0  0  0  0
  191.0030  172.5980  138.0800 C   0  0  0  0  0  3  0  0  0  0  0  0
  192.8790  172.7990  136.4770 C   0  0  0  0  0  0  0  0  0  0  0  0
  193.6240  174.5890  134.8580 C   0  0  0  0  0  1  0  0  0  0  0  0
  193.2000  174.1910  136.1970 N   0  0  0  0  0  0  0  0  0  0  0  0
  193.4620  175.1280  137.2740 C   0  0  0  0  0  1  0  0  0  0  0  0
  193.0820  171.9000  135.5930 O   0  0  0  0  0  0  0  0  0  0  0  0
  2  1  2  0  0  0  0
  4  9  1  0  0  0  0
  5 11  1  0  0  0  0
  5  6  1  0  0  0  0
  5  8  2  0  0  0  0
  6 19  1  6  0  0  0
  6  1  1  0  0  0  0
  8  4  2  0  0  0  0
  9  3  1  0  0  0  0
 10  7  1  0  0  0  0
 11  7  2  0  0  0  0
 11  2  1  0  0  0  0
 12 10  1  6  0  0  0
 12  9  1  0  0  0  0
 12 25  1  0  0  0  0
 13 20  2  0  0  0  0
 13 16  1  0  0  0  0
 15 19  2  0  0  0  0
 16 17  2  0  0  0  0
 17 14  1  0  0  0  0
 18 16  1  0  0  0  0
 19 17  1  0  0  0  0
 20 15  1  0  0  0  0
 21 22  1  0  0  0  0
 22 13  1  0  0  0  0
 23 21  1  0  0  0  0
 23 22  1  0  0  0  0
 24 28  2  0  0  0  0
 25 27  1  0  0  0  0
 26 28  1  0  0  0  0
 26 32  1  0  0  0  0
 27 24  1  0  0  0  0
 29 30  2  0  0  0  0
 29 24  1  0  0  0  0
 30 26  1  0  0  0  0
 31 25  1  0  0  0  0
 31 29  1  0  0  0  0
 33 32  1  0  0  0  0
 34 35  1  0  0  0  0
 35 33  1  0  0  0  0
 37 36  2  0  0  0  0
 37  4  1  0  0  0  0
 38 37  1  0  0  0  0
 39 44  2  0  0  0  0
 39 41  1  0  0  0  0
 40 43  1  0  0  0  0
 41 40  2  0  0  0  0
 42 43  2  0  0  0  0
 43 38  1  0  0  0  0
 44 42  1  0  0  0  0
 45 39  1  0  0  0  0
 46 47  1  0  0  0  0
 47 45  1  0  0  0  0
 47 48  1  0  0  0  0
 49 45  2  0  0  0  0
M  END
>  <MODEL>
7

>  <REMARK>
 VINA RESULT:      -6.3      3.330      8.933
  Name = 
  10 active torsions:
  status: ('A' for Active; 'I' for Inactive)
    1  A    between atoms: C_1  and  C_7
    2  A    between atoms: C_2  and  C_10
    3  A    between atoms: N_5  and  C_47
    4  A    between atoms: C_11  and  C_18
    5  A    between atoms: C_11  and  O_29
    6  A    between atoms: O_12  and  C_32
    7  A    between atoms: O_12  and  C_42
    8  A    between atoms: N_14  and  C_18
    9  A    between atoms: C_16  and  C_42
   10  A    between atoms: C_22  and  C_39
                            x       y       z     vdW  Elec       q    Type
                         _______ _______ _______ _____ _____    ______ ____

>  <TORSDO>
F 10

$$$$
=
 OpenBabel11042414063D

 49 55  0  0  1  0  0  0  0  0999 V2000
  194.9850  176.4910  143.6710 N   0  0  0  0  0  0  0  0  0  0  0  0
  196.0070  175.6940  143.6570 C   0  0  0  0  0  3  0  0  0  0  0  0
  194.1760  171.5820  139.1180 C   0  0  0  0  0  1  0  0  0  0  0  0
  193.3810  172.7540  141.1950 C   0  0  0  0  0  0  0  0  0  0  0  0
  194.1690  174.3960  143.0280 C   0  0  0  0  0  0  0  0  0  0  0  0
  193.7480  175.8130  143.2700 C   0  0  1  0  0  3  0  0  0  0  0  0
  196.4090  173.3740  143.0060 N   0  0  0  0  0  0  0  0  0  0  0  0
  193.6660  173.6320  142.1080 C   0  0  0  0  0  0  0  0  0  0  0  0
  194.4750  172.1540  140.4390 N   0  0  0  0  0  0  0  0  0  0  0  0
  195.9810  172.0480  142.5360 C   0  0  0  0  0  2  0  0  0  0  0  0
  195.5980  174.3650  143.2610 C   0  0  0  0  0  0  0  0  0  0  0  0
  195.8550  171.9460  140.9830 C   0  0  2  0  0  3  0  0  0  0  0  0
  190.7540  175.9280  146.3520 C   0  0  0  0  0  0  0  0  0  0  0  0
  191.7650  178.2190  143.1390 S   0  0  0  0  0  1  0  0  0  0  0  0
  192.6240  174.8810  145.3260 C   0  0  0  0  0  3  0  0  0  0  0  0
  190.7690  176.9380  145.3770 C   0  0  0  0  0  0  0  0  0  0  0  0
  191.7520  176.9230  144.3800 C   0  0  0  0  0  0  0  0  0  0  0  0
  189.8220  177.9100  145.3810 F   0  0  0  0  0  0  0  0  0  0  0  0
  192.7070  175.8880  144.3570 C   0  0  0  0  0  0  0  0  0  0  0  0
  191.6670  174.9220  146.2860 N   0  0  0  0  0  0  0  0  0  0  0  0
  188.3160  175.7550  146.7210 C   0  0  0  0  0  2  0  0  0  0  0  0
  189.6730  175.8720  147.3960 C   0  0  0  0  0  3  0  0  0  0  0  0
  188.9450  174.5370  147.3500 C   0  0  0  0  0  2  0  0  0  0  0  0
  196.1530  173.9030  138.3520 C   0  0  0  0  0  0  0  0  0  0  0  0
  196.9010  172.6870  140.2310 N   0  0  0  0  0  0  0  0  0  0  0  0
  196.8520  174.2370  136.3780 N   0  0  0  0  0  0  0  0  0  0  0  0
  196.3490  173.9940  139.8080 C   0  0  0  0  0  2  0  0  0  0  0  0
  196.3070  174.8610  137.4190 N   0  0  0  0  0  0  0  0  0  0  0  0
  196.6410  172.7610  137.8820 C   0  0  0  0  0  0  0  0  0  0  0  0
  197.1370  172.9670  136.6450 N   0  0  0  0  0  0  0  0  0  0  0  0
  197.2280  171.9650  138.9720 C   0  0  0  0  0  2  0  0  0  0  0  0
  197.0610  174.8860  135.0840 C   0  0  0  0  0  2  0  0  0  0  0  0
  196.8960  176.4080  135.1400 C   0  0  0  0  0  2  0  0  0  0  0  0
  195.6580  178.1480  134.5260 C   0  0  0  0  0  1  0  0  0  0  0  0
  195.6000  176.7790  134.7740 O   0  0  0  0  0  0  0  0  0  0  0  0
  191.9100  171.0310  141.9260 O   0  0  0  0  0  0  0  0  0  0  0  0
  192.0640  172.0900  141.2550 C   0  0  0  0  0  0  0  0  0  0  0  0
  190.9870  172.6420  140.5580 O   0  0  0  0  0  0  0  0  0  0  0  0
  188.1870  175.3110  142.2150 C   0  0  0  0  0  0  0  0  0  0  0  0
  189.1230  174.1470  140.2980 C   0  0  0  0  0  3  0  0  0  0  0  0
  188.1930  175.0400  140.8390 C   0  0  0  0  0  3  0  0  0  0  0  0
  190.0770  173.8330  142.5040 C   0  0  0  0  0  3  0  0  0  0  0  0
  190.0620  173.5220  141.1300 C   0  0  0  0  0  0  0  0  0  0  0  0
  189.1420  174.7150  143.0420 C   0  0  0  0  0  3  0  0  0  0  0  0
  187.1700  176.1950  142.8170 C   0  0  0  0  0  0  0  0  0  0  0  0
  186.3870  178.4790  143.5570 C   0  0  0  0  0  1  0  0  0  0  0  0
  187.3600  177.6370  142.8680 N   0  0  0  0  0  0  0  0  0  0  0  0
  188.2790  178.3020  141.9620 C   0  0  0  0  0  1  0  0  0  0  0  0
  186.0950  175.6700  143.2630 O   0  0  0  0  0  0  0  0  0  0  0  0
  2  1  2  0  0  0  0
  3  9  1  0  0  0  0
  4 37  1  0  0  0  0
  4  8  2  0  0  0  0
  5 11  1  0  0  0  0
  5  6  1  0  0  0  0
  6  1  1  0  0  0  0
  6 19  1  1  0  0  0
  7 11  2  0  0  0  0
  8  5  2  0  0  0  0
  9 12  1  0  0  0  0
  9  4  1  0  0  0  0
 10  7  1  0  0  0  0
 11  2  1  0  0  0  0
 12 25  1  6  0  0  0
 12 10  1  0  0  0  0
 13 22  1  0  0  0  0
 14 17  1  0  0  0  0
 15 20  2  0  0  0  0
 16 18  1  0  0  0  0
 16 13  2  0  0  0  0
 17 16  1  0  0  0  0
 19 17  2  0  0  0  0
 19 15  1  0  0  0  0
 20 13  1  0  0  0  0
 21 23  1  0  0  0  0
 21 22  1  0  0  0  0
 23 22  1  0  0  0  0
 24 27  1  0  0  0  0
 26 30  1  0  0  0  0
 26 28  1  0  0  0  0
 27 25  1  0  0  0  0
 28 24  2  0  0  0  0
 29 24  1  0  0  0  0
 29 31  1  0  0  0  0
 30 29  2  0  0  0  0
 31 25  1  0  0  0  0
 32 33  1  0  0  0  0
 32 26  1  0  0  0  0
 34 35  1  0  0  0  0
 35 33  1  0  0  0  0
 37 36  2  0  0  0  0
 38 43  1  0  0  0  0
 38 37  1  0  0  0  0
 39 45  1  0  0  0  0
 39 44  1  0  0  0  0
 40 41  1  0  0  0  0
 40 43  2  0  0  0  0
 41 39  2  0  0  0  0
 42 44  2  0  0  0  0
 43 42  1  0  0  0  0
 45 47  1  0  0  0  0
 45 49  2  0  0  0  0
 47 46  1  0  0  0  0
 48 47  1  0  0  0  0
M  END
>  <MODEL>
8

>  <REMARK>
 VINA RESULT:      -6.2      2.691      4.766
  Name = 
  10 active torsions:
  status: ('A' for Active; 'I' for Inactive)
    1  A    between atoms: C_1  and  C_7
    2  A    between atoms: C_2  and  C_10
    3  A    between atoms: N_5  and  C_47
    4  A    between atoms: C_11  and  C_18
    5  A    between atoms: C_11  and  O_29
    6  A    between atoms: O_12  and  C_32
    7  A    between atoms: O_12  and  C_42
    8  A    between atoms: N_14  and  C_18
    9  A    between atoms: C_16  and  C_42
   10  A    between atoms: C_22  and  C_39
                            x       y       z     vdW  Elec       q    Type
                         _______ _______ _______ _____ _____    ______ ____

>  <TORSDO>
F 10

$$$$
=
 OpenBabel11042414063D

 49 55  0  0  1  0  0  0  0  0999 V2000
  190.0400  172.0690  145.0070 N   0  0  0  0  0  0  0  0  0  0  0  0
  189.7300  173.3250  145.0950 C   0  0  0  0  0  3  0  0  0  0  0  0
  188.1960  174.5400  139.0090 C   0  0  0  0  0  1  0  0  0  0  0  0
  189.9450  173.4570  140.4540 C   0  0  0  0  0  0  0  0  0  0  0  0
  190.5450  173.0120  142.9280 C   0  0  0  0  0  0  0  0  0  0  0  0
  190.5500  171.7160  143.6780 C   0  0  1  0  0  3  0  0  0  0  0  0
  189.6640  175.2230  143.5580 N   0  0  0  0  0  0  0  0  0  0  0  0
  190.2830  173.1200  141.6620 C   0  0  0  0  0  0  0  0  0  0  0  0
  188.9430  174.5020  140.2760 N   0  0  0  0  0  0  0  0  0  0  0  0
  189.8870  175.8680  142.2560 C   0  0  0  0  0  2  0  0  0  0  0  0
  190.0040  173.9950  143.8430 C   0  0  0  0  0  0  0  0  0  0  0  0
  188.7290  175.6320  141.2360 C   0  0  2  0  0  3  0  0  0  0  0  0
  194.5610  170.1870  143.9080 C   0  0  0  0  0  0  0  0  0  0  0  0
  191.1960  169.3220  141.7820 S   0  0  0  0  0  1  0  0  0  0  0  0
  192.8920  171.7240  144.6140 C   0  0  0  0  0  3  0  0  0  0  0  0
  193.6590  169.6030  143.0060 C   0  0  0  0  0  0  0  0  0  0  0  0
  192.3440  170.0770  142.9360 C   0  0  0  0  0  0  0  0  0  0  0  0
  194.0610  168.5990  142.1850 F   0  0  0  0  0  0  0  0  0  0  0  0
  191.9430  171.1460  143.7620 C   0  0  0  0  0  0  0  0  0  0  0  0
  194.1580  171.2400  144.6690 N   0  0  0  0  0  0  0  0  0  0  0  0
  196.6470  170.2760  145.2320 C   0  0  0  0  0  2  0  0  0  0  0  0
  196.0000  169.7520  143.9610 C   0  0  0  0  0  3  0  0  0  0  0  0
  196.2430  168.8260  145.1430 C   0  0  0  0  0  2  0  0  0  0  0  0
  186.5510  177.7580  142.4910 C   0  0  0  0  0  0  0  0  0  0  0  0
  187.3690  175.6440  141.8360 N   0  0  0  0  0  0  0  0  0  0  0  0
  185.4780  178.5280  144.1500 N   0  0  0  0  0  0  0  0  0  0  0  0
  186.6430  176.8370  141.3460 C   0  0  0  0  0  2  0  0  0  0  0  0
  185.5480  178.5930  142.8230 N   0  0  0  0  0  0  0  0  0  0  0  0
  187.0200  177.1860  143.5940 C   0  0  0  0  0  0  0  0  0  0  0  0
  186.3140  177.6270  144.6550 N   0  0  0  0  0  0  0  0  0  0  0  0
  187.4670  175.8130  143.3110 C   0  0  0  0  0  2  0  0  0  0  0  0
  184.6050  179.3950  144.9420 C   0  0  0  0  0  2  0  0  0  0  0  0
  184.3900  178.8880  146.3720 C   0  0  0  0  0  2  0  0  0  0  0  0
  185.7810  178.2850  147.9960 C   0  0  0  0  0  1  0  0  0  0  0  0
  185.3860  179.3730  147.2220 O   0  0  0  0  0  0  0  0  0  0  0  0
  190.5850  172.1710  138.5560 O   0  0  0  0  0  0  0  0  0  0  0  0
  190.8650  173.1100  139.3530 C   0  0  0  0  0  0  0  0  0  0  0  0
  192.0530  173.8270  139.2020 O   0  0  0  0  0  0  0  0  0  0  0  0
  195.3240  173.5840  141.8380 C   0  0  0  0  0  0  0  0  0  0  0  0
  193.6070  174.8820  140.7120 C   0  0  0  0  0  3  0  0  0  0  0  0
  194.6980  174.8130  141.5840 C   0  0  0  0  0  3  0  0  0  0  0  0
  193.8020  172.5020  140.3050 C   0  0  0  0  0  3  0  0  0  0  0  0
  193.1390  173.7240  140.0780 C   0  0  0  0  0  0  0  0  0  0  0  0
  194.8810  172.4320  141.1840 C   0  0  0  0  0  3  0  0  0  0  0  0
  196.4310  173.4750  142.8090 C   0  0  0  0  0  0  0  0  0  0  0  0
  197.5500  174.1520  144.9700 C   0  0  0  0  0  1  0  0  0  0  0  0
  196.3990  174.1980  144.0720 N   0  0  0  0  0  0  0  0  0  0  0  0
  195.1450  174.6630  144.6350 C   0  0  0  0  0  1  0  0  0  0  0  0
  197.4080  172.7010  142.5330 O   0  0  0  0  0  0  0  0  0  0  0  0
  1  2  2  0  0  0  0
  3  9  1  0  0  0  0
  4  8  2  0  0  0  0
  5  6  1  0  0  0  0
  5 11  1  0  0  0  0
  6 19  1  1  0  0  0
  6  1  1  0  0  0  0
  7 11  2  0  0  0  0
  8  5  2  0  0  0  0
  9  4  1  0  0  0  0
  9 12  1  0  0  0  0
 10  7  1  0  0  0  0
 11  2  1  0  0  0  0
 12 25  1  1  0  0  0
 12 10  1  0  0  0  0
 13 22  1  0  0  0  0
 13 20  1  0  0  0  0
 14 17  1  0  0  0  0
 15 20  2  0  0  0  0
 16 13  2  0  0  0  0
 17 16  1  0  0  0  0
 17 19  2  0  0  0  0
 18 16  1  0  0  0  0
 19 15  1  0  0  0  0
 22 23  1  0  0  0  0
 22 21  1  0  0  0  0
 23 21  1  0  0  0  0
 24 28  2  0  0  0  0
 24 29  1  0  0  0  0
 25 31  1  0  0  0  0
 26 30  1  0  0  0  0
 26 32  1  0  0  0  0
 27 25  1  0  0  0  0
 27 24  1  0  0  0  0
 28 26  1  0  0  0  0
 29 30  2  0  0  0  0
 31 29  1  0  0  0  0
 32 33  1  0  0  0  0
 33 35  1  0  0  0  0
 35 34  1  0  0  0  0
 36 37  2  0  0  0  0
 37  4  1  0  0  0  0
 38 37  1  0  0  0  0
 38 43  1  0  0  0  0
 39 45  1  0  0  0  0
 40 41  2  0  0  0  0
 41 39  1  0  0  0  0
 42 44  1  0  0  0  0
 43 42  2  0  0  0  0
 43 40  1  0  0  0  0
 44 39  2  0  0  0  0
 45 47  1  0  0  0  0
 47 48  1  0  0  0  0
 47 46  1  0  0  0  0
 49 45  2  0  0  0  0
M  END
>  <MODEL>
9

>  <REMARK>
 VINA RESULT:      -6.1      3.658      9.368
  Name = 
  10 active torsions:
  status: ('A' for Active; 'I' for Inactive)
    1  A    between atoms: C_1  and  C_7
    2  A    between atoms: C_2  and  C_10
    3  A    between atoms: N_5  and  C_47
    4  A    between atoms: C_11  and  C_18
    5  A    between atoms: C_11  and  O_29
    6  A    between atoms: O_12  and  C_32
    7  A    between atoms: O_12  and  C_42
    8  A    between atoms: N_14  and  C_18
    9  A    between atoms: C_16  and  C_42
   10  A    between atoms: C_22  and  C_39
                            x       y       z     vdW  Elec       q    Type
                         _______ _______ _______ _____ _____    ______ ____

>  <TORSDO>
F 10

$$$$
