=
 OpenBabel11042416013D

 52 57  0  0  1  0  0  0  0  0999 V2000
  191.3250  172.8030  143.1830 C   0  0  0  0  0  0  0  0  0  0  0  0
  195.1850  173.4840  141.6180 O   0  0  0  0  0  0  0  0  0  0  0  0
  189.9530  172.2600  143.4020 C   0  0  0  0  0  2  0  0  0  0  0  0
  193.9930  175.2100  142.8890 C   0  0  1  0  0  3  0  0  0  0  0  0
  190.5210  174.5540  145.9160 S   0  0  0  0  0  0  0  0  0  0  0  0
  193.9820  173.8050  142.2690 C   0  0  1  0  0  3  0  0  0  0  0  0
  194.8370  172.5170  140.6620 C   0  0  1  0  0  3  0  0  0  0  0  0
  192.5700  176.2660  145.9270 N   0  0  0  0  0  2  0  0  0  0  0  0
  192.2170  173.0970  144.2110 O   0  0  0  0  0  0  0  0  0  0  0  0
  192.9590  175.1500  145.1460 C   0  0  0  0  0  0  0  0  0  0  0  0
  192.0340  174.2150  145.0270 C   0  0  0  0  0  0  0  0  0  0  0  0
  192.8270  173.6370  141.2970 C   0  0  2  0  0  3  0  0  0  0  0  0
  190.3010  172.8370  139.6790 C   0  0  0  0  0  1  0  0  0  0  0  0
  191.5780  173.0030  141.8930 C   0  0  0  0  0  0  0  0  0  0  0  0
  193.4090  172.7680  140.2170 C   0  0  0  0  0  2  0  0  0  0  0  0
  189.3310  172.2800  141.9960 C   0  0  2  0  0  3  0  0  0  0  0  0
  191.1920  176.2990  147.9300 C   0  0  0  0  0  1  0  0  0  0  0  0
  191.2030  176.1820  146.4180 C   0  0  2  0  0  3  0  0  0  0  0  0
  190.4190  172.7050  141.1250 N   0  0  0  0  0  0  0  0  0  0  0  0
  194.2520  175.1370  144.3890 C   0  0  0  0  0  2  0  0  0  0  0  0
  197.9400  172.3700  135.9660 C   0  0  0  0  0  2  0  0  0  0  0  0
  197.7310  172.7350  137.4460 C   0  0  0  0  0  2  0  0  0  0  0  0
  196.7390  174.9430  136.6690 C   0  0  0  0  0  2  0  0  0  0  0  0
  196.4680  173.5610  134.5800 C   0  0  0  0  0  2  0  0  0  0  0  0
  195.7410  172.6170  139.5240 N   0  0  0  0  0  2  0  0  0  0  0  0
  196.6620  172.2890  135.2700 N   0  0  0  0  0  2  0  0  0  0  0  0
  195.8250  174.6030  135.4990 C   0  0  0  0  0  2  0  0  0  0  0  0
  196.7700  173.8280  137.6170 N   0  0  0  0  0  0  0  0  0  0  0  0
  195.0760  174.7700  138.9240 O   0  0  0  0  0  0  0  0  0  0  0  0
  195.8300  173.7850  138.7000 C   0  0  0  0  0  0  0  0  0  0  0  0
  194.9080  176.1800  142.2050 C   0  0  0  0  0  0  0  0  0  0  0  0
  194.5420  176.7940  141.1660 O   0  0  0  0  0  0  0  0  0  0  0  0
  196.2290  176.4000  142.7340 C   0  0  0  0  0  0  0  0  0  0  0  0
  197.2940  176.5750  143.1460 N   0  0  0  0  0  0  0  0  0  0  0  0
  188.2030  173.3010  141.9510 C   0  0  0  0  0  2  0  0  0  0  0  0
  188.6690  174.6140  141.3420 C   0  0  0  0  0  2  0  0  0  0  0  0
  187.5470  176.7840  142.0120 C   0  0  0  0  0  0  0  0  0  0  0  0
  188.4680  175.7170  142.2730 N   0  0  0  0  0  2  0  0  0  0  0  0
  186.8640  176.7940  140.9570 O   0  0  0  0  0  0  0  0  0  0  0  0
  186.9860  176.5670  145.2220 C   0  0  2  0  0  3  0  0  0  0  0  0
  188.2240  178.6600  145.1370 F   0  0  0  0  0  0  0  0  0  0  0  0
  184.8170  178.6290  147.3870 C   0  0  0  0  0  1  0  0  0  0  0  0
  187.3750  177.8940  143.0010 C   0  0  1  0  0  3  0  0  0  0  0  0
  185.5670  177.0750  145.4950 C   0  0  1  0  0  3  0  0  0  0  0  0
  185.8460  179.7890  143.8810 C   0  0  0  0  0  2  0  0  0  0  0  0
  184.8610  176.1620  146.2880 O   0  0  0  0  0  1  0  0  0  0  0  0
  185.5400  178.5070  146.0550 C   0  0  1  0  0  3  0  0  0  0  0  0
  187.6270  176.2470  146.4220 O   0  0  0  0  0  1  0  0  0  0  0  0
  184.9290  177.8210  142.7550 O   0  0  0  0  0  1  0  0  0  0  0  0
  186.0440  178.6640  142.8550 C   0  0  2  0  0  3  0  0  0  0  0  0
  184.8960  179.4380  145.0360 C   0  0  0  0  0  2  0  0  0  0  0  0
  187.8690  177.5300  144.4140 C   0  0  2  0  0  3  0  0  0  0  0  0
  1  3  1  0  0  0  0
  1  9  1  0  0  0  0
  4 31  1  6  0  0  0
  4 20  1  0  0  0  0
  5 18  1  0  0  0  0
  6  2  1  6  0  0  0
  6  4  1  0  0  0  0
  7 25  1  6  0  0  0
  7  2  1  0  0  0  0
  8 18  1  0  0  0  0
  9 11  1  0  0  0  0
 10  8  1  0  0  0  0
 11 10  2  0  0  0  0
 11  5  1  0  0  0  0
 12 15  1  6  0  0  0
 12 14  1  0  0  0  0
 12  6  1  0  0  0  0
 13 19  1  0  0  0  0
 14  1  2  0  0  0  0
 15  7  1  0  0  0  0
 16 35  1  1  0  0  0
 16  3  1  0  0  0  0
 18 17  1  1  0  0  0
 19 14  1  0  0  0  0
 19 16  1  0  0  0  0
 20 10  1  0  0  0  0
 21 22  1  0  0  0  0
 22 28  1  0  0  0  0
 23 28  1  0  0  0  0
 24 26  1  0  0  0  0
 24 27  1  0  0  0  0
 26 21  1  0  0  0  0
 27 23  1  0  0  0  0
 28 30  1  0  0  0  0
 30 29  2  0  0  0  0
 30 25  1  0  0  0  0
 31 33  1  0  0  0  0
 32 31  2  0  0  0  0
 33 34  3  0  0  0  0
 36 35  1  0  0  0  0
 36 38  1  0  0  0  0
 37 38  1  0  0  0  0
 39 37  2  0  0  0  0
 40 44  1  0  0  0  0
 40 48  1  1  0  0  0
 43 37  1  6  0  0  0
 43 52  1  0  0  0  0
 44 47  1  0  0  0  0
 44 46  1  1  0  0  0
 45 51  1  0  0  0  0
 47 42  1  1  0  0  0
 50 49  1  1  0  0  0
 50 43  1  0  0  0  0
 50 45  1  0  0  0  0
 51 47  1  0  0  0  0
 52 41  1  1  0  0  0
 52 40  1  0  0  0  0
M  END
>  <MODEL>
1

>  <REMARK>
 VINA RESULT:      -9.0      0.000      0.000
  Name = 
  7 active torsions:
  status: ('A' for Active; 'I' for Inactive)
    1  A    between atoms: C_1  and  C_14
    2  A    between atoms: C_11  and  C_24
    3  A    between atoms: C_15  and  C_43
    4  A    between atoms: C_15  and  C_45
    5  A    between atoms: N_20  and  C_45
    6  A    between atoms: C_22  and  N_28
    7  A    between atoms: C_24  and  C_27
                            x       y       z     vdW  Elec       q    Type
                         _______ _______ _______ _____ _____    ______ ____

>  <TORSDO>
F 7

$$$$
=
 OpenBabel11042416013D

 52 57  0  0  1  0  0  0  0  0999 V2000
  193.6930  174.4300  145.5400 C   0  0  0  0  0  0  0  0  0  0  0  0
  189.4940  174.0130  145.5070 O   0  0  0  0  0  0  0  0  0  0  0  0
  195.0710  174.9550  145.7750 C   0  0  0  0  0  2  0  0  0  0  0  0
  190.9060  172.9200  143.8260 C   0  0  1  0  0  3  0  0  0  0  0  0
  195.4300  171.9020  144.2090 S   0  0  0  0  0  0  0  0  0  0  0  0
  190.8110  173.8530  145.0410 C   0  0  1  0  0  3  0  0  0  0  0  0
  189.4860  175.2540  146.1610 C   0  0  1  0  0  3  0  0  0  0  0  0
  193.4140  170.5730  143.0660 N   0  0  0  0  0  0  0  0  0  0  0  0
  193.3420  173.0890  145.6700 O   0  0  0  0  0  0  0  0  0  0  0  0
  192.8560  171.4020  144.0720 C   0  0  0  0  0  0  0  0  0  0  0  0
  193.7340  172.1450  144.7200 C   0  0  1  0  0  3  0  0  0  0  0  0
  191.4040  175.2180  144.7400 C   0  0  2  0  0  3  0  0  0  0  0  0
  192.9890  177.8830  144.5910 C   0  0  0  0  0  1  0  0  0  0  0  0
  192.8560  175.3900  145.1620 C   0  0  0  0  0  0  0  0  0  0  0  0
  190.5080  176.1590  145.4980 C   0  0  0  0  0  2  0  0  0  0  0  0
  194.9730  176.4260  145.3370 C   0  0  2  0  0  3  0  0  0  0  0  0
  195.5380  169.3920  143.0930 C   0  0  0  0  0  1  0  0  0  0  0  0
  194.8520  170.7330  142.9160 C   0  0  2  0  0  3  0  0  0  0  0  0
  193.5630  176.6160  145.0240 N   0  0  0  0  0  0  0  0  0  0  0  0
  191.3730  171.5310  144.2450 C   0  0  0  0  0  2  0  0  0  0  0  0
  184.6160  178.0800  146.1660 C   0  0  0  0  0  2  0  0  0  0  0  0
  185.4380  176.7890  146.0100 C   0  0  0  0  0  2  0  0  0  0  0  0
  185.7250  177.3750  143.5530 C   0  0  0  0  0  2  0  0  0  0  0  0
  185.1570  179.6410  144.4980 C   0  0  0  0  0  2  0  0  0  0  0  0
  188.1580  175.8430  146.0620 N   0  0  0  0  0  2  0  0  0  0  0  0
  185.4360  179.2510  145.8780 N   0  0  0  0  0  2  0  0  0  0  0  0
  186.0340  178.8670  143.5120 C   0  0  0  0  0  2  0  0  0  0  0  0
  186.2490  176.7930  144.7890 N   0  0  0  0  0  0  0  0  0  0  0  0
  188.2420  176.1490  143.7520 O   0  0  0  0  0  0  0  0  0  0  0  0
  187.5790  176.2550  144.8180 C   0  0  0  0  0  0  0  0  0  0  0  0
  189.6650  172.8680  142.9870 C   0  0  0  0  0  0  0  0  0  0  0  0
  188.7530  172.0310  143.2310 O   0  0  0  0  0  0  0  0  0  0  0  0
  189.5210  173.7750  141.8780 C   0  0  0  0  0  0  0  0  0  0  0  0
  189.3940  174.4980  140.9860 N   0  0  0  0  0  0  0  0  0  0  0  0
  195.8150  176.6440  144.0890 C   0  0  0  0  0  2  0  0  0  0  0  0
  196.4760  175.3530  143.6340 C   0  0  0  0  0  2  0  0  0  0  0  0
  195.3220  174.8470  141.4370 C   0  0  0  0  0  0  0  0  0  0  0  0
  196.4770  175.2540  142.1800 N   0  0  0  0  0  2  0  0  0  0  0  0
  194.2490  174.5660  142.0280 O   0  0  0  0  0  0  0  0  0  0  0  0
  193.1330  173.5240  139.4070 C   0  0  2  0  0  3  0  0  0  0  0  0
  194.0450  175.2720  137.9830 F   0  0  0  0  0  0  0  0  0  0  0  0
  193.6550  171.5640  136.3190 C   0  0  0  0  0  1  0  0  0  0  0  0
  195.3740  174.7630  139.9440 C   0  0  1  0  0  3  0  0  0  0  0  0
  193.7590  172.2750  138.7780 C   0  0  1  0  0  3  0  0  0  0  0  0
  196.4680  173.6520  137.8770 C   0  0  0  0  0  2  0  0  0  0  0  0
  192.8890  171.1820  138.8810 O   0  0  0  0  0  1  0  0  0  0  0  0
  194.2590  172.5130  137.3430 C   0  0  1  0  0  3  0  0  0  0  0  0
  191.8660  173.7570  138.8670 O   0  0  0  0  0  1  0  0  0  0  0  0
  196.3690  172.5160  140.0400 O   0  0  0  0  0  1  0  0  0  0  0  0
  196.4240  173.7650  139.4070 C   0  0  2  0  0  3  0  0  0  0  0  0
  195.7770  172.4020  137.3100 C   0  0  0  0  0  2  0  0  0  0  0  0
  193.9810  174.7980  139.2860 C   0  0  2  0  0  3  0  0  0  0  0  0
  1  9  1  0  0  0  0
  1  3  1  0  0  0  0
  2  7  1  0  0  0  0
  4 31  1  1  0  0  0
  4 20  1  0  0  0  0
  4  6  1  0  0  0  0
  5 11  1  0  0  0  0
  6  2  1  6  0  0  0
  7 25  1  6  0  0  0
  8 10  2  0  0  0  0
 10 20  1  0  0  0  0
 11 10  1  6  0  0  0
 11  9  1  0  0  0  0
 12  6  1  0  0  0  0
 12 14  1  0  0  0  0
 12 15  1  1  0  0  0
 13 19  1  0  0  0  0
 14  1  2  0  0  0  0
 15  7  1  0  0  0  0
 16 35  1  6  0  0  0
 16  3  1  0  0  0  0
 18  8  1  0  0  0  0
 18 17  1  1  0  0  0
 18  5  1  0  0  0  0
 19 14  1  0  0  0  0
 19 16  1  0  0  0  0
 22 21  1  0  0  0  0
 23 28  1  0  0  0  0
 24 26  1  0  0  0  0
 26 21  1  0  0  0  0
 27 23  1  0  0  0  0
 27 24  1  0  0  0  0
 28 30  1  0  0  0  0
 28 22  1  0  0  0  0
 29 30  2  0  0  0  0
 30 25  1  0  0  0  0
 31 32  2  0  0  0  0
 33 31  1  0  0  0  0
 34 33  3  0  0  0  0
 36 35  1  0  0  0  0
 37 39  2  0  0  0  0
 37 38  1  0  0  0  0
 38 36  1  0  0  0  0
 40 48  1  6  0  0  0
 43 37  1  1  0  0  0
 44 46  1  6  0  0  0
 44 40  1  0  0  0  0
 45 50  1  0  0  0  0
 47 42  1  6  0  0  0
 47 44  1  0  0  0  0
 50 43  1  0  0  0  0
 50 49  1  1  0  0  0
 51 47  1  0  0  0  0
 51 45  1  0  0  0  0
 52 41  1  6  0  0  0
 52 40  1  0  0  0  0
 52 43  1  0  0  0  0
M  END
>  <MODEL>
2

>  <REMARK>
 VINA RESULT:      -8.6      2.787      9.844
  Name = 
  7 active torsions:
  status: ('A' for Active; 'I' for Inactive)
    1  A    between atoms: C_1  and  C_14
    2  A    between atoms: C_11  and  C_24
    3  A    between atoms: C_15  and  C_43
    4  A    between atoms: C_15  and  C_45
    5  A    between atoms: N_20  and  C_45
    6  A    between atoms: C_22  and  N_28
    7  A    between atoms: C_24  and  C_27
                            x       y       z     vdW  Elec       q    Type
                         _______ _______ _______ _____ _____    ______ ____

>  <TORSDO>
F 7

$$$$
=
 OpenBabel11042416013D

 52 57  0  0  1  0  0  0  0  0999 V2000
  192.7810  173.2330  144.9050 C   0  0  0  0  0  0  0  0  0  0  0  0
  188.9080  174.6320  143.9780 O   0  0  0  0  0  0  0  0  0  0  0  0
  194.1250  173.0740  145.5330 C   0  0  0  0  0  2  0  0  0  0  0  0
  190.2570  173.4050  142.3380 C   0  0  1  0  0  3  0  0  0  0  0  0
  193.8050  170.5300  143.2250 S   0  0  0  0  0  0  0  0  0  0  0  0
  190.1550  174.0300  143.7360 C   0  0  1  0  0  3  0  0  0  0  0  0
  189.1560  175.6050  144.9590 C   0  0  1  0  0  3  0  0  0  0  0  0
  191.8680  170.4250  141.3900 N   0  0  0  0  0  0  0  0  0  0  0  0
  191.9530  172.1670  144.5630 O   0  0  0  0  0  0  0  0  0  0  0  0
  191.3780  171.1940  142.4750 C   0  0  0  0  0  0  0  0  0  0  0  0
  192.2380  171.3550  143.4650 C   0  0  1  0  0  3  0  0  0  0  0  0
  191.2560  175.0510  143.9680 C   0  0  2  0  0  3  0  0  0  0  0  0
  193.6580  176.7760  144.9120 C   0  0  0  0  0  1  0  0  0  0  0  0
  192.4870  174.5100  144.6820 C   0  0  0  0  0  0  0  0  0  0  0  0
  190.5770  176.1080  144.7940 C   0  0  0  0  0  2  0  0  0  0  0  0
  194.6880  174.5050  145.5420 C   0  0  2  0  0  3  0  0  0  0  0  0
  193.3270  168.4830  141.4540 C   0  0  0  0  0  1  0  0  0  0  0  0
  193.2460  169.9930  141.5600 C   0  0  2  0  0  3  0  0  0  0  0  0
  193.5920  175.3270  145.0460 N   0  0  0  0  0  0  0  0  0  0  0  0
  190.0560  171.8950  142.4040 C   0  0  0  0  0  2  0  0  0  0  0  0
  185.0770  179.3700  144.0130 C   0  0  0  0  0  2  0  0  0  0  0  0
  186.5390  178.9960  144.3150 C   0  0  0  0  0  2  0  0  0  0  0  0
  185.9450  179.0380  146.7860 C   0  0  0  0  0  2  0  0  0  0  0  0
  183.6570  178.7420  145.7730 C   0  0  0  0  0  2  0  0  0  0  0  0
  188.2130  176.7030  144.7970 N   0  0  0  0  0  2  0  0  0  0  0  0
  184.1730  178.3230  144.4730 N   0  0  0  0  0  2  0  0  0  0  0  0
  184.6000  178.3320  146.9060 C   0  0  0  0  0  2  0  0  0  0  0  0
  186.7070  178.4720  145.6730 N   0  0  0  0  0  0  0  0  0  0  0  0
  187.8370  176.9870  147.0810 O   0  0  0  0  0  0  0  0  0  0  0  0
  187.5980  177.3720  145.9050 C   0  0  0  0  0  0  0  0  0  0  0  0
  189.3750  174.0460  141.3090 C   0  0  0  0  0  0  0  0  0  0  0  0
  189.2310  175.2980  141.2690 O   0  0  0  0  0  0  0  0  0  0  0  0
  188.6710  173.2170  140.3650 C   0  0  0  0  0  0  0  0  0  0  0  0
  188.1170  172.5480  139.6040 N   0  0  0  0  0  0  0  0  0  0  0  0
  195.8730  174.5930  144.5920 C   0  0  0  0  0  2  0  0  0  0  0  0
  195.8000  173.5220  143.5150 C   0  0  0  0  0  2  0  0  0  0  0  0
  194.8940  174.2530  141.2650 C   0  0  0  0  0  0  0  0  0  0  0  0
  195.9780  174.1050  142.1910 N   0  0  0  0  0  2  0  0  0  0  0  0
  193.7330  173.8870  141.5780 O   0  0  0  0  0  0  0  0  0  0  0  0
  193.7260  173.2780  138.3770 C   0  0  2  0  0  3  0  0  0  0  0  0
  193.9170  175.6700  137.9820 F   0  0  0  0  0  0  0  0  0  0  0  0
  195.3640  173.2060  135.0660 C   0  0  0  0  0  1  0  0  0  0  0  0
  195.1280  174.8590  139.9180 C   0  0  1  0  0  3  0  0  0  0  0  0
  194.8960  172.7470  137.5420 C   0  0  1  0  0  3  0  0  0  0  0  0
  196.8010  175.2420  137.9790 C   0  0  0  0  0  2  0  0  0  0  0  0
  194.5880  171.4910  137.0040 O   0  0  0  0  0  1  0  0  0  0  0  0
  195.3830  173.7520  136.4850 C   0  0  1  0  0  3  0  0  0  0  0  0
  192.5460  173.2570  137.6280 O   0  0  0  0  0  1  0  0  0  0  0  0
  196.9930  173.3180  139.4770 O   0  0  0  0  0  1  0  0  0  0  0  0
  196.5580  174.6460  139.3730 C   0  0  2  0  0  3  0  0  0  0  0  0
  196.7910  174.2150  136.8360 C   0  0  0  0  0  2  0  0  0  0  0  0
  193.9360  174.6830  138.9580 C   0  0  2  0  0  3  0  0  0  0  0  0
  1  3  1  0  0  0  0
  2  7  1  0  0  0  0
  3 16  1  0  0  0  0
  4 31  1  6  0  0  0
  4 20  1  0  0  0  0
  4  6  1  0  0  0  0
  5 11  1  0  0  0  0
  6 12  1  0  0  0  0
  6  2  1  6  0  0  0
  7 25  1  6  0  0  0
  8 18  1  0  0  0  0
  8 10  2  0  0  0  0
  9  1  1  0  0  0  0
 11 10  1  6  0  0  0
 11  9  1  0  0  0  0
 12 14  1  0  0  0  0
 12 15  1  1  0  0  0
 13 19  1  0  0  0  0
 14  1  2  0  0  0  0
 14 19  1  0  0  0  0
 15  7  1  0  0  0  0
 16 35  1  6  0  0  0
 18 17  1  1  0  0  0
 18  5  1  0  0  0  0
 19 16  1  0  0  0  0
 20 10  1  0  0  0  0
 21 22  1  0  0  0  0
 21 26  1  0  0  0  0
 22 28  1  0  0  0  0
 23 27  1  0  0  0  0
 24 27  1  0  0  0  0
 25 30  1  0  0  0  0
 26 24  1  0  0  0  0
 28 30  1  0  0  0  0
 28 23  1  0  0  0  0
 30 29  2  0  0  0  0
 32 31  2  0  0  0  0
 33 31  1  0  0  0  0
 34 33  3  0  0  0  0
 36 35  1  0  0  0  0
 37 39  2  0  0  0  0
 37 38  1  0  0  0  0
 38 36  1  0  0  0  0
 40 48  1  6  0  0  0
 40 52  1  0  0  0  0
 43 37  1  1  0  0  0
 44 46  1  6  0  0  0
 44 40  1  0  0  0  0
 45 50  1  0  0  0  0
 47 42  1  6  0  0  0
 47 51  1  0  0  0  0
 47 44  1  0  0  0  0
 50 49  1  6  0  0  0
 50 43  1  0  0  0  0
 51 45  1  0  0  0  0
 52 41  1  6  0  0  0
 52 43  1  0  0  0  0
M  END
>  <MODEL>
3

>  <REMARK>
 VINA RESULT:      -8.5      2.783     10.233
  Name = 
  7 active torsions:
  status: ('A' for Active; 'I' for Inactive)
    1  A    between atoms: C_1  and  C_14
    2  A    between atoms: C_11  and  C_24
    3  A    between atoms: C_15  and  C_43
    4  A    between atoms: C_15  and  C_45
    5  A    between atoms: N_20  and  C_45
    6  A    between atoms: C_22  and  N_28
    7  A    between atoms: C_24  and  C_27
                            x       y       z     vdW  Elec       q    Type
                         _______ _______ _______ _____ _____    ______ ____

>  <TORSDO>
F 7

$$$$
=
 OpenBabel11042416013D

 52 57  0  0  1  0  0  0  0  0999 V2000
  192.0280  173.3300  140.0830 C   0  0  0  0  0  0  0  0  0  0  0  0
  190.2300  176.2240  142.5740 O   0  0  0  0  0  0  0  0  0  0  0  0
  192.2330  172.1810  139.1540 C   0  0  0  0  0  2  0  0  0  0  0  0
  192.5720  175.5580  142.8640 C   0  0  1  0  0  3  0  0  0  0  0  0
  195.3360  173.5960  139.6770 S   0  0  0  0  0  0  0  0  0  0  0  0
  191.2440  175.3630  142.1190 C   0  0  1  0  0  3  0  0  0  0  0  0
  189.0280  175.5690  142.2650 C   0  0  1  0  0  3  0  0  0  0  0  0
  195.8410  175.4070  141.5730 N   0  0  0  0  0  2  0  0  0  0  0  0
  192.7060  174.5420  139.9810 O   0  0  0  0  0  0  0  0  0  0  0  0
  194.4630  175.5040  141.2560 C   0  0  0  0  0  0  0  0  0  0  0  0
  194.0510  174.6490  140.3380 C   0  0  0  0  0  0  0  0  0  0  0  0
  190.7600  173.9270  142.2150 C   0  0  2  0  0  3  0  0  0  0  0  0
  189.7990  171.0040  141.7990 C   0  0  0  0  0  1  0  0  0  0  0  0
  191.1470  173.0440  141.0370 C   0  0  0  0  0  0  0  0  0  0  0  0
  189.2660  174.0710  142.3110 C   0  0  0  0  0  2  0  0  0  0  0  0
  191.4030  171.0540  139.7890 C   0  0  2  0  0  3  0  0  0  0  0  0
  197.7030  174.9330  140.0850 C   0  0  0  0  0  1  0  0  0  0  0  0
  196.5300  174.3510  140.8500 C   0  0  2  0  0  3  0  0  0  0  0  0
  190.7310  171.6900  140.9140 N   0  0  0  0  0  0  0  0  0  0  0  0
  193.5410  176.3920  142.0340 C   0  0  0  0  0  2  0  0  0  0  0  0
  185.6140  177.3920  146.3540 C   0  0  0  0  0  2  0  0  0  0  0  0
  185.9780  176.4160  145.2220 C   0  0  0  0  0  2  0  0  0  0  0  0
  184.8160  177.9980  143.6060 C   0  0  0  0  0  2  0  0  0  0  0  0
  185.2680  179.5620  145.5290 C   0  0  0  0  0  2  0  0  0  0  0  0
  188.0100  175.9440  143.2360 N   0  0  0  0  0  2  0  0  0  0  0  0
  186.2570  178.6840  146.1470 N   0  0  0  0  0  2  0  0  0  0  0  0
  185.2520  179.4010  144.0070 C   0  0  0  0  0  2  0  0  0  0  0  0
  185.8840  177.0420  143.9000 N   0  0  0  0  0  0  0  0  0  0  0  0
  186.7350  177.1830  141.7270 O   0  0  0  0  0  0  0  0  0  0  0  0
  186.8680  176.7410  142.9000 C   0  0  0  0  0  0  0  0  0  0  0  0
  192.4270  176.0850  144.2590 C   0  0  0  0  0  0  0  0  0  0  0  0
  192.8000  177.2540  144.5530 O   0  0  0  0  0  0  0  0  0  0  0  0
  191.8710  175.2370  145.2820 C   0  0  0  0  0  0  0  0  0  0  0  0
  191.4140  174.5650  146.1030 N   0  0  0  0  0  0  0  0  0  0  0  0
  192.3300  169.9570  140.2920 C   0  0  0  0  0  2  0  0  0  0  0  0
  193.7900  170.3270  140.0800 C   0  0  0  0  0  2  0  0  0  0  0  0
  195.0470  169.3490  142.0500 C   0  0  0  0  0  0  0  0  0  0  0  0
  194.4790  170.4670  141.3570 N   0  0  0  0  0  2  0  0  0  0  0  0
  194.9740  168.1920  141.5630 O   0  0  0  0  0  0  0  0  0  0  0  0
  194.4560  171.5980  144.3430 C   0  0  2  0  0  3  0  0  0  0  0  0
  195.2810  169.7740  145.7250 F   0  0  0  0  0  0  0  0  0  0  0  0
  196.8170  173.4830  146.4680 C   0  0  0  0  0  1  0  0  0  0  0  0
  195.7460  169.5450  143.3580 C   0  0  1  0  0  3  0  0  0  0  0  0
  195.6460  172.5610  144.3850 C   0  0  1  0  0  3  0  0  0  0  0  0
  197.8960  170.3360  144.5640 C   0  0  0  0  0  2  0  0  0  0  0  0
  195.2070  173.8900  144.3380 O   0  0  0  0  0  1  0  0  0  0  0  0
  196.6010  172.2840  145.5590 C   0  0  1  0  0  3  0  0  0  0  0  0
  193.5320  171.9240  145.3390 O   0  0  0  0  0  1  0  0  0  0  0  0
  197.2590  171.2140  142.3720 O   0  0  0  0  0  1  0  0  0  0  0  0
  197.1790  170.1060  143.2260 C   0  0  2  0  0  3  0  0  0  0  0  0
  197.9410  171.8020  145.0190 C   0  0  0  0  0  2  0  0  0  0  0  0
  194.8270  170.1120  144.4580 C   0  0  2  0  0  3  0  0  0  0  0  0
  1 14  2  0  0  0  0
  3 16  1  0  0  0  0
  3  1  1  0  0  0  0
  4 31  1  1  0  0  0
  5 11  1  0  0  0  0
  5 18  1  0  0  0  0
  6 12  1  0  0  0  0
  6  2  1  1  0  0  0
  6  4  1  0  0  0  0
  7 15  1  0  0  0  0
  7  2  1  0  0  0  0
  7 25  1  1  0  0  0
  9  1  1  0  0  0  0
  9 11  1  0  0  0  0
 10  8  1  0  0  0  0
 10 20  1  0  0  0  0
 11 10  2  0  0  0  0
 12 15  1  6  0  0  0
 14 12  1  0  0  0  0
 16 35  1  1  0  0  0
 16 19  1  0  0  0  0
 18 17  1  6  0  0  0
 18  8  1  0  0  0  0
 19 14  1  0  0  0  0
 19 13  1  0  0  0  0
 20  4  1  0  0  0  0
 22 21  1  0  0  0  0
 23 28  1  0  0  0  0
 23 27  1  0  0  0  0
 24 26  1  0  0  0  0
 26 21  1  0  0  0  0
 27 24  1  0  0  0  0
 28 22  1  0  0  0  0
 29 30  2  0  0  0  0
 30 25  1  0  0  0  0
 30 28  1  0  0  0  0
 31 32  2  0  0  0  0
 31 33  1  0  0  0  0
 33 34  3  0  0  0  0
 36 35  1  0  0  0  0
 36 38  1  0  0  0  0
 38 37  1  0  0  0  0
 39 37  2  0  0  0  0
 40 44  1  0  0  0  0
 40 52  1  0  0  0  0
 40 48  1  1  0  0  0
 43 37  1  6  0  0  0
 43 52  1  0  0  0  0
 44 46  1  1  0  0  0
 44 47  1  0  0  0  0
 45 51  1  0  0  0  0
 47 42  1  6  0  0  0
 50 49  1  1  0  0  0
 50 43  1  0  0  0  0
 50 45  1  0  0  0  0
 51 47  1  0  0  0  0
 52 41  1  1  0  0  0
M  END
>  <MODEL>
4

>  <REMARK>
 VINA RESULT:      -8.4      3.330      9.640
  Name = 
  7 active torsions:
  status: ('A' for Active; 'I' for Inactive)
    1  A    between atoms: C_1  and  C_14
    2  A    between atoms: C_11  and  C_24
    3  A    between atoms: C_15  and  C_43
    4  A    between atoms: C_15  and  C_45
    5  A    between atoms: N_20  and  C_45
    6  A    between atoms: C_22  and  N_28
    7  A    between atoms: C_24  and  C_27
                            x       y       z     vdW  Elec       q    Type
                         _______ _______ _______ _____ _____    ______ ____

>  <TORSDO>
F 7

$$$$
=
 OpenBabel11042416013D

 52 57  0  0  1  0  0  0  0  0999 V2000
  192.6790  173.5180  142.4000 C   0  0  0  0  0  0  0  0  0  0  0  0
  190.2600  176.2730  144.4900 O   0  0  0  0  0  0  0  0  0  0  0  0
  193.1550  172.4980  141.4200 C   0  0  0  0  0  2  0  0  0  0  0  0
  192.1930  175.2000  145.5510 C   0  0  1  0  0  3  0  0  0  0  0  0
  195.8590  173.2990  143.4080 S   0  0  0  0  0  0  0  0  0  0  0  0
  191.2910  175.3340  144.3150 C   0  0  1  0  0  3  0  0  0  0  0  0
  189.2480  175.8740  143.6030 C   0  0  1  0  0  3  0  0  0  0  0  0
  195.6740  174.7080  145.6690 N   0  0  0  0  0  2  0  0  0  0  0  0
  193.4400  174.6050  142.8200 O   0  0  0  0  0  0  0  0  0  0  0  0
  194.5730  175.0730  144.8540 C   0  0  0  0  0  0  0  0  0  0  0  0
  194.5130  174.4390  143.6970 C   0  0  0  0  0  0  0  0  0  0  0  0
  190.6880  173.9970  143.9210 C   0  0  2  0  0  3  0  0  0  0  0  0
  189.7400  171.3620  142.5830 C   0  0  0  0  0  1  0  0  0  0  0  0
  191.4570  173.2430  142.8450 C   0  0  0  0  0  0  0  0  0  0  0  0
  189.3120  174.3670  143.4400 C   0  0  0  0  0  2  0  0  0  0  0  0
  192.0390  171.4410  141.4330 C   0  0  2  0  0  3  0  0  0  0  0  0
  197.9410  174.1590  144.9840 C   0  0  0  0  0  1  0  0  0  0  0  0
  196.5090  173.6700  145.0850 C   0  0  2  0  0  3  0  0  0  0  0  0
  191.0140  172.0070  142.2990 N   0  0  0  0  0  0  0  0  0  0  0  0
  193.4900  175.9770  145.3600 C   0  0  0  0  0  2  0  0  0  0  0  0
  184.5970  177.8990  146.0460 C   0  0  0  0  0  2  0  0  0  0  0  0
  185.3810  176.7870  145.3270 C   0  0  0  0  0  2  0  0  0  0  0  0
  184.6070  177.7900  143.1230 C   0  0  0  0  0  2  0  0  0  0  0  0
  184.3000  179.7670  144.6550 C   0  0  0  0  0  2  0  0  0  0  0  0
  187.9530  176.2650  144.1410 N   0  0  0  0  0  2  0  0  0  0  0  0
  185.1400  179.2100  145.7120 N   0  0  0  0  0  2  0  0  0  0  0  0
  184.7600  179.2990  143.2720 C   0  0  0  0  0  2  0  0  0  0  0  0
  185.6270  177.1060  143.9180 N   0  0  0  0  0  0  0  0  0  0  0  0
  187.0750  176.9410  142.0900 O   0  0  0  0  0  0  0  0  0  0  0  0
  186.8920  176.7760  143.3260 C   0  0  0  0  0  0  0  0  0  0  0  0
  191.5200  175.5350  146.8470 C   0  0  0  0  0  0  0  0  0  0  0  0
  192.0750  176.2950  147.6880 O   0  0  0  0  0  0  0  0  0  0  0  0
  190.2300  174.9680  147.1430 C   0  0  0  0  0  0  0  0  0  0  0  0
  189.1950  174.5080  147.3680 N   0  0  0  0  0  0  0  0  0  0  0  0
  192.5680  170.1470  142.0340 C   0  0  0  0  0  2  0  0  0  0  0  0
  192.7400  169.0730  140.9720 C   0  0  0  0  0  2  0  0  0  0  0  0
  191.3180  169.2590  138.8840 C   0  0  0  0  0  0  0  0  0  0  0  0
  192.4810  169.6110  139.6430 N   0  0  0  0  0  2  0  0  0  0  0  0
  190.4640  168.4670  139.3570 O   0  0  0  0  0  0  0  0  0  0  0  0
  192.7620  171.8590  137.5360 C   0  0  2  0  0  3  0  0  0  0  0  0
  192.3210  170.5270  135.5490 F   0  0  0  0  0  0  0  0  0  0  0  0
  191.3460  174.4870  135.3610 C   0  0  0  0  0  1  0  0  0  0  0  0
  191.0970  169.8410  137.5240 C   0  0  1  0  0  3  0  0  0  0  0  0
  191.7140  172.9660  137.3890 C   0  0  1  0  0  3  0  0  0  0  0  0
  189.5110  171.1780  135.9750 C   0  0  0  0  0  2  0  0  0  0  0  0
  192.1960  174.1740  137.9060 O   0  0  0  0  0  1  0  0  0  0  0  0
  191.1790  173.0960  135.9520 C   0  0  1  0  0  3  0  0  0  0  0  0
  193.9790  172.2660  136.9830 O   0  0  0  0  0  1  0  0  0  0  0  0
  189.4520  171.4430  138.4050 O   0  0  0  0  0  1  0  0  0  0  0  0
  189.7360  170.5550  137.3590 C   0  0  2  0  0  3  0  0  0  0  0  0
  189.7080  172.7000  135.9210 C   0  0  0  0  0  2  0  0  0  0  0  0
  192.3570  170.5050  136.9360 C   0  0  2  0  0  3  0  0  0  0  0  0
  1  9  1  0  0  0  0
  1 14  2  0  0  0  0
  3 16  1  0  0  0  0
  3  1  1  0  0  0  0
  4 31  1  1  0  0  0
  5 11  1  0  0  0  0
  5 18  1  0  0  0  0
  6  2  1  1  0  0  0
  6  4  1  0  0  0  0
  7 25  1  1  0  0  0
  7  2  1  0  0  0  0
  9 11  1  0  0  0  0
 10 20  1  0  0  0  0
 10  8  1  0  0  0  0
 11 10  2  0  0  0  0
 12 15  1  6  0  0  0
 12  6  1  0  0  0  0
 14 12  1  0  0  0  0
 15  7  1  0  0  0  0
 16 35  1  1  0  0  0
 16 19  1  0  0  0  0
 18 17  1  6  0  0  0
 18  8  1  0  0  0  0
 19 13  1  0  0  0  0
 19 14  1  0  0  0  0
 20  4  1  0  0  0  0
 22 21  1  0  0  0  0
 23 27  1  0  0  0  0
 23 28  1  0  0  0  0
 24 26  1  0  0  0  0
 26 21  1  0  0  0  0
 27 24  1  0  0  0  0
 28 22  1  0  0  0  0
 29 30  2  0  0  0  0
 30 28  1  0  0  0  0
 30 25  1  0  0  0  0
 31 33  1  0  0  0  0
 31 32  2  0  0  0  0
 33 34  3  0  0  0  0
 36 35  1  0  0  0  0
 37 39  2  0  0  0  0
 37 38  1  0  0  0  0
 38 36  1  0  0  0  0
 40 48  1  6  0  0  0
 43 37  1  1  0  0  0
 44 40  1  0  0  0  0
 44 46  1  6  0  0  0
 45 50  1  0  0  0  0
 47 42  1  1  0  0  0
 47 44  1  0  0  0  0
 50 43  1  0  0  0  0
 50 49  1  1  0  0  0
 51 47  1  0  0  0  0
 51 45  1  0  0  0  0
 52 41  1  6  0  0  0
 52 43  1  0  0  0  0
 52 40  1  0  0  0  0
M  END
>  <MODEL>
5

>  <REMARK>
 VINA RESULT:      -8.4      3.617      9.451
  Name = 
  7 active torsions:
  status: ('A' for Active; 'I' for Inactive)
    1  A    between atoms: C_1  and  C_14
    2  A    between atoms: C_11  and  C_24
    3  A    between atoms: C_15  and  C_43
    4  A    between atoms: C_15  and  C_45
    5  A    between atoms: N_20  and  C_45
    6  A    between atoms: C_22  and  N_28
    7  A    between atoms: C_24  and  C_27
                            x       y       z     vdW  Elec       q    Type
                         _______ _______ _______ _____ _____    ______ ____

>  <TORSDO>
F 7

$$$$
=
 OpenBabel11042416013D

 52 57  0  0  1  0  0  0  0  0999 V2000
  192.3890  172.6100  143.6290 C   0  0  0  0  0  0  0  0  0  0  0  0
  192.4750  171.8740  139.4740 O   0  0  0  0  0  0  0  0  0  0  0  0
  191.9430  173.0120  144.9950 C   0  0  0  0  0  2  0  0  0  0  0  0
  194.5350  172.2230  140.7590 C   0  0  1  0  0  3  0  0  0  0  0  0
  195.1000  171.6630  145.3430 S   0  0  0  0  0  0  0  0  0  0  0  0
  193.0000  172.1760  140.7420 C   0  0  1  0  0  3  0  0  0  0  0  0
  191.1850  172.4260  139.4710 C   0  0  1  0  0  3  0  0  0  0  0  0
  196.7240  171.1390  143.2890 N   0  0  0  0  0  0  0  0  0  0  0  0
  193.1180  171.4540  143.3590 O   0  0  0  0  0  0  0  0  0  0  0  0
  195.3960  171.0950  142.7970 C   0  0  0  0  0  0  0  0  0  0  0  0
  194.4680  171.3570  143.6980 C   0  0  1  0  0  3  0  0  0  0  0  0
  192.4010  173.4830  141.2320 C   0  0  2  0  0  3  0  0  0  0  0  0
  190.9120  175.8030  142.6590 C   0  0  0  0  0  1  0  0  0  0  0  0
  192.0360  173.5030  142.7100 C   0  0  0  0  0  0  0  0  0  0  0  0
  191.1770  173.6450  140.3740 C   0  0  0  0  0  2  0  0  0  0  0  0
  191.3500  174.4140  144.7790 C   0  0  2  0  0  3  0  0  0  0  0  0
  197.5520  170.4270  145.4610 C   0  0  0  0  0  1  0  0  0  0  0  0
  196.8100  171.5050  144.6940 C   0  0  2  0  0  3  0  0  0  0  0  0
  191.4040  174.6120  143.3370 N   0  0  0  0  0  0  0  0  0  0  0  0
  195.1090  170.9340  141.3350 C   0  0  0  0  0  2  0  0  0  0  0  0
  189.2410  174.2530  134.5130 C   0  0  0  0  0  2  0  0  0  0  0  0
  190.0750  173.2880  135.3740 C   0  0  0  0  0  2  0  0  0  0  0  0
  192.0120  174.9220  135.1670 C   0  0  0  0  0  2  0  0  0  0  0  0
  190.0750  176.4430  134.6370 C   0  0  0  0  0  2  0  0  0  0  0  0
  190.8260  172.8060  138.1120 N   0  0  0  0  0  2  0  0  0  0  0  0
  189.0750  175.5340  135.1880 N   0  0  0  0  0  2  0  0  0  0  0  0
  191.4140  176.3090  135.3660 C   0  0  0  0  0  2  0  0  0  0  0  0
  191.2580  173.9380  135.9450 N   0  0  0  0  0  0  0  0  0  0  0  0
  192.7330  174.0980  137.7520 O   0  0  0  0  0  0  0  0  0  0  0  0
  191.6570  173.6340  137.2900 C   0  0  0  0  0  0  0  0  0  0  0  0
  195.1560  172.5770  139.4420 C   0  0  0  0  0  0  0  0  0  0  0  0
  195.2960  171.7110  138.5360 O   0  0  0  0  0  0  0  0  0  0  0  0
  195.6170  173.9230  139.2160 C   0  0  0  0  0  0  0  0  0  0  0  0
  195.9900  175.0030  139.0480 N   0  0  0  0  0  0  0  0  0  0  0  0
  192.2200  175.4500  145.4770 C   0  0  0  0  0  2  0  0  0  0  0  0
  191.4010  176.3110  146.4260 C   0  0  0  0  0  2  0  0  0  0  0  0
  189.0970  176.9170  145.5650 C   0  0  0  0  0  0  0  0  0  0  0  0
  189.9770  176.0380  146.2760 N   0  0  0  0  0  2  0  0  0  0  0  0
  189.5380  177.9650  145.0300 O   0  0  0  0  0  0  0  0  0  0  0  0
  186.8850  178.2710  143.5820 C   0  0  2  0  0  3  0  0  0  0  0  0
  185.9790  176.0220  143.7720 F   0  0  0  0  0  0  0  0  0  0  0  0
  183.3420  179.1070  144.2130 C   0  0  0  0  0  1  0  0  0  0  0  0
  187.6420  176.5910  145.4390 C   0  0  1  0  0  3  0  0  0  0  0  0
  185.8930  179.0620  144.4410 C   0  0  1  0  0  3  0  0  0  0  0  0
  185.2910  176.7400  146.5130 C   0  0  0  0  0  2  0  0  0  0  0  0
  185.7220  180.3560  143.9330 O   0  0  0  0  0  1  0  0  0  0  0  0
  184.5640  178.3190  144.6590 C   0  0  1  0  0  3  0  0  0  0  0  0
  186.4990  178.3050  142.2400 O   0  0  0  0  0  1  0  0  0  0  0  0
  187.0390  178.3710  147.0250 O   0  0  0  0  0  1  0  0  0  0  0  0
  186.7900  177.0460  146.6450 C   0  0  2  0  0  3  0  0  0  0  0  0
  184.4250  177.9480  146.1300 C   0  0  0  0  0  2  0  0  0  0  0  0
  187.0920  176.8130  144.0170 C   0  0  2  0  0  3  0  0  0  0  0  0
  1  3  1  0  0  0  0
  4 31  1  6  0  0  0
  4 20  1  0  0  0  0
  6  2  1  6  0  0  0
  6  4  1  0  0  0  0
  6 12  1  0  0  0  0
  7 25  1  6  0  0  0
  7  2  1  0  0  0  0
  7 15  1  0  0  0  0
  8 18  1  0  0  0  0
  9  1  1  0  0  0  0
  9 11  1  0  0  0  0
 10  8  2  0  0  0  0
 11 10  1  6  0  0  0
 11  5  1  0  0  0  0
 12 15  1  6  0  0  0
 12 14  1  0  0  0  0
 13 19  1  0  0  0  0
 14 19  1  0  0  0  0
 14  1  2  0  0  0  0
 16  3  1  0  0  0  0
 16 35  1  1  0  0  0
 18  5  1  0  0  0  0
 18 17  1  1  0  0  0
 19 16  1  0  0  0  0
 20 10  1  0  0  0  0
 21 26  1  0  0  0  0
 21 22  1  0  0  0  0
 22 28  1  0  0  0  0
 23 27  1  0  0  0  0
 23 28  1  0  0  0  0
 24 26  1  0  0  0  0
 24 27  1  0  0  0  0
 28 30  1  0  0  0  0
 30 29  2  0  0  0  0
 30 25  1  0  0  0  0
 32 31  2  0  0  0  0
 33 31  1  0  0  0  0
 34 33  3  0  0  0  0
 35 36  1  0  0  0  0
 37 38  1  0  0  0  0
 38 36  1  0  0  0  0
 39 37  2  0  0  0  0
 40 48  1  6  0  0  0
 40 52  1  0  0  0  0
 40 44  1  0  0  0  0
 43 37  1  6  0  0  0
 43 50  1  0  0  0  0
 44 46  1  6  0  0  0
 44 47  1  0  0  0  0
 45 50  1  0  0  0  0
 47 42  1  1  0  0  0
 47 51  1  0  0  0  0
 50 49  1  6  0  0  0
 51 45  1  0  0  0  0
 52 41  1  1  0  0  0
 52 43  1  0  0  0  0
M  END
>  <MODEL>
6

>  <REMARK>
 VINA RESULT:      -8.3      2.987      4.754
  Name = 
  7 active torsions:
  status: ('A' for Active; 'I' for Inactive)
    1  A    between atoms: C_1  and  C_14
    2  A    between atoms: C_11  and  C_24
    3  A    between atoms: C_15  and  C_43
    4  A    between atoms: C_15  and  C_45
    5  A    between atoms: N_20  and  C_45
    6  A    between atoms: C_22  and  N_28
    7  A    between atoms: C_24  and  C_27
                            x       y       z     vdW  Elec       q    Type
                         _______ _______ _______ _____ _____    ______ ____

>  <TORSDO>
F 7

$$$$
=
 OpenBabel11042416013D

 52 57  0  0  1  0  0  0  0  0999 V2000
  193.7310  174.2370  145.5670 C   0  0  0  0  0  0  0  0  0  0  0  0
  189.5230  173.9270  145.4920 O   0  0  0  0  0  0  0  0  0  0  0  0
  195.1190  174.7270  145.8160 C   0  0  0  0  0  2  0  0  0  0  0  0
  190.9230  172.8040  143.8210 C   0  0  1  0  0  3  0  0  0  0  0  0
  195.4160  171.6700  144.2440 S   0  0  0  0  0  0  0  0  0  0  0  0
  190.8400  173.7350  145.0390 C   0  0  1  0  0  3  0  0  0  0  0  0
  189.5400  175.1660  146.1500 C   0  0  1  0  0  3  0  0  0  0  0  0
  193.3780  170.3970  143.0780 N   0  0  0  0  0  0  0  0  0  0  0  0
  193.3450  172.9050  145.6890 O   0  0  0  0  0  0  0  0  0  0  0  0
  192.8320  171.2360  144.0800 C   0  0  0  0  0  0  0  0  0  0  0  0
  193.7220  171.9550  144.7390 C   0  0  1  0  0  3  0  0  0  0  0  0
  191.4700  175.0860  144.7470 C   0  0  2  0  0  3  0  0  0  0  0  0
  193.1230  177.7100  144.6220 C   0  0  0  0  0  1  0  0  0  0  0  0
  192.9220  175.2200  145.1840 C   0  0  0  0  0  0  0  0  0  0  0  0
  190.5910  176.0460  145.5000 C   0  0  0  0  0  2  0  0  0  0  0  0
  195.0620  176.2010  145.3820 C   0  0  2  0  0  3  0  0  0  0  0  0
  195.4720  169.1620  143.1210 C   0  0  0  0  0  1  0  0  0  0  0  0
  194.8210  170.5200  142.9420 C   0  0  2  0  0  3  0  0  0  0  0  0
  193.6610  176.4280  145.0560 N   0  0  0  0  0  0  0  0  0  0  0  0
  191.3510  171.4020  144.2400 C   0  0  0  0  0  2  0  0  0  0  0  0
  184.7530  178.1290  146.0900 C   0  0  0  0  0  2  0  0  0  0  0  0
  185.5360  176.8100  145.9770 C   0  0  0  0  0  2  0  0  0  0  0  0
  185.8150  177.2920  143.4960 C   0  0  0  0  0  2  0  0  0  0  0  0
  185.3210  179.6080  144.3580 C   0  0  0  0  0  2  0  0  0  0  0  0
  188.2280  175.7890  146.0410 N   0  0  0  0  0  2  0  0  0  0  0  0
  185.6020  179.2640  145.7490 N   0  0  0  0  0  2  0  0  0  0  0  0
  186.1650  178.7710  143.3940 C   0  0  0  0  0  2  0  0  0  0  0  0
  186.3340  176.7430  144.7490 N   0  0  0  0  0  0  0  0  0  0  0  0
  188.2980  176.0030  143.7200 O   0  0  0  0  0  0  0  0  0  0  0  0
  187.6490  176.1690  144.7870 C   0  0  0  0  0  0  0  0  0  0  0  0
  189.6890  172.7860  142.9710 C   0  0  0  0  0  0  0  0  0  0  0  0
  188.7620  171.9600  143.1920 O   0  0  0  0  0  0  0  0  0  0  0  0
  189.5700  173.7130  141.8750 C   0  0  0  0  0  0  0  0  0  0  0  0
  189.4760  174.4670  141.0050 N   0  0  0  0  0  0  0  0  0  0  0  0
  195.9220  176.4020  144.1430 C   0  0  0  0  0  2  0  0  0  0  0  0
  196.3990  175.0730  143.5780 C   0  0  0  0  0  2  0  0  0  0  0  0
  196.2310  174.0370  141.2730 C   0  0  0  0  0  0  0  0  0  0  0  0
  195.6380  174.7110  142.3890 N   0  0  0  0  0  2  0  0  0  0  0  0
  197.4480  173.7200  141.2910 O   0  0  0  0  0  0  0  0  0  0  0  0
  197.1120  174.0730  138.1290 C   0  0  2  0  0  3  0  0  0  0  0  0
  195.4590  172.2880  138.0970 F   0  0  0  0  0  0  0  0  0  0  0  0
  195.1880  175.0980  135.1470 C   0  0  0  0  0  1  0  0  0  0  0  0
  195.4070  173.6870  140.0750 C   0  0  1  0  0  3  0  0  0  0  0  0
  196.3440  175.1990  137.4300 C   0  0  1  0  0  3  0  0  0  0  0  0
  193.4730  174.3860  138.5010 C   0  0  0  0  0  2  0  0  0  0  0  0
  197.2160  176.0020  136.6850 O   0  0  0  0  0  1  0  0  0  0  0  0
  195.1460  174.6890  136.6110 C   0  0  1  0  0  3  0  0  0  0  0  0
  197.8830  173.3640  137.2040 O   0  0  0  0  0  1  0  0  0  0  0  0
  194.7820  176.0410  139.7370 O   0  0  0  0  0  1  0  0  0  0  0  0
  194.3090  174.7220  139.7440 C   0  0  2  0  0  3  0  0  0  0  0  0
  193.8520  175.1830  137.2440 C   0  0  0  0  0  2  0  0  0  0  0  0
  196.2350  173.0910  138.9210 C   0  0  2  0  0  3  0  0  0  0  0  0
  1  9  1  0  0  0  0
  1  3  1  0  0  0  0
  2  7  1  0  0  0  0
  4 31  1  1  0  0  0
  4 20  1  0  0  0  0
  4  6  1  0  0  0  0
  5 11  1  0  0  0  0
  6  2  1  6  0  0  0
  7 25  1  6  0  0  0
  8 10  2  0  0  0  0
 10 20  1  0  0  0  0
 11 10  1  6  0  0  0
 11  9  1  0  0  0  0
 12  6  1  0  0  0  0
 12 14  1  0  0  0  0
 12 15  1  1  0  0  0
 13 19  1  0  0  0  0
 14  1  2  0  0  0  0
 15  7  1  0  0  0  0
 16 35  1  6  0  0  0
 16  3  1  0  0  0  0
 18  8  1  0  0  0  0
 18 17  1  1  0  0  0
 18  5  1  0  0  0  0
 19 14  1  0  0  0  0
 19 16  1  0  0  0  0
 22 21  1  0  0  0  0
 23 28  1  0  0  0  0
 24 26  1  0  0  0  0
 26 21  1  0  0  0  0
 27 23  1  0  0  0  0
 27 24  1  0  0  0  0
 28 30  1  0  0  0  0
 28 22  1  0  0  0  0
 29 30  2  0  0  0  0
 30 25  1  0  0  0  0
 31 32  2  0  0  0  0
 33 31  1  0  0  0  0
 34 33  3  0  0  0  0
 36 35  1  0  0  0  0
 37 39  2  0  0  0  0
 37 38  1  0  0  0  0
 38 36  1  0  0  0  0
 40 48  1  6  0  0  0
 40 52  1  0  0  0  0
 43 37  1  1  0  0  0
 44 46  1  6  0  0  0
 44 40  1  0  0  0  0
 45 50  1  0  0  0  0
 47 42  1  6  0  0  0
 47 51  1  0  0  0  0
 47 44  1  0  0  0  0
 50 49  1  6  0  0  0
 50 43  1  0  0  0  0
 51 45  1  0  0  0  0
 52 41  1  6  0  0  0
 52 43  1  0  0  0  0
M  END
>  <MODEL>
7

>  <REMARK>
 VINA RESULT:      -8.2      2.935     10.098
  Name = 
  7 active torsions:
  status: ('A' for Active; 'I' for Inactive)
    1  A    between atoms: C_1  and  C_14
    2  A    between atoms: C_11  and  C_24
    3  A    between atoms: C_15  and  C_43
    4  A    between atoms: C_15  and  C_45
    5  A    between atoms: N_20  and  C_45
    6  A    between atoms: C_22  and  N_28
    7  A    between atoms: C_24  and  C_27
                            x       y       z     vdW  Elec       q    Type
                         _______ _______ _______ _____ _____    ______ ____

>  <TORSDO>
F 7

$$$$
=
 OpenBabel11042416013D

 52 57  0  0  1  0  0  0  0  0999 V2000
  193.0520  172.7060  143.4390 C   0  0  0  0  0  0  0  0  0  0  0  0
  194.7420  172.7960  139.5730 O   0  0  0  0  0  0  0  0  0  0  0  0
  192.1260  172.9000  144.5940 C   0  0  0  0  0  2  0  0  0  0  0  0
  196.1340  172.5470  141.5770 C   0  0  1  0  0  3  0  0  0  0  0  0
  194.7720  171.0140  145.7540 S   0  0  0  0  0  0  0  0  0  0  0  0
  194.7360  172.7550  140.9780 C   0  0  1  0  0  3  0  0  0  0  0  0
  193.6050  173.5400  139.2240 C   0  0  1  0  0  3  0  0  0  0  0  0
  197.0410  170.6460  144.3950 N   0  0  0  0  0  2  0  0  0  0  0  0
  193.7420  171.5230  143.1880 O   0  0  0  0  0  0  0  0  0  0  0  0
  196.0230  170.9170  143.4470 C   0  0  0  0  0  0  0  0  0  0  0  0
  194.8320  171.1440  143.9720 C   0  0  0  0  0  0  0  0  0  0  0  0
  194.0860  174.0200  141.5130 C   0  0  2  0  0  3  0  0  0  0  0  0
  192.3220  176.2250  142.8000 C   0  0  0  0  0  1  0  0  0  0  0  0
  193.1620  173.8080  142.7040 C   0  0  0  0  0  0  0  0  0  0  0  0
  193.3240  174.5430  140.3270 C   0  0  0  0  0  2  0  0  0  0  0  0
  191.7720  174.3940  144.5220 C   0  0  2  0  0  3  0  0  0  0  0  0
  196.8750  169.3970  146.4730 C   0  0  0  0  0  1  0  0  0  0  0  0
  196.5830  170.7100  145.7730 C   0  0  2  0  0  3  0  0  0  0  0  0
  192.4130  174.8600  143.3000 N   0  0  0  0  0  0  0  0  0  0  0  0
  196.3340  171.0940  141.9930 C   0  0  0  0  0  2  0  0  0  0  0  0
  194.8050  176.7620  134.7660 C   0  0  0  0  0  2  0  0  0  0  0  0
  194.0570  175.5990  135.4400 C   0  0  0  0  0  2  0  0  0  0  0  0
  196.0210  174.1040  134.8330 C   0  0  0  0  0  2  0  0  0  0  0  0
  197.1180  176.3680  134.7080 C   0  0  0  0  0  2  0  0  0  0  0  0
  193.8490  174.2330  137.9670 N   0  0  0  0  0  2  0  0  0  0  0  0
  196.0590  177.0380  135.4560 N   0  0  0  0  0  2  0  0  0  0  0  0
  197.2750  174.9110  135.1450 C   0  0  0  0  0  2  0  0  0  0  0  0
  194.9470  174.4770  135.7530 N   0  0  0  0  0  0  0  0  0  0  0  0
  195.4660  172.7300  137.2160 O   0  0  0  0  0  0  0  0  0  0  0  0
  194.7840  173.7640  136.9870 C   0  0  0  0  0  0  0  0  0  0  0  0
  197.2550  173.0470  140.7180 C   0  0  0  0  0  0  0  0  0  0  0  0
  197.9330  172.2540  140.0100 O   0  0  0  0  0  0  0  0  0  0  0  0
  197.5730  174.4520  140.7160 C   0  0  0  0  0  0  0  0  0  0  0  0
  197.8320  175.5780  140.7260 N   0  0  0  0  0  0  0  0  0  0  0  0
  192.3610  175.1180  145.7240 C   0  0  0  0  0  2  0  0  0  0  0  0
  191.5480  176.3530  146.0800 C   0  0  0  0  0  2  0  0  0  0  0  0
  189.2160  176.8730  145.2400 C   0  0  0  0  0  0  0  0  0  0  0  0
  190.1200  176.0720  146.0090 N   0  0  0  0  0  2  0  0  0  0  0  0
  189.6390  177.8570  144.5800 O   0  0  0  0  0  0  0  0  0  0  0  0
  186.8640  178.3050  143.4850 C   0  0  2  0  0  3  0  0  0  0  0  0
  185.9840  176.0420  143.6260 F   0  0  0  0  0  0  0  0  0  0  0  0
  183.3700  179.0800  144.4020 C   0  0  0  0  0  1  0  0  0  0  0  0
  187.7580  176.5420  145.1990 C   0  0  1  0  0  3  0  0  0  0  0  0
  185.9310  179.0450  144.4500 C   0  0  1  0  0  3  0  0  0  0  0  0
  185.4870  176.6180  146.4410 C   0  0  0  0  0  2  0  0  0  0  0  0
  185.7180  180.3600  144.0190 O   0  0  0  0  0  1  0  0  0  0  0  0
  184.6240  178.2810  144.7220 C   0  0  1  0  0  3  0  0  0  0  0  0
  186.3840  178.4020  142.1760 O   0  0  0  0  0  1  0  0  0  0  0  0
  187.2590  178.2370  146.9100 O   0  0  0  0  0  1  0  0  0  0  0  0
  186.9900  176.9300  146.4820 C   0  0  2  0  0  3  0  0  0  0  0  0
  184.5900  177.8370  146.1790 C   0  0  0  0  0  2  0  0  0  0  0  0
  187.1080  176.8290  143.8320 C   0  0  2  0  0  3  0  0  0  0  0  0
  1  3  1  0  0  0  0
  4 31  1  6  0  0  0
  4 20  1  0  0  0  0
  5 18  1  0  0  0  0
  6  2  1  6  0  0  0
  6 12  1  0  0  0  0
  6  4  1  0  0  0  0
  7 25  1  6  0  0  0
  7  2  1  0  0  0  0
  7 15  1  0  0  0  0
  8 18  1  0  0  0  0
  9  1  1  0  0  0  0
  9 11  1  0  0  0  0
 10 11  2  0  0  0  0
 10  8  1  0  0  0  0
 11  5  1  0  0  0  0
 12 15  1  6  0  0  0
 12 14  1  0  0  0  0
 13 19  1  0  0  0  0
 14 19  1  0  0  0  0
 14  1  2  0  0  0  0
 16  3  1  0  0  0  0
 16 35  1  1  0  0  0
 18 17  1  6  0  0  0
 19 16  1  0  0  0  0
 20 10  1  0  0  0  0
 21 22  1  0  0  0  0
 21 26  1  0  0  0  0
 22 28  1  0  0  0  0
 23 27  1  0  0  0  0
 23 28  1  0  0  0  0
 24 27  1  0  0  0  0
 24 26  1  0  0  0  0
 28 30  1  0  0  0  0
 30 29  2  0  0  0  0
 30 25  1  0  0  0  0
 32 31  2  0  0  0  0
 33 31  1  0  0  0  0
 33 34  3  0  0  0  0
 35 36  1  0  0  0  0
 37 38  1  0  0  0  0
 38 36  1  0  0  0  0
 39 37  2  0  0  0  0
 40 48  1  6  0  0  0
 40 52  1  0  0  0  0
 40 44  1  0  0  0  0
 43 37  1  6  0  0  0
 43 50  1  0  0  0  0
 44 46  1  6  0  0  0
 44 47  1  0  0  0  0
 45 50  1  0  0  0  0
 47 42  1  1  0  0  0
 47 51  1  0  0  0  0
 50 49  1  6  0  0  0
 51 45  1  0  0  0  0
 52 41  1  1  0  0  0
 52 43  1  0  0  0  0
M  END
>  <MODEL>
8

>  <REMARK>
 VINA RESULT:      -8.2      2.599      4.096
  Name = 
  7 active torsions:
  status: ('A' for Active; 'I' for Inactive)
    1  A    between atoms: C_1  and  C_14
    2  A    between atoms: C_11  and  C_24
    3  A    between atoms: C_15  and  C_43
    4  A    between atoms: C_15  and  C_45
    5  A    between atoms: N_20  and  C_45
    6  A    between atoms: C_22  and  N_28
    7  A    between atoms: C_24  and  C_27
                            x       y       z     vdW  Elec       q    Type
                         _______ _______ _______ _____ _____    ______ ____

>  <TORSDO>
F 7

$$$$
=
 OpenBabel11042416013D

 52 57  0  0  1  0  0  0  0  0999 V2000
  196.0050  175.0210  143.9320 C   0  0  0  0  0  0  0  0  0  0  0  0
  191.8360  175.1090  144.5770 O   0  0  0  0  0  0  0  0  0  0  0  0
  197.4020  175.4180  143.5850 C   0  0  0  0  0  2  0  0  0  0  0  0
  193.0220  173.0090  144.1320 C   0  0  1  0  0  3  0  0  0  0  0  0
  197.5570  172.1750  144.7510 S   0  0  0  0  0  0  0  0  0  0  0  0
  193.0820  174.5370  144.2700 C   0  0  1  0  0  3  0  0  0  0  0  0
  191.9110  176.4280  144.1030 C   0  0  1  0  0  3  0  0  0  0  0  0
  195.4120  170.6310  145.1360 N   0  0  0  0  0  2  0  0  0  0  0  0
  195.6720  174.2420  145.0370 O   0  0  0  0  0  0  0  0  0  0  0  0
  194.9870  171.9790  145.2480 C   0  0  0  0  0  0  0  0  0  0  0  0
  195.9400  172.8720  145.0600 C   0  0  0  0  0  0  0  0  0  0  0  0
  193.6330  175.1850  143.0110 C   0  0  2  0  0  3  0  0  0  0  0  0
  195.1870  176.7310  140.8130 C   0  0  0  0  0  1  0  0  0  0  0  0
  195.1270  175.4730  143.0430 C   0  0  0  0  0  0  0  0  0  0  0  0
  192.8410  176.4590  142.9050 C   0  0  0  0  0  2  0  0  0  0  0  0
  197.2490  176.1030  142.2160 C   0  0  2  0  0  3  0  0  0  0  0  0
  197.5220  169.6520  145.8410 C   0  0  0  0  0  1  0  0  0  0  0  0
  196.8190  170.4940  144.7940 C   0  0  2  0  0  3  0  0  0  0  0  0
  195.8110  176.1350  141.9870 N   0  0  0  0  0  0  0  0  0  0  0  0
  193.5380  172.3320  145.3970 C   0  0  0  0  0  2  0  0  0  0  0  0
  186.6350  177.4800  142.4420 C   0  0  0  0  0  2  0  0  0  0  0  0
  188.0750  177.9220  142.7570 C   0  0  0  0  0  2  0  0  0  0  0  0
  187.3420  178.2810  145.1640 C   0  0  0  0  0  2  0  0  0  0  0  0
  185.5400  176.7100  144.3690 C   0  0  0  0  0  2  0  0  0  0  0  0
  190.5820  176.8780  143.7170 N   0  0  0  0  0  2  0  0  0  0  0  0
  186.2890  176.2790  143.1920 N   0  0  0  0  0  2  0  0  0  0  0  0
  186.4760  177.0800  145.5220 C   0  0  0  0  0  2  0  0  0  0  0  0
  188.3630  177.8870  144.1930 N   0  0  0  0  0  0  0  0  0  0  0  0
  189.9430  177.4990  145.8720 O   0  0  0  0  0  0  0  0  0  0  0  0
  189.6430  177.4270  144.6500 C   0  0  0  0  0  0  0  0  0  0  0  0
  191.6840  172.4780  143.7150 C   0  0  0  0  0  0  0  0  0  0  0  0
  190.8810  172.0040  144.5640 O   0  0  0  0  0  0  0  0  0  0  0  0
  191.3200  172.4940  142.3210 C   0  0  0  0  0  0  0  0  0  0  0  0
  191.0250  172.5200  141.2050 N   0  0  0  0  0  0  0  0  0  0  0  0
  197.9260  175.2600  141.1450 C   0  0  0  0  0  2  0  0  0  0  0  0
  197.4030  173.8320  141.1520 C   0  0  0  0  0  2  0  0  0  0  0  0
  195.5850  173.1050  139.5460 C   0  0  0  0  0  0  0  0  0  0  0  0
  196.9490  173.4400  139.8240 N   0  0  0  0  0  2  0  0  0  0  0  0
  194.7180  173.1500  140.4560 O   0  0  0  0  0  0  0  0  0  0  0  0
  193.1500  174.3170  137.7400 C   0  0  2  0  0  3  0  0  0  0  0  0
  194.7100  173.6710  135.9880 F   0  0  0  0  0  0  0  0  0  0  0  0
  190.8080  172.5900  135.4640 C   0  0  0  0  0  1  0  0  0  0  0  0
  195.1690  172.7090  138.1640 C   0  0  1  0  0  3  0  0  0  0  0  0
  192.0770  173.2330  137.5940 C   0  0  1  0  0  3  0  0  0  0  0  0
  194.0380  170.9180  136.6750 C   0  0  0  0  0  2  0  0  0  0  0  0
  190.8120  173.7460  137.9060 O   0  0  0  0  0  1  0  0  0  0  0  0
  192.1210  172.5270  136.2280 C   0  0  1  0  0  3  0  0  0  0  0  0
  192.8000  175.4490  136.9990 O   0  0  0  0  0  1  0  0  0  0  0  0
  193.4890  171.1450  139.0480 O   0  0  0  0  0  1  0  0  0  0  0  0
  194.4920  171.3230  138.0850 C   0  0  2  0  0  3  0  0  0  0  0  0
  192.5310  171.0730  136.4220 C   0  0  0  0  0  2  0  0  0  0  0  0
  194.5680  173.8740  137.3540 C   0  0  2  0  0  3  0  0  0  0  0  0
  1  9  1  0  0  0  0
  3  1  1  0  0  0  0
  4 31  1  1  0  0  0
  4  6  1  0  0  0  0
  4 20  1  0  0  0  0
  5 18  1  0  0  0  0
  5 11  1  0  0  0  0
  6  2  1  6  0  0  0
  7 25  1  6  0  0  0
  7  2  1  0  0  0  0
  8 10  1  0  0  0  0
  9 11  1  0  0  0  0
 10 20  1  0  0  0  0
 11 10  2  0  0  0  0
 12 15  1  1  0  0  0
 12 14  1  0  0  0  0
 12  6  1  0  0  0  0
 13 19  1  0  0  0  0
 14  1  2  0  0  0  0
 15  7  1  0  0  0  0
 16 35  1  6  0  0  0
 16  3  1  0  0  0  0
 18  8  1  0  0  0  0
 18 17  1  1  0  0  0
 19 16  1  0  0  0  0
 19 14  1  0  0  0  0
 21 22  1  0  0  0  0
 21 26  1  0  0  0  0
 22 28  1  0  0  0  0
 23 27  1  0  0  0  0
 24 27  1  0  0  0  0
 25 30  1  0  0  0  0
 26 24  1  0  0  0  0
 28 30  1  0  0  0  0
 28 23  1  0  0  0  0
 30 29  2  0  0  0  0
 31 32  2  0  0  0  0
 33 31  1  0  0  0  0
 34 33  3  0  0  0  0
 35 36  1  0  0  0  0
 37 38  1  0  0  0  0
 37 39  2  0  0  0  0
 38 36  1  0  0  0  0
 40 48  1  6  0  0  0
 43 37  1  1  0  0  0
 44 40  1  0  0  0  0
 44 46  1  6  0  0  0
 45 50  1  0  0  0  0
 47 42  1  1  0  0  0
 47 51  1  0  0  0  0
 47 44  1  0  0  0  0
 50 43  1  0  0  0  0
 50 49  1  1  0  0  0
 51 45  1  0  0  0  0
 52 41  1  6  0  0  0
 52 40  1  0  0  0  0
 52 43  1  0  0  0  0
M  END
>  <MODEL>
9

>  <REMARK>
 VINA RESULT:      -8.2      3.346      9.444
  Name = 
  7 active torsions:
  status: ('A' for Active; 'I' for Inactive)
    1  A    between atoms: C_1  and  C_14
    2  A    between atoms: C_11  and  C_24
    3  A    between atoms: C_15  and  C_43
    4  A    between atoms: C_15  and  C_45
    5  A    between atoms: N_20  and  C_45
    6  A    between atoms: C_22  and  N_28
    7  A    between atoms: C_24  and  C_27
                            x       y       z     vdW  Elec       q    Type
                         _______ _______ _______ _____ _____    ______ ____

>  <TORSDO>
F 7

$$$$
