=
 OpenBabel11042417313D

 39 45  0  0  1  0  0  0  0  0999 V2000
  189.7930  174.3180  141.3660 C   0  0  1  0  0  3  0  0  0  0  0  0
  189.6730  175.3000  142.4540 N   0  0  0  0  0  0  0  0  0  0  0  0
  189.6780  172.9670  142.0200 C   0  0  2  0  0  0  0  0  0  0  0  0
  190.8220  172.0230  141.6760 C   0  0  2  0  0  3  0  0  0  0  0  0
  189.3950  171.7060  141.2350 C   0  0  0  0  0  2  0  0  0  0  0  0
  188.5280  176.1630  142.1420 C   0  0  0  0  0  3  0  0  0  0  0  0
  189.3440  174.5910  143.7030 C   0  0  1  0  0  3  0  0  0  0  0  0
  188.6990  174.5590  140.4480 N   0  0  0  0  0  0  0  0  0  0  0  0
  187.8770  175.6650  140.8690 C   0  0  0  0  0  3  0  0  0  0  0  0
  189.2830  173.0920  143.4560 C   0  0  0  0  0  2  0  0  0  0  0  0
  191.2330  173.7180  138.2230 C   0  0  0  0  0  2  0  0  0  0  0  0
  189.7230  173.7040  138.4350 C   0  0  0  0  0  0  0  0  0  0  0  0
  190.4190  173.1790  137.1840 C   0  0  0  0  0  2  0  0  0  0  0  0
  188.6340  173.9550  139.1510 C   0  0  0  0  0  3  0  0  0  0  0  0
  191.1770  171.1640  142.7980 N   0  0  0  0  0  2  0  0  0  0  0  0
  192.7130  169.6480  143.9890 N   0  0  0  0  0  2  0  0  0  0  0  0
  192.4330  170.4890  142.8690 C   0  0  0  0  0  0  0  0  0  0  0  0
  193.2850  170.6340  141.9500 O   0  0  0  0  0  0  0  0  0  0  0  0
  193.9510  168.8920  144.1150 C   0  0  0  0  0  2  0  0  0  0  0  0
  195.6190  168.9970  145.9040 C   0  0  2  0  0  3  0  0  0  0  0  0
  194.5170  169.8040  146.2420 O   0  0  0  0  0  0  0  0  0  0  0  0
  194.2350  168.5990  145.5760 C   0  0  1  0  0  3  0  0  0  0  0  0
  197.5620  168.1660  147.1440 C   0  0  0  0  0  2  0  0  0  0  0  0
  196.0860  168.2530  147.1390 C   0  0  1  0  0  3  0  0  0  0  0  0
  196.8760  169.1170  147.9190 O   0  0  0  0  0  0  0  0  0  0  0  0
  190.3940  174.8870  144.7660 C   0  0  0  0  0  2  0  0  0  0  0  0
  190.1290  174.0900  146.0360 C   0  0  0  0  0  2  0  0  0  0  0  0
  190.9740  175.9680  147.4380 C   0  0  0  0  0  1  0  0  0  0  0  0
  189.8210  175.0090  147.2080 C   0  0  1  0  0  3  0  0  0  0  0  0
  188.6040  175.7700  146.9220 C   0  0  0  0  0  0  0  0  0  0  0  0
  187.6060  176.4010  146.6790 C   0  0  0  0  0  0  0  0  0  0  0  0
  185.7060  177.7670  147.4230 C   0  0  0  0  0  3  0  0  0  0  0  0
  184.5510  178.5030  147.1350 C   0  0  0  0  0  3  0  0  0  0  0  0
  186.4220  177.1580  146.3880 C   0  0  0  0  0  0  0  0  0  0  0  0
  184.8310  178.0200  144.7770 C   0  0  0  0  0  0  0  0  0  0  0  0
  185.9840  177.2840  145.0660 C   0  0  0  0  0  3  0  0  0  0  0  0
  184.1130  178.6290  145.8130 C   0  0  0  0  0  3  0  0  0  0  0  0
  184.0190  178.2520  142.3260 N   0  0  0  0  0  0  0  0  0  0  0  0
  184.3820  178.1490  143.4200 C   0  0  0  0  0  0  0  0  0  0  0  0
  1  8  1  6  0  0  0
  1  3  1  0  0  0  0
  1  2  1  0  0  0  0
  2  7  1  0  0  0  0
  3  5  1  6  0  0  0
  3 10  1  0  0  0  0
  4  3  1  0  0  0  0
  4 15  1  1  0  0  0
  5  4  1  0  0  0  0
  6  2  1  0  0  0  0
  7 26  1  1  0  0  0
  8  9  1  0  0  0  0
  9  6  2  0  0  0  0
 10  7  1  0  0  0  0
 11 12  1  0  0  0  0
 12 14  2  0  0  0  0
 13 11  1  0  0  0  0
 13 12  1  0  0  0  0
 14  8  1  0  0  0  0
 15 17  1  0  0  0  0
 16 19  1  0  0  0  0
 17 16  1  0  0  0  0
 18 17  2  0  0  0  0
 20 21  1  1  0  0  0
 20 24  1  0  0  0  0
 22 19  1  6  0  0  0
 22 20  1  0  0  0  0
 22 21  1  0  0  0  0
 23 25  1  0  0  0  0
 24 23  1  6  0  0  0
 24 25  1  0  0  0  0
 26 27  1  0  0  0  0
 27 29  1  0  0  0  0
 29 28  1  6  0  0  0
 30 29  1  0  0  0  0
 31 30  3  0  0  0  0
 33 32  1  0  0  0  0
 34 31  1  0  0  0  0
 34 32  2  0  0  0  0
 35 36  2  0  0  0  0
 35 37  1  0  0  0  0
 36 34  1  0  0  0  0
 37 33  2  0  0  0  0
 38 39  3  0  0  0  0
 39 35  1  0  0  0  0
M  END
>  <MODEL>
1

>  <REMARK>
 VINA RESULT:      -7.4      0.000      0.000
  Name = 
  11 active torsions:
  status: ('A' for Active; 'I' for Inactive)
    1  A    between atoms: C_1  and  C_23
    2  A    between atoms: C_9  and  C_18
    3  A    between atoms: C_11  and  N_12
    4  A    between atoms: C_13  and  C_14
    5  A    between atoms: C_13  and  C_23
    6  A    between atoms: C_14  and  C_30
    7  A    between atoms: N_15  and  C_32
    8  A    between atoms: C_16  and  C_31
    9  A    between atoms: C_19  and  C_28
   10  A    between atoms: C_32  and  C_35
   11  A    between atoms: N_33  and  C_38
                            x       y       z     vdW  Elec       q    Type
                         _______ _______ _______ _____ _____    ______ ____

>  <TORSDO>
F 11

$$$$
=
 OpenBabel11042417313D

 39 45  0  0  1  0  0  0  0  0999 V2000
  194.0230  173.4190  144.7770 C   0  0  1  0  0  3  0  0  0  0  0  0
  193.5740  174.5290  145.6290 N   0  0  0  0  0  0  0  0  0  0  0  0
  193.5860  173.7720  143.3800 C   0  0  2  0  0  0  0  0  0  0  0  0
  192.7810  172.6750  142.6970 C   0  0  2  0  0  3  0  0  0  0  0  0
  194.1470  173.0850  142.1550 C   0  0  0  0  0  2  0  0  0  0  0  0
  194.7620  175.0880  146.2840 C   0  0  0  0  0  3  0  0  0  0  0  0
  193.0200  175.5940  144.7740 C   0  0  1  0  0  3  0  0  0  0  0  0
  195.4660  173.3540  144.8820 N   0  0  0  0  0  0  0  0  0  0  0  0
  195.9860  174.3560  145.7770 C   0  0  0  0  0  3  0  0  0  0  0  0
  193.0600  175.1690  143.3140 C   0  0  0  0  0  2  0  0  0  0  0  0
  196.6290  170.5040  146.4950 C   0  0  0  0  0  2  0  0  0  0  0  0
  196.5860  171.2320  145.1570 C   0  0  0  0  0  0  0  0  0  0  0  0
  197.2800  169.8930  145.3830 C   0  0  0  0  0  2  0  0  0  0  0  0
  196.2270  172.2480  144.3810 C   0  0  0  0  0  3  0  0  0  0  0  0
  191.7410  173.2190  141.8330 N   0  0  0  0  0  2  0  0  0  0  0  0
  189.4030  173.8290  141.3450 N   0  0  0  0  0  2  0  0  0  0  0  0
  190.3770  173.3010  142.2470 C   0  0  0  0  0  0  0  0  0  0  0  0
  190.0360  172.9070  143.3960 O   0  0  0  0  0  0  0  0  0  0  0  0
  187.9870  173.9060  141.6740 C   0  0  0  0  0  2  0  0  0  0  0  0
  188.1260  176.3490  141.5790 C   0  0  2  0  0  3  0  0  0  0  0  0
  186.7760  175.9590  141.6530 O   0  0  0  0  0  0  0  0  0  0  0  0
  187.6920  175.2030  142.4040 C   0  0  1  0  0  3  0  0  0  0  0  0
  189.7870  177.8250  142.6100 C   0  0  0  0  0  2  0  0  0  0  0  0
  188.3390  177.5620  142.4610 C   0  0  1  0  0  3  0  0  0  0  0  0
  188.9920  178.5590  141.7130 O   0  0  0  0  0  0  0  0  0  0  0  0
  191.5820  175.8940  145.1750 C   0  0  0  0  0  2  0  0  0  0  0  0
  190.9390  174.6920  145.8530 C   0  0  0  0  0  2  0  0  0  0  0  0
  191.2680  175.9750  147.9630 C   0  0  0  0  0  1  0  0  0  0  0  0
  190.3210  175.0780  147.1880 C   0  0  1  0  0  3  0  0  0  0  0  0
  189.0620  175.7870  146.9530 C   0  0  0  0  0  0  0  0  0  0  0  0
  188.0280  176.3740  146.7510 C   0  0  0  0  0  0  0  0  0  0  0  0
  186.1000  177.6550  147.5690 C   0  0  0  0  0  3  0  0  0  0  0  0
  184.9040  178.3390  147.3270 C   0  0  0  0  0  3  0  0  0  0  0  0
  186.8020  177.0770  146.5060 C   0  0  0  0  0  0  0  0  0  0  0  0
  185.1110  177.8660  144.9600 C   0  0  0  0  0  0  0  0  0  0  0  0
  186.3070  177.1820  145.2030 C   0  0  0  0  0  3  0  0  0  0  0  0
  184.4090  178.4440  146.0240 C   0  0  0  0  0  3  0  0  0  0  0  0
  184.1940  178.0560  142.5430 N   0  0  0  0  0  0  0  0  0  0  0  0
  184.6040  177.9720  143.6220 C   0  0  0  0  0  0  0  0  0  0  0  0
  1  8  1  6  0  0  0
  1  2  1  0  0  0  0
  2  6  1  0  0  0  0
  3  5  1  6  0  0  0
  3  1  1  0  0  0  0
  4 15  1  6  0  0  0
  4  3  1  0  0  0  0
  5  4  1  0  0  0  0
  7 26  1  1  0  0  0
  7  2  1  0  0  0  0
  8  9  1  0  0  0  0
  9  6  2  0  0  0  0
 10  3  1  0  0  0  0
 10  7  1  0  0  0  0
 12 13  1  0  0  0  0
 12 11  1  0  0  0  0
 13 11  1  0  0  0  0
 14  8  1  0  0  0  0
 14 12  2  0  0  0  0
 15 17  1  0  0  0  0
 16 19  1  0  0  0  0
 16 17  1  0  0  0  0
 17 18  2  0  0  0  0
 20 21  1  6  0  0  0
 20 22  1  0  0  0  0
 20 24  1  0  0  0  0
 21 22  1  0  0  0  0
 22 19  1  6  0  0  0
 24 23  1  1  0  0  0
 25 24  1  0  0  0  0
 25 23  1  0  0  0  0
 26 27  1  0  0  0  0
 27 29  1  0  0  0  0
 29 28  1  6  0  0  0
 30 29  1  0  0  0  0
 31 30  3  0  0  0  0
 33 32  1  0  0  0  0
 34 31  1  0  0  0  0
 34 32  2  0  0  0  0
 35 36  2  0  0  0  0
 35 37  1  0  0  0  0
 36 34  1  0  0  0  0
 37 33  2  0  0  0  0
 38 39  3  0  0  0  0
 39 35  1  0  0  0  0
M  END
>  <MODEL>
2

>  <REMARK>
 VINA RESULT:      -7.4      3.100      6.783
  Name = 
  11 active torsions:
  status: ('A' for Active; 'I' for Inactive)
    1  A    between atoms: C_1  and  C_23
    2  A    between atoms: C_9  and  C_18
    3  A    between atoms: C_11  and  N_12
    4  A    between atoms: C_13  and  C_14
    5  A    between atoms: C_13  and  C_23
    6  A    between atoms: C_14  and  C_30
    7  A    between atoms: N_15  and  C_32
    8  A    between atoms: C_16  and  C_31
    9  A    between atoms: C_19  and  C_28
   10  A    between atoms: C_32  and  C_35
   11  A    between atoms: N_33  and  C_38
                            x       y       z     vdW  Elec       q    Type
                         _______ _______ _______ _____ _____    ______ ____

>  <TORSDO>
F 11

$$$$
=
 OpenBabel11042417313D

 39 45  0  0  1  0  0  0  0  0999 V2000
  194.8090  172.5250  145.4760 C   0  0  1  0  0  3  0  0  0  0  0  0
  194.4480  173.9340  145.6930 N   0  0  0  0  0  0  0  0  0  0  0  0
  194.4120  172.2130  144.0580 C   0  0  2  0  0  0  0  0  0  0  0  0
  193.5230  170.9840  143.9290 C   0  0  2  0  0  3  0  0  0  0  0  0
  194.9220  170.9960  143.3200 C   0  0  0  0  0  2  0  0  0  0  0  0
  195.6730  174.6490  146.0640 C   0  0  0  0  0  3  0  0  0  0  0  0
  193.9890  174.5100  144.4160 C   0  0  1  0  0  3  0  0  0  0  0  0
  196.2410  172.4150  145.6630 N   0  0  0  0  0  0  0  0  0  0  0  0
  196.8360  173.6810  146.0110 C   0  0  0  0  0  3  0  0  0  0  0  0
  194.0030  173.4510  143.3250 C   0  0  0  0  0  2  0  0  0  0  0  0
  195.2120  169.4340  147.1240 C   0  0  0  0  0  2  0  0  0  0  0  0
  196.3540  170.1090  146.3720 C   0  0  0  0  0  0  0  0  0  0  0  0
  196.3760  168.6590  146.8420 C   0  0  0  0  0  2  0  0  0  0  0  0
  196.9100  171.1540  145.7700 C   0  0  0  0  0  3  0  0  0  0  0  0
  192.5370  171.1320  142.8660 N   0  0  0  0  0  2  0  0  0  0  0  0
  190.3030  171.7500  142.0280 N   0  0  0  0  0  2  0  0  0  0  0  0
  191.2280  171.6460  143.1110 C   0  0  0  0  0  0  0  0  0  0  0  0
  190.8920  172.0010  144.2750 O   0  0  0  0  0  0  0  0  0  0  0  0
  188.9370  172.2220  142.2030 C   0  0  0  0  0  2  0  0  0  0  0  0
  188.7900  174.6450  141.8850 C   0  0  2  0  0  3  0  0  0  0  0  0
  189.7940  174.1220  141.0490 O   0  0  0  0  0  0  0  0  0  0  0  0
  188.6420  173.3370  141.2170 C   0  0  1  0  0  3  0  0  0  0  0  0
  186.9980  176.3110  142.0110 C   0  0  0  0  0  2  0  0  0  0  0  0
  188.0120  175.7000  141.1250 C   0  0  1  0  0  3  0  0  0  0  0  0
  188.2210  176.9490  141.7370 O   0  0  0  0  0  0  0  0  0  0  0  0
  192.5780  175.0630  144.5670 C   0  0  0  0  0  2  0  0  0  0  0  0
  192.6020  176.4910  145.0930 C   0  0  0  0  0  2  0  0  0  0  0  0
  191.7320  176.9270  142.7990 C   0  0  0  0  0  1  0  0  0  0  0  0
  191.7390  177.4070  144.2380 C   0  0  1  0  0  3  0  0  0  0  0  0
  190.3710  177.4090  144.7580 C   0  0  0  0  0  0  0  0  0  0  0  0
  189.2400  177.4070  145.1780 C   0  0  0  0  0  0  0  0  0  0  0  0
  187.5940  176.8030  146.8970 C   0  0  0  0  0  3  0  0  0  0  0  0
  186.2790  176.8030  147.3740 C   0  0  0  0  0  3  0  0  0  0  0  0
  187.8930  177.4060  145.6710 C   0  0  0  0  0  0  0  0  0  0  0  0
  185.5620  178.0060  145.3980 C   0  0  0  0  0  0  0  0  0  0  0  0
  186.8770  178.0060  144.9220 C   0  0  0  0  0  3  0  0  0  0  0  0
  185.2630  177.4030  146.6250 C   0  0  0  0  0  3  0  0  0  0  0  0
  183.6790  179.1180  144.0050 N   0  0  0  0  0  0  0  0  0  0  0  0
  184.5200  178.6230  144.6270 C   0  0  0  0  0  0  0  0  0  0  0  0
  1  8  1  6  0  0  0
  1  2  1  0  0  0  0
  2  6  1  0  0  0  0
  3  5  1  6  0  0  0
  3  1  1  0  0  0  0
  4 15  1  6  0  0  0
  4  3  1  0  0  0  0
  5  4  1  0  0  0  0
  7 26  1  1  0  0  0
  7  2  1  0  0  0  0
  8 14  1  0  0  0  0
  8  9  1  0  0  0  0
  9  6  2  0  0  0  0
 10  3  1  0  0  0  0
 10  7  1  0  0  0  0
 12 13  1  0  0  0  0
 12 11  1  0  0  0  0
 13 11  1  0  0  0  0
 14 12  2  0  0  0  0
 15 17  1  0  0  0  0
 16 19  1  0  0  0  0
 16 17  1  0  0  0  0
 17 18  2  0  0  0  0
 20 21  1  6  0  0  0
 21 22  1  0  0  0  0
 22 20  1  0  0  0  0
 22 19  1  1  0  0  0
 24 25  1  0  0  0  0
 24 20  1  0  0  0  0
 24 23  1  1  0  0  0
 25 23  1  0  0  0  0
 26 27  1  0  0  0  0
 29 28  1  6  0  0  0
 29 30  1  0  0  0  0
 29 27  1  0  0  0  0
 30 31  3  0  0  0  0
 31 34  1  0  0  0  0
 32 33  1  0  0  0  0
 34 32  2  0  0  0  0
 35 37  1  0  0  0  0
 36 35  2  0  0  0  0
 36 34  1  0  0  0  0
 37 33  2  0  0  0  0
 38 39  3  0  0  0  0
 39 35  1  0  0  0  0
M  END
>  <MODEL>
3

>  <REMARK>
 VINA RESULT:      -7.4      2.917      7.006
  Name = 
  11 active torsions:
  status: ('A' for Active; 'I' for Inactive)
    1  A    between atoms: C_1  and  C_23
    2  A    between atoms: C_9  and  C_18
    3  A    between atoms: C_11  and  N_12
    4  A    between atoms: C_13  and  C_14
    5  A    between atoms: C_13  and  C_23
    6  A    between atoms: C_14  and  C_30
    7  A    between atoms: N_15  and  C_32
    8  A    between atoms: C_16  and  C_31
    9  A    between atoms: C_19  and  C_28
   10  A    between atoms: C_32  and  C_35
   11  A    between atoms: N_33  and  C_38
                            x       y       z     vdW  Elec       q    Type
                         _______ _______ _______ _____ _____    ______ ____

>  <TORSDO>
F 11

$$$$
=
 OpenBabel11042417313D

 39 45  0  0  1  0  0  0  0  0999 V2000
  192.8000  175.2290  144.4020 C   0  0  1  0  0  3  0  0  0  0  0  0
  192.6960  175.3610  145.8630 N   0  0  0  0  0  0  0  0  0  0  0  0
  192.2130  176.4940  143.8340 C   0  0  2  0  0  0  0  0  0  0  0  0
  191.1280  176.2500  142.7940 C   0  0  2  0  0  3  0  0  0  0  0  0
  192.4400  176.9240  142.4020 C   0  0  0  0  0  2  0  0  0  0  0  0
  194.0530  175.2580  146.4100 C   0  0  0  0  0  3  0  0  0  0  0  0
  192.2070  176.7130  146.1870 C   0  0  1  0  0  3  0  0  0  0  0  0
  194.2060  175.1050  144.0810 N   0  0  0  0  0  0  0  0  0  0  0  0
  195.0320  175.1300  145.2630 C   0  0  0  0  0  3  0  0  0  0  0  0
  191.9370  177.4950  144.9100 C   0  0  0  0  0  2  0  0  0  0  0  0
  196.4310  176.6750  141.9220 C   0  0  0  0  0  2  0  0  0  0  0  0
  195.5340  175.4550  142.0950 C   0  0  0  0  0  0  0  0  0  0  0  0
  196.3900  175.7230  140.8610 C   0  0  0  0  0  2  0  0  0  0  0  0
  194.6700  174.7180  142.7820 C   0  0  0  0  0  3  0  0  0  0  0  0
  190.0750  177.2560  142.8580 N   0  0  0  0  0  2  0  0  0  0  0  0
  187.7730  178.0370  142.4530 N   0  0  0  0  0  2  0  0  0  0  0  0
  188.7550  177.0030  142.3780 C   0  0  0  0  0  0  0  0  0  0  0  0
  188.4600  175.8780  141.8880 O   0  0  0  0  0  0  0  0  0  0  0  0
  186.4180  177.8750  141.9460 C   0  0  0  0  0  2  0  0  0  0  0  0
  185.1230  178.4910  143.9310 C   0  0  2  0  0  3  0  0  0  0  0  0
  184.2550  177.9990  142.9390 O   0  0  0  0  0  0  0  0  0  0  0  0
  185.5070  177.3700  143.0500 C   0  0  1  0  0  3  0  0  0  0  0  0
  185.0010  178.9430  146.3360 C   0  0  0  0  0  2  0  0  0  0  0  0
  184.6880  177.9560  145.2800 C   0  0  1  0  0  3  0  0  0  0  0  0
  183.7030  178.8080  145.8120 O   0  0  0  0  0  0  0  0  0  0  0  0
  190.9280  176.6260  147.0080 C   0  0  0  0  0  2  0  0  0  0  0  0
  190.7220  175.2210  147.5560 C   0  0  0  0  0  2  0  0  0  0  0  0
  188.3930  175.7190  146.8260 C   0  0  0  0  0  1  0  0  0  0  0  0
  189.4150  174.6230  147.0610 C   0  0  1  0  0  3  0  0  0  0  0  0
  189.6540  173.9040  145.8090 C   0  0  0  0  0  0  0  0  0  0  0  0
  189.8430  173.3070  144.7770 C   0  0  0  0  0  0  0  0  0  0  0  0
  191.0240  171.5770  143.4970 C   0  0  0  0  0  3  0  0  0  0  0  0
  191.2370  170.8820  142.3010 C   0  0  0  0  0  3  0  0  0  0  0  0
  190.0630  172.5920  143.5530 C   0  0  0  0  0  0  0  0  0  0  0  0
  189.5290  172.2180  141.2200 C   0  0  0  0  0  0  0  0  0  0  0  0
  189.3170  172.9130  142.4150 C   0  0  0  0  0  3  0  0  0  0  0  0
  190.4910  171.2030  141.1630 C   0  0  0  0  0  3  0  0  0  0  0  0
  188.1470  172.8160  139.1100 N   0  0  0  0  0  0  0  0  0  0  0  0
  188.7630  172.5490  140.0520 C   0  0  0  0  0  0  0  0  0  0  0  0
  1  8  1  1  0  0  0
  1  2  1  0  0  0  0
  2  7  1  0  0  0  0
  2  6  1  0  0  0  0
  3  5  1  6  0  0  0
  3  1  1  0  0  0  0
  3 10  1  0  0  0  0
  4 15  1  1  0  0  0
  4  3  1  0  0  0  0
  5  4  1  0  0  0  0
  7 26  1  6  0  0  0
  8  9  1  0  0  0  0
  9  6  2  0  0  0  0
 10  7  1  0  0  0  0
 11 12  1  0  0  0  0
 12 14  2  0  0  0  0
 13 11  1  0  0  0  0
 13 12  1  0  0  0  0
 14  8  1  0  0  0  0
 17 16  1  0  0  0  0
 17 15  1  0  0  0  0
 18 17  2  0  0  0  0
 19 16  1  0  0  0  0
 20 21  1  6  0  0  0
 20 24  1  0  0  0  0
 21 22  1  0  0  0  0
 22 19  1  6  0  0  0
 22 20  1  0  0  0  0
 24 25  1  0  0  0  0
 24 23  1  1  0  0  0
 25 23  1  0  0  0  0
 26 27  1  0  0  0  0
 29 28  1  6  0  0  0
 29 27  1  0  0  0  0
 30 29  1  0  0  0  0
 31 30  3  0  0  0  0
 32 34  1  0  0  0  0
 33 32  2  0  0  0  0
 34 31  1  0  0  0  0
 35 36  1  0  0  0  0
 36 34  2  0  0  0  0
 37 35  2  0  0  0  0
 37 33  1  0  0  0  0
 38 39  3  0  0  0  0
 39 35  1  0  0  0  0
M  END
>  <MODEL>
4

>  <REMARK>
 VINA RESULT:      -7.3      4.150      8.590
  Name = 
  11 active torsions:
  status: ('A' for Active; 'I' for Inactive)
    1  A    between atoms: C_1  and  C_23
    2  A    between atoms: C_9  and  C_18
    3  A    between atoms: C_11  and  N_12
    4  A    between atoms: C_13  and  C_14
    5  A    between atoms: C_13  and  C_23
    6  A    between atoms: C_14  and  C_30
    7  A    between atoms: N_15  and  C_32
    8  A    between atoms: C_16  and  C_31
    9  A    between atoms: C_19  and  C_28
   10  A    between atoms: C_32  and  C_35
   11  A    between atoms: N_33  and  C_38
                            x       y       z     vdW  Elec       q    Type
                         _______ _______ _______ _____ _____    ______ ____

>  <TORSDO>
F 11

$$$$
=
 OpenBabel11042417313D

 39 45  0  0  1  0  0  0  0  0999 V2000
  186.6920  178.2430  143.9130 C   0  0  1  0  0  3  0  0  0  0  0  0
  186.6940  178.6940  145.3120 N   0  0  0  0  0  0  0  0  0  0  0  0
  186.9970  176.7690  143.9580 C   0  0  2  0  0  0  0  0  0  0  0  0
  188.1570  176.3580  143.0610 C   0  0  2  0  0  3  0  0  0  0  0  0
  186.7440  175.8510  142.7830 C   0  0  0  0  0  2  0  0  0  0  0  0
  185.3730  179.2690  145.5890 C   0  0  0  0  0  3  0  0  0  0  0  0
  186.8400  177.5210  146.1920 C   0  0  1  0  0  3  0  0  0  0  0  0
  185.3690  178.4960  143.3810 N   0  0  0  0  0  0  0  0  0  0  0  0
  184.5060  179.1100  144.3580 C   0  0  0  0  0  3  0  0  0  0  0  0
  186.9830  176.2550  145.3610 C   0  0  0  0  0  2  0  0  0  0  0  0
  182.3170  178.2200  141.7430 C   0  0  0  0  0  2  0  0  0  0  0  0
  183.8250  178.3060  141.5350 C   0  0  0  0  0  0  0  0  0  0  0  0
  182.8080  178.1840  140.4050 C   0  0  0  0  0  2  0  0  0  0  0  0
  185.0700  178.4080  141.9830 C   0  0  0  0  0  3  0  0  0  0  0  0
  188.9440  175.2810  143.6470 N   0  0  0  0  0  2  0  0  0  0  0  0
  190.9330  173.8270  143.7370 N   0  0  0  0  0  2  0  0  0  0  0  0
  190.2190  174.9040  143.1270 C   0  0  0  0  0  0  0  0  0  0  0  0
  190.7080  175.5130  142.1360 O   0  0  0  0  0  0  0  0  0  0  0  0
  192.2170  173.3530  143.2400 C   0  0  0  0  0  2  0  0  0  0  0  0
  192.8440  171.1950  144.2120 C   0  0  2  0  0  3  0  0  0  0  0  0
  191.4430  171.2750  144.1130 O   0  0  0  0  0  0  0  0  0  0  0  0
  192.1820  171.8460  143.0640 C   0  0  1  0  0  3  0  0  0  0  0  0
  194.6230  169.5210  144.3940 C   0  0  0  0  0  2  0  0  0  0  0  0
  193.2880  169.8000  143.8220 C   0  0  1  0  0  3  0  0  0  0  0  0
  193.4480  169.0310  144.9890 O   0  0  0  0  0  0  0  0  0  0  0  0
  188.0650  177.6830  147.0820 C   0  0  0  0  0  2  0  0  0  0  0  0
  189.3260  177.2090  146.3730 C   0  0  0  0  0  2  0  0  0  0  0  0
  189.3580  174.8840  147.2700 C   0  0  0  0  0  1  0  0  0  0  0  0
  190.0940  176.2100  147.2250 C   0  0  1  0  0  3  0  0  0  0  0  0
  191.4260  176.0080  146.6530 C   0  0  0  0  0  0  0  0  0  0  0  0
  192.5210  175.8450  146.1730 C   0  0  0  0  0  0  0  0  0  0  0  0
  194.3710  176.6250  144.7610 C   0  0  0  0  0  3  0  0  0  0  0  0
  195.6380  176.4300  144.1990 C   0  0  0  0  0  3  0  0  0  0  0  0
  193.8200  175.6490  145.5960 C   0  0  0  0  0  0  0  0  0  0  0  0
  195.7990  174.2820  145.3080 C   0  0  0  0  0  0  0  0  0  0  0  0
  194.5330  174.4780  145.8690 C   0  0  0  0  0  3  0  0  0  0  0  0
  196.3510  175.2580  144.4710 C   0  0  0  0  0  3  0  0  0  0  0  0
  197.1190  172.1090  145.8120 N   0  0  0  0  0  0  0  0  0  0  0  0
  196.5300  173.0790  145.5880 C   0  0  0  0  0  0  0  0  0  0  0  0
  1  8  1  1  0  0  0
  1  3  1  0  0  0  0
  1  2  1  0  0  0  0
  2  6  1  0  0  0  0
  2  7  1  0  0  0  0
  3  5  1  6  0  0  0
  3 10  1  0  0  0  0
  4 15  1  1  0  0  0
  4  3  1  0  0  0  0
  5  4  1  0  0  0  0
  7 26  1  6  0  0  0
  8  9  1  0  0  0  0
  9  6  2  0  0  0  0
 10  7  1  0  0  0  0
 12 11  1  0  0  0  0
 12 14  2  0  0  0  0
 13 12  1  0  0  0  0
 13 11  1  0  0  0  0
 14  8  1  0  0  0  0
 17 15  1  0  0  0  0
 17 16  1  0  0  0  0
 18 17  2  0  0  0  0
 19 16  1  0  0  0  0
 20 21  1  1  0  0  0
 22 19  1  1  0  0  0
 22 21  1  0  0  0  0
 22 20  1  0  0  0  0
 23 25  1  0  0  0  0
 24 20  1  0  0  0  0
 24 23  1  1  0  0  0
 24 25  1  0  0  0  0
 27 26  1  0  0  0  0
 27 29  1  0  0  0  0
 29 28  1  6  0  0  0
 30 29  1  0  0  0  0
 31 30  3  0  0  0  0
 32 34  1  0  0  0  0
 33 37  1  0  0  0  0
 33 32  2  0  0  0  0
 34 36  2  0  0  0  0
 34 31  1  0  0  0  0
 35 39  1  0  0  0  0
 35 36  1  0  0  0  0
 37 35  2  0  0  0  0
 39 38  3  0  0  0  0
M  END
>  <MODEL>
5

>  <REMARK>
 VINA RESULT:      -7.3      2.879      7.072
  Name = 
  11 active torsions:
  status: ('A' for Active; 'I' for Inactive)
    1  A    between atoms: C_1  and  C_23
    2  A    between atoms: C_9  and  C_18
    3  A    between atoms: C_11  and  N_12
    4  A    between atoms: C_13  and  C_14
    5  A    between atoms: C_13  and  C_23
    6  A    between atoms: C_14  and  C_30
    7  A    between atoms: N_15  and  C_32
    8  A    between atoms: C_16  and  C_31
    9  A    between atoms: C_19  and  C_28
   10  A    between atoms: C_32  and  C_35
   11  A    between atoms: N_33  and  C_38
                            x       y       z     vdW  Elec       q    Type
                         _______ _______ _______ _____ _____    ______ ____

>  <TORSDO>
F 11

$$$$
=
 OpenBabel11042417313D

 39 45  0  0  1  0  0  0  0  0999 V2000
  194.9310  173.3410  143.7580 C   0  0  1  0  0  3  0  0  0  0  0  0
  194.4340  171.9820  143.4930 N   0  0  0  0  0  0  0  0  0  0  0  0
  194.1910  173.8170  144.9790 C   0  0  2  0  0  0  0  0  0  0  0  0
  193.5050  175.1640  144.7900 C   0  0  2  0  0  3  0  0  0  0  0  0
  194.6460  175.0070  145.7930 C   0  0  0  0  0  2  0  0  0  0  0  0
  195.5890  171.0780  143.5330 C   0  0  0  0  0  3  0  0  0  0  0  0
  193.5390  171.5790  144.5920 C   0  0  1  0  0  3  0  0  0  0  0  0
  196.3540  173.2370  144.0060 N   0  0  0  0  0  0  0  0  0  0  0  0
  196.8210  171.8770  143.8990 C   0  0  0  0  0  3  0  0  0  0  0  0
  193.3990  172.7110  145.5990 C   0  0  0  0  0  2  0  0  0  0  0  0
  196.2030  176.2530  142.2860 C   0  0  0  0  0  2  0  0  0  0  0  0
  196.9960  175.4610  143.3200 C   0  0  0  0  0  0  0  0  0  0  0  0
  197.3590  176.8660  142.8520 C   0  0  0  0  0  2  0  0  0  0  0  0
  197.2130  174.3820  144.0610 C   0  0  0  0  0  3  0  0  0  0  0  0
  192.2420  175.2380  145.5130 N   0  0  0  0  0  2  0  0  0  0  0  0
  190.1690  176.3970  146.1760 N   0  0  0  0  0  2  0  0  0  0  0  0
  191.3870  176.3780  145.4290 C   0  0  0  0  0  0  0  0  0  0  0  0
  191.7060  177.3620  144.7050 O   0  0  0  0  0  0  0  0  0  0  0  0
  189.2650  177.5380  146.1790 C   0  0  0  0  0  2  0  0  0  0  0  0
  186.8280  177.7680  146.1590 C   0  0  2  0  0  3  0  0  0  0  0  0
  187.1720  176.4120  146.0110 O   0  0  0  0  0  0  0  0  0  0  0  0
  187.9700  177.1730  146.8810 C   0  0  1  0  0  3  0  0  0  0  0  0
  184.5340  178.5920  146.4080 C   0  0  0  0  0  2  0  0  0  0  0  0
  185.6360  177.8780  147.0880 C   0  0  1  0  0  3  0  0  0  0  0  0
  184.5490  177.1910  146.5180 O   0  0  0  0  0  0  0  0  0  0  0  0
  192.1660  171.2150  144.0440 C   0  0  0  0  0  2  0  0  0  0  0  0
  191.5060  172.4150  143.3780 C   0  0  0  0  0  2  0  0  0  0  0  0
  189.6640  172.0370  145.0130 C   0  0  0  0  0  1  0  0  0  0  0  0
  189.9980  172.3950  143.5770 C   0  0  1  0  0  3  0  0  0  0  0  0
  189.4500  173.7150  143.2640 C   0  0  0  0  0  0  0  0  0  0  0  0
  188.9890  174.8000  143.0060 C   0  0  0  0  0  0  0  0  0  0  0  0
  189.2730  177.1370  142.3120 C   0  0  0  0  0  3  0  0  0  0  0  0
  188.7290  178.3910  142.0120 C   0  0  0  0  0  3  0  0  0  0  0  0
  188.4350  176.0860  142.6970 C   0  0  0  0  0  0  0  0  0  0  0  0
  186.5100  177.5420  142.4840 C   0  0  0  0  0  0  0  0  0  0  0  0
  187.0540  176.2890  142.7840 C   0  0  0  0  0  3  0  0  0  0  0  0
  187.3480  178.5940  142.0990 C   0  0  0  0  0  3  0  0  0  0  0  0
  183.9500  177.9140  142.6480 N   0  0  0  0  0  0  0  0  0  0  0  0
  185.0920  177.7490  142.5740 C   0  0  0  0  0  0  0  0  0  0  0  0
  1  2  1  1  0  0  0
  1  8  1  0  0  0  0
  1  3  1  0  0  0  0
  2  6  1  0  0  0  0
  2  7  1  0  0  0  0
  3 10  1  1  0  0  0
  3  5  1  0  0  0  0
  4  3  1  0  0  0  0
  4 15  1  1  0  0  0
  4  5  1  0  0  0  0
  6  9  2  0  0  0  0
  7 26  1  6  0  0  0
  7 10  1  0  0  0  0
  8 14  1  0  0  0  0
  9  8  1  0  0  0  0
 11 13  1  0  0  0  0
 11 12  1  0  0  0  0
 12 14  2  0  0  0  0
 13 12  1  0  0  0  0
 16 19  1  0  0  0  0
 17 15  1  0  0  0  0
 17 16  1  0  0  0  0
 18 17  2  0  0  0  0
 20 21  1  6  0  0  0
 20 22  1  0  0  0  0
 20 24  1  0  0  0  0
 21 22  1  0  0  0  0
 22 19  1  6  0  0  0
 23 25  1  0  0  0  0
 24 23  1  6  0  0  0
 25 24  1  0  0  0  0
 27 29  1  0  0  0  0
 27 26  1  0  0  0  0
 29 28  1  1  0  0  0
 30 29  1  0  0  0  0
 31 30  3  0  0  0  0
 32 34  1  0  0  0  0
 33 37  1  0  0  0  0
 33 32  2  0  0  0  0
 34 36  2  0  0  0  0
 34 31  1  0  0  0  0
 35 39  1  0  0  0  0
 35 36  1  0  0  0  0
 37 35  2  0  0  0  0
 39 38  3  0  0  0  0
M  END
>  <MODEL>
6

>  <REMARK>
 VINA RESULT:      -7.2      4.145      7.852
  Name = 
  11 active torsions:
  status: ('A' for Active; 'I' for Inactive)
    1  A    between atoms: C_1  and  C_23
    2  A    between atoms: C_9  and  C_18
    3  A    between atoms: C_11  and  N_12
    4  A    between atoms: C_13  and  C_14
    5  A    between atoms: C_13  and  C_23
    6  A    between atoms: C_14  and  C_30
    7  A    between atoms: N_15  and  C_32
    8  A    between atoms: C_16  and  C_31
    9  A    between atoms: C_19  and  C_28
   10  A    between atoms: C_32  and  C_35
   11  A    between atoms: N_33  and  C_38
                            x       y       z     vdW  Elec       q    Type
                         _______ _______ _______ _____ _____    ______ ____

>  <TORSDO>
F 11

$$$$
=
 OpenBabel11042417313D

 39 45  0  0  1  0  0  0  0  0999 V2000
  189.9580  174.4460  141.7680 C   0  0  1  0  0  3  0  0  0  0  0  0
  190.2580  175.5430  142.6990 N   0  0  0  0  0  0  0  0  0  0  0  0
  189.8840  173.2020  142.6120 C   0  0  2  0  0  0  0  0  0  0  0  0
  190.7740  172.0710  142.1140 C   0  0  2  0  0  3  0  0  0  0  0  0
  189.2550  171.9190  142.1160 C   0  0  0  0  0  2  0  0  0  0  0  0
  189.1730  176.5250  142.5840 C   0  0  0  0  0  3  0  0  0  0  0  0
  190.2170  175.0250  144.0780 C   0  0  1  0  0  3  0  0  0  0  0  0
  188.6840  174.7440  141.1470 N   0  0  0  0  0  0  0  0  0  0  0  0
  188.1400  175.9950  141.6120 C   0  0  0  0  0  3  0  0  0  0  0  0
  189.9240  173.5320  144.0700 C   0  0  0  0  0  2  0  0  0  0  0  0
  190.2860  173.7900  138.2150 C   0  0  0  0  0  2  0  0  0  0  0  0
  188.9610  173.7450  138.9660 C   0  0  0  0  0  0  0  0  0  0  0  0
  189.1860  173.1310  137.5890 C   0  0  0  0  0  2  0  0  0  0  0  0
  188.1920  174.0230  140.0120 C   0  0  0  0  0  3  0  0  0  0  0  0
  191.3330  171.2930  143.2120 N   0  0  0  0  0  2  0  0  0  0  0  0
  193.2230  170.3100  144.4530 N   0  0  0  0  0  2  0  0  0  0  0  0
  192.7390  171.0980  143.3640 C   0  0  0  0  0  0  0  0  0  0  0  0
  193.5460  171.6150  142.5420 O   0  0  0  0  0  0  0  0  0  0  0  0
  194.6370  170.0280  144.6530 C   0  0  0  0  0  2  0  0  0  0  0  0
  195.7960  172.1320  145.1280 C   0  0  2  0  0  3  0  0  0  0  0  0
  194.5180  172.1570  145.7170 O   0  0  0  0  0  0  0  0  0  0  0  0
  195.1980  170.9270  145.7390 C   0  0  1  0  0  3  0  0  0  0  0  0
  197.5790  173.7900  145.3890 C   0  0  0  0  0  2  0  0  0  0  0  0
  196.7950  172.7490  146.0860 C   0  0  1  0  0  3  0  0  0  0  0  0
  196.5010  174.1170  146.2300 O   0  0  0  0  0  0  0  0  0  0  0  0
  191.5480  175.2760  144.7730 C   0  0  0  0  0  2  0  0  0  0  0  0
  191.4770  176.5060  145.6670 C   0  0  0  0  0  2  0  0  0  0  0  0
  191.2740  176.9180  148.1160 C   0  0  0  0  0  1  0  0  0  0  0  0
  190.6510  176.2320  146.9150 C   0  0  1  0  0  3  0  0  0  0  0  0
  189.2920  176.7370  146.7160 C   0  0  0  0  0  0  0  0  0  0  0  0
  188.1750  177.1620  146.5520 C   0  0  0  0  0  0  0  0  0  0  0  0
  186.1050  178.1250  147.4540 C   0  0  0  0  0  3  0  0  0  0  0  0
  184.8110  178.6220  147.2630 C   0  0  0  0  0  3  0  0  0  0  0  0
  186.8480  177.6730  146.3590 C   0  0  0  0  0  0  0  0  0  0  0  0
  185.0050  178.2130  144.8830 C   0  0  0  0  0  0  0  0  0  0  0  0
  186.2980  177.7170  145.0750 C   0  0  0  0  0  3  0  0  0  0  0  0
  184.2610  178.6660  145.9780 C   0  0  0  0  0  3  0  0  0  0  0  0
  183.9870  178.2910  142.5000 N   0  0  0  0  0  0  0  0  0  0  0  0
  184.4410  178.2570  143.5640 C   0  0  0  0  0  0  0  0  0  0  0  0
  1  8  1  1  0  0  0
  1  3  1  0  0  0  0
  1  2  1  0  0  0  0
  2  7  1  0  0  0  0
  3  5  1  6  0  0  0
  3 10  1  0  0  0  0
  4  5  1  0  0  0  0
  4  3  1  0  0  0  0
  4 15  1  1  0  0  0
  6  2  1  0  0  0  0
  7 26  1  6  0  0  0
  8  9  1  0  0  0  0
  9  6  2  0  0  0  0
 10  7  1  0  0  0  0
 11 12  1  0  0  0  0
 12 14  2  0  0  0  0
 13 11  1  0  0  0  0
 13 12  1  0  0  0  0
 14  8  1  0  0  0  0
 15 17  1  0  0  0  0
 16 19  1  0  0  0  0
 17 16  1  0  0  0  0
 18 17  2  0  0  0  0
 20 21  1  1  0  0  0
 20 22  1  0  0  0  0
 20 24  1  0  0  0  0
 21 22  1  0  0  0  0
 22 19  1  6  0  0  0
 23 25  1  0  0  0  0
 24 23  1  6  0  0  0
 24 25  1  0  0  0  0
 26 27  1  0  0  0  0
 27 29  1  0  0  0  0
 29 28  1  1  0  0  0
 30 29  1  0  0  0  0
 31 30  3  0  0  0  0
 33 32  1  0  0  0  0
 34 31  1  0  0  0  0
 34 32  2  0  0  0  0
 35 36  2  0  0  0  0
 35 37  1  0  0  0  0
 36 34  1  0  0  0  0
 37 33  2  0  0  0  0
 38 39  3  0  0  0  0
 39 35  1  0  0  0  0
M  END
>  <MODEL>
7

>  <REMARK>
 VINA RESULT:      -7.2      1.676      1.893
  Name = 
  11 active torsions:
  status: ('A' for Active; 'I' for Inactive)
    1  A    between atoms: C_1  and  C_23
    2  A    between atoms: C_9  and  C_18
    3  A    between atoms: C_11  and  N_12
    4  A    between atoms: C_13  and  C_14
    5  A    between atoms: C_13  and  C_23
    6  A    between atoms: C_14  and  C_30
    7  A    between atoms: N_15  and  C_32
    8  A    between atoms: C_16  and  C_31
    9  A    between atoms: C_19  and  C_28
   10  A    between atoms: C_32  and  C_35
   11  A    between atoms: N_33  and  C_38
                            x       y       z     vdW  Elec       q    Type
                         _______ _______ _______ _____ _____    ______ ____

>  <TORSDO>
F 11

$$$$
=
 OpenBabel11042417313D

 39 45  0  0  1  0  0  0  0  0999 V2000
  186.8030  178.1430  143.7430 C   0  0  1  0  0  3  0  0  0  0  0  0
  186.8380  178.6760  145.1120 N   0  0  0  0  0  0  0  0  0  0  0  0
  186.9910  176.6550  143.8780 C   0  0  2  0  0  0  0  0  0  0  0  0
  188.1170  176.1010  143.0150 C   0  0  2  0  0  3  0  0  0  0  0  0
  186.6690  175.6900  142.7600 C   0  0  0  0  0  2  0  0  0  0  0  0
  185.5650  179.3680  145.3460 C   0  0  0  0  0  3  0  0  0  0  0  0
  186.8900  177.5510  146.0630 C   0  0  1  0  0  3  0  0  0  0  0  0
  185.5050  178.4660  143.1880 N   0  0  0  0  0  0  0  0  0  0  0  0
  184.6900  179.2030  144.1210 C   0  0  0  0  0  3  0  0  0  0  0  0
  186.9340  176.2290  145.3100 C   0  0  0  0  0  2  0  0  0  0  0  0
  182.4430  178.2880  141.5550 C   0  0  0  0  0  2  0  0  0  0  0  0
  183.9530  178.2670  141.3490 C   0  0  0  0  0  0  0  0  0  0  0  0
  182.9320  178.1440  140.2230 C   0  0  0  0  0  2  0  0  0  0  0  0
  185.2020  178.3170  141.7970 C   0  0  0  0  0  3  0  0  0  0  0  0
  188.8170  175.0030  143.6700 N   0  0  0  0  0  2  0  0  0  0  0  0
  190.7220  173.4570  143.9050 N   0  0  0  0  0  2  0  0  0  0  0  0
  190.0970  174.5500  143.2310 C   0  0  0  0  0  0  0  0  0  0  0  0
  190.6690  175.1080  142.2530 O   0  0  0  0  0  0  0  0  0  0  0  0
  192.0060  172.9080  143.4920 C   0  0  0  0  0  2  0  0  0  0  0  0
  191.6670  171.7110  141.3830 C   0  0  2  0  0  3  0  0  0  0  0  0
  192.8750  171.2930  141.9710 O   0  0  0  0  0  0  0  0  0  0  0  0
  191.8060  171.5500  142.8450 C   0  0  1  0  0  3  0  0  0  0  0  0
  190.5760  170.7770  139.3990 C   0  0  0  0  0  2  0  0  0  0  0  0
  190.9570  170.5050  140.8010 C   0  0  1  0  0  3  0  0  0  0  0  0
  191.7100  170.0120  139.7200 O   0  0  0  0  0  0  0  0  0  0  0  0
  188.1220  177.6700  146.9490 C   0  0  0  0  0  2  0  0  0  0  0  0
  189.3660  177.1650  146.2310 C   0  0  0  0  0  2  0  0  0  0  0  0
  189.4350  174.8990  147.2640 C   0  0  0  0  0  1  0  0  0  0  0  0
  190.1660  176.2200  147.1140 C   0  0  1  0  0  3  0  0  0  0  0  0
  191.4780  175.9850  146.5100 C   0  0  0  0  0  0  0  0  0  0  0  0
  192.5610  175.7850  146.0180 C   0  0  0  0  0  0  0  0  0  0  0  0
  194.8070  174.7990  146.1380 C   0  0  0  0  0  3  0  0  0  0  0  0
  196.0650  174.5690  145.5720 C   0  0  0  0  0  3  0  0  0  0  0  0
  193.8520  175.5450  145.4400 C   0  0  0  0  0  0  0  0  0  0  0  0
  195.4140  175.8320  143.6100 C   0  0  0  0  0  0  0  0  0  0  0  0
  194.1560  176.0620  144.1760 C   0  0  0  0  0  3  0  0  0  0  0  0
  196.3690  175.0860  144.3090 C   0  0  0  0  0  3  0  0  0  0  0  0
  195.9750  176.7910  141.2680 N   0  0  0  0  0  0  0  0  0  0  0  0
  195.7250  176.3630  142.3130 C   0  0  0  0  0  0  0  0  0  0  0  0
  1  8  1  1  0  0  0
  1  3  1  0  0  0  0
  1  2  1  0  0  0  0
  2  6  1  0  0  0  0
  2  7  1  0  0  0  0
  3  5  1  6  0  0  0
  3 10  1  0  0  0  0
  4 15  1  1  0  0  0
  4  3  1  0  0  0  0
  5  4  1  0  0  0  0
  7 26  1  6  0  0  0
  8  9  1  0  0  0  0
  9  6  2  0  0  0  0
 10  7  1  0  0  0  0
 12 11  1  0  0  0  0
 12 14  2  0  0  0  0
 13 12  1  0  0  0  0
 13 11  1  0  0  0  0
 14  8  1  0  0  0  0
 17 15  1  0  0  0  0
 17 16  1  0  0  0  0
 18 17  2  0  0  0  0
 19 16  1  0  0  0  0
 20 21  1  6  0  0  0
 20 22  1  0  0  0  0
 21 22  1  0  0  0  0
 22 19  1  1  0  0  0
 23 25  1  0  0  0  0
 24 23  1  6  0  0  0
 24 20  1  0  0  0  0
 25 24  1  0  0  0  0
 27 26  1  0  0  0  0
 27 29  1  0  0  0  0
 29 28  1  6  0  0  0
 30 29  1  0  0  0  0
 31 30  3  0  0  0  0
 33 32  1  0  0  0  0
 34 31  1  0  0  0  0
 34 32  2  0  0  0  0
 35 36  2  0  0  0  0
 35 37  1  0  0  0  0
 36 34  1  0  0  0  0
 37 33  2  0  0  0  0
 38 39  3  0  0  0  0
 39 35  1  0  0  0  0
M  END
>  <MODEL>
8

>  <REMARK>
 VINA RESULT:      -7.2      3.082      7.243
  Name = 
  11 active torsions:
  status: ('A' for Active; 'I' for Inactive)
    1  A    between atoms: C_1  and  C_23
    2  A    between atoms: C_9  and  C_18
    3  A    between atoms: C_11  and  N_12
    4  A    between atoms: C_13  and  C_14
    5  A    between atoms: C_13  and  C_23
    6  A    between atoms: C_14  and  C_30
    7  A    between atoms: N_15  and  C_32
    8  A    between atoms: C_16  and  C_31
    9  A    between atoms: C_19  and  C_28
   10  A    between atoms: C_32  and  C_35
   11  A    between atoms: N_33  and  C_38
                            x       y       z     vdW  Elec       q    Type
                         _______ _______ _______ _____ _____    ______ ____

>  <TORSDO>
F 11

$$$$
=
 OpenBabel11042417313D

 39 45  0  0  1  0  0  0  0  0999 V2000
  194.5010  173.4520  143.4000 C   0  0  1  0  0  3  0  0  0  0  0  0
  193.7390  172.7650  144.4520 N   0  0  0  0  0  0  0  0  0  0  0  0
  194.2840  174.9230  143.6310 C   0  0  2  0  0  0  0  0  0  0  0  0
  193.7940  175.6700  142.3980 C   0  0  2  0  0  3  0  0  0  0  0  0
  195.1610  175.9830  143.0020 C   0  0  0  0  0  2  0  0  0  0  0  0
  194.6860  171.9430  145.2140 C   0  0  0  0  0  3  0  0  0  0  0  0
  193.2010  173.7700  145.3860 C   0  0  1  0  0  3  0  0  0  0  0  0
  195.8920  173.0860  143.5680 N   0  0  0  0  0  0  0  0  0  0  0  0
  196.0800  172.1760  144.6700 C   0  0  0  0  0  3  0  0  0  0  0  0
  193.5760  175.1700  144.9250 C   0  0  0  0  0  2  0  0  0  0  0  0
  196.9540  171.2270  140.8310 C   0  0  0  0  0  2  0  0  0  0  0  0
  197.1640  172.5310  141.5920 C   0  0  0  0  0  0  0  0  0  0  0  0
  197.9410  172.1320  140.3410 C   0  0  0  0  0  2  0  0  0  0  0  0
  196.8900  173.3730  142.5810 C   0  0  0  0  0  3  0  0  0  0  0  0
  192.8650  176.7390  142.7410 N   0  0  0  0  0  2  0  0  0  0  0  0
  190.5940  177.6270  143.1000 N   0  0  0  0  0  2  0  0  0  0  0  0
  191.4530  176.5340  142.7730 C   0  0  0  0  0  0  0  0  0  0  0  0
  190.9680  175.3980  142.5120 O   0  0  0  0  0  0  0  0  0  0  0  0
  189.1420  177.5120  143.1120 C   0  0  0  0  0  2  0  0  0  0  0  0
  187.3460  177.4890  141.4480 C   0  0  2  0  0  3  0  0  0  0  0  0
  187.2650  178.6700  142.2100 O   0  0  0  0  0  0  0  0  0  0  0  0
  188.5560  178.2080  141.8980 C   0  0  1  0  0  3  0  0  0  0  0  0
  186.6560  176.5930  139.2750 C   0  0  0  0  0  2  0  0  0  0  0  0
  187.0670  177.8180  139.9960 C   0  0  1  0  0  3  0  0  0  0  0  0
  185.7170  177.5410  139.7180 O   0  0  0  0  0  0  0  0  0  0  0  0
  191.6850  173.6530  145.4670 C   0  0  0  0  0  2  0  0  0  0  0  0
  191.0420  175.0100  145.7160 C   0  0  0  0  0  2  0  0  0  0  0  0
  191.0810  175.6880  148.1130 C   0  0  0  0  0  1  0  0  0  0  0  0
  190.2640  175.0200  147.0230 C   0  0  1  0  0  3  0  0  0  0  0  0
  189.0100  175.7510  146.8360 C   0  0  0  0  0  0  0  0  0  0  0  0
  187.9760  176.3550  146.6900 C   0  0  0  0  0  0  0  0  0  0  0  0
  186.0880  177.6060  147.6380 C   0  0  0  0  0  3  0  0  0  0  0  0
  184.8860  178.3020  147.4730 C   0  0  0  0  0  3  0  0  0  0  0  0
  186.7440  177.0720  146.5250 C   0  0  0  0  0  0  0  0  0  0  0  0
  184.9980  177.9300  145.0810 C   0  0  0  0  0  0  0  0  0  0  0  0
  186.1990  177.2330  145.2470 C   0  0  0  0  0  3  0  0  0  0  0  0
  184.3410  178.4640  146.1950 C   0  0  0  0  0  3  0  0  0  0  0  0
  183.9900  178.2270  142.7120 N   0  0  0  0  0  0  0  0  0  0  0  0
  184.4400  178.0940  143.7690 C   0  0  0  0  0  0  0  0  0  0  0  0
  1  8  1  1  0  0  0
  1  3  1  0  0  0  0
  1  2  1  0  0  0  0
  2  6  1  0  0  0  0
  2  7  1  0  0  0  0
  3  5  1  1  0  0  0
  3 10  1  0  0  0  0
  4 15  1  1  0  0  0
  4  5  1  0  0  0  0
  4  3  1  0  0  0  0
  7 26  1  6  0  0  0
  8  9  1  0  0  0  0
  9  6  2  0  0  0  0
 10  7  1  0  0  0  0
 11 12  1  0  0  0  0
 12 14  2  0  0  0  0
 13 11  1  0  0  0  0
 13 12  1  0  0  0  0
 14  8  1  0  0  0  0
 15 17  1  0  0  0  0
 16 19  1  0  0  0  0
 17 16  1  0  0  0  0
 18 17  2  0  0  0  0
 20 22  1  0  0  0  0
 20 21  1  1  0  0  0
 22 21  1  0  0  0  0
 22 19  1  1  0  0  0
 23 25  1  0  0  0  0
 24 23  1  6  0  0  0
 24 20  1  0  0  0  0
 25 24  1  0  0  0  0
 26 27  1  0  0  0  0
 27 29  1  0  0  0  0
 29 28  1  1  0  0  0
 30 29  1  0  0  0  0
 31 30  3  0  0  0  0
 33 32  1  0  0  0  0
 34 31  1  0  0  0  0
 34 32  2  0  0  0  0
 35 36  2  0  0  0  0
 35 37  1  0  0  0  0
 36 34  1  0  0  0  0
 37 33  2  0  0  0  0
 38 39  3  0  0  0  0
 39 35  1  0  0  0  0
M  END
>  <MODEL>
9

>  <REMARK>
 VINA RESULT:      -7.2      3.806      7.416
  Name = 
  11 active torsions:
  status: ('A' for Active; 'I' for Inactive)
    1  A    between atoms: C_1  and  C_23
    2  A    between atoms: C_9  and  C_18
    3  A    between atoms: C_11  and  N_12
    4  A    between atoms: C_13  and  C_14
    5  A    between atoms: C_13  and  C_23
    6  A    between atoms: C_14  and  C_30
    7  A    between atoms: N_15  and  C_32
    8  A    between atoms: C_16  and  C_31
    9  A    between atoms: C_19  and  C_28
   10  A    between atoms: C_32  and  C_35
   11  A    between atoms: N_33  and  C_38
                            x       y       z     vdW  Elec       q    Type
                         _______ _______ _______ _____ _____    ______ ____

>  <TORSDO>
F 11

$$$$
