=
 OpenBabel11042418563D

 31 34  0  0  1  0  0  0  0  0999 V2000
  187.7860  176.5700  145.6890 C   0  0  1  0  0  3  0  0  0  0  0  0
  186.9960  176.7510  147.2800 Cl  0  0  0  0  0  0  0  0  0  0  0  0
  185.1230  177.8980  143.3620 C   0  0  0  0  0  0  0  0  0  0  0  0
  183.9480  178.3950  142.9910 C   0  0  0  0  0  3  0  0  0  0  0  0
  184.1980  178.3770  140.5520 N   0  0  0  0  0  0  0  0  0  0  0  0
  186.1340  177.1040  141.2720 N   0  0  0  0  0  0  0  0  0  0  0  0
  185.6850  177.9230  144.7470 C   0  0  2  0  0  3  0  0  0  0  0  0
  186.8310  176.9460  144.5940 C   0  0  0  0  0  0  0  0  0  0  0  0
  185.9940  177.0550  142.5640 C   0  0  0  0  0  0  0  0  0  0  0  0
  186.9850  176.4790  143.3940 N   0  0  0  0  0  0  0  0  0  0  0  0
  185.3980  177.9220  140.3440 C   0  0  0  0  0  3  0  0  0  0  0  0
  183.3360  178.0420  141.6770 C   0  0  2  0  0  3  0  0  0  0  0  0
  181.0400  179.2800  141.4190 N   0  0  0  0  0  0  0  0  0  0  0  0
  182.0530  178.7330  141.5330 C   0  0  0  0  0  0  0  0  0  0  0  0
  184.1200  178.4570  146.4750 O   0  0  0  0  0  1  0  0  0  0  0  0
  184.6790  177.3950  145.7630 C   0  0  0  0  0  2  0  0  0  0  0  0
  190.3410  174.6210  146.0120 C   0  0  0  0  0  2  0  0  0  0  0  0
  190.5190  175.9500  143.9670 N   0  0  0  0  0  0  0  0  0  0  0  0
  191.2930  175.4130  148.1160 N   0  0  0  0  0  1  0  0  0  0  0  0
  189.8420  177.1710  144.3160 C   0  0  0  0  0  0  0  0  0  0  0  0
  191.2720  175.1770  144.9470 C   0  0  0  0  0  2  0  0  0  0  0  0
  190.1820  175.5770  147.1970 C   0  0  1  0  0  3  0  0  0  0  0  0
  190.0450  177.0590  146.8170 C   0  0  0  0  0  2  0  0  0  0  0  0
  189.1190  177.3390  145.6280 C   0  0  2  0  0  3  0  0  0  0  0  0
  189.7880  178.1140  143.4810 O   0  0  0  0  0  0  0  0  0  0  0  0
  190.6350  175.5570  142.5700 C   0  0  0  0  0  2  0  0  0  0  0  0
  190.1020  174.1480  142.3810 C   0  0  0  0  0  2  0  0  0  0  0  0
  187.8900  173.2110  141.8180 C   0  0  0  0  0  2  0  0  0  0  0  0
  188.2290  172.9100  139.4430 N   0  0  0  0  0  1  0  0  0  0  0  0
  188.9770  174.1620  141.3690 C   0  0  2  0  0  3  0  0  0  0  0  0
  188.8650  172.7870  140.7410 C   0  0  1  0  0  3  0  0  0  0  0  0
  1  2  1  1  0  0  0
  3  7  1  0  0  0  0
  4  3  2  0  0  0  0
  5 12  1  0  0  0  0
  6  9  2  0  0  0  0
  7 16  1  1  0  0  0
  8  7  1  0  0  0  0
  8  1  1  0  0  0  0
  9  3  1  0  0  0  0
  9 10  1  0  0  0  0
 10  8  2  0  0  0  0
 11  5  2  0  0  0  0
 11  6  1  0  0  0  0
 12 14  1  6  0  0  0
 12  4  1  0  0  0  0
 13 14  3  0  0  0  0
 16 15  1  0  0  0  0
 17 22  1  0  0  0  0
 18 20  1  0  0  0  0
 18 21  1  0  0  0  0
 20 24  1  0  0  0  0
 21 17  1  0  0  0  0
 22 19  1  1  0  0  0
 23 22  1  0  0  0  0
 24  1  1  6  0  0  0
 24 23  1  0  0  0  0
 25 20  2  0  0  0  0
 26 18  1  0  0  0  0
 27 26  1  0  0  0  0
 30 28  1  0  0  0  0
 30 27  1  1  0  0  0
 31 29  1  6  0  0  0
 31 30  1  0  0  0  0
 31 28  1  0  0  0  0
M  END
>  <MODEL>
1

>  <REMARK>
 VINA RESULT:      -7.5      0.000      0.000
  Name = 
  7 active torsions:
  status: ('A' for Active; 'I' for Inactive)
    1  A    between atoms: C_3  and  C_18
    2  A    between atoms: C_3  and  C_24
    3  A    between atoms: N_4  and  C_30
    4  A    between atoms: C_5  and  C_29
    5  A    between atoms: C_13  and  C_19
    6  A    between atoms: C_26  and  C_27
    7  A    between atoms: C_27  and  C_30
                            x       y       z     vdW  Elec       q    Type
                         _______ _______ _______ _____ _____    ______ ____

>  <TORSDO>
F 7

$$$$
=
 OpenBabel11042418563D

 31 34  0  0  1  0  0  0  0  0999 V2000
  190.9660  176.2760  146.3300 C   0  0  1  0  0  3  0  0  0  0  0  0
  191.2170  176.7750  148.0260 Cl  0  0  0  0  0  0  0  0  0  0  0  0
  194.2160  175.9280  144.4360 C   0  0  0  0  0  0  0  0  0  0  0  0
  195.0860  176.0790  143.4430 C   0  0  0  0  0  3  0  0  0  0  0  0
  196.9290  174.6700  144.2330 N   0  0  0  0  0  0  0  0  0  0  0  0
  195.1550  174.1120  145.7940 N   0  0  0  0  0  0  0  0  0  0  0  0
  193.0000  176.7660  144.6700 C   0  0  2  0  0  3  0  0  0  0  0  0
  192.2800  175.9200  145.6980 C   0  0  0  0  0  0  0  0  0  0  0  0
  194.1480  174.8110  145.3600 C   0  0  0  0  0  0  0  0  0  0  0  0
  192.9210  174.8530  146.0630 N   0  0  0  0  0  0  0  0  0  0  0  0
  196.5320  174.2200  145.3870 C   0  0  0  0  0  3  0  0  0  0  0  0
  196.0730  175.0130  143.1060 C   0  0  2  0  0  3  0  0  0  0  0  0
  197.5540  175.7940  141.0900 N   0  0  0  0  0  0  0  0  0  0  0  0
  196.9000  175.4500  141.9800 C   0  0  0  0  0  0  0  0  0  0  0  0
  191.4440  178.0830  143.4200 O   0  0  0  0  0  1  0  0  0  0  0  0
  192.1580  176.8850  143.4050 C   0  0  0  0  0  2  0  0  0  0  0  0
  188.0600  177.4100  145.4930 C   0  0  0  0  0  2  0  0  0  0  0  0
  188.7790  175.6500  143.9560 N   0  0  0  0  0  0  0  0  0  0  0  0
  186.7440  176.8870  147.4810 N   0  0  0  0  0  1  0  0  0  0  0  0
  189.5790  174.7970  144.7930 C   0  0  0  0  0  0  0  0  0  0  0  0
  187.6240  176.3750  144.4700 C   0  0  0  0  0  2  0  0  0  0  0  0
  188.0800  176.8470  146.9160 C   0  0  1  0  0  3  0  0  0  0  0  0
  188.6450  175.4240  147.0390 C   0  0  0  0  0  2  0  0  0  0  0  0
  189.9130  175.1580  146.2180 C   0  0  2  0  0  3  0  0  0  0  0  0
  190.0790  173.7440  144.3130 O   0  0  0  0  0  0  0  0  0  0  0  0
  188.9860  175.6550  142.5140 C   0  0  0  0  0  2  0  0  0  0  0  0
  187.6760  175.3730  141.8010 C   0  0  0  0  0  2  0  0  0  0  0  0
  187.7610  177.7880  141.3010 C   0  0  0  0  0  2  0  0  0  0  0  0
  185.7180  177.9540  140.0170 N   0  0  0  0  0  1  0  0  0  0  0  0
  187.4420  176.4220  140.7350 C   0  0  2  0  0  3  0  0  0  0  0  0
  186.3210  177.3370  141.1840 C   0  0  1  0  0  3  0  0  0  0  0  0
  1  2  1  1  0  0  0
  3  7  1  0  0  0  0
  3  9  1  0  0  0  0
  4  3  2  0  0  0  0
  5 11  2  0  0  0  0
  7 16  1  6  0  0  0
  7  8  1  0  0  0  0
  8 10  2  0  0  0  0
  8  1  1  0  0  0  0
  9  6  2  0  0  0  0
  9 10  1  0  0  0  0
 11  6  1  0  0  0  0
 12 14  1  6  0  0  0
 12  4  1  0  0  0  0
 12  5  1  0  0  0  0
 13 14  3  0  0  0  0
 16 15  1  0  0  0  0
 17 22  1  0  0  0  0
 18 21  1  0  0  0  0
 18 20  1  0  0  0  0
 20 24  1  0  0  0  0
 21 17  1  0  0  0  0
 22 23  1  0  0  0  0
 22 19  1  6  0  0  0
 24  1  1  6  0  0  0
 24 23  1  0  0  0  0
 25 20  2  0  0  0  0
 26 18  1  0  0  0  0
 27 26  1  0  0  0  0
 30 31  1  0  0  0  0
 30 28  1  0  0  0  0
 30 27  1  1  0  0  0
 31 29  1  6  0  0  0
 31 28  1  0  0  0  0
M  END
>  <MODEL>
2

>  <REMARK>
 VINA RESULT:      -7.2      3.434      7.893
  Name = 
  7 active torsions:
  status: ('A' for Active; 'I' for Inactive)
    1  A    between atoms: C_3  and  C_18
    2  A    between atoms: C_3  and  C_24
    3  A    between atoms: N_4  and  C_30
    4  A    between atoms: C_5  and  C_29
    5  A    between atoms: C_13  and  C_19
    6  A    between atoms: C_26  and  C_27
    7  A    between atoms: C_27  and  C_30
                            x       y       z     vdW  Elec       q    Type
                         _______ _______ _______ _____ _____    ______ ____

>  <TORSDO>
F 7

$$$$
=
 OpenBabel11042418563D

 31 34  0  0  1  0  0  0  0  0999 V2000
  190.9770  176.2650  146.3170 C   0  0  1  0  0  3  0  0  0  0  0  0
  191.1840  176.7370  148.0270 Cl  0  0  0  0  0  0  0  0  0  0  0  0
  194.2770  175.9060  144.5140 C   0  0  0  0  0  0  0  0  0  0  0  0
  195.1770  176.0630  143.5490 C   0  0  0  0  0  3  0  0  0  0  0  0
  196.9780  174.6180  144.3700 N   0  0  0  0  0  0  0  0  0  0  0  0
  195.1540  174.0580  145.8680 N   0  0  0  0  0  0  0  0  0  0  0  0
  193.0650  176.7560  144.7260 C   0  0  2  0  0  3  0  0  0  0  0  0
  192.3050  175.9030  145.7190 C   0  0  0  0  0  0  0  0  0  0  0  0
  194.1680  174.7760  145.4170 C   0  0  0  0  0  0  0  0  0  0  0  0
  192.9210  174.8220  146.0840 N   0  0  0  0  0  0  0  0  0  0  0  0
  196.5430  174.1550  145.5040 C   0  0  0  0  0  3  0  0  0  0  0  0
  196.1600  174.9890  143.2240 C   0  0  2  0  0  3  0  0  0  0  0  0
  197.7090  175.7840  141.2640 N   0  0  0  0  0  0  0  0  0  0  0  0
  197.0250  175.4340  142.1290 C   0  0  0  0  0  0  0  0  0  0  0  0
  191.5300  178.0930  143.4700 O   0  0  0  0  0  1  0  0  0  0  0  0
  192.2610  176.9050  143.4390 C   0  0  0  0  0  2  0  0  0  0  0  0
  188.1320  177.4350  145.3320 C   0  0  0  0  0  2  0  0  0  0  0  0
  188.9010  175.6550  143.8410 N   0  0  0  0  0  0  0  0  0  0  0  0
  186.7120  176.9420  147.2540 N   0  0  0  0  0  1  0  0  0  0  0  0
  189.6470  174.7960  144.7220 C   0  0  0  0  0  0  0  0  0  0  0  0
  187.7320  176.3990  144.2940 C   0  0  0  0  0  2  0  0  0  0  0  0
  188.0740  176.8790  146.7560 C   0  0  1  0  0  3  0  0  0  0  0  0
  188.6120  175.4490  146.9150 C   0  0  0  0  0  2  0  0  0  0  0  0
  189.9140  175.1610  146.1590 C   0  0  2  0  0  3  0  0  0  0  0  0
  190.1550  173.7340  144.2720 O   0  0  0  0  0  0  0  0  0  0  0  0
  189.1790  175.6490  142.4120 C   0  0  0  0  0  2  0  0  0  0  0  0
  187.9960  175.0720  141.6550 C   0  0  0  0  0  2  0  0  0  0  0  0
  189.7410  173.7440  140.5230 C   0  0  0  0  0  2  0  0  0  0  0  0
  188.3110  172.4710  139.0450 N   0  0  0  0  0  1  0  0  0  0  0  0
  188.3540  173.7000  141.1240 C   0  0  2  0  0  3  0  0  0  0  0  0
  188.5260  173.7850  139.6210 C   0  0  1  0  0  3  0  0  0  0  0  0
  1  2  1  1  0  0  0
  3  7  1  0  0  0  0
  3  9  1  0  0  0  0
  4  3  2  0  0  0  0
  5 11  2  0  0  0  0
  7 16  1  6  0  0  0
  7  8  1  0  0  0  0
  8 10  2  0  0  0  0
  8  1  1  0  0  0  0
  9  6  2  0  0  0  0
  9 10  1  0  0  0  0
 11  6  1  0  0  0  0
 12 14  1  6  0  0  0
 12  4  1  0  0  0  0
 12  5  1  0  0  0  0
 13 14  3  0  0  0  0
 16 15  1  0  0  0  0
 17 22  1  0  0  0  0
 18 21  1  0  0  0  0
 18 20  1  0  0  0  0
 20 24  1  0  0  0  0
 21 17  1  0  0  0  0
 22 23  1  0  0  0  0
 22 19  1  6  0  0  0
 24  1  1  6  0  0  0
 24 23  1  0  0  0  0
 25 20  2  0  0  0  0
 26 18  1  0  0  0  0
 27 26  1  0  0  0  0
 28 30  1  0  0  0  0
 30 27  1  1  0  0  0
 31 29  1  6  0  0  0
 31 28  1  0  0  0  0
 31 30  1  0  0  0  0
M  END
>  <MODEL>
3

>  <REMARK>
 VINA RESULT:      -7.1      3.569      7.776
  Name = 
  7 active torsions:
  status: ('A' for Active; 'I' for Inactive)
    1  A    between atoms: C_3  and  C_18
    2  A    between atoms: C_3  and  C_24
    3  A    between atoms: N_4  and  C_30
    4  A    between atoms: C_5  and  C_29
    5  A    between atoms: C_13  and  C_19
    6  A    between atoms: C_26  and  C_27
    7  A    between atoms: C_27  and  C_30
                            x       y       z     vdW  Elec       q    Type
                         _______ _______ _______ _____ _____    ______ ____

>  <TORSDO>
F 7

$$$$
=
 OpenBabel11042418563D

 31 34  0  0  1  0  0  0  0  0999 V2000
  187.6830  175.5910  143.4160 C   0  0  1  0  0  3  0  0  0  0  0  0
  186.0030  176.1650  143.2230 Cl  0  0  0  0  0  0  0  0  0  0  0  0
  188.7390  173.1590  140.7250 C   0  0  0  0  0  0  0  0  0  0  0  0
  189.3020  172.0800  140.1920 C   0  0  0  0  0  3  0  0  0  0  0  0
  188.9700  172.5270  137.8050 N   0  0  0  0  0  0  0  0  0  0  0  0
  188.3370  174.6420  138.8120 N   0  0  0  0  0  0  0  0  0  0  0  0
  188.3770  173.3360  142.1650 C   0  0  2  0  0  3  0  0  0  0  0  0
  188.1090  174.8250  142.1970 C   0  0  0  0  0  0  0  0  0  0  0  0
  188.5570  174.4450  140.0790 C   0  0  0  0  0  0  0  0  0  0  0  0
  188.2140  175.4170  141.0480 N   0  0  0  0  0  0  0  0  0  0  0  0
  188.3250  173.6550  137.7650 C   0  0  0  0  0  3  0  0  0  0  0  0
  189.9160  172.1160  138.8330 C   0  0  2  0  0  3  0  0  0  0  0  0
  190.8750  169.7490  138.2420 N   0  0  0  0  0  0  0  0  0  0  0  0
  190.4520  170.7940  138.5040 C   0  0  0  0  0  0  0  0  0  0  0  0
  189.2110  171.9270  143.9090 O   0  0  0  0  0  1  0  0  0  0  0  0
  189.5500  172.9950  143.0770 C   0  0  0  0  0  2  0  0  0  0  0  0
  188.1530  175.8480  146.6010 C   0  0  0  0  0  2  0  0  0  0  0  0
  190.2870  175.6480  145.4240 N   0  0  0  0  0  0  0  0  0  0  0  0
  187.1690  178.0330  147.0630 N   0  0  0  0  0  1  0  0  0  0  0  0
  190.0180  176.2780  144.1590 C   0  0  0  0  0  0  0  0  0  0  0  0
  189.6520  176.0910  146.6590 C   0  0  0  0  0  2  0  0  0  0  0  0
  187.3940  177.0440  146.0240 C   0  0  1  0  0  3  0  0  0  0  0  0
  188.0660  177.7150  144.8160 C   0  0  0  0  0  2  0  0  0  0  0  0
  188.6380  176.7460  143.7750 C   0  0  2  0  0  3  0  0  0  0  0  0
  190.9420  176.3880  143.3090 O   0  0  0  0  0  0  0  0  0  0  0  0
  191.3610  174.6710  145.5350 C   0  0  0  0  0  2  0  0  0  0  0  0
  192.4390  175.1890  146.4700 C   0  0  0  0  0  2  0  0  0  0  0  0
  194.8740  175.4910  146.2060 C   0  0  0  0  0  2  0  0  0  0  0  0
  194.8900  177.8700  145.7690 N   0  0  0  0  0  1  0  0  0  0  0  0
  193.5170  175.8840  145.6660 C   0  0  2  0  0  3  0  0  0  0  0  0
  194.2740  176.8310  146.5750 C   0  0  1  0  0  3  0  0  0  0  0  0
  1  2  1  6  0  0  0
  3  7  1  0  0  0  0
  4  3  2  0  0  0  0
  5 12  1  0  0  0  0
  6  9  2  0  0  0  0
  7  8  1  0  0  0  0
  7 16  1  1  0  0  0
  8  1  1  0  0  0  0
  9  3  1  0  0  0  0
  9 10  1  0  0  0  0
 10  8  2  0  0  0  0
 11  5  2  0  0  0  0
 11  6  1  0  0  0  0
 12 14  1  6  0  0  0
 12  4  1  0  0  0  0
 13 14  3  0  0  0  0
 16 15  1  0  0  0  0
 17 21  1  0  0  0  0
 18 26  1  0  0  0  0
 18 21  1  0  0  0  0
 20 18  1  0  0  0  0
 22 17  1  0  0  0  0
 22 19  1  1  0  0  0
 23 22  1  0  0  0  0
 24  1  1  1  0  0  0
 24 20  1  0  0  0  0
 24 23  1  0  0  0  0
 25 20  2  0  0  0  0
 26 27  1  0  0  0  0
 28 31  1  0  0  0  0
 30 28  1  0  0  0  0
 30 27  1  1  0  0  0
 30 31  1  0  0  0  0
 31 29  1  6  0  0  0
M  END
>  <MODEL>
4

>  <REMARK>
 VINA RESULT:      -7.0      3.427      6.453
  Name = 
  7 active torsions:
  status: ('A' for Active; 'I' for Inactive)
    1  A    between atoms: C_3  and  C_18
    2  A    between atoms: C_3  and  C_24
    3  A    between atoms: N_4  and  C_30
    4  A    between atoms: C_5  and  C_29
    5  A    between atoms: C_13  and  C_19
    6  A    between atoms: C_26  and  C_27
    7  A    between atoms: C_27  and  C_30
                            x       y       z     vdW  Elec       q    Type
                         _______ _______ _______ _____ _____    ______ ____

>  <TORSDO>
F 7

$$$$
=
 OpenBabel11042418563D

 31 34  0  0  1  0  0  0  0  0999 V2000
  188.2130  176.4820  145.2870 C   0  0  1  0  0  3  0  0  0  0  0  0
  187.4800  176.2040  146.8920 Cl  0  0  0  0  0  0  0  0  0  0  0  0
  185.3110  177.8350  143.2820 C   0  0  0  0  0  0  0  0  0  0  0  0
  184.0880  178.2970  143.0420 C   0  0  0  0  0  3  0  0  0  0  0  0
  184.1390  178.4650  140.5970 N   0  0  0  0  0  0  0  0  0  0  0  0
  186.1830  177.2440  141.0660 N   0  0  0  0  0  0  0  0  0  0  0  0
  185.9830  177.7900  144.6170 C   0  0  2  0  0  3  0  0  0  0  0  0
  187.1560  176.8870  144.3010 C   0  0  0  0  0  0  0  0  0  0  0  0
  186.1510  177.0960  142.3570 C   0  0  0  0  0  0  0  0  0  0  0  0
  187.2310  176.5140  143.0620 N   0  0  0  0  0  0  0  0  0  0  0  0
  185.3370  178.0870  140.2620 C   0  0  0  0  0  3  0  0  0  0  0  0
  183.3870  178.0070  141.7570 C   0  0  2  0  0  3  0  0  0  0  0  0
  181.0240  179.1400  141.7730 N   0  0  0  0  0  0  0  0  0  0  0  0
  182.0680  178.6400  141.7670 C   0  0  0  0  0  0  0  0  0  0  0  0
  184.5140  178.1230  146.4750 O   0  0  0  0  0  1  0  0  0  0  0  0
  185.0880  177.1410  145.6660 C   0  0  0  0  0  2  0  0  0  0  0  0
  190.9720  175.0540  146.1700 C   0  0  0  0  0  2  0  0  0  0  0  0
  191.2600  176.2710  144.0690 N   0  0  0  0  0  0  0  0  0  0  0  0
  191.4090  176.1280  148.3180 N   0  0  0  0  0  1  0  0  0  0  0  0
  190.3370  177.3660  144.2010 C   0  0  0  0  0  0  0  0  0  0  0  0
  191.9590  175.7060  145.2170 C   0  0  0  0  0  2  0  0  0  0  0  0
  190.4560  176.0320  147.2280 C   0  0  1  0  0  3  0  0  0  0  0  0
  190.1350  177.4400  146.7030 C   0  0  0  0  0  2  0  0  0  0  0  0
  189.3870  177.4770  145.3650 C   0  0  2  0  0  3  0  0  0  0  0  0
  190.2640  178.2330  143.2880 O   0  0  0  0  0  0  0  0  0  0  0  0
  191.6730  175.8240  142.7460 C   0  0  0  0  0  2  0  0  0  0  0  0
  192.9940  175.0820  142.8380 C   0  0  0  0  0  2  0  0  0  0  0  0
  195.1420  175.1820  141.6270 C   0  0  0  0  0  2  0  0  0  0  0  0
  196.3200  176.6750  143.1210 N   0  0  0  0  0  1  0  0  0  0  0  0
  194.1200  175.9910  142.3940 C   0  0  2  0  0  3  0  0  0  0  0  0
  195.4020  175.5520  143.0720 C   0  0  1  0  0  3  0  0  0  0  0  0
  1  2  1  1  0  0  0
  3  7  1  0  0  0  0
  4  3  2  0  0  0  0
  5 12  1  0  0  0  0
  6  9  2  0  0  0  0
  7 16  1  1  0  0  0
  8  7  1  0  0  0  0
  8  1  1  0  0  0  0
  9 10  1  0  0  0  0
  9  3  1  0  0  0  0
 10  8  2  0  0  0  0
 11  5  2  0  0  0  0
 11  6  1  0  0  0  0
 12 14  1  1  0  0  0
 12  4  1  0  0  0  0
 14 13  3  0  0  0  0
 16 15  1  0  0  0  0
 17 22  1  0  0  0  0
 18 20  1  0  0  0  0
 18 21  1  0  0  0  0
 20 24  1  0  0  0  0
 21 17  1  0  0  0  0
 22 19  1  1  0  0  0
 23 22  1  0  0  0  0
 24  1  1  1  0  0  0
 24 23  1  0  0  0  0
 25 20  2  0  0  0  0
 26 27  1  0  0  0  0
 26 18  1  0  0  0  0
 28 30  1  0  0  0  0
 28 31  1  0  0  0  0
 30 27  1  1  0  0  0
 30 31  1  0  0  0  0
 31 29  1  6  0  0  0
M  END
>  <MODEL>
5

>  <REMARK>
 VINA RESULT:      -6.9      1.820      2.859
  Name = 
  7 active torsions:
  status: ('A' for Active; 'I' for Inactive)
    1  A    between atoms: C_3  and  C_18
    2  A    between atoms: C_3  and  C_24
    3  A    between atoms: N_4  and  C_30
    4  A    between atoms: C_5  and  C_29
    5  A    between atoms: C_13  and  C_19
    6  A    between atoms: C_26  and  C_27
    7  A    between atoms: C_27  and  C_30
                            x       y       z     vdW  Elec       q    Type
                         _______ _______ _______ _____ _____    ______ ____

>  <TORSDO>
F 7

$$$$
=
 OpenBabel11042418563D

 31 34  0  0  1  0  0  0  0  0999 V2000
  188.8980  176.4340  145.1180 C   0  0  1  0  0  3  0  0  0  0  0  0
  187.6780  176.1930  146.4000 Cl  0  0  0  0  0  0  0  0  0  0  0  0
  187.3630  176.4550  141.6670 C   0  0  0  0  0  0  0  0  0  0  0  0
  187.2100  176.1410  140.3840 C   0  0  0  0  0  3  0  0  0  0  0  0
  185.3810  177.6500  139.7630 N   0  0  0  0  0  0  0  0  0  0  0  0
  185.9830  178.4610  141.9700 N   0  0  0  0  0  0  0  0  0  0  0  0
  188.1460  175.6720  142.6720 C   0  0  2  0  0  3  0  0  0  0  0  0
  188.2200  176.6770  143.8020 C   0  0  0  0  0  0  0  0  0  0  0  0
  186.9900  177.7070  142.2980 C   0  0  0  0  0  0  0  0  0  0  0  0
  187.5850  177.7850  143.5800 N   0  0  0  0  0  0  0  0  0  0  0  0
  185.0840  178.2820  140.8600 C   0  0  0  0  0  3  0  0  0  0  0  0
  186.6930  177.1350  139.3980 C   0  0  2  0  0  3  0  0  0  0  0  0
  186.5730  176.0290  137.0250 N   0  0  0  0  0  0  0  0  0  0  0  0
  186.6250  176.5170  138.0730 C   0  0  0  0  0  0  0  0  0  0  0  0
  190.0120  174.1780  142.7430 O   0  0  0  0  0  1  0  0  0  0  0  0
  189.5460  175.3560  142.1590 C   0  0  0  0  0  2  0  0  0  0  0  0
  191.5960  175.2270  146.4210 C   0  0  0  0  0  2  0  0  0  0  0  0
  192.1220  176.6590  144.5100 N   0  0  0  0  0  0  0  0  0  0  0  0
  191.4910  176.1340  148.6840 N   0  0  0  0  0  1  0  0  0  0  0  0
  191.0650  177.6350  144.5370 C   0  0  0  0  0  0  0  0  0  0  0  0
  192.6570  176.0660  145.7290 C   0  0  0  0  0  2  0  0  0  0  0  0
  190.7770  176.0420  147.4240 C   0  0  1  0  0  3  0  0  0  0  0  0
  190.3910  177.4510  146.9500 C   0  0  0  0  0  2  0  0  0  0  0  0
  189.9070  177.5350  145.4970 C   0  0  2  0  0  3  0  0  0  0  0  0
  191.0590  178.5700  143.6920 O   0  0  0  0  0  0  0  0  0  0  0  0
  192.8260  176.3850  143.2650 C   0  0  0  0  0  2  0  0  0  0  0  0
  193.8810  175.3170  143.4900 C   0  0  0  0  0  2  0  0  0  0  0  0
  196.1760  174.5970  142.9410 C   0  0  0  0  0  2  0  0  0  0  0  0
  197.2720  176.7460  143.1180 N   0  0  0  0  0  1  0  0  0  0  0  0
  195.1400  175.6780  142.7310 C   0  0  2  0  0  3  0  0  0  0  0  0
  196.2670  175.8910  143.7220 C   0  0  1  0  0  3  0  0  0  0  0  0
  1  2  1  1  0  0  0
  3  9  1  0  0  0  0
  3  7  1  0  0  0  0
  4  3  2  0  0  0  0
  5 11  2  0  0  0  0
  6  9  2  0  0  0  0
  7 16  1  6  0  0  0
  7  8  1  0  0  0  0
  8  1  1  0  0  0  0
  9 10  1  0  0  0  0
 10  8  2  0  0  0  0
 11  6  1  0  0  0  0
 12 14  1  6  0  0  0
 12  5  1  0  0  0  0
 12  4  1  0  0  0  0
 13 14  3  0  0  0  0
 16 15  1  0  0  0  0
 17 22  1  0  0  0  0
 18 20  1  0  0  0  0
 18 21  1  0  0  0  0
 20 24  1  0  0  0  0
 21 17  1  0  0  0  0
 22 19  1  1  0  0  0
 23 22  1  0  0  0  0
 24  1  1  6  0  0  0
 24 23  1  0  0  0  0
 25 20  2  0  0  0  0
 26 27  1  0  0  0  0
 26 18  1  0  0  0  0
 28 31  1  0  0  0  0
 30 28  1  0  0  0  0
 30 27  1  1  0  0  0
 30 31  1  0  0  0  0
 31 29  1  6  0  0  0
M  END
>  <MODEL>
6

>  <REMARK>
 VINA RESULT:      -6.8      2.714      4.476
  Name = 
  7 active torsions:
  status: ('A' for Active; 'I' for Inactive)
    1  A    between atoms: C_3  and  C_18
    2  A    between atoms: C_3  and  C_24
    3  A    between atoms: N_4  and  C_30
    4  A    between atoms: C_5  and  C_29
    5  A    between atoms: C_13  and  C_19
    6  A    between atoms: C_26  and  C_27
    7  A    between atoms: C_27  and  C_30
                            x       y       z     vdW  Elec       q    Type
                         _______ _______ _______ _____ _____    ______ ____

>  <TORSDO>
F 7

$$$$
=
 OpenBabel11042418563D

 31 34  0  0  1  0  0  0  0  0999 V2000
  186.1690  176.8870  143.3270 C   0  0  1  0  0  3  0  0  0  0  0  0
  184.8160  177.5410  142.3610 Cl  0  0  0  0  0  0  0  0  0  0  0  0
  188.2470  174.8580  140.9110 C   0  0  0  0  0  0  0  0  0  0  0  0
  188.7890  174.4990  139.7520 C   0  0  0  0  0  3  0  0  0  0  0  0
  189.8870  172.4040  140.3940 N   0  0  0  0  0  0  0  0  0  0  0  0
  188.5400  172.8940  142.3520 N   0  0  0  0  0  0  0  0  0  0  0  0
  187.6770  176.2030  141.2320 C   0  0  2  0  0  3  0  0  0  0  0  0
  186.9430  175.8880  142.5180 C   0  0  0  0  0  0  0  0  0  0  0  0
  187.9060  173.9770  142.0130 C   0  0  0  0  0  0  0  0  0  0  0  0
  187.0760  174.6650  142.9290 N   0  0  0  0  0  0  0  0  0  0  0  0
  189.6440  172.2770  141.6650 C   0  0  0  0  0  3  0  0  0  0  0  0
  189.0310  173.0650  139.4190 C   0  0  2  0  0  3  0  0  0  0  0  0
  190.1160  172.8910  137.0390 N   0  0  0  0  0  0  0  0  0  0  0  0
  189.6380  172.9680  138.0900 C   0  0  0  0  0  0  0  0  0  0  0  0
  186.9790  177.9650  139.7740 O   0  0  0  0  0  1  0  0  0  0  0  0
  186.6910  176.6560  140.1620 C   0  0  0  0  0  2  0  0  0  0  0  0
  186.1670  176.8990  146.5560 C   0  0  0  0  0  2  0  0  0  0  0  0
  188.4520  176.7940  145.6920 N   0  0  0  0  0  0  0  0  0  0  0  0
  185.0970  179.0400  147.0340 N   0  0  0  0  0  1  0  0  0  0  0  0
  188.3610  177.5190  144.4520 C   0  0  0  0  0  0  0  0  0  0  0  0
  187.6380  177.1400  146.8510 C   0  0  0  0  0  2  0  0  0  0  0  0
  185.4840  178.1350  145.9670 C   0  0  1  0  0  3  0  0  0  0  0  0
  186.3150  178.8980  144.9240 C   0  0  0  0  0  2  0  0  0  0  0  0
  187.0460  178.0120  143.9070 C   0  0  2  0  0  3  0  0  0  0  0  0
  189.3980  177.6960  143.7570 O   0  0  0  0  0  0  0  0  0  0  0  0
  189.5110  175.8140  145.8850 C   0  0  0  0  0  2  0  0  0  0  0  0
  190.6420  176.4240  146.6930 C   0  0  0  0  0  2  0  0  0  0  0  0
  192.6720  175.0620  146.3560 C   0  0  0  0  0  2  0  0  0  0  0  0
  194.2770  176.8610  146.1680 N   0  0  0  0  0  1  0  0  0  0  0  0
  191.9380  176.3100  145.9190 C   0  0  2  0  0  3  0  0  0  0  0  0
  193.0990  176.4140  146.8880 C   0  0  1  0  0  3  0  0  0  0  0  0
  1  2  1  6  0  0  0
  3  7  1  0  0  0  0
  3  9  1  0  0  0  0
  4  3  2  0  0  0  0
  5 11  2  0  0  0  0
  7 16  1  6  0  0  0
  7  8  1  0  0  0  0
  8 10  2  0  0  0  0
  8  1  1  0  0  0  0
  9  6  2  0  0  0  0
  9 10  1  0  0  0  0
 11  6  1  0  0  0  0
 12 14  1  6  0  0  0
 12  4  1  0  0  0  0
 12  5  1  0  0  0  0
 13 14  3  0  0  0  0
 15 16  1  0  0  0  0
 17 21  1  0  0  0  0
 18 26  1  0  0  0  0
 18 21  1  0  0  0  0
 20 18  1  0  0  0  0
 22 17  1  0  0  0  0
 22 19  1  1  0  0  0
 23 22  1  0  0  0  0
 24  1  1  1  0  0  0
 24 20  1  0  0  0  0
 24 23  1  0  0  0  0
 25 20  2  0  0  0  0
 26 27  1  0  0  0  0
 28 31  1  0  0  0  0
 30 28  1  0  0  0  0
 30 27  1  1  0  0  0
 30 31  1  0  0  0  0
 31 29  1  6  0  0  0
M  END
>  <MODEL>
7

>  <REMARK>
 VINA RESULT:      -6.8      2.919      6.075
  Name = 
  7 active torsions:
  status: ('A' for Active; 'I' for Inactive)
    1  A    between atoms: C_3  and  C_18
    2  A    between atoms: C_3  and  C_24
    3  A    between atoms: N_4  and  C_30
    4  A    between atoms: C_5  and  C_29
    5  A    between atoms: C_13  and  C_19
    6  A    between atoms: C_26  and  C_27
    7  A    between atoms: C_27  and  C_30
                            x       y       z     vdW  Elec       q    Type
                         _______ _______ _______ _____ _____    ______ ____

>  <TORSDO>
F 7

$$$$
=
 OpenBabel11042418563D

 31 34  0  0  1  0  0  0  0  0999 V2000
  189.6820  177.2070  145.5060 C   0  0  1  0  0  3  0  0  0  0  0  0
  189.6150  177.9160  147.1440 Cl  0  0  0  0  0  0  0  0  0  0  0  0
  193.0220  175.4550  145.3050 C   0  0  0  0  0  0  0  0  0  0  0  0
  194.0980  174.8000  145.7300 C   0  0  0  0  0  3  0  0  0  0  0  0
  195.4320  174.7370  143.6750 N   0  0  0  0  0  0  0  0  0  0  0  0
  193.6490  176.2700  143.0770 N   0  0  0  0  0  0  0  0  0  0  0  0
  191.7200  175.5630  146.0310 C   0  0  2  0  0  3  0  0  0  0  0  0
  191.0550  176.6660  145.2340 C   0  0  0  0  0  0  0  0  0  0  0  0
  192.9560  176.3610  144.1730 C   0  0  0  0  0  0  0  0  0  0  0  0
  191.7450  177.0920  144.2230 N   0  0  0  0  0  0  0  0  0  0  0  0
  194.6950  175.3260  142.7810 C   0  0  0  0  0  3  0  0  0  0  0  0
  195.4350  175.0150  145.1040 C   0  0  2  0  0  3  0  0  0  0  0  0
  197.2090  173.4920  146.2900 N   0  0  0  0  0  0  0  0  0  0  0  0
  196.4260  174.1650  145.7660 C   0  0  0  0  0  0  0  0  0  0  0  0
  191.1910  175.1920  148.3340 O   0  0  0  0  0  1  0  0  0  0  0  0
  191.9250  176.0090  147.4740 C   0  0  0  0  0  2  0  0  0  0  0  0
  187.7340  177.9930  143.0520 C   0  0  0  0  0  2  0  0  0  0  0  0
  188.6420  175.7420  142.7510 N   0  0  0  0  0  0  0  0  0  0  0  0
  185.6150  178.3520  144.2100 N   0  0  0  0  0  1  0  0  0  0  0  0
  188.8020  175.2760  144.1020 C   0  0  0  0  0  0  0  0  0  0  0  0
  187.5640  176.6460  142.3680 C   0  0  0  0  0  2  0  0  0  0  0  0
  187.0210  178.0490  144.4050 C   0  0  1  0  0  3  0  0  0  0  0  0
  187.1570  176.7800  145.2600 C   0  0  0  0  0  2  0  0  0  0  0  0
  188.5630  176.1690  145.2920 C   0  0  2  0  0  3  0  0  0  0  0  0
  189.2190  174.1040  144.3110 O   0  0  0  0  0  0  0  0  0  0  0  0
  189.4410  175.1610  141.6820 C   0  0  0  0  0  2  0  0  0  0  0  0
  188.5650  174.3080  140.7830 C   0  0  0  0  0  2  0  0  0  0  0  0
  189.1380  173.7920  138.4390 C   0  0  0  0  0  2  0  0  0  0  0  0
  189.3170  171.3880  138.6410 N   0  0  0  0  0  1  0  0  0  0  0  0
  189.4350  173.4570  139.8840 C   0  0  2  0  0  3  0  0  0  0  0  0
  188.5480  172.5450  139.0620 C   0  0  1  0  0  3  0  0  0  0  0  0
  1  2  1  1  0  0  0
  3  4  2  0  0  0  0
  3  7  1  0  0  0  0
  5 12  1  0  0  0  0
  6  9  2  0  0  0  0
  7 16  1  1  0  0  0
  8  1  1  0  0  0  0
  8  7  1  0  0  0  0
  9 10  1  0  0  0  0
  9  3  1  0  0  0  0
 10  8  2  0  0  0  0
 11  6  1  0  0  0  0
 11  5  2  0  0  0  0
 12  4  1  0  0  0  0
 12 14  1  1  0  0  0
 14 13  3  0  0  0  0
 16 15  1  0  0  0  0
 17 22  1  0  0  0  0
 18 20  1  0  0  0  0
 20 25  2  0  0  0  0
 20 24  1  0  0  0  0
 21 18  1  0  0  0  0
 21 17  1  0  0  0  0
 22 19  1  6  0  0  0
 22 23  1  0  0  0  0
 23 24  1  0  0  0  0
 24  1  1  6  0  0  0
 26 18  1  0  0  0  0
 27 26  1  0  0  0  0
 28 31  1  0  0  0  0
 28 30  1  0  0  0  0
 30 27  1  1  0  0  0
 31 29  1  6  0  0  0
 31 30  1  0  0  0  0
M  END
>  <MODEL>
8

>  <REMARK>
 VINA RESULT:      -6.7      2.965      7.419
  Name = 
  7 active torsions:
  status: ('A' for Active; 'I' for Inactive)
    1  A    between atoms: C_3  and  C_18
    2  A    between atoms: C_3  and  C_24
    3  A    between atoms: N_4  and  C_30
    4  A    between atoms: C_5  and  C_29
    5  A    between atoms: C_13  and  C_19
    6  A    between atoms: C_26  and  C_27
    7  A    between atoms: C_27  and  C_30
                            x       y       z     vdW  Elec       q    Type
                         _______ _______ _______ _____ _____    ______ ____

>  <TORSDO>
F 7

$$$$
=
 OpenBabel11042418563D

 31 34  0  0  1  0  0  0  0  0999 V2000
  191.6070  175.5650  145.6350 C   0  0  1  0  0  3  0  0  0  0  0  0
  191.7700  175.6450  147.4110 Cl  0  0  0  0  0  0  0  0  0  0  0  0
  188.1760  177.0010  144.9750 C   0  0  0  0  0  0  0  0  0  0  0  0
  187.0580  177.6800  145.2110 C   0  0  0  0  0  3  0  0  0  0  0  0
  185.7570  177.1210  143.2110 N   0  0  0  0  0  0  0  0  0  0  0  0
  187.6340  175.5920  143.0400 N   0  0  0  0  0  0  0  0  0  0  0  0
  189.4710  177.1660  145.7050 C   0  0  2  0  0  3  0  0  0  0  0  0
  190.2100  175.9340  145.2290 C   0  0  0  0  0  0  0  0  0  0  0  0
  188.3130  175.8350  144.1220 C   0  0  0  0  0  0  0  0  0  0  0  0
  189.5620  175.2160  144.3650 N   0  0  0  0  0  0  0  0  0  0  0  0
  186.5410  176.3610  142.5050 C   0  0  0  0  0  3  0  0  0  0  0  0
  185.7460  177.2290  144.6630 C   0  0  2  0  0  3  0  0  0  0  0  0
  183.8670  178.9010  145.4020 N   0  0  0  0  0  0  0  0  0  0  0  0
  184.6970  178.1630  145.0760 C   0  0  0  0  0  0  0  0  0  0  0  0
  189.6480  178.3140  147.7960 O   0  0  0  0  0  1  0  0  0  0  0  0
  189.2660  177.1040  147.2140 C   0  0  0  0  0  2  0  0  0  0  0  0
  194.0500  173.7530  144.5490 C   0  0  0  0  0  2  0  0  0  0  0  0
  193.1030  175.1030  142.7430 N   0  0  0  0  0  0  0  0  0  0  0  0
  195.9060  174.5790  145.9000 N   0  0  0  0  0  1  0  0  0  0  0  0
  192.6490  176.2840  143.4270 C   0  0  0  0  0  0  0  0  0  0  0  0
  194.2820  174.3640  143.1770 C   0  0  0  0  0  2  0  0  0  0  0  0
  194.4760  174.6900  145.6800 C   0  0  1  0  0  3  0  0  0  0  0  0
  194.1030  176.1660  145.4720 C   0  0  0  0  0  2  0  0  0  0  0  0
  192.6890  176.4050  144.9290 C   0  0  2  0  0  3  0  0  0  0  0  0
  192.1370  177.2280  142.7670 O   0  0  0  0  0  0  0  0  0  0  0  0
  192.5070  174.7260  141.4690 C   0  0  0  0  0  2  0  0  0  0  0  0
  191.7060  173.4470  141.6290 C   0  0  0  0  0  2  0  0  0  0  0  0
  189.3800  172.6430  141.7990 C   0  0  0  0  0  2  0  0  0  0  0  0
  188.7550  172.8740  139.4740 N   0  0  0  0  0  1  0  0  0  0  0  0
  190.2840  173.6760  141.1650 C   0  0  2  0  0  3  0  0  0  0  0  0
  189.8290  172.4720  140.3640 C   0  0  1  0  0  3  0  0  0  0  0  0
  1  2  1  1  0  0  0
  3  4  2  0  0  0  0
  3  7  1  0  0  0  0
  5 12  1  0  0  0  0
  6  9  2  0  0  0  0
  7 16  1  1  0  0  0
  8  1  1  0  0  0  0
  8  7  1  0  0  0  0
  9 10  1  0  0  0  0
  9  3  1  0  0  0  0
 10  8  2  0  0  0  0
 11  6  1  0  0  0  0
 11  5  2  0  0  0  0
 12 14  1  6  0  0  0
 12  4  1  0  0  0  0
 14 13  3  0  0  0  0
 16 15  1  0  0  0  0
 17 22  1  0  0  0  0
 18 21  1  0  0  0  0
 18 20  1  0  0  0  0
 20 24  1  0  0  0  0
 21 17  1  0  0  0  0
 22 19  1  6  0  0  0
 23 22  1  0  0  0  0
 24 23  1  0  0  0  0
 24  1  1  1  0  0  0
 25 20  2  0  0  0  0
 26 27  1  0  0  0  0
 26 18  1  0  0  0  0
 30 27  1  1  0  0  0
 30 28  1  0  0  0  0
 31 29  1  6  0  0  0
 31 30  1  0  0  0  0
 31 28  1  0  0  0  0
M  END
>  <MODEL>
9

>  <REMARK>
 VINA RESULT:      -6.6      2.526      3.627
  Name = 
  7 active torsions:
  status: ('A' for Active; 'I' for Inactive)
    1  A    between atoms: C_3  and  C_18
    2  A    between atoms: C_3  and  C_24
    3  A    between atoms: N_4  and  C_30
    4  A    between atoms: C_5  and  C_29
    5  A    between atoms: C_13  and  C_19
    6  A    between atoms: C_26  and  C_27
    7  A    between atoms: C_27  and  C_30
                            x       y       z     vdW  Elec       q    Type
                         _______ _______ _______ _____ _____    ______ ____

>  <TORSDO>
F 7

$$$$
