=
 OpenBabel11042413493D

 25 27  0  0  1  0  0  0  0  0999 V2000
  187.5800  176.2510  146.9250 C   0  0  0  0  0  3  0  0  0  0  0  0
  190.7480  174.6770  146.3330 N   0  0  0  0  0  0  0  0  0  0  0  0
  189.5020  176.5290  145.3360 C   0  0  0  0  0  2  0  0  0  0  0  0
  190.8210  175.7430  145.3160 C   0  0  2  0  0  0  0  0  0  0  0  0
  188.7580  175.8790  146.4210 C   0  0  0  0  0  0  0  0  0  0  0  0
  189.5150  174.8390  146.9800 N   0  0  0  0  0  0  0  0  0  0  0  0
  186.1650  176.6410  144.0080 C   0  0  0  0  0  3  0  0  0  0  0  0
  185.4610  179.1150  146.4460 N   0  0  0  0  0  0  0  0  0  0  0  0
  186.1410  177.4410  145.1490 C   0  0  0  0  0  0  0  0  0  0  0  0
  186.2700  178.3450  147.1670 N   0  0  0  0  0  2  0  0  0  0  0  0
  186.7140  177.3220  146.4000 C   0  0  0  0  0  0  0  0  0  0  0  0
  184.6080  179.0150  144.1490 C   0  0  0  0  0  3  0  0  0  0  0  0
  185.4030  177.0630  142.9050 C   0  0  0  0  0  3  0  0  0  0  0  0
  184.6290  178.2500  142.9660 C   0  0  0  0  0  0  0  0  0  0  0  0
  185.3780  178.5730  145.2210 C   0  0  0  0  0  0  0  0  0  0  0  0
  184.1760  178.3190  140.5350 C   0  0  0  0  0  1  0  0  0  0  0  0
  183.8700  178.6830  141.8750 O   0  0  0  0  0  0  0  0  0  0  0  0
  191.0370  175.0960  143.9410 C   0  0  0  0  0  2  0  0  0  0  0  0
  189.8980  175.3420  142.9580 C   0  0  0  0  0  2  0  0  0  0  0  0
  189.1190  174.0640  142.7190 C   0  0  0  0  0  1  0  0  0  0  0  0
  191.9620  176.6980  145.6690 C   0  0  0  0  0  2  0  0  0  0  0  0
  192.7970  176.1480  146.7280 N   0  0  0  0  0  2  0  0  0  0  0  0
  194.1530  176.5870  146.4590 C   0  0  0  0  0  2  0  0  0  0  0  0
  194.9940  175.4780  146.3900 O   0  0  0  0  0  0  0  0  0  0  0  0
  195.4170  175.4430  145.0610 C   0  0  0  0  0  1  0  0  0  0  0  0
  2  6  2  0  0  0  0
  3  5  1  0  0  0  0
  4 18  1  6  0  0  0
  4  3  1  0  0  0  0
  4 21  1  0  0  0  0
  4  2  1  0  0  0  0
  5  1  2  0  0  0  0
  5  6  1  0  0  0  0
  7  9  1  0  0  0  0
  8 10  1  0  0  0  0
  9 15  1  0  0  0  0
  9 11  2  0  0  0  0
 11  1  1  0  0  0  0
 11 10  1  0  0  0  0
 12 15  1  0  0  0  0
 13 14  1  0  0  0  0
 13  7  2  0  0  0  0
 14 12  2  0  0  0  0
 15  8  2  0  0  0  0
 16 17  1  0  0  0  0
 17 14  1  0  0  0  0
 19 18  1  0  0  0  0
 20 19  1  0  0  0  0
 21 22  1  0  0  0  0
 23 22  1  0  0  0  0
 24 23  1  0  0  0  0
 25 24  1  0  0  0  0
M  END
>  <MODEL>
1

>  <REMARK>
 VINA RESULT:      -6.2      0.000      0.000
  Name = 
  8 active torsions:
  status: ('A' for Active; 'I' for Inactive)
    1  A    between atoms: N_2  and  C_15
    2  A    between atoms: N_2  and  C_21
    3  A    between atoms: O_5  and  C_23
    4  A    between atoms: C_6  and  C_13
    5  A    between atoms: C_7  and  C_10
    6  A    between atoms: O_8  and  C_21
    7  A    between atoms: C_10  and  C_19
    8  A    between atoms: C_15  and  C_19
                            x       y       z     vdW  Elec       q    Type
                         _______ _______ _______ _____ _____    ______ ____

>  <TORSDO>
F 8

$$$$
=
 OpenBabel11042413493D

 25 27  0  0  1  0  0  0  0  0999 V2000
  188.6590  178.1840  142.6700 C   0  0  0  0  0  3  0  0  0  0  0  0
  190.1360  176.9790  145.7080 N   0  0  0  0  0  0  0  0  0  0  0  0
  188.1340  176.4500  144.4070 C   0  0  0  0  0  2  0  0  0  0  0  0
  188.9800  176.0660  145.6300 C   0  0  2  0  0  0  0  0  0  0  0  0
  188.9030  177.5540  143.8200 C   0  0  0  0  0  0  0  0  0  0  0  0
  190.0540  177.8100  144.5830 N   0  0  0  0  0  0  0  0  0  0  0  0
  185.4700  178.5250  143.2820 C   0  0  0  0  0  3  0  0  0  0  0  0
  186.3530  177.6420  139.9650 N   0  0  0  0  0  0  0  0  0  0  0  0
  186.1410  178.1430  142.1230 C   0  0  0  0  0  0  0  0  0  0  0  0
  187.5720  177.6980  140.4920 N   0  0  0  0  0  0  0  0  0  0  0  0
  187.4770  177.9870  141.8110 C   0  0  0  0  0  0  0  0  0  0  0  0
  184.0940  178.0070  140.8500 C   0  0  0  0  0  3  0  0  0  0  0  0
  184.0680  178.6260  143.2170 C   0  0  0  0  0  2  0  0  0  0  0  0
  183.3760  178.3620  142.0080 C   0  0  0  0  0  0  0  0  0  0  0  0
  185.4790  177.9110  140.9500 C   0  0  0  0  0  0  0  0  0  0  0  0
  181.2850  178.5050  140.6940 C   0  0  0  0  0  1  0  0  0  0  0  0
  181.9830  178.4550  141.9310 O   0  0  0  0  0  0  0  0  0  0  0  0
  188.1550  176.2080  146.9170 C   0  0  0  0  0  2  0  0  0  0  0  0
  186.7280  176.6930  146.6840 C   0  0  0  0  0  2  0  0  0  0  0  0
  186.5060  178.0310  147.3600 C   0  0  0  0  0  1  0  0  0  0  0  0
  189.4820  174.6320  145.4440 C   0  0  0  0  0  2  0  0  0  0  0  0
  190.9160  174.5460  145.6760 N   0  0  0  0  0  2  0  0  0  0  0  0
  191.4790  173.8410  144.5390 C   0  0  0  0  0  2  0  0  0  0  0  0
  192.7400  174.3590  144.2500 O   0  0  0  0  0  0  0  0  0  0  0  0
  192.4950  175.3870  143.3410 C   0  0  0  0  0  1  0  0  0  0  0  0
  1  5  2  0  0  0  0
  3  4  1  0  0  0  0
  4 21  1  6  0  0  0
  4  2  1  0  0  0  0
  4 18  1  0  0  0  0
  5  3  1  0  0  0  0
  5  6  1  0  0  0  0
  6  2  2  0  0  0  0
  8 10  1  0  0  0  0
  8 15  2  0  0  0  0
  9  7  2  0  0  0  0
 10 11  2  0  0  0  0
 11  9  1  0  0  0  0
 11  1  1  0  0  0  0
 12 15  1  0  0  0  0
 12 14  2  0  0  0  0
 13  7  1  0  0  0  0
 14 13  1  0  0  0  0
 15  9  1  0  0  0  0
 16 17  1  0  0  0  0
 17 14  1  0  0  0  0
 19 18  1  0  0  0  0
 19 20  1  0  0  0  0
 21 22  1  0  0  0  0
 23 22  1  0  0  0  0
 24 23  1  0  0  0  0
 25 24  1  0  0  0  0
M  END
>  <MODEL>
2

>  <REMARK>
 VINA RESULT:      -6.0      2.617      3.920
  Name = 
  8 active torsions:
  status: ('A' for Active; 'I' for Inactive)
    1  A    between atoms: N_2  and  C_15
    2  A    between atoms: N_2  and  C_21
    3  A    between atoms: O_5  and  C_23
    4  A    between atoms: C_6  and  C_13
    5  A    between atoms: C_7  and  C_10
    6  A    between atoms: O_8  and  C_21
    7  A    between atoms: C_10  and  C_19
    8  A    between atoms: C_15  and  C_19
                            x       y       z     vdW  Elec       q    Type
                         _______ _______ _______ _____ _____    ______ ____

>  <TORSDO>
F 8

$$$$
=
 OpenBabel11042413493D

 25 27  0  0  1  0  0  0  0  0999 V2000
  188.4940  176.1060  144.6620 C   0  0  0  0  0  3  0  0  0  0  0  0
  185.0950  177.2210  144.9140 N   0  0  0  0  0  0  0  0  0  0  0  0
  187.2720  178.2970  144.6290 C   0  0  0  0  0  2  0  0  0  0  0  0
  185.7550  178.5230  144.6980 C   0  0  2  0  0  0  0  0  0  0  0  0
  187.3860  176.8400  144.7650 C   0  0  0  0  0  0  0  0  0  0  0  0
  186.1150  176.2600  144.9030 N   0  0  0  0  0  0  0  0  0  0  0  0
  191.2910  175.2170  146.0950 C   0  0  0  0  0  3  0  0  0  0  0  0
  191.5090  177.8020  143.6800 N   0  0  0  0  0  0  0  0  0  0  0  0
  191.0210  176.2140  145.1600 C   0  0  0  0  0  0  0  0  0  0  0  0
  190.1990  177.5800  143.6220 N   0  0  0  0  0  0  0  0  0  0  0  0
  189.8660  176.6270  144.5230 C   0  0  0  0  0  0  0  0  0  0  0  0
  193.3480  176.8280  144.9780 C   0  0  0  0  0  3  0  0  0  0  0  0
  192.6290  175.0450  146.4920 C   0  0  0  0  0  2  0  0  0  0  0  0
  193.6590  175.8510  145.9430 C   0  0  0  0  0  0  0  0  0  0  0  0
  192.0140  176.9760  144.6110 C   0  0  0  0  0  0  0  0  0  0  0  0
  195.7750  174.5690  145.9520 C   0  0  0  0  0  1  0  0  0  0  0  0
  194.9930  175.6930  146.3320 O   0  0  0  0  0  0  0  0  0  0  0  0
  185.4050  179.4510  145.8710 C   0  0  0  0  0  2  0  0  0  0  0  0
  185.1590  178.7170  147.1850 C   0  0  0  0  0  2  0  0  0  0  0  0
  186.3940  178.7740  148.0620 C   0  0  0  0  0  1  0  0  0  0  0  0
  185.2880  179.1090  143.3650 C   0  0  0  0  0  2  0  0  0  0  0  0
  184.6700  178.0880  142.5310 N   0  0  0  0  0  2  0  0  0  0  0  0
  185.4710  177.9970  141.3250 C   0  0  0  0  0  2  0  0  0  0  0  0
  186.3650  176.9340  141.4410 O   0  0  0  0  0  0  0  0  0  0  0  0
  187.5760  177.4450  140.9750 C   0  0  0  0  0  1  0  0  0  0  0  0
  1  5  2  0  0  0  0
  3  4  1  0  0  0  0
  3  5  1  0  0  0  0
  4 21  1  6  0  0  0
  4  2  1  0  0  0  0
  4 18  1  0  0  0  0
  5  6  1  0  0  0  0
  6  2  2  0  0  0  0
  7 13  1  0  0  0  0
  8 15  2  0  0  0  0
  9  7  2  0  0  0  0
 10  8  1  0  0  0  0
 10 11  2  0  0  0  0
 11  1  1  0  0  0  0
 11  9  1  0  0  0  0
 12 14  2  0  0  0  0
 14 17  1  0  0  0  0
 14 13  1  0  0  0  0
 15 12  1  0  0  0  0
 15  9  1  0  0  0  0
 16 17  1  0  0  0  0
 18 19  1  0  0  0  0
 19 20  1  0  0  0  0
 22 21  1  0  0  0  0
 23 24  1  0  0  0  0
 23 22  1  0  0  0  0
 25 24  1  0  0  0  0
M  END
>  <MODEL>
3

>  <REMARK>
 VINA RESULT:      -5.9      2.145      7.688
  Name = 
  8 active torsions:
  status: ('A' for Active; 'I' for Inactive)
    1  A    between atoms: N_2  and  C_15
    2  A    between atoms: N_2  and  C_21
    3  A    between atoms: O_5  and  C_23
    4  A    between atoms: C_6  and  C_13
    5  A    between atoms: C_7  and  C_10
    6  A    between atoms: O_8  and  C_21
    7  A    between atoms: C_10  and  C_19
    8  A    between atoms: C_15  and  C_19
                            x       y       z     vdW  Elec       q    Type
                         _______ _______ _______ _____ _____    ______ ____

>  <TORSDO>
F 8

$$$$
=
 OpenBabel11042413493D

 25 27  0  0  1  0  0  0  0  0999 V2000
  188.6660  177.9100  143.7380 C   0  0  0  0  0  3  0  0  0  0  0  0
  191.1840  175.3810  144.0910 N   0  0  0  0  0  0  0  0  0  0  0  0
  188.7390  175.4290  144.1060 C   0  0  0  0  0  2  0  0  0  0  0  0
  189.9820  174.5290  144.1660 C   0  0  2  0  0  0  0  0  0  0  0  0
  189.3210  176.7670  143.9480 C   0  0  0  0  0  0  0  0  0  0  0  0
  190.7220  176.6930  143.9220 N   0  0  0  0  0  0  0  0  0  0  0  0
  186.4810  178.0250  141.3140 C   0  0  0  0  0  3  0  0  0  0  0  0
  185.1920  178.2270  144.6090 N   0  0  0  0  0  0  0  0  0  0  0  0
  186.3200  178.1280  142.6940 C   0  0  0  0  0  0  0  0  0  0  0  0
  186.4860  178.1310  144.9030 N   0  0  0  0  0  2  0  0  0  0  0  0
  187.2020  178.0840  143.7550 C   0  0  0  0  0  0  0  0  0  0  0  0
  183.9170  178.2640  142.5150 C   0  0  0  0  0  3  0  0  0  0  0  0
  185.3210  178.0660  140.5210 C   0  0  0  0  0  3  0  0  0  0  0  0
  184.0380  178.1920  141.1130 C   0  0  0  0  0  0  0  0  0  0  0  0
  185.0850  178.2260  143.2700 C   0  0  0  0  0  0  0  0  0  0  0  0
  181.5770  178.3280  140.9030 C   0  0  0  0  0  1  0  0  0  0  0  0
  182.8780  178.2380  140.3360 O   0  0  0  0  0  0  0  0  0  0  0  0
  190.0140  173.7500  145.4880 C   0  0  0  0  0  2  0  0  0  0  0  0
  189.3180  174.4650  146.6420 C   0  0  0  0  0  2  0  0  0  0  0  0
  190.3310  175.2010  147.4960 C   0  0  0  0  0  1  0  0  0  0  0  0
  189.9590  173.5850  142.9630 C   0  0  0  0  0  2  0  0  0  0  0  0
  188.6570  173.5990  142.3100 N   0  0  0  0  0  2  0  0  0  0  0  0
  188.9070  173.7500  140.8890 C   0  0  0  0  0  2  0  0  0  0  0  0
  189.0390  172.4900  140.3050 O   0  0  0  0  0  0  0  0  0  0  0  0
  188.2010  172.5320  139.1920 C   0  0  0  0  0  1  0  0  0  0  0  0
  1 11  1  0  0  0  0
  1  5  2  0  0  0  0
  2  4  1  0  0  0  0
  3  4  1  0  0  0  0
  4 21  1  6  0  0  0
  4 18  1  0  0  0  0
  5  3  1  0  0  0  0
  6  5  1  0  0  0  0
  6  2  2  0  0  0  0
  7  9  1  0  0  0  0
  8 10  1  0  0  0  0
  9 15  1  0  0  0  0
  9 11  2  0  0  0  0
 11 10  1  0  0  0  0
 12 15  1  0  0  0  0
 13 14  1  0  0  0  0
 13  7  2  0  0  0  0
 14 12  2  0  0  0  0
 15  8  2  0  0  0  0
 17 16  1  0  0  0  0
 17 14  1  0  0  0  0
 18 19  1  0  0  0  0
 19 20  1  0  0  0  0
 22 21  1  0  0  0  0
 23 22  1  0  0  0  0
 24 23  1  0  0  0  0
 25 24  1  0  0  0  0
M  END
>  <MODEL>
4

>  <REMARK>
 VINA RESULT:      -5.9      2.966      4.301
  Name = 
  8 active torsions:
  status: ('A' for Active; 'I' for Inactive)
    1  A    between atoms: N_2  and  C_15
    2  A    between atoms: N_2  and  C_21
    3  A    between atoms: O_5  and  C_23
    4  A    between atoms: C_6  and  C_13
    5  A    between atoms: C_7  and  C_10
    6  A    between atoms: O_8  and  C_21
    7  A    between atoms: C_10  and  C_19
    8  A    between atoms: C_15  and  C_19
                            x       y       z     vdW  Elec       q    Type
                         _______ _______ _______ _____ _____    ______ ____

>  <TORSDO>
F 8

$$$$
=
 OpenBabel11042413493D

 25 27  0  0  1  0  0  0  0  0999 V2000
  188.5460  175.6260  145.2910 C   0  0  0  0  0  2  0  0  0  0  0  0
  185.5450  177.1540  144.0580 N   0  0  0  0  0  2  0  0  0  0  0  0
  187.7880  177.9290  144.6430 C   0  0  0  0  0  2  0  0  0  0  0  0
  186.4250  178.3380  144.0680 C   0  0  2  0  0  0  0  0  0  0  0  0
  187.6150  176.4920  144.8880 C   0  0  0  0  0  0  0  0  0  0  0  0
  186.3240  176.0840  144.5190 N   0  0  0  0  0  0  0  0  0  0  0  0
  191.3560  175.6390  143.6280 C   0  0  0  0  0  3  0  0  0  0  0  0
  191.5130  176.7250  146.9980 N   0  0  0  0  0  0  0  0  0  0  0  0
  191.0810  175.9490  144.9580 C   0  0  0  0  0  0  0  0  0  0  0  0
  190.2130  176.4530  146.9330 N   0  0  0  0  0  2  0  0  0  0  0  0
  189.9190  175.9640  145.7060 C   0  0  0  0  0  0  0  0  0  0  0  0
  193.3670  176.5860  145.3990 C   0  0  0  0  0  3  0  0  0  0  0  0
  192.6840  175.7880  143.1890 C   0  0  0  0  0  3  0  0  0  0  0  0
  193.6930  176.2550  144.0690 C   0  0  0  0  0  0  0  0  0  0  0  0
  192.0460  176.4210  145.8030 C   0  0  0  0  0  0  0  0  0  0  0  0
  196.0930  175.6770  144.2230 C   0  0  0  0  0  1  0  0  0  0  0  0
  195.0170  176.4040  143.6460 O   0  0  0  0  0  0  0  0  0  0  0  0
  185.7790  179.4220  144.9410 C   0  0  0  0  0  2  0  0  0  0  0  0
  184.7210  178.8900  145.9030 C   0  0  0  0  0  2  0  0  0  0  0  0
  185.3060  178.7140  147.2890 C   0  0  0  0  0  1  0  0  0  0  0  0
  186.6280  178.8250  142.6320 C   0  0  0  0  0  2  0  0  0  0  0  0
  187.8570  178.2890  142.0660 N   0  0  0  0  0  2  0  0  0  0  0  0
  187.4800  177.5650  140.8660 C   0  0  0  0  0  2  0  0  0  0  0  0
  187.0580  176.2820  141.2110 O   0  0  0  0  0  0  0  0  0  0  0  0
  188.2350  175.5420  141.3100 C   0  0  0  0  0  1  0  0  0  0  0  0
  1 11  1  0  0  0  0
  2  4  1  0  0  0  0
  2  6  1  0  0  0  0
  3  5  1  0  0  0  0
  4 21  1  6  0  0  0
  4  3  1  0  0  0  0
  4 18  1  0  0  0  0
  5  1  1  0  0  0  0
  6  5  2  0  0  0  0
  7  9  1  0  0  0  0
  9 11  2  0  0  0  0
  9 15  1  0  0  0  0
 10  8  1  0  0  0  0
 11 10  1  0  0  0  0
 12 15  1  0  0  0  0
 13  7  2  0  0  0  0
 13 14  1  0  0  0  0
 14 12  2  0  0  0  0
 15  8  2  0  0  0  0
 17 14  1  0  0  0  0
 17 16  1  0  0  0  0
 18 19  1  0  0  0  0
 19 20  1  0  0  0  0
 22 21  1  0  0  0  0
 23 24  1  0  0  0  0
 23 22  1  0  0  0  0
 24 25  1  0  0  0  0
M  END
>  <MODEL>
5

>  <REMARK>
 VINA RESULT:      -5.8      2.226      7.143
  Name = 
  8 active torsions:
  status: ('A' for Active; 'I' for Inactive)
    1  A    between atoms: N_2  and  C_15
    2  A    between atoms: N_2  and  C_21
    3  A    between atoms: O_5  and  C_23
    4  A    between atoms: C_6  and  C_13
    5  A    between atoms: C_7  and  C_10
    6  A    between atoms: O_8  and  C_21
    7  A    between atoms: C_10  and  C_19
    8  A    between atoms: C_15  and  C_19
                            x       y       z     vdW  Elec       q    Type
                         _______ _______ _______ _____ _____    ______ ____

>  <TORSDO>
F 8

$$$$
=
 OpenBabel11042413493D

 25 27  0  0  1  0  0  0  0  0999 V2000
  189.3890  177.3390  146.3890 C   0  0  0  0  0  2  0  0  0  0  0  0
  192.2210  175.4500  145.2620 N   0  0  0  0  0  2  0  0  0  0  0  0
  189.8100  175.3950  144.8600 C   0  0  0  0  0  2  0  0  0  0  0  0
  191.1650  174.7820  144.4780 C   0  0  2  0  0  0  0  0  0  0  0  0
  190.1890  176.4330  145.8260 C   0  0  0  0  0  0  0  0  0  0  0  0
  191.5800  176.4470  146.0110 N   0  0  0  0  0  0  0  0  0  0  0  0
  187.4800  178.0600  143.8400 C   0  0  0  0  0  3  0  0  0  0  0  0
  185.8270  177.1260  146.8330 N   0  0  0  0  0  0  0  0  0  0  0  0
  187.1600  177.7130  145.1510 C   0  0  0  0  0  0  0  0  0  0  0  0
  187.0840  177.0310  147.2570 N   0  0  0  0  0  2  0  0  0  0  0  0
  187.9220  177.3970  146.2590 C   0  0  0  0  0  0  0  0  0  0  0  0
  184.7900  177.7320  144.6950 C   0  0  0  0  0  3  0  0  0  0  0  0
  186.4150  178.2690  142.9460 C   0  0  0  0  0  3  0  0  0  0  0  0
  185.0690  178.1130  143.3680 C   0  0  0  0  0  0  0  0  0  0  0  0
  185.8660  177.5390  145.5550 C   0  0  0  0  0  0  0  0  0  0  0  0
  184.1540  178.2940  141.0770 C   0  0  0  0  0  1  0  0  0  0  0  0
  184.0020  178.3220  142.4900 O   0  0  0  0  0  0  0  0  0  0  0  0
  191.1850  173.2820  144.8070 C   0  0  0  0  0  2  0  0  0  0  0  0
  189.7980  172.6640  144.9510 C   0  0  0  0  0  2  0  0  0  0  0  0
  189.4230  171.9050  143.6940 C   0  0  0  0  0  1  0  0  0  0  0  0
  191.4110  175.0300  142.9890 C   0  0  0  0  0  2  0  0  0  0  0  0
  190.1990  175.4960  142.3290 N   0  0  0  0  0  2  0  0  0  0  0  0
  189.8710  174.5080  141.3180 C   0  0  0  0  0  2  0  0  0  0  0  0
  188.6010  174.7720  140.8070 O   0  0  0  0  0  0  0  0  0  0  0  0
  187.7710  174.7960  141.9270 C   0  0  0  0  0  1  0  0  0  0  0  0
  2  6  1  0  0  0  0
  3  5  1  0  0  0  0
  4 21  1  6  0  0  0
  4 18  1  0  0  0  0
  4  3  1  0  0  0  0
  4  2  1  0  0  0  0
  5  6  2  0  0  0  0
  5  1  1  0  0  0  0
  7  9  1  0  0  0  0
  8 10  1  0  0  0  0
  9 15  1  0  0  0  0
  9 11  2  0  0  0  0
 11  1  1  0  0  0  0
 11 10  1  0  0  0  0
 12 15  1  0  0  0  0
 13 14  1  0  0  0  0
 13  7  2  0  0  0  0
 14 12  2  0  0  0  0
 15  8  2  0  0  0  0
 16 17  1  0  0  0  0
 17 14  1  0  0  0  0
 18 19  1  0  0  0  0
 20 19  1  0  0  0  0
 22 21  1  0  0  0  0
 23 22  1  0  0  0  0
 24 23  1  0  0  0  0
 24 25  1  0  0  0  0
M  END
>  <MODEL>
6

>  <REMARK>
 VINA RESULT:      -5.8      2.473      3.409
  Name = 
  8 active torsions:
  status: ('A' for Active; 'I' for Inactive)
    1  A    between atoms: N_2  and  C_15
    2  A    between atoms: N_2  and  C_21
    3  A    between atoms: O_5  and  C_23
    4  A    between atoms: C_6  and  C_13
    5  A    between atoms: C_7  and  C_10
    6  A    between atoms: O_8  and  C_21
    7  A    between atoms: C_10  and  C_19
    8  A    between atoms: C_15  and  C_19
                            x       y       z     vdW  Elec       q    Type
                         _______ _______ _______ _____ _____    ______ ____

>  <TORSDO>
F 8

$$$$
=
 OpenBabel11042413493D

 25 27  0  0  1  0  0  0  0  0999 V2000
  189.3350  174.7810  146.7780 C   0  0  0  0  0  3  0  0  0  0  0  0
  186.3760  176.8060  146.7110 N   0  0  0  0  0  0  0  0  0  0  0  0
  188.1770  176.2900  145.1410 C   0  0  0  0  0  2  0  0  0  0  0  0
  186.8430  177.0260  145.3290 C   0  0  2  0  0  0  0  0  0  0  0  0
  188.3710  175.6390  146.4420 C   0  0  0  0  0  0  0  0  0  0  0  0
  187.3060  175.9420  147.3050 N   0  0  0  0  0  0  0  0  0  0  0  0
  192.4280  175.8290  146.7980 C   0  0  0  0  0  3  0  0  0  0  0  0
  191.6450  173.2690  144.4750 N   0  0  0  0  0  0  0  0  0  0  0  0
  191.7870  174.8910  145.9910 C   0  0  0  0  0  0  0  0  0  0  0  0
  190.4430  173.4190  145.0240 N   0  0  0  0  0  0  0  0  0  0  0  0
  190.4920  174.4110  145.9430 C   0  0  0  0  0  0  0  0  0  0  0  0
  193.8280  174.3310  144.8300 C   0  0  0  0  0  3  0  0  0  0  0  0
  193.8040  176.0310  146.5890 C   0  0  0  0  0  2  0  0  0  0  0  0
  194.5070  175.2910  145.6040 C   0  0  0  0  0  0  0  0  0  0  0  0
  192.4650  174.1590  145.0570 C   0  0  0  0  0  0  0  0  0  0  0  0
  196.6360  174.6570  144.5170 C   0  0  0  0  0  1  0  0  0  0  0  0
  195.8740  175.4860  145.3840 O   0  0  0  0  0  0  0  0  0  0  0  0
  187.0280  178.5340  145.1090 C   0  0  0  0  0  2  0  0  0  0  0  0
  185.7570  179.3490  145.3250 C   0  0  0  0  0  2  0  0  0  0  0  0
  185.3800  180.0880  144.0570 C   0  0  0  0  0  1  0  0  0  0  0  0
  185.8210  176.4400  144.3530 C   0  0  0  0  0  2  0  0  0  0  0  0
  186.4610  176.0190  143.1150 N   0  0  0  0  0  2  0  0  0  0  0  0
  186.0590  176.9700  142.0960 C   0  0  0  0  0  2  0  0  0  0  0  0
  187.0240  177.0070  141.0900 O   0  0  0  0  0  0  0  0  0  0  0  0
  188.0010  177.8760  141.5750 C   0  0  0  0  0  1  0  0  0  0  0  0
  2  6  2  0  0  0  0
  3  4  1  0  0  0  0
  3  5  1  0  0  0  0
  4 21  1  6  0  0  0
  4  2  1  0  0  0  0
  5  1  2  0  0  0  0
  5  6  1  0  0  0  0
  8 10  1  0  0  0  0
  8 15  2  0  0  0  0
  9  7  2  0  0  0  0
 10 11  2  0  0  0  0
 11  9  1  0  0  0  0
 11  1  1  0  0  0  0
 12 15  1  0  0  0  0
 12 14  2  0  0  0  0
 13  7  1  0  0  0  0
 14 13  1  0  0  0  0
 15  9  1  0  0  0  0
 16 17  1  0  0  0  0
 17 14  1  0  0  0  0
 18 19  1  0  0  0  0
 18  4  1  0  0  0  0
 20 19  1  0  0  0  0
 22 21  1  0  0  0  0
 23 22  1  0  0  0  0
 24 25  1  0  0  0  0
 24 23  1  0  0  0  0
M  END
>  <MODEL>
7

>  <REMARK>
 VINA RESULT:      -5.7      2.001      7.690
  Name = 
  8 active torsions:
  status: ('A' for Active; 'I' for Inactive)
    1  A    between atoms: N_2  and  C_15
    2  A    between atoms: N_2  and  C_21
    3  A    between atoms: O_5  and  C_23
    4  A    between atoms: C_6  and  C_13
    5  A    between atoms: C_7  and  C_10
    6  A    between atoms: O_8  and  C_21
    7  A    between atoms: C_10  and  C_19
    8  A    between atoms: C_15  and  C_19
                            x       y       z     vdW  Elec       q    Type
                         _______ _______ _______ _____ _____    ______ ____

>  <TORSDO>
F 8

$$$$
=
 OpenBabel11042413493D

 25 27  0  0  1  0  0  0  0  0999 V2000
  190.8550  177.6410  143.2300 C   0  0  0  0  0  3  0  0  0  0  0  0
  193.5430  175.8840  144.8270 N   0  0  0  0  0  0  0  0  0  0  0  0
  191.1230  175.5860  144.6450 C   0  0  0  0  0  2  0  0  0  0  0  0
  192.4290  174.9820  145.1790 C   0  0  2  0  0  0  0  0  0  0  0  0
  191.5870  176.8000  143.9620 C   0  0  0  0  0  0  0  0  0  0  0  0
  192.9810  176.9210  144.0710 N   0  0  0  0  0  0  0  0  0  0  0  0
  188.4460  177.5000  145.4290 C   0  0  0  0  0  3  0  0  0  0  0  0
  187.4670  177.7020  142.0290 N   0  0  0  0  0  0  0  0  0  0  0  0
  188.4100  177.5330  144.0360 C   0  0  0  0  0  0  0  0  0  0  0  0
  188.7860  177.7130  141.8610 N   0  0  0  0  0  0  0  0  0  0  0  0
  189.3910  177.5960  143.0660 C   0  0  0  0  0  0  0  0  0  0  0  0
  185.9970  177.5890  143.9890 C   0  0  0  0  0  3  0  0  0  0  0  0
  187.2150  177.4880  146.1090 C   0  0  0  0  0  2  0  0  0  0  0  0
  185.9890  177.5260  145.3950 C   0  0  0  0  0  0  0  0  0  0  0  0
  187.2320  177.5930  143.3460 C   0  0  0  0  0  0  0  0  0  0  0  0
  183.9400  178.6650  146.1820 C   0  0  0  0  0  1  0  0  0  0  0  0
  184.7590  177.5110  146.0590 O   0  0  0  0  0  0  0  0  0  0  0  0
  192.3720  174.8490  146.7080 C   0  0  0  0  0  2  0  0  0  0  0  0
  191.0430  175.2890  147.3150 C   0  0  0  0  0  2  0  0  0  0  0  0
  191.2160  176.5850  148.0820 C   0  0  0  0  0  1  0  0  0  0  0  0
  192.6490  173.6250  144.5090 C   0  0  0  0  0  2  0  0  0  0  0  0
  191.4780  173.2230  143.7420 N   0  0  0  0  0  2  0  0  0  0  0  0
  191.0570  171.9390  144.2700 C   0  0  0  0  0  2  0  0  0  0  0  0
  189.6700  171.9300  144.4130 O   0  0  0  0  0  0  0  0  0  0  0  0
  189.1840  172.0970  143.1170 C   0  0  0  0  0  1  0  0  0  0  0  0
  1  5  2  0  0  0  0
  2  4  1  0  0  0  0
  3  4  1  0  0  0  0
  4 21  1  6  0  0  0
  4 18  1  0  0  0  0
  5  6  1  0  0  0  0
  5  3  1  0  0  0  0
  6  2  2  0  0  0  0
  7 13  1  0  0  0  0
  8 15  2  0  0  0  0
  9  7  2  0  0  0  0
 10  8  1  0  0  0  0
 10 11  2  0  0  0  0
 11  1  1  0  0  0  0
 11  9  1  0  0  0  0
 12 14  2  0  0  0  0
 14 17  1  0  0  0  0
 14 13  1  0  0  0  0
 15 12  1  0  0  0  0
 15  9  1  0  0  0  0
 17 16  1  0  0  0  0
 18 19  1  0  0  0  0
 19 20  1  0  0  0  0
 22 23  1  0  0  0  0
 22 21  1  0  0  0  0
 23 24  1  0  0  0  0
 25 24  1  0  0  0  0
M  END
>  <MODEL>
8

>  <REMARK>
 VINA RESULT:      -5.7      2.918      4.463
  Name = 
  8 active torsions:
  status: ('A' for Active; 'I' for Inactive)
    1  A    between atoms: N_2  and  C_15
    2  A    between atoms: N_2  and  C_21
    3  A    between atoms: O_5  and  C_23
    4  A    between atoms: C_6  and  C_13
    5  A    between atoms: C_7  and  C_10
    6  A    between atoms: O_8  and  C_21
    7  A    between atoms: C_10  and  C_19
    8  A    between atoms: C_15  and  C_19
                            x       y       z     vdW  Elec       q    Type
                         _______ _______ _______ _____ _____    ______ ____

>  <TORSDO>
F 8

$$$$
=
 OpenBabel11042413493D

 25 27  0  0  1  0  0  0  0  0999 V2000
  191.8540  175.0700  146.8900 C   0  0  0  0  0  3  0  0  0  0  0  0
  188.2830  175.3590  147.0550 N   0  0  0  0  0  0  0  0  0  0  0  0
  190.1050  176.7010  146.1300 C   0  0  0  0  0  2  0  0  0  0  0  0
  188.5820  176.5730  146.2710 C   0  0  2  0  0  0  0  0  0  0  0  0
  190.5930  175.4990  146.8170 C   0  0  0  0  0  0  0  0  0  0  0  0
  189.5180  174.7460  147.3110 N   0  0  0  0  0  0  0  0  0  0  0  0
  193.5910  174.7700  144.1410 C   0  0  0  0  0  3  0  0  0  0  0  0
  194.5930  177.3400  146.3670 N   0  0  0  0  0  0  0  0  0  0  0  0
  193.7460  175.6250  145.2310 C   0  0  0  0  0  0  0  0  0  0  0  0
  193.5730  176.8520  147.0670 N   0  0  0  0  0  2  0  0  0  0  0  0
  193.0440  175.7950  146.4080 C   0  0  0  0  0  0  0  0  0  0  0  0
  195.6030  176.7760  144.2040 C   0  0  0  0  0  3  0  0  0  0  0  0
  194.4880  174.9180  143.0690 C   0  0  0  0  0  3  0  0  0  0  0  0
  195.4980  175.9130  143.0970 C   0  0  0  0  0  0  0  0  0  0  0  0
  194.7030  176.6000  145.2510 C   0  0  0  0  0  0  0  0  0  0  0  0
  197.5570  175.2560  141.8930 C   0  0  0  0  0  1  0  0  0  0  0  0
  196.3990  176.0670  142.0380 O   0  0  0  0  0  0  0  0  0  0  0  0
  188.0090  177.7880  147.0130 C   0  0  0  0  0  2  0  0  0  0  0  0
  186.5380  177.6430  147.3890 C   0  0  0  0  0  2  0  0  0  0  0  0
  185.8480  178.9930  147.3600 C   0  0  0  0  0  1  0  0  0  0  0  0
  187.9730  176.4330  144.8750 C   0  0  0  0  0  2  0  0  0  0  0  0
  188.4200  177.5070  143.9990 N   0  0  0  0  0  2  0  0  0  0  0  0
  187.2810  177.8730  143.1780 C   0  0  0  0  0  2  0  0  0  0  0  0
  186.4770  178.7740  143.8740 O   0  0  0  0  0  0  0  0  0  0  0  0
  185.3040  178.8460  143.1250 C   0  0  0  0  0  1  0  0  0  0  0  0
  2  6  2  0  0  0  0
  3  4  1  0  0  0  0
  3  5  1  0  0  0  0
  4 21  1  6  0  0  0
  4 18  1  0  0  0  0
  4  2  1  0  0  0  0
  5  1  2  0  0  0  0
  5  6  1  0  0  0  0
  7  9  1  0  0  0  0
  8 10  1  0  0  0  0
  9 15  1  0  0  0  0
  9 11  2  0  0  0  0
 11  1  1  0  0  0  0
 11 10  1  0  0  0  0
 12 15  1  0  0  0  0
 13 14  1  0  0  0  0
 13  7  2  0  0  0  0
 14 12  2  0  0  0  0
 15  8  2  0  0  0  0
 16 17  1  0  0  0  0
 17 14  1  0  0  0  0
 18 19  1  0  0  0  0
 20 19  1  0  0  0  0
 22 21  1  0  0  0  0
 23 24  1  0  0  0  0
 23 22  1  0  0  0  0
 25 24  1  0  0  0  0
M  END
>  <MODEL>
9

>  <REMARK>
 VINA RESULT:      -5.6      2.295      7.886
  Name = 
  8 active torsions:
  status: ('A' for Active; 'I' for Inactive)
    1  A    between atoms: N_2  and  C_15
    2  A    between atoms: N_2  and  C_21
    3  A    between atoms: O_5  and  C_23
    4  A    between atoms: C_6  and  C_13
    5  A    between atoms: C_7  and  C_10
    6  A    between atoms: O_8  and  C_21
    7  A    between atoms: C_10  and  C_19
    8  A    between atoms: C_15  and  C_19
                            x       y       z     vdW  Elec       q    Type
                         _______ _______ _______ _____ _____    ______ ____

>  <TORSDO>
F 8

$$$$
