=
 OpenBabel11042418163D

 53 59  0  0  1  0  0  0  0  0999 V2000
  190.6920  172.2690  144.1000 N   0  0  0  0  0  0  0  0  0  0  0  0
  191.5790  174.2200  145.3470 C   0  0  0  0  0  0  0  0  0  0  0  0
  193.8650  174.8920  145.9910 C   0  0  0  0  0  1  0  0  0  0  0  0
  193.4590  172.5530  145.2020 C   0  0  0  0  0  3  0  0  0  0  0  0
  193.0270  171.6880  144.2910 C   0  0  0  0  0  3  0  0  0  0  0  0
  190.5350  173.2380  144.9500 C   0  0  0  0  0  3  0  0  0  0  0  0
  191.9170  172.0130  143.3550 C   0  0  1  0  0  3  0  0  0  0  0  0
  192.8920  173.8940  145.4530 C   0  0  0  0  0  0  0  0  0  0  0  0
  192.6900  171.0350  141.1780 C   0  0  0  0  0  2  0  0  0  0  0  0
  191.8090  171.2450  140.0030 C   0  0  0  0  0  0  0  0  0  0  0  0
  191.7260  170.8760  142.3490 C   0  0  2  0  0  3  0  0  0  0  0  0
  190.3080  170.8430  141.7660 C   0  0  0  0  0  3  0  0  0  0  0  0
  192.2180  171.4250  138.7240 C   0  0  0  0  0  0  0  0  0  0  0  0
  190.4420  171.1630  140.3600 N   0  0  0  0  0  0  0  0  0  0  0  0
  189.5830  171.3400  135.6490 S   0  0  0  0  0  0  0  0  0  0  0  0
  189.8770  174.0640  135.5500 C   0  0  0  0  0  1  0  0  0  0  0  0
  190.8390  170.7630  136.7770 C   0  0  0  0  0  3  0  0  0  0  0  0
  190.5660  172.8940  137.5270 O   0  0  0  0  0  0  0  0  0  0  0  0
  191.2200  171.6780  137.6500 C   0  0  0  0  0  0  0  0  0  0  0  0
  189.5660  172.9460  136.5230 C   0  0  2  0  0  3  0  0  0  0  0  0
  194.1630  170.2510  138.0090 O   0  0  0  0  0  0  0  0  0  0  0  0
  193.6530  171.3640  138.3200 C   0  0  0  0  0  0  0  0  0  0  0  0
  194.4550  172.5470  138.2390 N   0  0  0  0  0  0  0  0  0  0  0  0
  195.6230  172.6300  138.7970 C   0  0  0  0  0  3  0  0  0  0  0  0
  196.4350  173.8690  138.6600 C   0  0  0  0  0  2  0  0  0  0  0  0
  195.5440  175.0860  138.7850 C   0  0  0  0  0  2  0  0  0  0  0  0
  194.1050  175.8960  142.3050 C   0  0  0  0  0  2  0  0  0  0  0  0
  194.2410  175.3440  140.9200 C   0  0  0  0  0  0  0  0  0  0  0  0
  195.4610  176.0130  142.9980 C   0  0  0  0  0  2  0  0  0  0  0  0
  196.7170  175.8240  140.8650 C   0  0  0  0  0  2  0  0  0  0  0  0
  196.4630  176.7080  142.0850 C   0  0  0  0  0  2  0  0  0  0  0  0
  193.2380  174.7950  140.3860 O   0  0  0  0  0  0  0  0  0  0  0  0
  195.4680  175.5150  140.1770 N   0  0  0  0  0  0  0  0  0  0  0  0
  190.6030  176.4780  145.1120 C   0  0  0  0  0  0  0  0  0  0  0  0
  191.1760  175.5300  145.7970 N   0  0  0  0  0  0  0  0  0  0  0  0
  190.2440  177.7450  145.8150 C   0  0  0  0  0  2  0  0  0  0  0  0
  189.4340  177.4340  147.0560 C   0  0  0  0  0  2  0  0  0  0  0  0
  188.3020  176.5980  146.6890 N   0  0  0  0  0  2  0  0  0  0  0  0
  185.9350  176.5580  147.9050 O   0  0  0  0  0  0  0  0  0  0  0  0
  187.1970  178.6620  147.9350 O   0  0  0  0  0  0  0  0  0  0  0  0
  186.8500  177.4510  147.1100 S   0  0  0  0  0  0  0  0  0  0  0  0
  185.6770  176.9190  144.6380 C   0  0  0  0  0  3  0  0  0  0  0  0
  184.9790  179.6760  144.2320 C   0  0  0  0  0  2  0  0  0  0  0  0
  185.6750  178.8960  142.7440 S   0  0  0  0  0  0  0  0  0  0  0  0
  185.4150  177.2310  143.3710 C   0  0  0  0  0  3  0  0  0  0  0  0
  186.0410  177.9430  145.6330 C   0  0  0  0  0  0  0  0  0  0  0  0
  185.7410  179.2300  145.4390 C   0  0  0  0  0  3  0  0  0  0  0  0
  190.3310  176.3300  143.7450 O   0  0  0  0  0  0  0  0  0  0  0  0
  187.7920  175.4510  141.1620 O   0  0  0  0  0  0  0  0  0  0  0  0
  188.0370  174.5880  142.2000 C   0  0  0  0  0  2  0  0  0  0  0  0
  189.0230  175.6600  141.8390 C   0  0  1  0  0  0  0  0  0  0  0  0
  188.9240  177.1770  142.0490 C   0  0  0  0  0  2  0  0  0  0  0  0
  189.0070  176.3150  143.2330 C   0  0  2  0  0  3  0  0  0  0  0  0
  1  6  2  0  0  0  0
  2  8  2  0  0  0  0
  2 35  1  0  0  0  0
  4  8  1  0  0  0  0
  5  4  2  0  0  0  0
  6  2  1  0  0  0  0
  7  1  1  0  0  0  0
  7  5  1  1  0  0  0
  8  3  1  0  0  0  0
 10 14  1  0  0  0  0
 10  9  1  0  0  0  0
 11  9  1  6  0  0  0
 11  7  1  0  0  0  0
 12 11  1  0  0  0  0
 13 10  2  0  0  0  0
 14 12  2  0  0  0  0
 15 20  1  0  0  0  0
 15 17  1  0  0  0  0
 17 19  2  0  0  0  0
 18 19  1  0  0  0  0
 19 13  1  0  0  0  0
 20 16  1  6  0  0  0
 20 18  1  0  0  0  0
 21 22  2  0  0  0  0
 22 13  1  0  0  0  0
 23 22  1  0  0  0  0
 23 24  2  0  0  0  0
 25 26  1  0  0  0  0
 25 24  1  0  0  0  0
 26 33  1  0  0  0  0
 27 29  1  0  0  0  0
 28 27  1  0  0  0  0
 30 31  1  0  0  0  0
 31 29  1  0  0  0  0
 32 28  2  0  0  0  0
 33 30  1  0  0  0  0
 33 28  1  0  0  0  0
 34 35  2  0  0  0  0
 34 36  1  0  0  0  0
 36 37  1  0  0  0  0
 38 37  1  0  0  0  0
 38 41  1  0  0  0  0
 41 39  2  0  0  0  0
 41 40  2  0  0  0  0
 42 46  1  0  0  0  0
 43 47  1  0  0  0  0
 44 45  1  0  0  0  0
 44 43  1  0  0  0  0
 45 42  2  0  0  0  0
 46 41  1  0  0  0  0
 47 46  2  0  0  0  0
 48 34  1  0  0  0  0
 49 51  1  0  0  0  0
 49 50  1  0  0  0  0
 51 52  1  6  0  0  0
 51 50  1  0  0  0  0
 51 53  1  0  0  0  0
 52 53  1  0  0  0  0
 53 48  1  6  0  0  0
M  END
>  <MODEL>
1

>  <REMARK>
 VINA RESULT:      -6.6      0.000      0.000
  Name = 
  15 active torsions:
  status: ('A' for Active; 'I' for Inactive)
    1  A    between atoms: C_10  and  N_32
    2  A    between atoms: C_14  and  C_47
    3  A    between atoms: N_15  and  S_52
    4  A    between atoms: N_15  and  C_53
    5  A    between atoms: C_20  and  C_39
    6  A    between atoms: C_20  and  O_44
    7  A    between atoms: C_26  and  S_52
    8  A    between atoms: C_27  and  C_33
    9  A    between atoms: C_27  and  C_34
   10  A    between atoms: C_33  and  N_38
   11  A    between atoms: C_39  and  C_53
   12  A    between atoms: C_40  and  C_41
   13  A    between atoms: C_40  and  C_48
   14  A    between atoms: O_44  and  C_49
   15  A    between atoms: C_48  and  N_51
                            x       y       z     vdW  Elec       q    Type
                         _______ _______ _______ _____ _____    ______ ____

>  <TORSDO>
F 15

$$$$
=
 OpenBabel11042418163D

 53 59  0  0  1  0  0  0  0  0999 V2000
  191.9370  173.5660  140.8880 N   0  0  0  0  0  0  0  0  0  0  0  0
  190.0340  173.7510  142.4670 C   0  0  0  0  0  0  0  0  0  0  0  0
  187.5880  173.6260  142.1570 C   0  0  0  0  0  1  0  0  0  0  0  0
  189.0580  173.9140  140.1530 C   0  0  0  0  0  3  0  0  0  0  0  0
  190.0580  173.5180  139.3740 C   0  0  0  0  0  3  0  0  0  0  0  0
  191.4310  173.9800  142.0100 C   0  0  0  0  0  3  0  0  0  0  0  0
  191.2240  172.7620  139.9060 C   0  0  1  0  0  3  0  0  0  0  0  0
  188.9780  173.7220  141.6150 C   0  0  0  0  0  0  0  0  0  0  0  0
  193.5860  172.7470  139.0600 C   0  0  0  0  0  2  0  0  0  0  0  0
  193.9200  173.7270  137.9980 C   0  0  0  0  0  0  0  0  0  0  0  0
  192.1470  172.3410  138.7600 C   0  0  2  0  0  3  0  0  0  0  0  0
  191.7620  172.9930  137.4280 C   0  0  0  0  0  2  0  0  0  0  0  0
  195.1080  174.3610  137.8450 C   0  0  2  0  0  3  0  0  0  0  0  0
  192.8510  173.8830  137.0830 N   0  0  0  0  0  0  0  0  0  0  0  0
  196.3620  176.9700  135.0110 S   0  0  0  0  0  0  0  0  0  0  0  0
  193.8380  178.0350  135.1220 C   0  0  0  0  0  1  0  0  0  0  0  0
  196.4600  175.8270  136.3780 C   0  0  0  0  0  3  0  0  0  0  0  0
  194.2130  175.8440  136.0210 O   0  0  0  0  0  0  0  0  0  0  0  0
  195.2830  175.3630  136.7590 C   0  0  0  0  0  0  0  0  0  0  0  0
  194.5530  176.7110  134.9520 C   0  0  2  0  0  3  0  0  0  0  0  0
  197.0980  173.1770  138.3980 O   0  0  0  0  0  0  0  0  0  0  0  0
  196.2850  174.0890  138.7190 C   0  0  0  0  0  0  0  0  0  0  0  0
  196.5360  174.8680  139.8940 N   0  0  0  0  0  0  0  0  0  0  0  0
  195.7630  174.8180  140.9350 C   0  0  0  0  0  3  0  0  0  0  0  0
  196.0800  175.6210  142.1460 C   0  0  0  0  0  2  0  0  0  0  0  0
  196.1080  174.7260  143.3670 C   0  0  0  0  0  2  0  0  0  0  0  0
  193.3060  174.5980  146.0590 C   0  0  0  0  0  2  0  0  0  0  0  0
  194.4310  174.1870  145.1610 C   0  0  0  0  0  0  0  0  0  0  0  0
  193.4200  176.0670  146.4640 C   0  0  0  0  0  2  0  0  0  0  0  0
  195.0230  176.5830  144.6400 C   0  0  0  0  0  2  0  0  0  0  0  0
  193.6620  176.9360  145.2370 C   0  0  0  0  0  2  0  0  0  0  0  0
  194.7280  172.9630  145.0850 O   0  0  0  0  0  0  0  0  0  0  0  0
  195.1030  175.1590  144.3310 N   0  0  0  0  0  0  0  0  0  0  0  0
  189.8890  174.6770  144.7540 C   0  0  0  0  0  0  0  0  0  0  0  0
  189.7540  173.7180  143.8820 N   0  0  0  0  0  0  0  0  0  0  0  0
  189.4940  174.4100  146.1690 C   0  0  0  0  0  2  0  0  0  0  0  0
  189.0630  175.6990  146.8360 C   0  0  0  0  0  2  0  0  0  0  0  0
  187.6190  175.6850  147.0100 N   0  0  0  0  0  2  0  0  0  0  0  0
  186.0100  177.5210  148.0710 O   0  0  0  0  0  0  0  0  0  0  0  0
  188.2250  178.2500  147.3090 O   0  0  0  0  0  0  0  0  0  0  0  0
  187.0680  177.3320  147.0170 S   0  0  0  0  0  0  0  0  0  0  0  0
  186.3010  179.1090  145.0110 C   0  0  0  0  0  3  0  0  0  0  0  0
  185.4880  176.9810  143.2600 C   0  0  0  0  0  2  0  0  0  0  0  0
  184.2990  178.3570  143.3000 S   0  0  0  0  0  0  0  0  0  0  0  0
  185.4840  179.4940  144.0320 C   0  0  0  0  0  3  0  0  0  0  0  0
  186.3910  177.7020  145.4410 C   0  0  0  0  0  0  0  0  0  0  0  0
  185.9930  176.7100  144.6410 C   0  0  0  0  0  3  0  0  0  0  0  0
  190.3970  175.9300  144.3900 O   0  0  0  0  0  0  0  0  0  0  0  0
  189.2410  178.5260  141.9770 O   0  0  0  0  0  0  0  0  0  0  0  0
  188.6580  177.2850  141.9770 C   0  0  0  0  0  2  0  0  0  0  0  0
  189.9970  177.5060  142.6150 C   0  0  1  0  0  0  0  0  0  0  0  0
  190.3390  178.2430  143.9170 C   0  0  0  0  0  2  0  0  0  0  0  0
  189.5550  177.0060  144.0030 C   0  0  2  0  0  3  0  0  0  0  0  0
  1  6  2  0  0  0  0
  2 35  1  0  0  0  0
  4  8  1  0  0  0  0
  5  4  2  0  0  0  0
  6  2  1  0  0  0  0
  7  5  1  6  0  0  0
  7  1  1  0  0  0  0
  8  3  1  0  0  0  0
  8  2  2  0  0  0  0
 10  9  1  0  0  0  0
 11 12  1  6  0  0  0
 11  9  1  0  0  0  0
 11  7  1  0  0  0  0
 13 10  1  0  0  0  0
 13 22  1  6  0  0  0
 14 12  1  0  0  0  0
 14 10  2  0  0  0  0
 15 17  1  0  0  0  0
 17 19  2  0  0  0  0
 18 19  1  0  0  0  0
 19 13  1  0  0  0  0
 20 15  1  0  0  0  0
 20 16  1  1  0  0  0
 20 18  1  0  0  0  0
 21 22  2  0  0  0  0
 22 23  1  0  0  0  0
 23 24  2  0  0  0  0
 24 25  1  0  0  0  0
 25 26  1  0  0  0  0
 26 33  1  0  0  0  0
 27 29  1  0  0  0  0
 28 27  1  0  0  0  0
 30 31  1  0  0  0  0
 31 29  1  0  0  0  0
 32 28  2  0  0  0  0
 33 30  1  0  0  0  0
 33 28  1  0  0  0  0
 34 36  1  0  0  0  0
 35 34  2  0  0  0  0
 36 37  1  0  0  0  0
 37 38  1  0  0  0  0
 38 41  1  0  0  0  0
 41 40  2  0  0  0  0
 41 39  2  0  0  0  0
 42 46  1  0  0  0  0
 43 44  1  0  0  0  0
 43 47  1  0  0  0  0
 44 45  1  0  0  0  0
 45 42  2  0  0  0  0
 46 41  1  0  0  0  0
 47 46  2  0  0  0  0
 48 34  1  0  0  0  0
 49 50  1  0  0  0  0
 49 51  1  0  0  0  0
 51 50  1  6  0  0  0
 51 52  1  0  0  0  0
 51 53  1  0  0  0  0
 52 53  1  0  0  0  0
 53 48  1  1  0  0  0
M  END
>  <MODEL>
2

>  <REMARK>
 VINA RESULT:      -6.4      2.487      4.127
  Name = 
  15 active torsions:
  status: ('A' for Active; 'I' for Inactive)
    1  A    between atoms: C_10  and  N_32
    2  A    between atoms: C_14  and  C_47
    3  A    between atoms: N_15  and  S_52
    4  A    between atoms: N_15  and  C_53
    5  A    between atoms: C_20  and  C_39
    6  A    between atoms: C_20  and  O_44
    7  A    between atoms: C_26  and  S_52
    8  A    between atoms: C_27  and  C_33
    9  A    between atoms: C_27  and  C_34
   10  A    between atoms: C_33  and  N_38
   11  A    between atoms: C_39  and  C_53
   12  A    between atoms: C_40  and  C_41
   13  A    between atoms: C_40  and  C_48
   14  A    between atoms: O_44  and  C_49
   15  A    between atoms: C_48  and  N_51
                            x       y       z     vdW  Elec       q    Type
                         _______ _______ _______ _____ _____    ______ ____

>  <TORSDO>
F 15

$$$$
=
 OpenBabel11042418163D

 53 59  0  0  1  0  0  0  0  0999 V2000
  191.2220  172.3280  142.0460 N   0  0  0  0  0  0  0  0  0  0  0  0
  189.8050  173.8990  143.3400 C   0  0  0  0  0  0  0  0  0  0  0  0
  187.9020  175.3390  142.7100 C   0  0  0  0  0  1  0  0  0  0  0  0
  189.3300  174.3480  140.9100 C   0  0  0  0  0  3  0  0  0  0  0  0
  189.8760  173.3040  140.2970 C   0  0  0  0  0  3  0  0  0  0  0  0
  191.0370  173.1120  143.0640 C   0  0  0  0  0  3  0  0  0  0  0  0
  190.2230  172.0530  141.0220 C   0  0  1  0  0  3  0  0  0  0  0  0
  189.0470  174.4460  142.3560 C   0  0  0  0  0  0  0  0  0  0  0  0
  192.1670  170.6230  140.3370 C   0  0  0  0  0  2  0  0  0  0  0  0
  192.9130  171.0470  139.1270 C   0  0  0  0  0  0  0  0  0  0  0  0
  190.7180  170.9920  140.0370 C   0  0  2  0  0  3  0  0  0  0  0  0
  190.6670  171.4730  138.5830 C   0  0  0  0  0  2  0  0  0  0  0  0
  194.2450  170.9100  138.9240 C   0  0  2  0  0  3  0  0  0  0  0  0
  192.0410  171.5620  138.1370 N   0  0  0  0  0  0  0  0  0  0  0  0
  195.9210  171.5690  135.2950 S   0  0  0  0  0  0  0  0  0  0  0  0
  196.7770  173.9640  136.3190 C   0  0  0  0  0  1  0  0  0  0  0  0
  195.2740  170.6570  136.6860 C   0  0  0  0  0  3  0  0  0  0  0  0
  195.0110  172.7890  137.4390 O   0  0  0  0  0  0  0  0  0  0  0  0
  194.8670  171.4310  137.6770 C   0  0  0  0  0  0  0  0  0  0  0  0
  195.5230  173.1300  136.1610 C   0  0  2  0  0  3  0  0  0  0  0  0
  195.2890  168.9780  139.8470 O   0  0  0  0  0  0  0  0  0  0  0  0
  195.1440  170.2320  139.9020 C   0  0  0  0  0  0  0  0  0  0  0  0
  195.8790  170.9770  140.8790 N   0  0  0  0  0  0  0  0  0  0  0  0
  195.4200  171.1930  142.0740 C   0  0  0  0  0  3  0  0  0  0  0  0
  196.2320  171.9460  143.0660 C   0  0  0  0  0  2  0  0  0  0  0  0
  197.4030  172.6120  142.3760 C   0  0  0  0  0  2  0  0  0  0  0  0
  196.9120  175.9670  140.4730 C   0  0  0  0  0  2  0  0  0  0  0  0
  197.0900  174.5080  140.7530 C   0  0  0  0  0  0  0  0  0  0  0  0
  196.1400  176.6630  141.5920 C   0  0  0  0  0  2  0  0  0  0  0  0
  196.5240  174.8050  143.1940 C   0  0  0  0  0  2  0  0  0  0  0  0
  196.7310  176.2990  142.9480 C   0  0  0  0  0  2  0  0  0  0  0  0
  197.3090  173.7280  139.7850 O   0  0  0  0  0  0  0  0  0  0  0  0
  197.1000  174.0150  142.1100 N   0  0  0  0  0  0  0  0  0  0  0  0
  190.2190  174.8560  145.5810 C   0  0  0  0  0  0  0  0  0  0  0  0
  189.4790  174.2380  144.7040 N   0  0  0  0  0  0  0  0  0  0  0  0
  189.6410  175.1290  146.9300 C   0  0  0  0  0  2  0  0  0  0  0  0
  188.2600  175.7320  146.7870 C   0  0  0  0  0  2  0  0  0  0  0  0
  188.3660  177.1820  146.8380 N   0  0  0  0  0  2  0  0  0  0  0  0
  185.9300  176.7560  147.8230 O   0  0  0  0  0  0  0  0  0  0  0  0
  186.9190  178.9780  148.1460 O   0  0  0  0  0  0  0  0  0  0  0  0
  186.7910  177.8200  147.1940 S   0  0  0  0  0  0  0  0  0  0  0  0
  184.6600  178.8360  145.7130 C   0  0  0  0  0  3  0  0  0  0  0  0
  186.1950  178.8680  143.2850 C   0  0  0  0  0  2  0  0  0  0  0  0
  184.5110  178.2190  143.0490 S   0  0  0  0  0  0  0  0  0  0  0  0
  183.9220  178.8990  144.6060 C   0  0  0  0  0  3  0  0  0  0  0  0
  186.0510  178.3530  145.6950 C   0  0  0  0  0  0  0  0  0  0  0  0
  186.7630  178.3430  144.5650 C   0  0  0  0  0  3  0  0  0  0  0  0
  191.5290  175.2520  145.2820 O   0  0  0  0  0  0  0  0  0  0  0  0
  195.0700  175.7160  146.3480 O   0  0  0  0  0  0  0  0  0  0  0  0
  194.1460  176.6970  146.6030 C   0  0  0  0  0  2  0  0  0  0  0  0
  193.8860  175.6440  145.5660 C   0  0  1  0  0  0  0  0  0  0  0  0
  193.5660  174.1550  145.7580 C   0  0  0  0  0  2  0  0  0  0  0  0
  192.5860  175.1440  146.2230 C   0  0  2  0  0  3  0  0  0  0  0  0
  1  6  2  0  0  0  0
  2 35  1  0  0  0  0
  4  8  1  0  0  0  0
  5  4  2  0  0  0  0
  6  2  1  0  0  0  0
  7  5  1  6  0  0  0
  7  1  1  0  0  0  0
  8  3  1  0  0  0  0
  8  2  2  0  0  0  0
 10  9  1  0  0  0  0
 11 12  1  6  0  0  0
 11  9  1  0  0  0  0
 11  7  1  0  0  0  0
 13 10  1  0  0  0  0
 13 22  1  6  0  0  0
 14 12  1  0  0  0  0
 14 10  2  0  0  0  0
 15 20  1  0  0  0  0
 15 17  1  0  0  0  0
 17 19  2  0  0  0  0
 18 19  1  0  0  0  0
 19 13  1  0  0  0  0
 20 16  1  1  0  0  0
 20 18  1  0  0  0  0
 21 22  2  0  0  0  0
 22 23  1  0  0  0  0
 23 24  2  0  0  0  0
 24 25  1  0  0  0  0
 26 25  1  0  0  0  0
 27 28  1  0  0  0  0
 27 29  1  0  0  0  0
 28 33  1  0  0  0  0
 29 31  1  0  0  0  0
 31 30  1  0  0  0  0
 32 28  2  0  0  0  0
 33 26  1  0  0  0  0
 33 30  1  0  0  0  0
 34 36  1  0  0  0  0
 35 34  2  0  0  0  0
 37 38  1  0  0  0  0
 37 36  1  0  0  0  0
 38 41  1  0  0  0  0
 41 39  2  0  0  0  0
 41 40  2  0  0  0  0
 43 47  1  0  0  0  0
 44 43  1  0  0  0  0
 44 45  1  0  0  0  0
 45 42  2  0  0  0  0
 46 42  1  0  0  0  0
 46 41  1  0  0  0  0
 47 46  2  0  0  0  0
 48 34  1  0  0  0  0
 49 50  1  0  0  0  0
 51 52  1  6  0  0  0
 51 53  1  0  0  0  0
 51 49  1  0  0  0  0
 51 50  1  0  0  0  0
 52 53  1  0  0  0  0
 53 48  1  6  0  0  0
M  END
>  <MODEL>
3

>  <REMARK>
 VINA RESULT:      -6.3      2.265      3.896
  Name = 
  15 active torsions:
  status: ('A' for Active; 'I' for Inactive)
    1  A    between atoms: C_10  and  N_32
    2  A    between atoms: C_14  and  C_47
    3  A    between atoms: N_15  and  S_52
    4  A    between atoms: N_15  and  C_53
    5  A    between atoms: C_20  and  C_39
    6  A    between atoms: C_20  and  O_44
    7  A    between atoms: C_26  and  S_52
    8  A    between atoms: C_27  and  C_33
    9  A    between atoms: C_27  and  C_34
   10  A    between atoms: C_33  and  N_38
   11  A    between atoms: C_39  and  C_53
   12  A    between atoms: C_40  and  C_41
   13  A    between atoms: C_40  and  C_48
   14  A    between atoms: O_44  and  C_49
   15  A    between atoms: C_48  and  N_51
                            x       y       z     vdW  Elec       q    Type
                         _______ _______ _______ _____ _____    ______ ____

>  <TORSDO>
F 15

$$$$
=
 OpenBabel11042418163D

 53 59  0  0  1  0  0  0  0  0999 V2000
  189.6410  171.7540  142.4680 N   0  0  0  0  0  0  0  0  0  0  0  0
  190.7300  172.7070  144.4820 C   0  0  0  0  0  0  0  0  0  0  0  0
  193.0880  173.1630  145.0480 C   0  0  0  0  0  1  0  0  0  0  0  0
  192.5660  171.6930  143.0920 C   0  0  0  0  0  3  0  0  0  0  0  0
  191.9750  171.4740  141.9230 C   0  0  0  0  0  3  0  0  0  0  0  0
  189.6410  172.0170  143.7390 C   0  0  0  0  0  3  0  0  0  0  0  0
  190.7000  172.1380  141.5440 C   0  0  1  0  0  3  0  0  0  0  0  0
  192.0420  172.5510  144.1750 C   0  0  0  0  0  0  0  0  0  0  0  0
  191.5720  171.7960  139.2170 C   0  0  0  0  0  2  0  0  0  0  0  0
  191.3220  172.8880  138.2450 C   0  0  0  0  0  0  0  0  0  0  0  0
  190.3290  171.7870  140.1010 C   0  0  2  0  0  3  0  0  0  0  0  0
  189.3350  172.7820  139.4940 C   0  0  0  0  0  3  0  0  0  0  0  0
  192.1520  173.2660  137.2430 C   0  0  0  0  0  0  0  0  0  0  0  0
  190.0450  173.4670  138.4340 N   0  0  0  0  0  0  0  0  0  0  0  0
  191.8600  176.7130  135.1350 S   0  0  0  0  0  0  0  0  0  0  0  0
  189.1950  176.1240  134.8740 C   0  0  0  0  0  1  0  0  0  0  0  0
  192.4990  175.5350  136.3130 C   0  0  0  0  0  3  0  0  0  0  0  0
  190.7120  174.3780  135.5060 O   0  0  0  0  0  0  0  0  0  0  0  0
  191.7940  174.4190  136.3730 C   0  0  0  0  0  0  0  0  0  0  0  0
  190.5640  175.5110  134.6670 C   0  0  2  0  0  3  0  0  0  0  0  0
  193.4210  171.5380  136.2060 O   0  0  0  0  0  0  0  0  0  0  0  0
  193.4330  172.5610  136.9470 C   0  0  0  0  0  0  0  0  0  0  0  0
  194.6830  173.0420  137.4520 N   0  0  0  0  0  0  0  0  0  0  0  0
  194.8630  173.3140  138.7080 C   0  0  0  0  0  3  0  0  0  0  0  0
  196.1880  173.7820  139.1940 C   0  0  0  0  0  2  0  0  0  0  0  0
  196.1050  175.2400  139.5940 C   0  0  0  0  0  2  0  0  0  0  0  0
  195.5020  175.6810  143.4090 C   0  0  0  0  0  2  0  0  0  0  0  0
  195.2640  175.4000  141.9590 C   0  0  0  0  0  0  0  0  0  0  0  0
  196.9180  175.2930  143.8320 C   0  0  0  0  0  2  0  0  0  0  0  0
  197.7360  175.2090  141.4890 C   0  0  0  0  0  2  0  0  0  0  0  0
  197.9360  175.8650  142.8540 C   0  0  0  0  0  2  0  0  0  0  0  0
  194.0770  175.2560  141.5560 O   0  0  0  0  0  0  0  0  0  0  0  0
  196.3640  175.3850  141.0230 N   0  0  0  0  0  0  0  0  0  0  0  0
  189.7940  174.5930  145.7780 C   0  0  0  0  0  0  0  0  0  0  0  0
  190.4050  173.4460  145.6780 N   0  0  0  0  0  0  0  0  0  0  0  0
  189.5370  175.1430  147.1420 C   0  0  0  0  0  2  0  0  0  0  0  0
  188.1260  175.6880  147.2190 C   0  0  0  0  0  2  0  0  0  0  0  0
  188.1540  177.1190  146.9620 N   0  0  0  0  0  2  0  0  0  0  0  0
  185.5730  176.6570  147.4200 O   0  0  0  0  0  0  0  0  0  0  0  0
  186.3530  178.9800  147.5350 O   0  0  0  0  0  0  0  0  0  0  0  0
  186.5130  177.6670  146.8160 S   0  0  0  0  0  0  0  0  0  0  0  0
  185.8640  179.2140  144.5910 C   0  0  0  0  0  3  0  0  0  0  0  0
  185.8970  176.9380  142.8390 C   0  0  0  0  0  2  0  0  0  0  0  0
  184.4770  178.0360  142.5440 S   0  0  0  0  0  0  0  0  0  0  0  0
  185.2210  179.4060  143.4400 C   0  0  0  0  0  3  0  0  0  0  0  0
  186.1370  177.8640  145.1140 C   0  0  0  0  0  0  0  0  0  0  0  0
  186.1310  176.7990  144.3090 C   0  0  0  0  0  3  0  0  0  0  0  0
  189.3910  175.3070  144.6430 O   0  0  0  0  0  0  0  0  0  0  0  0
  190.3260  178.2960  142.6210 O   0  0  0  0  0  0  0  0  0  0  0  0
  190.5690  178.2810  143.9700 C   0  0  0  0  0  2  0  0  0  0  0  0
  189.5850  177.3310  143.3540 C   0  0  1  0  0  0  0  0  0  0  0  0
  189.8480  176.1060  142.4670 C   0  0  0  0  0  2  0  0  0  0  0  0
  190.3020  176.0660  143.8610 C   0  0  2  0  0  3  0  0  0  0  0  0
  1  6  2  0  0  0  0
  2 35  1  0  0  0  0
  4  8  1  0  0  0  0
  5  4  2  0  0  0  0
  6  2  1  0  0  0  0
  7  5  1  1  0  0  0
  7  1  1  0  0  0  0
  8  2  2  0  0  0  0
  8  3  1  0  0  0  0
 10 14  1  0  0  0  0
 10  9  1  0  0  0  0
 11  9  1  6  0  0  0
 11  7  1  0  0  0  0
 12 11  1  0  0  0  0
 13 10  2  0  0  0  0
 14 12  2  0  0  0  0
 15 17  1  0  0  0  0
 17 19  2  0  0  0  0
 18 19  1  0  0  0  0
 19 13  1  0  0  0  0
 20 16  1  1  0  0  0
 20 15  1  0  0  0  0
 20 18  1  0  0  0  0
 21 22  2  0  0  0  0
 22 13  1  0  0  0  0
 22 23  1  0  0  0  0
 23 24  2  0  0  0  0
 24 25  1  0  0  0  0
 25 26  1  0  0  0  0
 26 33  1  0  0  0  0
 27 29  1  0  0  0  0
 28 27  1  0  0  0  0
 30 31  1  0  0  0  0
 31 29  1  0  0  0  0
 32 28  2  0  0  0  0
 33 30  1  0  0  0  0
 33 28  1  0  0  0  0
 34 36  1  0  0  0  0
 35 34  2  0  0  0  0
 36 37  1  0  0  0  0
 38 37  1  0  0  0  0
 41 38  1  0  0  0  0
 41 39  2  0  0  0  0
 41 40  2  0  0  0  0
 42 46  1  0  0  0  0
 43 47  1  0  0  0  0
 44 43  1  0  0  0  0
 44 45  1  0  0  0  0
 45 42  2  0  0  0  0
 46 41  1  0  0  0  0
 47 46  2  0  0  0  0
 48 34  1  0  0  0  0
 49 51  1  0  0  0  0
 49 50  1  0  0  0  0
 51 52  1  1  0  0  0
 51 53  1  0  0  0  0
 51 50  1  0  0  0  0
 52 53  1  0  0  0  0
 53 48  1  1  0  0  0
M  END
>  <MODEL>
4

>  <REMARK>
 VINA RESULT:      -6.3      1.784      2.425
  Name = 
  15 active torsions:
  status: ('A' for Active; 'I' for Inactive)
    1  A    between atoms: C_10  and  N_32
    2  A    between atoms: C_14  and  C_47
    3  A    between atoms: N_15  and  S_52
    4  A    between atoms: N_15  and  C_53
    5  A    between atoms: C_20  and  C_39
    6  A    between atoms: C_20  and  O_44
    7  A    between atoms: C_26  and  S_52
    8  A    between atoms: C_27  and  C_33
    9  A    between atoms: C_27  and  C_34
   10  A    between atoms: C_33  and  N_38
   11  A    between atoms: C_39  and  C_53
   12  A    between atoms: C_40  and  C_41
   13  A    between atoms: C_40  and  C_48
   14  A    between atoms: O_44  and  C_49
   15  A    between atoms: C_48  and  N_51
                            x       y       z     vdW  Elec       q    Type
                         _______ _______ _______ _____ _____    ______ ____

>  <TORSDO>
F 15

$$$$
=
 OpenBabel11042418163D

 53 59  0  0  1  0  0  0  0  0999 V2000
  192.0260  175.3620  143.8000 N   0  0  0  0  0  0  0  0  0  0  0  0
  194.4790  175.3920  144.1650 C   0  0  0  0  0  0  0  0  0  0  0  0
  195.8810  174.9130  146.1380 C   0  0  0  0  0  1  0  0  0  0  0  0
  193.4220  175.2610  146.4450 C   0  0  0  0  0  3  0  0  0  0  0  0
  192.1590  174.9530  146.1750 C   0  0  0  0  0  3  0  0  0  0  0  0
  193.2140  175.7780  143.4830 C   0  0  0  0  0  3  0  0  0  0  0  0
  191.7420  174.4020  144.8580 C   0  0  1  0  0  3  0  0  0  0  0  0
  194.5530  175.1610  145.4990 C   0  0  0  0  0  0  0  0  0  0  0  0
  189.5980  174.3780  143.5540 C   0  0  0  0  0  2  0  0  0  0  0  0
  188.5980  175.4180  143.8970 C   0  0  0  0  0  0  0  0  0  0  0  0
  190.2560  174.0330  144.8860 C   0  0  2  0  0  3  0  0  0  0  0  0
  189.4870  174.7850  145.9780 C   0  0  0  0  0  3  0  0  0  0  0  0
  187.7540  176.0280  143.0300 C   0  0  0  0  0  0  0  0  0  0  0  0
  188.5660  175.6650  145.2910 N   0  0  0  0  0  0  0  0  0  0  0  0
  185.7550  179.4250  143.9620 S   0  0  0  0  0  0  0  0  0  0  0  0
  184.5140  177.9530  145.9140 C   0  0  0  0  0  1  0  0  0  0  0  0
  187.0630  178.3850  143.3370 C   0  0  0  0  0  3  0  0  0  0  0  0
  185.6290  176.8050  144.1280 O   0  0  0  0  0  0  0  0  0  0  0  0
  186.8350  177.0950  143.5100 C   0  0  0  0  0  0  0  0  0  0  0  0
  184.8170  177.9270  144.4300 C   0  0  2  0  0  3  0  0  0  0  0  0
  187.3910  176.5540  140.7360 O   0  0  0  0  0  0  0  0  0  0  0  0
  187.6820  175.6650  141.5850 C   0  0  0  0  0  0  0  0  0  0  0  0
  187.9750  174.3380  141.1350 N   0  0  0  0  0  0  0  0  0  0  0  0
  188.2520  174.0740  139.8950 C   0  0  0  0  0  3  0  0  0  0  0  0
  188.5800  172.6850  139.4770 C   0  0  0  0  0  2  0  0  0  0  0  0
  190.0370  172.5970  139.0760 C   0  0  0  0  0  2  0  0  0  0  0  0
  192.6880  172.4070  141.9140 C   0  0  0  0  0  2  0  0  0  0  0  0
  191.7700  172.9500  140.8650 C   0  0  0  0  0  0  0  0  0  0  0  0
  192.1030  171.1640  142.5840 C   0  0  0  0  0  2  0  0  0  0  0  0
  190.4480  170.8030  140.7680 C   0  0  0  0  0  2  0  0  0  0  0  0
  191.6150  170.1780  141.5310 C   0  0  0  0  0  2  0  0  0  0  0  0
  191.8820  174.1620  140.5300 O   0  0  0  0  0  0  0  0  0  0  0  0
  190.8350  172.0840  140.1850 N   0  0  0  0  0  0  0  0  0  0  0  0
  196.3010  174.4380  142.7940 C   0  0  0  0  0  0  0  0  0  0  0  0
  195.7140  175.4190  143.4200 N   0  0  0  0  0  0  0  0  0  0  0  0
  197.5660  174.7230  142.0550 C   0  0  0  0  0  2  0  0  0  0  0  0
  197.2770  175.6100  140.8620 C   0  0  0  0  0  2  0  0  0  0  0  0
  197.3800  174.8190  139.6450 N   0  0  0  0  0  2  0  0  0  0  0  0
  194.8070  175.4890  139.7740 O   0  0  0  0  0  0  0  0  0  0  0  0
  195.8270  175.3040  137.5500 O   0  0  0  0  0  0  0  0  0  0  0  0
  195.7970  174.7210  138.9390 S   0  0  0  0  0  0  0  0  0  0  0  0
  196.1080  172.0340  139.6080 C   0  0  0  0  0  3  0  0  0  0  0  0
  193.7400  171.2700  138.1710 C   0  0  0  0  0  2  0  0  0  0  0  0
  195.1370  170.1400  137.8840 S   0  0  0  0  0  0  0  0  0  0  0  0
  196.0450  170.7360  139.3180 C   0  0  0  0  0  3  0  0  0  0  0  0
  195.3170  173.0350  138.8720 C   0  0  0  0  0  0  0  0  0  0  0  0
  194.2290  172.6830  138.1830 C   0  0  0  0  0  3  0  0  0  0  0  0
  195.7740  173.1400  142.8130 O   0  0  0  0  0  0  0  0  0  0  0  0
  196.3910  169.9100  144.5670 O   0  0  0  0  0  0  0  0  0  0  0  0
  195.8120  169.9120  143.3240 C   0  0  0  0  0  2  0  0  0  0  0  0
  195.8290  171.1520  144.1680 C   0  0  1  0  0  0  0  0  0  0  0  0
  197.0090  172.0690  144.5180 C   0  0  0  0  0  2  0  0  0  0  0  0
  196.5680  172.0040  143.1200 C   0  0  2  0  0  3  0  0  0  0  0  0
  1  7  1  0  0  0  0
  2  8  2  0  0  0  0
  5  4  2  0  0  0  0
  6  1  2  0  0  0  0
  6  2  1  0  0  0  0
  7 11  1  0  0  0  0
  7  5  1  1  0  0  0
  8  3  1  0  0  0  0
  8  4  1  0  0  0  0
  9 10  1  0  0  0  0
 10 14  1  0  0  0  0
 11  9  1  6  0  0  0
 11 12  1  0  0  0  0
 13 19  1  0  0  0  0
 13 10  2  0  0  0  0
 14 12  2  0  0  0  0
 15 20  1  0  0  0  0
 17 19  2  0  0  0  0
 17 15  1  0  0  0  0
 18 20  1  0  0  0  0
 19 18  1  0  0  0  0
 20 16  1  1  0  0  0
 21 22  2  0  0  0  0
 22 13  1  0  0  0  0
 23 22  1  0  0  0  0
 24 23  2  0  0  0  0
 25 24  1  0  0  0  0
 26 25  1  0  0  0  0
 26 33  1  0  0  0  0
 27 29  1  0  0  0  0
 28 27  1  0  0  0  0
 30 31  1  0  0  0  0
 31 29  1  0  0  0  0
 32 28  2  0  0  0  0
 33 30  1  0  0  0  0
 33 28  1  0  0  0  0
 34 48  1  0  0  0  0
 34 35  2  0  0  0  0
 35  2  1  0  0  0  0
 36 34  1  0  0  0  0
 37 36  1  0  0  0  0
 38 37  1  0  0  0  0
 40 41  2  0  0  0  0
 41 38  1  0  0  0  0
 41 39  2  0  0  0  0
 43 47  1  0  0  0  0
 44 43  1  0  0  0  0
 44 45  1  0  0  0  0
 45 42  2  0  0  0  0
 46 41  1  0  0  0  0
 46 42  1  0  0  0  0
 47 46  2  0  0  0  0
 50 49  1  0  0  0  0
 51 50  1  1  0  0  0
 51 52  1  0  0  0  0
 51 49  1  0  0  0  0
 53 48  1  1  0  0  0
 53 51  1  0  0  0  0
 53 52  1  0  0  0  0
M  END
>  <MODEL>
5

>  <REMARK>
 VINA RESULT:      -6.1      2.631      8.674
  Name = 
  15 active torsions:
  status: ('A' for Active; 'I' for Inactive)
    1  A    between atoms: C_10  and  N_32
    2  A    between atoms: C_14  and  C_47
    3  A    between atoms: N_15  and  S_52
    4  A    between atoms: N_15  and  C_53
    5  A    between atoms: C_20  and  C_39
    6  A    between atoms: C_20  and  O_44
    7  A    between atoms: C_26  and  S_52
    8  A    between atoms: C_27  and  C_33
    9  A    between atoms: C_27  and  C_34
   10  A    between atoms: C_33  and  N_38
   11  A    between atoms: C_39  and  C_53
   12  A    between atoms: C_40  and  C_41
   13  A    between atoms: C_40  and  C_48
   14  A    between atoms: O_44  and  C_49
   15  A    between atoms: C_48  and  N_51
                            x       y       z     vdW  Elec       q    Type
                         _______ _______ _______ _____ _____    ______ ____

>  <TORSDO>
F 15

$$$$
=
 OpenBabel11042418163D

 53 59  0  0  1  0  0  0  0  0999 V2000
  191.1850  172.9680  140.3910 N   0  0  0  0  0  0  0  0  0  0  0  0
  189.6520  173.5740  142.2440 C   0  0  0  0  0  0  0  0  0  0  0  0
  187.3100  174.3510  142.2880 C   0  0  0  0  0  1  0  0  0  0  0  0
  188.5680  174.3940  140.1260 C   0  0  0  0  0  3  0  0  0  0  0  0
  189.2710  173.7920  139.1740 C   0  0  0  0  0  3  0  0  0  0  0  0
  190.9820  173.3670  141.6100 C   0  0  0  0  0  3  0  0  0  0  0  0
  190.1310  172.6110  139.4520 C   0  0  1  0  0  3  0  0  0  0  0  0
  188.5760  174.0350  141.5590 C   0  0  0  0  0  0  0  0  0  0  0  0
  192.0490  171.3740  138.4100 C   0  0  0  0  0  2  0  0  0  0  0  0
  193.0370  172.1860  137.6590 C   0  0  0  0  0  0  0  0  0  0  0  0
  190.7150  172.0630  138.1470 C   0  0  2  0  0  3  0  0  0  0  0  0
  190.9720  173.1650  137.1130 C   0  0  0  0  0  2  0  0  0  0  0  0
  194.3690  171.9500  137.5840 C   0  0  2  0  0  3  0  0  0  0  0  0
  192.4080  173.2320  136.9420 N   0  0  0  0  0  0  0  0  0  0  0  0
  196.6690  173.9820  134.9390 S   0  0  0  0  0  0  0  0  0  0  0  0
  197.7200  175.2780  137.1150 C   0  0  0  0  0  1  0  0  0  0  0  0
  195.6800  172.6540  135.6050 C   0  0  0  0  0  3  0  0  0  0  0  0
  195.6400  174.1080  137.3550 O   0  0  0  0  0  0  0  0  0  0  0  0
  195.2500  172.8840  136.8330 C   0  0  0  0  0  0  0  0  0  0  0  0
  196.3910  174.9310  136.4770 C   0  0  2  0  0  3  0  0  0  0  0  0
  195.0250  169.6610  137.6000 O   0  0  0  0  0  0  0  0  0  0  0  0
  195.0150  170.7640  138.2170 C   0  0  0  0  0  0  0  0  0  0  0  0
  195.6590  170.8580  139.4920 N   0  0  0  0  0  0  0  0  0  0  0  0
  194.9910  170.9820  140.5970 C   0  0  0  0  0  3  0  0  0  0  0  0
  195.7010  171.0450  141.9010 C   0  0  0  0  0  2  0  0  0  0  0  0
  196.6310  172.2390  141.9260 C   0  0  0  0  0  2  0  0  0  0  0  0
  196.3440  175.0580  144.5880 C   0  0  0  0  0  2  0  0  0  0  0  0
  196.2950  174.3310  143.2810 C   0  0  0  0  0  0  0  0  0  0  0  0
  196.0350  174.1280  145.7600 C   0  0  0  0  0  2  0  0  0  0  0  0
  196.4400  172.0810  144.4130 C   0  0  0  0  0  2  0  0  0  0  0  0
  196.8680  172.8560  145.6590 C   0  0  0  0  0  2  0  0  0  0  0  0
  196.1020  174.9950  142.2250 O   0  0  0  0  0  0  0  0  0  0  0  0
  196.5540  172.9110  143.2190 N   0  0  0  0  0  0  0  0  0  0  0  0
  189.9900  174.2260  144.6040 C   0  0  0  0  0  0  0  0  0  0  0  0
  189.5280  173.4380  143.6750 N   0  0  0  0  0  0  0  0  0  0  0  0
  189.6970  173.8910  146.0290 C   0  0  0  0  0  2  0  0  0  0  0  0
  189.5950  175.1620  146.8470 C   0  0  0  0  0  2  0  0  0  0  0  0
  188.1980  175.5550  146.9430 N   0  0  0  0  0  2  0  0  0  0  0  0
  187.1990  177.9580  147.5020 O   0  0  0  0  0  0  0  0  0  0  0  0
  189.4610  177.8560  146.5580 O   0  0  0  0  0  0  0  0  0  0  0  0
  188.0890  177.2370  146.5250 S   0  0  0  0  0  0  0  0  0  0  0  0
  188.3170  177.5110  143.7600 C   0  0  0  0  0  3  0  0  0  0  0  0
  185.4740  177.3420  143.3810 C   0  0  0  0  0  2  0  0  0  0  0  0
  186.2430  178.6590  142.3890 S   0  0  0  0  0  0  0  0  0  0  0  0
  187.8970  177.9830  142.5880 C   0  0  0  0  0  3  0  0  0  0  0  0
  187.4090  177.3710  144.9130 C   0  0  0  0  0  0  0  0  0  0  0  0
  186.0860  177.3150  144.7450 C   0  0  0  0  0  3  0  0  0  0  0  0
  190.7530  175.3580  144.2890 O   0  0  0  0  0  0  0  0  0  0  0  0
  193.8270  177.1420  145.4110 O   0  0  0  0  0  0  0  0  0  0  0  0
  193.0940  176.4130  146.3120 C   0  0  0  0  0  2  0  0  0  0  0  0
  192.4960  176.8540  145.0080 C   0  0  1  0  0  0  0  0  0  0  0  0
  192.7830  176.3420  143.5900 C   0  0  0  0  0  2  0  0  0  0  0  0
  192.1480  175.4270  144.5450 C   0  0  2  0  0  3  0  0  0  0  0  0
  1  6  2  0  0  0  0
  2 35  1  0  0  0  0
  4  8  1  0  0  0  0
  5  4  2  0  0  0  0
  6  2  1  0  0  0  0
  7  5  1  6  0  0  0
  7  1  1  0  0  0  0
  8  2  2  0  0  0  0
  8  3  1  0  0  0  0
 10  9  1  0  0  0  0
 11 12  1  6  0  0  0
 11  9  1  0  0  0  0
 11  7  1  0  0  0  0
 13 10  1  0  0  0  0
 13 22  1  6  0  0  0
 14 12  1  0  0  0  0
 14 10  2  0  0  0  0
 15 17  1  0  0  0  0
 15 20  1  0  0  0  0
 17 19  2  0  0  0  0
 19 18  1  0  0  0  0
 19 13  1  0  0  0  0
 20 16  1  1  0  0  0
 20 18  1  0  0  0  0
 21 22  2  0  0  0  0
 22 23  1  0  0  0  0
 23 24  2  0  0  0  0
 24 25  1  0  0  0  0
 25 26  1  0  0  0  0
 26 33  1  0  0  0  0
 27 29  1  0  0  0  0
 28 27  1  0  0  0  0
 30 31  1  0  0  0  0
 31 29  1  0  0  0  0
 32 28  2  0  0  0  0
 33 28  1  0  0  0  0
 33 30  1  0  0  0  0
 34 36  1  0  0  0  0
 35 34  2  0  0  0  0
 36 37  1  0  0  0  0
 37 38  1  0  0  0  0
 41 40  2  0  0  0  0
 41 38  1  0  0  0  0
 41 39  2  0  0  0  0
 42 46  1  0  0  0  0
 43 47  1  0  0  0  0
 44 45  1  0  0  0  0
 44 43  1  0  0  0  0
 45 42  2  0  0  0  0
 46 41  1  0  0  0  0
 47 46  2  0  0  0  0
 48 34  1  0  0  0  0
 49 50  1  0  0  0  0
 51 52  1  6  0  0  0
 51 49  1  0  0  0  0
 51 50  1  0  0  0  0
 52 53  1  0  0  0  0
 53 48  1  6  0  0  0
 53 51  1  0  0  0  0
M  END
>  <MODEL>
6

>  <REMARK>
 VINA RESULT:      -6.1      2.464      4.332
  Name = 
  15 active torsions:
  status: ('A' for Active; 'I' for Inactive)
    1  A    between atoms: C_10  and  N_32
    2  A    between atoms: C_14  and  C_47
    3  A    between atoms: N_15  and  S_52
    4  A    between atoms: N_15  and  C_53
    5  A    between atoms: C_20  and  C_39
    6  A    between atoms: C_20  and  O_44
    7  A    between atoms: C_26  and  S_52
    8  A    between atoms: C_27  and  C_33
    9  A    between atoms: C_27  and  C_34
   10  A    between atoms: C_33  and  N_38
   11  A    between atoms: C_39  and  C_53
   12  A    between atoms: C_40  and  C_41
   13  A    between atoms: C_40  and  C_48
   14  A    between atoms: O_44  and  C_49
   15  A    between atoms: C_48  and  N_51
                            x       y       z     vdW  Elec       q    Type
                         _______ _______ _______ _____ _____    ______ ____

>  <TORSDO>
F 15

$$$$
=
 OpenBabel11042418163D

 53 59  0  0  1  0  0  0  0  0999 V2000
  191.6510  173.2310  141.3050 N   0  0  0  0  0  0  0  0  0  0  0  0
  189.8070  174.1720  142.6700 C   0  0  0  0  0  0  0  0  0  0  0  0
  187.4490  174.6910  142.1620 C   0  0  0  0  0  1  0  0  0  0  0  0
  189.0360  174.2570  140.2770 C   0  0  0  0  0  3  0  0  0  0  0  0
  189.9160  173.4870  139.6480 C   0  0  0  0  0  3  0  0  0  0  0  0
  191.2320  173.9310  142.3150 C   0  0  0  0  0  3  0  0  0  0  0  0
  190.7850  172.5230  140.3730 C   0  0  1  0  0  3  0  0  0  0  0  0
  188.8320  174.3140  141.7390 C   0  0  0  0  0  0  0  0  0  0  0  0
  193.0950  171.8870  139.6270 C   0  0  0  0  0  2  0  0  0  0  0  0
  193.5950  172.5290  138.3870 C   0  0  0  0  0  0  0  0  0  0  0  0
  191.6020  171.6960  139.3780 C   0  0  2  0  0  3  0  0  0  0  0  0
  191.3320  172.0960  137.9230 C   0  0  0  0  0  2  0  0  0  0  0  0
  194.8780  172.8840  138.1360 C   0  0  2  0  0  3  0  0  0  0  0  0
  192.5640  172.6720  137.4270 N   0  0  0  0  0  0  0  0  0  0  0  0
  196.2300  174.0880  134.5130 S   0  0  0  0  0  0  0  0  0  0  0  0
  195.6150  176.6340  135.3240 C   0  0  0  0  0  1  0  0  0  0  0  0
  196.0550  173.0670  135.9660 C   0  0  0  0  0  3  0  0  0  0  0  0
  194.6520  174.7790  136.4990 O   0  0  0  0  0  0  0  0  0  0  0  0
  195.2270  173.5710  136.8640 C   0  0  0  0  0  0  0  0  0  0  0  0
  195.0050  175.2530  135.2100 C   0  0  2  0  0  3  0  0  0  0  0  0
  196.7660  171.6270  138.8610 O   0  0  0  0  0  0  0  0  0  0  0  0
  195.9930  172.6000  139.0860 C   0  0  0  0  0  0  0  0  0  0  0  0
  196.2310  173.4330  140.2260 N   0  0  0  0  0  0  0  0  0  0  0  0
  197.4170  173.8540  140.5390 C   0  0  0  0  0  3  0  0  0  0  0  0
  197.6130  174.7420  141.7150 C   0  0  0  0  0  2  0  0  0  0  0  0
  196.3140  174.8790  142.4810 C   0  0  0  0  0  2  0  0  0  0  0  0
  195.4160  172.2150  145.1660 C   0  0  0  0  0  2  0  0  0  0  0  0
  195.4700  172.9590  143.8690 C   0  0  0  0  0  0  0  0  0  0  0  0
  196.7350  172.3200  145.9300 C   0  0  0  0  0  2  0  0  0  0  0  0
  197.5110  174.2580  144.5860 C   0  0  0  0  0  2  0  0  0  0  0  0
  197.1910  173.7720  145.9980 C   0  0  0  0  0  2  0  0  0  0  0  0
  194.6670  172.6370  142.9510 O   0  0  0  0  0  0  0  0  0  0  0  0
  196.3630  174.0820  143.7020 N   0  0  0  0  0  0  0  0  0  0  0  0
  190.2010  174.9540  144.9820 C   0  0  0  0  0  0  0  0  0  0  0  0
  189.4610  174.4270  144.0480 N   0  0  0  0  0  0  0  0  0  0  0  0
  189.6010  175.1540  146.3350 C   0  0  0  0  0  2  0  0  0  0  0  0
  188.2520  175.8300  146.2050 C   0  0  0  0  0  2  0  0  0  0  0  0
  188.3640  177.2070  146.6600 N   0  0  0  0  0  2  0  0  0  0  0  0
  185.9000  176.6960  147.5260 O   0  0  0  0  0  0  0  0  0  0  0  0
  186.8220  178.9280  147.9620 O   0  0  0  0  0  0  0  0  0  0  0  0
  186.7610  177.7980  146.9680 S   0  0  0  0  0  0  0  0  0  0  0  0
  184.7230  178.9530  145.4590 C   0  0  0  0  0  3  0  0  0  0  0  0
  186.2680  178.8300  143.0410 C   0  0  0  0  0  2  0  0  0  0  0  0
  184.5410  178.3090  142.8040 S   0  0  0  0  0  0  0  0  0  0  0  0
  183.9980  179.0560  144.3470 C   0  0  0  0  0  3  0  0  0  0  0  0
  186.0730  178.3640  145.4570 C   0  0  0  0  0  0  0  0  0  0  0  0
  186.7880  178.2820  144.3320 C   0  0  0  0  0  3  0  0  0  0  0  0
  191.5310  175.3210  144.7410 O   0  0  0  0  0  0  0  0  0  0  0  0
  194.8550  176.0710  146.2520 O   0  0  0  0  0  0  0  0  0  0  0  0
  194.2720  176.9750  145.4000 C   0  0  0  0  0  2  0  0  0  0  0  0
  193.8280  175.5420  145.4250 C   0  0  1  0  0  0  0  0  0  0  0  0
  193.0210  174.7970  146.4980 C   0  0  0  0  0  2  0  0  0  0  0  0
  192.3600  175.8740  145.7520 C   0  0  2  0  0  3  0  0  0  0  0  0
  1  6  2  0  0  0  0
  2 35  1  0  0  0  0
  4  8  1  0  0  0  0
  5  4  2  0  0  0  0
  6  2  1  0  0  0  0
  7  5  1  6  0  0  0
  7  1  1  0  0  0  0
  8  3  1  0  0  0  0
  8  2  2  0  0  0  0
 10  9  1  0  0  0  0
 11 12  1  6  0  0  0
 11  9  1  0  0  0  0
 11  7  1  0  0  0  0
 13 10  1  0  0  0  0
 13 22  1  6  0  0  0
 14 12  1  0  0  0  0
 14 10  2  0  0  0  0
 15 20  1  0  0  0  0
 15 17  1  0  0  0  0
 17 19  2  0  0  0  0
 18 19  1  0  0  0  0
 19 13  1  0  0  0  0
 20 16  1  1  0  0  0
 20 18  1  0  0  0  0
 21 22  2  0  0  0  0
 22 23  1  0  0  0  0
 23 24  2  0  0  0  0
 24 25  1  0  0  0  0
 25 26  1  0  0  0  0
 26 33  1  0  0  0  0
 27 29  1  0  0  0  0
 28 27  1  0  0  0  0
 29 31  1  0  0  0  0
 30 31  1  0  0  0  0
 32 28  2  0  0  0  0
 33 28  1  0  0  0  0
 33 30  1  0  0  0  0
 34 36  1  0  0  0  0
 35 34  2  0  0  0  0
 37 36  1  0  0  0  0
 37 38  1  0  0  0  0
 38 41  1  0  0  0  0
 41 39  2  0  0  0  0
 41 40  2  0  0  0  0
 43 47  1  0  0  0  0
 44 43  1  0  0  0  0
 44 45  1  0  0  0  0
 45 42  2  0  0  0  0
 46 42  1  0  0  0  0
 46 41  1  0  0  0  0
 47 46  2  0  0  0  0
 48 34  1  0  0  0  0
 50 49  1  0  0  0  0
 51 50  1  6  0  0  0
 51 53  1  0  0  0  0
 51 49  1  0  0  0  0
 51 52  1  0  0  0  0
 53 48  1  6  0  0  0
 53 52  1  0  0  0  0
M  END
>  <MODEL>
7

>  <REMARK>
 VINA RESULT:      -6.0      2.446      4.207
  Name = 
  15 active torsions:
  status: ('A' for Active; 'I' for Inactive)
    1  A    between atoms: C_10  and  N_32
    2  A    between atoms: C_14  and  C_47
    3  A    between atoms: N_15  and  S_52
    4  A    between atoms: N_15  and  C_53
    5  A    between atoms: C_20  and  C_39
    6  A    between atoms: C_20  and  O_44
    7  A    between atoms: C_26  and  S_52
    8  A    between atoms: C_27  and  C_33
    9  A    between atoms: C_27  and  C_34
   10  A    between atoms: C_33  and  N_38
   11  A    between atoms: C_39  and  C_53
   12  A    between atoms: C_40  and  C_41
   13  A    between atoms: C_40  and  C_48
   14  A    between atoms: O_44  and  C_49
   15  A    between atoms: C_48  and  N_51
                            x       y       z     vdW  Elec       q    Type
                         _______ _______ _______ _____ _____    ______ ____

>  <TORSDO>
F 15

$$$$
=
 OpenBabel11042418163D

 53 59  0  0  1  0  0  0  0  0999 V2000
  188.4080  175.4000  142.8610 N   0  0  0  0  0  0  0  0  0  0  0  0
  189.6710  173.2760  142.6520 C   0  0  0  0  0  0  0  0  0  0  0  0
  190.2520  171.8610  140.7150 C   0  0  0  0  0  1  0  0  0  0  0  0
  188.4970  173.6240  140.4540 C   0  0  0  0  0  3  0  0  0  0  0  0
  188.0940  174.8880  140.5230 C   0  0  0  0  0  3  0  0  0  0  0  0
  188.8580  174.2930  143.3700 C   0  0  0  0  0  3  0  0  0  0  0  0
  188.6700  175.8500  141.5010 C   0  0  1  0  0  3  0  0  0  0  0  0
  189.4960  172.9900  141.3370 C   0  0  0  0  0  0  0  0  0  0  0  0
  187.2800  177.7020  142.4660 C   0  0  0  0  0  2  0  0  0  0  0  0
  185.9010  177.8450  141.9380 C   0  0  0  0  0  0  0  0  0  0  0  0
  188.1000  177.2500  141.2620 C   0  0  2  0  0  3  0  0  0  0  0  0
  187.1780  177.3070  140.0400 C   0  0  0  0  0  2  0  0  0  0  0  0
  184.8150  178.2420  142.6440 C   0  0  2  0  0  3  0  0  0  0  0  0
  185.8510  177.5850  140.5470 N   0  0  0  0  0  0  0  0  0  0  0  0
  181.5840  178.2460  140.2020 S   0  0  0  0  0  0  0  0  0  0  0  0
  180.2540  179.4890  142.2520 C   0  0  0  0  0  1  0  0  0  0  0  0
  183.3020  178.2310  140.6850 C   0  0  0  0  0  3  0  0  0  0  0  0
  182.3040  178.3400  142.7280 O   0  0  0  0  0  0  0  0  0  0  0  0
  183.4790  178.2900  141.9930 C   0  0  0  0  0  0  0  0  0  0  0  0
  181.1090  178.2720  141.9680 C   0  0  2  0  0  3  0  0  0  0  0  0
  184.4570  179.7970  144.4130 O   0  0  0  0  0  0  0  0  0  0  0  0
  184.8930  178.6600  144.0740 C   0  0  0  0  0  0  0  0  0  0  0  0
  185.4140  177.7840  145.0800 N   0  0  0  0  0  0  0  0  0  0  0  0
  186.1430  178.2160  146.0630 C   0  0  0  0  0  3  0  0  0  0  0  0
  186.6370  177.2740  147.1010 C   0  0  0  0  0  2  0  0  0  0  0  0
  187.5830  176.2690  146.4790 C   0  0  0  0  0  2  0  0  0  0  0  0
  191.0330  175.2930  147.9830 C   0  0  0  0  0  2  0  0  0  0  0  0
  189.7300  175.2110  147.2510 C   0  0  0  0  0  0  0  0  0  0  0  0
  191.6330  176.6960  147.9070 C   0  0  0  0  0  2  0  0  0  0  0  0
  189.4810  177.7220  147.2110 C   0  0  0  0  0  2  0  0  0  0  0  0
  190.5840  177.7390  148.2690 C   0  0  0  0  0  2  0  0  0  0  0  0
  189.3270  174.0820  146.8560 O   0  0  0  0  0  0  0  0  0  0  0  0
  188.9080  176.3860  147.0790 N   0  0  0  0  0  0  0  0  0  0  0  0
  191.8520  172.6020  143.6000 C   0  0  0  0  0  0  0  0  0  0  0  0
  190.5740  172.4400  143.4050 N   0  0  0  0  0  0  0  0  0  0  0  0
  192.5710  171.6120  144.4560 C   0  0  0  0  0  2  0  0  0  0  0  0
  192.8840  170.3670  143.6540 C   0  0  0  0  0  2  0  0  0  0  0  0
  194.1760  169.8440  144.0710 N   0  0  0  0  0  2  0  0  0  0  0  0
  196.4000  169.4790  142.6550 O   0  0  0  0  0  0  0  0  0  0  0  0
  194.7400  171.0620  141.7830 O   0  0  0  0  0  0  0  0  0  0  0  0
  195.3880  170.5280  143.0330 S   0  0  0  0  0  0  0  0  0  0  0  0
  196.5530  171.6370  145.3100 C   0  0  0  0  0  3  0  0  0  0  0  0
  197.2570  174.0550  143.9280 C   0  0  0  0  0  2  0  0  0  0  0  0
  196.5540  174.3620  145.5770 S   0  0  0  0  0  0  0  0  0  0  0  0
  196.8120  172.6650  146.1150 C   0  0  0  0  0  3  0  0  0  0  0  0
  196.1940  171.8270  143.8940 C   0  0  0  0  0  0  0  0  0  0  0  0
  196.4970  172.9580  143.2520 C   0  0  0  0  0  3  0  0  0  0  0  0
  192.5500  173.6680  143.0190 O   0  0  0  0  0  0  0  0  0  0  0  0
  192.4710  177.3290  143.7150 O   0  0  0  0  0  0  0  0  0  0  0  0
  191.5690  176.4980  144.3280 C   0  0  0  0  0  2  0  0  0  0  0  0
  192.3060  176.0610  143.0960 C   0  0  1  0  0  0  0  0  0  0  0  0
  193.7840  175.6810  142.9360 C   0  0  0  0  0  2  0  0  0  0  0  0
  192.9280  174.8190  143.7600 C   0  0  2  0  0  3  0  0  0  0  0  0
  1  6  2  0  0  0  0
  2  6  1  0  0  0  0
  2 35  1  0  0  0  0
  3  8  1  0  0  0  0
  4  5  2  0  0  0  0
  4  8  1  0  0  0  0
  7  5  1  6  0  0  0
  7  1  1  0  0  0  0
  8  2  2  0  0  0  0
 10  9  1  0  0  0  0
 10 13  1  0  0  0  0
 11 12  1  6  0  0  0
 11  7  1  0  0  0  0
 11  9  1  0  0  0  0
 12 14  1  0  0  0  0
 13 22  1  6  0  0  0
 14 10  2  0  0  0  0
 15 17  1  0  0  0  0
 15 20  1  0  0  0  0
 17 19  2  0  0  0  0
 19 13  1  0  0  0  0
 19 18  1  0  0  0  0
 20 16  1  6  0  0  0
 20 18  1  0  0  0  0
 22 21  2  0  0  0  0
 22 23  1  0  0  0  0
 23 24  2  0  0  0  0
 24 25  1  0  0  0  0
 26 33  1  0  0  0  0
 26 25  1  0  0  0  0
 28 27  1  0  0  0  0
 29 27  1  0  0  0  0
 29 31  1  0  0  0  0
 30 31  1  0  0  0  0
 32 28  2  0  0  0  0
 33 30  1  0  0  0  0
 33 28  1  0  0  0  0
 34 36  1  0  0  0  0
 35 34  2  0  0  0  0
 37 38  1  0  0  0  0
 37 36  1  0  0  0  0
 39 41  2  0  0  0  0
 40 41  2  0  0  0  0
 41 46  1  0  0  0  0
 41 38  1  0  0  0  0
 42 45  2  0  0  0  0
 43 44  1  0  0  0  0
 44 45  1  0  0  0  0
 46 42  1  0  0  0  0
 47 46  2  0  0  0  0
 47 43  1  0  0  0  0
 48 34  1  0  0  0  0
 49 50  1  0  0  0  0
 51 52  1  6  0  0  0
 51 49  1  0  0  0  0
 51 53  1  0  0  0  0
 51 50  1  0  0  0  0
 52 53  1  0  0  0  0
 53 48  1  6  0  0  0
M  END
>  <MODEL>
8

>  <REMARK>
 VINA RESULT:      -5.9      3.562      9.467
  Name = 
  15 active torsions:
  status: ('A' for Active; 'I' for Inactive)
    1  A    between atoms: C_10  and  N_32
    2  A    between atoms: C_14  and  C_47
    3  A    between atoms: N_15  and  S_52
    4  A    between atoms: N_15  and  C_53
    5  A    between atoms: C_20  and  C_39
    6  A    between atoms: C_20  and  O_44
    7  A    between atoms: C_26  and  S_52
    8  A    between atoms: C_27  and  C_33
    9  A    between atoms: C_27  and  C_34
   10  A    between atoms: C_33  and  N_38
   11  A    between atoms: C_39  and  C_53
   12  A    between atoms: C_40  and  C_41
   13  A    between atoms: C_40  and  C_48
   14  A    between atoms: O_44  and  C_49
   15  A    between atoms: C_48  and  N_51
                            x       y       z     vdW  Elec       q    Type
                         _______ _______ _______ _____ _____    ______ ____

>  <TORSDO>
F 15

$$$$
=
 OpenBabel11042418163D

 53 59  0  0  1  0  0  0  0  0999 V2000
  191.8460  172.4500  140.5100 N   0  0  0  0  0  0  0  0  0  0  0  0
  192.5230  171.4290  138.3540 C   0  0  0  0  0  0  0  0  0  0  0  0
  191.8860  169.3280  137.2270 C   0  0  0  0  0  1  0  0  0  0  0  0
  191.3230  169.6330  139.6460 C   0  0  0  0  0  3  0  0  0  0  0  0
  190.7410  170.3070  140.6310 C   0  0  0  0  0  3  0  0  0  0  0  0
  192.6940  172.3150  139.5370 C   0  0  0  0  0  3  0  0  0  0  0  0
  190.5530  171.7820  140.5790 C   0  0  1  0  0  3  0  0  0  0  0  0
  191.9010  170.2250  138.4220 C   0  0  0  0  0  0  0  0  0  0  0  0
  189.6950  173.7790  141.8320 C   0  0  0  0  0  2  0  0  0  0  0  0
  190.4100  174.1390  143.0810 C   0  0  0  0  0  0  0  0  0  0  0  0
  189.7490  172.2550  141.7920 C   0  0  2  0  0  3  0  0  0  0  0  0
  190.3620  171.7900  143.1180 C   0  0  0  0  0  3  0  0  0  0  0  0
  190.6080  175.3940  143.5500 C   0  0  0  0  0  0  0  0  0  0  0  0
  190.8140  172.9860  143.7960 N   0  0  0  0  0  0  0  0  0  0  0  0
  193.3720  175.9220  146.4640 S   0  0  0  0  0  0  0  0  0  0  0  0
  191.3750  175.2910  148.2320 C   0  0  0  0  0  1  0  0  0  0  0  0
  192.7110  175.5620  144.8460 C   0  0  0  0  0  3  0  0  0  0  0  0
  190.7850  175.9370  146.0000 O   0  0  0  0  0  0  0  0  0  0  0  0
  191.3920  175.6090  144.7970 C   0  0  0  0  0  0  0  0  0  0  0  0
  191.6720  176.2150  147.0700 C   0  0  2  0  0  3  0  0  0  0  0  0
  190.8460  177.4590  142.3870 O   0  0  0  0  0  0  0  0  0  0  0  0
  190.0540  176.6040  142.8760 C   0  0  0  0  0  0  0  0  0  0  0  0
  188.6430  176.7990  142.7360 N   0  0  0  0  0  0  0  0  0  0  0  0
  188.1040  177.9800  142.7370 C   0  0  0  0  0  3  0  0  0  0  0  0
  186.6370  178.1360  142.5570 C   0  0  0  0  0  2  0  0  0  0  0  0
  185.9050  177.0390  143.3020 C   0  0  0  0  0  2  0  0  0  0  0  0
  185.9340  177.3250  147.1790 C   0  0  0  0  0  2  0  0  0  0  0  0
  186.3390  176.9870  145.7780 C   0  0  0  0  0  0  0  0  0  0  0  0
  185.1650  178.6430  147.2390 C   0  0  0  0  0  2  0  0  0  0  0  0
  184.6960  178.6330  144.8000 C   0  0  0  0  0  2  0  0  0  0  0  0
  184.0610  178.6590  146.1900 C   0  0  0  0  0  2  0  0  0  0  0  0
  187.3080  176.1990  145.6010 O   0  0  0  0  0  0  0  0  0  0  0  0
  185.5790  177.4800  144.6540 N   0  0  0  0  0  0  0  0  0  0  0  0
  192.8230  172.6640  136.2340 C   0  0  0  0  0  0  0  0  0  0  0  0
  193.1800  171.7750  137.1170 N   0  0  0  0  0  0  0  0  0  0  0  0
  193.6950  172.8690  135.0400 C   0  0  0  0  0  2  0  0  0  0  0  0
  194.4880  174.1500  135.1950 C   0  0  0  0  0  2  0  0  0  0  0  0
  195.8280  173.8270  135.6610 N   0  0  0  0  0  2  0  0  0  0  0  0
  197.9410  175.4410  135.7830 O   0  0  0  0  0  0  0  0  0  0  0  0
  195.7150  176.4680  135.8740 O   0  0  0  0  0  0  0  0  0  0  0  0
  196.5350  175.2790  136.2980 S   0  0  0  0  0  0  0  0  0  0  0  0
  195.3150  174.8830  138.7720 C   0  0  0  0  0  3  0  0  0  0  0  0
  197.8050  175.1350  140.1830 C   0  0  0  0  0  2  0  0  0  0  0  0
  196.4440  176.0410  140.9820 S   0  0  0  0  0  0  0  0  0  0  0  0
  195.1780  175.1470  140.0700 C   0  0  0  0  0  3  0  0  0  0  0  0
  196.5660  175.1650  138.0480 C   0  0  0  0  0  0  0  0  0  0  0  0
  197.7230  175.3070  138.7000 C   0  0  0  0  0  3  0  0  0  0  0  0
  191.6470  173.4110  136.3840 O   0  0  0  0  0  0  0  0  0  0  0  0
  188.5740  174.9040  134.8940 O   0  0  0  0  0  0  0  0  0  0  0  0
  189.7280  175.6420  134.9610 C   0  0  0  0  0  2  0  0  0  0  0  0
  189.5390  174.4260  135.8210 C   0  0  1  0  0  0  0  0  0  0  0  0
  189.5430  172.9450  135.4170 C   0  0  0  0  0  2  0  0  0  0  0  0
  190.7910  173.7050  135.2900 C   0  0  2  0  0  3  0  0  0  0  0  0
  1  7  1  0  0  0  0
  2  8  2  0  0  0  0
  2  6  1  0  0  0  0
  3  8  1  0  0  0  0
  4  5  2  0  0  0  0
  6  1  2  0  0  0  0
  7  5  1  1  0  0  0
  7 11  1  0  0  0  0
  8  4  1  0  0  0  0
  9 10  1  0  0  0  0
 10 13  2  0  0  0  0
 10 14  1  0  0  0  0
 11  9  1  1  0  0  0
 11 12  1  0  0  0  0
 12 14  2  0  0  0  0
 13 19  1  0  0  0  0
 15 20  1  0  0  0  0
 17 15  1  0  0  0  0
 18 20  1  0  0  0  0
 19 17  2  0  0  0  0
 19 18  1  0  0  0  0
 20 16  1  1  0  0  0
 21 22  2  0  0  0  0
 22 13  1  0  0  0  0
 23 24  2  0  0  0  0
 23 22  1  0  0  0  0
 25 24  1  0  0  0  0
 25 26  1  0  0  0  0
 26 33  1  0  0  0  0
 27 29  1  0  0  0  0
 28 27  1  0  0  0  0
 30 31  1  0  0  0  0
 31 29  1  0  0  0  0
 32 28  2  0  0  0  0
 33 30  1  0  0  0  0
 33 28  1  0  0  0  0
 34 48  1  0  0  0  0
 34 35  2  0  0  0  0
 35  2  1  0  0  0  0
 36 37  1  0  0  0  0
 36 34  1  0  0  0  0
 37 38  1  0  0  0  0
 38 41  1  0  0  0  0
 39 41  2  0  0  0  0
 40 41  2  0  0  0  0
 41 46  1  0  0  0  0
 42 45  2  0  0  0  0
 43 44  1  0  0  0  0
 45 44  1  0  0  0  0
 46 47  2  0  0  0  0
 46 42  1  0  0  0  0
 47 43  1  0  0  0  0
 49 50  1  0  0  0  0
 49 51  1  0  0  0  0
 51 50  1  1  0  0  0
 52 51  1  0  0  0  0
 53 52  1  0  0  0  0
 53 51  1  0  0  0  0
 53 48  1  1  0  0  0
M  END
>  <MODEL>
9

>  <REMARK>
 VINA RESULT:      -5.8      2.998      9.969
  Name = 
  15 active torsions:
  status: ('A' for Active; 'I' for Inactive)
    1  A    between atoms: C_10  and  N_32
    2  A    between atoms: C_14  and  C_47
    3  A    between atoms: N_15  and  S_52
    4  A    between atoms: N_15  and  C_53
    5  A    between atoms: C_20  and  C_39
    6  A    between atoms: C_20  and  O_44
    7  A    between atoms: C_26  and  S_52
    8  A    between atoms: C_27  and  C_33
    9  A    between atoms: C_27  and  C_34
   10  A    between atoms: C_33  and  N_38
   11  A    between atoms: C_39  and  C_53
   12  A    between atoms: C_40  and  C_41
   13  A    between atoms: C_40  and  C_48
   14  A    between atoms: O_44  and  C_49
   15  A    between atoms: C_48  and  N_51
                            x       y       z     vdW  Elec       q    Type
                         _______ _______ _______ _____ _____    ______ ____

>  <TORSDO>
F 15

$$$$
