=
 OpenBabel11042415293D

 42 45  0  0  1  0  0  0  0  0999 V2000
  185.1720  177.7530  145.2570 C   0  0  0  0  0  0  0  0  0  0  0  0
  184.2970  178.5590  144.6860 C   0  0  0  0  0  3  0  0  0  0  0  0
  184.2740  178.2620  143.2720 C   0  0  0  0  0  0  0  0  0  0  0  0
  183.4470  178.8270  142.4480 N   0  0  0  0  0  0  0  0  0  0  0  0
  185.2580  177.1960  142.9220 C   0  0  2  0  0  3  0  0  0  0  0  0
  185.8280  176.8110  144.2880 C   0  0  0  0  0  2  0  0  0  0  0  0
  183.3900  178.4970  141.0310 C   0  0  0  0  0  2  0  0  0  0  0  0
  182.0990  177.7520  140.7190 C   0  0  0  0  0  2  0  0  0  0  0  0
  179.8440  178.1780  140.0570 F   0  0  0  0  0  0  0  0  0  0  0  0
  180.8730  178.6470  140.8530 C   0  0  0  0  0  0  0  0  0  0  0  0
  180.4570  178.6440  142.1710 F   0  0  0  0  0  0  0  0  0  0  0  0
  181.1890  179.9420  140.4840 F   0  0  0  0  0  0  0  0  0  0  0  0
  186.3670  177.7740  142.0530 C   0  0  0  0  0  2  0  0  0  0  0  0
  188.7090  174.9950  141.8090 C   0  0  0  0  0  2  0  0  0  0  0  0
  189.8850  177.8040  143.1090 C   0  0  0  0  0  2  0  0  0  0  0  0
  187.6340  177.1440  142.3790 N   0  0  0  0  0  0  0  0  0  0  0  0
  187.9190  176.2050  141.3030 C   0  0  0  0  0  2  0  0  0  0  0  0
  190.5740  176.5670  142.5430 C   0  0  0  0  0  2  0  0  0  0  0  0
  188.6500  178.1850  142.2990 C   0  0  0  0  0  2  0  0  0  0  0  0
  189.7640  175.3160  142.8730 C   0  0  2  0  0  3  0  0  0  0  0  0
  190.6700  174.1420  143.0280 C   0  0  0  0  0  3  0  0  0  0  0  0
  191.8720  174.1840  142.5780 N   0  0  0  0  0  0  0  0  0  0  0  0
  192.1060  171.1550  144.1200 C   0  0  0  0  0  2  0  0  0  0  0  0
  193.3710  171.7560  144.6880 C   0  0  0  0  0  2  0  0  0  0  0  0
  193.4650  173.1290  144.0530 C   0  0  2  0  0  3  0  0  0  0  0  0
  191.9470  171.7550  142.7360 C   0  0  0  0  0  2  0  0  0  0  0  0
  192.7490  173.0510  142.7190 C   0  0  1  0  0  3  0  0  0  0  0  0
  194.8990  173.6590  143.9300 C   0  0  1  0  0  3  0  0  0  0  0  0
  195.3170  173.6000  142.6000 O   0  0  0  0  0  1  0  0  0  0  0  0
  195.1340  175.3540  144.5770 P   0  0  0  0  0  0  0  0  0  0  0  0
  196.5150  176.0530  143.8950 O   0  0  0  0  0  0  0  0  0  0  0  0
  193.9270  176.2050  144.2560 O   0  0  0  0  0  1  0  0  0  0  0  0
  195.3250  175.2770  146.2560 O   0  0  0  0  0  1  0  0  0  0  0  0
  185.4420  177.8040  146.7280 C   0  0  0  0  0  2  0  0  0  0  0  0
  186.6380  176.9540  147.1290 C   0  0  0  0  0  2  0  0  0  0  0  0
  187.9090  177.7890  147.1270 C   0  0  0  0  0  2  0  0  0  0  0  0
  190.1910  177.0820  147.4140 O   0  0  0  0  0  0  0  0  0  0  0  0
  191.1420  175.0640  146.4380 C   0  0  0  0  0  2  0  0  0  0  0  0
  188.6560  175.5440  146.3250 C   0  0  0  0  0  2  0  0  0  0  0  0
  191.2830  176.5750  146.6840 C   0  0  0  0  0  2  0  0  0  0  0  0
  189.0790  177.0030  146.5540 C   0  0  1  0  0  3  0  0  0  0  0  0
  189.7380  174.5620  146.7850 C   0  0  0  0  0  2  0  0  0  0  0  0
  1 34  1  0  0  0  0
  2  1  2  0  0  0  0
  3  2  1  0  0  0  0
  4  3  2  0  0  0  0
  5 13  1  6  0  0  0
  5  3  1  0  0  0  0
  5  6  1  0  0  0  0
  6  1  1  0  0  0  0
  7  4  1  0  0  0  0
  8 10  1  0  0  0  0
  8  7  1  0  0  0  0
  9 10  1  0  0  0  0
 10 11  1  0  0  0  0
 12 10  1  0  0  0  0
 13 16  1  0  0  0  0
 14 20  1  0  0  0  0
 17 14  1  0  0  0  0
 17 16  1  0  0  0  0
 18 20  1  0  0  0  0
 18 15  1  0  0  0  0
 19 16  1  0  0  0  0
 19 15  1  0  0  0  0
 20 21  1  6  0  0  0
 22 21  2  0  0  0  0
 23 24  1  0  0  0  0
 25 28  1  6  0  0  0
 25 24  1  0  0  0  0
 26 23  1  0  0  0  0
 27 22  1  1  0  0  0
 27 26  1  0  0  0  0
 27 25  1  0  0  0  0
 28 29  1  6  0  0  0
 28 30  1  0  0  0  0
 30 33  1  0  0  0  0
 31 30  2  0  0  0  0
 32 30  1  0  0  0  0
 34 35  1  0  0  0  0
 36 35  1  0  0  0  0
 38 40  1  0  0  0  0
 38 42  1  0  0  0  0
 39 41  1  0  0  0  0
 39 42  1  0  0  0  0
 40 37  1  0  0  0  0
 41 36  1  1  0  0  0
 41 37  1  0  0  0  0
M  END
>  <MODEL>
1

>  <REMARK>
 VINA RESULT:      -7.3      0.000      0.000
  Name = 
  13 active torsions:
  status: ('A' for Active; 'I' for Inactive)
    1  A    between atoms: P_2  and  C_22
    2  A    between atoms: C_5  and  C_41
    3  A    between atoms: C_7  and  C_32
    4  A    between atoms: C_9  and  C_29
    5  A    between atoms: C_10  and  C_22
    6  A    between atoms: N_12  and  C_17
    7  A    between atoms: N_14  and  C_31
    8  A    between atoms: N_23  and  C_28
    9  A    between atoms: C_24  and  C_37
   10  A    between atoms: C_24  and  C_38
   11  A    between atoms: C_25  and  C_31
   12  A    between atoms: C_28  and  C_29
   13  A    between atoms: C_32  and  C_37
                            x       y       z     vdW  Elec       q    Type
                         _______ _______ _______ _____ _____    ______ ____

>  <TORSDO>
F 13

$$$$
=
 OpenBabel11042415293D

 42 45  0  0  1  0  0  0  0  0999 V2000
  187.9310  175.7680  141.6240 C   0  0  0  0  0  0  0  0  0  0  0  0
  186.7760  176.3530  141.8770 C   0  0  0  0  0  3  0  0  0  0  0  0
  186.9520  177.2080  143.0300 C   0  0  0  0  0  0  0  0  0  0  0  0
  186.0170  177.9900  143.4750 N   0  0  0  0  0  0  0  0  0  0  0  0
  188.3390  177.1160  143.5700 C   0  0  2  0  0  3  0  0  0  0  0  0
  189.0210  176.1770  142.5740 C   0  0  0  0  0  2  0  0  0  0  0  0
  186.2070  178.8860  144.6070 C   0  0  0  0  0  2  0  0  0  0  0  0
  184.9490  178.9170  145.4650 C   0  0  0  0  0  2  0  0  0  0  0  0
  184.7330  176.7110  146.3550 F   0  0  0  0  0  0  0  0  0  0  0  0
  185.0660  178.0120  146.6860 C   0  0  0  0  0  0  0  0  0  0  0  0
  186.3700  178.0390  147.1420 F   0  0  0  0  0  0  0  0  0  0  0  0
  184.2290  178.4610  147.6910 F   0  0  0  0  0  0  0  0  0  0  0  0
  188.3210  176.4690  144.9480 C   0  0  0  0  0  2  0  0  0  0  0  0
  191.9060  177.1000  144.8180 C   0  0  0  0  0  2  0  0  0  0  0  0
  190.8260  175.2590  147.3480 C   0  0  0  0  0  2  0  0  0  0  0  0
  189.6790  176.2020  145.3910 N   0  0  0  0  0  0  0  0  0  0  0  0
  190.4430  177.4160  145.1380 C   0  0  0  0  0  2  0  0  0  0  0  0
  192.1330  176.0070  147.1060 C   0  0  0  0  0  2  0  0  0  0  0  0
  189.6210  176.0440  146.8390 C   0  0  0  0  0  2  0  0  0  0  0  0
  192.5070  175.9460  145.6280 C   0  0  2  0  0  3  0  0  0  0  0  0
  193.9890  175.9640  145.4710 C   0  0  0  0  0  3  0  0  0  0  0  0
  194.5970  174.9800  144.9130 N   0  0  0  0  0  0  0  0  0  0  0  0
  197.0440  175.3170  142.5660 C   0  0  0  0  0  2  0  0  0  0  0  0
  197.4610  173.9600  143.0830 C   0  0  0  0  0  2  0  0  0  0  0  0
  196.4880  173.6570  144.2050 C   0  0  2  0  0  3  0  0  0  0  0  0
  196.4540  176.0490  143.7560 C   0  0  0  0  0  2  0  0  0  0  0  0
  196.0290  174.9900  144.7650 C   0  0  1  0  0  3  0  0  0  0  0  0
  197.0520  172.7210  145.2800 C   0  0  1  0  0  3  0  0  0  0  0  0
  197.1230  173.3870  146.5040 O   0  0  0  0  0  1  0  0  0  0  0  0
  196.1230  171.1580  145.4810 P   0  0  0  0  0  0  0  0  0  0  0  0
  196.1790  170.2570  144.0490 O   0  0  0  0  0  0  0  0  0  0  0  0
  196.7120  170.3440  146.6100 O   0  0  0  0  0  1  0  0  0  0  0  0
  194.5120  171.5210  145.8420 O   0  0  0  0  0  1  0  0  0  0  0  0
  188.0920  174.8090  140.4870 C   0  0  0  0  0  2  0  0  0  0  0  0
  189.4370  174.0990  140.5120 C   0  0  0  0  0  2  0  0  0  0  0  0
  189.2640  172.6460  140.9200 C   0  0  0  0  0  2  0  0  0  0  0  0
  191.0990  173.3150  142.3270 O   0  0  0  0  0  0  0  0  0  0  0  0
  191.3820  172.6240  144.6440 C   0  0  0  0  0  2  0  0  0  0  0  0
  189.2570  172.1110  143.3610 C   0  0  0  0  0  2  0  0  0  0  0  0
  192.0180  172.7890  143.2540 C   0  0  0  0  0  2  0  0  0  0  0  0
  190.1390  172.3060  142.1180 C   0  0  1  0  0  3  0  0  0  0  0  0
  189.8610  172.7900  144.5940 C   0  0  0  0  0  2  0  0  0  0  0  0
  1  2  2  0  0  0  0
  1  6  1  0  0  0  0
  2  3  1  0  0  0  0
  3  4  2  0  0  0  0
  3  5  1  0  0  0  0
  4  7  1  0  0  0  0
  5 13  1  1  0  0  0
  6  5  1  0  0  0  0
  7  8  1  0  0  0  0
  8 10  1  0  0  0  0
  9 10  1  0  0  0  0
 10 11  1  0  0  0  0
 10 12  1  0  0  0  0
 13 16  1  0  0  0  0
 14 17  1  0  0  0  0
 14 20  1  0  0  0  0
 16 19  1  0  0  0  0
 17 16  1  0  0  0  0
 18 15  1  0  0  0  0
 19 15  1  0  0  0  0
 20 21  1  1  0  0  0
 20 18  1  0  0  0  0
 22 21  2  0  0  0  0
 23 24  1  0  0  0  0
 23 26  1  0  0  0  0
 24 25  1  0  0  0  0
 25 27  1  0  0  0  0
 25 28  1  1  0  0  0
 26 27  1  0  0  0  0
 27 22  1  6  0  0  0
 28 30  1  0  0  0  0
 28 29  1  1  0  0  0
 30 33  1  0  0  0  0
 30 32  1  0  0  0  0
 31 30  2  0  0  0  0
 34 35  1  0  0  0  0
 34  1  1  0  0  0  0
 35 36  1  0  0  0  0
 37 40  1  0  0  0  0
 39 42  1  0  0  0  0
 40 38  1  0  0  0  0
 41 36  1  6  0  0  0
 41 37  1  0  0  0  0
 41 39  1  0  0  0  0
 42 38  1  0  0  0  0
M  END
>  <MODEL>
2

>  <REMARK>
 VINA RESULT:      -7.1      3.265      5.310
  Name = 
  13 active torsions:
  status: ('A' for Active; 'I' for Inactive)
    1  A    between atoms: P_2  and  C_22
    2  A    between atoms: C_5  and  C_41
    3  A    between atoms: C_7  and  C_32
    4  A    between atoms: C_9  and  C_29
    5  A    between atoms: C_10  and  C_22
    6  A    between atoms: N_12  and  C_17
    7  A    between atoms: N_14  and  C_31
    8  A    between atoms: N_23  and  C_28
    9  A    between atoms: C_24  and  C_37
   10  A    between atoms: C_24  and  C_38
   11  A    between atoms: C_25  and  C_31
   12  A    between atoms: C_28  and  C_29
   13  A    between atoms: C_32  and  C_37
                            x       y       z     vdW  Elec       q    Type
                         _______ _______ _______ _____ _____    ______ ____

>  <TORSDO>
F 13

$$$$
=
 OpenBabel11042415293D

 42 45  0  0  1  0  0  0  0  0999 V2000
  187.8860  175.4440  142.1620 C   0  0  0  0  0  0  0  0  0  0  0  0
  186.6960  175.6550  142.6900 C   0  0  0  0  0  3  0  0  0  0  0  0
  186.6870  176.9870  143.2530 C   0  0  0  0  0  0  0  0  0  0  0  0
  185.6270  177.5260  143.7690 N   0  0  0  0  0  0  0  0  0  0  0  0
  188.0130  177.6540  143.0940 C   0  0  2  0  0  3  0  0  0  0  0  0
  188.8100  176.6200  142.2980 C   0  0  0  0  0  2  0  0  0  0  0  0
  185.6030  178.8840  144.2940 C   0  0  0  0  0  2  0  0  0  0  0  0
  185.7130  178.8600  145.8120 C   0  0  0  0  0  2  0  0  0  0  0  0
  183.3250  178.8030  145.8190 F   0  0  0  0  0  0  0  0  0  0  0  0
  184.4470  178.3230  146.4700 C   0  0  0  0  0  0  0  0  0  0  0  0
  184.4540  176.9440  146.3950 F   0  0  0  0  0  0  0  0  0  0  0  0
  184.4070  178.7010  147.7990 F   0  0  0  0  0  0  0  0  0  0  0  0
  188.6610  177.8580  144.4560 C   0  0  0  0  0  2  0  0  0  0  0  0
  191.9640  176.3690  144.8360 C   0  0  0  0  0  2  0  0  0  0  0  0
  189.4170  174.6340  146.0460 C   0  0  0  0  0  2  0  0  0  0  0  0
  189.5220  176.7310  144.7720 N   0  0  0  0  0  0  0  0  0  0  0  0
  190.7970  177.2910  145.1990 C   0  0  0  0  0  2  0  0  0  0  0  0
  190.9220  174.5450  146.2760 C   0  0  0  0  0  2  0  0  0  0  0  0
  188.9440  176.0800  145.9410 C   0  0  0  0  0  2  0  0  0  0  0  0
  191.6700  174.8720  144.9870 C   0  0  2  0  0  3  0  0  0  0  0  0
  192.9560  174.1190  144.9330 C   0  0  0  0  0  3  0  0  0  0  0  0
  193.3320  173.5500  143.8450 N   0  0  0  0  0  0  0  0  0  0  0  0
  195.2460  171.3880  145.6550 C   0  0  0  0  0  2  0  0  0  0  0  0
  196.2890  172.4680  145.4820 C   0  0  0  0  0  2  0  0  0  0  0  0
  195.6160  173.5250  144.6300 C   0  0  2  0  0  3  0  0  0  0  0  0
  194.3960  171.4300  144.4000 C   0  0  0  0  0  2  0  0  0  0  0  0
  194.5700  172.8160  143.7900 C   0  0  1  0  0  3  0  0  0  0  0  0
  196.5900  174.3580  143.7900 C   0  0  1  0  0  3  0  0  0  0  0  0
  196.7920  173.7510  142.5500 O   0  0  0  0  0  1  0  0  0  0  0  0
  196.0790  176.0980  143.5490 P   0  0  0  0  0  0  0  0  0  0  0  0
  194.9770  176.2130  142.2710 O   0  0  0  0  0  0  0  0  0  0  0  0
  195.4420  176.6330  144.8110 O   0  0  0  0  0  1  0  0  0  0  0  0
  197.4460  177.0250  143.1840 O   0  0  0  0  0  1  0  0  0  0  0  0
  188.2290  174.1490  141.4960 C   0  0  0  0  0  2  0  0  0  0  0  0
  188.8980  173.1670  142.4450 C   0  0  0  0  0  2  0  0  0  0  0  0
  190.2700  172.7720  141.9230 C   0  0  0  0  0  2  0  0  0  0  0  0
  191.2170  173.4680  139.8220 O   0  0  0  0  0  0  0  0  0  0  0  0
  191.2520  172.1030  137.8070 C   0  0  0  0  0  2  0  0  0  0  0  0
  190.5100  171.1520  140.0360 C   0  0  0  0  0  2  0  0  0  0  0  0
  190.9420  173.4690  138.4420 C   0  0  0  0  0  2  0  0  0  0  0  0
  190.2570  172.6210  140.4090 C   0  0  1  0  0  3  0  0  0  0  0  0
  191.4930  171.0260  138.8680 C   0  0  0  0  0  2  0  0  0  0  0  0
  1  6  1  0  0  0  0
  1  2  2  0  0  0  0
  2  3  1  0  0  0  0
  3  4  2  0  0  0  0
  4  7  1  0  0  0  0
  5  3  1  0  0  0  0
  5 13  1  1  0  0  0
  6  5  1  0  0  0  0
  7  8  1  0  0  0  0
  8 10  1  0  0  0  0
  9 10  1  0  0  0  0
 10 12  1  0  0  0  0
 11 10  1  0  0  0  0
 13 16  1  0  0  0  0
 14 20  1  0  0  0  0
 14 17  1  0  0  0  0
 15 18  1  0  0  0  0
 16 17  1  0  0  0  0
 16 19  1  0  0  0  0
 19 15  1  0  0  0  0
 20 21  1  1  0  0  0
 20 18  1  0  0  0  0
 22 21  2  0  0  0  0
 24 23  1  0  0  0  0
 25 28  1  6  0  0  0
 25 24  1  0  0  0  0
 26 23  1  0  0  0  0
 27 22  1  1  0  0  0
 27 26  1  0  0  0  0
 27 25  1  0  0  0  0
 28 29  1  6  0  0  0
 30 28  1  0  0  0  0
 30 32  1  0  0  0  0
 31 30  2  0  0  0  0
 33 30  1  0  0  0  0
 34  1  1  0  0  0  0
 34 35  1  0  0  0  0
 36 35  1  0  0  0  0
 37 41  1  0  0  0  0
 38 40  1  0  0  0  0
 38 42  1  0  0  0  0
 39 41  1  0  0  0  0
 40 37  1  0  0  0  0
 41 36  1  1  0  0  0
 42 39  1  0  0  0  0
M  END
>  <MODEL>
3

>  <REMARK>
 VINA RESULT:      -6.9      2.719      5.165
  Name = 
  13 active torsions:
  status: ('A' for Active; 'I' for Inactive)
    1  A    between atoms: P_2  and  C_22
    2  A    between atoms: C_5  and  C_41
    3  A    between atoms: C_7  and  C_32
    4  A    between atoms: C_9  and  C_29
    5  A    between atoms: C_10  and  C_22
    6  A    between atoms: N_12  and  C_17
    7  A    between atoms: N_14  and  C_31
    8  A    between atoms: N_23  and  C_28
    9  A    between atoms: C_24  and  C_37
   10  A    between atoms: C_24  and  C_38
   11  A    between atoms: C_25  and  C_31
   12  A    between atoms: C_28  and  C_29
   13  A    between atoms: C_32  and  C_37
                            x       y       z     vdW  Elec       q    Type
                         _______ _______ _______ _____ _____    ______ ____

>  <TORSDO>
F 13

$$$$
=
 OpenBabel11042415293D

 42 45  0  0  1  0  0  0  0  0999 V2000
  194.1990  175.4360  141.1140 C   0  0  0  0  0  0  0  0  0  0  0  0
  194.1640  174.3550  140.3580 C   0  0  0  0  0  3  0  0  0  0  0  0
  192.8730  173.7290  140.5350 C   0  0  0  0  0  0  0  0  0  0  0  0
  192.4960  172.6900  139.8570 N   0  0  0  0  0  0  0  0  0  0  0  0
  192.0390  174.4700  141.5260 C   0  0  2  0  0  3  0  0  0  0  0  0
  192.9250  175.6660  141.8760 C   0  0  0  0  0  2  0  0  0  0  0  0
  191.1790  172.0850  139.9990 C   0  0  0  0  0  2  0  0  0  0  0  0
  190.2000  172.7310  139.0280 C   0  0  0  0  0  2  0  0  0  0  0  0
  187.8200  172.5310  138.9680 F   0  0  0  0  0  0  0  0  0  0  0  0
  188.8700  173.0660  139.6920 C   0  0  0  0  0  0  0  0  0  0  0  0
  188.8560  172.5280  140.9650 F   0  0  0  0  0  0  0  0  0  0  0  0
  188.7180  174.4380  139.7820 F   0  0  0  0  0  0  0  0  0  0  0  0
  191.8230  173.6170  142.7680 C   0  0  0  0  0  2  0  0  0  0  0  0
  189.1500  175.9090  143.6990 C   0  0  0  0  0  2  0  0  0  0  0  0
  190.6220  174.2790  146.1760 C   0  0  0  0  0  2  0  0  0  0  0  0
  191.0760  174.3660  143.7640 N   0  0  0  0  0  0  0  0  0  0  0  0
  189.7500  174.5910  143.2050 C   0  0  0  0  0  2  0  0  0  0  0  0
  189.3040  175.0420  146.0880 C   0  0  0  0  0  2  0  0  0  0  0  0
  190.8990  173.4800  144.9070 C   0  0  0  0  0  2  0  0  0  0  0  0
  189.4550  176.2460  145.1630 C   0  0  2  0  0  3  0  0  0  0  0  0
  188.5550  177.3500  145.6040 C   0  0  0  0  0  3  0  0  0  0  0  0
  187.2950  177.3000  145.3590 N   0  0  0  0  0  0  0  0  0  0  0  0
  184.8610  178.0340  147.6280 C   0  0  0  0  0  2  0  0  0  0  0  0
  184.0630  178.3460  146.3840 C   0  0  0  0  0  2  0  0  0  0  0  0
  185.0270  178.1200  145.2370 C   0  0  2  0  0  3  0  0  0  0  0  0
  186.2980  178.3890  147.2970 C   0  0  0  0  0  2  0  0  0  0  0  0
  186.4230  178.3670  145.7780 C   0  0  1  0  0  3  0  0  0  0  0  0
  184.7160  178.9550  143.9900 C   0  0  1  0  0  3  0  0  0  0  0  0
  185.1660  180.2630  144.1650 O   0  0  0  0  0  1  0  0  0  0  0  0
  185.3980  178.2700  142.4360 P   0  0  0  0  0  0  0  0  0  0  0  0
  186.8760  179.0080  142.0710 O   0  0  0  0  0  1  0  0  0  0  0  0
  185.6000  176.7790  142.5690 O   0  0  0  0  0  1  0  0  0  0  0  0
  184.3060  178.5700  141.1800 O   0  0  0  0  0  0  0  0  0  0  0  0
  195.4070  176.3170  141.1650 C   0  0  0  0  0  2  0  0  0  0  0  0
  196.5550  175.6850  141.9370 C   0  0  0  0  0  2  0  0  0  0  0  0
  196.9990  176.5940  143.0710 C   0  0  0  0  0  2  0  0  0  0  0  0
  195.1250  176.9630  144.5370 O   0  0  0  0  0  0  0  0  0  0  0  0
  194.2500  175.3130  146.0980 C   0  0  0  0  0  2  0  0  0  0  0  0
  196.0240  174.7090  144.3900 C   0  0  0  0  0  2  0  0  0  0  0  0
  194.7180  176.7590  145.8680 C   0  0  0  0  0  2  0  0  0  0  0  0
  196.3100  176.2190  144.3750 C   0  0  1  0  0  3  0  0  0  0  0  0
  194.6200  174.4040  144.9210 C   0  0  0  0  0  2  0  0  0  0  0  0
  1 34  1  0  0  0  0
  1  6  1  0  0  0  0
  2  3  1  0  0  0  0
  2  1  2  0  0  0  0
  3  5  1  0  0  0  0
  4  7  1  0  0  0  0
  4  3  2  0  0  0  0
  5  6  1  0  0  0  0
  5 13  1  1  0  0  0
  8 10  1  0  0  0  0
  8  7  1  0  0  0  0
  9 10  1  0  0  0  0
 10 12  1  0  0  0  0
 10 11  1  0  0  0  0
 13 16  1  0  0  0  0
 14 20  1  0  0  0  0
 16 19  1  0  0  0  0
 17 14  1  0  0  0  0
 17 16  1  0  0  0  0
 18 15  1  0  0  0  0
 19 15  1  0  0  0  0
 20 21  1  1  0  0  0
 20 18  1  0  0  0  0
 22 21  2  0  0  0  0
 24 23  1  0  0  0  0
 25 28  1  6  0  0  0
 25 27  1  0  0  0  0
 25 24  1  0  0  0  0
 26 23  1  0  0  0  0
 27 22  1  1  0  0  0
 27 26  1  0  0  0  0
 28 29  1  1  0  0  0
 30 32  1  0  0  0  0
 30 28  1  0  0  0  0
 31 30  1  0  0  0  0
 33 30  2  0  0  0  0
 34 35  1  0  0  0  0
 35 36  1  0  0  0  0
 37 40  1  0  0  0  0
 39 42  1  0  0  0  0
 40 38  1  0  0  0  0
 41 36  1  6  0  0  0
 41 39  1  0  0  0  0
 41 37  1  0  0  0  0
 42 38  1  0  0  0  0
M  END
>  <MODEL>
4

>  <REMARK>
 VINA RESULT:      -6.8      4.351      8.712
  Name = 
  13 active torsions:
  status: ('A' for Active; 'I' for Inactive)
    1  A    between atoms: P_2  and  C_22
    2  A    between atoms: C_5  and  C_41
    3  A    between atoms: C_7  and  C_32
    4  A    between atoms: C_9  and  C_29
    5  A    between atoms: C_10  and  C_22
    6  A    between atoms: N_12  and  C_17
    7  A    between atoms: N_14  and  C_31
    8  A    between atoms: N_23  and  C_28
    9  A    between atoms: C_24  and  C_37
   10  A    between atoms: C_24  and  C_38
   11  A    between atoms: C_25  and  C_31
   12  A    between atoms: C_28  and  C_29
   13  A    between atoms: C_32  and  C_37
                            x       y       z     vdW  Elec       q    Type
                         _______ _______ _______ _____ _____    ______ ____

>  <TORSDO>
F 13

$$$$
=
 OpenBabel11042415293D

 42 45  0  0  1  0  0  0  0  0999 V2000
  190.1640  176.3970  146.5860 C   0  0  0  0  0  0  0  0  0  0  0  0
  189.8080  177.5280  146.0070 C   0  0  0  0  0  3  0  0  0  0  0  0
  188.6810  177.2520  145.1450 C   0  0  0  0  0  0  0  0  0  0  0  0
  188.0440  178.1810  144.5010 N   0  0  0  0  0  0  0  0  0  0  0  0
  188.3260  175.8030  145.1580 C   0  0  2  0  0  3  0  0  0  0  0  0
  189.3030  175.2320  146.1870 C   0  0  0  0  0  2  0  0  0  0  0  0
  186.8790  177.9120  143.6690 C   0  0  0  0  0  2  0  0  0  0  0  0
  185.7570  178.8840  144.0110 C   0  0  0  0  0  2  0  0  0  0  0  0
  185.2060  177.1830  145.5950 F   0  0  0  0  0  0  0  0  0  0  0  0
  185.0780  178.5350  145.3290 C   0  0  0  0  0  0  0  0  0  0  0  0
  185.6790  179.2510  146.3470 F   0  0  0  0  0  0  0  0  0  0  0  0
  183.7370  178.8700  145.2750 F   0  0  0  0  0  0  0  0  0  0  0  0
  188.6030  175.1850  143.7950 C   0  0  0  0  0  2  0  0  0  0  0  0
  190.6730  172.1870  143.7650 C   0  0  0  0  0  2  0  0  0  0  0  0
  192.2280  175.0560  143.2070 C   0  0  0  0  0  2  0  0  0  0  0  0
  189.9010  174.5320  143.7990 N   0  0  0  0  0  0  0  0  0  0  0  0
  189.7100  173.2260  143.1840 C   0  0  0  0  0  2  0  0  0  0  0  0
  192.6300  173.6050  142.9640 C   0  0  0  0  0  2  0  0  0  0  0  0
  190.7540  175.2950  142.8950 C   0  0  0  0  0  2  0  0  0  0  0  0
  192.0780  172.7140  144.0740 C   0  0  2  0  0  3  0  0  0  0  0  0
  192.9890  171.5570  144.3060 C   0  0  0  0  0  3  0  0  0  0  0  0
  194.2600  171.6960  144.1860 N   0  0  0  0  0  0  0  0  0  0  0  0
  196.6320  170.5380  146.3420 C   0  0  0  0  0  2  0  0  0  0  0  0
  197.4810  170.5130  145.0920 C   0  0  0  0  0  2  0  0  0  0  0  0
  196.5510  170.9610  143.9830 C   0  0  2  0  0  3  0  0  0  0  0  0
  195.2170  170.2370  145.8860 C   0  0  0  0  0  2  0  0  0  0  0  0
  195.1440  170.5800  144.4030 C   0  0  1  0  0  3  0  0  0  0  0  0
  196.9280  170.4170  142.6000 C   0  0  1  0  0  3  0  0  0  0  0  0
  196.0590  169.3870  142.2390 O   0  0  0  0  0  1  0  0  0  0  0  0
  196.9690  171.6820  141.2780 P   0  0  0  0  0  0  0  0  0  0  0  0
  195.4280  172.3420  141.0540 O   0  0  0  0  0  1  0  0  0  0  0  0
  197.9390  172.7810  141.6410 O   0  0  0  0  0  1  0  0  0  0  0  0
  197.4720  170.9530  139.8380 O   0  0  0  0  0  0  0  0  0  0  0  0
  191.3110  176.3340  147.5440 C   0  0  0  0  0  2  0  0  0  0  0  0
  192.5330  175.6570  146.9440 C   0  0  0  0  0  2  0  0  0  0  0  0
  193.4510  176.6850  146.3030 C   0  0  0  0  0  2  0  0  0  0  0  0
  194.7210  174.6730  145.9410 O   0  0  0  0  0  0  0  0  0  0  0  0
  196.7250  174.5370  144.5660 C   0  0  0  0  0  2  0  0  0  0  0  0
  195.3000  176.6320  144.6240 C   0  0  0  0  0  2  0  0  0  0  0  0
  196.0480  174.2050  145.9060 C   0  0  0  0  0  2  0  0  0  0  0  0
  194.8050  176.0780  145.9690 C   0  0  1  0  0  3  0  0  0  0  0  0
  195.8990  175.5300  143.7440 C   0  0  0  0  0  2  0  0  0  0  0  0
  1 34  1  0  0  0  0
  2  1  2  0  0  0  0
  3  5  1  0  0  0  0
  3  2  1  0  0  0  0
  4  3  2  0  0  0  0
  5 13  1  6  0  0  0
  5  6  1  0  0  0  0
  6  1  1  0  0  0  0
  7  8  1  0  0  0  0
  7  4  1  0  0  0  0
  8 10  1  0  0  0  0
 10  9  1  0  0  0  0
 10 11  1  0  0  0  0
 12 10  1  0  0  0  0
 13 16  1  0  0  0  0
 14 20  1  0  0  0  0
 17 14  1  0  0  0  0
 17 16  1  0  0  0  0
 18 15  1  0  0  0  0
 18 20  1  0  0  0  0
 19 15  1  0  0  0  0
 19 16  1  0  0  0  0
 20 21  1  6  0  0  0
 22 21  2  0  0  0  0
 24 23  1  0  0  0  0
 25 28  1  6  0  0  0
 25 27  1  0  0  0  0
 25 24  1  0  0  0  0
 26 23  1  0  0  0  0
 27 22  1  1  0  0  0
 27 26  1  0  0  0  0
 28 29  1  6  0  0  0
 30 32  1  0  0  0  0
 30 28  1  0  0  0  0
 31 30  1  0  0  0  0
 33 30  2  0  0  0  0
 35 34  1  0  0  0  0
 36 35  1  0  0  0  0
 37 41  1  0  0  0  0
 38 40  1  0  0  0  0
 39 41  1  0  0  0  0
 40 37  1  0  0  0  0
 41 36  1  6  0  0  0
 42 38  1  0  0  0  0
 42 39  1  0  0  0  0
M  END
>  <MODEL>
5

>  <REMARK>
 VINA RESULT:      -6.7      2.905      5.154
  Name = 
  13 active torsions:
  status: ('A' for Active; 'I' for Inactive)
    1  A    between atoms: P_2  and  C_22
    2  A    between atoms: C_5  and  C_41
    3  A    between atoms: C_7  and  C_32
    4  A    between atoms: C_9  and  C_29
    5  A    between atoms: C_10  and  C_22
    6  A    between atoms: N_12  and  C_17
    7  A    between atoms: N_14  and  C_31
    8  A    between atoms: N_23  and  C_28
    9  A    between atoms: C_24  and  C_37
   10  A    between atoms: C_24  and  C_38
   11  A    between atoms: C_25  and  C_31
   12  A    between atoms: C_28  and  C_29
   13  A    between atoms: C_32  and  C_37
                            x       y       z     vdW  Elec       q    Type
                         _______ _______ _______ _____ _____    ______ ____

>  <TORSDO>
F 13

$$$$
=
 OpenBabel11042415293D

 42 45  0  0  1  0  0  0  0  0999 V2000
  191.6700  172.3530  143.5870 C   0  0  0  0  0  0  0  0  0  0  0  0
  192.6580  172.0380  142.7700 C   0  0  0  0  0  3  0  0  0  0  0  0
  193.9030  172.2890  143.4590 C   0  0  0  0  0  0  0  0  0  0  0  0
  195.0600  171.9950  142.9520 N   0  0  0  0  0  0  0  0  0  0  0  0
  193.6690  172.8520  144.8210 C   0  0  2  0  0  3  0  0  0  0  0  0
  192.1430  172.8400  144.9260 C   0  0  0  0  0  2  0  0  0  0  0  0
  196.3140  172.2030  143.6620 C   0  0  0  0  0  2  0  0  0  0  0  0
  196.8150  170.8860  144.2370 C   0  0  0  0  0  2  0  0  0  0  0  0
  197.0340  172.1030  146.2810 F   0  0  0  0  0  0  0  0  0  0  0  0
  196.7360  170.8570  145.7590 C   0  0  0  0  0  0  0  0  0  0  0  0
  195.4530  170.5090  146.1350 F   0  0  0  0  0  0  0  0  0  0  0  0
  197.6220  169.9220  146.2620 F   0  0  0  0  0  0  0  0  0  0  0  0
  194.1720  174.2880  144.8870 C   0  0  0  0  0  2  0  0  0  0  0  0
  191.6220  176.6800  145.9080 C   0  0  0  0  0  2  0  0  0  0  0  0
  192.2890  176.5300  142.6690 C   0  0  0  0  0  2  0  0  0  0  0  0
  193.0920  175.2090  144.5770 N   0  0  0  0  0  0  0  0  0  0  0  0
  193.0470  176.1750  145.6660 C   0  0  0  0  0  2  0  0  0  0  0  0
  191.5720  177.5710  143.5230 C   0  0  0  0  0  2  0  0  0  0  0  0
  193.5000  175.9450  143.3870 C   0  0  0  0  0  2  0  0  0  0  0  0
  190.7880  176.8840  144.6390 C   0  0  2  0  0  3  0  0  0  0  0  0
  189.5740  177.6800  144.9800 C   0  0  0  0  0  3  0  0  0  0  0  0
  188.4960  177.0930  145.3550 N   0  0  0  0  0  0  0  0  0  0  0  0
  185.7400  177.0460  147.3600 C   0  0  0  0  0  2  0  0  0  0  0  0
  185.0140  177.1510  146.0390 C   0  0  0  0  0  2  0  0  0  0  0  0
  186.1120  177.2380  144.9990 C   0  0  2  0  0  3  0  0  0  0  0  0
  187.0420  177.8020  147.1770 C   0  0  0  0  0  2  0  0  0  0  0  0
  187.3190  177.8570  145.6790 C   0  0  1  0  0  3  0  0  0  0  0  0
  185.7000  177.9830  143.7230 C   0  0  1  0  0  3  0  0  0  0  0  0
  185.9420  179.3490  143.8680 O   0  0  0  0  0  1  0  0  0  0  0  0
  186.5090  177.3710  142.2000 P   0  0  0  0  0  0  0  0  0  0  0  0
  186.8840  175.7290  142.3570 O   0  0  0  0  0  1  0  0  0  0  0  0
  185.5960  177.5680  141.0120 O   0  0  0  0  0  0  0  0  0  0  0  0
  187.9370  178.2420  141.9500 O   0  0  0  0  0  1  0  0  0  0  0  0
  190.2390  172.2120  143.1760 C   0  0  0  0  0  2  0  0  0  0  0  0
  189.8310  173.2370  142.1280 C   0  0  0  0  0  2  0  0  0  0  0  0
  188.5230  172.8330  141.4690 C   0  0  0  0  0  2  0  0  0  0  0  0
  188.3770  174.2700  139.5430 O   0  0  0  0  0  0  0  0  0  0  0  0
  189.5220  173.8680  137.4330 C   0  0  0  0  0  2  0  0  0  0  0  0
  189.9950  172.4570  139.4850 C   0  0  0  0  0  2  0  0  0  0  0  0
  188.2070  174.2190  138.1470 C   0  0  0  0  0  2  0  0  0  0  0  0
  188.6150  172.9450  139.9540 C   0  0  1  0  0  3  0  0  0  0  0  0
  190.5890  173.3820  138.4180 C   0  0  0  0  0  2  0  0  0  0  0  0
  1  6  1  0  0  0  0
  2  3  1  0  0  0  0
  2  1  2  0  0  0  0
  3  5  1  0  0  0  0
  4  3  2  0  0  0  0
  4  7  1  0  0  0  0
  5 13  1  6  0  0  0
  5  6  1  0  0  0  0
  7  8  1  0  0  0  0
  8 10  1  0  0  0  0
 10 11  1  0  0  0  0
 10 12  1  0  0  0  0
 10  9  1  0  0  0  0
 15 19  1  0  0  0  0
 15 18  1  0  0  0  0
 16 13  1  0  0  0  0
 16 17  1  0  0  0  0
 17 14  1  0  0  0  0
 18 20  1  0  0  0  0
 19 16  1  0  0  0  0
 20 21  1  1  0  0  0
 20 14  1  0  0  0  0
 21 22  2  0  0  0  0
 24 23  1  0  0  0  0
 25 28  1  6  0  0  0
 25 27  1  0  0  0  0
 25 24  1  0  0  0  0
 26 23  1  0  0  0  0
 27 22  1  1  0  0  0
 27 26  1  0  0  0  0
 28 29  1  1  0  0  0
 30 31  1  0  0  0  0
 30 28  1  0  0  0  0
 32 30  2  0  0  0  0
 33 30  1  0  0  0  0
 34  1  1  0  0  0  0
 35 34  1  0  0  0  0
 36 35  1  0  0  0  0
 37 41  1  0  0  0  0
 38 40  1  0  0  0  0
 38 42  1  0  0  0  0
 39 41  1  0  0  0  0
 40 37  1  0  0  0  0
 41 36  1  1  0  0  0
 42 39  1  0  0  0  0
M  END
>  <MODEL>
6

>  <REMARK>
 VINA RESULT:      -6.7      6.096     10.260
  Name = 
  13 active torsions:
  status: ('A' for Active; 'I' for Inactive)
    1  A    between atoms: P_2  and  C_22
    2  A    between atoms: C_5  and  C_41
    3  A    between atoms: C_7  and  C_32
    4  A    between atoms: C_9  and  C_29
    5  A    between atoms: C_10  and  C_22
    6  A    between atoms: N_12  and  C_17
    7  A    between atoms: N_14  and  C_31
    8  A    between atoms: N_23  and  C_28
    9  A    between atoms: C_24  and  C_37
   10  A    between atoms: C_24  and  C_38
   11  A    between atoms: C_25  and  C_31
   12  A    between atoms: C_28  and  C_29
   13  A    between atoms: C_32  and  C_37
                            x       y       z     vdW  Elec       q    Type
                         _______ _______ _______ _____ _____    ______ ____

>  <TORSDO>
F 13

$$$$
=
 OpenBabel11042415293D

 42 45  0  0  1  0  0  0  0  0999 V2000
  182.1470  178.4420  140.8980 C   0  0  0  0  0  0  0  0  0  0  0  0
  183.2150  178.6460  140.1500 C   0  0  0  0  0  3  0  0  0  0  0  0
  184.3800  178.2900  140.9280 C   0  0  0  0  0  0  0  0  0  0  0  0
  185.5810  178.2970  140.4400 N   0  0  0  0  0  0  0  0  0  0  0  0
  184.0040  177.8600  142.3070 C   0  0  2  0  0  3  0  0  0  0  0  0
  182.4760  177.9100  142.2630 C   0  0  0  0  0  2  0  0  0  0  0  0
  186.7510  177.8940  141.2080 C   0  0  0  0  0  2  0  0  0  0  0  0
  187.1740  176.4850  140.8160 C   0  0  0  0  0  2  0  0  0  0  0  0
  187.8170  174.3380  141.6410 F   0  0  0  0  0  0  0  0  0  0  0  0
  187.5260  175.6330  142.0290 C   0  0  0  0  0  0  0  0  0  0  0  0
  188.6360  176.1740  142.6500 F   0  0  0  0  0  0  0  0  0  0  0  0
  186.4710  175.6220  142.9230 F   0  0  0  0  0  0  0  0  0  0  0  0
  184.5170  178.8680  143.3260 C   0  0  0  0  0  2  0  0  0  0  0  0
  187.6070  177.8910  144.9880 C   0  0  0  0  0  2  0  0  0  0  0  0
  184.8030  177.3760  146.6710 C   0  0  0  0  0  2  0  0  0  0  0  0
  185.2290  178.1810  144.3900 N   0  0  0  0  0  0  0  0  0  0  0  0
  186.5110  178.8580  144.5330 C   0  0  0  0  0  2  0  0  0  0  0  0
  186.2650  177.4220  147.1010 C   0  0  0  0  0  2  0  0  0  0  0  0
  184.4880  178.4350  145.6190 C   0  0  0  0  0  2  0  0  0  0  0  0
  187.1540  176.8390  146.0060 C   0  0  2  0  0  3  0  0  0  0  0  0
  188.3570  176.1960  146.6070 C   0  0  0  0  0  3  0  0  0  0  0  0
  189.1700  175.5220  145.8760 N   0  0  0  0  0  0  0  0  0  0  0  0
  192.2010  176.2490  147.2530 C   0  0  0  0  0  2  0  0  0  0  0  0
  192.7040  175.3510  146.1460 C   0  0  0  0  0  2  0  0  0  0  0  0
  191.4540  174.8750  145.4350 C   0  0  2  0  0  3  0  0  0  0  0  0
  190.8390  175.7040  147.6400 C   0  0  0  0  0  2  0  0  0  0  0  0
  190.3300  174.8950  146.4540 C   0  0  1  0  0  3  0  0  0  0  0  0
  191.6110  173.5140  144.7470 C   0  0  1  0  0  3  0  0  0  0  0  0
  190.4900  172.7210  144.9950 O   0  0  0  0  0  1  0  0  0  0  0  0
  191.9130  173.6100  142.9460 P   0  0  0  0  0  0  0  0  0  0  0  0
  190.9500  172.4830  142.1300 O   0  0  0  0  0  0  0  0  0  0  0  0
  191.5990  174.9990  142.4390 O   0  0  0  0  0  1  0  0  0  0  0  0
  193.5410  173.2660  142.6440 O   0  0  0  0  0  1  0  0  0  0  0  0
  180.7690  178.7180  140.3870 C   0  0  0  0  0  2  0  0  0  0  0  0
  180.0690  179.8200  141.1690 C   0  0  0  0  0  2  0  0  0  0  0  0
  178.5850  179.8430  140.8460 C   0  0  0  0  0  2  0  0  0  0  0  0
  179.3050  181.9610  139.9580 O   0  0  0  0  0  0  0  0  0  0  0  0
  178.4400  182.9640  137.9150 C   0  0  0  0  0  2  0  0  0  0  0  0
  177.8350  180.5960  138.5850 C   0  0  0  0  0  2  0  0  0  0  0  0
  178.7930  183.1470  139.4000 C   0  0  0  0  0  2  0  0  0  0  0  0
  178.2280  181.0540  139.9980 C   0  0  1  0  0  3  0  0  0  0  0  0
  178.4570  181.4880  137.5060 C   0  0  0  0  0  2  0  0  0  0  0  0
  1  6  1  0  0  0  0
  2  1  2  0  0  0  0
  2  3  1  0  0  0  0
  3  5  1  0  0  0  0
  4  3  2  0  0  0  0
  4  7  1  0  0  0  0
  5 13  1  1  0  0  0
  6  5  1  0  0  0  0
  8  7  1  0  0  0  0
  8 10  1  0  0  0  0
  9 10  1  0  0  0  0
 10 11  1  0  0  0  0
 10 12  1  0  0  0  0
 13 16  1  0  0  0  0
 14 20  1  0  0  0  0
 15 18  1  0  0  0  0
 16 17  1  0  0  0  0
 16 19  1  0  0  0  0
 17 14  1  0  0  0  0
 19 15  1  0  0  0  0
 20 21  1  1  0  0  0
 20 18  1  0  0  0  0
 22 21  2  0  0  0  0
 23 26  1  0  0  0  0
 24 23  1  0  0  0  0
 25 28  1  1  0  0  0
 25 24  1  0  0  0  0
 25 27  1  0  0  0  0
 27 22  1  6  0  0  0
 27 26  1  0  0  0  0
 28 29  1  6  0  0  0
 30 28  1  0  0  0  0
 31 30  2  0  0  0  0
 32 30  1  0  0  0  0
 33 30  1  0  0  0  0
 34  1  1  0  0  0  0
 34 35  1  0  0  0  0
 36 35  1  0  0  0  0
 37 41  1  0  0  0  0
 38 40  1  0  0  0  0
 39 41  1  0  0  0  0
 40 37  1  0  0  0  0
 41 36  1  1  0  0  0
 42 38  1  0  0  0  0
 42 39  1  0  0  0  0
M  END
>  <MODEL>
7

>  <REMARK>
 VINA RESULT:      -6.6      3.954      7.770
  Name = 
  13 active torsions:
  status: ('A' for Active; 'I' for Inactive)
    1  A    between atoms: P_2  and  C_22
    2  A    between atoms: C_5  and  C_41
    3  A    between atoms: C_7  and  C_32
    4  A    between atoms: C_9  and  C_29
    5  A    between atoms: C_10  and  C_22
    6  A    between atoms: N_12  and  C_17
    7  A    between atoms: N_14  and  C_31
    8  A    between atoms: N_23  and  C_28
    9  A    between atoms: C_24  and  C_37
   10  A    between atoms: C_24  and  C_38
   11  A    between atoms: C_25  and  C_31
   12  A    between atoms: C_28  and  C_29
   13  A    between atoms: C_32  and  C_37
                            x       y       z     vdW  Elec       q    Type
                         _______ _______ _______ _____ _____    ______ ____

>  <TORSDO>
F 13

$$$$
=
 OpenBabel11042415293D

 42 45  0  0  1  0  0  0  0  0999 V2000
  190.8710  176.1980  147.0400 C   0  0  0  0  0  0  0  0  0  0  0  0
  189.9680  177.1590  147.0950 C   0  0  0  0  0  3  0  0  0  0  0  0
  188.7530  176.6650  146.4870 C   0  0  0  0  0  0  0  0  0  0  0  0
  187.6490  177.3460  146.4660 N   0  0  0  0  0  0  0  0  0  0  0  0
  188.9280  175.2770  145.9690 C   0  0  2  0  0  3  0  0  0  0  0  0
  190.3560  174.9400  146.4000 C   0  0  0  0  0  2  0  0  0  0  0  0
  186.4120  176.8320  145.8970 C   0  0  0  0  0  2  0  0  0  0  0  0
  185.2240  177.6230  146.4290 C   0  0  0  0  0  2  0  0  0  0  0  0
  183.4110  179.0370  145.7830 F   0  0  0  0  0  0  0  0  0  0  0  0
  184.6490  178.5690  145.3820 C   0  0  0  0  0  0  0  0  0  0  0  0
  185.5070  179.6420  145.2300 F   0  0  0  0  0  0  0  0  0  0  0  0
  184.5260  177.9160  144.1690 F   0  0  0  0  0  0  0  0  0  0  0  0
  188.8400  175.2710  144.4490 C   0  0  0  0  0  2  0  0  0  0  0  0
  191.4540  173.4720  142.6610 C   0  0  0  0  0  2  0  0  0  0  0  0
  191.9050  176.7300  143.0440 C   0  0  0  0  0  2  0  0  0  0  0  0
  190.1720  175.1990  143.8740 N   0  0  0  0  0  0  0  0  0  0  0  0
  190.1140  174.1950  142.8210 C   0  0  0  0  0  2  0  0  0  0  0  0
  192.5510  175.7050  142.1170 C   0  0  0  0  0  2  0  0  0  0  0  0
  190.4100  176.4770  143.2140 C   0  0  0  0  0  2  0  0  0  0  0  0
  192.6890  174.3630  142.8320 C   0  0  2  0  0  3  0  0  0  0  0  0
  193.8870  173.6330  142.3280 C   0  0  0  0  0  3  0  0  0  0  0  0
  193.7620  172.4840  141.7700 N   0  0  0  0  0  0  0  0  0  0  0  0
  196.8280  171.3710  142.7580 C   0  0  0  0  0  2  0  0  0  0  0  0
  197.2960  172.2080  141.5910 C   0  0  0  0  0  2  0  0  0  0  0  0
  196.0250  172.7590  140.9750 C   0  0  2  0  0  3  0  0  0  0  0  0
  195.4610  170.8430  142.3670 C   0  0  0  0  0  2  0  0  0  0  0  0
  194.9170  171.7720  141.2880 C   0  0  1  0  0  3  0  0  0  0  0  0
  196.1440  173.0670  139.4780 C   0  0  1  0  0  3  0  0  0  0  0  0
  195.2000  172.3300  138.7620 O   0  0  0  0  0  1  0  0  0  0  0  0
  195.9890  174.8420  139.0590 P   0  0  0  0  0  0  0  0  0  0  0  0
  194.3760  175.3350  139.1930 O   0  0  0  0  0  1  0  0  0  0  0  0
  196.8470  175.6720  139.9850 O   0  0  0  0  0  1  0  0  0  0  0  0
  196.5070  175.0760  137.4670 O   0  0  0  0  0  0  0  0  0  0  0  0
  192.2510  176.3880  147.5840 C   0  0  0  0  0  2  0  0  0  0  0  0
  193.2930  176.5370  146.4850 C   0  0  0  0  0  2  0  0  0  0  0  0
  194.0220  175.2230  146.2600 C   0  0  0  0  0  2  0  0  0  0  0  0
  195.7780  174.2990  144.8980 O   0  0  0  0  0  0  0  0  0  0  0  0
  197.2890  175.6170  143.5170 C   0  0  0  0  0  2  0  0  0  0  0  0
  195.2870  176.6680  144.6630 C   0  0  0  0  0  2  0  0  0  0  0  0
  197.1300  174.5030  144.5650 C   0  0  0  0  0  2  0  0  0  0  0  0
  195.3720  175.4510  145.5980 C   0  0  1  0  0  3  0  0  0  0  0  0
  195.9900  176.4060  143.3270 C   0  0  0  0  0  2  0  0  0  0  0  0
  1  2  2  0  0  0  0
  1 34  1  0  0  0  0
  3  2  1  0  0  0  0
  4  3  2  0  0  0  0
  5 13  1  6  0  0  0
  5  6  1  0  0  0  0
  5  3  1  0  0  0  0
  6  1  1  0  0  0  0
  7  8  1  0  0  0  0
  7  4  1  0  0  0  0
 10  9  1  0  0  0  0
 10  8  1  0  0  0  0
 11 10  1  0  0  0  0
 12 10  1  0  0  0  0
 14 17  1  0  0  0  0
 14 20  1  0  0  0  0
 15 19  1  0  0  0  0
 16 13  1  0  0  0  0
 17 16  1  0  0  0  0
 18 20  1  0  0  0  0
 18 15  1  0  0  0  0
 19 16  1  0  0  0  0
 20 21  1  6  0  0  0
 22 21  2  0  0  0  0
 24 23  1  0  0  0  0
 25 28  1  6  0  0  0
 25 27  1  0  0  0  0
 25 24  1  0  0  0  0
 26 23  1  0  0  0  0
 27 22  1  1  0  0  0
 27 26  1  0  0  0  0
 28 29  1  6  0  0  0
 30 31  1  0  0  0  0
 30 28  1  0  0  0  0
 30 32  1  0  0  0  0
 33 30  2  0  0  0  0
 35 34  1  0  0  0  0
 36 35  1  0  0  0  0
 37 41  1  0  0  0  0
 38 40  1  0  0  0  0
 39 41  1  0  0  0  0
 40 37  1  0  0  0  0
 41 36  1  6  0  0  0
 42 38  1  0  0  0  0
 42 39  1  0  0  0  0
M  END
>  <MODEL>
8

>  <REMARK>
 VINA RESULT:      -6.6      3.152      5.414
  Name = 
  13 active torsions:
  status: ('A' for Active; 'I' for Inactive)
    1  A    between atoms: P_2  and  C_22
    2  A    between atoms: C_5  and  C_41
    3  A    between atoms: C_7  and  C_32
    4  A    between atoms: C_9  and  C_29
    5  A    between atoms: C_10  and  C_22
    6  A    between atoms: N_12  and  C_17
    7  A    between atoms: N_14  and  C_31
    8  A    between atoms: N_23  and  C_28
    9  A    between atoms: C_24  and  C_37
   10  A    between atoms: C_24  and  C_38
   11  A    between atoms: C_25  and  C_31
   12  A    between atoms: C_28  and  C_29
   13  A    between atoms: C_32  and  C_37
                            x       y       z     vdW  Elec       q    Type
                         _______ _______ _______ _____ _____    ______ ____

>  <TORSDO>
F 13

$$$$
=
 OpenBabel11042415293D

 42 45  0  0  1  0  0  0  0  0999 V2000
  189.9040  175.8650  147.2620 C   0  0  0  0  0  0  0  0  0  0  0  0
  189.2380  176.9530  147.5960 C   0  0  0  0  0  3  0  0  0  0  0  0
  188.0510  177.0210  146.7730 C   0  0  0  0  0  0  0  0  0  0  0  0
  187.1420  177.9330  146.9230 N   0  0  0  0  0  0  0  0  0  0  0  0
  187.9940  175.8860  145.8060 C   0  0  2  0  0  3  0  0  0  0  0  0
  189.2300  175.0680  146.1820 C   0  0  0  0  0  2  0  0  0  0  0  0
  185.9240  177.9770  146.1260 C   0  0  0  0  0  2  0  0  0  0  0  0
  185.5760  179.4180  145.7790 C   0  0  0  0  0  2  0  0  0  0  0  0
  185.9460  178.6700  143.5410 F   0  0  0  0  0  0  0  0  0  0  0  0
  185.2450  179.5890  144.3020 C   0  0  0  0  0  0  0  0  0  0  0  0
  183.8910  179.3810  144.1190 F   0  0  0  0  0  0  0  0  0  0  0  0
  185.5640  180.8700  143.8890 F   0  0  0  0  0  0  0  0  0  0  0  0
  188.1420  176.4050  144.3820 C   0  0  0  0  0  2  0  0  0  0  0  0
  190.6730  174.7880  142.3220 C   0  0  0  0  0  2  0  0  0  0  0  0
  191.5780  177.5860  143.8430 C   0  0  0  0  0  2  0  0  0  0  0  0
  189.5160  176.2540  143.9370 N   0  0  0  0  0  0  0  0  0  0  0  0
  189.4580  175.6760  142.6020 C   0  0  0  0  0  2  0  0  0  0  0  0
  192.1840  176.8060  142.6800 C   0  0  0  0  0  2  0  0  0  0  0  0
  190.0540  177.6000  143.7820 C   0  0  0  0  0  2  0  0  0  0  0  0
  191.9950  175.3070  142.8980 C   0  0  2  0  0  3  0  0  0  0  0  0
  193.1230  174.5520  142.2820 C   0  0  0  0  0  3  0  0  0  0  0  0
  193.5440  174.8540  141.1070 N   0  0  0  0  0  0  0  0  0  0  0  0
  196.3040  175.2830  139.1560 C   0  0  0  0  0  2  0  0  0  0  0  0
  195.6040  174.2720  138.2770 C   0  0  0  0  0  2  0  0  0  0  0  0
  194.3400  173.9120  139.0310 C   0  0  2  0  0  3  0  0  0  0  0  0
  195.9210  174.9280  140.5800 C   0  0  0  0  0  2  0  0  0  0  0  0
  194.6290  174.1230  140.5060 C   0  0  1  0  0  3  0  0  0  0  0  0
  193.8110  172.5070  138.7230 C   0  0  1  0  0  3  0  0  0  0  0  0
  193.9140  171.6980  139.8550 O   0  0  0  0  0  1  0  0  0  0  0  0
  192.0950  172.4700  138.0910 P   0  0  0  0  0  0  0  0  0  0  0  0
  191.2280  171.2170  138.8270 O   0  0  0  0  0  1  0  0  0  0  0  0
  191.4100  173.7870  138.3690 O   0  0  0  0  0  1  0  0  0  0  0  0
  192.1320  172.2070  136.4200 O   0  0  0  0  0  0  0  0  0  0  0  0
  191.1920  175.4980  147.9290 C   0  0  0  0  0  2  0  0  0  0  0  0
  192.3000  175.2060  146.9300 C   0  0  0  0  0  2  0  0  0  0  0  0
  193.2170  176.4090  146.7840 C   0  0  0  0  0  2  0  0  0  0  0  0
  194.4880  174.7280  145.6220 O   0  0  0  0  0  0  0  0  0  0  0  0
  196.4690  175.1790  144.2800 C   0  0  0  0  0  2  0  0  0  0  0  0
  195.0360  177.0580  145.1990 C   0  0  0  0  0  2  0  0  0  0  0  0
  195.8160  174.3280  145.3820 C   0  0  0  0  0  2  0  0  0  0  0  0
  194.5680  176.0030  146.2140 C   0  0  1  0  0  3  0  0  0  0  0  0
  195.6240  176.4110  143.9410 C   0  0  0  0  0  2  0  0  0  0  0  0
  1  2  2  0  0  0  0
  1 34  1  0  0  0  0
  3  4  2  0  0  0  0
  3  2  1  0  0  0  0
  5 13  1  6  0  0  0
  5  6  1  0  0  0  0
  5  3  1  0  0  0  0
  6  1  1  0  0  0  0
  7  4  1  0  0  0  0
  8  7  1  0  0  0  0
  9 10  1  0  0  0  0
 10  8  1  0  0  0  0
 11 10  1  0  0  0  0
 12 10  1  0  0  0  0
 14 17  1  0  0  0  0
 14 20  1  0  0  0  0
 16 13  1  0  0  0  0
 17 16  1  0  0  0  0
 18 20  1  0  0  0  0
 18 15  1  0  0  0  0
 19 15  1  0  0  0  0
 19 16  1  0  0  0  0
 20 21  1  6  0  0  0
 22 21  2  0  0  0  0
 23 26  1  0  0  0  0
 24 25  1  0  0  0  0
 24 23  1  0  0  0  0
 25 28  1  1  0  0  0
 25 27  1  0  0  0  0
 27 26  1  0  0  0  0
 27 22  1  6  0  0  0
 28 29  1  1  0  0  0
 30 32  1  0  0  0  0
 30 28  1  0  0  0  0
 30 31  1  0  0  0  0
 33 30  2  0  0  0  0
 35 34  1  0  0  0  0
 36 35  1  0  0  0  0
 37 41  1  0  0  0  0
 38 40  1  0  0  0  0
 39 41  1  0  0  0  0
 40 37  1  0  0  0  0
 41 36  1  6  0  0  0
 42 38  1  0  0  0  0
 42 39  1  0  0  0  0
M  END
>  <MODEL>
9

>  <REMARK>
 VINA RESULT:      -6.6      3.450      5.466
  Name = 
  13 active torsions:
  status: ('A' for Active; 'I' for Inactive)
    1  A    between atoms: P_2  and  C_22
    2  A    between atoms: C_5  and  C_41
    3  A    between atoms: C_7  and  C_32
    4  A    between atoms: C_9  and  C_29
    5  A    between atoms: C_10  and  C_22
    6  A    between atoms: N_12  and  C_17
    7  A    between atoms: N_14  and  C_31
    8  A    between atoms: N_23  and  C_28
    9  A    between atoms: C_24  and  C_37
   10  A    between atoms: C_24  and  C_38
   11  A    between atoms: C_25  and  C_31
   12  A    between atoms: C_28  and  C_29
   13  A    between atoms: C_32  and  C_37
                            x       y       z     vdW  Elec       q    Type
                         _______ _______ _______ _____ _____    ______ ____

>  <TORSDO>
F 13

$$$$
