=
 OpenBabel11042418063D

 65 72  0  0  1  0  0  0  0  0999 V2000
  190.6110  172.2700  138.2740 C   0  0  2  0  0  3  0  0  0  0  0  0
  189.3290  172.2920  139.0990 C   0  0  0  0  0  2  0  0  0  0  0  0
  189.1470  173.6400  139.7750 C   0  0  0  0  0  2  0  0  0  0  0  0
  189.1110  173.4540  141.2790 C   0  0  0  0  0  2  0  0  0  0  0  0
  187.8590  173.9760  141.8070 N   0  0  0  0  0  2  0  0  0  0  0  0
  188.1500  175.0940  142.6960 C   0  0  1  0  0  0  0  0  0  0  0  0
  188.9310  174.6430  143.8520 N   0  0  0  0  0  2  0  0  0  0  0  0
  189.5210  175.5580  142.8560 C   0  0  0  0  0  2  0  0  0  0  0  0
  187.0370  175.9400  143.1230 N   0  0  0  0  0  0  0  0  0  0  0  0
  186.4260  176.8100  142.3750 C   0  0  0  0  0  0  0  0  0  0  0  0
  185.2490  178.1370  144.2600 N   0  0  0  0  0  0  0  0  0  0  0  0
  184.2270  177.9610  142.2940 C   0  0  0  0  0  3  0  0  0  0  0  0
  186.3220  178.1650  145.2390 C   0  0  0  0  0  1  0  0  0  0  0  0
  183.4700  178.7230  143.1770 O   0  0  0  0  0  0  0  0  0  0  0  0
  185.3180  177.6080  142.9430 C   0  0  0  0  0  0  0  0  0  0  0  0
  184.0730  178.8840  144.4120 N   0  0  0  0  0  2  0  0  0  0  0  0
  187.8700  178.0970  140.9230 N   0  0  0  0  0  1  0  0  0  0  0  0
  186.8590  177.0550  140.9580 C   0  0  0  0  0  2  0  0  0  0  0  0
  191.8110  172.3360  139.2080 C   0  0  0  0  0  2  0  0  0  0  0  0
  191.8510  171.1090  140.1060 C   0  0  0  0  0  2  0  0  0  0  0  0
  192.4510  170.4890  142.3970 C   0  0  0  0  0  0  0  0  0  0  0  0
  192.4930  173.0600  144.1400 C   0  0  0  0  0  0  0  0  0  0  0  0
  192.0930  169.2220  142.0510 F   0  0  0  0  0  0  0  0  0  0  0  0
  192.5910  171.7970  144.5430 C   0  0  0  0  0  3  0  0  0  0  0  0
  192.8770  173.5300  142.8050 C   0  0  0  0  0  3  0  0  0  0  0  0
  192.9850  170.7040  143.7110 N   0  0  0  0  0  0  0  0  0  0  0  0
  192.3690  171.4550  141.4680 C   0  0  0  0  0  0  0  0  0  0  0  0
  192.8250  172.8430  141.6660 C   0  0  0  0  0  3  0  0  0  0  0  0
  192.1260  174.0510  145.1120 C   0  0  0  0  0  0  0  0  0  0  0  0
  191.8210  174.8870  145.9270 C   0  0  0  0  0  0  0  0  0  0  0  0
  191.4810  175.8340  146.8520 O   0  0  0  0  0  0  0  0  0  0  0  0
  190.1200  176.1120  147.1490 C   0  0  0  0  0  2  0  0  0  0  0  0
  189.3480  174.8220  147.3670 C   0  0  0  0  0  1  0  0  0  0  0  0
  193.6160  169.5820  144.3850 C   0  0  0  0  0  2  0  0  0  0  0  0
  194.5920  170.1030  145.4360 C   0  0  0  0  0  2  0  0  0  0  0  0
  196.9590  169.1280  144.8710 C   0  0  0  0  0  2  0  0  0  0  0  0
  197.1320  170.1940  145.9500 C   0  0  0  0  0  2  0  0  0  0  0  0
  196.0230  170.3180  144.9290 C   0  0  0  0  0  0  0  0  0  0  0  0
  196.5410  172.2600  141.9450 N   0  0  0  0  0  0  0  0  0  0  0  0
  196.2240  172.6860  144.1010 N   0  0  0  0  0  0  0  0  0  0  0  0
  196.0610  173.4540  145.3300 C   0  0  0  0  0  2  0  0  0  0  0  0
  196.4040  174.6880  142.6630 C   0  0  0  0  0  2  0  0  0  0  0  0
  196.3730  176.7900  143.7010 C   0  0  0  0  0  1  0  0  0  0  0  0
  196.4360  173.2110  142.8900 C   0  0  0  0  0  0  0  0  0  0  0  0
  196.4290  171.0920  142.5730 N   0  0  0  0  0  0  0  0  0  0  0  0
  195.7610  174.9180  144.9730 C   0  0  0  0  0  2  0  0  0  0  0  0
  196.6790  175.3890  143.9250 N   0  0  0  0  0  0  0  0  0  0  0  0
  196.2550  171.3610  143.8840 C   0  0  0  0  0  0  0  0  0  0  0  0
  190.6570  173.4670  137.3370 C   0  0  0  0  0  2  0  0  0  0  0  0
  191.8800  174.2250  137.5450 N   0  0  0  0  0  2  0  0  0  0  0  0
  193.2490  177.0460  136.0540 O   0  0  0  0  0  1  0  0  0  0  0  0
  194.5270  175.0900  135.5660 C   0  0  2  0  0  3  0  0  0  0  0  0
  193.4530  175.7230  136.4460 C   0  0  2  0  0  3  0  0  0  0  0  0
  192.2780  173.9700  135.1690 C   0  0  0  0  0  2  0  0  0  0  0  0
  193.9950  173.4060  135.1310 S   0  0  0  0  0  0  0  0  0  0  0  0
  192.1470  174.9510  136.3140 C   0  0  1  0  0  3  0  0  0  0  0  0
  197.9180  173.2110  138.4610 C   0  0  0  0  0  1  0  0  0  0  0  0
  196.0510  174.5910  137.5530 N   0  0  0  0  0  0  0  0  0  0  0  0
  195.5620  173.9840  138.8290 C   0  0  0  0  0  0  0  0  0  0  0  0
  196.9050  174.3050  138.7520 C   0  0  0  0  0  0  0  0  0  0  0  0
  195.8800  175.0830  136.2250 C   0  0  0  0  0  0  0  0  0  0  0  0
  197.4030  175.5890  139.3960 C   0  0  0  0  0  1  0  0  0  0  0  0
  196.8660  175.5950  135.6330 O   0  0  0  0  0  0  0  0  0  0  0  0
  195.1570  172.6590  138.6590 O   0  0  0  0  0  1  0  0  0  0  0  0
  194.6850  174.8320  139.5090 O   0  0  0  0  0  1  0  0  0  0  0  0
  1 49  1  6  0  0  0
  1  2  1  0  0  0  0
  1 19  1  0  0  0  0
  2  3  1  0  0  0  0
  3  4  1  0  0  0  0
  4  5  1  0  0  0  0
  6  5  1  6  0  0  0
  6  8  1  0  0  0  0
  6  9  1  0  0  0  0
  6  7  1  0  0  0  0
  8  7  1  0  0  0  0
 10 15  1  0  0  0  0
 10  9  2  0  0  0  0
 11 16  1  0  0  0  0
 11 13  1  0  0  0  0
 12 15  2  0  0  0  0
 12 14  1  0  0  0  0
 14 16  1  0  0  0  0
 15 11  1  0  0  0  0
 17 18  1  0  0  0  0
 18 10  1  0  0  0  0
 19 20  1  0  0  0  0
 20 27  1  0  0  0  0
 21 26  1  0  0  0  0
 22 24  2  0  0  0  0
 22 29  1  0  0  0  0
 23 21  1  0  0  0  0
 25 22  1  0  0  0  0
 26 34  1  0  0  0  0
 26 24  1  0  0  0  0
 27 28  1  0  0  0  0
 27 21  2  0  0  0  0
 28 25  2  0  0  0  0
 29 30  3  0  0  0  0
 30 31  1  0  0  0  0
 31 32  1  0  0  0  0
 32 33  1  0  0  0  0
 34 35  1  0  0  0  0
 36 38  1  0  0  0  0
 36 37  1  0  0  0  0
 38 35  1  0  0  0  0
 38 37  1  0  0  0  0
 39 45  1  0  0  0  0
 39 44  2  0  0  0  0
 40 41  1  0  0  0  0
 42 44  1  0  0  0  0
 42 47  1  0  0  0  0
 43 47  1  0  0  0  0
 44 40  1  0  0  0  0
 45 48  2  0  0  0  0
 46 41  1  0  0  0  0
 47 46  1  0  0  0  0
 48 40  1  0  0  0  0
 48 38  1  0  0  0  0
 49 50  1  0  0  0  0
 52 61  1  1  0  0  0
 52 53  1  0  0  0  0
 53 51  1  6  0  0  0
 54 56  1  0  0  0  0
 55 54  1  0  0  0  0
 55 52  1  0  0  0  0
 56 53  1  0  0  0  0
 56 50  1  1  0  0  0
 57 60  1  0  0  0  0
 58 60  1  0  0  0  0
 58 59  1  0  0  0  0
 59 65  1  0  0  0  0
 60 59  1  0  0  0  0
 60 62  1  0  0  0  0
 61 58  1  0  0  0  0
 63 61  2  0  0  0  0
 64 59  1  0  0  0  0
M  END
>  <MODEL>
1

>  <REMARK>
 VINA RESULT:      -6.1      0.000      0.000
  Name = 
  22 active torsions:
  status: ('A' for Active; 'I' for Inactive)
    1  A    between atoms: C_2  and  C_36
    2  A    between atoms: C_8  and  C_9
    3  A    between atoms: C_10  and  O_32
    4  A    between atoms: C_11  and  C_27
    5  A    between atoms: C_11  and  C_48
    6  A    between atoms: C_12  and  C_33
    7  A    between atoms: C_12  and  C_50
    8  A    between atoms: C_14  and  C_43
    9  A    between atoms: C_14  and  C_52
   10  A    between atoms: C_18  and  C_21
   11  A    between atoms: C_18  and  N_54
   12  A    between atoms: N_20  and  C_29
   13  A    between atoms: C_21  and  C_50
   14  A    between atoms: C_21  and  C_52
   15  A    between atoms: C_27  and  C_62
   16  A    between atoms: C_29  and  N_58
   17  A    between atoms: O_32  and  C_40
   18  A    between atoms: C_33  and  N_58
   19  A    between atoms: N_39  and  C_48
   20  A    between atoms: C_42  and  N_54
   21  A    between atoms: C_46  and  C_57
   22  A    between atoms: C_57  and  C_60
                            x       y       z     vdW  Elec       q    Type
                         _______ _______ _______ _____ _____    ______ ____

>  <TORSDO>
F 22

$$$$
=
 OpenBabel11042418063D

 65 72  0  0  1  0  0  0  0  0999 V2000
  192.8550  171.4900  141.2840 C   0  0  2  0  0  3  0  0  0  0  0  0
  193.9410  170.4730  141.6170 C   0  0  0  0  0  2  0  0  0  0  0  0
  193.4860  169.5450  142.7300 C   0  0  0  0  0  2  0  0  0  0  0  0
  194.2740  169.8400  143.9910 C   0  0  0  0  0  2  0  0  0  0  0  0
  195.2670  170.8700  143.7190 N   0  0  0  0  0  2  0  0  0  0  0  0
  195.6130  171.5350  144.9690 C   0  0  1  0  0  0  0  0  0  0  0  0
  195.4250  170.6270  146.1050 N   0  0  0  0  0  2  0  0  0  0  0  0
  196.7740  171.0940  145.7300 C   0  0  0  0  0  2  0  0  0  0  0  0
  195.0090  172.8370  145.2440 N   0  0  0  0  0  0  0  0  0  0  0  0
  195.5180  173.9860  144.9130 C   0  0  0  0  0  0  0  0  0  0  0  0
  194.0670  176.0600  144.3750 N   0  0  0  0  0  0  0  0  0  0  0  0
  194.7230  175.7450  146.4750 C   0  0  0  0  0  3  0  0  0  0  0  0
  193.7190  175.7580  142.9970 C   0  0  0  0  0  1  0  0  0  0  0  0
  193.9350  176.8860  146.3700 O   0  0  0  0  0  0  0  0  0  0  0  0
  194.8010  175.2300  145.2650 C   0  0  0  0  0  0  0  0  0  0  0  0
  193.4800  177.1170  145.0830 N   0  0  0  0  0  2  0  0  0  0  0  0
  196.6680  173.9790  142.7850 N   0  0  0  0  0  1  0  0  0  0  0  0
  196.8490  174.0750  144.2230 C   0  0  0  0  0  2  0  0  0  0  0  0
  192.0770  171.0130  140.0650 C   0  0  0  0  0  2  0  0  0  0  0  0
  190.6410  170.6890  140.4470 C   0  0  0  0  0  2  0  0  0  0  0  0
  189.7350  172.9330  140.8130 C   0  0  0  0  0  0  0  0  0  0  0  0
  189.9860  173.6240  143.8310 C   0  0  0  0  0  0  0  0  0  0  0  0
  189.8950  173.1180  139.4740 F   0  0  0  0  0  0  0  0  0  0  0  0
  189.6320  174.4290  142.8360 C   0  0  0  0  0  3  0  0  0  0  0  0
  189.8140  172.1670  143.8140 C   0  0  0  0  0  3  0  0  0  0  0  0
  189.1300  173.9900  141.5720 N   0  0  0  0  0  0  0  0  0  0  0  0
  190.0700  171.7460  141.3420 C   0  0  0  0  0  0  0  0  0  0  0  0
  189.8480  171.3680  142.7500 C   0  0  0  0  0  3  0  0  0  0  0  0
  190.4310  174.2230  145.0580 C   0  0  0  0  0  0  0  0  0  0  0  0
  190.8030  174.7310  146.0870 C   0  0  0  0  0  0  0  0  0  0  0  0
  191.2270  175.3110  147.2510 O   0  0  0  0  0  0  0  0  0  0  0  0
  190.6820  176.5460  147.6930 C   0  0  0  0  0  2  0  0  0  0  0  0
  190.2740  177.4040  146.5080 C   0  0  0  0  0  1  0  0  0  0  0  0
  188.2530  174.9170  140.8760 C   0  0  0  0  0  2  0  0  0  0  0  0
  187.2060  175.4540  141.8470 C   0  0  0  0  0  2  0  0  0  0  0  0
  187.0110  177.5540  140.2900 C   0  0  0  0  0  2  0  0  0  0  0  0
  188.0290  177.8690  141.3830 C   0  0  0  0  0  2  0  0  0  0  0  0
  186.8700  176.9390  141.6670 C   0  0  0  0  0  0  0  0  0  0  0  0
  183.8590  178.2650  143.1230 N   0  0  0  0  0  0  0  0  0  0  0  0
  185.8980  177.7540  143.8400 N   0  0  0  0  0  0  0  0  0  0  0  0
  187.0200  177.5930  144.7570 C   0  0  0  0  0  2  0  0  0  0  0  0
  184.3500  178.5540  145.5940 C   0  0  0  0  0  2  0  0  0  0  0  0
  185.1990  178.8330  147.7610 C   0  0  0  0  0  1  0  0  0  0  0  0
  184.6970  178.2380  144.1740 C   0  0  0  0  0  0  0  0  0  0  0  0
  184.5530  177.8200  142.0780 N   0  0  0  0  0  0  0  0  0  0  0  0
  186.5050  177.6650  146.2020 C   0  0  0  0  0  2  0  0  0  0  0  0
  185.5800  178.7980  146.3610 N   0  0  0  0  0  0  0  0  0  0  0  0
  185.7950  177.5300  142.5200 C   0  0  0  0  0  0  0  0  0  0  0  0
  193.4750  172.8420  140.9670 C   0  0  0  0  0  2  0  0  0  0  0  0
  193.9190  172.8830  139.5830 N   0  0  0  0  0  2  0  0  0  0  0  0
  197.3560  173.3090  139.3430 O   0  0  0  0  0  1  0  0  0  0  0  0
  196.2460  173.9940  137.3440 C   0  0  2  0  0  3  0  0  0  0  0  0
  196.1440  173.2260  138.6580 C   0  0  2  0  0  3  0  0  0  0  0  0
  194.5740  175.1130  138.9000 C   0  0  0  0  0  2  0  0  0  0  0  0
  194.7080  174.9350  137.1060 S   0  0  0  0  0  0  0  0  0  0  0  0
  195.0360  173.8120  139.5210 C   0  0  1  0  0  3  0  0  0  0  0  0
  195.3430  170.1710  134.5200 C   0  0  0  0  0  1  0  0  0  0  0  0
  196.2990  171.6860  136.2520 N   0  0  0  0  0  0  0  0  0  0  0  0
  195.8740  170.4370  136.9540 C   0  0  0  0  0  0  0  0  0  0  0  0
  196.3390  170.3100  135.6580 C   0  0  0  0  0  0  0  0  0  0  0  0
  196.5230  173.0930  136.1710 C   0  0  0  0  0  0  0  0  0  0  0  0
  197.7680  169.8490  135.4210 C   0  0  0  0  0  1  0  0  0  0  0  0
  197.0400  173.5680  135.1260 O   0  0  0  0  0  0  0  0  0  0  0  0
  194.5000  170.4160  137.2010 O   0  0  0  0  0  1  0  0  0  0  0  0
  196.7140  170.1270  138.0260 O   0  0  0  0  0  1  0  0  0  0  0  0
  1 19  1  6  0  0  0
  1  2  1  0  0  0  0
  2  3  1  0  0  0  0
  3  4  1  0  0  0  0
  5  4  1  0  0  0  0
  6  5  1  6  0  0  0
  6  9  1  0  0  0  0
  6  8  1  0  0  0  0
  6  7  1  0  0  0  0
  8  7  1  0  0  0  0
 10  9  2  0  0  0  0
 10 15  1  0  0  0  0
 11 16  1  0  0  0  0
 11 15  1  0  0  0  0
 13 11  1  0  0  0  0
 14 12  1  0  0  0  0
 15 12  2  0  0  0  0
 16 14  1  0  0  0  0
 17 18  1  0  0  0  0
 18 10  1  0  0  0  0
 19 20  1  0  0  0  0
 20 27  1  0  0  0  0
 21 27  2  0  0  0  0
 21 26  1  0  0  0  0
 22 29  1  0  0  0  0
 23 21  1  0  0  0  0
 24 22  2  0  0  0  0
 25 22  1  0  0  0  0
 26 24  1  0  0  0  0
 27 28  1  0  0  0  0
 28 25  2  0  0  0  0
 29 30  3  0  0  0  0
 30 31  1  0  0  0  0
 31 32  1  0  0  0  0
 33 32  1  0  0  0  0
 34 26  1  0  0  0  0
 34 35  1  0  0  0  0
 36 37  1  0  0  0  0
 36 38  1  0  0  0  0
 37 38  1  0  0  0  0
 38 35  1  0  0  0  0
 38 48  1  0  0  0  0
 39 44  2  0  0  0  0
 40 44  1  0  0  0  0
 40 41  1  0  0  0  0
 41 46  1  0  0  0  0
 42 47  1  0  0  0  0
 44 42  1  0  0  0  0
 45 48  2  0  0  0  0
 45 39  1  0  0  0  0
 46 47  1  0  0  0  0
 47 43  1  0  0  0  0
 48 40  1  0  0  0  0
 49  1  1  0  0  0  0
 50 49  1  0  0  0  0
 52 61  1  6  0  0  0
 52 53  1  0  0  0  0
 53 51  1  1  0  0  0
 53 56  1  0  0  0  0
 54 56  1  0  0  0  0
 55 52  1  0  0  0  0
 55 54  1  0  0  0  0
 56 50  1  6  0  0  0
 57 60  1  0  0  0  0
 58 59  1  0  0  0  0
 59 64  1  0  0  0  0
 59 65  1  0  0  0  0
 60 58  1  0  0  0  0
 60 59  1  0  0  0  0
 61 58  1  0  0  0  0
 62 60  1  0  0  0  0
 63 61  2  0  0  0  0
M  END
>  <MODEL>
2

>  <REMARK>
 VINA RESULT:      -5.5      2.455      7.862
  Name = 
  22 active torsions:
  status: ('A' for Active; 'I' for Inactive)
    1  A    between atoms: C_2  and  C_36
    2  A    between atoms: C_8  and  C_9
    3  A    between atoms: C_10  and  O_32
    4  A    between atoms: C_11  and  C_27
    5  A    between atoms: C_11  and  C_48
    6  A    between atoms: C_12  and  C_33
    7  A    between atoms: C_12  and  C_50
    8  A    between atoms: C_14  and  C_43
    9  A    between atoms: C_14  and  C_52
   10  A    between atoms: C_18  and  C_21
   11  A    between atoms: C_18  and  N_54
   12  A    between atoms: N_20  and  C_29
   13  A    between atoms: C_21  and  C_50
   14  A    between atoms: C_21  and  C_52
   15  A    between atoms: C_27  and  C_62
   16  A    between atoms: C_29  and  N_58
   17  A    between atoms: O_32  and  C_40
   18  A    between atoms: C_33  and  N_58
   19  A    between atoms: N_39  and  C_48
   20  A    between atoms: C_42  and  N_54
   21  A    between atoms: C_46  and  C_57
   22  A    between atoms: C_57  and  C_60
                            x       y       z     vdW  Elec       q    Type
                         _______ _______ _______ _____ _____    ______ ____

>  <TORSDO>
F 22

$$$$
=
 OpenBabel11042418063D

 65 72  0  0  1  0  0  0  0  0999 V2000
  189.2750  172.2470  139.1110 C   0  0  2  0  0  3  0  0  0  0  0  0
  188.6690  173.5950  139.4810 C   0  0  0  0  0  2  0  0  0  0  0  0
  188.8330  173.8700  140.9660 C   0  0  0  0  0  2  0  0  0  0  0  0
  188.3660  175.2790  141.2760 C   0  0  0  0  0  2  0  0  0  0  0  0
  189.0300  175.7610  142.4790 N   0  0  0  0  0  2  0  0  0  0  0  0
  188.6200  177.1380  142.7250 C   0  0  1  0  0  0  0  0  0  0  0  0
  189.7080  178.0660  142.4000 N   0  0  0  0  0  2  0  0  0  0  0  0
  188.4620  178.0610  141.6100 C   0  0  0  0  0  2  0  0  0  0  0  0
  188.0410  177.4590  144.0290 N   0  0  0  0  0  0  0  0  0  0  0  0
  186.8370  177.1530  144.4100 C   0  0  0  0  0  0  0  0  0  0  0  0
  185.7490  178.7770  146.1080 N   0  0  0  0  0  0  0  0  0  0  0  0
  186.4700  176.8070  146.8420 C   0  0  0  0  0  3  0  0  0  0  0  0
  185.2660  179.7940  145.1890 C   0  0  0  0  0  1  0  0  0  0  0  0
  185.8950  177.5380  147.8750 O   0  0  0  0  0  0  0  0  0  0  0  0
  186.3770  177.5510  145.7590 C   0  0  0  0  0  0  0  0  0  0  0  0
  185.4070  178.7670  147.4660 N   0  0  0  0  0  2  0  0  0  0  0  0
  185.0510  177.4170  142.8010 N   0  0  0  0  0  1  0  0  0  0  0  0
  185.8860  176.4470  143.4870 C   0  0  0  0  0  2  0  0  0  0  0  0
  190.6970  172.1700  139.6490 C   0  0  0  0  0  2  0  0  0  0  0  0
  190.8030  171.0890  140.7140 C   0  0  0  0  0  2  0  0  0  0  0  0
  192.1320  170.5890  142.7080 C   0  0  0  0  0  0  0  0  0  0  0  0
  192.6830  173.2440  144.2230 C   0  0  0  0  0  0  0  0  0  0  0  0
  191.7090  169.3040  142.5570 F   0  0  0  0  0  0  0  0  0  0  0  0
  192.9360  172.0050  144.6290 C   0  0  0  0  0  3  0  0  0  0  0  0
  192.6000  173.6500  142.8160 C   0  0  0  0  0  3  0  0  0  0  0  0
  193.0610  170.8740  143.7640 N   0  0  0  0  0  0  0  0  0  0  0  0
  191.7300  171.5060  141.8150 C   0  0  0  0  0  0  0  0  0  0  0  0
  192.1940  172.9060  141.7890 C   0  0  0  0  0  3  0  0  0  0  0  0
  192.6320  174.2810  145.2150 C   0  0  0  0  0  0  0  0  0  0  0  0
  192.5930  175.1510  146.0500 C   0  0  0  0  0  0  0  0  0  0  0  0
  192.5500  176.1330  147.0010 O   0  0  0  0  0  0  0  0  0  0  0  0
  191.3570  176.3990  147.7250 C   0  0  0  0  0  2  0  0  0  0  0  0
  190.1890  176.5950  146.7740 C   0  0  0  0  0  1  0  0  0  0  0  0
  193.9030  169.7910  144.2450 C   0  0  0  0  0  2  0  0  0  0  0  0
  194.5840  170.2140  145.5430 C   0  0  0  0  0  2  0  0  0  0  0  0
  196.9420  169.5360  144.6200 C   0  0  0  0  0  2  0  0  0  0  0  0
  197.0210  169.5620  146.1440 C   0  0  0  0  0  2  0  0  0  0  0  0
  196.0840  170.5000  145.4140 C   0  0  0  0  0  0  0  0  0  0  0  0
  197.3220  173.8170  146.0520 N   0  0  0  0  0  0  0  0  0  0  0  0
  196.6790  172.6600  144.2690 N   0  0  0  0  0  0  0  0  0  0  0  0
  196.3840  172.3570  142.8730 C   0  0  0  0  0  2  0  0  0  0  0  0
  197.5130  174.9360  143.7840 C   0  0  0  0  0  2  0  0  0  0  0  0
  197.4090  175.6930  141.5680 C   0  0  0  0  0  1  0  0  0  0  0  0
  197.1370  173.8320  144.7200 C   0  0  0  0  0  0  0  0  0  0  0  0
  196.9400  172.6130  146.4700 N   0  0  0  0  0  0  0  0  0  0  0  0
  197.0510  173.4120  141.9770 C   0  0  0  0  0  2  0  0  0  0  0  0
  196.8080  174.7620  142.5060 N   0  0  0  0  0  0  0  0  0  0  0  0
  196.5340  171.9250  145.3830 C   0  0  0  0  0  0  0  0  0  0  0  0
  189.3170  172.0820  137.6000 C   0  0  0  0  0  2  0  0  0  0  0  0
  190.5950  171.5250  137.1870 N   0  0  0  0  0  2  0  0  0  0  0  0
  190.5200  174.1720  134.9420 O   0  0  0  0  0  1  0  0  0  0  0  0
  192.7590  173.5560  135.4950 C   0  0  2  0  0  3  0  0  0  0  0  0
  191.2800  173.4460  135.8570 C   0  0  2  0  0  3  0  0  0  0  0  0
  191.9510  171.1610  135.2130 C   0  0  0  0  0  2  0  0  0  0  0  0
  193.5230  171.9170  135.6880 S   0  0  0  0  0  0  0  0  0  0  0  0
  190.8440  171.9870  135.8310 C   0  0  1  0  0  3  0  0  0  0  0  0
  196.5340  175.2230  138.0200 C   0  0  0  0  0  1  0  0  0  0  0  0
  194.3430  174.2200  137.3850 N   0  0  0  0  0  0  0  0  0  0  0  0
  195.0390  173.2260  138.2590 C   0  0  0  0  0  0  0  0  0  0  0  0
  195.2590  174.5660  138.5200 C   0  0  0  0  0  0  0  0  0  0  0  0
  193.4750  174.5940  136.3160 C   0  0  0  0  0  0  0  0  0  0  0  0
  194.5050  175.2370  139.6560 C   0  0  0  0  0  1  0  0  0  0  0  0
  193.2460  175.8160  136.1170 O   0  0  0  0  0  0  0  0  0  0  0  0
  195.9970  172.4910  137.5580 O   0  0  0  0  0  1  0  0  0  0  0  0
  194.1410  172.5040  139.0480 O   0  0  0  0  0  1  0  0  0  0  0  0
  1 49  1  6  0  0  0
  1  2  1  0  0  0  0
  1 19  1  0  0  0  0
  2  3  1  0  0  0  0
  3  4  1  0  0  0  0
  4  5  1  0  0  0  0
  6  5  1  6  0  0  0
  6  9  1  0  0  0  0
  7  6  1  0  0  0  0
  8  7  1  0  0  0  0
  8  6  1  0  0  0  0
  9 10  2  0  0  0  0
 10 15  1  0  0  0  0
 11 16  1  0  0  0  0
 12 14  1  0  0  0  0
 13 11  1  0  0  0  0
 15 11  1  0  0  0  0
 15 12  2  0  0  0  0
 16 14  1  0  0  0  0
 17 18  1  0  0  0  0
 18 10  1  0  0  0  0
 19 20  1  0  0  0  0
 20 27  1  0  0  0  0
 21 26  1  0  0  0  0
 22 24  2  0  0  0  0
 22 29  1  0  0  0  0
 23 21  1  0  0  0  0
 25 22  1  0  0  0  0
 26 34  1  0  0  0  0
 26 24  1  0  0  0  0
 27 21  2  0  0  0  0
 28 27  1  0  0  0  0
 28 25  2  0  0  0  0
 29 30  3  0  0  0  0
 30 31  1  0  0  0  0
 31 32  1  0  0  0  0
 33 32  1  0  0  0  0
 34 35  1  0  0  0  0
 36 38  1  0  0  0  0
 36 37  1  0  0  0  0
 38 35  1  0  0  0  0
 38 37  1  0  0  0  0
 39 45  1  0  0  0  0
 40 44  1  0  0  0  0
 40 48  1  0  0  0  0
 41 40  1  0  0  0  0
 42 44  1  0  0  0  0
 43 47  1  0  0  0  0
 44 39  2  0  0  0  0
 46 47  1  0  0  0  0
 46 41  1  0  0  0  0
 47 42  1  0  0  0  0
 48 38  1  0  0  0  0
 48 45  2  0  0  0  0
 50 49  1  0  0  0  0
 52 55  1  0  0  0  0
 52 53  1  0  0  0  0
 52 61  1  1  0  0  0
 53 51  1  6  0  0  0
 54 55  1  0  0  0  0
 54 56  1  0  0  0  0
 56 53  1  0  0  0  0
 56 50  1  1  0  0  0
 57 60  1  0  0  0  0
 58 59  1  0  0  0  0
 58 60  1  0  0  0  0
 59 60  1  0  0  0  0
 59 65  1  0  0  0  0
 60 62  1  0  0  0  0
 61 58  1  0  0  0  0
 63 61  2  0  0  0  0
 64 59  1  0  0  0  0
M  END
>  <MODEL>
3

>  <REMARK>
 VINA RESULT:      -5.5      1.670      2.363
  Name = 
  22 active torsions:
  status: ('A' for Active; 'I' for Inactive)
    1  A    between atoms: C_2  and  C_36
    2  A    between atoms: C_8  and  C_9
    3  A    between atoms: C_10  and  O_32
    4  A    between atoms: C_11  and  C_27
    5  A    between atoms: C_11  and  C_48
    6  A    between atoms: C_12  and  C_33
    7  A    between atoms: C_12  and  C_50
    8  A    between atoms: C_14  and  C_43
    9  A    between atoms: C_14  and  C_52
   10  A    between atoms: C_18  and  C_21
   11  A    between atoms: C_18  and  N_54
   12  A    between atoms: N_20  and  C_29
   13  A    between atoms: C_21  and  C_50
   14  A    between atoms: C_21  and  C_52
   15  A    between atoms: C_27  and  C_62
   16  A    between atoms: C_29  and  N_58
   17  A    between atoms: O_32  and  C_40
   18  A    between atoms: C_33  and  N_58
   19  A    between atoms: N_39  and  C_48
   20  A    between atoms: C_42  and  N_54
   21  A    between atoms: C_46  and  C_57
   22  A    between atoms: C_57  and  C_60
                            x       y       z     vdW  Elec       q    Type
                         _______ _______ _______ _____ _____    ______ ____

>  <TORSDO>
F 22

$$$$
=
 OpenBabel11042418063D

 65 72  0  0  1  0  0  0  0  0999 V2000
  189.3690  172.2520  139.4360 C   0  0  2  0  0  3  0  0  0  0  0  0
  188.8640  173.4740  140.1930 C   0  0  0  0  0  2  0  0  0  0  0  0
  188.1700  173.0620  141.4800 C   0  0  0  0  0  2  0  0  0  0  0  0
  187.6510  174.2940  142.1950 C   0  0  0  0  0  2  0  0  0  0  0  0
  188.4710  175.4450  141.8440 N   0  0  0  0  0  2  0  0  0  0  0  0
  187.6760  176.6570  142.0020 C   0  0  1  0  0  0  0  0  0  0  0  0
  188.4080  177.8220  141.4960 N   0  0  0  0  0  2  0  0  0  0  0  0
  187.1770  177.3580  140.8270 C   0  0  0  0  0  2  0  0  0  0  0  0
  187.1060  176.9370  143.3180 N   0  0  0  0  0  0  0  0  0  0  0  0
  187.7800  177.0120  144.4280 C   0  0  0  0  0  0  0  0  0  0  0  0
  186.2170  178.4000  145.9540 N   0  0  0  0  0  0  0  0  0  0  0  0
  187.1130  176.5390  146.7730 C   0  0  0  0  0  3  0  0  0  0  0  0
  185.7260  179.3610  144.9810 C   0  0  0  0  0  1  0  0  0  0  0  0
  186.2860  177.1430  147.7130 O   0  0  0  0  0  0  0  0  0  0  0  0
  187.0700  177.2940  145.6940 C   0  0  0  0  0  0  0  0  0  0  0  0
  185.6830  178.2980  147.2450 N   0  0  0  0  0  2  0  0  0  0  0  0
  189.9620  178.0080  144.7330 N   0  0  0  0  0  1  0  0  0  0  0  0
  189.2610  176.7670  144.4530 C   0  0  0  0  0  2  0  0  0  0  0  0
  190.8550  172.0710  139.7070 C   0  0  0  0  0  2  0  0  0  0  0  0
  191.0820  170.9140  140.6680 C   0  0  0  0  0  2  0  0  0  0  0  0
  192.1460  170.4610  142.8260 C   0  0  0  0  0  0  0  0  0  0  0  0
  192.6510  173.1650  144.2690 C   0  0  0  0  0  0  0  0  0  0  0  0
  191.6800  169.1900  142.6870 F   0  0  0  0  0  0  0  0  0  0  0  0
  192.7930  171.9380  144.7590 C   0  0  0  0  0  3  0  0  0  0  0  0
  192.7510  173.5000  142.8440 C   0  0  0  0  0  3  0  0  0  0  0  0
  192.9610  170.7600  143.9690 N   0  0  0  0  0  0  0  0  0  0  0  0
  191.8960  171.3470  141.8490 C   0  0  0  0  0  0  0  0  0  0  0  0
  192.4290  172.7210  141.8130 C   0  0  0  0  0  3  0  0  0  0  0  0
  192.5380  174.2530  145.1980 C   0  0  0  0  0  0  0  0  0  0  0  0
  192.4470  175.1690  145.9790 C   0  0  0  0  0  0  0  0  0  0  0  0
  192.3490  176.2040  146.8680 O   0  0  0  0  0  0  0  0  0  0  0  0
  191.2160  176.3360  147.7140 C   0  0  0  0  0  2  0  0  0  0  0  0
  191.4450  177.4270  148.7460 C   0  0  0  0  0  1  0  0  0  0  0  0
  193.6870  169.6670  144.5960 C   0  0  0  0  0  2  0  0  0  0  0  0
  194.7970  170.2330  145.4760 C   0  0  0  0  0  2  0  0  0  0  0  0
  197.0210  169.1210  144.6470 C   0  0  0  0  0  2  0  0  0  0  0  0
  197.3830  170.2030  145.6600 C   0  0  0  0  0  2  0  0  0  0  0  0
  196.1600  170.3590  144.7840 C   0  0  0  0  0  0  0  0  0  0  0  0
  196.3870  172.1920  141.6970 N   0  0  0  0  0  0  0  0  0  0  0  0
  196.3630  172.6910  143.8610 N   0  0  0  0  0  0  0  0  0  0  0  0
  196.3910  173.4990  145.0750 C   0  0  0  0  0  2  0  0  0  0  0  0
  196.4510  174.6430  142.3470 C   0  0  0  0  0  2  0  0  0  0  0  0
  196.6480  176.7700  143.3110 C   0  0  0  0  0  1  0  0  0  0  0  0
  196.4450  173.1720  142.6170 C   0  0  0  0  0  0  0  0  0  0  0  0
  196.3010  171.0490  142.3720 N   0  0  0  0  0  0  0  0  0  0  0  0
  196.1150  174.9650  144.7100 C   0  0  0  0  0  2  0  0  0  0  0  0
  196.9150  175.3620  143.5410 N   0  0  0  0  0  0  0  0  0  0  0  0
  196.3060  171.3610  143.6850 C   0  0  0  0  0  0  0  0  0  0  0  0
  189.1650  172.4340  137.9400 C   0  0  0  0  0  2  0  0  0  0  0  0
  190.1470  171.6610  137.1980 N   0  0  0  0  0  2  0  0  0  0  0  0
  191.5200  174.4920  135.7310 O   0  0  0  0  0  1  0  0  0  0  0  0
  192.8150  172.5440  135.2570 C   0  0  2  0  0  3  0  0  0  0  0  0
  191.7250  173.1700  136.1230 C   0  0  2  0  0  3  0  0  0  0  0  0
  190.5780  171.4120  134.8270 C   0  0  0  0  0  2  0  0  0  0  0  0
  192.2990  170.8580  134.8120 S   0  0  0  0  0  0  0  0  0  0  0  0
  190.4260  172.3910  135.9720 C   0  0  1  0  0  3  0  0  0  0  0  0
  195.9910  174.0880  138.5640 C   0  0  0  0  0  1  0  0  0  0  0  0
  194.7300  173.7490  136.4410 N   0  0  0  0  0  0  0  0  0  0  0  0
  194.7280  175.2190  136.7180 C   0  0  0  0  0  0  0  0  0  0  0  0
  195.8430  174.5000  137.1100 C   0  0  0  0  0  0  0  0  0  0  0  0
  194.1590  172.5440  135.9340 C   0  0  0  0  0  0  0  0  0  0  0  0
  197.0900  174.5300  136.2420 C   0  0  0  0  0  1  0  0  0  0  0  0
  194.8340  171.4820  135.9840 O   0  0  0  0  0  0  0  0  0  0  0  0
  193.7650  175.5730  137.6660 O   0  0  0  0  0  1  0  0  0  0  0  0
  194.7660  175.9720  135.5430 O   0  0  0  0  0  1  0  0  0  0  0  0
  1 49  1  6  0  0  0
  1 19  1  0  0  0  0
  1  2  1  0  0  0  0
  2  3  1  0  0  0  0
  3  4  1  0  0  0  0
  5  4  1  0  0  0  0
  6  5  1  6  0  0  0
  6  9  1  0  0  0  0
  7  6  1  0  0  0  0
  8  7  1  0  0  0  0
  8  6  1  0  0  0  0
  9 10  2  0  0  0  0
 10 18  1  0  0  0  0
 10 15  1  0  0  0  0
 11 16  1  0  0  0  0
 12 14  1  0  0  0  0
 13 11  1  0  0  0  0
 15 11  1  0  0  0  0
 15 12  2  0  0  0  0
 16 14  1  0  0  0  0
 18 17  1  0  0  0  0
 19 20  1  0  0  0  0
 20 27  1  0  0  0  0
 21 26  1  0  0  0  0
 22 24  2  0  0  0  0
 22 29  1  0  0  0  0
 23 21  1  0  0  0  0
 25 22  1  0  0  0  0
 26 34  1  0  0  0  0
 26 24  1  0  0  0  0
 27 21  2  0  0  0  0
 28 27  1  0  0  0  0
 28 25  2  0  0  0  0
 29 30  3  0  0  0  0
 30 31  1  0  0  0  0
 31 32  1  0  0  0  0
 32 33  1  0  0  0  0
 34 35  1  0  0  0  0
 36 38  1  0  0  0  0
 36 37  1  0  0  0  0
 38 35  1  0  0  0  0
 38 37  1  0  0  0  0
 39 45  1  0  0  0  0
 39 44  2  0  0  0  0
 40 41  1  0  0  0  0
 42 44  1  0  0  0  0
 42 47  1  0  0  0  0
 43 47  1  0  0  0  0
 44 40  1  0  0  0  0
 45 48  2  0  0  0  0
 46 41  1  0  0  0  0
 47 46  1  0  0  0  0
 48 40  1  0  0  0  0
 48 38  1  0  0  0  0
 50 49  1  0  0  0  0
 52 61  1  1  0  0  0
 52 53  1  0  0  0  0
 53 51  1  6  0  0  0
 54 56  1  0  0  0  0
 55 54  1  0  0  0  0
 55 52  1  0  0  0  0
 56 53  1  0  0  0  0
 56 50  1  1  0  0  0
 58 59  1  0  0  0  0
 58 60  1  0  0  0  0
 59 60  1  0  0  0  0
 59 64  1  0  0  0  0
 60 57  1  0  0  0  0
 61 63  2  0  0  0  0
 61 58  1  0  0  0  0
 62 60  1  0  0  0  0
 65 59  1  0  0  0  0
M  END
>  <MODEL>
4

>  <REMARK>
 VINA RESULT:      -5.4      1.640      2.361
  Name = 
  22 active torsions:
  status: ('A' for Active; 'I' for Inactive)
    1  A    between atoms: C_2  and  C_36
    2  A    between atoms: C_8  and  C_9
    3  A    between atoms: C_10  and  O_32
    4  A    between atoms: C_11  and  C_27
    5  A    between atoms: C_11  and  C_48
    6  A    between atoms: C_12  and  C_33
    7  A    between atoms: C_12  and  C_50
    8  A    between atoms: C_14  and  C_43
    9  A    between atoms: C_14  and  C_52
   10  A    between atoms: C_18  and  C_21
   11  A    between atoms: C_18  and  N_54
   12  A    between atoms: N_20  and  C_29
   13  A    between atoms: C_21  and  C_50
   14  A    between atoms: C_21  and  C_52
   15  A    between atoms: C_27  and  C_62
   16  A    between atoms: C_29  and  N_58
   17  A    between atoms: O_32  and  C_40
   18  A    between atoms: C_33  and  N_58
   19  A    between atoms: N_39  and  C_48
   20  A    between atoms: C_42  and  N_54
   21  A    between atoms: C_46  and  C_57
   22  A    between atoms: C_57  and  C_60
                            x       y       z     vdW  Elec       q    Type
                         _______ _______ _______ _____ _____    ______ ____

>  <TORSDO>
F 22

$$$$
=
 OpenBabel11042418063D

 65 72  0  0  1  0  0  0  0  0999 V2000
  193.1560  171.3980  140.5660 C   0  0  2  0  0  3  0  0  0  0  0  0
  194.1980  170.3610  140.1620 C   0  0  0  0  0  2  0  0  0  0  0  0
  194.2770  170.2380  138.6500 C   0  0  0  0  0  2  0  0  0  0  0  0
  195.7230  170.3430  138.2070 C   0  0  0  0  0  2  0  0  0  0  0  0
  196.0570  171.7370  137.9510 N   0  0  0  0  0  2  0  0  0  0  0  0
  196.2900  171.9120  136.5230 C   0  0  1  0  0  0  0  0  0  0  0  0
  197.6340  171.4510  136.1600 N   0  0  0  0  0  2  0  0  0  0  0  0
  196.4360  170.7480  135.6610 C   0  0  0  0  0  2  0  0  0  0  0  0
  196.0210  173.2260  135.9400 N   0  0  0  0  0  0  0  0  0  0  0  0
  196.0090  174.3490  136.5940 C   0  0  0  0  0  0  0  0  0  0  0  0
  196.6150  176.3550  135.0760 N   0  0  0  0  0  0  0  0  0  0  0  0
  194.5410  176.2140  135.8630 C   0  0  0  0  0  3  0  0  0  0  0  0
  197.9410  175.9420  134.6520 C   0  0  0  0  0  1  0  0  0  0  0  0
  194.6850  177.3330  135.0500 O   0  0  0  0  0  0  0  0  0  0  0  0
  195.7100  175.6070  135.8770 C   0  0  0  0  0  0  0  0  0  0  0  0
  195.9550  177.4560  134.5140 N   0  0  0  0  0  2  0  0  0  0  0  0
  197.3420  175.2860  138.3810 N   0  0  0  0  0  1  0  0  0  0  0  0
  196.2440  174.3860  138.0770 C   0  0  0  0  0  2  0  0  0  0  0  0
  192.0500  171.4320  139.5210 C   0  0  0  0  0  2  0  0  0  0  0  0
  190.7540  170.8890  140.1050 C   0  0  0  0  0  2  0  0  0  0  0  0
  189.6870  173.0270  140.6350 C   0  0  0  0  0  0  0  0  0  0  0  0
  190.0900  173.6130  143.6590 C   0  0  0  0  0  0  0  0  0  0  0  0
  189.7360  173.2800  139.2980 F   0  0  0  0  0  0  0  0  0  0  0  0
  189.5990  174.4240  142.7280 C   0  0  0  0  0  3  0  0  0  0  0  0
  190.0430  172.1490  143.5850 C   0  0  0  0  0  3  0  0  0  0  0  0
  189.0480  173.9940  141.4820 N   0  0  0  0  0  0  0  0  0  0  0  0
  190.1580  171.8540  141.0840 C   0  0  0  0  0  0  0  0  0  0  0  0
  190.0700  171.4000  142.4840 C   0  0  0  0  0  3  0  0  0  0  0  0
  190.5670  174.1990  144.8800 C   0  0  0  0  0  0  0  0  0  0  0  0
  190.9710  174.6890  145.9060 C   0  0  0  0  0  0  0  0  0  0  0  0
  191.4290  175.2380  147.0720 O   0  0  0  0  0  0  0  0  0  0  0  0
  192.0820  176.4990  147.0790 C   0  0  0  0  0  2  0  0  0  0  0  0
  193.5740  176.3280  146.8500 C   0  0  0  0  0  1  0  0  0  0  0  0
  188.0480  174.8660  140.8900 C   0  0  0  0  0  2  0  0  0  0  0  0
  187.2330  175.5300  141.9960 C   0  0  0  0  0  2  0  0  0  0  0  0
  186.8220  177.4570  140.2660 C   0  0  0  0  0  2  0  0  0  0  0  0
  187.9080  177.9160  141.2360 C   0  0  0  0  0  2  0  0  0  0  0  0
  186.8180  176.9770  141.7030 C   0  0  0  0  0  0  0  0  0  0  0  0
  183.8980  178.4180  143.2340 N   0  0  0  0  0  0  0  0  0  0  0  0
  185.9360  177.8350  143.8980 N   0  0  0  0  0  0  0  0  0  0  0  0
  187.0760  177.6360  144.7850 C   0  0  0  0  0  2  0  0  0  0  0  0
  184.4670  178.6970  145.6890 C   0  0  0  0  0  2  0  0  0  0  0  0
  185.3840  178.9530  147.8310 C   0  0  0  0  0  1  0  0  0  0  0  0
  184.7630  178.3630  144.2620 C   0  0  0  0  0  0  0  0  0  0  0  0
  184.5460  177.9440  142.1730 N   0  0  0  0  0  0  0  0  0  0  0  0
  186.6030  177.7330  146.2430 C   0  0  0  0  0  2  0  0  0  0  0  0
  185.7250  178.8990  146.4220 N   0  0  0  0  0  0  0  0  0  0  0  0
  185.7890  177.6100  142.5820 C   0  0  0  0  0  0  0  0  0  0  0  0
  193.7880  172.7790  140.6490 C   0  0  0  0  0  2  0  0  0  0  0  0
  195.0660  172.7090  141.3390 N   0  0  0  0  0  2  0  0  0  0  0  0
  194.1590  174.4970  144.1720 O   0  0  0  0  0  1  0  0  0  0  0  0
  196.4350  173.7870  144.2760 C   0  0  2  0  0  3  0  0  0  0  0  0
  195.0800  173.6260  143.5930 C   0  0  2  0  0  3  0  0  0  0  0  0
  196.5670  174.5410  141.8500 C   0  0  0  0  0  2  0  0  0  0  0  0
  197.7290  173.7680  142.9990 S   0  0  0  0  0  0  0  0  0  0  0  0
  195.2040  173.9350  142.1080 C   0  0  1  0  0  3  0  0  0  0  0  0
  197.7570  169.3660  145.7310 C   0  0  0  0  0  1  0  0  0  0  0  0
  196.4150  171.3560  145.0570 N   0  0  0  0  0  0  0  0  0  0  0  0
  195.9730  170.2200  144.1920 C   0  0  0  0  0  0  0  0  0  0  0  0
  196.3640  169.9190  145.4840 C   0  0  0  0  0  0  0  0  0  0  0  0
  196.6820  172.7320  145.3210 C   0  0  0  0  0  0  0  0  0  0  0  0
  195.3040  169.6950  146.5500 C   0  0  0  0  0  1  0  0  0  0  0  0
  197.0480  173.0710  146.4770 O   0  0  0  0  0  0  0  0  0  0  0  0
  196.8530  169.9930  143.1320 O   0  0  0  0  0  1  0  0  0  0  0  0
  194.6140  170.2990  143.8790 O   0  0  0  0  0  1  0  0  0  0  0  0
  1 19  1  6  0  0  0
  1 49  1  0  0  0  0
  2  1  1  0  0  0  0
  3  2  1  0  0  0  0
  4  3  1  0  0  0  0
  5  4  1  0  0  0  0
  6  9  1  6  0  0  0
  6  5  1  0  0  0  0
  7  6  1  0  0  0  0
  8  7  1  0  0  0  0
  8  6  1  0  0  0  0
  9 10  2  0  0  0  0
 10 18  1  0  0  0  0
 11 15  1  0  0  0  0
 12 15  2  0  0  0  0
 13 11  1  0  0  0  0
 14 12  1  0  0  0  0
 15 10  1  0  0  0  0
 16 14  1  0  0  0  0
 16 11  1  0  0  0  0
 18 17  1  0  0  0  0
 19 20  1  0  0  0  0
 20 27  1  0  0  0  0
 21 27  2  0  0  0  0
 21 26  1  0  0  0  0
 22 29  1  0  0  0  0
 23 21  1  0  0  0  0
 24 22  2  0  0  0  0
 25 22  1  0  0  0  0
 26 24  1  0  0  0  0
 27 28  1  0  0  0  0
 28 25  2  0  0  0  0
 29 30  3  0  0  0  0
 30 31  1  0  0  0  0
 31 32  1  0  0  0  0
 33 32  1  0  0  0  0
 34 26  1  0  0  0  0
 34 35  1  0  0  0  0
 36 37  1  0  0  0  0
 36 38  1  0  0  0  0
 37 38  1  0  0  0  0
 38 35  1  0  0  0  0
 38 48  1  0  0  0  0
 39 44  2  0  0  0  0
 40 44  1  0  0  0  0
 40 41  1  0  0  0  0
 41 46  1  0  0  0  0
 42 47  1  0  0  0  0
 44 42  1  0  0  0  0
 45 48  2  0  0  0  0
 45 39  1  0  0  0  0
 46 47  1  0  0  0  0
 47 43  1  0  0  0  0
 48 40  1  0  0  0  0
 49 50  1  0  0  0  0
 52 61  1  1  0  0  0
 53 51  1  1  0  0  0
 53 52  1  0  0  0  0
 54 56  1  0  0  0  0
 54 55  1  0  0  0  0
 55 52  1  0  0  0  0
 56 50  1  6  0  0  0
 56 53  1  0  0  0  0
 58 61  1  0  0  0  0
 58 60  1  0  0  0  0
 59 58  1  0  0  0  0
 59 60  1  0  0  0  0
 60 57  1  0  0  0  0
 60 62  1  0  0  0  0
 61 63  2  0  0  0  0
 64 59  1  0  0  0  0
 65 59  1  0  0  0  0
M  END
>  <MODEL>
5

>  <REMARK>
 VINA RESULT:      -5.2      2.722      9.339
  Name = 
  22 active torsions:
  status: ('A' for Active; 'I' for Inactive)
    1  A    between atoms: C_2  and  C_36
    2  A    between atoms: C_8  and  C_9
    3  A    between atoms: C_10  and  O_32
    4  A    between atoms: C_11  and  C_27
    5  A    between atoms: C_11  and  C_48
    6  A    between atoms: C_12  and  C_33
    7  A    between atoms: C_12  and  C_50
    8  A    between atoms: C_14  and  C_43
    9  A    between atoms: C_14  and  C_52
   10  A    between atoms: C_18  and  C_21
   11  A    between atoms: C_18  and  N_54
   12  A    between atoms: N_20  and  C_29
   13  A    between atoms: C_21  and  C_50
   14  A    between atoms: C_21  and  C_52
   15  A    between atoms: C_27  and  C_62
   16  A    between atoms: C_29  and  N_58
   17  A    between atoms: O_32  and  C_40
   18  A    between atoms: C_33  and  N_58
   19  A    between atoms: N_39  and  C_48
   20  A    between atoms: C_42  and  N_54
   21  A    between atoms: C_46  and  C_57
   22  A    between atoms: C_57  and  C_60
                            x       y       z     vdW  Elec       q    Type
                         _______ _______ _______ _____ _____    ______ ____

>  <TORSDO>
F 22

$$$$
=
 OpenBabel11042418063D

 65 72  0  0  1  0  0  0  0  0999 V2000
  190.5360  170.5730  139.9920 C   0  0  2  0  0  3  0  0  0  0  0  0
  190.5750  170.5070  138.4700 C   0  0  0  0  0  2  0  0  0  0  0  0
  189.7300  171.6120  137.8610 C   0  0  0  0  0  2  0  0  0  0  0  0
  190.1760  171.8660  136.4350 C   0  0  0  0  0  2  0  0  0  0  0  0
  191.6300  171.9280  136.3800 N   0  0  0  0  0  2  0  0  0  0  0  0
  192.0410  173.3240  136.2980 C   0  0  1  0  0  0  0  0  0  0  0  0
  191.3770  173.9910  135.1730 N   0  0  0  0  0  2  0  0  0  0  0  0
  191.0780  174.3830  136.5640 C   0  0  0  0  0  2  0  0  0  0  0  0
  193.4730  173.6190  136.3000 N   0  0  0  0  0  0  0  0  0  0  0  0
  194.2040  173.7800  137.3630 C   0  0  0  0  0  0  0  0  0  0  0  0
  196.6860  173.1460  136.9880 N   0  0  0  0  0  0  0  0  0  0  0  0
  196.1720  175.2910  137.2620 C   0  0  0  0  0  3  0  0  0  0  0  0
  196.5270  171.7390  136.6650 C   0  0  0  0  0  1  0  0  0  0  0  0
  197.5370  175.1340  137.0500 O   0  0  0  0  0  0  0  0  0  0  0  0
  195.6440  174.0850  137.2170 C   0  0  0  0  0  0  0  0  0  0  0  0
  197.9090  173.8160  136.8490 N   0  0  0  0  0  2  0  0  0  0  0  0
  193.8540  174.9500  139.4500 N   0  0  0  0  0  1  0  0  0  0  0  0
  193.6020  173.7100  138.7370 C   0  0  0  0  0  2  0  0  0  0  0  0
  190.6160  172.0270  140.4340 C   0  0  0  0  0  2  0  0  0  0  0  0
  189.4240  172.3810  141.3110 C   0  0  0  0  0  2  0  0  0  0  0  0
  189.5540  174.5850  142.3680 C   0  0  0  0  0  0  0  0  0  0  0  0
  187.4540  176.4470  141.0380 C   0  0  0  0  0  0  0  0  0  0  0  0
  190.1910  173.9550  143.3930 F   0  0  0  0  0  0  0  0  0  0  0  0
  188.1920  176.6870  142.1170 C   0  0  0  0  0  3  0  0  0  0  0  0
  187.8390  175.5240  139.9650 C   0  0  0  0  0  3  0  0  0  0  0  0
  189.4090  176.0110  142.4380 N   0  0  0  0  0  0  0  0  0  0  0  0
  189.1710  173.8580  141.3070 C   0  0  0  0  0  0  0  0  0  0  0  0
  188.5740  174.4200  140.0820 C   0  0  0  0  0  3  0  0  0  0  0  0
  186.2790  177.2460  140.8340 C   0  0  0  0  0  0  0  0  0  0  0  0
  185.2880  177.9140  140.6620 C   0  0  0  0  0  0  0  0  0  0  0  0
  184.1660  178.6690  140.4600 O   0  0  0  0  0  0  0  0  0  0  0  0
  183.0310  178.5320  141.3010 C   0  0  0  0  0  2  0  0  0  0  0  0
  181.8540  177.9710  140.5220 C   0  0  0  0  0  1  0  0  0  0  0  0
  190.3620  176.7570  143.2430 C   0  0  0  0  0  2  0  0  0  0  0  0
  189.6100  177.6290  144.2440 C   0  0  0  0  0  2  0  0  0  0  0  0
  190.4990  177.1420  146.6620 C   0  0  0  0  0  2  0  0  0  0  0  0
  190.2850  175.8040  145.9590 C   0  0  0  0  0  2  0  0  0  0  0  0
  189.4070  176.9890  145.6230 C   0  0  0  0  0  0  0  0  0  0  0  0
  186.3840  176.4320  147.4930 N   0  0  0  0  0  0  0  0  0  0  0  0
  186.9590  177.5710  145.6760 N   0  0  0  0  0  0  0  0  0  0  0  0
  186.8240  178.4300  144.5060 C   0  0  0  0  0  2  0  0  0  0  0  0
  184.5940  177.8180  146.3520 C   0  0  0  0  0  2  0  0  0  0  0  0
  183.1840  179.0770  144.9660 C   0  0  0  0  0  1  0  0  0  0  0  0
  185.9610  177.2300  146.4970 C   0  0  0  0  0  0  0  0  0  0  0  0
  187.6820  176.2260  147.2840 N   0  0  0  0  0  0  0  0  0  0  0  0
  185.4960  179.1970  144.5950 C   0  0  0  0  0  2  0  0  0  0  0  0
  184.4030  178.2890  144.9730 N   0  0  0  0  0  0  0  0  0  0  0  0
  188.0180  176.9070  146.1680 C   0  0  0  0  0  0  0  0  0  0  0  0
  191.7160  169.8190  140.5850 C   0  0  0  0  0  2  0  0  0  0  0  0
  192.6150  170.7380  141.2620 N   0  0  0  0  0  2  0  0  0  0  0  0
  195.8830  171.2950  140.2320 O   0  0  0  0  0  1  0  0  0  0  0  0
  195.7270  171.1470  142.6090 C   0  0  2  0  0  3  0  0  0  0  0  0
  194.9780  171.3230  141.2920 C   0  0  2  0  0  3  0  0  0  0  0  0
  194.2030  169.1560  142.1800 C   0  0  0  0  0  2  0  0  0  0  0  0
  194.7760  170.0130  143.6650 S   0  0  0  0  0  0  0  0  0  0  0  0
  193.9600  170.2050  141.1160 C   0  0  1  0  0  3  0  0  0  0  0  0
  194.6420  174.6590  145.7560 C   0  0  0  0  0  1  0  0  0  0  0  0
  194.9090  173.3210  143.6690 N   0  0  0  0  0  0  0  0  0  0  0  0
  193.4640  173.6950  143.7650 C   0  0  0  0  0  0  0  0  0  0  0  0
  194.3870  174.5980  144.2600 C   0  0  0  0  0  0  0  0  0  0  0  0
  195.9830  172.4570  143.3040 C   0  0  0  0  0  0  0  0  0  0  0  0
  194.7800  175.7990  143.4160 C   0  0  0  0  0  1  0  0  0  0  0  0
  197.1670  172.8430  143.4950 O   0  0  0  0  0  0  0  0  0  0  0  0
  192.7650  172.8670  144.6460 O   0  0  0  0  0  1  0  0  0  0  0  0
  192.8940  173.9040  142.5070 O   0  0  0  0  0  1  0  0  0  0  0  0
  1  2  1  6  0  0  0
  1 19  1  0  0  0  0
  1 49  1  0  0  0  0
  3  2  1  0  0  0  0
  4  3  1  0  0  0  0
  5  4  1  0  0  0  0
  6  9  1  1  0  0  0
  6  5  1  0  0  0  0
  6  8  1  0  0  0  0
  7  6  1  0  0  0  0
  7  8  1  0  0  0  0
  9 10  2  0  0  0  0
 10 18  1  0  0  0  0
 11 15  1  0  0  0  0
 13 11  1  0  0  0  0
 14 12  1  0  0  0  0
 15 12  2  0  0  0  0
 15 10  1  0  0  0  0
 16 11  1  0  0  0  0
 16 14  1  0  0  0  0
 18 17  1  0  0  0  0
 19 20  1  0  0  0  0
 21 26  1  0  0  0  0
 21 23  1  0  0  0  0
 22 24  2  0  0  0  0
 24 26  1  0  0  0  0
 25 28  2  0  0  0  0
 25 22  1  0  0  0  0
 26 34  1  0  0  0  0
 27 20  1  0  0  0  0
 27 21  2  0  0  0  0
 28 27  1  0  0  0  0
 29 22  1  0  0  0  0
 30 29  3  0  0  0  0
 31 30  1  0  0  0  0
 31 32  1  0  0  0  0
 33 32  1  0  0  0  0
 34 35  1  0  0  0  0
 35 38  1  0  0  0  0
 37 36  1  0  0  0  0
 38 37  1  0  0  0  0
 38 48  1  0  0  0  0
 38 36  1  0  0  0  0
 40 48  1  0  0  0  0
 40 44  1  0  0  0  0
 41 46  1  0  0  0  0
 41 40  1  0  0  0  0
 42 44  1  0  0  0  0
 43 47  1  0  0  0  0
 44 39  2  0  0  0  0
 45 39  1  0  0  0  0
 46 47  1  0  0  0  0
 47 42  1  0  0  0  0
 48 45  2  0  0  0  0
 49 50  1  0  0  0  0
 52 61  1  1  0  0  0
 52 55  1  0  0  0  0
 53 51  1  6  0  0  0
 53 52  1  0  0  0  0
 54 55  1  0  0  0  0
 56 50  1  1  0  0  0
 56 53  1  0  0  0  0
 56 54  1  0  0  0  0
 58 59  1  0  0  0  0
 58 60  1  0  0  0  0
 59 60  1  0  0  0  0
 59 64  1  0  0  0  0
 60 57  1  0  0  0  0
 61 63  2  0  0  0  0
 61 58  1  0  0  0  0
 62 60  1  0  0  0  0
 65 59  1  0  0  0  0
M  END
>  <MODEL>
6

>  <REMARK>
 VINA RESULT:      -5.0      2.490      8.927
  Name = 
  22 active torsions:
  status: ('A' for Active; 'I' for Inactive)
    1  A    between atoms: C_2  and  C_36
    2  A    between atoms: C_8  and  C_9
    3  A    between atoms: C_10  and  O_32
    4  A    between atoms: C_11  and  C_27
    5  A    between atoms: C_11  and  C_48
    6  A    between atoms: C_12  and  C_33
    7  A    between atoms: C_12  and  C_50
    8  A    between atoms: C_14  and  C_43
    9  A    between atoms: C_14  and  C_52
   10  A    between atoms: C_18  and  C_21
   11  A    between atoms: C_18  and  N_54
   12  A    between atoms: N_20  and  C_29
   13  A    between atoms: C_21  and  C_50
   14  A    between atoms: C_21  and  C_52
   15  A    between atoms: C_27  and  C_62
   16  A    between atoms: C_29  and  N_58
   17  A    between atoms: O_32  and  C_40
   18  A    between atoms: C_33  and  N_58
   19  A    between atoms: N_39  and  C_48
   20  A    between atoms: C_42  and  N_54
   21  A    between atoms: C_46  and  C_57
   22  A    between atoms: C_57  and  C_60
                            x       y       z     vdW  Elec       q    Type
                         _______ _______ _______ _____ _____    ______ ____

>  <TORSDO>
F 22

$$$$
=
 OpenBabel11042418063D

 65 72  0  0  1  0  0  0  0  0999 V2000
  189.9430  176.6040  143.8220 C   0  0  2  0  0  3  0  0  0  0  0  0
  191.0130  177.3720  144.5880 C   0  0  0  0  0  2  0  0  0  0  0  0
  191.7310  176.4610  145.5690 C   0  0  0  0  0  2  0  0  0  0  0  0
  193.2230  176.5000  145.3000 C   0  0  0  0  0  2  0  0  0  0  0  0
  193.7580  175.1460  145.3140 N   0  0  0  0  0  2  0  0  0  0  0  0
  194.6430  174.9750  144.1680 C   0  0  1  0  0  0  0  0  0  0  0  0
  194.0450  175.5630  142.9650 N   0  0  0  0  0  2  0  0  0  0  0  0
  195.2710  176.1370  143.5540 C   0  0  0  0  0  2  0  0  0  0  0  0
  195.1530  173.6340  143.8880 N   0  0  0  0  0  0  0  0  0  0  0  0
  196.2910  173.1630  144.3030 C   0  0  0  0  0  0  0  0  0  0  0  0
  196.3690  170.5990  144.6480 N   0  0  0  0  0  0  0  0  0  0  0  0
  197.3880  171.4570  142.8690 C   0  0  0  0  0  3  0  0  0  0  0  0
  195.4430  170.4800  145.7610 C   0  0  0  0  0  1  0  0  0  0  0  0
  197.5070  170.0720  142.8850 O   0  0  0  0  0  0  0  0  0  0  0  0
  196.6870  171.7870  143.9350 C   0  0  0  0  0  0  0  0  0  0  0  0
  196.8690  169.4840  143.9630 N   0  0  0  0  0  2  0  0  0  0  0  0
  197.1420  173.6540  146.5130 N   0  0  0  0  0  1  0  0  0  0  0  0
  197.2350  174.0100  145.1080 C   0  0  0  0  0  2  0  0  0  0  0  0
  190.5720  175.9450  142.6030 C   0  0  0  0  0  2  0  0  0  0  0  0
  190.5090  174.4300  142.7290 C   0  0  0  0  0  2  0  0  0  0  0  0
  191.3890  173.0980  140.8720 C   0  0  0  0  0  0  0  0  0  0  0  0
  189.6810  173.6770  138.3420 C   0  0  0  0  0  0  0  0  0  0  0  0
  192.5270  172.9870  141.6100 F   0  0  0  0  0  0  0  0  0  0  0  0
  190.8130  172.9850  138.4240 C   0  0  0  0  0  3  0  0  0  0  0  0
  188.7390  173.8490  139.4530 C   0  0  0  0  0  3  0  0  0  0  0  0
  191.3240  172.3970  139.6220 N   0  0  0  0  0  0  0  0  0  0  0  0
  190.3550  173.7830  141.3860 C   0  0  0  0  0  0  0  0  0  0  0  0
  189.0290  173.8920  140.7520 C   0  0  0  0  0  3  0  0  0  0  0  0
  189.2820  174.1660  137.0530 C   0  0  0  0  0  0  0  0  0  0  0  0
  188.9490  174.5800  135.9700 C   0  0  0  0  0  0  0  0  0  0  0  0
  188.5720  175.0540  134.7430 O   0  0  0  0  0  0  0  0  0  0  0  0
  187.5210  176.0000  134.6170 C   0  0  0  0  0  2  0  0  0  0  0  0
  187.0600  176.4710  135.9860 C   0  0  0  0  0  1  0  0  0  0  0  0
  192.1660  171.2250  139.4510 C   0  0  0  0  0  2  0  0  0  0  0  0
  192.4080  170.9850  137.9640 C   0  0  0  0  0  2  0  0  0  0  0  0
  194.3010  169.6300  136.7580 C   0  0  0  0  0  2  0  0  0  0  0  0
  194.6560  169.7220  138.2400 C   0  0  0  0  0  2  0  0  0  0  0  0
  193.8830  170.8380  137.5720 C   0  0  0  0  0  0  0  0  0  0  0  0
  195.5200  173.7710  136.2840 N   0  0  0  0  0  0  0  0  0  0  0  0
  195.2760  172.8130  138.2730 N   0  0  0  0  0  0  0  0  0  0  0  0
  195.4070  172.6000  139.7090 C   0  0  0  0  0  2  0  0  0  0  0  0
  196.5210  174.9480  138.2950 C   0  0  0  0  0  2  0  0  0  0  0  0
  197.4310  175.6650  140.3330 C   0  0  0  0  0  1  0  0  0  0  0  0
  195.8130  173.8320  137.5950 C   0  0  0  0  0  0  0  0  0  0  0  0
  194.8040  172.6630  136.1110 N   0  0  0  0  0  0  0  0  0  0  0  0
  195.8860  173.9020  140.3690 C   0  0  0  0  0  2  0  0  0  0  0  0
  196.9990  174.4850  139.6050 N   0  0  0  0  0  0  0  0  0  0  0  0
  194.6760  172.0790  137.3210 C   0  0  0  0  0  0  0  0  0  0  0  0
  188.8470  177.5490  143.3530 C   0  0  0  0  0  2  0  0  0  0  0  0
  188.5920  177.3630  141.9340 N   0  0  0  0  0  2  0  0  0  0  0  0
  186.1080  175.5320  143.5220 O   0  0  0  0  0  1  0  0  0  0  0  0
  185.3360  177.7040  142.9050 C   0  0  2  0  0  3  0  0  0  0  0  0
  186.5410  176.7920  143.1130 C   0  0  2  0  0  3  0  0  0  0  0  0
  186.5140  177.2690  140.6930 C   0  0  0  0  0  2  0  0  0  0  0  0
  185.5970  178.6660  141.3840 S   0  0  0  0  0  0  0  0  0  0  0  0
  187.3260  176.6590  141.8150 C   0  0  1  0  0  3  0  0  0  0  0  0
  186.3170  179.4210  147.3210 C   0  0  0  0  0  1  0  0  0  0  0  0
  185.3210  178.1550  145.4180 N   0  0  0  0  0  0  0  0  0  0  0  0
  185.7480  177.1460  146.4350 C   0  0  0  0  0  0  0  0  0  0  0  0
  185.3040  178.3690  146.9020 C   0  0  0  0  0  0  0  0  0  0  0  0
  185.0850  178.6040  144.0850 C   0  0  0  0  0  0  0  0  0  0  0  0
  183.8830  178.4940  147.4280 C   0  0  0  0  0  1  0  0  0  0  0  0
  184.5790  179.7430  143.9060 O   0  0  0  0  0  0  0  0  0  0  0  0
  187.1190  176.8860  146.3730 O   0  0  0  0  0  1  0  0  0  0  0  0
  184.8960  176.0400  146.4660 O   0  0  0  0  0  1  0  0  0  0  0  0
  1 19  1  6  0  0  0
  1  2  1  0  0  0  0
  2  3  1  0  0  0  0
  4  5  1  0  0  0  0
  4  3  1  0  0  0  0
  6  9  1  6  0  0  0
  6  5  1  0  0  0  0
  7  8  1  0  0  0  0
  7  6  1  0  0  0  0
  8  6  1  0  0  0  0
  9 10  2  0  0  0  0
 10 18  1  0  0  0  0
 11 13  1  0  0  0  0
 12 14  1  0  0  0  0
 12 15  2  0  0  0  0
 14 16  1  0  0  0  0
 15 10  1  0  0  0  0
 15 11  1  0  0  0  0
 16 11  1  0  0  0  0
 18 17  1  0  0  0  0
 19 20  1  0  0  0  0
 21 27  2  0  0  0  0
 21 23  1  0  0  0  0
 22 24  2  0  0  0  0
 22 25  1  0  0  0  0
 24 26  1  0  0  0  0
 25 28  2  0  0  0  0
 26 21  1  0  0  0  0
 27 20  1  0  0  0  0
 28 27  1  0  0  0  0
 29 22  1  0  0  0  0
 30 29  3  0  0  0  0
 31 30  1  0  0  0  0
 32 31  1  0  0  0  0
 32 33  1  0  0  0  0
 34 26  1  0  0  0  0
 35 34  1  0  0  0  0
 36 38  1  0  0  0  0
 36 37  1  0  0  0  0
 38 35  1  0  0  0  0
 38 37  1  0  0  0  0
 39 44  2  0  0  0  0
 40 41  1  0  0  0  0
 41 46  1  0  0  0  0
 42 47  1  0  0  0  0
 44 40  1  0  0  0  0
 44 42  1  0  0  0  0
 45 39  1  0  0  0  0
 45 48  2  0  0  0  0
 47 43  1  0  0  0  0
 47 46  1  0  0  0  0
 48 38  1  0  0  0  0
 48 40  1  0  0  0  0
 49  1  1  0  0  0  0
 50 49  1  0  0  0  0
 52 53  1  0  0  0  0
 52 61  1  1  0  0  0
 53 51  1  6  0  0  0
 54 55  1  0  0  0  0
 54 56  1  0  0  0  0
 55 52  1  0  0  0  0
 56 50  1  1  0  0  0
 56 53  1  0  0  0  0
 58 59  1  0  0  0  0
 58 60  1  0  0  0  0
 59 65  1  0  0  0  0
 59 60  1  0  0  0  0
 60 57  1  0  0  0  0
 60 62  1  0  0  0  0
 61 58  1  0  0  0  0
 63 61  2  0  0  0  0
 64 59  1  0  0  0  0
M  END
>  <MODEL>
7

>  <REMARK>
 VINA RESULT:      -4.9      3.002      9.608
  Name = 
  22 active torsions:
  status: ('A' for Active; 'I' for Inactive)
    1  A    between atoms: C_2  and  C_36
    2  A    between atoms: C_8  and  C_9
    3  A    between atoms: C_10  and  O_32
    4  A    between atoms: C_11  and  C_27
    5  A    between atoms: C_11  and  C_48
    6  A    between atoms: C_12  and  C_33
    7  A    between atoms: C_12  and  C_50
    8  A    between atoms: C_14  and  C_43
    9  A    between atoms: C_14  and  C_52
   10  A    between atoms: C_18  and  C_21
   11  A    between atoms: C_18  and  N_54
   12  A    between atoms: N_20  and  C_29
   13  A    between atoms: C_21  and  C_50
   14  A    between atoms: C_21  and  C_52
   15  A    between atoms: C_27  and  C_62
   16  A    between atoms: C_29  and  N_58
   17  A    between atoms: O_32  and  C_40
   18  A    between atoms: C_33  and  N_58
   19  A    between atoms: N_39  and  C_48
   20  A    between atoms: C_42  and  N_54
   21  A    between atoms: C_46  and  C_57
   22  A    between atoms: C_57  and  C_60
                            x       y       z     vdW  Elec       q    Type
                         _______ _______ _______ _____ _____    ______ ____

>  <TORSDO>
F 22

$$$$
=
 OpenBabel11042418063D

 65 72  0  0  1  0  0  0  0  0999 V2000
  189.8630  175.4270  147.2140 C   0  0  2  0  0  3  0  0  0  0  0  0
  191.2090  175.9030  147.7450 C   0  0  0  0  0  2  0  0  0  0  0  0
  192.3050  175.6740  146.7180 C   0  0  0  0  0  2  0  0  0  0  0  0
  192.3120  176.8140  145.7180 C   0  0  0  0  0  2  0  0  0  0  0  0
  193.1020  176.4400  144.5540 N   0  0  0  0  0  2  0  0  0  0  0  0
  194.4930  176.2780  144.9580 C   0  0  1  0  0  0  0  0  0  0  0  0
  195.2110  177.5520  144.8530 N   0  0  0  0  0  2  0  0  0  0  0  0
  194.9790  176.9250  146.1690 C   0  0  0  0  0  2  0  0  0  0  0  0
  195.2640  175.1990  144.3450 N   0  0  0  0  0  0  0  0  0  0  0  0
  195.5370  175.0980  143.0780 C   0  0  0  0  0  0  0  0  0  0  0  0
  195.8620  172.9160  141.7240 N   0  0  0  0  0  0  0  0  0  0  0  0
  197.5850  173.7070  142.8830 C   0  0  0  0  0  3  0  0  0  0  0  0
  194.6030  172.8960  140.9980 C   0  0  0  0  0  1  0  0  0  0  0  0
  197.9400  172.5490  142.2000 O   0  0  0  0  0  0  0  0  0  0  0  0
  196.3220  173.9430  142.5910 C   0  0  0  0  0  0  0  0  0  0  0  0
  196.9070  172.0260  141.4410 N   0  0  0  0  0  2  0  0  0  0  0  0
  196.1310  176.6490  141.3200 N   0  0  0  0  0  1  0  0  0  0  0  0
  195.0260  176.1080  142.0910 C   0  0  0  0  0  2  0  0  0  0  0  0
  190.0310  174.9410  145.7810 C   0  0  0  0  0  2  0  0  0  0  0  0
  189.7170  173.4560  145.6860 C   0  0  0  0  0  2  0  0  0  0  0  0
  190.0150  171.9650  143.7670 C   0  0  0  0  0  0  0  0  0  0  0  0
  192.9890  171.0750  143.6570 C   0  0  0  0  0  0  0  0  0  0  0  0
  188.6650  171.8010  143.7990 F   0  0  0  0  0  0  0  0  0  0  0  0
  191.9730  170.6180  142.9340 C   0  0  0  0  0  3  0  0  0  0  0  0
  193.0430  172.4150  144.2500 C   0  0  0  0  0  3  0  0  0  0  0  0
  190.7480  171.3220  142.7140 N   0  0  0  0  0  0  0  0  0  0  0  0
  190.5840  172.7870  144.6630 C   0  0  0  0  0  0  0  0  0  0  0  0
  192.0140  173.1450  144.6770 C   0  0  0  0  0  3  0  0  0  0  0  0
  194.1710  170.2640  143.7450 C   0  0  0  0  0  0  0  0  0  0  0  0
  195.1660  169.5860  143.8220 C   0  0  0  0  0  0  0  0  0  0  0  0
  196.2970  168.8220  143.9080 O   0  0  0  0  0  0  0  0  0  0  0  0
  197.4410  169.2850  144.6100 C   0  0  0  0  0  2  0  0  0  0  0  0
  197.1040  169.5400  146.0690 C   0  0  0  0  0  1  0  0  0  0  0  0
  190.0440  171.0100  141.4820 C   0  0  0  0  0  2  0  0  0  0  0  0
  190.4670  171.9900  140.3920 C   0  0  0  0  0  2  0  0  0  0  0  0
  189.0810  174.0790  141.1570 C   0  0  0  0  0  2  0  0  0  0  0  0
  188.0990  172.9740  140.7770 C   0  0  0  0  0  2  0  0  0  0  0  0
  189.4350  173.0790  140.0760 C   0  0  0  0  0  0  0  0  0  0  0  0
  188.5750  174.5350  136.9000 N   0  0  0  0  0  0  0  0  0  0  0  0
  190.4090  173.7100  137.8420 N   0  0  0  0  0  0  0  0  0  0  0  0
  191.8010  173.3030  137.9900 C   0  0  0  0  0  2  0  0  0  0  0  0
  190.7320  174.6300  135.5710 C   0  0  0  0  0  2  0  0  0  0  0  0
  192.8520  174.4150  134.5940 C   0  0  0  0  0  1  0  0  0  0  0  0
  189.8820  174.2600  136.7440 C   0  0  0  0  0  0  0  0  0  0  0  0
  188.2470  174.1180  138.1200 N   0  0  0  0  0  0  0  0  0  0  0  0
  192.6390  173.9630  136.8850 C   0  0  0  0  0  2  0  0  0  0  0  0
  191.9660  173.8310  135.5830 N   0  0  0  0  0  0  0  0  0  0  0  0
  189.3620  173.6010  138.6770 C   0  0  0  0  0  0  0  0  0  0  0  0
  188.8560  176.5670  147.2260 C   0  0  0  0  0  2  0  0  0  0  0  0
  187.5180  176.0630  146.9620 N   0  0  0  0  0  2  0  0  0  0  0  0
  186.8830  179.4550  147.3360 O   0  0  0  0  0  1  0  0  0  0  0  0
  185.5590  178.5030  145.5930 C   0  0  2  0  0  3  0  0  0  0  0  0
  186.7610  178.3330  146.5180 C   0  0  2  0  0  3  0  0  0  0  0  0
  185.1660  176.5860  147.2180 C   0  0  0  0  0  2  0  0  0  0  0  0
  184.6660  176.9210  145.5140 S   0  0  0  0  0  0  0  0  0  0  0  0
  186.5830  177.0930  147.3830 C   0  0  1  0  0  3  0  0  0  0  0  0
  186.3070  177.8890  140.8520 C   0  0  0  0  0  1  0  0  0  0  0  0
  186.6410  178.1210  143.3120 N   0  0  0  0  0  0  0  0  0  0  0  0
  187.2680  176.8250  142.9080 C   0  0  0  0  0  0  0  0  0  0  0  0
  187.3090  177.8620  141.9940 C   0  0  0  0  0  0  0  0  0  0  0  0
  185.9530  178.9780  144.2200 C   0  0  0  0  0  0  0  0  0  0  0  0
  188.5830  178.6780  141.8480 C   0  0  0  0  0  1  0  0  0  0  0  0
  185.7500  180.1770  143.8920 O   0  0  0  0  0  0  0  0  0  0  0  0
  186.3230  175.8080  142.7580 O   0  0  0  0  0  1  0  0  0  0  0  0
  188.3990  176.5310  143.6730 O   0  0  0  0  0  1  0  0  0  0  0  0
  1 19  1  6  0  0  0
  1 49  1  0  0  0  0
  1  2  1  0  0  0  0
  3  2  1  0  0  0  0
  4  3  1  0  0  0  0
  5  6  1  0  0  0  0
  5  4  1  0  0  0  0
  6  9  1  6  0  0  0
  6  8  1  0  0  0  0
  7  6  1  0  0  0  0
  7  8  1  0  0  0  0
 10  9  2  0  0  0  0
 11 15  1  0  0  0  0
 13 11  1  0  0  0  0
 14 12  1  0  0  0  0
 15 12  2  0  0  0  0
 15 10  1  0  0  0  0
 16 11  1  0  0  0  0
 16 14  1  0  0  0  0
 17 18  1  0  0  0  0
 18 10  1  0  0  0  0
 20 19  1  0  0  0  0
 21 23  1  0  0  0  0
 21 27  2  0  0  0  0
 22 29  1  0  0  0  0
 22 25  1  0  0  0  0
 24 22  2  0  0  0  0
 25 28  2  0  0  0  0
 26 24  1  0  0  0  0
 26 21  1  0  0  0  0
 27 28  1  0  0  0  0
 27 20  1  0  0  0  0
 29 30  3  0  0  0  0
 30 31  1  0  0  0  0
 31 32  1  0  0  0  0
 32 33  1  0  0  0  0
 34 26  1  0  0  0  0
 35 34  1  0  0  0  0
 37 36  1  0  0  0  0
 38 35  1  0  0  0  0
 38 37  1  0  0  0  0
 38 36  1  0  0  0  0
 39 45  1  0  0  0  0
 40 41  1  0  0  0  0
 40 48  1  0  0  0  0
 42 47  1  0  0  0  0
 42 44  1  0  0  0  0
 43 47  1  0  0  0  0
 44 39  2  0  0  0  0
 44 40  1  0  0  0  0
 45 48  2  0  0  0  0
 46 41  1  0  0  0  0
 47 46  1  0  0  0  0
 48 38  1  0  0  0  0
 50 49  1  0  0  0  0
 52 61  1  6  0  0  0
 52 53  1  0  0  0  0
 53 51  1  1  0  0  0
 53 56  1  0  0  0  0
 54 56  1  0  0  0  0
 55 52  1  0  0  0  0
 55 54  1  0  0  0  0
 56 50  1  6  0  0  0
 57 60  1  0  0  0  0
 58 61  1  0  0  0  0
 59 58  1  0  0  0  0
 59 65  1  0  0  0  0
 60 59  1  0  0  0  0
 60 58  1  0  0  0  0
 62 60  1  0  0  0  0
 63 61  2  0  0  0  0
 64 59  1  0  0  0  0
M  END
>  <MODEL>
8

>  <REMARK>
 VINA RESULT:      -4.6      3.217      9.613
  Name = 
  22 active torsions:
  status: ('A' for Active; 'I' for Inactive)
    1  A    between atoms: C_2  and  C_36
    2  A    between atoms: C_8  and  C_9
    3  A    between atoms: C_10  and  O_32
    4  A    between atoms: C_11  and  C_27
    5  A    between atoms: C_11  and  C_48
    6  A    between atoms: C_12  and  C_33
    7  A    between atoms: C_12  and  C_50
    8  A    between atoms: C_14  and  C_43
    9  A    between atoms: C_14  and  C_52
   10  A    between atoms: C_18  and  C_21
   11  A    between atoms: C_18  and  N_54
   12  A    between atoms: N_20  and  C_29
   13  A    between atoms: C_21  and  C_50
   14  A    between atoms: C_21  and  C_52
   15  A    between atoms: C_27  and  C_62
   16  A    between atoms: C_29  and  N_58
   17  A    between atoms: O_32  and  C_40
   18  A    between atoms: C_33  and  N_58
   19  A    between atoms: N_39  and  C_48
   20  A    between atoms: C_42  and  N_54
   21  A    between atoms: C_46  and  C_57
   22  A    between atoms: C_57  and  C_60
                            x       y       z     vdW  Elec       q    Type
                         _______ _______ _______ _____ _____    ______ ____

>  <TORSDO>
F 22

$$$$
=
 OpenBabel11042418063D

 65 72  0  0  1  0  0  0  0  0999 V2000
  192.3260  169.1280  141.4900 C   0  0  2  0  0  3  0  0  0  0  0  0
  191.8710  169.3870  140.0580 C   0  0  0  0  0  2  0  0  0  0  0  0
  192.8810  168.8360  139.0650 C   0  0  0  0  0  2  0  0  0  0  0  0
  192.3560  169.0160  137.6540 C   0  0  0  0  0  2  0  0  0  0  0  0
  192.4920  170.4100  137.2550 N   0  0  0  0  0  2  0  0  0  0  0  0
  191.6320  170.6580  136.1040 C   0  0  1  0  0  0  0  0  0  0  0  0
  192.4370  170.8780  134.8980 N   0  0  0  0  0  2  0  0  0  0  0  0
  191.5710  169.6890  135.0190 C   0  0  0  0  0  2  0  0  0  0  0  0
  190.5980  171.6830  136.2280 N   0  0  0  0  0  0  0  0  0  0  0  0
  190.7390  172.8210  136.8420 C   0  0  0  0  0  0  0  0  0  0  0  0
  189.2750  174.7500  135.9300 N   0  0  0  0  0  0  0  0  0  0  0  0
  188.7040  173.8130  137.8620 C   0  0  0  0  0  3  0  0  0  0  0  0
  189.8720  174.9020  134.6140 C   0  0  0  0  0  1  0  0  0  0  0  0
  187.8010  174.8100  137.5120 O   0  0  0  0  0  0  0  0  0  0  0  0
  189.6010  173.7630  136.8990 C   0  0  0  0  0  0  0  0  0  0  0  0
  188.0970  175.4120  136.3010 N   0  0  0  0  0  2  0  0  0  0  0  0
  192.3840  174.5480  137.2380 N   0  0  0  0  0  1  0  0  0  0  0  0
  192.0230  173.1740  137.5360 C   0  0  0  0  0  2  0  0  0  0  0  0
  191.3030  169.7100  142.4550 C   0  0  0  0  0  2  0  0  0  0  0  0
  190.3090  170.5870  141.7080 C   0  0  0  0  0  2  0  0  0  0  0  0
  189.3200  172.8060  142.0110 C   0  0  0  0  0  0  0  0  0  0  0  0
  189.9400  173.7810  144.8950 C   0  0  0  0  0  0  0  0  0  0  0  0
  189.2820  172.8750  140.6520 F   0  0  0  0  0  0  0  0  0  0  0  0
  189.4010  174.4720  143.8970 C   0  0  0  0  0  3  0  0  0  0  0  0
  189.8610  172.3220  145.0240 C   0  0  0  0  0  3  0  0  0  0  0  0
  188.7580  173.8940  142.7590 N   0  0  0  0  0  0  0  0  0  0  0  0
  189.8000  171.6910  142.5840 C   0  0  0  0  0  0  0  0  0  0  0  0
  189.7990  171.4320  144.0350 C   0  0  0  0  0  3  0  0  0  0  0  0
  190.5100  174.5120  145.9910 C   0  0  0  0  0  0  0  0  0  0  0  0
  190.9920  175.1240  146.9130 C   0  0  0  0  0  0  0  0  0  0  0  0
  191.5370  175.8120  147.9620 O   0  0  0  0  0  0  0  0  0  0  0  0
  192.4780  176.8520  147.7430 C   0  0  0  0  0  2  0  0  0  0  0  0
  193.5370  176.4130  146.7460 C   0  0  0  0  0  1  0  0  0  0  0  0
  187.7360  174.7060  142.1210 C   0  0  0  0  0  2  0  0  0  0  0  0
  188.3810  175.9410  141.4980 C   0  0  0  0  0  2  0  0  0  0  0  0
  186.7550  177.9940  141.3830 C   0  0  0  0  0  2  0  0  0  0  0  0
  188.1850  178.5160  141.2590 C   0  0  0  0  0  2  0  0  0  0  0  0
  187.8950  177.2760  142.0750 C   0  0  0  0  0  0  0  0  0  0  0  0
  188.7960  177.8200  145.5160 N   0  0  0  0  0  0  0  0  0  0  0  0
  186.9080  177.6640  144.3580 N   0  0  0  0  0  0  0  0  0  0  0  0
  185.4770  177.6420  144.0790 C   0  0  0  0  0  2  0  0  0  0  0  0
  186.6140  178.1640  146.7600 C   0  0  0  0  0  2  0  0  0  0  0  0
  184.4270  178.2750  147.5970 C   0  0  0  0  0  1  0  0  0  0  0  0
  187.4520  177.8410  145.5650 C   0  0  0  0  0  0  0  0  0  0  0  0
  189.1210  177.5880  144.2470 N   0  0  0  0  0  0  0  0  0  0  0  0
  184.7220  178.2500  145.2710 C   0  0  0  0  0  2  0  0  0  0  0  0
  185.2360  177.7030  146.5360 N   0  0  0  0  0  0  0  0  0  0  0  0
  187.9680  177.4760  143.5550 C   0  0  0  0  0  0  0  0  0  0  0  0
  193.6700  169.7920  141.7460 C   0  0  0  0  0  2  0  0  0  0  0  0
  194.2980  169.2220  142.9270 N   0  0  0  0  0  2  0  0  0  0  0  0
  196.6410  171.5000  141.7570 O   0  0  0  0  0  1  0  0  0  0  0  0
  196.1970  171.8160  144.0810 C   0  0  2  0  0  3  0  0  0  0  0  0
  195.7440  171.1740  142.7730 C   0  0  2  0  0  3  0  0  0  0  0  0
  196.3320  169.2810  144.2410 C   0  0  0  0  0  2  0  0  0  0  0  0
  195.9830  170.6050  145.4210 S   0  0  0  0  0  0  0  0  0  0  0  0
  195.6840  169.6610  142.9270 C   0  0  1  0  0  3  0  0  0  0  0  0
  193.6120  175.7090  142.8300 C   0  0  0  0  0  1  0  0  0  0  0  0
  195.4830  174.1870  143.4600 N   0  0  0  0  0  0  0  0  0  0  0  0
  195.8760  174.8540  142.1810 C   0  0  0  0  0  0  0  0  0  0  0  0
  195.1070  175.5850  143.0680 C   0  0  0  0  0  0  0  0  0  0  0  0
  195.4640  173.0960  144.3780 C   0  0  0  0  0  0  0  0  0  0  0  0
  195.7780  176.6120  143.9650 C   0  0  0  0  0  1  0  0  0  0  0  0
  194.8920  173.2450  145.4900 O   0  0  0  0  0  0  0  0  0  0  0  0
  195.2740  174.2580  141.0710 O   0  0  0  0  0  1  0  0  0  0  0  0
  197.2530  175.0780  142.1100 O   0  0  0  0  0  1  0  0  0  0  0  0
  1  2  1  6  0  0  0
  1 49  1  0  0  0  0
  1 19  1  0  0  0  0
  3  2  1  0  0  0  0
  4  3  1  0  0  0  0
  5  4  1  0  0  0  0
  6  9  1  1  0  0  0
  6  5  1  0  0  0  0
  7  8  1  0  0  0  0
  7  6  1  0  0  0  0
  8  6  1  0  0  0  0
  9 10  2  0  0  0  0
 10 15  1  0  0  0  0
 10 18  1  0  0  0  0
 11 16  1  0  0  0  0
 11 15  1  0  0  0  0
 13 11  1  0  0  0  0
 14 12  1  0  0  0  0
 15 12  2  0  0  0  0
 16 14  1  0  0  0  0
 17 18  1  0  0  0  0
 20 19  1  0  0  0  0
 20 27  1  0  0  0  0
 21 27  2  0  0  0  0
 21 26  1  0  0  0  0
 22 25  1  0  0  0  0
 22 29  1  0  0  0  0
 23 21  1  0  0  0  0
 24 22  2  0  0  0  0
 26 24  1  0  0  0  0
 27 28  1  0  0  0  0
 28 25  2  0  0  0  0
 29 30  3  0  0  0  0
 30 31  1  0  0  0  0
 32 31  1  0  0  0  0
 33 32  1  0  0  0  0
 34 26  1  0  0  0  0
 35 38  1  0  0  0  0
 35 34  1  0  0  0  0
 36 38  1  0  0  0  0
 37 36  1  0  0  0  0
 37 38  1  0  0  0  0
 38 48  1  0  0  0  0
 39 44  2  0  0  0  0
 40 44  1  0  0  0  0
 41 40  1  0  0  0  0
 41 46  1  0  0  0  0
 44 42  1  0  0  0  0
 45 39  1  0  0  0  0
 46 47  1  0  0  0  0
 47 42  1  0  0  0  0
 47 43  1  0  0  0  0
 48 45  2  0  0  0  0
 48 40  1  0  0  0  0
 49 50  1  0  0  0  0
 52 61  1  1  0  0  0
 52 55  1  0  0  0  0
 53 51  1  6  0  0  0
 53 56  1  0  0  0  0
 53 52  1  0  0  0  0
 54 55  1  0  0  0  0
 56 50  1  1  0  0  0
 56 54  1  0  0  0  0
 57 60  1  0  0  0  0
 58 61  1  0  0  0  0
 59 60  1  0  0  0  0
 59 58  1  0  0  0  0
 60 58  1  0  0  0  0
 60 62  1  0  0  0  0
 61 63  2  0  0  0  0
 64 59  1  0  0  0  0
 65 59  1  0  0  0  0
M  END
>  <MODEL>
9

>  <REMARK>
 VINA RESULT:      -4.6      2.990      8.099
  Name = 
  22 active torsions:
  status: ('A' for Active; 'I' for Inactive)
    1  A    between atoms: C_2  and  C_36
    2  A    between atoms: C_8  and  C_9
    3  A    between atoms: C_10  and  O_32
    4  A    between atoms: C_11  and  C_27
    5  A    between atoms: C_11  and  C_48
    6  A    between atoms: C_12  and  C_33
    7  A    between atoms: C_12  and  C_50
    8  A    between atoms: C_14  and  C_43
    9  A    between atoms: C_14  and  C_52
   10  A    between atoms: C_18  and  C_21
   11  A    between atoms: C_18  and  N_54
   12  A    between atoms: N_20  and  C_29
   13  A    between atoms: C_21  and  C_50
   14  A    between atoms: C_21  and  C_52
   15  A    between atoms: C_27  and  C_62
   16  A    between atoms: C_29  and  N_58
   17  A    between atoms: O_32  and  C_40
   18  A    between atoms: C_33  and  N_58
   19  A    between atoms: N_39  and  C_48
   20  A    between atoms: C_42  and  N_54
   21  A    between atoms: C_46  and  C_57
   22  A    between atoms: C_57  and  C_60
                            x       y       z     vdW  Elec       q    Type
                         _______ _______ _______ _____ _____    ______ ____

>  <TORSDO>
F 22

$$$$
