=
 OpenBabel11042414493D

 28 30  0  0  1  0  0  0  0  0999 V2000
  190.5380  174.2240  142.7280 C   0  0  0  0  0  3  0  0  0  0  0  0
  189.7010  175.3420  142.8130 C   0  0  0  0  0  0  0  0  0  0  0  0
  190.0330  172.9980  142.2900 C   0  0  0  0  0  3  0  0  0  0  0  0
  188.3450  175.2360  142.4540 C   0  0  0  0  0  0  0  0  0  0  0  0
  188.6890  172.8850  141.9340 C   0  0  0  0  0  3  0  0  0  0  0  0
  187.8490  173.9980  142.0160 C   0  0  0  0  0  3  0  0  0  0  0  0
  187.1580  176.8170  140.2630 O   0  0  0  0  0  0  0  0  0  0  0  0
  186.9390  177.1420  141.4620 C   0  0  0  0  0  0  0  0  0  0  0  0
  187.4960  176.3910  142.5470 N   0  0  0  0  0  2  0  0  0  0  0  0
  186.0530  178.3050  141.7700 C   0  0  1  0  0  3  0  0  0  0  0  0
  184.7390  178.0910  141.1870 N   0  0  0  0  0  1  0  0  0  0  0  0
  185.7490  179.8730  143.5560 O   0  0  0  0  0  1  0  0  0  0  0  0
  185.9360  178.5160  143.2790 C   0  0  1  0  0  3  0  0  0  0  0  0
  184.8510  177.7920  143.7810 O   0  0  0  0  0  0  0  0  0  0  0  0
  184.2670  178.5160  145.9840 C   0  0  0  0  0  2  0  0  0  0  0  0
  186.6130  177.9090  145.3960 C   0  0  0  0  0  2  0  0  0  0  0  0
  186.1600  178.6790  147.5970 C   0  0  0  0  0  2  0  0  0  0  0  0
  184.6640  178.4090  147.4530 C   0  0  0  0  0  2  0  0  0  0  0  0
  185.1400  177.5960  145.1340 C   0  0  2  0  0  3  0  0  0  0  0  0
  186.9230  177.7110  146.8110 N   0  0  0  0  0  2  0  0  0  0  0  0
  190.3920  176.8990  143.3830 S   0  0  0  0  0  0  0  0  0  0  0  0
  189.6440  175.6540  145.7400 C   0  0  0  0  0  3  0  0  0  0  0  0
  191.9400  176.4170  145.6270 C   0  0  0  0  0  3  0  0  0  0  0  0
  192.1650  175.9350  146.9200 C   0  0  0  0  0  3  0  0  0  0  0  0
  189.8690  175.1720  147.0330 C   0  0  0  0  0  0  0  0  0  0  0  0
  191.1290  175.3130  147.6230 C   0  0  0  0  0  3  0  0  0  0  0  0
  190.6780  176.2810  145.0380 C   0  0  0  0  0  0  0  0  0  0  0  0
  188.8410  174.5530  147.7310 O   0  0  0  0  0  1  0  0  0  0  0  0
  1  2  1  0  0  0  0
  2 21  1  0  0  0  0
  3  1  2  0  0  0  0
  4  9  1  0  0  0  0
  4  2  2  0  0  0  0
  5  6  2  0  0  0  0
  5  3  1  0  0  0  0
  6  4  1  0  0  0  0
  7  8  2  0  0  0  0
  8 10  1  0  0  0  0
  8  9  1  0  0  0  0
 10 11  1  1  0  0  0
 10 13  1  0  0  0  0
 13 12  1  6  0  0  0
 13 14  1  0  0  0  0
 15 18  1  0  0  0  0
 16 20  1  0  0  0  0
 18 17  1  0  0  0  0
 19 14  1  6  0  0  0
 19 16  1  0  0  0  0
 19 15  1  0  0  0  0
 20 17  1  0  0  0  0
 21 27  1  0  0  0  0
 22 25  1  0  0  0  0
 23 24  2  0  0  0  0
 24 26  1  0  0  0  0
 25 26  2  0  0  0  0
 25 28  1  0  0  0  0
 27 23  1  0  0  0  0
 27 22  2  0  0  0  0
M  END
>  <MODEL>
1

>  <REMARK>
 VINA RESULT:      -7.3      0.000      0.000
  Name = 
  7 active torsions:
  status: ('A' for Active; 'I' for Inactive)
    1  A    between atoms: O_1  and  C_15
    2  A    between atoms: O_1  and  C_25
    3  A    between atoms: C_9  and  S_18
    4  A    between atoms: C_11  and  C_23
    5  A    between atoms: C_11  and  C_25
    6  A    between atoms: C_16  and  N_24
    7  A    between atoms: S_18  and  C_22
                            x       y       z     vdW  Elec       q    Type
                         _______ _______ _______ _____ _____    ______ ____

>  <TORSDO>
F 7

$$$$
=
 OpenBabel11042414493D

 28 30  0  0  1  0  0  0  0  0999 V2000
  187.3590  176.3310  140.5590 C   0  0  0  0  0  3  0  0  0  0  0  0
  187.0970  176.3090  141.9340 C   0  0  0  0  0  0  0  0  0  0  0  0
  186.6770  177.2220  139.7280 C   0  0  0  0  0  3  0  0  0  0  0  0
  186.1470  177.1870  142.4850 C   0  0  0  0  0  0  0  0  0  0  0  0
  185.7320  178.0950  140.2670 C   0  0  0  0  0  3  0  0  0  0  0  0
  185.4680  178.0770  141.6390 C   0  0  0  0  0  3  0  0  0  0  0  0
  186.1850  179.4250  144.4090 O   0  0  0  0  0  0  0  0  0  0  0  0
  185.9190  178.2590  144.8080 C   0  0  0  0  0  0  0  0  0  0  0  0
  185.8870  177.1520  143.8970 N   0  0  0  0  0  2  0  0  0  0  0  0
  185.5920  178.0180  146.2460 C   0  0  1  0  0  3  0  0  0  0  0  0
  184.8230  176.7900  146.3760 N   0  0  0  0  0  1  0  0  0  0  0  0
  186.6880  178.6440  148.2820 O   0  0  0  0  0  1  0  0  0  0  0  0
  186.8630  177.9380  147.0890 C   0  0  1  0  0  3  0  0  0  0  0  0
  187.1600  176.6040  147.3850 O   0  0  0  0  0  0  0  0  0  0  0  0
  188.8120  174.9150  147.0160 C   0  0  0  0  0  2  0  0  0  0  0  0
  189.4280  177.3290  147.1430 C   0  0  0  0  0  2  0  0  0  0  0  0
  191.1600  175.7320  146.8400 C   0  0  0  0  0  2  0  0  0  0  0  0
  190.1770  174.6550  146.3870 C   0  0  0  0  0  2  0  0  0  0  0  0
  188.3500  176.3370  146.7050 C   0  0  2  0  0  3  0  0  0  0  0  0
  190.6790  177.0530  146.4390 N   0  0  0  0  0  2  0  0  0  0  0  0
  187.9960  175.1450  142.9660 S   0  0  0  0  0  0  0  0  0  0  0  0
  190.7200  175.5860  142.7510 C   0  0  0  0  0  3  0  0  0  0  0  0
  189.3690  177.5280  143.2740 C   0  0  0  0  0  3  0  0  0  0  0  0
  190.5200  178.3210  143.3030 C   0  0  0  0  0  3  0  0  0  0  0  0
  191.8710  176.3810  142.7800 C   0  0  0  0  0  0  0  0  0  0  0  0
  191.7710  177.7480  143.0560 C   0  0  0  0  0  3  0  0  0  0  0  0
  189.4690  176.1590  143.0020 C   0  0  0  0  0  0  0  0  0  0  0  0
  193.1130  175.8120  142.5340 O   0  0  0  0  0  1  0  0  0  0  0  0
  1  2  1  0  0  0  0
  2  4  2  0  0  0  0
  2 21  1  0  0  0  0
  3  5  1  0  0  0  0
  3  1  2  0  0  0  0
  4  9  1  0  0  0  0
  5  6  2  0  0  0  0
  6  4  1  0  0  0  0
  7  8  2  0  0  0  0
  8 10  1  0  0  0  0
  9  8  1  0  0  0  0
 10 11  1  6  0  0  0
 10 13  1  0  0  0  0
 13 14  1  0  0  0  0
 13 12  1  1  0  0  0
 18 17  1  0  0  0  0
 18 15  1  0  0  0  0
 19 15  1  0  0  0  0
 19 16  1  0  0  0  0
 19 14  1  1  0  0  0
 20 17  1  0  0  0  0
 20 16  1  0  0  0  0
 21 27  1  0  0  0  0
 22 25  2  0  0  0  0
 22 27  1  0  0  0  0
 23 24  1  0  0  0  0
 25 26  1  0  0  0  0
 26 24  2  0  0  0  0
 27 23  2  0  0  0  0
 28 25  1  0  0  0  0
M  END
>  <MODEL>
2

>  <REMARK>
 VINA RESULT:      -7.1      2.372      4.621
  Name = 
  7 active torsions:
  status: ('A' for Active; 'I' for Inactive)
    1  A    between atoms: O_1  and  C_15
    2  A    between atoms: O_1  and  C_25
    3  A    between atoms: C_9  and  S_18
    4  A    between atoms: C_11  and  C_23
    5  A    between atoms: C_11  and  C_25
    6  A    between atoms: C_16  and  N_24
    7  A    between atoms: S_18  and  C_22
                            x       y       z     vdW  Elec       q    Type
                         _______ _______ _______ _____ _____    ______ ____

>  <TORSDO>
F 7

$$$$
=
 OpenBabel11042414493D

 28 30  0  0  1  0  0  0  0  0999 V2000
  191.5960  175.6880  147.1730 C   0  0  0  0  0  3  0  0  0  0  0  0
  190.8690  175.4110  146.0100 C   0  0  0  0  0  0  0  0  0  0  0  0
  191.2410  176.7650  147.9860 C   0  0  0  0  0  3  0  0  0  0  0  0
  189.7730  176.2180  145.6550 C   0  0  0  0  0  0  0  0  0  0  0  0
  190.1550  177.5710  147.6390 C   0  0  0  0  0  3  0  0  0  0  0  0
  189.4260  177.2990  146.4790 C   0  0  0  0  0  3  0  0  0  0  0  0
  190.0460  177.4540  142.9890 O   0  0  0  0  0  0  0  0  0  0  0  0
  189.1890  176.5480  143.1760 C   0  0  0  0  0  0  0  0  0  0  0  0
  189.0370  175.9240  144.4570 N   0  0  0  0  0  2  0  0  0  0  0  0
  188.3370  176.0790  142.0420 C   0  0  1  0  0  3  0  0  0  0  0  0
  187.9280  174.7020  142.2690 N   0  0  0  0  0  1  0  0  0  0  0  0
  186.7020  176.9750  140.5370 O   0  0  0  0  0  1  0  0  0  0  0  0
  187.1110  176.9750  141.8730 C   0  0  1  0  0  3  0  0  0  0  0  0
  186.0630  176.5090  142.6740 O   0  0  0  0  0  0  0  0  0  0  0  0
  185.7510  176.9610  145.0010 C   0  0  0  0  0  2  0  0  0  0  0  0
  184.4970  178.2240  143.2530 C   0  0  0  0  0  2  0  0  0  0  0  0
  184.0580  178.7100  145.5360 C   0  0  0  0  0  2  0  0  0  0  0  0
  185.3560  178.0490  145.9940 C   0  0  0  0  0  2  0  0  0  0  0  0
  185.8210  177.5370  143.5880 C   0  0  2  0  0  3  0  0  0  0  0  0
  184.2340  179.2980  144.2100 N   0  0  0  0  0  2  0  0  0  0  0  0
  191.3640  174.0150  144.9930 S   0  0  0  0  0  0  0  0  0  0  0  0
  194.0840  173.8600  145.4880 C   0  0  0  0  0  3  0  0  0  0  0  0
  193.3560  175.7350  144.1370 C   0  0  0  0  0  3  0  0  0  0  0  0
  194.6790  176.1760  144.0370 C   0  0  0  0  0  3  0  0  0  0  0  0
  195.4060  174.3030  145.3870 C   0  0  0  0  0  0  0  0  0  0  0  0
  195.7040  175.4610  144.6630 C   0  0  0  0  0  3  0  0  0  0  0  0
  193.0570  174.5790  144.8660 C   0  0  0  0  0  0  0  0  0  0  0  0
  196.4240  173.5910  146.0080 O   0  0  0  0  0  1  0  0  0  0  0  0
  1  3  1  0  0  0  0
  2  1  2  0  0  0  0
  4  2  1  0  0  0  0
  4  6  2  0  0  0  0
  5  3  2  0  0  0  0
  6  5  1  0  0  0  0
  7  8  2  0  0  0  0
  8  9  1  0  0  0  0
  9  4  1  0  0  0  0
 10 11  1  1  0  0  0
 10  8  1  0  0  0  0
 13 12  1  6  0  0  0
 13 10  1  0  0  0  0
 13 14  1  0  0  0  0
 15 18  1  0  0  0  0
 16 19  1  0  0  0  0
 16 20  1  0  0  0  0
 17 18  1  0  0  0  0
 19 14  1  6  0  0  0
 19 15  1  0  0  0  0
 20 17  1  0  0  0  0
 21  2  1  0  0  0  0
 23 27  1  0  0  0  0
 24 23  2  0  0  0  0
 24 26  1  0  0  0  0
 25 22  1  0  0  0  0
 25 28  1  0  0  0  0
 26 25  2  0  0  0  0
 27 21  1  0  0  0  0
 27 22  2  0  0  0  0
M  END
>  <MODEL>
3

>  <REMARK>
 VINA RESULT:      -7.1      2.660      4.276
  Name = 
  7 active torsions:
  status: ('A' for Active; 'I' for Inactive)
    1  A    between atoms: O_1  and  C_15
    2  A    between atoms: O_1  and  C_25
    3  A    between atoms: C_9  and  S_18
    4  A    between atoms: C_11  and  C_23
    5  A    between atoms: C_11  and  C_25
    6  A    between atoms: C_16  and  N_24
    7  A    between atoms: S_18  and  C_22
                            x       y       z     vdW  Elec       q    Type
                         _______ _______ _______ _____ _____    ______ ____

>  <TORSDO>
F 7

$$$$
=
 OpenBabel11042414493D

 28 30  0  0  1  0  0  0  0  0999 V2000
  190.5950  173.4620  144.9660 C   0  0  0  0  0  3  0  0  0  0  0  0
  190.1390  174.6130  144.3130 C   0  0  0  0  0  0  0  0  0  0  0  0
  190.5750  172.2280  144.3140 C   0  0  0  0  0  3  0  0  0  0  0  0
  189.6590  174.5310  142.9930 C   0  0  0  0  0  0  0  0  0  0  0  0
  190.0980  172.1380  143.0060 C   0  0  0  0  0  3  0  0  0  0  0  0
  189.6430  173.2840  142.3490 C   0  0  0  0  0  3  0  0  0  0  0  0
  186.8860  175.2740  142.3090 O   0  0  0  0  0  0  0  0  0  0  0  0
  187.8360  176.0490  142.0100 C   0  0  0  0  0  0  0  0  0  0  0  0
  189.1920  175.7190  142.3350 N   0  0  0  0  0  2  0  0  0  0  0  0
  187.5530  177.3550  141.3420 C   0  0  1  0  0  3  0  0  0  0  0  0
  186.9120  177.1210  140.0570 N   0  0  0  0  0  1  0  0  0  0  0  0
  185.3540  177.7690  142.1960 O   0  0  0  0  0  1  0  0  0  0  0  0
  186.6700  178.2380  142.2210 C   0  0  1  0  0  3  0  0  0  0  0  0
  187.1370  178.2230  143.5390 O   0  0  0  0  0  0  0  0  0  0  0  0
  185.5650  179.2940  144.9870 C   0  0  0  0  0  2  0  0  0  0  0  0
  186.3260  176.9550  145.4000 C   0  0  0  0  0  2  0  0  0  0  0  0
  184.8130  177.9420  146.9420 C   0  0  0  0  0  2  0  0  0  0  0  0
  184.4110  179.0310  145.9500 C   0  0  0  0  0  2  0  0  0  0  0  0
  186.0040  177.9910  144.3230 C   0  0  2  0  0  3  0  0  0  0  0  0
  185.1460  176.7110  146.2280 N   0  0  0  0  0  2  0  0  0  0  0  0
  190.1820  176.1800  145.1900 S   0  0  0  0  0  0  0  0  0  0  0  0
  192.7210  176.2040  144.0880 C   0  0  0  0  0  3  0  0  0  0  0  0
  192.6150  176.2290  146.5080 C   0  0  0  0  0  3  0  0  0  0  0  0
  194.0120  176.2480  146.5690 C   0  0  0  0  0  3  0  0  0  0  0  0
  194.1180  176.2220  144.1500 C   0  0  0  0  0  0  0  0  0  0  0  0
  194.7630  176.2430  145.3900 C   0  0  0  0  0  3  0  0  0  0  0  0
  191.9690  176.2030  145.2670 C   0  0  0  0  0  0  0  0  0  0  0  0
  194.8640  176.2190  142.9790 O   0  0  0  0  0  1  0  0  0  0  0  0
  2  1  2  0  0  0  0
  2 21  1  0  0  0  0
  3  1  1  0  0  0  0
  4  2  1  0  0  0  0
  5  3  2  0  0  0  0
  6  4  2  0  0  0  0
  6  5  1  0  0  0  0
  8  7  2  0  0  0  0
  8  9  1  0  0  0  0
  9  4  1  0  0  0  0
 10 11  1  6  0  0  0
 10  8  1  0  0  0  0
 10 13  1  0  0  0  0
 13 12  1  1  0  0  0
 13 14  1  0  0  0  0
 15 18  1  0  0  0  0
 16 20  1  0  0  0  0
 18 17  1  0  0  0  0
 19 14  1  1  0  0  0
 19 15  1  0  0  0  0
 19 16  1  0  0  0  0
 20 17  1  0  0  0  0
 21 27  1  0  0  0  0
 22 25  2  0  0  0  0
 22 27  1  0  0  0  0
 23 24  1  0  0  0  0
 25 26  1  0  0  0  0
 26 24  2  0  0  0  0
 27 23  2  0  0  0  0
 28 25  1  0  0  0  0
M  END
>  <MODEL>
4

>  <REMARK>
 VINA RESULT:      -7.1      2.241      2.718
  Name = 
  7 active torsions:
  status: ('A' for Active; 'I' for Inactive)
    1  A    between atoms: O_1  and  C_15
    2  A    between atoms: O_1  and  C_25
    3  A    between atoms: C_9  and  S_18
    4  A    between atoms: C_11  and  C_23
    5  A    between atoms: C_11  and  C_25
    6  A    between atoms: C_16  and  N_24
    7  A    between atoms: S_18  and  C_22
                            x       y       z     vdW  Elec       q    Type
                         _______ _______ _______ _____ _____    ______ ____

>  <TORSDO>
F 7

$$$$
=
 OpenBabel11042414493D

 28 30  0  0  1  0  0  0  0  0999 V2000
  192.2850  176.2450  145.2160 C   0  0  0  0  0  3  0  0  0  0  0  0
  190.9050  176.3430  145.0040 C   0  0  0  0  0  0  0  0  0  0  0  0
  192.7780  175.7270  146.4160 C   0  0  0  0  0  3  0  0  0  0  0  0
  190.0070  175.9190  145.9990 C   0  0  0  0  0  0  0  0  0  0  0  0
  191.8920  175.3060  147.4090 C   0  0  0  0  0  3  0  0  0  0  0  0
  190.5140  175.4020  147.2010 C   0  0  0  0  0  3  0  0  0  0  0  0
  188.1010  177.8320  147.1890 O   0  0  0  0  0  0  0  0  0  0  0  0
  187.6910  176.9660  146.3690 C   0  0  0  0  0  0  0  0  0  0  0  0
  188.5930  176.0280  145.7690 N   0  0  0  0  0  2  0  0  0  0  0  0
  186.2500  176.9310  145.9760 C   0  0  1  0  0  3  0  0  0  0  0  0
  185.4170  176.8860  147.1670 N   0  0  0  0  0  1  0  0  0  0  0  0
  185.8580  179.2940  145.9160 O   0  0  0  0  0  1  0  0  0  0  0  0
  185.8880  178.1450  145.1220 C   0  0  1  0  0  3  0  0  0  0  0  0
  186.8330  178.3150  144.1050 O   0  0  0  0  0  0  0  0  0  0  0  0
  187.1280  178.0400  141.7490 C   0  0  0  0  0  2  0  0  0  0  0  0
  184.8750  178.4490  142.7360 C   0  0  0  0  0  2  0  0  0  0  0  0
  185.0580  178.2580  140.3760 C   0  0  0  0  0  2  0  0  0  0  0  0
  186.4260  177.5860  140.4720 C   0  0  0  0  0  2  0  0  0  0  0  0
  186.2340  177.7860  142.9600 C   0  0  2  0  0  3  0  0  0  0  0  0
  184.2430  177.9030  141.5360 N   0  0  0  0  0  2  0  0  0  0  0  0
  190.3170  177.0170  143.4460 S   0  0  0  0  0  0  0  0  0  0  0  0
  188.9470  174.7830  142.5510 C   0  0  0  0  0  3  0  0  0  0  0  0
  191.3450  174.7690  142.2010 C   0  0  0  0  0  3  0  0  0  0  0  0
  191.2500  173.5090  141.6020 C   0  0  0  0  0  3  0  0  0  0  0  0
  188.8530  173.5230  141.9520 C   0  0  0  0  0  0  0  0  0  0  0  0
  190.0040  172.8860  141.4780 C   0  0  0  0  0  3  0  0  0  0  0  0
  190.1940  175.4050  142.6800 C   0  0  0  0  0  0  0  0  0  0  0  0
  187.6160  172.9050  141.8270 O   0  0  0  0  0  1  0  0  0  0  0  0
  1  3  1  0  0  0  0
  2  1  2  0  0  0  0
  2  4  1  0  0  0  0
  3  5  2  0  0  0  0
  4  6  2  0  0  0  0
  6  5  1  0  0  0  0
  8  7  2  0  0  0  0
  9  4  1  0  0  0  0
  9  8  1  0  0  0  0
 10  8  1  0  0  0  0
 10 11  1  1  0  0  0
 13 12  1  1  0  0  0
 13 10  1  0  0  0  0
 14 13  1  0  0  0  0
 15 19  1  0  0  0  0
 16 19  1  0  0  0  0
 17 18  1  0  0  0  0
 17 20  1  0  0  0  0
 18 15  1  0  0  0  0
 19 14  1  1  0  0  0
 20 16  1  0  0  0  0
 21  2  1  0  0  0  0
 22 27  1  0  0  0  0
 23 27  2  0  0  0  0
 24 23  1  0  0  0  0
 25 22  2  0  0  0  0
 26 24  2  0  0  0  0
 26 25  1  0  0  0  0
 27 21  1  0  0  0  0
 28 25  1  0  0  0  0
M  END
>  <MODEL>
5

>  <REMARK>
 VINA RESULT:      -6.9      1.684      4.902
  Name = 
  7 active torsions:
  status: ('A' for Active; 'I' for Inactive)
    1  A    between atoms: O_1  and  C_15
    2  A    between atoms: O_1  and  C_25
    3  A    between atoms: C_9  and  S_18
    4  A    between atoms: C_11  and  C_23
    5  A    between atoms: C_11  and  C_25
    6  A    between atoms: C_16  and  N_24
    7  A    between atoms: S_18  and  C_22
                            x       y       z     vdW  Elec       q    Type
                         _______ _______ _______ _____ _____    ______ ____

>  <TORSDO>
F 7

$$$$
=
 OpenBabel11042414493D

 28 30  0  0  1  0  0  0  0  0999 V2000
  187.2670  176.0680  143.6140 C   0  0  0  0  0  3  0  0  0  0  0  0
  188.4180  175.9650  144.4050 C   0  0  0  0  0  0  0  0  0  0  0  0
  187.3310  175.8170  142.2420 C   0  0  0  0  0  3  0  0  0  0  0  0
  189.6450  175.6070  143.8190 C   0  0  0  0  0  0  0  0  0  0  0  0
  188.5460  175.4630  141.6540 C   0  0  0  0  0  3  0  0  0  0  0  0
  189.6970  175.3580  142.4390 C   0  0  0  0  0  3  0  0  0  0  0  0
  191.7630  177.6190  144.2380 O   0  0  0  0  0  0  0  0  0  0  0  0
  191.8350  176.5020  144.8190 C   0  0  0  0  0  0  0  0  0  0  0  0
  190.8190  175.5070  144.6410 N   0  0  0  0  0  2  0  0  0  0  0  0
  192.9720  176.2120  145.7440 C   0  0  1  0  0  3  0  0  0  0  0  0
  193.1200  174.7750  145.9060 N   0  0  0  0  0  1  0  0  0  0  0  0
  194.7720  177.7410  146.1450 O   0  0  0  0  0  1  0  0  0  0  0  0
  194.2700  176.8230  145.2190 C   0  0  1  0  0  3  0  0  0  0  0  0
  195.2210  175.8200  145.0080 O   0  0  0  0  0  0  0  0  0  0  0  0
  195.0690  176.1330  142.6430 C   0  0  0  0  0  2  0  0  0  0  0  0
  197.1800  175.3510  143.7150 C   0  0  0  0  0  2  0  0  0  0  0  0
  197.1220  175.5630  141.3500 C   0  0  0  0  0  2  0  0  0  0  0  0
  195.8850  176.4570  141.3960 C   0  0  0  0  0  2  0  0  0  0  0  0
  195.9460  176.2360  143.8880 C   0  0  2  0  0  3  0  0  0  0  0  0
  197.9410  175.7780  142.5420 N   0  0  0  0  0  2  0  0  0  0  0  0
  188.2900  176.2990  146.1650 S   0  0  0  0  0  0  0  0  0  0  0  0
  186.7610  178.3830  145.1730 C   0  0  0  0  0  3  0  0  0  0  0  0
  185.6140  176.8290  146.6350 C   0  0  0  0  0  3  0  0  0  0  0  0
  184.4340  177.5640  146.4900 C   0  0  0  0  0  3  0  0  0  0  0  0
  185.5800  179.1170  145.0290 C   0  0  0  0  0  0  0  0  0  0  0  0
  184.4170  178.7090  145.6880 C   0  0  0  0  0  3  0  0  0  0  0  0
  186.7800  177.2400  145.9790 C   0  0  0  0  0  0  0  0  0  0  0  0
  185.5630  180.2530  144.2310 O   0  0  0  0  0  1  0  0  0  0  0  0
  1  2  1  0  0  0  0
  2 21  1  0  0  0  0
  3  1  2  0  0  0  0
  4  2  2  0  0  0  0
  4  9  1  0  0  0  0
  5  3  1  0  0  0  0
  5  6  2  0  0  0  0
  6  4  1  0  0  0  0
  7  8  2  0  0  0  0
  8 10  1  0  0  0  0
  9  8  1  0  0  0  0
 10 11  1  6  0  0  0
 13 10  1  0  0  0  0
 13 12  1  1  0  0  0
 14 13  1  0  0  0  0
 15 19  1  0  0  0  0
 16 19  1  0  0  0  0
 17 18  1  0  0  0  0
 17 20  1  0  0  0  0
 18 15  1  0  0  0  0
 19 14  1  1  0  0  0
 20 16  1  0  0  0  0
 22 27  1  0  0  0  0
 24 23  1  0  0  0  0
 25 22  2  0  0  0  0
 25 26  1  0  0  0  0
 26 24  2  0  0  0  0
 27 21  1  0  0  0  0
 27 23  2  0  0  0  0
 28 25  1  0  0  0  0
M  END
>  <MODEL>
6

>  <REMARK>
 VINA RESULT:      -6.9      4.171      7.906
  Name = 
  7 active torsions:
  status: ('A' for Active; 'I' for Inactive)
    1  A    between atoms: O_1  and  C_15
    2  A    between atoms: O_1  and  C_25
    3  A    between atoms: C_9  and  S_18
    4  A    between atoms: C_11  and  C_23
    5  A    between atoms: C_11  and  C_25
    6  A    between atoms: C_16  and  N_24
    7  A    between atoms: S_18  and  C_22
                            x       y       z     vdW  Elec       q    Type
                         _______ _______ _______ _____ _____    ______ ____

>  <TORSDO>
F 7

$$$$
=
 OpenBabel11042414493D

 28 30  0  0  1  0  0  0  0  0999 V2000
  187.8230  175.7150  142.3550 C   0  0  0  0  0  3  0  0  0  0  0  0
  188.7090  176.1220  143.3590 C   0  0  0  0  0  0  0  0  0  0  0  0
  187.7720  174.3770  141.9610 C   0  0  0  0  0  3  0  0  0  0  0  0
  189.5530  175.1820  143.9780 C   0  0  0  0  0  0  0  0  0  0  0  0
  188.6070  173.4390  142.5690 C   0  0  0  0  0  3  0  0  0  0  0  0
  189.4930  173.8400  143.5720 C   0  0  0  0  0  3  0  0  0  0  0  0
  192.3710  176.0120  143.7020 O   0  0  0  0  0  0  0  0  0  0  0  0
  191.8280  176.0040  144.8410 C   0  0  0  0  0  0  0  0  0  0  0  0
  190.4590  175.6130  145.0060 N   0  0  0  0  0  2  0  0  0  0  0  0
  192.6000  176.4470  146.0400 C   0  0  1  0  0  3  0  0  0  0  0  0
  192.2490  175.6200  147.1840 N   0  0  0  0  0  1  0  0  0  0  0  0
  194.7100  177.5740  146.1660 O   0  0  0  0  0  1  0  0  0  0  0  0
  194.1030  176.3770  145.7780 C   0  0  1  0  0  3  0  0  0  0  0  0
  194.6680  175.3220  146.5010 O   0  0  0  0  0  0  0  0  0  0  0  0
  194.4330  173.2010  145.4220 C   0  0  0  0  0  2  0  0  0  0  0  0
  196.6800  174.1520  145.9420 C   0  0  0  0  0  2  0  0  0  0  0  0
  196.5650  172.0070  144.9290 C   0  0  0  0  0  2  0  0  0  0  0  0
  195.1250  172.2280  144.4730 C   0  0  0  0  0  2  0  0  0  0  0  0
  195.2440  174.4900  145.5390 C   0  0  2  0  0  3  0  0  0  0  0  0
  197.2890  173.2770  144.9420 N   0  0  0  0  0  2  0  0  0  0  0  0
  188.7430  177.8540  143.8330 S   0  0  0  0  0  0  0  0  0  0  0  0
  186.0710  178.4450  144.2560 C   0  0  0  0  0  3  0  0  0  0  0  0
  187.0960  176.9550  145.8680 C   0  0  0  0  0  3  0  0  0  0  0  0
  185.8840  176.8700  146.5600 C   0  0  0  0  0  3  0  0  0  0  0  0
  184.8600  178.3600  144.9480 C   0  0  0  0  0  0  0  0  0  0  0  0
  184.7660  177.5730  146.1000 C   0  0  0  0  0  3  0  0  0  0  0  0
  187.1910  177.7460  144.7180 C   0  0  0  0  0  0  0  0  0  0  0  0
  183.7490  179.0560  144.4920 O   0  0  0  0  0  1  0  0  0  0  0  0
  1  2  1  0  0  0  0
  2 21  1  0  0  0  0
  2  4  2  0  0  0  0
  3  1  2  0  0  0  0
  3  5  1  0  0  0  0
  4  9  1  0  0  0  0
  5  6  2  0  0  0  0
  6  4  1  0  0  0  0
  7  8  2  0  0  0  0
  8  9  1  0  0  0  0
  8 10  1  0  0  0  0
 10 11  1  1  0  0  0
 13 10  1  0  0  0  0
 13 12  1  1  0  0  0
 13 14  1  0  0  0  0
 15 19  1  0  0  0  0
 17 20  1  0  0  0  0
 18 17  1  0  0  0  0
 18 15  1  0  0  0  0
 19 16  1  0  0  0  0
 19 14  1  1  0  0  0
 20 16  1  0  0  0  0
 21 27  1  0  0  0  0
 22 27  2  0  0  0  0
 22 25  1  0  0  0  0
 23 24  2  0  0  0  0
 25 26  2  0  0  0  0
 26 24  1  0  0  0  0
 27 23  1  0  0  0  0
 28 25  1  0  0  0  0
M  END
>  <MODEL>
7

>  <REMARK>
 VINA RESULT:      -6.8      3.872      7.604
  Name = 
  7 active torsions:
  status: ('A' for Active; 'I' for Inactive)
    1  A    between atoms: O_1  and  C_15
    2  A    between atoms: O_1  and  C_25
    3  A    between atoms: C_9  and  S_18
    4  A    between atoms: C_11  and  C_23
    5  A    between atoms: C_11  and  C_25
    6  A    between atoms: C_16  and  N_24
    7  A    between atoms: S_18  and  C_22
                            x       y       z     vdW  Elec       q    Type
                         _______ _______ _______ _____ _____    ______ ____

>  <TORSDO>
F 7

$$$$
=
 OpenBabel11042414493D

 28 30  0  0  1  0  0  0  0  0999 V2000
  196.1450  176.2840  143.3580 C   0  0  0  0  0  3  0  0  0  0  0  0
  194.9220  176.0660  144.0020 C   0  0  0  0  0  0  0  0  0  0  0  0
  196.1950  176.4180  141.9690 C   0  0  0  0  0  3  0  0  0  0  0  0
  193.7350  175.9830  143.2520 C   0  0  0  0  0  0  0  0  0  0  0  0
  195.0220  176.3340  141.2180 C   0  0  0  0  0  3  0  0  0  0  0  0
  193.7980  176.1180  141.8570 C   0  0  0  0  0  3  0  0  0  0  0  0
  191.6180  177.9380  143.8870 O   0  0  0  0  0  0  0  0  0  0  0  0
  191.4800  176.7310  144.2250 C   0  0  0  0  0  0  0  0  0  0  0  0
  192.4870  175.7570  143.9260 N   0  0  0  0  0  2  0  0  0  0  0  0
  190.2310  176.2870  144.9160 C   0  0  1  0  0  3  0  0  0  0  0  0
  190.3320  176.5640  146.3400 N   0  0  0  0  0  1  0  0  0  0  0  0
  188.0850  176.0280  143.8850 O   0  0  0  0  0  1  0  0  0  0  0  0
  189.0050  176.9820  144.3270 C   0  0  1  0  0  3  0  0  0  0  0  0
  188.3990  177.7890  145.2940 O   0  0  0  0  0  0  0  0  0  0  0  0
  186.2750  178.7190  144.7110 C   0  0  0  0  0  2  0  0  0  0  0  0
  186.5110  177.0980  146.5920 C   0  0  0  0  0  2  0  0  0  0  0  0
  184.3640  178.0090  146.1440 C   0  0  0  0  0  2  0  0  0  0  0  0
  184.7730  178.4540  144.7420 C   0  0  0  0  0  2  0  0  0  0  0  0
  187.0370  177.4940  145.2120 C   0  0  2  0  0  3  0  0  0  0  0  0
  185.0830  176.7920  146.5150 N   0  0  0  0  0  2  0  0  0  0  0  0
  194.9060  175.8980  145.7910 S   0  0  0  0  0  0  0  0  0  0  0  0
  194.4140  173.2020  145.3990 C   0  0  0  0  0  3  0  0  0  0  0  0
  196.6830  173.7880  146.0160 C   0  0  0  0  0  3  0  0  0  0  0  0
  197.0440  172.4380  145.9710 C   0  0  0  0  0  3  0  0  0  0  0  0
  194.7760  171.8520  145.3540 C   0  0  0  0  0  0  0  0  0  0  0  0
  196.0900  171.4700  145.6410 C   0  0  0  0  0  3  0  0  0  0  0  0
  195.3660  174.1700  145.7330 C   0  0  0  0  0  0  0  0  0  0  0  0
  193.8300  170.8910  145.0260 O   0  0  0  0  0  1  0  0  0  0  0  0
  1  2  1  0  0  0  0
  2 21  1  0  0  0  0
  3  1  2  0  0  0  0
  4  9  1  0  0  0  0
  4  2  2  0  0  0  0
  5  6  2  0  0  0  0
  5  3  1  0  0  0  0
  6  4  1  0  0  0  0
  7  8  2  0  0  0  0
  8 10  1  0  0  0  0
  9  8  1  0  0  0  0
 10 11  1  1  0  0  0
 13 12  1  1  0  0  0
 13 10  1  0  0  0  0
 13 14  1  0  0  0  0
 15 18  1  0  0  0  0
 15 19  1  0  0  0  0
 17 20  1  0  0  0  0
 18 17  1  0  0  0  0
 19 14  1  1  0  0  0
 19 16  1  0  0  0  0
 20 16  1  0  0  0  0
 22 27  1  0  0  0  0
 24 23  1  0  0  0  0
 25 22  2  0  0  0  0
 25 26  1  0  0  0  0
 26 24  2  0  0  0  0
 27 21  1  0  0  0  0
 27 23  2  0  0  0  0
 28 25  1  0  0  0  0
M  END
>  <MODEL>
8

>  <REMARK>
 VINA RESULT:      -6.7      4.062      5.253
  Name = 
  7 active torsions:
  status: ('A' for Active; 'I' for Inactive)
    1  A    between atoms: O_1  and  C_15
    2  A    between atoms: O_1  and  C_25
    3  A    between atoms: C_9  and  S_18
    4  A    between atoms: C_11  and  C_23
    5  A    between atoms: C_11  and  C_25
    6  A    between atoms: C_16  and  N_24
    7  A    between atoms: S_18  and  C_22
                            x       y       z     vdW  Elec       q    Type
                         _______ _______ _______ _____ _____    ______ ____

>  <TORSDO>
F 7

$$$$
=
 OpenBabel11042414493D

 28 30  0  0  1  0  0  0  0  0999 V2000
  191.6070  174.1800  141.0330 C   0  0  0  0  0  3  0  0  0  0  0  0
  191.1060  174.1750  142.3400 C   0  0  0  0  0  0  0  0  0  0  0  0
  192.9630  174.4120  140.7990 C   0  0  0  0  0  3  0  0  0  0  0  0
  191.9700  174.4040  143.4260 C   0  0  0  0  0  0  0  0  0  0  0  0
  193.8260  174.6410  141.8720 C   0  0  0  0  0  3  0  0  0  0  0  0
  193.3320  174.6370  143.1780 C   0  0  0  0  0  3  0  0  0  0  0  0
  191.6810  176.6760  145.2870 O   0  0  0  0  0  0  0  0  0  0  0  0
  191.3220  175.5210  145.6460 C   0  0  0  0  0  0  0  0  0  0  0  0
  191.4440  174.3990  144.7620 N   0  0  0  0  0  2  0  0  0  0  0  0
  190.7200  175.3110  146.9970 C   0  0  1  0  0  3  0  0  0  0  0  0
  191.1260  176.3860  147.8880 N   0  0  0  0  0  1  0  0  0  0  0  0
  188.7080  174.3400  147.8620 O   0  0  0  0  0  1  0  0  0  0  0  0
  189.1970  175.2400  146.9110 C   0  0  1  0  0  3  0  0  0  0  0  0
  188.6440  176.5020  147.1490 O   0  0  0  0  0  0  0  0  0  0  0  0
  187.3460  176.7980  145.1630 C   0  0  0  0  0  2  0  0  0  0  0  0
  186.4390  177.3980  147.4070 C   0  0  0  0  0  2  0  0  0  0  0  0
  185.0870  177.7980  145.4960 C   0  0  0  0  0  2  0  0  0  0  0  0
  185.9180  176.8520  144.6310 C   0  0  0  0  0  2  0  0  0  0  0  0
  187.3430  176.4290  146.6440 C   0  0  2  0  0  3  0  0  0  0  0  0
  185.0770  177.3310  146.8810 N   0  0  0  0  0  2  0  0  0  0  0  0
  189.3530  173.8740  142.5940 S   0  0  0  0  0  0  0  0  0  0  0  0
  187.7630  175.7830  141.3720 C   0  0  0  0  0  3  0  0  0  0  0  0
  189.6780  176.6230  142.5960 C   0  0  0  0  0  3  0  0  0  0  0  0
  189.3230  177.9310  142.2520 C   0  0  0  0  0  3  0  0  0  0  0  0
  187.4100  177.0910  141.0280 C   0  0  0  0  0  0  0  0  0  0  0  0
  188.1900  178.1650  141.4670 C   0  0  0  0  0  3  0  0  0  0  0  0
  188.9000  175.5480  142.1530 C   0  0  0  0  0  0  0  0  0  0  0  0
  186.2840  177.3240  140.2500 O   0  0  0  0  0  1  0  0  0  0  0  0
  1  2  1  0  0  0  0
  2 21  1  0  0  0  0
  2  4  2  0  0  0  0
  3  1  2  0  0  0  0
  3  5  1  0  0  0  0
  4  9  1  0  0  0  0
  5  6  2  0  0  0  0
  6  4  1  0  0  0  0
  7  8  2  0  0  0  0
  8 10  1  0  0  0  0
  9  8  1  0  0  0  0
 10 11  1  1  0  0  0
 13 10  1  0  0  0  0
 13 14  1  0  0  0  0
 13 12  1  1  0  0  0
 15 19  1  0  0  0  0
 17 20  1  0  0  0  0
 18 15  1  0  0  0  0
 18 17  1  0  0  0  0
 19 14  1  1  0  0  0
 19 16  1  0  0  0  0
 20 16  1  0  0  0  0
 22 27  1  0  0  0  0
 24 23  1  0  0  0  0
 25 22  2  0  0  0  0
 25 26  1  0  0  0  0
 26 24  2  0  0  0  0
 27 21  1  0  0  0  0
 27 23  2  0  0  0  0
 28 25  1  0  0  0  0
M  END
>  <MODEL>
9

>  <REMARK>
 VINA RESULT:      -6.7      2.291      5.294
  Name = 
  7 active torsions:
  status: ('A' for Active; 'I' for Inactive)
    1  A    between atoms: O_1  and  C_15
    2  A    between atoms: O_1  and  C_25
    3  A    between atoms: C_9  and  S_18
    4  A    between atoms: C_11  and  C_23
    5  A    between atoms: C_11  and  C_25
    6  A    between atoms: C_16  and  N_24
    7  A    between atoms: S_18  and  C_22
                            x       y       z     vdW  Elec       q    Type
                         _______ _______ _______ _____ _____    ______ ____

>  <TORSDO>
F 7

$$$$
