=
 OpenBabel11042413463D

 30 34  0  0  1  0  0  0  0  0999 V2000
  189.4680  176.8500  145.8240 C   0  0  0  0  0  0  0  0  0  0  0  0
  193.3870  176.0460  146.6100 C   0  0  0  0  0  3  0  0  0  0  0  0
  192.6380  176.4510  147.6840 N   0  0  0  0  0  0  0  0  0  0  0  0
  188.2880  177.3080  146.6130 C   0  0  0  0  0  1  0  0  0  0  0  0
  191.5030  176.2310  145.2390 C   0  0  0  0  0  0  0  0  0  0  0  0
  190.7750  176.1790  144.1070 N   0  0  0  0  0  0  0  0  0  0  0  0
  190.7450  176.6350  146.2970 C   0  0  0  0  0  0  0  0  0  0  0  0
  192.8190  175.9340  145.3710 N   0  0  0  0  0  0  0  0  0  0  0  0
  189.5200  176.5530  144.4590 C   0  0  0  0  0  0  0  0  0  0  0  0
  191.3120  176.7530  147.5570 C   0  0  0  0  0  3  0  0  0  0  0  0
  193.2110  173.2790  141.4430 C   0  0  0  0  0  2  0  0  0  0  0  0
  191.2220  175.7960  142.7680 C   0  0  2  0  0  3  0  0  0  0  0  0
  193.1280  174.6480  140.9120 N   0  0  1  0  0  0  0  0  0  0  0  0
  194.8190  176.3080  141.4780 C   0  0  0  0  0  1  0  0  0  0  0  0
  191.8980  173.8900  141.2820 C   0  0  2  0  0  3  0  0  0  0  0  0
  191.3190  174.2760  142.6470 C   0  0  0  0  0  2  0  0  0  0  0  0
  192.5290  176.5130  142.4080 C   0  0  0  0  0  2  0  0  0  0  0  0
  193.6160  175.5320  141.9750 C   0  0  1  0  0  3  0  0  0  0  0  0
  185.7910  177.2760  142.4950 C   0  0  0  0  0  2  0  0  0  0  0  0
  186.3250  175.9160  142.9690 C   0  0  0  0  0  2  0  0  0  0  0  0
  186.6490  178.4500  142.9920 C   0  0  2  0  0  3  0  0  0  0  0  0
  188.7840  178.3260  141.6940 C   0  0  0  0  0  1  0  0  0  0  0  0
  188.3810  176.6420  143.4910 C   0  0  1  0  0  3  0  0  0  0  0  0
  187.2200  176.0680  144.0420 O   0  0  0  0  0  0  0  0  0  0  0  0
  188.1440  178.0970  143.0490 C   0  0  2  0  0  3  0  0  0  0  0  0
  186.2110  178.8370  144.2600 O   0  0  0  0  0  0  0  0  0  0  0  0
  184.9270  179.3450  144.0590 C   0  0  0  0  0  2  0  0  0  0  0  0
  184.0380  178.9910  145.2390 C   0  0  0  0  0  2  0  0  0  0  0  0
  184.6850  177.9040  146.0760 C   0  0  0  0  0  2  0  0  0  0  0  0
  184.9030  178.4110  147.4850 C   0  0  0  0  0  1  0  0  0  0  0  0
  1  7  1  0  0  0  0
  1  4  1  0  0  0  0
  2  3  1  0  0  0  0
  5  8  1  0  0  0  0
  5  7  2  0  0  0  0
  6  9  1  0  0  0  0
  6  5  1  0  0  0  0
  7 10  1  0  0  0  0
  8  2  2  0  0  0  0
  9  1  2  0  0  0  0
 10  3  2  0  0  0  0
 12 17  1  1  0  0  0
 12  6  1  0  0  0  0
 13 15  1  0  0  0  0
 13 11  1  1  0  0  0
 13 18  1  0  0  0  0
 15 11  1  1  0  0  0
 15 16  1  0  0  0  0
 16 12  1  0  0  0  0
 18 14  1  6  0  0  0
 18 17  1  0  0  0  0
 19 20  1  0  0  0  0
 19 21  1  0  0  0  0
 20 24  1  0  0  0  0
 21 25  1  0  0  0  0
 21 26  1  1  0  0  0
 23 24  1  0  0  0  0
 23  9  1  1  0  0  0
 25 22  1  6  0  0  0
 25 23  1  0  0  0  0
 27 26  1  0  0  0  0
 27 28  1  0  0  0  0
 28 29  1  0  0  0  0
 29 30  1  0  0  0  0
M  END
>  <MODEL>
1

>  <REMARK>
 VINA RESULT:      -6.7      0.000      0.000
  Name = 
  6 active torsions:
  status: ('A' for Active; 'I' for Inactive)
    1  A    between atoms: C_5  and  O_18
    2  A    between atoms: C_7  and  N_15
    3  A    between atoms: C_8  and  C_10
    4  A    between atoms: C_8  and  C_17
    5  A    between atoms: C_12  and  C_27
    6  A    between atoms: C_17  and  O_18
                            x       y       z     vdW  Elec       q    Type
                         _______ _______ _______ _____ _____    ______ ____

>  <TORSDO>
F 6

$$$$
=
 OpenBabel11042413463D

 30 34  0  0  1  0  0  0  0  0999 V2000
  187.0840  177.5590  144.4190 C   0  0  0  0  0  0  0  0  0  0  0  0
  186.9960  177.1760  140.3620 C   0  0  0  0  0  3  0  0  0  0  0  0
  186.1070  178.0750  140.8920 N   0  0  0  0  0  0  0  0  0  0  0  0
  186.3470  178.3630  145.4370 C   0  0  0  0  0  1  0  0  0  0  0  0
  187.7710  176.6900  142.5130 C   0  0  0  0  0  0  0  0  0  0  0  0
  188.5170  176.0950  143.4640 N   0  0  0  0  0  0  0  0  0  0  0  0
  186.8920  177.5790  143.0550 C   0  0  0  0  0  0  0  0  0  0  0  0
  187.8400  176.4720  141.1760 N   0  0  0  0  0  0  0  0  0  0  0  0
  188.1030  176.6290  144.6410 C   0  0  0  0  0  0  0  0  0  0  0  0
  186.0320  178.2970  142.2370 C   0  0  0  0  0  3  0  0  0  0  0  0
  192.0890  174.5140  140.9800 C   0  0  0  0  0  2  0  0  0  0  0  0
  189.5610  175.0880  143.2890 C   0  0  2  0  0  3  0  0  0  0  0  0
  191.3340  173.4600  141.6750 N   0  0  1  0  0  0  0  0  0  0  0  0
  189.4640  172.3440  140.5830 C   0  0  0  0  0  1  0  0  0  0  0  0
  191.8710  174.6380  142.4160 C   0  0  2  0  0  3  0  0  0  0  0  0
  190.8250  175.7180  142.7040 C   0  0  0  0  0  2  0  0  0  0  0  0
  189.0410  173.9070  142.4610 C   0  0  0  0  0  2  0  0  0  0  0  0
  189.9370  173.6140  141.2590 C   0  0  1  0  0  3  0  0  0  0  0  0
  190.5280  175.1920  147.8570 C   0  0  0  0  0  2  0  0  0  0  0  0
  189.2430  174.5440  147.3220 C   0  0  0  0  0  2  0  0  0  0  0  0
  191.0190  176.3450  146.9660 C   0  0  2  0  0  3  0  0  0  0  0  0
  189.3920  178.2120  147.3170 C   0  0  0  0  0  1  0  0  0  0  0  0
  188.6710  176.2390  145.9710 C   0  0  1  0  0  3  0  0  0  0  0  0
  189.0280  174.8780  145.9740 O   0  0  0  0  0  0  0  0  0  0  0  0
  189.8580  177.1410  146.3500 C   0  0  2  0  0  3  0  0  0  0  0  0
  191.8250  175.8310  145.9480 O   0  0  0  0  0  0  0  0  0  0  0  0
  192.9220  175.2700  146.6050 C   0  0  0  0  0  2  0  0  0  0  0  0
  194.1230  176.1940  146.4910 C   0  0  0  0  0  2  0  0  0  0  0  0
  194.1860  176.8040  145.1040 C   0  0  0  0  0  2  0  0  0  0  0  0
  194.9660  175.8900  144.1830 C   0  0  0  0  0  1  0  0  0  0  0  0
  1  9  2  0  0  0  0
  1  4  1  0  0  0  0
  2  3  2  0  0  0  0
  2  8  1  0  0  0  0
  3 10  1  0  0  0  0
  5  7  1  0  0  0  0
  5  6  1  0  0  0  0
  6  9  1  0  0  0  0
  7  1  1  0  0  0  0
  8  5  2  0  0  0  0
 10  7  2  0  0  0  0
 12 17  1  6  0  0  0
 12  6  1  0  0  0  0
 13 11  1  6  0  0  0
 13 15  1  0  0  0  0
 15 11  1  6  0  0  0
 15 16  1  0  0  0  0
 16 12  1  0  0  0  0
 18 14  1  1  0  0  0
 18 13  1  0  0  0  0
 18 17  1  0  0  0  0
 20 19  1  0  0  0  0
 21 26  1  6  0  0  0
 21 19  1  0  0  0  0
 23  9  1  6  0  0  0
 23 24  1  0  0  0  0
 23 25  1  0  0  0  0
 24 20  1  0  0  0  0
 25 21  1  0  0  0  0
 25 22  1  1  0  0  0
 26 27  1  0  0  0  0
 28 27  1  0  0  0  0
 29 28  1  0  0  0  0
 30 29  1  0  0  0  0
M  END
>  <MODEL>
2

>  <REMARK>
 VINA RESULT:      -6.7      2.338      5.999
  Name = 
  6 active torsions:
  status: ('A' for Active; 'I' for Inactive)
    1  A    between atoms: C_5  and  O_18
    2  A    between atoms: C_7  and  N_15
    3  A    between atoms: C_8  and  C_10
    4  A    between atoms: C_8  and  C_17
    5  A    between atoms: C_12  and  C_27
    6  A    between atoms: C_17  and  O_18
                            x       y       z     vdW  Elec       q    Type
                         _______ _______ _______ _____ _____    ______ ____

>  <TORSDO>
F 6

$$$$
=
 OpenBabel11042413463D

 30 34  0  0  1  0  0  0  0  0999 V2000
  188.6870  175.3930  142.9730 C   0  0  0  0  0  0  0  0  0  0  0  0
  191.3170  173.4150  140.5670 C   0  0  0  0  0  3  0  0  0  0  0  0
  190.0510  173.5630  140.0650 N   0  0  0  0  0  0  0  0  0  0  0  0
  187.2520  175.7920  142.8930 C   0  0  0  0  0  1  0  0  0  0  0  0
  190.6710  174.5510  142.5050 C   0  0  0  0  0  0  0  0  0  0  0  0
  190.7980  175.1030  143.7270 N   0  0  0  0  0  0  0  0  0  0  0  0
  189.4070  174.7060  142.0200 C   0  0  0  0  0  0  0  0  0  0  0  0
  191.6370  173.9110  141.8010 N   0  0  0  0  0  0  0  0  0  0  0  0
  189.5820  175.6280  144.0210 C   0  0  0  0  0  0  0  0  0  0  0  0
  189.0730  174.2050  140.7700 C   0  0  0  0  0  3  0  0  0  0  0  0
  195.4150  174.9840  144.0500 C   0  0  0  0  0  2  0  0  0  0  0  0
  191.9870  175.1440  144.5760 C   0  0  2  0  0  3  0  0  0  0  0  0
  194.7220  174.4370  145.2260 N   0  0  1  0  0  0  0  0  0  0  0  0
  194.1750  172.0660  145.3560 C   0  0  0  0  0  1  0  0  0  0  0  0
  194.4060  175.8010  144.7120 C   0  0  2  0  0  3  0  0  0  0  0  0
  193.1320  175.8650  143.8650 C   0  0  0  0  0  2  0  0  0  0  0  0
  192.3660  173.7340  145.0470 C   0  0  0  0  0  2  0  0  0  0  0  0
  193.8200  173.3960  144.7230 C   0  0  1  0  0  3  0  0  0  0  0  0
  187.7600  177.7470  147.2570 C   0  0  0  0  0  2  0  0  0  0  0  0
  188.8010  178.3020  146.2740 C   0  0  0  0  0  2  0  0  0  0  0  0
  187.2380  176.3620  146.8420 C   0  0  2  0  0  3  0  0  0  0  0  0
  189.1300  174.7770  147.2460 C   0  0  0  0  0  1  0  0  0  0  0  0
  189.2760  176.3380  145.3040 C   0  0  1  0  0  3  0  0  0  0  0  0
  188.7540  177.6190  145.0470 O   0  0  0  0  0  0  0  0  0  0  0  0
  188.3280  175.5020  146.1830 C   0  0  2  0  0  3  0  0  0  0  0  0
  186.1680  176.5180  145.9580 O   0  0  0  0  0  0  0  0  0  0  0  0
  185.1560  177.1090  146.7170 C   0  0  0  0  0  2  0  0  0  0  0  0
  184.4240  178.1490  145.8850 C   0  0  0  0  0  2  0  0  0  0  0  0
  185.0780  178.2880  144.5240 C   0  0  0  0  0  2  0  0  0  0  0  0
  185.5380  179.7160  144.3280 C   0  0  0  0  0  1  0  0  0  0  0  0
  1  9  2  0  0  0  0
  2  8  1  0  0  0  0
  3  2  2  0  0  0  0
  3 10  1  0  0  0  0
  4  1  1  0  0  0  0
  5  6  1  0  0  0  0
  6  9  1  0  0  0  0
  7  5  1  0  0  0  0
  7  1  1  0  0  0  0
  8  5  2  0  0  0  0
 10  7  2  0  0  0  0
 11 15  1  0  0  0  0
 12  6  1  6  0  0  0
 12 17  1  0  0  0  0
 13 11  1  6  0  0  0
 15 16  1  6  0  0  0
 15 13  1  0  0  0  0
 16 12  1  0  0  0  0
 18 17  1  0  0  0  0
 18 13  1  0  0  0  0
 18 14  1  1  0  0  0
 20 19  1  0  0  0  0
 21 26  1  6  0  0  0
 21 19  1  0  0  0  0
 23  9  1  6  0  0  0
 23 25  1  0  0  0  0
 24 23  1  0  0  0  0
 24 20  1  0  0  0  0
 25 21  1  0  0  0  0
 25 22  1  1  0  0  0
 26 27  1  0  0  0  0
 28 27  1  0  0  0  0
 29 28  1  0  0  0  0
 30 29  1  0  0  0  0
M  END
>  <MODEL>
3

>  <REMARK>
 VINA RESULT:      -6.6      2.013      4.346
  Name = 
  6 active torsions:
  status: ('A' for Active; 'I' for Inactive)
    1  A    between atoms: C_5  and  O_18
    2  A    between atoms: C_7  and  N_15
    3  A    between atoms: C_8  and  C_10
    4  A    between atoms: C_8  and  C_17
    5  A    between atoms: C_12  and  C_27
    6  A    between atoms: C_17  and  O_18
                            x       y       z     vdW  Elec       q    Type
                         _______ _______ _______ _____ _____    ______ ____

>  <TORSDO>
F 6

$$$$
=
 OpenBabel11042413463D

 30 34  0  0  1  0  0  0  0  0999 V2000
  190.4590  174.3410  142.3040 C   0  0  0  0  0  0  0  0  0  0  0  0
  188.8830  173.6770  138.6040 C   0  0  0  0  0  3  0  0  0  0  0  0
  190.1000  173.0940  138.8430 N   0  0  0  0  0  0  0  0  0  0  0  0
  191.7040  173.9490  143.0260 C   0  0  0  0  0  1  0  0  0  0  0  0
  188.9000  174.5740  140.7620 C   0  0  0  0  0  0  0  0  0  0  0  0
  188.4550  175.2700  141.8260 N   0  0  0  0  0  0  0  0  0  0  0  0
  190.1100  174.0010  141.0160 C   0  0  0  0  0  0  0  0  0  0  0  0
  188.2710  174.4280  139.5690 N   0  0  0  0  0  0  0  0  0  0  0  0
  189.4070  175.1270  142.7820 C   0  0  0  0  0  0  0  0  0  0  0  0
  190.7380  173.2390  140.0410 C   0  0  0  0  0  3  0  0  0  0  0  0
  186.3380  179.2210  142.9850 C   0  0  0  0  0  2  0  0  0  0  0  0
  187.2090  176.0240  141.9500 C   0  0  2  0  0  3  0  0  0  0  0  0
  185.5110  178.0220  143.1850 N   0  0  1  0  0  0  0  0  0  0  0  0
  185.5220  176.8450  145.3180 C   0  0  0  0  0  1  0  0  0  0  0  0
  186.1560  178.3020  141.8690 C   0  0  2  0  0  3  0  0  0  0  0  0
  187.4380  177.5000  141.6240 C   0  0  0  0  0  2  0  0  0  0  0  0
  186.5770  175.8040  143.3300 C   0  0  0  0  0  2  0  0  0  0  0  0
  186.2900  177.1240  144.0430 C   0  0  1  0  0  3  0  0  0  0  0  0
  190.0110  176.3590  146.8320 C   0  0  0  0  0  2  0  0  0  0  0  0
  188.9120  175.4170  146.3180 C   0  0  0  0  0  2  0  0  0  0  0  0
  191.0620  176.6780  145.7570 C   0  0  2  0  0  3  0  0  0  0  0  0
  189.9150  178.1770  144.1140 C   0  0  0  0  0  1  0  0  0  0  0  0
  189.3160  175.7540  144.1390 C   0  0  1  0  0  3  0  0  0  0  0  0
  189.3130  174.7650  145.1400 O   0  0  0  0  0  0  0  0  0  0  0  0
  190.4470  176.7760  144.3520 C   0  0  2  0  0  3  0  0  0  0  0  0
  192.0480  175.6900  145.7670 O   0  0  0  0  0  0  0  0  0  0  0  0
  192.7950  175.9360  146.9200 C   0  0  0  0  0  2  0  0  0  0  0  0
  194.0660  176.6890  146.5650 C   0  0  0  0  0  2  0  0  0  0  0  0
  194.7410  176.0440  145.3700 C   0  0  0  0  0  2  0  0  0  0  0  0
  195.5350  174.8380  145.8270 C   0  0  0  0  0  1  0  0  0  0  0  0
  1  9  2  0  0  0  0
  1  4  1  0  0  0  0
  2  3  2  0  0  0  0
  2  8  1  0  0  0  0
  3 10  1  0  0  0  0
  5  7  1  0  0  0  0
  5  6  1  0  0  0  0
  6 12  1  0  0  0  0
  6  9  1  0  0  0  0
  7  1  1  0  0  0  0
  8  5  2  0  0  0  0
 10  7  2  0  0  0  0
 12 16  1  1  0  0  0
 12 17  1  0  0  0  0
 13 11  1  1  0  0  0
 13 18  1  0  0  0  0
 15 16  1  1  0  0  0
 15 11  1  0  0  0  0
 15 13  1  0  0  0  0
 17 18  1  0  0  0  0
 18 14  1  1  0  0  0
 20 19  1  0  0  0  0
 21 26  1  6  0  0  0
 21 19  1  0  0  0  0
 23  9  1  6  0  0  0
 23 25  1  0  0  0  0
 23 24  1  0  0  0  0
 24 20  1  0  0  0  0
 25 22  1  1  0  0  0
 25 21  1  0  0  0  0
 26 27  1  0  0  0  0
 28 27  1  0  0  0  0
 29 30  1  0  0  0  0
 29 28  1  0  0  0  0
M  END
>  <MODEL>
4

>  <REMARK>
 VINA RESULT:      -6.5      2.760      7.031
  Name = 
  6 active torsions:
  status: ('A' for Active; 'I' for Inactive)
    1  A    between atoms: C_5  and  O_18
    2  A    between atoms: C_7  and  N_15
    3  A    between atoms: C_8  and  C_10
    4  A    between atoms: C_8  and  C_17
    5  A    between atoms: C_12  and  C_27
    6  A    between atoms: C_17  and  O_18
                            x       y       z     vdW  Elec       q    Type
                         _______ _______ _______ _____ _____    ______ ____

>  <TORSDO>
F 6

$$$$
=
 OpenBabel11042413463D

 30 34  0  0  1  0  0  0  0  0999 V2000
  188.5670  175.1430  142.1530 C   0  0  0  0  0  0  0  0  0  0  0  0
  190.1810  173.1280  138.9980 C   0  0  0  0  0  3  0  0  0  0  0  0
  188.8550  173.4530  138.8780 N   0  0  0  0  0  0  0  0  0  0  0  0
  187.2260  175.6970  142.4990 C   0  0  0  0  0  1  0  0  0  0  0  0
  190.2290  174.1430  141.1030 C   0  0  0  0  0  0  0  0  0  0  0  0
  190.7490  174.5640  142.2720 N   0  0  0  0  0  0  0  0  0  0  0  0
  188.9110  174.4740  140.9990 C   0  0  0  0  0  0  0  0  0  0  0  0
  190.8810  173.4720  140.1210 N   0  0  0  0  0  0  0  0  0  0  0  0
  189.7330  175.1860  142.9230 C   0  0  0  0  0  0  0  0  0  0  0  0
  188.1930  174.1280  139.8630 C   0  0  0  0  0  3  0  0  0  0  0  0
  193.5890  173.4190  145.7440 C   0  0  0  0  0  2  0  0  0  0  0  0
  192.1170  174.4010  142.7580 C   0  0  2  0  0  3  0  0  0  0  0  0
  194.1430  174.4290  144.8310 N   0  0  1  0  0  0  0  0  0  0  0  0
  193.8090  176.8050  145.2530 C   0  0  0  0  0  1  0  0  0  0  0  0
  193.6200  173.1300  144.3170 C   0  0  2  0  0  3  0  0  0  0  0  0
  192.2100  173.2210  143.7240 C   0  0  0  0  0  2  0  0  0  0  0  0
  192.6380  175.7120  143.3600 C   0  0  0  0  0  2  0  0  0  0  0  0
  193.1640  175.5190  144.7810 C   0  0  1  0  0  3  0  0  0  0  0  0
  189.1590  177.2580  146.6190 C   0  0  0  0  0  2  0  0  0  0  0  0
  190.0420  177.7100  145.4460 C   0  0  0  0  0  2  0  0  0  0  0  0
  188.2870  176.0430  146.2640 C   0  0  2  0  0  3  0  0  0  0  0  0
  189.8580  174.1030  146.1070 C   0  0  0  0  0  1  0  0  0  0  0  0
  189.8750  175.8030  144.2800 C   0  0  1  0  0  3  0  0  0  0  0  0
  189.5810  177.1780  144.2300 O   0  0  0  0  0  0  0  0  0  0  0  0
  189.0010  175.0700  145.3130 C   0  0  2  0  0  3  0  0  0  0  0  0
  187.1000  176.4840  145.6760 O   0  0  0  0  0  0  0  0  0  0  0  0
  186.5030  177.3030  146.6360 C   0  0  0  0  0  2  0  0  0  0  0  0
  185.7730  178.4500  145.9590 C   0  0  0  0  0  2  0  0  0  0  0  0
  186.3180  178.6660  144.5600 C   0  0  0  0  0  2  0  0  0  0  0  0
  185.5590  179.7910  143.8890 C   0  0  0  0  0  1  0  0  0  0  0  0
  1  4  1  0  0  0  0
  1  9  2  0  0  0  0
  2  8  1  0  0  0  0
  3  2  2  0  0  0  0
  3 10  1  0  0  0  0
  5  6  1  0  0  0  0
  6  9  1  0  0  0  0
  7  5  1  0  0  0  0
  7  1  1  0  0  0  0
  8  5  2  0  0  0  0
 10  7  2  0  0  0  0
 12  6  1  1  0  0  0
 12 17  1  0  0  0  0
 12 16  1  0  0  0  0
 13 11  1  1  0  0  0
 15 16  1  6  0  0  0
 15 13  1  0  0  0  0
 15 11  1  0  0  0  0
 17 18  1  0  0  0  0
 18 13  1  0  0  0  0
 18 14  1  6  0  0  0
 20 19  1  0  0  0  0
 21 26  1  6  0  0  0
 21 19  1  0  0  0  0
 23  9  1  6  0  0  0
 23 25  1  0  0  0  0
 24 23  1  0  0  0  0
 24 20  1  0  0  0  0
 25 22  1  1  0  0  0
 25 21  1  0  0  0  0
 26 27  1  0  0  0  0
 28 27  1  0  0  0  0
 29 28  1  0  0  0  0
 30 29  1  0  0  0  0
M  END
>  <MODEL>
5

>  <REMARK>
 VINA RESULT:      -6.4      2.198      4.682
  Name = 
  6 active torsions:
  status: ('A' for Active; 'I' for Inactive)
    1  A    between atoms: C_5  and  O_18
    2  A    between atoms: C_7  and  N_15
    3  A    between atoms: C_8  and  C_10
    4  A    between atoms: C_8  and  C_17
    5  A    between atoms: C_12  and  C_27
    6  A    between atoms: C_17  and  O_18
                            x       y       z     vdW  Elec       q    Type
                         _______ _______ _______ _____ _____    ______ ____

>  <TORSDO>
F 6

$$$$
=
 OpenBabel11042413463D

 30 34  0  0  1  0  0  0  0  0999 V2000
  189.3430  173.7580  142.4000 C   0  0  0  0  0  0  0  0  0  0  0  0
  192.5270  171.2180  142.5570 C   0  0  0  0  0  3  0  0  0  0  0  0
  191.3130  170.6310  142.3130 N   0  0  0  0  0  0  0  0  0  0  0  0
  187.8730  173.6240  142.1780 C   0  0  0  0  0  1  0  0  0  0  0  0
  191.4860  173.3080  142.6580 C   0  0  0  0  0  0  0  0  0  0  0  0
  191.3830  174.6440  142.8030 N   0  0  0  0  0  0  0  0  0  0  0  0
  190.2710  172.7400  142.4160 C   0  0  0  0  0  0  0  0  0  0  0  0
  192.6220  172.5710  142.7330 N   0  0  0  0  0  0  0  0  0  0  0  0
  190.0660  174.9290  142.6400 C   0  0  0  0  0  0  0  0  0  0  0  0
  190.1660  171.3690  142.2370 C   0  0  0  0  0  3  0  0  0  0  0  0
  195.9050  175.6330  142.7260 C   0  0  0  0  0  2  0  0  0  0  0  0
  192.4510  175.6040  143.0730 C   0  0  2  0  0  3  0  0  0  0  0  0
  195.1660  176.3090  143.8020 N   0  0  1  0  0  0  0  0  0  0  0  0
  194.9410  175.2770  145.9980 C   0  0  0  0  0  1  0  0  0  0  0  0
  194.7250  176.4140  142.3810 C   0  0  2  0  0  3  0  0  0  0  0  0
  193.5580  175.4870  142.0250 C   0  0  0  0  0  2  0  0  0  0  0  0
  192.9650  175.4520  144.5090 C   0  0  0  0  0  2  0  0  0  0  0  0
  194.4790  175.2550  144.5550 C   0  0  1  0  0  3  0  0  0  0  0  0
  187.5500  178.3750  142.9240 C   0  0  0  0  0  2  0  0  0  0  0  0
  188.3340  177.9170  141.6860 C   0  0  0  0  0  2  0  0  0  0  0  0
  187.5730  177.3330  144.0540 C   0  0  2  0  0  3  0  0  0  0  0  0
  189.9050  177.3650  144.9580 C   0  0  0  0  0  1  0  0  0  0  0  0
  189.5040  176.3140  142.7300 C   0  0  1  0  0  3  0  0  0  0  0  0
  188.5570  176.5300  141.7110 O   0  0  0  0  0  0  0  0  0  0  0  0
  188.9100  176.5790  144.1250 C   0  0  2  0  0  3  0  0  0  0  0  0
  186.5330  176.4210  143.8610 O   0  0  0  0  0  0  0  0  0  0  0  0
  185.4550  176.9450  144.5770 C   0  0  0  0  0  2  0  0  0  0  0  0
  185.7120  176.8170  146.0690 C   0  0  0  0  0  2  0  0  0  0  0  0
  185.3080  178.0930  146.7830 C   0  0  0  0  0  2  0  0  0  0  0  0
  184.0680  178.6660  146.1310 C   0  0  0  0  0  1  0  0  0  0  0  0
  1  7  1  0  0  0  0
  1  9  2  0  0  0  0
  2  8  1  0  0  0  0
  3  2  2  0  0  0  0
  4  1  1  0  0  0  0
  5  8  2  0  0  0  0
  5  6  1  0  0  0  0
  6 12  1  0  0  0  0
  7  5  1  0  0  0  0
  9  6  1  0  0  0  0
 10  3  1  0  0  0  0
 10  7  2  0  0  0  0
 12 16  1  6  0  0  0
 12 17  1  0  0  0  0
 13 11  1  6  0  0  0
 13 18  1  0  0  0  0
 15 16  1  1  0  0  0
 15 11  1  0  0  0  0
 15 13  1  0  0  0  0
 17 18  1  0  0  0  0
 18 14  1  1  0  0  0
 19 21  1  0  0  0  0
 20 24  1  0  0  0  0
 20 19  1  0  0  0  0
 21 26  1  6  0  0  0
 21 25  1  0  0  0  0
 23  9  1  1  0  0  0
 23 25  1  0  0  0  0
 24 23  1  0  0  0  0
 25 22  1  1  0  0  0
 26 27  1  0  0  0  0
 27 28  1  0  0  0  0
 28 29  1  0  0  0  0
 30 29  1  0  0  0  0
M  END
>  <MODEL>
6

>  <REMARK>
 VINA RESULT:      -6.3      1.968      3.870
  Name = 
  6 active torsions:
  status: ('A' for Active; 'I' for Inactive)
    1  A    between atoms: C_5  and  O_18
    2  A    between atoms: C_7  and  N_15
    3  A    between atoms: C_8  and  C_10
    4  A    between atoms: C_8  and  C_17
    5  A    between atoms: C_12  and  C_27
    6  A    between atoms: C_17  and  O_18
                            x       y       z     vdW  Elec       q    Type
                         _______ _______ _______ _____ _____    ______ ____

>  <TORSDO>
F 6

$$$$
=
 OpenBabel11042413463D

 30 34  0  0  1  0  0  0  0  0999 V2000
  189.9730  173.9120  142.9570 C   0  0  0  0  0  0  0  0  0  0  0  0
  192.6770  171.0890  141.7990 C   0  0  0  0  0  3  0  0  0  0  0  0
  191.4830  171.0780  141.1260 N   0  0  0  0  0  0  0  0  0  0  0  0
  188.5880  174.2970  142.5600 C   0  0  0  0  0  1  0  0  0  0  0  0
  191.9240  172.8920  143.0830 C   0  0  0  0  0  0  0  0  0  0  0  0
  191.9670  173.8590  144.0200 N   0  0  0  0  0  0  0  0  0  0  0  0
  190.7320  172.8930  142.4230 C   0  0  0  0  0  0  0  0  0  0  0  0
  192.9060  172.0030  142.7910 N   0  0  0  0  0  0  0  0  0  0  0  0
  190.7710  174.4950  143.9450 C   0  0  0  0  0  0  0  0  0  0  0  0
  190.4900  171.9690  141.4170 C   0  0  0  0  0  3  0  0  0  0  0  0
  196.4340  174.9360  144.5900 C   0  0  0  0  0  2  0  0  0  0  0  0
  193.0630  174.1790  144.9320 C   0  0  2  0  0  3  0  0  0  0  0  0
  195.8550  174.1860  145.7140 N   0  0  1  0  0  0  0  0  0  0  0  0
  195.9420  171.7510  145.7620 C   0  0  0  0  0  1  0  0  0  0  0  0
  195.2170  175.4380  145.2140 C   0  0  2  0  0  3  0  0  0  0  0  0
  194.0110  175.1980  144.3000 C   0  0  0  0  0  2  0  0  0  0  0  0
  193.7760  172.9010  145.3920 C   0  0  0  0  0  2  0  0  0  0  0  0
  195.2810  172.9640  145.1400 C   0  0  1  0  0  3  0  0  0  0  0  0
  188.8290  177.7880  145.8620 C   0  0  0  0  0  2  0  0  0  0  0  0
  190.0670  177.8590  144.9550 C   0  0  0  0  0  2  0  0  0  0  0  0
  188.1800  176.3950  145.8610 C   0  0  2  0  0  3  0  0  0  0  0  0
  189.7510  174.9150  147.1250 C   0  0  0  0  0  1  0  0  0  0  0  0
  190.3900  175.6450  144.8260 C   0  0  1  0  0  3  0  0  0  0  0  0
  190.0980  176.7830  144.0520 O   0  0  0  0  0  0  0  0  0  0  0  0
  189.2180  175.2670  145.7500 C   0  0  2  0  0  3  0  0  0  0  0  0
  187.2790  176.3060  144.7970 O   0  0  0  0  0  0  0  0  0  0  0  0
  186.3140  177.2810  145.0590 C   0  0  0  0  0  2  0  0  0  0  0  0
  185.3590  176.7900  146.1330 C   0  0  0  0  0  2  0  0  0  0  0  0
  184.4590  177.9220  146.5920 C   0  0  0  0  0  2  0  0  0  0  0  0
  184.4290  179.0050  145.5340 C   0  0  0  0  0  1  0  0  0  0  0  0
  1  9  2  0  0  0  0
  2  8  1  0  0  0  0
  3 10  1  0  0  0  0
  3  2  2  0  0  0  0
  4  1  1  0  0  0  0
  5  6  1  0  0  0  0
  7  1  1  0  0  0  0
  7  5  1  0  0  0  0
  8  5  2  0  0  0  0
  9  6  1  0  0  0  0
 10  7  2  0  0  0  0
 11 15  1  0  0  0  0
 12  6  1  6  0  0  0
 12 17  1  0  0  0  0
 13 11  1  6  0  0  0
 15 16  1  6  0  0  0
 15 13  1  0  0  0  0
 16 12  1  0  0  0  0
 18 17  1  0  0  0  0
 18 13  1  0  0  0  0
 18 14  1  1  0  0  0
 20 19  1  0  0  0  0
 21 26  1  6  0  0  0
 21 19  1  0  0  0  0
 23  9  1  6  0  0  0
 23 25  1  0  0  0  0
 24 23  1  0  0  0  0
 24 20  1  0  0  0  0
 25 21  1  0  0  0  0
 25 22  1  1  0  0  0
 26 27  1  0  0  0  0
 27 28  1  0  0  0  0
 28 29  1  0  0  0  0
 30 29  1  0  0  0  0
M  END
>  <MODEL>
7

>  <REMARK>
 VINA RESULT:      -6.2      2.484      4.660
  Name = 
  6 active torsions:
  status: ('A' for Active; 'I' for Inactive)
    1  A    between atoms: C_5  and  O_18
    2  A    between atoms: C_7  and  N_15
    3  A    between atoms: C_8  and  C_10
    4  A    between atoms: C_8  and  C_17
    5  A    between atoms: C_12  and  C_27
    6  A    between atoms: C_17  and  O_18
                            x       y       z     vdW  Elec       q    Type
                         _______ _______ _______ _____ _____    ______ ____

>  <TORSDO>
F 6

$$$$
=
 OpenBabel11042413463D

 30 34  0  0  1  0  0  0  0  0999 V2000
  188.9160  174.8430  141.3480 C   0  0  0  0  0  0  0  0  0  0  0  0
  189.9660  171.7920  138.8570 C   0  0  0  0  0  3  0  0  0  0  0  0
  188.7720  172.4030  138.5750 N   0  0  0  0  0  0  0  0  0  0  0  0
  187.7640  175.7830  141.4660 C   0  0  0  0  0  1  0  0  0  0  0  0
  190.2650  173.2350  140.6710 C   0  0  0  0  0  0  0  0  0  0  0  0
  190.8700  173.7780  141.7450 N   0  0  0  0  0  0  0  0  0  0  0  0
  189.0800  173.8530  140.4040 C   0  0  0  0  0  0  0  0  0  0  0  0
  190.7260  172.2070  139.9160 N   0  0  0  0  0  0  0  0  0  0  0  0
  190.0480  174.7730  142.1650 C   0  0  0  0  0  0  0  0  0  0  0  0
  188.3030  173.4380  139.3320 C   0  0  0  0  0  3  0  0  0  0  0  0
  193.5210  173.5190  145.5320 C   0  0  0  0  0  2  0  0  0  0  0  0
  192.1460  173.3970  142.3470 C   0  0  2  0  0  3  0  0  0  0  0  0
  194.2800  173.6970  144.2860 N   0  0  1  0  0  0  0  0  0  0  0  0
  194.8300  175.9270  143.4710 C   0  0  0  0  0  1  0  0  0  0  0  0
  193.2890  172.5920  144.4320 C   0  0  2  0  0  3  0  0  0  0  0  0
  191.9380  172.8790  143.7690 C   0  0  0  0  0  2  0  0  0  0  0  0
  193.1490  174.5550  142.2700 C   0  0  0  0  0  2  0  0  0  0  0  0
  193.7340  174.8950  143.6390 C   0  0  1  0  0  3  0  0  0  0  0  0
  190.1150  177.8360  145.1480 C   0  0  0  0  0  2  0  0  0  0  0  0
  191.1760  177.5930  144.0650 C   0  0  0  0  0  2  0  0  0  0  0  0
  188.8550  176.9790  144.9400 C   0  0  2  0  0  3  0  0  0  0  0  0
  189.5320  174.6350  145.4880 C   0  0  0  0  0  1  0  0  0  0  0  0
  190.3380  175.6400  143.3510 C   0  0  1  0  0  3  0  0  0  0  0  0
  190.6190  176.9570  142.9420 O   0  0  0  0  0  0  0  0  0  0  0  0
  189.1820  175.5920  144.3650 C   0  0  2  0  0  3  0  0  0  0  0  0
  187.9810  177.6470  144.0800 O   0  0  0  0  0  0  0  0  0  0  0  0
  186.9010  178.0200  144.8820 C   0  0  0  0  0  2  0  0  0  0  0  0
  185.8810  176.8950  144.9370 C   0  0  0  0  0  2  0  0  0  0  0  0
  185.1670  176.9000  146.2750 C   0  0  0  0  0  2  0  0  0  0  0  0
  186.1350  177.3120  147.3640 C   0  0  0  0  0  1  0  0  0  0  0  0
  1  4  1  0  0  0  0
  1  9  2  0  0  0  0
  2  8  1  0  0  0  0
  3  2  2  0  0  0  0
  3 10  1  0  0  0  0
  5  6  1  0  0  0  0
  6  9  1  0  0  0  0
  7  5  1  0  0  0  0
  7  1  1  0  0  0  0
  8  5  2  0  0  0  0
 10  7  2  0  0  0  0
 12  6  1  1  0  0  0
 12 16  1  0  0  0  0
 13 15  1  0  0  0  0
 13 11  1  1  0  0  0
 15 16  1  6  0  0  0
 15 11  1  0  0  0  0
 17 12  1  0  0  0  0
 17 18  1  0  0  0  0
 18 14  1  6  0  0  0
 18 13  1  0  0  0  0
 20 19  1  0  0  0  0
 21 26  1  6  0  0  0
 21 19  1  0  0  0  0
 23  9  1  6  0  0  0
 23 25  1  0  0  0  0
 24 23  1  0  0  0  0
 24 20  1  0  0  0  0
 25 21  1  0  0  0  0
 25 22  1  1  0  0  0
 26 27  1  0  0  0  0
 27 28  1  0  0  0  0
 28 29  1  0  0  0  0
 29 30  1  0  0  0  0
M  END
>  <MODEL>
8

>  <REMARK>
 VINA RESULT:      -6.1      2.489      4.828
  Name = 
  6 active torsions:
  status: ('A' for Active; 'I' for Inactive)
    1  A    between atoms: C_5  and  O_18
    2  A    between atoms: C_7  and  N_15
    3  A    between atoms: C_8  and  C_10
    4  A    between atoms: C_8  and  C_17
    5  A    between atoms: C_12  and  C_27
    6  A    between atoms: C_17  and  O_18
                            x       y       z     vdW  Elec       q    Type
                         _______ _______ _______ _____ _____    ______ ____

>  <TORSDO>
F 6

$$$$
=
 OpenBabel11042413463D

 30 34  0  0  1  0  0  0  0  0999 V2000
  191.0670  173.8330  143.5100 C   0  0  0  0  0  0  0  0  0  0  0  0
  187.4500  173.4480  141.6720 C   0  0  0  0  0  3  0  0  0  0  0  0
  188.3580  172.4570  141.4050 N   0  0  0  0  0  0  0  0  0  0  0  0
  192.3420  173.0590  143.5430 C   0  0  0  0  0  1  0  0  0  0  0  0
  189.0140  174.4980  143.0540 C   0  0  0  0  0  0  0  0  0  0  0  0
  189.5120  175.4280  143.8920 N   0  0  0  0  0  0  0  0  0  0  0  0
  189.9290  173.5200  142.8000 C   0  0  0  0  0  0  0  0  0  0  0  0
  187.7750  174.4830  142.5030 N   0  0  0  0  0  0  0  0  0  0  0  0
  190.7740  175.0230  144.1820 C   0  0  0  0  0  0  0  0  0  0  0  0
  189.6070  172.4670  141.9560 C   0  0  0  0  0  3  0  0  0  0  0  0
  185.6370  177.4270  145.4490 C   0  0  0  0  0  2  0  0  0  0  0  0
  188.8480  176.6270  144.4010 C   0  0  2  0  0  3  0  0  0  0  0  0
  186.5440  178.3500  144.7530 N   0  0  1  0  0  0  0  0  0  0  0  0
  186.3420  178.7240  142.3540 C   0  0  0  0  0  1  0  0  0  0  0  0
  187.0240  177.5060  145.8850 C   0  0  2  0  0  3  0  0  0  0  0  0
  187.7940  176.2570  145.4450 C   0  0  0  0  0  2  0  0  0  0  0  0
  188.2830  177.4630  143.2470 C   0  0  0  0  0  2  0  0  0  0  0  0
  186.7970  177.7630  143.4340 C   0  0  1  0  0  3  0  0  0  0  0  0
  194.0970  176.4590  146.4580 C   0  0  0  0  0  2  0  0  0  0  0  0
  192.8460  175.7600  147.0100 C   0  0  0  0  0  2  0  0  0  0  0  0
  194.1660  176.4150  144.9230 C   0  0  2  0  0  3  0  0  0  0  0  0
  192.3860  177.9780  144.1200 C   0  0  0  0  0  1  0  0  0  0  0  0
  191.6980  175.7810  145.0850 C   0  0  1  0  0  3  0  0  0  0  0  0
  192.2650  174.9220  146.0440 O   0  0  0  0  0  0  0  0  0  0  0  0
  192.7770  176.5210  144.2740 C   0  0  2  0  0  3  0  0  0  0  0  0
  194.7790  175.2260  144.5230 O   0  0  0  0  0  0  0  0  0  0  0  0
  196.1380  175.5330  144.4330 C   0  0  0  0  0  2  0  0  0  0  0  0
  196.9660  174.2650  144.5600 C   0  0  0  0  0  2  0  0  0  0  0  0
  196.9350  173.7590  145.9890 C   0  0  0  0  0  2  0  0  0  0  0  0
  196.8110  172.2500  145.9890 C   0  0  0  0  0  1  0  0  0  0  0  0
  1  4  1  0  0  0  0
  1  9  2  0  0  0  0
  2  8  1  0  0  0  0
  3  2  2  0  0  0  0
  3 10  1  0  0  0  0
  5  6  1  0  0  0  0
  6  9  1  0  0  0  0
  6 12  1  0  0  0  0
  7  5  1  0  0  0  0
  7  1  1  0  0  0  0
  8  5  2  0  0  0  0
 10  7  2  0  0  0  0
 11 15  1  0  0  0  0
 12 17  1  6  0  0  0
 12 16  1  0  0  0  0
 13 11  1  1  0  0  0
 13 15  1  0  0  0  0
 15 16  1  6  0  0  0
 17 18  1  0  0  0  0
 18 14  1  6  0  0  0
 18 13  1  0  0  0  0
 19 20  1  0  0  0  0
 21 26  1  1  0  0  0
 21 19  1  0  0  0  0
 23  9  1  6  0  0  0
 23 24  1  0  0  0  0
 24 20  1  0  0  0  0
 25 22  1  1  0  0  0
 25 21  1  0  0  0  0
 25 23  1  0  0  0  0
 27 26  1  0  0  0  0
 27 28  1  0  0  0  0
 28 29  1  0  0  0  0
 29 30  1  0  0  0  0
M  END
>  <MODEL>
9

>  <REMARK>
 VINA RESULT:      -6.0      3.064      7.750
  Name = 
  6 active torsions:
  status: ('A' for Active; 'I' for Inactive)
    1  A    between atoms: C_5  and  O_18
    2  A    between atoms: C_7  and  N_15
    3  A    between atoms: C_8  and  C_10
    4  A    between atoms: C_8  and  C_17
    5  A    between atoms: C_12  and  C_27
    6  A    between atoms: C_17  and  O_18
                            x       y       z     vdW  Elec       q    Type
                         _______ _______ _______ _____ _____    ______ ____

>  <TORSDO>
F 6

$$$$
