=
 OpenBabel11042413473D

 30 32  0  0  1  0  0  0  0  0999 V2000
  187.2920  177.2540  146.0400 C   0  0  0  0  0  0  0  0  0  0  0  0
  187.5190  176.5990  144.8190 C   0  0  0  0  0  3  0  0  0  0  0  0
  188.3290  177.3560  146.9700 C   0  0  0  0  0  3  0  0  0  0  0  0
  189.5810  176.8030  146.6910 C   0  0  0  0  0  0  0  0  0  0  0  0
  189.8010  176.1460  145.4770 C   0  0  0  0  0  3  0  0  0  0  0  0
  188.7720  176.0360  144.5270 C   0  0  0  0  0  0  0  0  0  0  0  0
  190.3020  174.9920  142.8390 C   0  0  0  0  0  3  0  0  0  0  0  0
  190.5380  174.3300  141.6230 C   0  0  0  0  0  0  0  0  0  0  0  0
  188.1470  174.3450  141.1980 C   0  0  0  0  0  3  0  0  0  0  0  0
  187.9290  175.0080  142.4060 C   0  0  0  0  0  3  0  0  0  0  0  0
  189.4390  173.9970  140.7920 C   0  0  0  0  0  0  0  0  0  0  0  0
  189.0030  175.3360  143.2420 C   0  0  0  0  0  0  0  0  0  0  0  0
  188.6060  172.5260  138.9670 C   0  0  0  0  0  2  0  0  0  0  0  0
  189.5500  173.2930  139.4980 C   0  0  0  0  0  3  0  0  0  0  0  0
  191.8770  173.9950  141.2470 N   0  0  0  0  0  2  0  0  0  0  0  0
  192.8520  173.4430  142.1750 C   0  0  0  0  0  1  0  0  0  0  0  0
  185.9630  177.8590  146.3580 C   0  0  1  0  0  3  0  0  0  0  0  0
  185.8010  177.9590  147.7410 O   0  0  0  0  0  1  0  0  0  0  0  0
  185.8210  179.2130  145.7210 C   0  0  0  0  0  3  0  0  0  0  0  0
  185.0280  179.4490  144.7330 N   0  0  0  0  0  0  0  0  0  0  0  0
  184.2090  178.4290  144.1250 C   0  0  0  0  0  2  0  0  0  0  0  0
  185.2900  178.0360  140.0260 N   0  0  0  0  0  0  0  0  0  0  0  0
  183.5910  178.2680  141.6910 C   0  0  0  0  0  0  0  0  0  0  0  0
  183.9740  178.1430  140.3530 C   0  0  0  0  0  3  0  0  0  0  0  0
  186.2630  178.0490  140.9780 C   0  0  0  0  0  3  0  0  0  0  0  0
  182.2430  178.3790  142.0150 O   0  0  0  0  0  1  0  0  0  0  0  0
  184.5760  178.2790  142.6870 C   0  0  0  0  0  0  0  0  0  0  0  0
  185.9230  178.1740  142.3270 C   0  0  0  0  0  3  0  0  0  0  0  0
  191.5020  177.0000  148.4210 N   0  0  0  0  0  0  0  0  0  0  0  0
  190.6460  176.9140  147.6470 C   0  0  0  0  0  0  0  0  0  0  0  0
  1 17  1  0  0  0  0
  1  3  1  0  0  0  0
  2  1  2  0  0  0  0
  4  3  2  0  0  0  0
  4 30  1  0  0  0  0
  5  4  1  0  0  0  0
  6  2  1  0  0  0  0
  6  5  2  0  0  0  0
  7 12  1  0  0  0  0
  8  7  2  0  0  0  0
  9 10  1  0  0  0  0
 10 12  2  0  0  0  0
 11  9  2  0  0  0  0
 11  8  1  0  0  0  0
 12  6  1  0  0  0  0
 13 14  2  0  0  0  0
 14 11  1  0  0  0  0
 15  8  1  0  0  0  0
 15 16  1  0  0  0  0
 17 18  1  1  0  0  0
 19 17  1  0  0  0  0
 20 19  2  0  0  0  0
 21 20  1  0  0  0  0
 22 24  2  0  0  0  0
 22 25  1  0  0  0  0
 23 26  1  0  0  0  0
 23 27  2  0  0  0  0
 24 23  1  0  0  0  0
 25 28  2  0  0  0  0
 27 21  1  0  0  0  0
 28 27  1  0  0  0  0
 30 29  3  0  0  0  0
M  END
>  <MODEL>
1

>  <REMARK>
 VINA RESULT:      -6.8      0.000      0.000
  Name = 
  8 active torsions:
  status: ('A' for Active; 'I' for Inactive)
    1  A    between atoms: C_1  and  N_16
    2  A    between atoms: C_1  and  C_25
    3  A    between atoms: N_4  and  C_9
    4  A    between atoms: C_6  and  C_10
    5  A    between atoms: C_8  and  C_10
    6  A    between atoms: C_13  and  C_22
    7  A    between atoms: C_20  and  C_30
    8  A    between atoms: C_26  and  C_29
                            x       y       z     vdW  Elec       q    Type
                         _______ _______ _______ _____ _____    ______ ____

>  <TORSDO>
F 8

$$$$
=
 OpenBabel11042413473D

 30 32  0  0  1  0  0  0  0  0999 V2000
  190.9560  174.8980  141.9270 C   0  0  0  0  0  0  0  0  0  0  0  0
  190.0360  175.7500  142.5580 C   0  0  0  0  0  3  0  0  0  0  0  0
  190.5100  174.0020  140.9530 C   0  0  0  0  0  3  0  0  0  0  0  0
  189.1560  173.9490  140.6140 C   0  0  0  0  0  0  0  0  0  0  0  0
  188.2420  174.7940  141.2490 C   0  0  0  0  0  3  0  0  0  0  0  0
  188.6710  175.7050  142.2290 C   0  0  0  0  0  0  0  0  0  0  0  0
  186.4520  176.8650  142.3280 C   0  0  0  0  0  3  0  0  0  0  0  0
  185.5240  177.7100  142.9560 C   0  0  0  0  0  0  0  0  0  0  0  0
  187.1030  178.0290  144.7720 C   0  0  0  0  0  3  0  0  0  0  0  0
  188.0180  177.1920  144.1340 C   0  0  0  0  0  3  0  0  0  0  0  0
  185.8550  178.2980  144.2030 C   0  0  0  0  0  0  0  0  0  0  0  0
  187.7020  176.5970  142.9060 C   0  0  0  0  0  0  0  0  0  0  0  0
  184.0420  178.7900  145.8340 C   0  0  0  0  0  2  0  0  0  0  0  0
  184.9650  179.1930  144.9710 C   0  0  0  0  0  3  0  0  0  0  0  0
  184.2580  177.9580  142.3360 N   0  0  0  0  0  2  0  0  0  0  0  0
  184.1100  178.2650  140.9210 C   0  0  0  0  0  1  0  0  0  0  0  0
  192.4110  174.9430  142.2680 C   0  0  1  0  0  3  0  0  0  0  0  0
  193.1770  174.7060  141.1260 O   0  0  0  0  0  1  0  0  0  0  0  0
  192.7820  176.2660  142.8760 C   0  0  0  0  0  3  0  0  0  0  0  0
  193.0150  176.4250  144.1340 N   0  0  0  0  0  0  0  0  0  0  0  0
  192.9220  175.3490  145.0900 C   0  0  0  0  0  2  0  0  0  0  0  0
  189.1820  175.5230  147.1150 N   0  0  0  0  0  0  0  0  0  0  0  0
  190.7030  174.3350  145.7060 C   0  0  0  0  0  0  0  0  0  0  0  0
  189.4850  174.4160  146.3850 C   0  0  0  0  0  3  0  0  0  0  0  0
  190.0440  176.5720  147.2070 C   0  0  0  0  0  3  0  0  0  0  0  0
  191.0040  173.1980  144.9650 O   0  0  0  0  0  1  0  0  0  0  0  0
  191.6040  175.4050  145.7850 C   0  0  0  0  0  0  0  0  0  0  0  0
  191.2730  176.5310  146.5460 C   0  0  0  0  0  3  0  0  0  0  0  0
  188.3320  172.2880  138.8010 N   0  0  0  0  0  0  0  0  0  0  0  0
  188.7020  173.0310  139.6080 C   0  0  0  0  0  0  0  0  0  0  0  0
  1 17  1  0  0  0  0
  1  2  1  0  0  0  0
  3  1  2  0  0  0  0
  4  3  1  0  0  0  0
  4  5  2  0  0  0  0
  5  6  1  0  0  0  0
  6  2  2  0  0  0  0
  6 12  1  0  0  0  0
  7 12  2  0  0  0  0
  7  8  1  0  0  0  0
  8 11  2  0  0  0  0
 10  9  2  0  0  0  0
 11  9  1  0  0  0  0
 11 14  1  0  0  0  0
 12 10  1  0  0  0  0
 14 13  2  0  0  0  0
 15  8  1  0  0  0  0
 16 15  1  0  0  0  0
 17 18  1  6  0  0  0
 17 19  1  0  0  0  0
 19 20  2  0  0  0  0
 20 21  1  0  0  0  0
 21 27  1  0  0  0  0
 22 25  1  0  0  0  0
 23 27  2  0  0  0  0
 23 24  1  0  0  0  0
 24 22  2  0  0  0  0
 26 23  1  0  0  0  0
 27 28  1  0  0  0  0
 28 25  2  0  0  0  0
 29 30  3  0  0  0  0
 30  4  1  0  0  0  0
M  END
>  <MODEL>
2

>  <REMARK>
 VINA RESULT:      -6.8      3.023      7.763
  Name = 
  8 active torsions:
  status: ('A' for Active; 'I' for Inactive)
    1  A    between atoms: C_1  and  N_16
    2  A    between atoms: C_1  and  C_25
    3  A    between atoms: N_4  and  C_9
    4  A    between atoms: C_6  and  C_10
    5  A    between atoms: C_8  and  C_10
    6  A    between atoms: C_13  and  C_22
    7  A    between atoms: C_20  and  C_30
    8  A    between atoms: C_26  and  C_29
                            x       y       z     vdW  Elec       q    Type
                         _______ _______ _______ _____ _____    ______ ____

>  <TORSDO>
F 8

$$$$
=
 OpenBabel11042413473D

 30 32  0  0  1  0  0  0  0  0999 V2000
  187.8040  176.6020  141.3600 C   0  0  0  0  0  0  0  0  0  0  0  0
  188.8450  176.6830  142.2980 C   0  0  0  0  0  3  0  0  0  0  0  0
  187.7020  175.4770  140.5390 C   0  0  0  0  0  3  0  0  0  0  0  0
  188.6340  174.4420  140.6460 C   0  0  0  0  0  0  0  0  0  0  0  0
  189.6730  174.5290  141.5770 C   0  0  0  0  0  3  0  0  0  0  0  0
  189.7910  175.6510  142.4140 C   0  0  0  0  0  0  0  0  0  0  0  0
  190.6400  175.6260  144.7710 C   0  0  0  0  0  3  0  0  0  0  0  0
  191.6740  175.7150  145.7160 C   0  0  0  0  0  0  0  0  0  0  0  0
  193.2500  176.0460  143.8990 C   0  0  0  0  0  3  0  0  0  0  0  0
  192.2110  175.9600  142.9720 C   0  0  0  0  0  3  0  0  0  0  0  0
  193.0030  175.9240  145.2700 C   0  0  0  0  0  0  0  0  0  0  0  0
  190.8940  175.7460  143.3970 C   0  0  0  0  0  0  0  0  0  0  0  0
  195.2190  175.2000  146.1390 C   0  0  0  0  0  2  0  0  0  0  0  0
  194.1800  176.0250  146.1570 C   0  0  0  0  0  3  0  0  0  0  0  0
  191.3750  175.5870  147.1100 N   0  0  0  0  0  2  0  0  0  0  0  0
  191.1480  176.7270  147.9850 C   0  0  0  0  0  1  0  0  0  0  0  0
  186.7910  177.6940  141.2330 C   0  0  1  0  0  3  0  0  0  0  0  0
  186.5660  177.9840  139.8860 O   0  0  0  0  0  1  0  0  0  0  0  0
  185.5010  177.3120  141.9020 C   0  0  0  0  0  3  0  0  0  0  0  0
  185.0900  177.8460  143.0000 N   0  0  0  0  0  0  0  0  0  0  0  0
  185.8400  178.8540  143.7100 C   0  0  0  0  0  2  0  0  0  0  0  0
  186.6820  177.4700  147.6460 N   0  0  0  0  0  0  0  0  0  0  0  0
  185.1720  178.5070  146.1110 C   0  0  0  0  0  0  0  0  0  0  0  0
  185.4730  178.0390  147.3930 C   0  0  0  0  0  3  0  0  0  0  0  0
  187.6240  177.3370  146.6730 C   0  0  0  0  0  3  0  0  0  0  0  0
  183.9330  179.0850  145.8620 O   0  0  0  0  0  1  0  0  0  0  0  0
  186.1300  178.3840  145.0950 C   0  0  0  0  0  0  0  0  0  0  0  0
  187.3630  177.7900  145.3780 C   0  0  0  0  0  3  0  0  0  0  0  0
  188.4310  172.3490  139.1280 N   0  0  0  0  0  0  0  0  0  0  0  0
  188.5240  173.2850  139.8040 C   0  0  0  0  0  0  0  0  0  0  0  0
  1  2  1  0  0  0  0
  2  6  2  0  0  0  0
  3  4  1  0  0  0  0
  3  1  2  0  0  0  0
  4  5  2  0  0  0  0
  5  6  1  0  0  0  0
  6 12  1  0  0  0  0
  7  8  1  0  0  0  0
  8 15  1  0  0  0  0
  9 11  1  0  0  0  0
 10 12  1  0  0  0  0
 10  9  2  0  0  0  0
 11  8  2  0  0  0  0
 11 14  1  0  0  0  0
 12  7  2  0  0  0  0
 13 14  2  0  0  0  0
 15 16  1  0  0  0  0
 17 18  1  6  0  0  0
 17  1  1  0  0  0  0
 17 19  1  0  0  0  0
 19 20  2  0  0  0  0
 20 21  1  0  0  0  0
 21 27  1  0  0  0  0
 23 24  2  0  0  0  0
 24 22  1  0  0  0  0
 25 22  2  0  0  0  0
 26 23  1  0  0  0  0
 27 28  2  0  0  0  0
 27 23  1  0  0  0  0
 28 25  1  0  0  0  0
 29 30  3  0  0  0  0
 30  4  1  0  0  0  0
M  END
>  <MODEL>
3

>  <REMARK>
 VINA RESULT:      -6.7      2.361      5.895
  Name = 
  8 active torsions:
  status: ('A' for Active; 'I' for Inactive)
    1  A    between atoms: C_1  and  N_16
    2  A    between atoms: C_1  and  C_25
    3  A    between atoms: N_4  and  C_9
    4  A    between atoms: C_6  and  C_10
    5  A    between atoms: C_8  and  C_10
    6  A    between atoms: C_13  and  C_22
    7  A    between atoms: C_20  and  C_30
    8  A    between atoms: C_26  and  C_29
                            x       y       z     vdW  Elec       q    Type
                         _______ _______ _______ _____ _____    ______ ____

>  <TORSDO>
F 8

$$$$
=
 OpenBabel11042413473D

 30 32  0  0  1  0  0  0  0  0999 V2000
  191.4320  175.5610  145.6510 C   0  0  0  0  0  0  0  0  0  0  0  0
  190.2470  175.9770  145.0250 C   0  0  0  0  0  3  0  0  0  0  0  0
  191.7700  176.0800  146.9030 C   0  0  0  0  0  3  0  0  0  0  0  0
  190.9370  177.0130  147.5250 C   0  0  0  0  0  0  0  0  0  0  0  0
  189.7610  177.4300  146.8950 C   0  0  0  0  0  3  0  0  0  0  0  0
  189.4020  176.9170  145.6380 C   0  0  0  0  0  0  0  0  0  0  0  0
  187.0740  177.8410  145.7170 C   0  0  0  0  0  3  0  0  0  0  0  0
  185.8880  178.2650  145.0980 C   0  0  0  0  0  0  0  0  0  0  0  0
  186.8710  177.7320  142.9430 C   0  0  0  0  0  3  0  0  0  0  0  0
  188.0420  177.3100  143.5730 C   0  0  0  0  0  3  0  0  0  0  0  0
  185.7880  178.2140  143.6850 C   0  0  0  0  0  0  0  0  0  0  0  0
  188.1580  177.3630  144.9680 C   0  0  0  0  0  0  0  0  0  0  0  0
  184.2930  178.2060  141.6960 C   0  0  0  0  0  2  0  0  0  0  0  0
  184.6040  178.6390  142.9110 C   0  0  0  0  0  3  0  0  0  0  0  0
  184.8040  178.7490  145.8980 N   0  0  0  0  0  2  0  0  0  0  0  0
  184.6150  178.3790  147.2920 C   0  0  0  0  0  1  0  0  0  0  0  0
  192.3360  174.5580  145.0080 C   0  0  1  0  0  3  0  0  0  0  0  0
  191.7080  173.3120  144.9560 O   0  0  0  0  0  1  0  0  0  0  0  0
  192.7310  174.9970  143.6270 C   0  0  0  0  0  3  0  0  0  0  0  0
  193.7420  175.7610  143.3910 N   0  0  0  0  0  0  0  0  0  0  0  0
  194.5850  176.2900  144.4350 C   0  0  0  0  0  2  0  0  0  0  0  0
  197.9400  173.7440  145.0550 N   0  0  0  0  0  0  0  0  0  0  0  0
  196.8440  175.4190  143.7490 C   0  0  0  0  0  0  0  0  0  0  0  0
  197.9350  174.5770  143.9800 C   0  0  0  0  0  3  0  0  0  0  0  0
  196.8990  173.7070  145.9310 C   0  0  0  0  0  3  0  0  0  0  0  0
  196.8490  176.2680  142.6480 O   0  0  0  0  0  1  0  0  0  0  0  0
  195.7590  175.3930  144.6360 C   0  0  0  0  0  0  0  0  0  0  0  0
  195.7900  174.5330  145.7380 C   0  0  0  0  0  3  0  0  0  0  0  0
  191.5680  177.9680  149.8520 N   0  0  0  0  0  0  0  0  0  0  0  0
  191.2830  177.5410  148.8130 C   0  0  0  0  0  0  0  0  0  0  0  0
  1  3  1  0  0  0  0
  2  6  1  0  0  0  0
  2  1  2  0  0  0  0
  3  4  2  0  0  0  0
  4 30  1  0  0  0  0
  5  4  1  0  0  0  0
  6  5  2  0  0  0  0
  8  7  1  0  0  0  0
  8 15  1  0  0  0  0
  9 10  2  0  0  0  0
  9 11  1  0  0  0  0
 10 12  1  0  0  0  0
 11  8  2  0  0  0  0
 12  6  1  0  0  0  0
 12  7  2  0  0  0  0
 13 14  2  0  0  0  0
 14 11  1  0  0  0  0
 15 16  1  0  0  0  0
 17 18  1  6  0  0  0
 17  1  1  0  0  0  0
 19 17  1  0  0  0  0
 20 19  2  0  0  0  0
 20 21  1  0  0  0  0
 21 27  1  0  0  0  0
 22 25  1  0  0  0  0
 23 24  1  0  0  0  0
 23 27  2  0  0  0  0
 24 22  2  0  0  0  0
 26 23  1  0  0  0  0
 27 28  1  0  0  0  0
 28 25  2  0  0  0  0
 30 29  3  0  0  0  0
M  END
>  <MODEL>
4

>  <REMARK>
 VINA RESULT:      -6.6      3.907      8.514
  Name = 
  8 active torsions:
  status: ('A' for Active; 'I' for Inactive)
    1  A    between atoms: C_1  and  N_16
    2  A    between atoms: C_1  and  C_25
    3  A    between atoms: N_4  and  C_9
    4  A    between atoms: C_6  and  C_10
    5  A    between atoms: C_8  and  C_10
    6  A    between atoms: C_13  and  C_22
    7  A    between atoms: C_20  and  C_30
    8  A    between atoms: C_26  and  C_29
                            x       y       z     vdW  Elec       q    Type
                         _______ _______ _______ _____ _____    ______ ____

>  <TORSDO>
F 8

$$$$
=
 OpenBabel11042413473D

 30 32  0  0  1  0  0  0  0  0999 V2000
  190.6040  174.1430  142.0440 C   0  0  0  0  0  0  0  0  0  0  0  0
  189.7840  175.0220  142.7680 C   0  0  0  0  0  3  0  0  0  0  0  0
  190.2100  173.7240  140.7710 C   0  0  0  0  0  3  0  0  0  0  0  0
  189.0050  174.1710  140.2250 C   0  0  0  0  0  0  0  0  0  0  0  0
  188.1880  175.0410  140.9520 C   0  0  0  0  0  3  0  0  0  0  0  0
  188.5670  175.4770  142.2320 C   0  0  0  0  0  0  0  0  0  0  0  0
  186.4170  176.7240  142.5450 C   0  0  0  0  0  3  0  0  0  0  0  0
  185.5830  177.5940  143.2640 C   0  0  0  0  0  0  0  0  0  0  0  0
  187.3280  177.8160  144.9380 C   0  0  0  0  0  3  0  0  0  0  0  0
  188.1470  176.9540  144.2090 C   0  0  0  0  0  3  0  0  0  0  0  0
  186.0460  178.1450  144.4850 C   0  0  0  0  0  0  0  0  0  0  0  0
  187.6990  176.3950  143.0050 C   0  0  0  0  0  0  0  0  0  0  0  0
  184.3000  178.6880  146.1720 C   0  0  0  0  0  2  0  0  0  0  0  0
  185.2650  179.0610  145.3420 C   0  0  0  0  0  3  0  0  0  0  0  0
  184.2790  177.9040  142.7620 N   0  0  0  0  0  2  0  0  0  0  0  0
  184.0200  178.2400  141.3700 C   0  0  0  0  0  1  0  0  0  0  0  0
  191.9020  173.6570  142.6040 C   0  0  1  0  0  3  0  0  0  0  0  0
  192.4960  172.7540  141.7210 O   0  0  0  0  0  1  0  0  0  0  0  0
  192.8350  174.8040  142.8760 C   0  0  0  0  0  3  0  0  0  0  0  0
  193.3420  175.0410  144.0370 N   0  0  0  0  0  0  0  0  0  0  0  0
  193.0480  174.2390  145.1980 C   0  0  0  0  0  2  0  0  0  0  0  0
  190.3430  176.3440  147.7220 N   0  0  0  0  0  0  0  0  0  0  0  0
  192.5550  176.0610  146.8630 C   0  0  0  0  0  0  0  0  0  0  0  0
  191.6440  176.7370  147.6780 C   0  0  0  0  0  3  0  0  0  0  0  0
  189.8910  175.2950  146.9820 C   0  0  0  0  0  3  0  0  0  0  0  0
  193.8820  176.4720  146.8220 O   0  0  0  0  0  1  0  0  0  0  0  0
  192.1120  174.9750  146.0950 C   0  0  0  0  0  0  0  0  0  0  0  0
  190.7680  174.5920  146.1530 C   0  0  0  0  0  3  0  0  0  0  0  0
  188.2840  173.3930  137.8590 N   0  0  0  0  0  0  0  0  0  0  0  0
  188.6050  173.7430  138.9140 C   0  0  0  0  0  0  0  0  0  0  0  0
  1 17  1  0  0  0  0
  1  2  1  0  0  0  0
  3  1  2  0  0  0  0
  4  3  1  0  0  0  0
  4  5  2  0  0  0  0
  5  6  1  0  0  0  0
  6  2  2  0  0  0  0
  6 12  1  0  0  0  0
  7 12  2  0  0  0  0
  7  8  1  0  0  0  0
  8 11  2  0  0  0  0
 10  9  2  0  0  0  0
 11  9  1  0  0  0  0
 11 14  1  0  0  0  0
 12 10  1  0  0  0  0
 14 13  2  0  0  0  0
 15  8  1  0  0  0  0
 16 15  1  0  0  0  0
 17 18  1  6  0  0  0
 17 19  1  0  0  0  0
 19 20  2  0  0  0  0
 20 21  1  0  0  0  0
 21 27  1  0  0  0  0
 23 24  2  0  0  0  0
 24 22  1  0  0  0  0
 25 22  2  0  0  0  0
 26 23  1  0  0  0  0
 27 28  2  0  0  0  0
 27 23  1  0  0  0  0
 28 25  1  0  0  0  0
 29 30  3  0  0  0  0
 30  4  1  0  0  0  0
M  END
>  <MODEL>
5

>  <REMARK>
 VINA RESULT:      -6.6      3.017      8.196
  Name = 
  8 active torsions:
  status: ('A' for Active; 'I' for Inactive)
    1  A    between atoms: C_1  and  N_16
    2  A    between atoms: C_1  and  C_25
    3  A    between atoms: N_4  and  C_9
    4  A    between atoms: C_6  and  C_10
    5  A    between atoms: C_8  and  C_10
    6  A    between atoms: C_13  and  C_22
    7  A    between atoms: C_20  and  C_30
    8  A    between atoms: C_26  and  C_29
                            x       y       z     vdW  Elec       q    Type
                         _______ _______ _______ _____ _____    ______ ____

>  <TORSDO>
F 8

$$$$
=
 OpenBabel11042413473D

 30 32  0  0  1  0  0  0  0  0999 V2000
  192.6800  175.7540  145.3090 C   0  0  0  0  0  0  0  0  0  0  0  0
  191.4840  176.4760  145.4470 C   0  0  0  0  0  3  0  0  0  0  0  0
  192.6360  174.4180  144.9060 C   0  0  0  0  0  3  0  0  0  0  0  0
  191.4090  173.8010  144.6490 C   0  0  0  0  0  0  0  0  0  0  0  0
  190.2210  174.5210  144.7940 C   0  0  0  0  0  3  0  0  0  0  0  0
  190.2440  175.8670  145.1950 C   0  0  0  0  0  0  0  0  0  0  0  0
  188.3070  177.1320  144.2340 C   0  0  0  0  0  3  0  0  0  0  0  0
  187.1120  177.8580  144.3670 C   0  0  0  0  0  0  0  0  0  0  0  0
  187.2590  177.5790  146.7740 C   0  0  0  0  0  3  0  0  0  0  0  0
  188.4480  176.8640  146.6260 C   0  0  0  0  0  3  0  0  0  0  0  0
  186.5780  178.0800  145.6610 C   0  0  0  0  0  0  0  0  0  0  0  0
  188.9830  176.6300  145.3540 C   0  0  0  0  0  0  0  0  0  0  0  0
  184.2640  178.3060  146.5450 C   0  0  0  0  0  2  0  0  0  0  0  0
  185.3270  178.8160  145.9370 C   0  0  0  0  0  3  0  0  0  0  0  0
  186.4500  178.3550  143.1990 N   0  0  0  0  0  2  0  0  0  0  0  0
  186.9960  178.2250  141.8570 C   0  0  0  0  0  1  0  0  0  0  0  0
  194.0050  176.3950  145.5720 C   0  0  1  0  0  3  0  0  0  0  0  0
  194.0370  176.9160  146.8660 O   0  0  0  0  0  1  0  0  0  0  0  0
  195.1260  175.4120  145.3810 C   0  0  0  0  0  3  0  0  0  0  0  0
  196.0430  175.5520  144.4870 N   0  0  0  0  0  0  0  0  0  0  0  0
  196.0740  176.6590  143.5630 C   0  0  0  0  0  2  0  0  0  0  0  0
  196.1320  175.2290  139.5550 N   0  0  0  0  0  0  0  0  0  0  0  0
  194.8880  176.0020  141.4430 C   0  0  0  0  0  0  0  0  0  0  0  0
  194.9370  175.5350  140.1270 C   0  0  0  0  0  3  0  0  0  0  0  0
  197.3030  175.3660  140.2340 C   0  0  0  0  0  3  0  0  0  0  0  0
  193.6620  176.3150  142.0190 O   0  0  0  0  0  1  0  0  0  0  0  0
  196.0820  176.1470  142.1630 C   0  0  0  0  0  0  0  0  0  0  0  0
  197.2990  175.8310  141.5510 C   0  0  0  0  0  3  0  0  0  0  0  0
  191.3370  171.3210  143.8950 N   0  0  0  0  0  0  0  0  0  0  0  0
  191.3670  172.4290  144.2300 C   0  0  0  0  0  0  0  0  0  0  0  0
  1  2  1  0  0  0  0
  1 17  1  0  0  0  0
  3  1  2  0  0  0  0
  4  5  2  0  0  0  0
  4  3  1  0  0  0  0
  5  6  1  0  0  0  0
  6 12  1  0  0  0  0
  6  2  2  0  0  0  0
  7  8  2  0  0  0  0
  7 12  1  0  0  0  0
  8 11  1  0  0  0  0
 10  9  1  0  0  0  0
 11 14  1  0  0  0  0
 11  9  2  0  0  0  0
 12 10  2  0  0  0  0
 14 13  2  0  0  0  0
 15  8  1  0  0  0  0
 16 15  1  0  0  0  0
 17 18  1  1  0  0  0
 19 17  1  0  0  0  0
 20 19  2  0  0  0  0
 21 20  1  0  0  0  0
 22 24  2  0  0  0  0
 22 25  1  0  0  0  0
 23 26  1  0  0  0  0
 23 27  2  0  0  0  0
 24 23  1  0  0  0  0
 25 28  2  0  0  0  0
 27 21  1  0  0  0  0
 28 27  1  0  0  0  0
 29 30  3  0  0  0  0
 30  4  1  0  0  0  0
M  END
>  <MODEL>
6

>  <REMARK>
 VINA RESULT:      -6.6      3.885      8.363
  Name = 
  8 active torsions:
  status: ('A' for Active; 'I' for Inactive)
    1  A    between atoms: C_1  and  N_16
    2  A    between atoms: C_1  and  C_25
    3  A    between atoms: N_4  and  C_9
    4  A    between atoms: C_6  and  C_10
    5  A    between atoms: C_8  and  C_10
    6  A    between atoms: C_13  and  C_22
    7  A    between atoms: C_20  and  C_30
    8  A    between atoms: C_26  and  C_29
                            x       y       z     vdW  Elec       q    Type
                         _______ _______ _______ _____ _____    ______ ____

>  <TORSDO>
F 8

$$$$
=
 OpenBabel11042413473D

 30 32  0  0  1  0  0  0  0  0999 V2000
  191.3300  174.1380  144.2720 C   0  0  0  0  0  0  0  0  0  0  0  0
  190.0950  174.8010  144.3290 C   0  0  0  0  0  3  0  0  0  0  0  0
  192.4870  174.8000  144.6890 C   0  0  0  0  0  3  0  0  0  0  0  0
  192.4160  176.1150  145.1530 C   0  0  0  0  0  0  0  0  0  0  0  0
  191.1840  176.7740  145.2020 C   0  0  0  0  0  3  0  0  0  0  0  0
  190.0090  176.1250  144.7900 C   0  0  0  0  0  0  0  0  0  0  0  0
  188.1690  177.4170  143.6850 C   0  0  0  0  0  3  0  0  0  0  0  0
  186.9350  178.0860  143.7130 C   0  0  0  0  0  0  0  0  0  0  0  0
  186.7530  177.5650  146.0780 C   0  0  0  0  0  3  0  0  0  0  0  0
  187.9840  176.9090  146.0350 C   0  0  0  0  0  3  0  0  0  0  0  0
  186.2130  178.1550  144.9310 C   0  0  0  0  0  0  0  0  0  0  0  0
  188.7040  176.8250  144.8370 C   0  0  0  0  0  0  0  0  0  0  0  0
  184.0980  178.6650  146.1380 C   0  0  0  0  0  2  0  0  0  0  0  0
  184.9020  178.8160  145.0930 C   0  0  0  0  0  3  0  0  0  0  0  0
  186.4210  178.6770  142.5150 N   0  0  0  0  0  2  0  0  0  0  0  0
  186.1380  177.9160  141.3080 C   0  0  0  0  0  1  0  0  0  0  0  0
  191.4300  172.7280  143.7860 C   0  0  1  0  0  3  0  0  0  0  0  0
  192.2490  171.9850  144.6380 O   0  0  0  0  0  1  0  0  0  0  0  0
  190.0710  172.0930  143.6910 C   0  0  0  0  0  3  0  0  0  0  0  0
  189.5380  171.7300  142.5750 N   0  0  0  0  0  0  0  0  0  0  0  0
  190.1870  171.9150  141.3000 C   0  0  0  0  0  2  0  0  0  0  0  0
  187.8380  174.5410  138.9110 N   0  0  0  0  0  0  0  0  0  0  0  0
  188.9960  172.4640  139.1520 C   0  0  0  0  0  0  0  0  0  0  0  0
  188.2200  173.3430  138.3920 C   0  0  0  0  0  3  0  0  0  0  0  0
  188.1910  174.9160  140.1710 C   0  0  0  0  0  3  0  0  0  0  0  0
  189.3800  171.2420  138.6140 O   0  0  0  0  0  1  0  0  0  0  0  0
  189.3750  172.8330  140.4500 C   0  0  0  0  0  0  0  0  0  0  0  0
  188.9650  174.0670  140.9650 C   0  0  0  0  0  3  0  0  0  0  0  0
  194.5660  177.3390  145.9310 N   0  0  0  0  0  0  0  0  0  0  0  0
  193.6060  176.7910  145.5860 C   0  0  0  0  0  0  0  0  0  0  0  0
  1  2  2  0  0  0  0
  1  3  1  0  0  0  0
  2  6  1  0  0  0  0
  3  4  2  0  0  0  0
  4  5  1  0  0  0  0
  4 30  1  0  0  0  0
  6 12  1  0  0  0  0
  6  5  2  0  0  0  0
  7  8  2  0  0  0  0
  7 12  1  0  0  0  0
  8 11  1  0  0  0  0
 10  9  1  0  0  0  0
 11 14  1  0  0  0  0
 11  9  2  0  0  0  0
 12 10  2  0  0  0  0
 14 13  2  0  0  0  0
 15  8  1  0  0  0  0
 16 15  1  0  0  0  0
 17  1  1  0  0  0  0
 17 18  1  1  0  0  0
 19 17  1  0  0  0  0
 20 19  2  0  0  0  0
 21 20  1  0  0  0  0
 22 25  1  0  0  0  0
 23 27  2  0  0  0  0
 24 22  2  0  0  0  0
 24 23  1  0  0  0  0
 25 28  2  0  0  0  0
 26 23  1  0  0  0  0
 27 28  1  0  0  0  0
 27 21  1  0  0  0  0
 30 29  3  0  0  0  0
M  END
>  <MODEL>
7

>  <REMARK>
 VINA RESULT:      -6.5      3.320      6.608
  Name = 
  8 active torsions:
  status: ('A' for Active; 'I' for Inactive)
    1  A    between atoms: C_1  and  N_16
    2  A    between atoms: C_1  and  C_25
    3  A    between atoms: N_4  and  C_9
    4  A    between atoms: C_6  and  C_10
    5  A    between atoms: C_8  and  C_10
    6  A    between atoms: C_13  and  C_22
    7  A    between atoms: C_20  and  C_30
    8  A    between atoms: C_26  and  C_29
                            x       y       z     vdW  Elec       q    Type
                         _______ _______ _______ _____ _____    ______ ____

>  <TORSDO>
F 8

$$$$
=
 OpenBabel11042413473D

 30 32  0  0  1  0  0  0  0  0999 V2000
  191.0690  174.7420  145.1950 C   0  0  0  0  0  0  0  0  0  0  0  0
  189.8790  175.1860  144.5990 C   0  0  0  0  0  3  0  0  0  0  0  0
  191.5160  175.3440  146.3730 C   0  0  0  0  0  3  0  0  0  0  0  0
  190.7870  176.3860  146.9510 C   0  0  0  0  0  0  0  0  0  0  0  0
  189.6060  176.8300  146.3500 C   0  0  0  0  0  3  0  0  0  0  0  0
  189.1370  176.2350  145.1670 C   0  0  0  0  0  0  0  0  0  0  0  0
  187.0640  177.6410  145.1720 C   0  0  0  0  0  3  0  0  0  0  0  0
  185.8750  178.0980  144.5810 C   0  0  0  0  0  0  0  0  0  0  0  0
  186.3310  176.6770  142.6650 C   0  0  0  0  0  3  0  0  0  0  0  0
  187.5060  176.2290  143.2680 C   0  0  0  0  0  3  0  0  0  0  0  0
  185.5070  177.6100  143.3020 C   0  0  0  0  0  0  0  0  0  0  0  0
  187.8880  176.7080  144.5280 C   0  0  0  0  0  0  0  0  0  0  0  0
  184.2100  178.1540  141.2500 C   0  0  0  0  0  2  0  0  0  0  0  0
  184.2920  178.0180  142.5670 C   0  0  0  0  0  3  0  0  0  0  0  0
  185.0610  179.0520  145.2700 N   0  0  0  0  0  2  0  0  0  0  0  0
  184.0920  178.6830  146.2910 C   0  0  0  0  0  1  0  0  0  0  0  0
  191.8620  173.6230  144.6000 C   0  0  1  0  0  3  0  0  0  0  0  0
  192.9350  173.3000  145.4330 O   0  0  0  0  0  1  0  0  0  0  0  0
  191.0010  172.4130  144.3730 C   0  0  0  0  0  3  0  0  0  0  0  0
  190.8160  171.8860  143.2110 N   0  0  0  0  0  0  0  0  0  0  0  0
  191.4030  172.4200  142.0060 C   0  0  0  0  0  2  0  0  0  0  0  0
  188.3050  173.4170  139.2620 N   0  0  0  0  0  0  0  0  0  0  0  0
  189.9730  171.8770  140.0070 C   0  0  0  0  0  0  0  0  0  0  0  0
  188.9490  172.2270  139.1240 C   0  0  0  0  0  3  0  0  0  0  0  0
  188.6300  174.2920  140.2530 C   0  0  0  0  0  3  0  0  0  0  0  0
  190.6250  170.6580  139.8590 O   0  0  0  0  0  1  0  0  0  0  0  0
  190.3270  172.7650  141.0320 C   0  0  0  0  0  0  0  0  0  0  0  0
  189.6470  173.9800  141.1580 C   0  0  0  0  0  3  0  0  0  0  0  0
  191.6140  177.4990  149.1420 N   0  0  0  0  0  0  0  0  0  0  0  0
  191.2460  177.0000  148.1640 C   0  0  0  0  0  0  0  0  0  0  0  0
  1  3  1  0  0  0  0
  2  6  1  0  0  0  0
  2  1  2  0  0  0  0
  3  4  2  0  0  0  0
  4 30  1  0  0  0  0
  5  4  1  0  0  0  0
  6  5  2  0  0  0  0
  8  7  1  0  0  0  0
  8 15  1  0  0  0  0
  9 10  2  0  0  0  0
  9 11  1  0  0  0  0
 10 12  1  0  0  0  0
 11  8  2  0  0  0  0
 12  6  1  0  0  0  0
 12  7  2  0  0  0  0
 13 14  2  0  0  0  0
 14 11  1  0  0  0  0
 15 16  1  0  0  0  0
 17  1  1  0  0  0  0
 17 18  1  1  0  0  0
 19 17  1  0  0  0  0
 20 19  2  0  0  0  0
 21 20  1  0  0  0  0
 22 25  1  0  0  0  0
 23 27  2  0  0  0  0
 24 22  2  0  0  0  0
 24 23  1  0  0  0  0
 25 28  2  0  0  0  0
 26 23  1  0  0  0  0
 27 28  1  0  0  0  0
 27 21  1  0  0  0  0
 30 29  3  0  0  0  0
M  END
>  <MODEL>
8

>  <REMARK>
 VINA RESULT:      -6.5      3.120      6.629
  Name = 
  8 active torsions:
  status: ('A' for Active; 'I' for Inactive)
    1  A    between atoms: C_1  and  N_16
    2  A    between atoms: C_1  and  C_25
    3  A    between atoms: N_4  and  C_9
    4  A    between atoms: C_6  and  C_10
    5  A    between atoms: C_8  and  C_10
    6  A    between atoms: C_13  and  C_22
    7  A    between atoms: C_20  and  C_30
    8  A    between atoms: C_26  and  C_29
                            x       y       z     vdW  Elec       q    Type
                         _______ _______ _______ _____ _____    ______ ____

>  <TORSDO>
F 8

$$$$
=
 OpenBabel11042413473D

 30 32  0  0  1  0  0  0  0  0999 V2000
  187.6870  176.6150  144.9170 C   0  0  0  0  0  0  0  0  0  0  0  0
  188.3030  175.6680  144.0840 C   0  0  0  0  0  3  0  0  0  0  0  0
  186.5510  177.2920  144.4670 C   0  0  0  0  0  3  0  0  0  0  0  0
  186.0370  177.0350  143.1940 C   0  0  0  0  0  0  0  0  0  0  0  0
  186.6570  176.0960  142.3660 C   0  0  0  0  0  3  0  0  0  0  0  0
  187.7980  175.4020  142.8010 C   0  0  0  0  0  0  0  0  0  0  0  0
  189.0190  173.2410  142.4560 C   0  0  0  0  0  3  0  0  0  0  0  0
  189.6510  172.2930  141.6360 C   0  0  0  0  0  0  0  0  0  0  0  0
  189.1580  173.6880  139.7110 C   0  0  0  0  0  3  0  0  0  0  0  0
  188.5380  174.6240  140.5390 C   0  0  0  0  0  3  0  0  0  0  0  0
  189.7160  172.5190  140.2390 C   0  0  0  0  0  0  0  0  0  0  0  0
  188.4590  174.4100  141.9210 C   0  0  0  0  0  0  0  0  0  0  0  0
  189.6870  170.9310  138.3230 C   0  0  0  0  0  2  0  0  0  0  0  0
  190.3400  171.5970  139.2670 C   0  0  0  0  0  3  0  0  0  0  0  0
  190.2100  171.1110  142.2190 N   0  0  0  0  0  2  0  0  0  0  0  0
  191.5910  171.0210  142.6690 C   0  0  0  0  0  1  0  0  0  0  0  0
  188.2150  176.9020  146.2860 C   0  0  1  0  0  3  0  0  0  0  0  0
  187.2110  177.4610  147.0780 O   0  0  0  0  0  1  0  0  0  0  0  0
  188.7480  175.6530  146.9300 C   0  0  0  0  0  3  0  0  0  0  0  0
  189.9680  175.5290  147.3260 N   0  0  0  0  0  0  0  0  0  0  0  0
  190.9520  176.5730  147.1710 C   0  0  0  0  0  2  0  0  0  0  0  0
  193.9190  175.3790  144.3620 N   0  0  0  0  0  0  0  0  0  0  0  0
  192.0380  176.7480  144.9080 C   0  0  0  0  0  0  0  0  0  0  0  0
  193.0250  176.3410  144.0080 C   0  0  0  0  0  3  0  0  0  0  0  0
  193.8820  174.7910  145.5890 C   0  0  0  0  0  3  0  0  0  0  0  0
  191.1310  177.7340  144.5370 O   0  0  0  0  0  1  0  0  0  0  0  0
  191.9800  176.1530  146.1750 C   0  0  0  0  0  0  0  0  0  0  0  0
  192.9120  175.1700  146.5200 C   0  0  0  0  0  3  0  0  0  0  0  0
  183.9220  178.2860  142.3650 N   0  0  0  0  0  0  0  0  0  0  0  0
  184.8670  177.7290  142.7370 C   0  0  0  0  0  0  0  0  0  0  0  0
  1 17  1  0  0  0  0
  2  1  2  0  0  0  0
  3  1  1  0  0  0  0
  4  3  2  0  0  0  0
  5  6  2  0  0  0  0
  5  4  1  0  0  0  0
  6  2  1  0  0  0  0
  8 15  1  0  0  0  0
  8  7  2  0  0  0  0
  9 11  2  0  0  0  0
  9 10  1  0  0  0  0
 10 12  2  0  0  0  0
 11  8  1  0  0  0  0
 12  7  1  0  0  0  0
 12  6  1  0  0  0  0
 13 14  2  0  0  0  0
 14 11  1  0  0  0  0
 15 16  1  0  0  0  0
 17 19  1  0  0  0  0
 17 18  1  1  0  0  0
 19 20  2  0  0  0  0
 21 20  1  0  0  0  0
 22 25  1  0  0  0  0
 23 27  2  0  0  0  0
 24 22  2  0  0  0  0
 24 23  1  0  0  0  0
 25 28  2  0  0  0  0
 26 23  1  0  0  0  0
 27 28  1  0  0  0  0
 27 21  1  0  0  0  0
 29 30  3  0  0  0  0
 30  4  1  0  0  0  0
M  END
>  <MODEL>
9

>  <REMARK>
 VINA RESULT:      -6.5      2.334      5.796
  Name = 
  8 active torsions:
  status: ('A' for Active; 'I' for Inactive)
    1  A    between atoms: C_1  and  N_16
    2  A    between atoms: C_1  and  C_25
    3  A    between atoms: N_4  and  C_9
    4  A    between atoms: C_6  and  C_10
    5  A    between atoms: C_8  and  C_10
    6  A    between atoms: C_13  and  C_22
    7  A    between atoms: C_20  and  C_30
    8  A    between atoms: C_26  and  C_29
                            x       y       z     vdW  Elec       q    Type
                         _______ _______ _______ _____ _____    ______ ____

>  <TORSDO>
F 8

$$$$
