=
 OpenBabel11042416133D

 60 66  0  0  1  0  0  0  0  0999 V2000
  192.6950  171.8580  144.3740 C   0  0  0  0  0  0  0  0  0  0  0  0
  195.4890  172.2320  144.4980 C   0  0  0  0  0  0  0  0  0  0  0  0
  194.6530  172.7020  145.5220 C   0  0  0  0  0  3  0  0  0  0  0  0
  194.9090  171.5470  143.4030 C   0  0  0  0  0  0  0  0  0  0  0  0
  193.2710  172.5080  145.4670 C   0  0  0  0  0  3  0  0  0  0  0  0
  195.7120  171.0480  142.2480 C   0  0  0  0  0  1  0  0  0  0  0  0
  193.5200  171.3780  143.3440 C   0  0  0  0  0  3  0  0  0  0  0  0
  196.9360  172.5220  144.6000 C   0  0  0  0  0  0  0  0  0  0  0  0
  197.7290  171.5980  144.9360 O   0  0  0  0  0  0  0  0  0  0  0  0
  197.4910  173.8730  144.2840 C   0  0  0  0  0  2  0  0  0  0  0  0
  194.7930  176.8170  145.8350 C   0  0  0  0  0  3  0  0  0  0  0  0
  193.8970  176.8930  146.9000 C   0  0  0  0  0  3  0  0  0  0  0  0
  192.1930  175.8590  145.5390 C   0  0  0  0  0  3  0  0  0  0  0  0
  194.7720  176.0360  140.2470 C   0  0  0  0  0  2  0  0  0  0  0  0
  195.8690  175.2360  139.7110 N   0  0  0  0  0  0  0  0  0  0  0  0
  195.4110  175.9820  143.7640 C   0  0  0  0  0  2  0  0  0  0  0  0
  194.3230  175.5530  141.5910 C   0  0  0  0  0  0  0  0  0  0  0  0
  192.4700  175.5620  143.2590 C   0  0  0  0  0  2  0  0  0  0  0  0
  193.0590  175.8160  144.4420 C   0  0  0  0  0  0  0  0  0  0  0  0
  193.0430  175.7080  141.9080 C   0  0  0  0  0  3  0  0  0  0  0  0
  197.5860  174.0540  142.8030 C   0  0  0  0  0  3  0  0  0  0  0  0
  194.4170  176.2350  144.6190 C   0  0  0  0  0  0  0  0  0  0  0  0
  197.9310  174.2030  140.0880 O   0  0  0  0  0  0  0  0  0  0  0  0
  196.6340  174.6100  142.0370 C   0  0  0  0  0  0  0  0  0  0  0  0
  192.6040  176.3800  146.7720 C   0  0  0  0  0  0  0  0  0  0  0  0
  196.8650  174.6720  140.5780 C   0  0  0  0  0  0  0  0  0  0  0  0
  195.2970  175.0450  142.6060 C   0  0  1  0  0  3  0  0  0  0  0  0
  190.8780  175.2980  148.1960 O   0  0  0  0  0  0  0  0  0  0  0  0
  191.6770  176.4030  147.9140 C   0  0  0  0  0  0  0  0  0  0  0  0
  191.5680  177.4360  148.6240 O   0  0  0  0  0  1  0  0  0  0  0  0
  196.1000  175.2910  138.2750 C   0  0  0  0  0  2  0  0  0  0  0  0
  195.2160  174.2800  137.5760 C   0  0  0  0  0  2  0  0  0  0  0  0
  196.0460  173.1130  137.0810 C   0  0  0  0  0  2  0  0  0  0  0  0
  194.9150  173.4500  135.0170 O   0  0  0  0  0  0  0  0  0  0  0  0
  195.5220  172.6490  135.7710 C   0  0  0  0  0  0  0  0  0  0  0  0
  195.7800  171.3550  135.3350 O   0  0  0  0  0  1  0  0  0  0  0  0
  191.2710  171.7360  144.3090 N   0  0  0  0  0  2  0  0  0  0  0  0
  190.3830  172.8440  143.9740 C   0  0  0  0  0  2  0  0  0  0  0  0
  189.7350  172.5630  142.6970 N   0  0  0  0  0  0  0  0  0  0  0  0
  188.7590  171.6530  142.9590 O   0  0  0  0  0  1  0  0  0  0  0  0
  188.2030  173.5980  140.8960 C   0  0  0  0  0  2  0  0  0  0  0  0
  189.6260  174.0940  140.6850 C   0  0  1  0  0  3  0  0  0  0  0  0
  189.1210  173.7750  142.1000 C   0  0  2  0  0  0  0  0  0  0  0  0
  191.9010  173.3520  140.0110 C   0  0  0  0  0  2  0  0  0  0  0  0
  190.4340  172.9680  140.0560 C   0  0  2  0  0  3  0  0  0  0  0  0
  191.0470  173.4590  138.7530 C   0  0  2  0  0  3  0  0  0  0  0  0
  190.6540  171.1820  138.0580 O   0  0  0  0  0  1  0  0  0  0  0  0
  192.0850  172.4000  136.7500 O   0  0  0  0  0  0  0  0  0  0  0  0
  191.2330  172.2830  137.8410 C   0  0  0  0  0  0  0  0  0  0  0  0
  188.9290  175.0410  142.9390 C   0  0  0  0  0  2  0  0  0  0  0  0
  188.3450  176.1500  142.0810 C   0  0  0  0  0  2  0  0  0  0  0  0
  186.9960  176.3340  142.3800 O   0  0  0  0  0  0  0  0  0  0  0  0
  186.9470  176.3490  143.7770 C   0  0  0  0  0  2  0  0  0  0  0  0
  187.3980  177.8820  145.7470 C   0  0  1  0  0  3  0  0  0  0  0  0
  186.3990  177.2630  146.7430 C   0  0  0  0  0  2  0  0  0  0  0  0
  185.5140  178.3760  144.1270 C   0  0  0  0  0  2  0  0  0  0  0  0
  188.7120  177.2860  145.9150 N   0  0  0  0  0  1  0  0  0  0  0  0
  186.9230  177.7860  144.2900 C   0  0  2  0  0  3  0  0  0  0  0  0
  184.7060  178.3470  145.4290 C   0  0  0  0  0  2  0  0  0  0  0  0
  185.0360  177.1540  146.2050 N   0  0  0  0  0  2  0  0  0  0  0  0
  1  5  1  0  0  0  0
  2  8  1  0  0  0  0
  2  3  1  0  0  0  0
  4  2  2  0  0  0  0
  5  3  2  0  0  0  0
  6  4  1  0  0  0  0
  7  4  1  0  0  0  0
  7  1  2  0  0  0  0
  8  9  2  0  0  0  0
 10  8  1  0  0  0  0
 11 12  1  0  0  0  0
 13 25  1  0  0  0  0
 14 17  1  0  0  0  0
 15 14  1  0  0  0  0
 15 26  1  0  0  0  0
 16 22  1  0  0  0  0
 17 20  2  0  0  0  0
 17 27  1  0  0  0  0
 18 19  1  0  0  0  0
 19 22  1  0  0  0  0
 19 13  2  0  0  0  0
 20 18  1  0  0  0  0
 21 10  1  0  0  0  0
 22 11  2  0  0  0  0
 23 26  2  0  0  0  0
 24 27  1  0  0  0  0
 24 21  2  0  0  0  0
 25 12  2  0  0  0  0
 25 29  1  0  0  0  0
 26 24  1  0  0  0  0
 27 16  1  1  0  0  0
 29 28  2  0  0  0  0
 29 30  1  0  0  0  0
 31 15  1  0  0  0  0
 32 31  1  0  0  0  0
 33 32  1  0  0  0  0
 34 35  2  0  0  0  0
 35 33  1  0  0  0  0
 36 35  1  0  0  0  0
 37  1  1  0  0  0  0
 38 37  1  0  0  0  0
 39 40  1  0  0  0  0
 39 38  1  0  0  0  0
 41 43  1  0  0  0  0
 42 41  1  6  0  0  0
 42 43  1  0  0  0  0
 43 39  1  0  0  0  0
 43 50  1  1  0  0  0
 45 44  1  1  0  0  0
 45 42  1  0  0  0  0
 46 49  1  6  0  0  0
 46 44  1  0  0  0  0
 46 45  1  0  0  0  0
 48 49  2  0  0  0  0
 49 47  1  0  0  0  0
 51 52  1  0  0  0  0
 51 50  1  0  0  0  0
 52 53  1  0  0  0  0
 54 57  1  6  0  0  0
 54 55  1  0  0  0  0
 56 58  1  0  0  0  0
 56 59  1  0  0  0  0
 58 53  1  1  0  0  0
 58 54  1  0  0  0  0
 59 60  1  0  0  0  0
 60 55  1  0  0  0  0
M  END
>  <MODEL>
1

>  <REMARK>
 VINA RESULT:      -6.4      0.000      0.000
  Name = 
  19 active torsions:
  status: ('A' for Active; 'I' for Inactive)
    1  A    between atoms: C_1  and  C_6
    2  A    between atoms: C_1  and  C_28
    3  A    between atoms: C_2  and  N_29
    4  A    between atoms: C_2  and  C_60
    5  A    between atoms: C_3  and  C_24
    6  A    between atoms: C_3  and  O_59
    7  A    between atoms: C_4  and  N_12
    8  A    between atoms: N_8  and  C_42
    9  A    between atoms: N_8  and  C_58
   10  A    between atoms: N_12  and  C_42
   11  A    between atoms: C_17  and  C_50
   12  A    between atoms: C_27  and  C_49
   13  A    between atoms: C_28  and  C_39
   14  A    between atoms: C_38  and  C_47
   15  A    between atoms: C_45  and  C_57
   16  A    between atoms: C_45  and  O_59
   17  A    between atoms: C_49  and  C_60
   18  A    between atoms: C_52  and  C_56
   19  A    between atoms: C_57  and  C_58
                            x       y       z     vdW  Elec       q    Type
                         _______ _______ _______ _____ _____    ______ ____

>  <TORSDO>
F 19

$$$$
=
 OpenBabel11042416133D

 60 66  0  0  1  0  0  0  0  0999 V2000
  192.0250  171.3630  143.2140 C   0  0  0  0  0  0  0  0  0  0  0  0
  189.9370  173.0190  142.2880 C   0  0  0  0  0  0  0  0  0  0  0  0
  190.6580  172.2050  141.4010 C   0  0  0  0  0  3  0  0  0  0  0  0
  190.2620  172.9840  143.6650 C   0  0  0  0  0  0  0  0  0  0  0  0
  191.6840  171.3760  141.8600 C   0  0  0  0  0  3  0  0  0  0  0  0
  189.5800  173.8440  144.6760 C   0  0  0  0  0  1  0  0  0  0  0  0
  191.3090  172.1680  144.1130 C   0  0  0  0  0  3  0  0  0  0  0  0
  188.9000  173.9090  141.7200 C   0  0  0  0  0  0  0  0  0  0  0  0
  187.7160  173.4850  141.6080 O   0  0  0  0  0  0  0  0  0  0  0  0
  189.2100  175.3110  141.3050 C   0  0  0  0  0  2  0  0  0  0  0  0
  190.5090  177.6180  144.6730 C   0  0  0  0  0  3  0  0  0  0  0  0
  191.1550  177.3530  145.8800 C   0  0  0  0  0  3  0  0  0  0  0  0
  189.0320  176.8210  146.8970 C   0  0  0  0  0  3  0  0  0  0  0  0
  185.3240  178.6710  142.7110 C   0  0  0  0  0  2  0  0  0  0  0  0
  185.0000  178.0790  141.4170 N   0  0  0  0  0  0  0  0  0  0  0  0
  188.6460  177.4880  143.3020 C   0  0  0  0  0  2  0  0  0  0  0  0
  186.2070  177.7860  143.5350 C   0  0  0  0  0  0  0  0  0  0  0  0
  187.0250  177.2700  145.8330 C   0  0  0  0  0  2  0  0  0  0  0  0
  188.3570  177.1270  145.7110 C   0  0  0  0  0  0  0  0  0  0  0  0
  186.0780  177.8380  144.8550 C   0  0  0  0  0  3  0  0  0  0  0  0
  187.9880  175.9570  140.7340 C   0  0  0  0  0  3  0  0  0  0  0  0
  189.1240  177.4590  144.5490 C   0  0  0  0  0  0  0  0  0  0  0  0
  185.7560  176.9680  139.5060 O   0  0  0  0  0  0  0  0  0  0  0  0
  187.1400  176.7350  141.4240 C   0  0  0  0  0  0  0  0  0  0  0  0
  190.4250  176.9160  146.9890 C   0  0  0  0  0  0  0  0  0  0  0  0
  185.9510  177.2600  140.7200 C   0  0  0  0  0  0  0  0  0  0  0  0
  187.2990  176.9730  142.9130 C   0  0  1  0  0  3  0  0  0  0  0  0
  191.5430  177.5830  149.1060 O   0  0  0  0  0  1  0  0  0  0  0  0
  191.1120  176.5770  148.2450 C   0  0  0  0  0  0  0  0  0  0  0  0
  191.3500  175.3760  148.5350 O   0  0  0  0  0  0  0  0  0  0  0  0
  183.8280  178.5910  140.7200 C   0  0  0  0  0  2  0  0  0  0  0  0
  182.5810  178.2750  141.5180 C   0  0  0  0  0  2  0  0  0  0  0  0
  181.4030  178.0700  140.5870 C   0  0  0  0  0  2  0  0  0  0  0  0
  179.1810  178.8990  140.4170 O   0  0  0  0  0  0  0  0  0  0  0  0
  180.2150  178.7840  141.1210 C   0  0  0  0  0  0  0  0  0  0  0  0
  180.2100  179.2460  142.4320 O   0  0  0  0  0  1  0  0  0  0  0  0
  193.1270  170.5580  143.6450 N   0  0  0  0  0  2  0  0  0  0  0  0
  194.4550  170.6240  143.0440 C   0  0  0  0  0  2  0  0  0  0  0  0
  195.0010  171.9620  143.2450 N   0  0  0  0  0  0  0  0  0  0  0  0
  196.2090  171.7920  143.8480 O   0  0  0  0  0  1  0  0  0  0  0  0
  196.0100  173.9760  141.9850 C   0  0  0  0  0  2  0  0  0  0  0  0
  194.4920  174.0520  141.9130 C   0  0  1  0  0  3  0  0  0  0  0  0
  195.1950  172.6870  141.9650 C   0  0  2  0  0  0  0  0  0  0  0  0
  193.1780  175.8040  143.0900 C   0  0  0  0  0  2  0  0  0  0  0  0
  193.9760  174.5260  143.2650 C   0  0  2  0  0  3  0  0  0  0  0  0
  194.6120  175.8660  143.6020 C   0  0  2  0  0  3  0  0  0  0  0  0
  194.9060  175.0070  145.8370 O   0  0  0  0  0  1  0  0  0  0  0  0
  194.4460  177.2440  145.6710 O   0  0  0  0  0  0  0  0  0  0  0  0
  194.6760  176.0020  145.0940 C   0  0  0  0  0  0  0  0  0  0  0  0
  195.1020  171.9440  140.6300 C   0  0  0  0  0  2  0  0  0  0  0  0
  196.4880  171.7760  140.0320 C   0  0  0  0  0  2  0  0  0  0  0  0
  196.4190  171.7840  138.6390 O   0  0  0  0  0  0  0  0  0  0  0  0
  196.2240  173.1270  138.3070 C   0  0  0  0  0  2  0  0  0  0  0  0
  195.0030  174.6870  136.7220 C   0  0  1  0  0  3  0  0  0  0  0  0
  193.9270  175.1980  137.6980 C   0  0  0  0  0  2  0  0  0  0  0  0
  194.2130  172.3040  137.0570 C   0  0  0  0  0  2  0  0  0  0  0  0
  196.1470  175.5840  136.7180 N   0  0  0  0  0  1  0  0  0  0  0  0
  195.4300  173.2400  137.0080 C   0  0  2  0  0  3  0  0  0  0  0  0
  192.9160  173.0380  137.4170 C   0  0  0  0  0  2  0  0  0  0  0  0
  193.1890  174.1170  138.3640 N   0  0  0  0  0  2  0  0  0  0  0  0
  1 37  1  0  0  0  0
  1  7  1  0  0  0  0
  2  4  1  0  0  0  0
  3  5  1  0  0  0  0
  3  2  2  0  0  0  0
  4  7  2  0  0  0  0
  4  6  1  0  0  0  0
  5  1  2  0  0  0  0
  8  2  1  0  0  0  0
  9  8  2  0  0  0  0
 10  8  1  0  0  0  0
 11 12  1  0  0  0  0
 12 25  2  0  0  0  0
 13 25  1  0  0  0  0
 14 17  1  0  0  0  0
 15 14  1  0  0  0  0
 16 22  1  0  0  0  0
 17 20  2  0  0  0  0
 19 18  1  0  0  0  0
 19 13  2  0  0  0  0
 20 18  1  0  0  0  0
 21 10  1  0  0  0  0
 21 24  2  0  0  0  0
 22 11  2  0  0  0  0
 22 19  1  0  0  0  0
 23 26  2  0  0  0  0
 24 27  1  0  0  0  0
 25 29  1  0  0  0  0
 26 15  1  0  0  0  0
 26 24  1  0  0  0  0
 27 16  1  6  0  0  0
 27 17  1  0  0  0  0
 29 30  2  0  0  0  0
 29 28  1  0  0  0  0
 31 15  1  0  0  0  0
 31 32  1  0  0  0  0
 33 35  1  0  0  0  0
 33 32  1  0  0  0  0
 34 35  2  0  0  0  0
 35 36  1  0  0  0  0
 38 39  1  0  0  0  0
 38 37  1  0  0  0  0
 39 40  1  0  0  0  0
 42 43  1  0  0  0  0
 42 41  1  1  0  0  0
 42 45  1  0  0  0  0
 43 50  1  6  0  0  0
 43 41  1  0  0  0  0
 43 39  1  0  0  0  0
 44 46  1  0  0  0  0
 45 44  1  6  0  0  0
 45 46  1  0  0  0  0
 46 49  1  1  0  0  0
 49 48  2  0  0  0  0
 49 47  1  0  0  0  0
 51 50  1  0  0  0  0
 52 51  1  0  0  0  0
 53 52  1  0  0  0  0
 54 57  1  1  0  0  0
 54 58  1  0  0  0  0
 54 55  1  0  0  0  0
 55 60  1  0  0  0  0
 56 59  1  0  0  0  0
 58 56  1  0  0  0  0
 58 53  1  1  0  0  0
 59 60  1  0  0  0  0
M  END
>  <MODEL>
2

>  <REMARK>
 VINA RESULT:      -6.4      2.745      9.273
  Name = 
  19 active torsions:
  status: ('A' for Active; 'I' for Inactive)
    1  A    between atoms: C_1  and  C_6
    2  A    between atoms: C_1  and  C_28
    3  A    between atoms: C_2  and  N_29
    4  A    between atoms: C_2  and  C_60
    5  A    between atoms: C_3  and  C_24
    6  A    between atoms: C_3  and  O_59
    7  A    between atoms: C_4  and  N_12
    8  A    between atoms: N_8  and  C_42
    9  A    between atoms: N_8  and  C_58
   10  A    between atoms: N_12  and  C_42
   11  A    between atoms: C_17  and  C_50
   12  A    between atoms: C_27  and  C_49
   13  A    between atoms: C_28  and  C_39
   14  A    between atoms: C_38  and  C_47
   15  A    between atoms: C_45  and  C_57
   16  A    between atoms: C_45  and  O_59
   17  A    between atoms: C_49  and  C_60
   18  A    between atoms: C_52  and  C_56
   19  A    between atoms: C_57  and  C_58
                            x       y       z     vdW  Elec       q    Type
                         _______ _______ _______ _____ _____    ______ ____

>  <TORSDO>
F 19

$$$$
=
 OpenBabel11042416133D

 60 66  0  0  1  0  0  0  0  0999 V2000
  190.0240  172.7010  142.7490 C   0  0  0  0  0  0  0  0  0  0  0  0
  190.9080  170.5430  141.1620 C   0  0  0  0  0  0  0  0  0  0  0  0
  191.1320  170.5580  142.5470 C   0  0  0  0  0  3  0  0  0  0  0  0
  190.2130  171.6240  140.5710 C   0  0  0  0  0  0  0  0  0  0  0  0
  190.6850  171.6200  143.3360 C   0  0  0  0  0  3  0  0  0  0  0  0
  189.9650  171.7170  139.1020 C   0  0  0  0  0  1  0  0  0  0  0  0
  189.7890  172.6980  141.3660 C   0  0  0  0  0  3  0  0  0  0  0  0
  191.4580  169.4090  140.3860 C   0  0  0  0  0  0  0  0  0  0  0  0
  190.6870  168.4770  140.0230 O   0  0  0  0  0  0  0  0  0  0  0  0
  192.8980  169.3530  139.9900 C   0  0  0  0  0  2  0  0  0  0  0  0
  192.9740  173.5850  139.3260 C   0  0  0  0  0  3  0  0  0  0  0  0
  192.8920  174.4270  138.2190 C   0  0  0  0  0  3  0  0  0  0  0  0
  195.2700  174.1970  137.8710 C   0  0  0  0  0  3  0  0  0  0  0  0
  196.8430  171.4900  142.8590 C   0  0  0  0  0  2  0  0  0  0  0  0
  196.6400  170.1080  143.2800 N   0  0  0  0  0  0  0  0  0  0  0  0
  194.1180  172.0310  140.6090 C   0  0  0  0  0  2  0  0  0  0  0  0
  196.4210  171.7190  141.4420 C   0  0  0  0  0  0  0  0  0  0  0  0
  196.6410  173.2010  139.4490 C   0  0  0  0  0  2  0  0  0  0  0  0
  195.3840  173.3890  139.0060 C   0  0  0  0  0  0  0  0  0  0  0  0
  197.0750  172.6370  140.7410 C   0  0  0  0  0  3  0  0  0  0  0  0
  193.7450  169.0470  141.1840 C   0  0  0  0  0  3  0  0  0  0  0  0
  194.1940  173.0110  139.7050 C   0  0  0  0  0  0  0  0  0  0  0  0
  195.2270  168.2490  143.3470 O   0  0  0  0  0  0  0  0  0  0  0  0
  194.7610  169.8100  141.6170 C   0  0  0  0  0  0  0  0  0  0  0  0
  194.0320  174.7080  137.4600 C   0  0  0  0  0  0  0  0  0  0  0  0
  195.5300  169.3410  142.7890 C   0  0  0  0  0  0  0  0  0  0  0  0
  195.2130  171.0480  140.8670 C   0  0  1  0  0  3  0  0  0  0  0  0
  193.2370  176.7490  136.2880 O   0  0  0  0  0  1  0  0  0  0  0  0
  193.9380  175.5460  136.2560 C   0  0  0  0  0  0  0  0  0  0  0  0
  194.4560  175.1660  135.1740 O   0  0  0  0  0  0  0  0  0  0  0  0
  197.3970  169.6390  144.4330 C   0  0  0  0  0  2  0  0  0  0  0  0
  197.0880  170.5080  145.6340 C   0  0  0  0  0  2  0  0  0  0  0  0
  196.6440  169.6480  146.8000 C   0  0  0  0  0  2  0  0  0  0  0  0
  194.6340  168.5530  147.4460 O   0  0  0  0  0  1  0  0  0  0  0  0
  195.1770  169.4280  146.7240 C   0  0  0  0  0  0  0  0  0  0  0  0
  194.3870  170.2470  145.9260 O   0  0  0  0  0  0  0  0  0  0  0  0
  189.6410  173.8090  143.5700 N   0  0  0  0  0  2  0  0  0  0  0  0
  190.1230  174.0060  144.9330 C   0  0  0  0  0  2  0  0  0  0  0  0
  189.2730  174.9870  145.6000 N   0  0  0  0  0  0  0  0  0  0  0  0
  189.0590  174.5120  146.8560 O   0  0  0  0  0  1  0  0  0  0  0  0
  189.2640  177.3790  146.5700 C   0  0  0  0  0  2  0  0  0  0  0  0
  189.0920  177.4520  145.0600 C   0  0  1  0  0  3  0  0  0  0  0  0
  189.9180  176.3210  145.6890 C   0  0  2  0  0  0  0  0  0  0  0  0
  187.1460  177.9050  143.5810 C   0  0  0  0  0  2  0  0  0  0  0  0
  187.6620  177.0520  144.7240 C   0  0  2  0  0  3  0  0  0  0  0  0
  186.7340  178.2210  145.0140 C   0  0  2  0  0  3  0  0  0  0  0  0
  184.3220  178.2800  144.9930 O   0  0  0  0  0  0  0  0  0  0  0  0
  185.2750  176.5080  146.0850 O   0  0  0  0  0  1  0  0  0  0  0  0
  185.3750  177.6800  145.3460 C   0  0  0  0  0  0  0  0  0  0  0  0
  191.4150  176.4790  145.4080 C   0  0  0  0  0  2  0  0  0  0  0  0
  192.2010  176.3560  146.7010 C   0  0  0  0  0  2  0  0  0  0  0  0
  193.5600  176.5660  146.4640 O   0  0  0  0  0  0  0  0  0  0  0  0
  193.6500  176.7340  145.0790 C   0  0  0  0  0  2  0  0  0  0  0  0
  194.5760  175.2200  143.2670 C   0  0  1  0  0  3  0  0  0  0  0  0
  193.6940  173.9870  143.5370 C   0  0  0  0  0  2  0  0  0  0  0  0
  195.4850  175.1180  145.6290 C   0  0  0  0  0  2  0  0  0  0  0  0
  193.9690  176.0600  142.2490 N   0  0  0  0  0  1  0  0  0  0  0  0
  194.8870  176.0210  144.5400 C   0  0  2  0  0  3  0  0  0  0  0  0
  195.0860  173.6470  145.4640 C   0  0  0  0  0  2  0  0  0  0  0  0
  193.7260  173.5460  144.9370 N   0  0  0  0  0  2  0  0  0  0  0  0
  1  5  1  0  0  0  0
  1 37  1  0  0  0  0
  2  3  1  0  0  0  0
  3  5  2  0  0  0  0
  4  2  2  0  0  0  0
  4  7  1  0  0  0  0
  6  4  1  0  0  0  0
  7  1  2  0  0  0  0
  8  2  1  0  0  0  0
  9  8  2  0  0  0  0
 10  8  1  0  0  0  0
 10 21  1  0  0  0  0
 11 22  1  0  0  0  0
 12 11  2  0  0  0  0
 13 19  1  0  0  0  0
 14 15  1  0  0  0  0
 15 31  1  0  0  0  0
 17 14  1  0  0  0  0
 18 20  1  0  0  0  0
 19 18  1  0  0  0  0
 19 22  2  0  0  0  0
 20 17  2  0  0  0  0
 21 24  2  0  0  0  0
 22 16  1  0  0  0  0
 24 26  1  0  0  0  0
 25 13  2  0  0  0  0
 25 12  1  0  0  0  0
 26 15  1  0  0  0  0
 26 23  2  0  0  0  0
 27 16  1  1  0  0  0
 27 17  1  0  0  0  0
 27 24  1  0  0  0  0
 29 28  1  0  0  0  0
 29 25  1  0  0  0  0
 30 29  2  0  0  0  0
 31 32  1  0  0  0  0
 32 33  1  0  0  0  0
 35 33  1  0  0  0  0
 35 34  1  0  0  0  0
 36 35  2  0  0  0  0
 37 38  1  0  0  0  0
 38 39  1  0  0  0  0
 39 43  1  0  0  0  0
 39 40  1  0  0  0  0
 42 43  1  0  0  0  0
 42 41  1  1  0  0  0
 43 50  1  6  0  0  0
 43 41  1  0  0  0  0
 44 46  1  0  0  0  0
 45 44  1  6  0  0  0
 45 46  1  0  0  0  0
 45 42  1  0  0  0  0
 46 49  1  6  0  0  0
 47 49  2  0  0  0  0
 49 48  1  0  0  0  0
 50 51  1  0  0  0  0
 52 51  1  0  0  0  0
 53 52  1  0  0  0  0
 54 57  1  6  0  0  0
 54 55  1  0  0  0  0
 54 58  1  0  0  0  0
 55 60  1  0  0  0  0
 58 53  1  1  0  0  0
 58 56  1  0  0  0  0
 59 56  1  0  0  0  0
 60 59  1  0  0  0  0
M  END
>  <MODEL>
3

>  <REMARK>
 VINA RESULT:      -6.1      2.518      7.915
  Name = 
  19 active torsions:
  status: ('A' for Active; 'I' for Inactive)
    1  A    between atoms: C_1  and  C_6
    2  A    between atoms: C_1  and  C_28
    3  A    between atoms: C_2  and  N_29
    4  A    between atoms: C_2  and  C_60
    5  A    between atoms: C_3  and  C_24
    6  A    between atoms: C_3  and  O_59
    7  A    between atoms: C_4  and  N_12
    8  A    between atoms: N_8  and  C_42
    9  A    between atoms: N_8  and  C_58
   10  A    between atoms: N_12  and  C_42
   11  A    between atoms: C_17  and  C_50
   12  A    between atoms: C_27  and  C_49
   13  A    between atoms: C_28  and  C_39
   14  A    between atoms: C_38  and  C_47
   15  A    between atoms: C_45  and  C_57
   16  A    between atoms: C_45  and  O_59
   17  A    between atoms: C_49  and  C_60
   18  A    between atoms: C_52  and  C_56
   19  A    between atoms: C_57  and  C_58
                            x       y       z     vdW  Elec       q    Type
                         _______ _______ _______ _____ _____    ______ ____

>  <TORSDO>
F 19

$$$$
=
 OpenBabel11042416133D

 60 66  0  0  1  0  0  0  0  0999 V2000
  189.8080  172.7900  143.3100 C   0  0  0  0  0  0  0  0  0  0  0  0
  188.5850  174.7140  141.6490 C   0  0  0  0  0  0  0  0  0  0  0  0
  188.0790  173.4080  141.7320 C   0  0  0  0  0  3  0  0  0  0  0  0
  189.7150  175.0600  142.4280 C   0  0  0  0  0  0  0  0  0  0  0  0
  188.6770  172.4580  142.5630 C   0  0  0  0  0  3  0  0  0  0  0  0
  190.3490  176.4100  142.3740 C   0  0  0  0  0  1  0  0  0  0  0  0
  190.3230  174.0940  143.2410 C   0  0  0  0  0  3  0  0  0  0  0  0
  187.9310  175.6500  140.7070 C   0  0  0  0  0  0  0  0  0  0  0  0
  187.3720  175.1940  139.6710 O   0  0  0  0  0  0  0  0  0  0  0  0
  187.8860  177.1220  140.9660 C   0  0  0  0  0  2  0  0  0  0  0  0
  189.2690  178.2470  144.8620 C   0  0  0  0  0  3  0  0  0  0  0  0
  190.1410  177.7130  145.8080 C   0  0  0  0  0  3  0  0  0  0  0  0
  188.3480  176.3590  146.6920 C   0  0  0  0  0  3  0  0  0  0  0  0
  183.7290  178.7070  143.8940 C   0  0  0  0  0  2  0  0  0  0  0  0
  183.3120  178.5800  142.5010 N   0  0  0  0  0  0  0  0  0  0  0  0
  187.2630  178.2030  143.7020 C   0  0  0  0  0  2  0  0  0  0  0  0
  184.8830  177.8130  144.2240 C   0  0  0  0  0  0  0  0  0  0  0  0
  186.1470  176.6870  146.0550 C   0  0  0  0  0  2  0  0  0  0  0  0
  187.4440  176.9160  145.7830 C   0  0  0  0  0  0  0  0  0  0  0  0
  184.9640  177.3390  145.4620 C   0  0  0  0  0  3  0  0  0  0  0  0
  186.4890  177.6280  140.7970 C   0  0  0  0  0  3  0  0  0  0  0  0
  187.9360  177.8260  144.7930 C   0  0  0  0  0  0  0  0  0  0  0  0
  183.9380  178.4690  140.2520 O   0  0  0  0  0  0  0  0  0  0  0  0
  185.6360  177.8720  141.8040 C   0  0  0  0  0  0  0  0  0  0  0  0
  189.6970  176.7370  146.7050 C   0  0  0  0  0  0  0  0  0  0  0  0
  184.2720  178.3270  141.4630 C   0  0  0  0  0  0  0  0  0  0  0  0
  185.9890  177.5690  143.2470 C   0  0  1  0  0  3  0  0  0  0  0  0
  191.4630  176.9260  148.4430 O   0  0  0  0  0  1  0  0  0  0  0  0
  190.6300  176.1260  147.6640 C   0  0  0  0  0  0  0  0  0  0  0  0
  190.7120  174.8750  147.7630 O   0  0  0  0  0  0  0  0  0  0  0  0
  181.9690  179.0240  142.1590 C   0  0  0  0  0  2  0  0  0  0  0  0
  181.2720  177.9590  141.3390 C   0  0  0  0  0  2  0  0  0  0  0  0
  179.7840  177.9670  141.6280 C   0  0  0  0  0  2  0  0  0  0  0  0
  179.1800  177.4610  139.3840 O   0  0  0  0  0  0  0  0  0  0  0  0
  179.0350  178.2250  140.3710 C   0  0  0  0  0  0  0  0  0  0  0  0
  178.1020  179.2540  140.3130 O   0  0  0  0  0  1  0  0  0  0  0  0
  190.4420  171.7780  144.0980 N   0  0  0  0  0  2  0  0  0  0  0  0
  191.6210  171.0370  143.6590 C   0  0  0  0  0  2  0  0  0  0  0  0
  192.8180  171.7690  144.0610 N   0  0  0  0  0  0  0  0  0  0  0  0
  193.6550  170.8520  144.6160 O   0  0  0  0  0  1  0  0  0  0  0  0
  194.9680  172.7850  143.0570 C   0  0  0  0  0  2  0  0  0  0  0  0
  193.9060  173.8710  143.1650 C   0  0  1  0  0  3  0  0  0  0  0  0
  193.4970  172.4120  142.9090 C   0  0  2  0  0  0  0  0  0  0  0  0
  192.6420  175.2530  144.8000 C   0  0  0  0  0  2  0  0  0  0  0  0
  193.8000  174.2880  144.6250 C   0  0  2  0  0  3  0  0  0  0  0  0
  194.0700  175.7810  144.7390 C   0  0  2  0  0  3  0  0  0  0  0  0
  194.5260  177.2000  146.6360 O   0  0  0  0  0  0  0  0  0  0  0  0
  195.3030  175.0510  146.7790 O   0  0  0  0  0  1  0  0  0  0  0  0
  194.6290  176.0610  146.1030 C   0  0  0  0  0  0  0  0  0  0  0  0
  192.9720  172.2060  141.4850 C   0  0  0  0  0  2  0  0  0  0  0  0
  194.0460  171.5630  140.6250 C   0  0  0  0  0  2  0  0  0  0  0  0
  194.1320  172.2110  139.3930 O   0  0  0  0  0  0  0  0  0  0  0  0
  195.3910  172.8190  139.4060 C   0  0  0  0  0  2  0  0  0  0  0  0
  196.6940  174.8120  138.5300 C   0  0  1  0  0  3  0  0  0  0  0  0
  197.4830  175.1410  139.8100 C   0  0  0  0  0  2  0  0  0  0  0  0
  194.5060  175.1370  139.7640 C   0  0  0  0  0  2  0  0  0  0  0  0
  197.4690  173.9320  137.6720 N   0  0  0  0  0  1  0  0  0  0  0  0
  195.3040  174.2260  138.8200 C   0  0  2  0  0  3  0  0  0  0  0  0
  195.4060  176.0160  140.6400 C   0  0  0  0  0  2  0  0  0  0  0  0
  196.6280  175.2970  140.9940 N   0  0  0  0  0  2  0  0  0  0  0  0
  1 37  1  0  0  0  0
  2  3  2  0  0  0  0
  2  4  1  0  0  0  0
  3  5  1  0  0  0  0
  4  7  2  0  0  0  0
  5  1  2  0  0  0  0
  6  4  1  0  0  0  0
  7  1  1  0  0  0  0
  8 10  1  0  0  0  0
  8  2  1  0  0  0  0
  9  8  2  0  0  0  0
 11 12  1  0  0  0  0
 12 25  2  0  0  0  0
 13 25  1  0  0  0  0
 14 17  1  0  0  0  0
 15 14  1  0  0  0  0
 16 22  1  0  0  0  0
 17 20  2  0  0  0  0
 19 18  1  0  0  0  0
 19 13  2  0  0  0  0
 20 18  1  0  0  0  0
 21 10  1  0  0  0  0
 21 24  2  0  0  0  0
 22 11  2  0  0  0  0
 22 19  1  0  0  0  0
 23 26  2  0  0  0  0
 24 27  1  0  0  0  0
 25 29  1  0  0  0  0
 26 24  1  0  0  0  0
 26 15  1  0  0  0  0
 27 16  1  1  0  0  0
 27 17  1  0  0  0  0
 29 30  2  0  0  0  0
 29 28  1  0  0  0  0
 31 15  1  0  0  0  0
 32 33  1  0  0  0  0
 32 31  1  0  0  0  0
 34 35  2  0  0  0  0
 35 33  1  0  0  0  0
 36 35  1  0  0  0  0
 38 39  1  0  0  0  0
 38 37  1  0  0  0  0
 39 40  1  0  0  0  0
 42 41  1  1  0  0  0
 42 45  1  0  0  0  0
 43 50  1  6  0  0  0
 43 41  1  0  0  0  0
 43 42  1  0  0  0  0
 43 39  1  0  0  0  0
 45 46  1  0  0  0  0
 45 44  1  6  0  0  0
 46 44  1  0  0  0  0
 46 49  1  1  0  0  0
 49 47  2  0  0  0  0
 49 48  1  0  0  0  0
 51 50  1  0  0  0  0
 52 53  1  0  0  0  0
 52 51  1  0  0  0  0
 54 57  1  6  0  0  0
 54 58  1  0  0  0  0
 54 55  1  0  0  0  0
 55 60  1  0  0  0  0
 56 59  1  0  0  0  0
 58 53  1  1  0  0  0
 58 56  1  0  0  0  0
 59 60  1  0  0  0  0
M  END
>  <MODEL>
4

>  <REMARK>
 VINA RESULT:      -6.1      2.971      9.841
  Name = 
  19 active torsions:
  status: ('A' for Active; 'I' for Inactive)
    1  A    between atoms: C_1  and  C_6
    2  A    between atoms: C_1  and  C_28
    3  A    between atoms: C_2  and  N_29
    4  A    between atoms: C_2  and  C_60
    5  A    between atoms: C_3  and  C_24
    6  A    between atoms: C_3  and  O_59
    7  A    between atoms: C_4  and  N_12
    8  A    between atoms: N_8  and  C_42
    9  A    between atoms: N_8  and  C_58
   10  A    between atoms: N_12  and  C_42
   11  A    between atoms: C_17  and  C_50
   12  A    between atoms: C_27  and  C_49
   13  A    between atoms: C_28  and  C_39
   14  A    between atoms: C_38  and  C_47
   15  A    between atoms: C_45  and  C_57
   16  A    between atoms: C_45  and  O_59
   17  A    between atoms: C_49  and  C_60
   18  A    between atoms: C_52  and  C_56
   19  A    between atoms: C_57  and  C_58
                            x       y       z     vdW  Elec       q    Type
                         _______ _______ _______ _____ _____    ______ ____

>  <TORSDO>
F 19

$$$$
=
 OpenBabel11042416133D

 60 66  0  0  1  0  0  0  0  0999 V2000
  191.4010  171.2080  142.2270 C   0  0  0  0  0  0  0  0  0  0  0  0
  189.3800  173.1600  141.9780 C   0  0  0  0  0  0  0  0  0  0  0  0
  189.6970  172.3110  140.9070 C   0  0  0  0  0  3  0  0  0  0  0  0
  190.0800  173.0110  143.1980 C   0  0  0  0  0  0  0  0  0  0  0  0
  190.6890  171.3360  141.0320 C   0  0  0  0  0  3  0  0  0  0  0  0
  189.8420  173.8940  144.3770 C   0  0  0  0  0  1  0  0  0  0  0  0
  191.0910  172.0470  143.3080 C   0  0  0  0  0  3  0  0  0  0  0  0
  188.3540  174.2030  141.7520 C   0  0  0  0  0  0  0  0  0  0  0  0
  187.1540  173.9670  142.0670 O   0  0  0  0  0  0  0  0  0  0  0  0
  188.7060  175.5420  141.1900 C   0  0  0  0  0  2  0  0  0  0  0  0
  190.2870  177.7050  144.5340 C   0  0  0  0  0  3  0  0  0  0  0  0
  191.0000  177.3850  145.6870 C   0  0  0  0  0  3  0  0  0  0  0  0
  188.9310  176.8810  146.8240 C   0  0  0  0  0  3  0  0  0  0  0  0
  185.0210  178.9640  142.9440 C   0  0  0  0  0  2  0  0  0  0  0  0
  184.5960  178.4230  141.6570 N   0  0  0  0  0  0  0  0  0  0  0  0
  188.3360  177.6710  143.2830 C   0  0  0  0  0  2  0  0  0  0  0  0
  185.9270  178.0290  143.6820 C   0  0  0  0  0  0  0  0  0  0  0  0
  186.8750  177.4190  145.9060 C   0  0  0  0  0  2  0  0  0  0  0  0
  188.1910  177.2430  145.6940 C   0  0  0  0  0  0  0  0  0  0  0  0
  185.8850  178.0440  145.0080 C   0  0  0  0  0  3  0  0  0  0  0  0
  187.4700  176.2400  140.7190 C   0  0  0  0  0  3  0  0  0  0  0  0
  188.8920  177.5890  144.4950 C   0  0  0  0  0  0  0  0  0  0  0  0
  185.1950  177.3510  139.6690 O   0  0  0  0  0  0  0  0  0  0  0  0
  186.6920  177.0200  141.4850 C   0  0  0  0  0  0  0  0  0  0  0  0
  190.3300  176.9340  146.8290 C   0  0  0  0  0  0  0  0  0  0  0  0
  185.4760  177.6000  140.8750 C   0  0  0  0  0  0  0  0  0  0  0  0
  186.9520  177.2060  142.9670 C   0  0  1  0  0  3  0  0  0  0  0  0
  191.3380  175.1930  148.2860 O   0  0  0  0  0  0  0  0  0  0  0  0
  191.0850  176.5370  148.0270 C   0  0  0  0  0  0  0  0  0  0  0  0
  191.4750  177.4050  148.8490 O   0  0  0  0  0  1  0  0  0  0  0  0
  183.3990  178.9880  141.0520 C   0  0  0  0  0  2  0  0  0  0  0  0
  182.2050  178.1120  141.3680 C   0  0  0  0  0  2  0  0  0  0  0  0
  181.0360  178.9640  141.8190 C   0  0  0  0  0  2  0  0  0  0  0  0
  179.4520  180.1390  140.4920 O   0  0  0  0  0  1  0  0  0  0  0  0
  180.0320  179.0500  140.7270 C   0  0  0  0  0  0  0  0  0  0  0  0
  179.7990  177.9540  139.9050 O   0  0  0  0  0  0  0  0  0  0  0  0
  192.4600  170.2490  142.3050 N   0  0  0  0  0  2  0  0  0  0  0  0
  193.5430  170.1650  141.3290 C   0  0  0  0  0  2  0  0  0  0  0  0
  194.4020  171.3360  141.4710 N   0  0  0  0  0  0  0  0  0  0  0  0
  195.6750  170.8640  141.5560 O   0  0  0  0  0  1  0  0  0  0  0  0
  195.4120  173.2740  140.0990 C   0  0  0  0  0  2  0  0  0  0  0  0
  194.0860  173.7230  140.6950 C   0  0  1  0  0  3  0  0  0  0  0  0
  194.3000  172.2520  140.3090 C   0  0  2  0  0  0  0  0  0  0  0  0
  193.2240  174.9430  142.6820 C   0  0  0  0  0  2  0  0  0  0  0  0
  194.3010  174.0040  142.1760 C   0  0  2  0  0  3  0  0  0  0  0  0
  194.6140  175.4810  142.3650 C   0  0  2  0  0  3  0  0  0  0  0  0
  195.5040  176.7280  144.2290 O   0  0  0  0  0  1  0  0  0  0  0  0
  196.2250  174.5640  144.0300 O   0  0  0  0  0  0  0  0  0  0  0  0
  195.4560  175.6370  143.5960 C   0  0  0  0  0  0  0  0  0  0  0  0
  193.4780  171.8570  139.0790 C   0  0  0  0  0  2  0  0  0  0  0  0
  194.4020  171.5330  137.9190 C   0  0  0  0  0  2  0  0  0  0  0  0
  193.6680  171.0600  136.8320 O   0  0  0  0  0  0  0  0  0  0  0  0
  192.3650  171.5100  137.0680 C   0  0  0  0  0  2  0  0  0  0  0  0
  190.0020  170.6390  136.7670 C   0  0  1  0  0  3  0  0  0  0  0  0
  189.9980  169.6080  137.9110 C   0  0  0  0  0  2  0  0  0  0  0  0
  191.9650  169.4620  135.6800 C   0  0  0  0  0  2  0  0  0  0  0  0
  189.4700  171.9090  137.2300 N   0  0  0  0  0  1  0  0  0  0  0  0
  191.3870  170.8140  136.1260 C   0  0  2  0  0  3  0  0  0  0  0  0
  191.3860  168.2810  136.4690 C   0  0  0  0  0  2  0  0  0  0  0  0
  191.1290  168.6730  137.8530 N   0  0  0  0  0  2  0  0  0  0  0  0
  1 37  1  0  0  0  0
  1  7  1  0  0  0  0
  2  4  1  0  0  0  0
  3  5  1  0  0  0  0
  3  2  2  0  0  0  0
  4  7  2  0  0  0  0
  4  6  1  0  0  0  0
  5  1  2  0  0  0  0
  8  2  1  0  0  0  0
  8  9  2  0  0  0  0
 10  8  1  0  0  0  0
 11 12  1  0  0  0  0
 12 25  2  0  0  0  0
 13 25  1  0  0  0  0
 14 17  1  0  0  0  0
 15 14  1  0  0  0  0
 16 22  1  0  0  0  0
 17 20  2  0  0  0  0
 19 18  1  0  0  0  0
 19 13  2  0  0  0  0
 20 18  1  0  0  0  0
 21 10  1  0  0  0  0
 21 24  2  0  0  0  0
 22 11  2  0  0  0  0
 22 19  1  0  0  0  0
 23 26  2  0  0  0  0
 24 27  1  0  0  0  0
 25 29  1  0  0  0  0
 26 24  1  0  0  0  0
 26 15  1  0  0  0  0
 27 16  1  6  0  0  0
 27 17  1  0  0  0  0
 29 28  2  0  0  0  0
 29 30  1  0  0  0  0
 31 32  1  0  0  0  0
 31 15  1  0  0  0  0
 32 33  1  0  0  0  0
 34 35  1  0  0  0  0
 35 33  1  0  0  0  0
 36 35  2  0  0  0  0
 38 39  1  0  0  0  0
 38 37  1  0  0  0  0
 39 40  1  0  0  0  0
 41 43  1  0  0  0  0
 42 41  1  6  0  0  0
 42 45  1  0  0  0  0
 43 50  1  6  0  0  0
 43 42  1  0  0  0  0
 43 39  1  0  0  0  0
 45 46  1  0  0  0  0
 45 44  1  1  0  0  0
 46 44  1  0  0  0  0
 46 49  1  1  0  0  0
 49 48  2  0  0  0  0
 49 47  1  0  0  0  0
 51 50  1  0  0  0  0
 52 53  1  0  0  0  0
 52 51  1  0  0  0  0
 54 57  1  1  0  0  0
 54 55  1  0  0  0  0
 56 58  1  0  0  0  0
 56 59  1  0  0  0  0
 58 54  1  0  0  0  0
 58 53  1  1  0  0  0
 59 60  1  0  0  0  0
 60 55  1  0  0  0  0
M  END
>  <MODEL>
5

>  <REMARK>
 VINA RESULT:      -6.0      3.144      9.368
  Name = 
  19 active torsions:
  status: ('A' for Active; 'I' for Inactive)
    1  A    between atoms: C_1  and  C_6
    2  A    between atoms: C_1  and  C_28
    3  A    between atoms: C_2  and  N_29
    4  A    between atoms: C_2  and  C_60
    5  A    between atoms: C_3  and  C_24
    6  A    between atoms: C_3  and  O_59
    7  A    between atoms: C_4  and  N_12
    8  A    between atoms: N_8  and  C_42
    9  A    between atoms: N_8  and  C_58
   10  A    between atoms: N_12  and  C_42
   11  A    between atoms: C_17  and  C_50
   12  A    between atoms: C_27  and  C_49
   13  A    between atoms: C_28  and  C_39
   14  A    between atoms: C_38  and  C_47
   15  A    between atoms: C_45  and  C_57
   16  A    between atoms: C_45  and  O_59
   17  A    between atoms: C_49  and  C_60
   18  A    between atoms: C_52  and  C_56
   19  A    between atoms: C_57  and  C_58
                            x       y       z     vdW  Elec       q    Type
                         _______ _______ _______ _____ _____    ______ ____

>  <TORSDO>
F 19

$$$$
=
 OpenBabel11042416133D

 60 66  0  0  1  0  0  0  0  0999 V2000
  189.7520  173.0980  143.6970 C   0  0  0  0  0  0  0  0  0  0  0  0
  188.4740  174.8290  141.8720 C   0  0  0  0  0  0  0  0  0  0  0  0
  187.9800  173.5370  142.1070 C   0  0  0  0  0  3  0  0  0  0  0  0
  189.6210  175.2600  142.5800 C   0  0  0  0  0  0  0  0  0  0  0  0
  188.6040  172.6830  143.0180 C   0  0  0  0  0  3  0  0  0  0  0  0
  190.2440  176.6000  142.3660 C   0  0  0  0  0  1  0  0  0  0  0  0
  190.2560  174.3890  143.4750 C   0  0  0  0  0  3  0  0  0  0  0  0
  187.7910  175.6560  140.8530 C   0  0  0  0  0  0  0  0  0  0  0  0
  187.1680  175.0880  139.9120 O   0  0  0  0  0  0  0  0  0  0  0  0
  187.7890  177.1490  140.9250 C   0  0  0  0  0  2  0  0  0  0  0  0
  189.2690  178.2560  144.7900 C   0  0  0  0  0  3  0  0  0  0  0  0
  190.1580  177.7140  145.7150 C   0  0  0  0  0  3  0  0  0  0  0  0
  188.3760  176.3720  146.6370 C   0  0  0  0  0  3  0  0  0  0  0  0
  183.7120  178.7620  143.9480 C   0  0  0  0  0  2  0  0  0  0  0  0
  183.2630  178.6400  142.5650 N   0  0  0  0  0  0  0  0  0  0  0  0
  187.2370  178.2300  143.6760 C   0  0  0  0  0  2  0  0  0  0  0  0
  184.8660  177.8570  144.2510 C   0  0  0  0  0  0  0  0  0  0  0  0
  186.1630  176.7180  146.0510 C   0  0  0  0  0  2  0  0  0  0  0  0
  187.4550  176.9380  145.7500 C   0  0  0  0  0  0  0  0  0  0  0  0
  184.9720  177.3810  145.4860 C   0  0  0  0  0  3  0  0  0  0  0  0
  186.3930  177.6660  140.7880 C   0  0  0  0  0  3  0  0  0  0  0  0
  187.9310  177.8450  144.7500 C   0  0  0  0  0  0  0  0  0  0  0  0
  183.8370  178.5280  140.3030 O   0  0  0  0  0  0  0  0  0  0  0  0
  185.5650  177.9150  141.8140 C   0  0  0  0  0  0  0  0  0  0  0  0
  189.7270  176.7390  146.6200 C   0  0  0  0  0  0  0  0  0  0  0  0
  184.1960  178.3810  141.5050 C   0  0  0  0  0  0  0  0  0  0  0  0
  185.9480  177.6070  143.2490 C   0  0  1  0  0  3  0  0  0  0  0  0
  191.7650  176.8430  148.0370 O   0  0  0  0  0  1  0  0  0  0  0  0
  190.6760  176.1200  147.5570 C   0  0  0  0  0  0  0  0  0  0  0  0
  190.5360  174.9190  147.9030 O   0  0  0  0  0  0  0  0  0  0  0  0
  181.9150  179.0950  142.2550 C   0  0  0  0  0  2  0  0  0  0  0  0
  181.0810  177.9280  141.7710 C   0  0  0  0  0  2  0  0  0  0  0  0
  179.9690  178.4200  140.8670 C   0  0  0  0  0  2  0  0  0  0  0  0
  178.2890  176.8090  141.3510 O   0  0  0  0  0  0  0  0  0  0  0  0
  178.6550  178.0080  141.4250 C   0  0  0  0  0  0  0  0  0  0  0  0
  177.8680  178.9270  142.1100 O   0  0  0  0  0  1  0  0  0  0  0  0
  190.4120  172.1780  144.5710 N   0  0  0  0  0  2  0  0  0  0  0  0
  191.6760  171.5230  144.2450 C   0  0  0  0  0  2  0  0  0  0  0  0
  192.7610  172.4880  144.3910 N   0  0  0  0  0  0  0  0  0  0  0  0
  193.6890  171.8970  145.1900 O   0  0  0  0  0  1  0  0  0  0  0  0
  194.8150  173.3650  143.0970 C   0  0  0  0  0  2  0  0  0  0  0  0
  193.6550  174.3320  142.9060 C   0  0  1  0  0  3  0  0  0  0  0  0
  193.3870  172.8300  143.0900 C   0  0  2  0  0  0  0  0  0  0  0  0
  193.1830  176.5860  143.8410 C   0  0  0  0  0  2  0  0  0  0  0  0
  193.4960  175.1420  144.1850 C   0  0  2  0  0  3  0  0  0  0  0  0
  194.5960  176.1910  144.2520 C   0  0  2  0  0  3  0  0  0  0  0  0
  195.0400  175.5800  146.5440 O   0  0  0  0  0  1  0  0  0  0  0  0
  194.9160  177.8240  146.1080 O   0  0  0  0  0  0  0  0  0  0  0  0
  194.8730  176.4980  145.6940 C   0  0  0  0  0  0  0  0  0  0  0  0
  192.8990  172.1720  141.7970 C   0  0  0  0  0  2  0  0  0  0  0  0
  194.0220  171.3690  141.1660 C   0  0  0  0  0  2  0  0  0  0  0  0
  193.7580  171.1440  139.8160 O   0  0  0  0  0  0  0  0  0  0  0  0
  192.3840  171.3680  139.6860 C   0  0  0  0  0  2  0  0  0  0  0  0
  190.6000  172.3030  138.1450 C   0  0  1  0  0  3  0  0  0  0  0  0
  189.5830  171.1530  138.2600 C   0  0  0  0  0  2  0  0  0  0  0  0
  192.3540  170.6960  137.2720 C   0  0  0  0  0  2  0  0  0  0  0  0
  190.3000  173.3420  139.1150 N   0  0  0  0  0  1  0  0  0  0  0  0
  192.0550  171.8260  138.2690 C   0  0  2  0  0  3  0  0  0  0  0  0
  191.0960  169.9230  136.8590 C   0  0  0  0  0  2  0  0  0  0  0  0
  190.1630  169.8340  137.9810 N   0  0  0  0  0  2  0  0  0  0  0  0
  1 37  1  0  0  0  0
  2  3  2  0  0  0  0
  2  4  1  0  0  0  0
  3  5  1  0  0  0  0
  4  7  2  0  0  0  0
  5  1  2  0  0  0  0
  6  4  1  0  0  0  0
  7  1  1  0  0  0  0
  8 10  1  0  0  0  0
  8  2  1  0  0  0  0
  9  8  2  0  0  0  0
 11 12  1  0  0  0  0
 12 25  2  0  0  0  0
 14 17  1  0  0  0  0
 15 14  1  0  0  0  0
 16 22  1  0  0  0  0
 17 20  2  0  0  0  0
 19 18  1  0  0  0  0
 19 13  2  0  0  0  0
 20 18  1  0  0  0  0
 21 10  1  0  0  0  0
 21 24  2  0  0  0  0
 22 11  2  0  0  0  0
 22 19  1  0  0  0  0
 23 26  2  0  0  0  0
 24 27  1  0  0  0  0
 25 13  1  0  0  0  0
 25 29  1  0  0  0  0
 26 24  1  0  0  0  0
 26 15  1  0  0  0  0
 27 16  1  1  0  0  0
 27 17  1  0  0  0  0
 29 30  2  0  0  0  0
 29 28  1  0  0  0  0
 31 15  1  0  0  0  0
 32 31  1  0  0  0  0
 33 35  1  0  0  0  0
 33 32  1  0  0  0  0
 34 35  2  0  0  0  0
 35 36  1  0  0  0  0
 38 39  1  0  0  0  0
 38 37  1  0  0  0  0
 39 40  1  0  0  0  0
 42 43  1  0  0  0  0
 42 41  1  1  0  0  0
 42 45  1  0  0  0  0
 43 50  1  6  0  0  0
 43 41  1  0  0  0  0
 43 39  1  0  0  0  0
 44 46  1  0  0  0  0
 45 44  1  6  0  0  0
 45 46  1  0  0  0  0
 46 49  1  1  0  0  0
 49 48  2  0  0  0  0
 49 47  1  0  0  0  0
 51 50  1  0  0  0  0
 52 51  1  0  0  0  0
 53 52  1  0  0  0  0
 54 55  1  0  0  0  0
 54 58  1  0  0  0  0
 54 57  1  1  0  0  0
 56 58  1  0  0  0  0
 58 53  1  1  0  0  0
 59 56  1  0  0  0  0
 59 60  1  0  0  0  0
 60 55  1  0  0  0  0
M  END
>  <MODEL>
6

>  <REMARK>
 VINA RESULT:      -6.0      3.100      9.779
  Name = 
  19 active torsions:
  status: ('A' for Active; 'I' for Inactive)
    1  A    between atoms: C_1  and  C_6
    2  A    between atoms: C_1  and  C_28
    3  A    between atoms: C_2  and  N_29
    4  A    between atoms: C_2  and  C_60
    5  A    between atoms: C_3  and  C_24
    6  A    between atoms: C_3  and  O_59
    7  A    between atoms: C_4  and  N_12
    8  A    between atoms: N_8  and  C_42
    9  A    between atoms: N_8  and  C_58
   10  A    between atoms: N_12  and  C_42
   11  A    between atoms: C_17  and  C_50
   12  A    between atoms: C_27  and  C_49
   13  A    between atoms: C_28  and  C_39
   14  A    between atoms: C_38  and  C_47
   15  A    between atoms: C_45  and  C_57
   16  A    between atoms: C_45  and  O_59
   17  A    between atoms: C_49  and  C_60
   18  A    between atoms: C_52  and  C_56
   19  A    between atoms: C_57  and  C_58
                            x       y       z     vdW  Elec       q    Type
                         _______ _______ _______ _____ _____    ______ ____

>  <TORSDO>
F 19

$$$$
=
 OpenBabel11042416133D

 60 66  0  0  1  0  0  0  0  0999 V2000
  190.3860  172.7160  140.8720 C   0  0  0  0  0  0  0  0  0  0  0  0
  190.9210  170.7360  138.9350 C   0  0  0  0  0  0  0  0  0  0  0  0
  191.0260  170.4510  140.3050 C   0  0  0  0  0  3  0  0  0  0  0  0
  190.5240  172.0340  138.5360 C   0  0  0  0  0  0  0  0  0  0  0  0
  190.7500  171.4270  141.2650 C   0  0  0  0  0  3  0  0  0  0  0  0
  190.4260  172.4420  137.1040 C   0  0  0  0  0  1  0  0  0  0  0  0
  190.2730  173.0150  139.5050 C   0  0  0  0  0  3  0  0  0  0  0  0
  191.2810  169.6660  137.9780 C   0  0  0  0  0  0  0  0  0  0  0  0
  190.3630  169.0460  137.3710 O   0  0  0  0  0  0  0  0  0  0  0  0
  192.7050  169.3210  137.6840 C   0  0  0  0  0  2  0  0  0  0  0  0
  195.0580  169.7210  141.2420 C   0  0  0  0  0  3  0  0  0  0  0  0
  194.8300  169.6080  142.6120 C   0  0  0  0  0  3  0  0  0  0  0  0
  194.1010  171.9080  142.6780 C   0  0  0  0  0  3  0  0  0  0  0  0
  195.6970  173.7110  137.3030 C   0  0  0  0  0  2  0  0  0  0  0  0
  195.1010  173.4240  136.0020 N   0  0  0  0  0  0  0  0  0  0  0  0
  194.7920  170.8370  139.2290 C   0  0  0  0  0  2  0  0  0  0  0  0
  194.8760  173.1730  138.4330 C   0  0  0  0  0  0  0  0  0  0  0  0
  194.3940  173.3300  140.8750 C   0  0  0  0  0  2  0  0  0  0  0  0
  194.3680  172.0590  141.3140 C   0  0  0  0  0  0  0  0  0  0  0  0
  194.8950  173.8360  139.5830 C   0  0  0  0  0  3  0  0  0  0  0  0
  193.2530  170.2500  136.6490 C   0  0  0  0  0  3  0  0  0  0  0  0
  194.7830  170.9140  140.5620 C   0  0  0  0  0  0  0  0  0  0  0  0
  194.0900  171.8580  134.5930 O   0  0  0  0  0  0  0  0  0  0  0  0
  193.9450  171.3690  136.9140 C   0  0  0  0  0  0  0  0  0  0  0  0
  194.3130  170.6880  143.3320 C   0  0  0  0  0  0  0  0  0  0  0  0
  194.3780  172.2040  135.7730 C   0  0  0  0  0  0  0  0  0  0  0  0
  194.1700  171.8570  138.3320 C   0  0  1  0  0  3  0  0  0  0  0  0
  193.7080  171.6750  145.5310 O   0  0  0  0  0  1  0  0  0  0  0  0
  194.0130  170.5530  144.7660 C   0  0  0  0  0  0  0  0  0  0  0  0
  194.0680  169.4260  145.3230 O   0  0  0  0  0  0  0  0  0  0  0  0
  195.5210  174.2440  134.8750 C   0  0  0  0  0  2  0  0  0  0  0  0
  194.9170  175.6270  134.9960 C   0  0  0  0  0  2  0  0  0  0  0  0
  193.4800  175.6120  134.5130 C   0  0  0  0  0  2  0  0  0  0  0  0
  191.3430  176.1000  135.4330 O   0  0  0  0  0  0  0  0  0  0  0  0
  192.5730  175.9480  135.6400 C   0  0  0  0  0  0  0  0  0  0  0  0
  193.0640  176.0050  136.9390 O   0  0  0  0  0  1  0  0  0  0  0  0
  190.1790  173.7160  141.8740 N   0  0  0  0  0  2  0  0  0  0  0  0
  190.8740  173.7250  143.1580 C   0  0  0  0  0  2  0  0  0  0  0  0
  191.5970  174.9840  143.2970 N   0  0  0  0  0  0  0  0  0  0  0  0
  190.8860  175.9100  142.5980 O   0  0  0  0  0  1  0  0  0  0  0  0
  192.4150  176.7330  145.0100 C   0  0  0  0  0  2  0  0  0  0  0  0
  193.1370  175.4170  145.2570 C   0  0  1  0  0  3  0  0  0  0  0  0
  191.7010  175.4190  144.7120 C   0  0  2  0  0  0  0  0  0  0  0  0
  195.4400  174.6130  144.7790 C   0  0  0  0  0  2  0  0  0  0  0  0
  194.2000  175.2480  144.1810 C   0  0  2  0  0  3  0  0  0  0  0  0
  195.4020  176.1150  144.5250 C   0  0  2  0  0  3  0  0  0  0  0  0
  197.2990  176.8810  143.2450 O   0  0  0  0  0  1  0  0  0  0  0  0
  195.3950  176.4400  142.0540 O   0  0  0  0  0  0  0  0  0  0  0  0
  196.0990  176.4920  143.2500 C   0  0  0  0  0  0  0  0  0  0  0  0
  190.6920  174.9250  145.7510 C   0  0  0  0  0  2  0  0  0  0  0  0
  189.3040  175.4360  145.4110 C   0  0  0  0  0  2  0  0  0  0  0  0
  189.0130  176.5800  146.1540 O   0  0  0  0  0  0  0  0  0  0  0  0
  188.0450  177.2500  145.3990 C   0  0  0  0  0  2  0  0  0  0  0  0
  185.5760  177.2610  144.8210 C   0  0  1  0  0  3  0  0  0  0  0  0
  185.3540  178.7840  144.8250 C   0  0  0  0  0  2  0  0  0  0  0  0
  186.3410  177.3410  147.2340 C   0  0  0  0  0  2  0  0  0  0  0  0
  185.8840  176.7990  143.4780 N   0  0  0  0  0  1  0  0  0  0  0  0
  186.6470  176.8120  145.8250 C   0  0  2  0  0  3  0  0  0  0  0  0
  185.4770  178.6080  147.2160 C   0  0  0  0  0  2  0  0  0  0  0  0
  185.8120  179.4350  146.0590 N   0  0  0  0  0  2  0  0  0  0  0  0
  1  5  1  0  0  0  0
  1 37  1  0  0  0  0
  2  3  1  0  0  0  0
  3  5  2  0  0  0  0
  4  2  2  0  0  0  0
  4  7  1  0  0  0  0
  6  4  1  0  0  0  0
  7  1  2  0  0  0  0
  8  2  1  0  0  0  0
  9  8  2  0  0  0  0
 10  8  1  0  0  0  0
 11 12  1  0  0  0  0
 12 25  2  0  0  0  0
 13 25  1  0  0  0  0
 14 17  1  0  0  0  0
 15 14  1  0  0  0  0
 16 22  1  0  0  0  0
 17 20  2  0  0  0  0
 18 19  1  0  0  0  0
 19 13  2  0  0  0  0
 20 18  1  0  0  0  0
 21 24  2  0  0  0  0
 21 10  1  0  0  0  0
 22 11  2  0  0  0  0
 22 19  1  0  0  0  0
 23 26  2  0  0  0  0
 24 27  1  0  0  0  0
 25 29  1  0  0  0  0
 26 15  1  0  0  0  0
 26 24  1  0  0  0  0
 27 17  1  0  0  0  0
 27 16  1  1  0  0  0
 29 30  2  0  0  0  0
 29 28  1  0  0  0  0
 31 32  1  0  0  0  0
 31 15  1  0  0  0  0
 33 32  1  0  0  0  0
 33 35  1  0  0  0  0
 34 35  2  0  0  0  0
 35 36  1  0  0  0  0
 37 38  1  0  0  0  0
 38 39  1  0  0  0  0
 39 43  1  0  0  0  0
 40 39  1  0  0  0  0
 42 41  1  6  0  0  0
 43 41  1  0  0  0  0
 43 42  1  0  0  0  0
 43 50  1  1  0  0  0
 45 46  1  0  0  0  0
 45 44  1  1  0  0  0
 45 42  1  0  0  0  0
 46 49  1  6  0  0  0
 46 44  1  0  0  0  0
 47 49  1  0  0  0  0
 48 49  2  0  0  0  0
 51 50  1  0  0  0  0
 51 52  1  0  0  0  0
 53 52  1  0  0  0  0
 54 57  1  6  0  0  0
 54 55  1  0  0  0  0
 54 58  1  0  0  0  0
 55 60  1  0  0  0  0
 58 53  1  6  0  0  0
 58 56  1  0  0  0  0
 59 56  1  0  0  0  0
 60 59  1  0  0  0  0
M  END
>  <MODEL>
7

>  <REMARK>
 VINA RESULT:      -5.7      2.385      5.878
  Name = 
  19 active torsions:
  status: ('A' for Active; 'I' for Inactive)
    1  A    between atoms: C_1  and  C_6
    2  A    between atoms: C_1  and  C_28
    3  A    between atoms: C_2  and  N_29
    4  A    between atoms: C_2  and  C_60
    5  A    between atoms: C_3  and  C_24
    6  A    between atoms: C_3  and  O_59
    7  A    between atoms: C_4  and  N_12
    8  A    between atoms: N_8  and  C_42
    9  A    between atoms: N_8  and  C_58
   10  A    between atoms: N_12  and  C_42
   11  A    between atoms: C_17  and  C_50
   12  A    between atoms: C_27  and  C_49
   13  A    between atoms: C_28  and  C_39
   14  A    between atoms: C_38  and  C_47
   15  A    between atoms: C_45  and  C_57
   16  A    between atoms: C_45  and  O_59
   17  A    between atoms: C_49  and  C_60
   18  A    between atoms: C_52  and  C_56
   19  A    between atoms: C_57  and  C_58
                            x       y       z     vdW  Elec       q    Type
                         _______ _______ _______ _____ _____    ______ ____

>  <TORSDO>
F 19

$$$$
=
 OpenBabel11042416133D

 60 66  0  0  1  0  0  0  0  0999 V2000
  192.0610  171.1300  143.4180 C   0  0  0  0  0  0  0  0  0  0  0  0
  194.5840  171.3290  144.6640 C   0  0  0  0  0  0  0  0  0  0  0  0
  193.4830  172.0520  145.1470 C   0  0  0  0  0  3  0  0  0  0  0  0
  194.4060  170.4790  143.5460 C   0  0  0  0  0  0  0  0  0  0  0  0
  192.2310  171.9460  144.5380 C   0  0  0  0  0  3  0  0  0  0  0  0
  195.5260  169.7040  142.9360 C   0  0  0  0  0  1  0  0  0  0  0  0
  193.1520  170.3970  142.9260 C   0  0  0  0  0  3  0  0  0  0  0  0
  195.8910  171.5330  145.3280 C   0  0  0  0  0  0  0  0  0  0  0  0
  196.3210  170.6560  146.1280 O   0  0  0  0  0  0  0  0  0  0  0  0
  196.7320  172.7380  145.0540 C   0  0  0  0  0  2  0  0  0  0  0  0
  194.5280  176.2960  145.9700 C   0  0  0  0  0  3  0  0  0  0  0  0
  193.5050  176.6420  146.8510 C   0  0  0  0  0  3  0  0  0  0  0  0
  191.8690  175.8860  145.2440 C   0  0  0  0  0  3  0  0  0  0  0  0
  195.2790  175.1000  140.5070 C   0  0  0  0  0  2  0  0  0  0  0  0
  196.2460  174.0480  140.2110 N   0  0  0  0  0  0  0  0  0  0  0  0
  195.2870  175.1900  144.0810 C   0  0  0  0  0  2  0  0  0  0  0  0
  194.5140  174.8300  141.7650 C   0  0  0  0  0  0  0  0  0  0  0  0
  192.4540  175.3590  143.0670 C   0  0  0  0  0  2  0  0  0  0  0  0
  192.8770  175.5750  144.3260 C   0  0  0  0  0  0  0  0  0  0  0  0
  193.2650  175.2740  141.8380 C   0  0  0  0  0  3  0  0  0  0  0  0
  197.1120  172.7780  143.6090 C   0  0  0  0  0  3  0  0  0  0  0  0
  194.2430  175.7120  144.7300 C   0  0  0  0  0  0  0  0  0  0  0  0
  197.9350  172.6380  140.9980 O   0  0  0  0  0  0  0  0  0  0  0  0
  196.4500  173.4600  142.6610 C   0  0  0  0  0  0  0  0  0  0  0  0
  192.1700  176.4040  146.5100 C   0  0  0  0  0  0  0  0  0  0  0  0
  196.9320  173.3570  141.2670 C   0  0  0  0  0  0  0  0  0  0  0  0
  195.1660  174.2100  142.9600 C   0  0  1  0  0  3  0  0  0  0  0  0
  189.8010  176.2400  147.2410 O   0  0  0  0  0  0  0  0  0  0  0  0
  191.0920  176.7110  147.4620 C   0  0  0  0  0  0  0  0  0  0  0  0
  191.3180  177.4350  148.4660 O   0  0  0  0  0  1  0  0  0  0  0  0
  196.7230  173.9400  138.8400 C   0  0  0  0  0  2  0  0  0  0  0  0
  196.1780  175.0890  138.0180 C   0  0  0  0  0  2  0  0  0  0  0  0
  197.2760  175.6810  137.1570 C   0  0  0  0  0  2  0  0  0  0  0  0
  197.2770  176.4410  134.9040 O   0  0  0  0  0  0  0  0  0  0  0  0
  196.9000  175.5680  135.7240 C   0  0  0  0  0  0  0  0  0  0  0  0
  196.2090  174.4500  135.2700 O   0  0  0  0  0  1  0  0  0  0  0  0
  190.7860  171.0950  142.7710 N   0  0  0  0  0  2  0  0  0  0  0  0
  190.2200  172.2280  142.0440 C   0  0  0  0  0  2  0  0  0  0  0  0
  190.3980  172.0100  140.6120 N   0  0  0  0  0  0  0  0  0  0  0  0
  190.2580  170.6720  140.4120 O   0  0  0  0  0  1  0  0  0  0  0  0
  189.0520  172.1910  138.4180 C   0  0  0  0  0  2  0  0  0  0  0  0
  189.9570  173.4070  138.5490 C   0  0  1  0  0  3  0  0  0  0  0  0
  189.3840  172.7310  139.8040 C   0  0  2  0  0  0  0  0  0  0  0  0
  192.3120  174.1710  138.3320 C   0  0  0  0  0  2  0  0  0  0  0  0
  191.3800  172.9800  138.2200 C   0  0  2  0  0  3  0  0  0  0  0  0
  191.8400  173.7000  136.9620 C   0  0  2  0  0  3  0  0  0  0  0  0
  193.2130  173.0720  135.0800 O   0  0  0  0  0  0  0  0  0  0  0  0
  193.4150  171.7690  136.9510 O   0  0  0  0  0  1  0  0  0  0  0  0
  192.8640  172.8480  136.2720 C   0  0  0  0  0  0  0  0  0  0  0  0
  188.3200  173.5950  140.4860 C   0  0  0  0  0  2  0  0  0  0  0  0
  188.9740  174.5280  141.4900 C   0  0  0  0  0  2  0  0  0  0  0  0
  188.1020  174.7890  142.5470 O   0  0  0  0  0  0  0  0  0  0  0  0
  187.2010  175.7260  142.0330 C   0  0  0  0  0  2  0  0  0  0  0  0
  186.9800  178.2360  142.3260 C   0  0  1  0  0  3  0  0  0  0  0  0
  188.3560  178.6460  141.7700 C   0  0  0  0  0  2  0  0  0  0  0  0
  188.0930  176.8170  144.1050 C   0  0  0  0  0  2  0  0  0  0  0  0
  185.9790  178.2740  141.2740 N   0  0  0  0  0  1  0  0  0  0  0  0
  187.0020  176.8680  143.0250 C   0  0  2  0  0  3  0  0  0  0  0  0
  189.2340  177.8080  143.8420 C   0  0  0  0  0  2  0  0  0  0  0  0
  189.4740  177.9360  142.4060 N   0  0  0  0  0  2  0  0  0  0  0  0
  1  5  1  0  0  0  0
  2  3  1  0  0  0  0
  2  8  1  0  0  0  0
  4  2  2  0  0  0  0
  5  3  2  0  0  0  0
  6  4  1  0  0  0  0
  7  1  2  0  0  0  0
  7  4  1  0  0  0  0
  8  9  2  0  0  0  0
 10  8  1  0  0  0  0
 11 12  1  0  0  0  0
 13 25  1  0  0  0  0
 14 17  1  0  0  0  0
 15 14  1  0  0  0  0
 15 26  1  0  0  0  0
 16 22  1  0  0  0  0
 17 20  2  0  0  0  0
 17 27  1  0  0  0  0
 18 19  1  0  0  0  0
 19 22  1  0  0  0  0
 19 13  2  0  0  0  0
 20 18  1  0  0  0  0
 21 10  1  0  0  0  0
 22 11  2  0  0  0  0
 23 26  2  0  0  0  0
 24 27  1  0  0  0  0
 24 21  2  0  0  0  0
 25 12  2  0  0  0  0
 25 29  1  0  0  0  0
 26 24  1  0  0  0  0
 27 16  1  1  0  0  0
 28 29  2  0  0  0  0
 29 30  1  0  0  0  0
 31 15  1  0  0  0  0
 32 31  1  0  0  0  0
 33 32  1  0  0  0  0
 34 35  2  0  0  0  0
 35 33  1  0  0  0  0
 36 35  1  0  0  0  0
 37  1  1  0  0  0  0
 38 37  1  0  0  0  0
 39 38  1  0  0  0  0
 40 39  1  0  0  0  0
 41 43  1  0  0  0  0
 42 41  1  6  0  0  0
 42 43  1  0  0  0  0
 43 50  1  1  0  0  0
 43 39  1  0  0  0  0
 45 44  1  1  0  0  0
 45 42  1  0  0  0  0
 46 49  1  6  0  0  0
 46 45  1  0  0  0  0
 46 44  1  0  0  0  0
 47 49  2  0  0  0  0
 49 48  1  0  0  0  0
 50 51  1  0  0  0  0
 51 52  1  0  0  0  0
 53 52  1  0  0  0  0
 54 57  1  6  0  0  0
 54 58  1  0  0  0  0
 55 54  1  0  0  0  0
 55 60  1  0  0  0  0
 58 53  1  6  0  0  0
 58 56  1  0  0  0  0
 59 56  1  0  0  0  0
 60 59  1  0  0  0  0
M  END
>  <MODEL>
8

>  <REMARK>
 VINA RESULT:      -5.4      1.730      2.350
  Name = 
  19 active torsions:
  status: ('A' for Active; 'I' for Inactive)
    1  A    between atoms: C_1  and  C_6
    2  A    between atoms: C_1  and  C_28
    3  A    between atoms: C_2  and  N_29
    4  A    between atoms: C_2  and  C_60
    5  A    between atoms: C_3  and  C_24
    6  A    between atoms: C_3  and  O_59
    7  A    between atoms: C_4  and  N_12
    8  A    between atoms: N_8  and  C_42
    9  A    between atoms: N_8  and  C_58
   10  A    between atoms: N_12  and  C_42
   11  A    between atoms: C_17  and  C_50
   12  A    between atoms: C_27  and  C_49
   13  A    between atoms: C_28  and  C_39
   14  A    between atoms: C_38  and  C_47
   15  A    between atoms: C_45  and  C_57
   16  A    between atoms: C_45  and  O_59
   17  A    between atoms: C_49  and  C_60
   18  A    between atoms: C_52  and  C_56
   19  A    between atoms: C_57  and  C_58
                            x       y       z     vdW  Elec       q    Type
                         _______ _______ _______ _____ _____    ______ ____

>  <TORSDO>
F 19

$$$$
=
 OpenBabel11042416133D

 60 66  0  0  1  0  0  0  0  0999 V2000
  193.9980  176.1910  143.8880 C   0  0  0  0  0  0  0  0  0  0  0  0
  195.8780  175.2560  142.0040 C   0  0  0  0  0  0  0  0  0  0  0  0
  196.2760  175.6230  143.2980 C   0  0  0  0  0  3  0  0  0  0  0  0
  194.5080  175.3450  141.6600 C   0  0  0  0  0  0  0  0  0  0  0  0
  195.3460  176.0750  144.2360 C   0  0  0  0  0  3  0  0  0  0  0  0
  193.9960  175.0180  140.2970 C   0  0  0  0  0  1  0  0  0  0  0  0
  193.5840  175.8230  142.5990 C   0  0  0  0  0  3  0  0  0  0  0  0
  196.9290  174.8370  141.0500 C   0  0  0  0  0  0  0  0  0  0  0  0
  197.6380  175.7170  140.4860 O   0  0  0  0  0  0  0  0  0  0  0  0
  197.1960  173.3960  140.7590 C   0  0  0  0  0  2  0  0  0  0  0  0
  194.6820  171.7990  143.8380 C   0  0  0  0  0  3  0  0  0  0  0  0
  194.8650  171.3220  145.1340 C   0  0  0  0  0  3  0  0  0  0  0  0
  195.3950  169.1380  144.2530 C   0  0  0  0  0  3  0  0  0  0  0  0
  193.8640  169.8400  138.6100 C   0  0  0  0  0  2  0  0  0  0  0  0
  194.5320  170.5760  137.5410 N   0  0  0  0  0  0  0  0  0  0  0  0
  194.9310  171.5810  141.5440 C   0  0  0  0  0  2  0  0  0  0  0  0
  194.6820  169.7920  139.8620 C   0  0  0  0  0  0  0  0  0  0  0  0
  195.0540  168.6080  142.0250 C   0  0  0  0  0  2  0  0  0  0  0  0
  195.1700  169.5810  142.9460 C   0  0  0  0  0  0  0  0  0  0  0  0
  194.5620  168.7220  140.6390 C   0  0  0  0  0  3  0  0  0  0  0  0
  196.6120  173.0240  139.4330 C   0  0  0  0  0  3  0  0  0  0  0  0
  194.8820  170.9670  142.7300 C   0  0  0  0  0  0  0  0  0  0  0  0
  195.7250  172.4800  136.8980 O   0  0  0  0  0  0  0  0  0  0  0  0
  195.8200  171.9640  139.2160 C   0  0  0  0  0  0  0  0  0  0  0  0
  195.2610  169.9980  145.3490 C   0  0  0  0  0  0  0  0  0  0  0  0
  195.3630  171.7100  137.8330 C   0  0  0  0  0  0  0  0  0  0  0  0
  195.4990  170.9630  140.3090 C   0  0  1  0  0  3  0  0  0  0  0  0
  196.8100  169.4870  147.2230 O   0  0  0  0  0  0  0  0  0  0  0  0
  195.5150  169.5090  146.7130 C   0  0  0  0  0  0  0  0  0  0  0  0
  194.5690  169.0700  147.4170 O   0  0  0  0  0  1  0  0  0  0  0  0
  194.0880  170.3300  136.1770 C   0  0  0  0  0  2  0  0  0  0  0  0
  192.5770  170.4100  136.1090 C   0  0  0  0  0  2  0  0  0  0  0  0
  192.1370  171.8550  135.9830 C   0  0  0  0  0  2  0  0  0  0  0  0
  190.6400  171.5850  137.8110 O   0  0  0  0  0  0  0  0  0  0  0  0
  191.5130  172.2980  137.2570 C   0  0  0  0  0  0  0  0  0  0  0  0
  191.9580  173.4550  137.8860 O   0  0  0  0  0  1  0  0  0  0  0  0
  193.0780  176.7240  144.8450 N   0  0  0  0  0  2  0  0  0  0  0  0
  192.4760  175.9300  145.9120 C   0  0  0  0  0  2  0  0  0  0  0  0
  191.8610  174.7410  145.3300 N   0  0  0  0  0  0  0  0  0  0  0  0
  192.5690  173.6790  145.8000 O   0  0  0  0  0  1  0  0  0  0  0  0
  189.7130  173.3110  145.3330 C   0  0  0  0  0  2  0  0  0  0  0  0
  189.4610  174.5860  144.5420 C   0  0  1  0  0  3  0  0  0  0  0  0
  190.4390  174.5920  145.7270 C   0  0  2  0  0  0  0  0  0  0  0  0
  189.9090  175.7010  142.3660 C   0  0  0  0  0  2  0  0  0  0  0  0
  190.1430  174.4480  143.1880 C   0  0  2  0  0  3  0  0  0  0  0  0
  189.0850  174.4490  142.0940 C   0  0  2  0  0  3  0  0  0  0  0  0
  189.3170  173.9850  139.7370 O   0  0  0  0  0  0  0  0  0  0  0  0
  190.4070  172.5560  141.1560 O   0  0  0  0  0  1  0  0  0  0  0  0
  189.6090  173.6690  140.9240 C   0  0  0  0  0  0  0  0  0  0  0  0
  189.8830  175.3660  146.9250 C   0  0  0  0  0  2  0  0  0  0  0  0
  189.0820  176.5620  146.4440 C   0  0  0  0  0  2  0  0  0  0  0  0
  187.7520  176.4500  146.8520 O   0  0  0  0  0  0  0  0  0  0  0  0
  187.0980  177.5000  146.2020 C   0  0  0  0  0  2  0  0  0  0  0  0
  185.5340  177.1680  144.2330 C   0  0  1  0  0  3  0  0  0  0  0  0
  185.4870  178.6250  143.7390 C   0  0  0  0  0  2  0  0  0  0  0  0
  184.6380  177.8800  146.4930 C   0  0  0  0  0  2  0  0  0  0  0  0
  186.5690  176.4290  143.5300 N   0  0  0  0  0  1  0  0  0  0  0  0
  185.7070  177.0600  145.7550 C   0  0  2  0  0  3  0  0  0  0  0  0
  184.0840  179.0300  145.6440 C   0  0  0  0  0  2  0  0  0  0  0  0
  185.1330  179.5850  144.7930 N   0  0  0  0  0  2  0  0  0  0  0  0
  1  5  1  0  0  0  0
  1 37  1  0  0  0  0
  2  3  1  0  0  0  0
  3  5  2  0  0  0  0
  4  2  2  0  0  0  0
  4  7  1  0  0  0  0
  6  4  1  0  0  0  0
  7  1  2  0  0  0  0
  8  2  1  0  0  0  0
  9  8  2  0  0  0  0
 10  8  1  0  0  0  0
 11 12  1  0  0  0  0
 12 25  2  0  0  0  0
 13 25  1  0  0  0  0
 14 17  1  0  0  0  0
 15 26  1  0  0  0  0
 15 14  1  0  0  0  0
 16 22  1  0  0  0  0
 17 27  1  0  0  0  0
 17 20  2  0  0  0  0
 18 19  1  0  0  0  0
 19 13  2  0  0  0  0
 20 18  1  0  0  0  0
 21 10  1  0  0  0  0
 22 19  1  0  0  0  0
 22 11  2  0  0  0  0
 23 26  2  0  0  0  0
 24 21  2  0  0  0  0
 24 27  1  0  0  0  0
 25 29  1  0  0  0  0
 26 24  1  0  0  0  0
 27 16  1  1  0  0  0
 29 28  2  0  0  0  0
 29 30  1  0  0  0  0
 31 15  1  0  0  0  0
 32 31  1  0  0  0  0
 33 32  1  0  0  0  0
 33 35  1  0  0  0  0
 35 34  2  0  0  0  0
 35 36  1  0  0  0  0
 37 38  1  0  0  0  0
 39 43  1  0  0  0  0
 39 40  1  0  0  0  0
 39 38  1  0  0  0  0
 41 43  1  0  0  0  0
 42 41  1  1  0  0  0
 42 43  1  0  0  0  0
 43 50  1  1  0  0  0
 45 44  1  6  0  0  0
 45 42  1  0  0  0  0
 46 49  1  6  0  0  0
 46 44  1  0  0  0  0
 46 45  1  0  0  0  0
 47 49  2  0  0  0  0
 49 48  1  0  0  0  0
 51 52  1  0  0  0  0
 51 50  1  0  0  0  0
 53 52  1  0  0  0  0
 54 57  1  6  0  0  0
 54 58  1  0  0  0  0
 55 54  1  0  0  0  0
 55 60  1  0  0  0  0
 58 53  1  6  0  0  0
 58 56  1  0  0  0  0
 59 56  1  0  0  0  0
 60 59  1  0  0  0  0
M  END
>  <MODEL>
9

>  <REMARK>
 VINA RESULT:      -5.3      2.265      4.974
  Name = 
  19 active torsions:
  status: ('A' for Active; 'I' for Inactive)
    1  A    between atoms: C_1  and  C_6
    2  A    between atoms: C_1  and  C_28
    3  A    between atoms: C_2  and  N_29
    4  A    between atoms: C_2  and  C_60
    5  A    between atoms: C_3  and  C_24
    6  A    between atoms: C_3  and  O_59
    7  A    between atoms: C_4  and  N_12
    8  A    between atoms: N_8  and  C_42
    9  A    between atoms: N_8  and  C_58
   10  A    between atoms: N_12  and  C_42
   11  A    between atoms: C_17  and  C_50
   12  A    between atoms: C_27  and  C_49
   13  A    between atoms: C_28  and  C_39
   14  A    between atoms: C_38  and  C_47
   15  A    between atoms: C_45  and  C_57
   16  A    between atoms: C_45  and  O_59
   17  A    between atoms: C_49  and  C_60
   18  A    between atoms: C_52  and  C_56
   19  A    between atoms: C_57  and  C_58
                            x       y       z     vdW  Elec       q    Type
                         _______ _______ _______ _____ _____    ______ ____

>  <TORSDO>
F 19

$$$$
