=
 OpenBabel11042416343D

 62 71  0  0  1  0  0  0  0  0999 V2000
  190.0160  173.6950  138.9800 C   0  0  0  0  0  2  0  0  0  0  0  0
  191.6020  170.5470  138.6270 C   0  0  2  0  0  0  0  0  0  0  0  0
  190.8280  170.6170  140.9400 O   0  0  0  0  0  0  0  0  0  0  0  0
  192.0190  169.1010  136.1870 C   0  0  2  0  0  3  0  0  0  0  0  0
  191.7990  168.6940  134.8720 O   0  0  0  0  0  1  0  0  0  0  0  0
  190.7070  169.1350  136.9380 C   0  0  0  0  0  2  0  0  0  0  0  0
  191.3630  173.1350  138.5180 C   0  0  1  0  0  3  0  0  0  0  0  0
  190.7810  171.6260  141.9270 C   0  0  0  0  0  2  0  0  0  0  0  0
  189.4780  172.9470  140.1900 C   0  0  0  0  0  2  0  0  0  0  0  0
  190.4960  173.0050  141.3360 C   0  0  1  0  0  3  0  0  0  0  0  0
  191.1960  171.7860  137.8150 C   0  0  1  0  0  3  0  0  0  0  0  0
  192.5820  170.5090  136.1980 C   0  0  0  0  0  2  0  0  0  0  0  0
  190.9550  169.3120  138.3130 O   0  0  0  0  0  0  0  0  0  0  0  0
  191.9900  170.6610  140.1170 C   0  0  2  0  0  3  0  0  0  0  0  0
  192.5780  171.1440  137.5960 C   0  0  2  0  0  3  0  0  0  0  0  0
  190.2190  174.0390  142.4340 C   0  0  1  0  0  3  0  0  0  0  0  0
  188.7390  174.1690  142.6910 C   0  0  1  0  0  3  0  0  0  0  0  0
  188.8530  173.6480  143.9930 O   0  0  0  0  0  0  0  0  0  0  0  0
  190.2370  173.4640  143.8280 C   0  0  0  0  0  2  0  0  0  0  0  0
  189.3260  176.6240  142.3530 C   0  0  0  0  0  1  0  0  0  0  0  0
  187.1430  175.7710  141.6200 C   0  0  0  0  0  1  0  0  0  0  0  0
  188.2200  175.6270  142.6890 C   0  0  0  0  0  0  0  0  0  0  0  0
  184.4220  179.3280  144.0510 O   0  0  0  0  0  0  0  0  0  0  0  0
  185.2560  178.3920  146.1240 C   0  0  0  0  0  2  0  0  0  0  0  0
  186.5120  178.3640  145.2490 C   0  0  1  0  0  3  0  0  0  0  0  0
  187.6350  177.6080  145.9610 C   0  0  0  0  0  2  0  0  0  0  0  0
  186.2510  176.4520  143.9540 O   0  0  0  0  0  0  0  0  0  0  0  0
  188.4960  176.8780  144.9410 C   0  0  0  0  0  2  0  0  0  0  0  0
  184.0360  178.8320  145.3060 C   0  0  0  0  0  2  0  0  0  0  0  0
  184.9510  178.2270  143.3550 C   0  0  0  0  0  2  0  0  0  0  0  0
  186.2600  177.8160  143.8920 N   0  0  1  0  0  0  0  0  0  0  0  0
  187.5970  175.9980  144.0500 C   0  0  2  0  0  3  0  0  0  0  0  0
  192.0650  175.4650  135.7370 N   0  0  0  0  0  2  0  0  0  0  0  0
  192.0320  174.1000  137.6520 N   0  0  0  0  0  2  0  0  0  0  0  0
  191.4360  174.6000  136.4580 C   0  0  0  0  0  3  0  0  0  0  0  0
  193.1340  171.6260  140.4790 C   0  0  0  0  0  2  0  0  0  0  0  0
  194.4120  170.8490  140.7080 C   0  0  1  0  0  3  0  0  0  0  0  0
  194.8230  170.9820  142.1650 C   0  0  1  0  0  3  0  0  0  0  0  0
  194.1400  169.7190  141.6770 C   0  0  0  0  0  2  0  0  0  0  0  0
  196.5060  169.5530  143.0490 C   0  0  0  0  0  1  0  0  0  0  0  0
  196.2700  170.7640  142.2700 N   0  0  0  0  0  0  0  0  0  0  0  0
  197.0480  171.8900  142.8510 C   0  0  2  0  0  3  0  0  0  0  0  0
  196.1830  172.8030  143.7260 C   0  0  2  0  0  3  0  0  0  0  0  0
  196.6520  173.2780  142.3440 C   0  0  1  0  0  3  0  0  0  0  0  0
  196.9780  173.3930  144.9010 C   0  0  0  0  0  2  0  0  0  0  0  0
  196.1540  174.3430  145.7650 C   0  0  0  0  0  2  0  0  0  0  0  0
  194.6760  174.2610  145.4260 C   0  0  0  0  0  2  0  0  0  0  0  0
  191.3750  175.7780  147.7800 C   0  0  0  0  0  1  0  0  0  0  0  0
  191.9310  175.4830  146.4640 N   0  0  0  0  0  0  0  0  0  0  0  0
  193.2390  175.6360  143.9260 C   0  0  2  0  0  3  0  0  0  0  0  0
  192.2200  177.8210  143.6360 O   0  0  0  0  0  1  0  0  0  0  0  0
  192.0610  176.5730  144.2470 C   0  0  2  0  0  3  0  0  0  0  0  0
  193.7980  176.7950  147.3910 O   0  0  0  0  0  1  0  0  0  0  0  0
  193.2400  176.1490  146.2790 C   0  0  2  0  0  0  0  0  0  0  0  0
  192.0410  176.7810  145.7590 C   0  0  2  0  0  3  0  0  0  0  0  0
  194.1290  175.6570  145.1480 C   0  0  1  0  0  3  0  0  0  0  0  0
  193.6350  175.1120  141.5200 C   0  0  0  0  0  1  0  0  0  0  0  0
  194.0240  176.0110  142.6760 C   0  0  0  0  0  2  0  0  0  0  0  0
  197.8770  174.1870  142.3490 C   0  0  0  0  0  2  0  0  0  0  0  0
  197.1470  175.9010  140.6520 N   0  0  0  0  0  1  0  0  0  0  0  0
  197.4930  175.5830  141.9940 C   0  0  0  0  0  0  0  0  0  0  0  0
  197.5050  176.4880  142.8680 O   0  0  0  0  0  0  0  0  0  0  0  0
  1  9  1  0  0  0  0
  2 13  1  6  0  0  0
  2 14  1  0  0  0  0
  3  8  1  0  0  0  0
  4  5  1  6  0  0  0
  4 12  1  0  0  0  0
  4  6  1  0  0  0  0
  6 13  1  0  0  0  0
  7 34  1  6  0  0  0
  7  1  1  0  0  0  0
 10  9  1  6  0  0  0
 10  8  1  0  0  0  0
 10 16  1  0  0  0  0
 11  7  1  0  0  0  0
 11  2  1  0  0  0  0
 12 15  1  0  0  0  0
 14 36  1  0  0  0  0
 14  3  1  0  0  0  0
 15 11  1  0  0  0  0
 15  2  1  0  0  0  0
 16 17  1  0  0  0  0
 16 19  1  0  0  0  0
 17 18  1  0  0  0  0
 19 18  1  0  0  0  0
 20 22  1  0  0  0  0
 21 22  1  0  0  0  0
 22 17  1  0  0  0  0
 22 32  1  0  0  0  0
 23 29  1  0  0  0  0
 25 26  1  0  0  0  0
 25 24  1  0  0  0  0
 27 32  1  0  0  0  0
 28 26  1  0  0  0  0
 29 24  1  0  0  0  0
 30 31  1  0  0  0  0
 30 23  1  0  0  0  0
 31 27  1  0  0  0  0
 31 25  1  0  0  0  0
 32 28  1  0  0  0  0
 33 35  2  0  0  0  0
 35 34  1  0  0  0  0
 36 37  1  0  0  0  0
 37 39  1  0  0  0  0
 37 38  1  0  0  0  0
 38 41  1  0  0  0  0
 39 38  1  0  0  0  0
 41 42  1  0  0  0  0
 41 40  1  0  0  0  0
 42 43  1  0  0  0  0
 43 45  1  0  0  0  0
 44 59  1  0  0  0  0
 44 42  1  0  0  0  0
 44 43  1  0  0  0  0
 45 46  1  0  0  0  0
 47 46  1  0  0  0  0
 49 48  1  0  0  0  0
 50 52  1  0  0  0  0
 50 56  1  0  0  0  0
 51 52  1  0  0  0  0
 52 55  1  0  0  0  0
 54 49  1  0  0  0  0
 54 53  1  0  0  0  0
 55 54  1  0  0  0  0
 55 49  1  0  0  0  0
 56 47  1  0  0  0  0
 56 54  1  0  0  0  0
 57 58  1  0  0  0  0
 58 50  1  0  0  0  0
 60 61  1  0  0  0  0
 61 59  1  0  0  0  0
 61 62  2  0  0  0  0
M  END
>  <MODEL>
1

>  <REMARK>
 VINA RESULT:      -6.9      0.000      0.000
  Name = 
  15 active torsions:
  status: ('A' for Active; 'I' for Inactive)
    1  A    between atoms: C_4  and  C_33
    2  A    between atoms: C_7  and  C_37
    3  A    between atoms: C_8  and  N_27
    4  A    between atoms: C_13  and  N_27
    5  A    between atoms: C_18  and  C_22
    6  A    between atoms: C_22  and  C_26
    7  A    between atoms: C_25  and  C_55
    8  A    between atoms: C_26  and  C_60
    9  A    between atoms: C_28  and  C_37
   10  A    between atoms: C_30  and  N_41
   11  A    between atoms: C_33  and  C_49
   12  A    between atoms: C_34  and  C_45
   13  A    between atoms: C_47  and  C_51
   14  A    between atoms: C_51  and  C_59
   15  A    between atoms: C_60  and  C_62
                            x       y       z     vdW  Elec       q    Type
                         _______ _______ _______ _____ _____    ______ ____

>  <TORSDO>
F 15

$$$$
=
 OpenBabel11042416343D

 62 71  0  0  1  0  0  0  0  0999 V2000
  191.2370  178.1840  143.3830 C   0  0  0  0  0  2  0  0  0  0  0  0
  189.4210  175.9130  145.4060 C   0  0  2  0  0  0  0  0  0  0  0  0
  191.7120  175.0750  145.4030 O   0  0  0  0  0  0  0  0  0  0  0  0
  186.9660  176.4370  146.7910 C   0  0  2  0  0  3  0  0  0  0  0  0
  185.9740  177.1820  147.4280 O   0  0  0  0  0  1  0  0  0  0  0  0
  188.3270  176.8700  147.2880 C   0  0  0  0  0  2  0  0  0  0  0  0
  189.9810  177.3150  143.2880 C   0  0  1  0  0  3  0  0  0  0  0  0
  192.7180  174.9770  144.4170 C   0  0  0  0  0  2  0  0  0  0  0  0
  192.3580  177.4760  144.1260 C   0  0  0  0  0  2  0  0  0  0  0  0
  192.6860  176.1450  143.4350 C   0  0  1  0  0  3  0  0  0  0  0  0
  189.2570  177.2310  144.6340 C   0  0  1  0  0  3  0  0  0  0  0  0
  186.9240  176.7000  145.3000 C   0  0  0  0  0  2  0  0  0  0  0  0
  189.3060  175.9650  146.8300 O   0  0  0  0  0  0  0  0  0  0  0  0
  190.3970  174.8190  144.9210 C   0  0  2  0  0  3  0  0  0  0  0  0
  188.1570  176.1570  144.5610 C   0  0  2  0  0  3  0  0  0  0  0  0
  193.9180  176.1440  142.5210 C   0  0  1  0  0  3  0  0  0  0  0  0
  194.8250  174.9830  142.8410 C   0  0  1  0  0  3  0  0  0  0  0  0
  194.5960  174.3740  141.5930 O   0  0  0  0  0  0  0  0  0  0  0  0
  193.7100  175.4020  141.2250 C   0  0  0  0  0  2  0  0  0  0  0  0
  197.0770  175.3720  141.7160 C   0  0  0  0  0  1  0  0  0  0  0  0
  196.3840  176.7870  143.6000 C   0  0  0  0  0  1  0  0  0  0  0  0
  196.3100  175.3730  143.0370 C   0  0  0  0  0  0  0  0  0  0  0  0
  196.3320  169.9120  143.4280 O   0  0  0  0  0  0  0  0  0  0  0  0
  197.5150  170.7530  145.3680 C   0  0  0  0  0  2  0  0  0  0  0  0
  196.4620  171.8440  145.1550 C   0  0  1  0  0  3  0  0  0  0  0  0
  196.7330  173.0280  146.0850 C   0  0  0  0  0  2  0  0  0  0  0  0
  197.3560  173.1630  143.4640 O   0  0  0  0  0  0  0  0  0  0  0  0
  196.3200  174.3250  145.4070 C   0  0  0  0  0  2  0  0  0  0  0  0
  197.4710  169.7290  144.2280 C   0  0  0  0  0  2  0  0  0  0  0  0
  196.5090  171.1550  142.7960 C   0  0  0  0  0  2  0  0  0  0  0  0
  196.3550  172.2770  143.7390 N   0  0  1  0  0  0  0  0  0  0  0  0
  197.0080  174.4230  144.0310 C   0  0  2  0  0  3  0  0  0  0  0  0
  187.3960  177.5120  140.6550 N   0  0  0  0  0  2  0  0  0  0  0  0
  189.0970  177.8300  142.2480 N   0  0  0  0  0  2  0  0  0  0  0  0
  188.1660  177.0020  141.5540 C   0  0  0  0  0  3  0  0  0  0  0  0
  190.2080  174.2880  143.4880 C   0  0  0  0  0  2  0  0  0  0  0  0
  190.0230  172.7860  143.5150 C   0  0  1  0  0  3  0  0  0  0  0  0
  191.1910  172.1260  142.8010 C   0  0  1  0  0  3  0  0  0  0  0  0
  191.1450  172.1610  144.3160 C   0  0  0  0  0  2  0  0  0  0  0  0
  191.7400  169.8130  142.7450 C   0  0  0  0  0  1  0  0  0  0  0  0
  190.7650  170.8100  142.3140 N   0  0  0  0  0  0  0  0  0  0  0  0
  190.5620  170.7050  140.8440 C   0  0  2  0  0  3  0  0  0  0  0  0
  191.7960  171.1490  140.0530 C   0  0  2  0  0  3  0  0  0  0  0  0
  190.5480  172.0400  140.0970 C   0  0  1  0  0  3  0  0  0  0  0  0
  191.9600  170.3520  138.7500 C   0  0  0  0  0  2  0  0  0  0  0  0
  193.1980  170.7530  137.9550 C   0  0  0  0  0  2  0  0  0  0  0  0
  193.8170  172.0300  138.4950 C   0  0  0  0  0  2  0  0  0  0  0  0
  197.2980  174.5780  138.1400 C   0  0  0  0  0  1  0  0  0  0  0  0
  195.8510  174.4640  138.2770 N   0  0  0  0  0  0  0  0  0  0  0  0
  193.0400  174.2880  137.7850 C   0  0  2  0  0  3  0  0  0  0  0  0
  193.3160  176.0300  136.1170 O   0  0  0  0  0  1  0  0  0  0  0  0
  193.8320  175.5190  137.3120 C   0  0  2  0  0  3  0  0  0  0  0  0
  196.1790  172.9650  136.3500 O   0  0  0  0  0  1  0  0  0  0  0  0
  195.2800  173.6230  137.2000 C   0  0  2  0  0  0  0  0  0  0  0  0
  195.2680  175.0680  137.0570 C   0  0  2  0  0  3  0  0  0  0  0  0
  193.8710  173.0870  137.3960 C   0  0  1  0  0  3  0  0  0  0  0  0
  191.6230  173.2710  136.0010 C   0  0  0  0  0  1  0  0  0  0  0  0
  191.6320  174.1820  137.2120 C   0  0  0  0  0  2  0  0  0  0  0  0
  189.6270  171.9320  138.8850 C   0  0  0  0  0  2  0  0  0  0  0  0
  188.1250  173.7680  138.0350 N   0  0  0  0  0  1  0  0  0  0  0  0
  188.4430  172.8230  139.0490 C   0  0  0  0  0  0  0  0  0  0  0  0
  187.7430  172.7660  140.0920 O   0  0  0  0  0  0  0  0  0  0  0  0
  1  9  1  0  0  0  0
  2 13  1  1  0  0  0
  4  6  1  0  0  0  0
  4  5  1  1  0  0  0
  7 34  1  6  0  0  0
  7  1  1  0  0  0  0
  7 11  1  0  0  0  0
  8  3  1  0  0  0  0
 10  9  1  1  0  0  0
 10  8  1  0  0  0  0
 11  2  1  0  0  0  0
 12  4  1  0  0  0  0
 13  6  1  0  0  0  0
 14  3  1  0  0  0  0
 14  2  1  0  0  0  0
 15 11  1  0  0  0  0
 15 12  1  0  0  0  0
 15  2  1  0  0  0  0
 16 17  1  0  0  0  0
 16 10  1  0  0  0  0
 17 22  1  0  0  0  0
 18 17  1  0  0  0  0
 19 18  1  0  0  0  0
 19 16  1  0  0  0  0
 20 22  1  0  0  0  0
 22 21  1  0  0  0  0
 22 32  1  0  0  0  0
 23 29  1  0  0  0  0
 25 24  1  0  0  0  0
 25 26  1  0  0  0  0
 27 31  1  0  0  0  0
 27 32  1  0  0  0  0
 28 26  1  0  0  0  0
 29 24  1  0  0  0  0
 30 23  1  0  0  0  0
 30 31  1  0  0  0  0
 31 25  1  0  0  0  0
 32 28  1  0  0  0  0
 33 35  2  0  0  0  0
 35 34  1  0  0  0  0
 36 37  1  0  0  0  0
 36 14  1  0  0  0  0
 37 39  1  0  0  0  0
 38 37  1  0  0  0  0
 38 39  1  0  0  0  0
 41 40  1  0  0  0  0
 41 38  1  0  0  0  0
 42 41  1  0  0  0  0
 43 44  1  0  0  0  0
 43 42  1  0  0  0  0
 44 42  1  0  0  0  0
 45 43  1  0  0  0  0
 46 47  1  0  0  0  0
 46 45  1  0  0  0  0
 48 49  1  0  0  0  0
 51 52  1  0  0  0  0
 52 50  1  0  0  0  0
 53 54  1  0  0  0  0
 54 56  1  0  0  0  0
 54 49  1  0  0  0  0
 55 54  1  0  0  0  0
 55 52  1  0  0  0  0
 55 49  1  0  0  0  0
 56 50  1  0  0  0  0
 56 47  1  0  0  0  0
 57 58  1  0  0  0  0
 58 50  1  0  0  0  0
 59 61  1  0  0  0  0
 59 44  1  0  0  0  0
 60 61  1  0  0  0  0
 61 62  2  0  0  0  0
M  END
>  <MODEL>
2

>  <REMARK>
 VINA RESULT:      -6.7      2.640      9.109
  Name = 
  15 active torsions:
  status: ('A' for Active; 'I' for Inactive)
    1  A    between atoms: C_4  and  C_33
    2  A    between atoms: C_7  and  C_37
    3  A    between atoms: C_8  and  N_27
    4  A    between atoms: C_13  and  N_27
    5  A    between atoms: C_18  and  C_22
    6  A    between atoms: C_22  and  C_26
    7  A    between atoms: C_25  and  C_55
    8  A    between atoms: C_26  and  C_60
    9  A    between atoms: C_28  and  C_37
   10  A    between atoms: C_30  and  N_41
   11  A    between atoms: C_33  and  C_49
   12  A    between atoms: C_34  and  C_45
   13  A    between atoms: C_47  and  C_51
   14  A    between atoms: C_51  and  C_59
   15  A    between atoms: C_60  and  C_62
                            x       y       z     vdW  Elec       q    Type
                         _______ _______ _______ _____ _____    ______ ____

>  <TORSDO>
F 15

$$$$
=
 OpenBabel11042416343D

 62 71  0  0  1  0  0  0  0  0999 V2000
  189.0530  172.9340  138.8960 C   0  0  0  0  0  2  0  0  0  0  0  0
  192.3350  171.6010  138.9150 C   0  0  2  0  0  0  0  0  0  0  0  0
  191.6560  171.6610  141.2580 O   0  0  0  0  0  0  0  0  0  0  0  0
  193.6630  170.2820  136.7430 C   0  0  2  0  0  3  0  0  0  0  0  0
  193.7990  169.5510  135.5640 O   0  0  0  0  0  1  0  0  0  0  0  0
  192.6410  169.6190  137.6400 C   0  0  0  0  0  2  0  0  0  0  0  0
  190.4430  173.3010  138.3720 C   0  0  1  0  0  3  0  0  0  0  0  0
  190.9280  172.5820  142.0430 C   0  0  0  0  0  2  0  0  0  0  0  0
  189.1180  172.3090  140.2800 C   0  0  0  0  0  2  0  0  0  0  0  0
  189.8150  173.2670  141.2550 C   0  0  1  0  0  3  0  0  0  0  0  0
  191.2290  172.0570  137.9520 C   0  0  1  0  0  3  0  0  0  0  0  0
  193.1500  171.6720  136.4260 C   0  0  0  0  0  2  0  0  0  0  0  0
  192.6770  170.2130  138.9170 O   0  0  0  0  0  0  0  0  0  0  0  0
  192.5150  172.2670  140.2970 C   0  0  2  0  0  3  0  0  0  0  0  0
  192.6940  172.4420  137.6750 C   0  0  2  0  0  3  0  0  0  0  0  0
  188.8960  174.0810  142.1740 C   0  0  1  0  0  3  0  0  0  0  0  0
  188.8640  175.5310  141.7570 C   0  0  1  0  0  3  0  0  0  0  0  0
  187.5060  175.4640  141.3930 O   0  0  0  0  0  0  0  0  0  0  0  0
  187.4550  174.1000  141.7290 C   0  0  0  0  0  2  0  0  0  0  0  0
  190.5990  176.7170  143.1950 C   0  0  0  0  0  1  0  0  0  0  0  0
  188.5490  177.8910  142.5250 C   0  0  0  0  0  1  0  0  0  0  0  0
  189.1100  176.5290  142.9140 C   0  0  0  0  0  0  0  0  0  0  0  0
  185.7390  179.1600  146.3330 O   0  0  0  0  0  0  0  0  0  0  0  0
  186.2090  177.0060  147.3390 C   0  0  0  0  0  2  0  0  0  0  0  0
  187.5350  177.3110  146.6380 C   0  0  1  0  0  3  0  0  0  0  0  0
  188.4590  176.0940  146.7030 C   0  0  0  0  0  2  0  0  0  0  0  0
  187.1510  176.7120  144.4270 O   0  0  0  0  0  0  0  0  0  0  0  0
  189.3150  176.0250  145.4470 C   0  0  0  0  0  2  0  0  0  0  0  0
  185.1570  178.0650  146.9920 C   0  0  0  0  0  2  0  0  0  0  0  0
  186.1820  178.6640  145.0950 C   0  0  0  0  0  2  0  0  0  0  0  0
  187.3560  177.7860  145.2430 N   0  0  1  0  0  0  0  0  0  0  0  0
  188.4030  176.0700  144.2050 C   0  0  2  0  0  3  0  0  0  0  0  0
  189.3380  174.9240  135.2410 N   0  0  0  0  0  2  0  0  0  0  0  0
  190.3240  174.2450  137.2660 N   0  0  0  0  0  2  0  0  0  0  0  0
  189.4160  174.0490  136.1850 C   0  0  0  0  0  3  0  0  0  0  0  0
  192.7220  173.7920  140.3260 C   0  0  0  0  0  2  0  0  0  0  0  0
  193.8950  174.1370  141.2190 C   0  0  1  0  0  3  0  0  0  0  0  0
  194.7140  175.2380  140.5650 C   0  0  1  0  0  3  0  0  0  0  0  0
  193.7560  175.5670  141.6930 C   0  0  0  0  0  2  0  0  0  0  0  0
  197.0100  175.3990  139.9660 C   0  0  0  0  0  1  0  0  0  0  0  0
  196.0880  175.1710  141.0740 N   0  0  0  0  0  0  0  0  0  0  0  0
  196.4530  173.9100  141.7730 C   0  0  2  0  0  3  0  0  0  0  0  0
  197.8240  173.9970  142.4500 C   0  0  2  0  0  3  0  0  0  0  0  0
  197.6460  173.1620  141.1750 C   0  0  1  0  0  3  0  0  0  0  0  0
  197.8790  173.1720  143.7450 C   0  0  0  0  0  2  0  0  0  0  0  0
  197.9410  174.0340  145.0020 C   0  0  0  0  0  2  0  0  0  0  0  0
  196.7270  173.8160  145.8870 C   0  0  0  0  0  2  0  0  0  0  0  0
  194.4170  177.3840  146.7040 C   0  0  0  0  0  1  0  0  0  0  0  0
  194.4580  175.9310  146.5820 N   0  0  0  0  0  0  0  0  0  0  0  0
  194.3170  173.2400  145.6280 C   0  0  2  0  0  3  0  0  0  0  0  0
  192.2600  173.8470  144.4910 O   0  0  0  0  0  1  0  0  0  0  0  0
  193.0690  174.1380  145.5940 C   0  0  2  0  0  3  0  0  0  0  0  0
  195.4890  176.5330  144.4270 O   0  0  0  0  0  1  0  0  0  0  0  0
  194.9840  175.5240  145.2590 C   0  0  2  0  0  0  0  0  0  0  0  0
  193.5480  175.5820  145.4660 C   0  0  2  0  0  3  0  0  0  0  0  0
  195.4510  174.0870  145.0970 C   0  0  1  0  0  3  0  0  0  0  0  0
  194.5920  170.7610  145.6880 C   0  0  0  0  0  1  0  0  0  0  0  0
  194.1880  171.9460  144.8330 C   0  0  0  0  0  2  0  0  0  0  0  0
  197.4660  171.6640  141.3980 C   0  0  0  0  0  2  0  0  0  0  0  0
  195.2770  170.4250  141.5630 N   0  0  0  0  0  1  0  0  0  0  0  0
  196.1880  171.1950  140.7890 C   0  0  0  0  0  0  0  0  0  0  0  0
  195.9270  171.4480  139.5840 O   0  0  0  0  0  0  0  0  0  0  0  0
  1  9  1  0  0  0  0
  2 13  1  6  0  0  0
  2 14  1  0  0  0  0
  3  8  1  0  0  0  0
  4  5  1  6  0  0  0
  4  6  1  0  0  0  0
  6 13  1  0  0  0  0
  7 34  1  6  0  0  0
  7  1  1  0  0  0  0
 10  9  1  1  0  0  0
 10  8  1  0  0  0  0
 10 16  1  0  0  0  0
 11  7  1  0  0  0  0
 11  2  1  0  0  0  0
 12  4  1  0  0  0  0
 12 15  1  0  0  0  0
 14 36  1  0  0  0  0
 14  3  1  0  0  0  0
 15 11  1  0  0  0  0
 15  2  1  0  0  0  0
 17 16  1  0  0  0  0
 17 22  1  0  0  0  0
 18 19  1  0  0  0  0
 18 17  1  0  0  0  0
 19 16  1  0  0  0  0
 21 22  1  0  0  0  0
 22 20  1  0  0  0  0
 22 32  1  0  0  0  0
 23 29  1  0  0  0  0
 25 26  1  0  0  0  0
 25 24  1  0  0  0  0
 27 31  1  0  0  0  0
 28 26  1  0  0  0  0
 29 24  1  0  0  0  0
 30 31  1  0  0  0  0
 30 23  1  0  0  0  0
 31 25  1  0  0  0  0
 32 27  1  0  0  0  0
 32 28  1  0  0  0  0
 33 35  2  0  0  0  0
 35 34  1  0  0  0  0
 36 37  1  0  0  0  0
 37 39  1  0  0  0  0
 38 41  1  0  0  0  0
 38 37  1  0  0  0  0
 38 39  1  0  0  0  0
 40 41  1  0  0  0  0
 41 42  1  0  0  0  0
 42 43  1  0  0  0  0
 43 45  1  0  0  0  0
 44 59  1  0  0  0  0
 44 42  1  0  0  0  0
 44 43  1  0  0  0  0
 45 46  1  0  0  0  0
 46 47  1  0  0  0  0
 49 48  1  0  0  0  0
 51 52  1  0  0  0  0
 52 50  1  0  0  0  0
 53 54  1  0  0  0  0
 54 55  1  0  0  0  0
 54 49  1  0  0  0  0
 55 52  1  0  0  0  0
 55 49  1  0  0  0  0
 56 54  1  0  0  0  0
 56 50  1  0  0  0  0
 56 47  1  0  0  0  0
 58 50  1  0  0  0  0
 58 57  1  0  0  0  0
 61 59  1  0  0  0  0
 61 60  1  0  0  0  0
 62 61  2  0  0  0  0
M  END
>  <MODEL>
3

>  <REMARK>
 VINA RESULT:      -6.4      1.746      2.907
  Name = 
  15 active torsions:
  status: ('A' for Active; 'I' for Inactive)
    1  A    between atoms: C_4  and  C_33
    2  A    between atoms: C_7  and  C_37
    3  A    between atoms: C_8  and  N_27
    4  A    between atoms: C_13  and  N_27
    5  A    between atoms: C_18  and  C_22
    6  A    between atoms: C_22  and  C_26
    7  A    between atoms: C_25  and  C_55
    8  A    between atoms: C_26  and  C_60
    9  A    between atoms: C_28  and  C_37
   10  A    between atoms: C_30  and  N_41
   11  A    between atoms: C_33  and  C_49
   12  A    between atoms: C_34  and  C_45
   13  A    between atoms: C_47  and  C_51
   14  A    between atoms: C_51  and  C_59
   15  A    between atoms: C_60  and  C_62
                            x       y       z     vdW  Elec       q    Type
                         _______ _______ _______ _____ _____    ______ ____

>  <TORSDO>
F 15

$$$$
=
 OpenBabel11042416343D

 62 71  0  0  1  0  0  0  0  0999 V2000
  193.6270  177.1650  144.2550 C   0  0  0  0  0  2  0  0  0  0  0  0
  191.9070  174.5540  145.9210 C   0  0  2  0  0  0  0  0  0  0  0  0
  194.2520  173.8790  145.9240 O   0  0  0  0  0  0  0  0  0  0  0  0
  189.3710  174.7430  147.2450 C   0  0  2  0  0  3  0  0  0  0  0  0
  188.3050  175.3390  147.9180 O   0  0  0  0  0  1  0  0  0  0  0  0
  190.6790  175.2060  147.8490 C   0  0  0  0  0  2  0  0  0  0  0  0
  192.4410  176.2310  144.0050 C   0  0  1  0  0  3  0  0  0  0  0  0
  195.2970  173.9660  144.9790 C   0  0  0  0  0  2  0  0  0  0  0  0
  194.7690  176.4520  144.9620 C   0  0  0  0  0  2  0  0  0  0  0  0
  195.2170  175.2370  144.1380 C   0  0  1  0  0  3  0  0  0  0  0  0
  191.6770  175.9390  145.2990 C   0  0  1  0  0  3  0  0  0  0  0  0
  189.3650  175.1770  145.7930 C   0  0  0  0  0  2  0  0  0  0  0  0
  191.7360  174.4300  147.3350 O   0  0  0  0  0  0  0  0  0  0  0  0
  192.9770  173.5930  145.3580 C   0  0  2  0  0  3  0  0  0  0  0  0
  190.6600  174.8090  145.0530 C   0  0  2  0  0  3  0  0  0  0  0  0
  196.4780  175.4270  143.2870 C   0  0  1  0  0  3  0  0  0  0  0  0
  196.1440  175.4030  141.8160 C   0  0  1  0  0  3  0  0  0  0  0  0
  196.5060  176.7520  141.6440 O   0  0  0  0  0  0  0  0  0  0  0  0
  196.8120  176.8720  143.0110 C   0  0  0  0  0  2  0  0  0  0  0  0
  197.9320  175.2120  140.0130 C   0  0  0  0  0  1  0  0  0  0  0  0
  197.9390  173.6620  141.9170 C   0  0  0  0  0  1  0  0  0  0  0  0
  197.0310  174.4490  140.9800 C   0  0  0  0  0  0  0  0  0  0  0  0
  193.1140  175.1900  137.2260 O   0  0  0  0  0  0  0  0  0  0  0  0
  193.1820  172.8150  137.7010 C   0  0  0  0  0  2  0  0  0  0  0  0
  193.5340  173.4100  139.0670 C   0  0  1  0  0  3  0  0  0  0  0  0
  193.9540  172.3010  140.0340 C   0  0  0  0  0  2  0  0  0  0  0  0
  195.7970  173.9090  138.8950 O   0  0  0  0  0  0  0  0  0  0  0  0
  195.0120  172.8240  140.9940 C   0  0  0  0  0  2  0  0  0  0  0  0
  193.0960  173.9160  136.6380 C   0  0  0  0  0  2  0  0  0  0  0  0
  194.3930  175.3270  137.7920 C   0  0  0  0  0  2  0  0  0  0  0  0
  194.5600  174.4800  138.9850 N   0  0  1  0  0  0  0  0  0  0  0  0
  196.1720  173.4430  140.1870 C   0  0  2  0  0  3  0  0  0  0  0  0
  189.8320  178.2690  142.3640 N   0  0  0  0  0  2  0  0  0  0  0  0
  191.5610  176.8030  142.9920 N   0  0  0  0  0  2  0  0  0  0  0  0
  190.5720  177.7820  143.3020 C   0  0  0  0  0  3  0  0  0  0  0  0
  192.8800  173.2230  143.8660 C   0  0  0  0  0  2  0  0  0  0  0  0
  191.5390  172.5820  143.5800 C   0  0  1  0  0  3  0  0  0  0  0  0
  191.5280  172.0670  142.1500 C   0  0  1  0  0  3  0  0  0  0  0  0
  191.7420  171.1070  143.3040 C   0  0  0  0  0  2  0  0  0  0  0  0
  190.0120  170.8670  140.7650 C   0  0  0  0  0  1  0  0  0  0  0  0
  190.1390  171.9930  141.6850 N   0  0  0  0  0  0  0  0  0  0  0  0
  189.6120  173.2250  141.0400 C   0  0  2  0  0  3  0  0  0  0  0  0
  188.1500  173.4950  141.4090 C   0  0  2  0  0  3  0  0  0  0  0  0
  188.5100  172.9910  140.0050 C   0  0  1  0  0  3  0  0  0  0  0  0
  187.8460  175.0000  141.4830 C   0  0  0  0  0  2  0  0  0  0  0  0
  187.6750  175.5060  142.9110 C   0  0  0  0  0  2  0  0  0  0  0  0
  186.2740  176.0400  143.1490 C   0  0  0  0  0  2  0  0  0  0  0  0
  185.6350  177.2490  147.2560 C   0  0  0  0  0  1  0  0  0  0  0  0
  185.2680  177.3810  145.8510 N   0  0  0  0  0  0  0  0  0  0  0  0
  185.0530  178.2110  143.1230 C   0  0  2  0  0  3  0  0  0  0  0  0
  185.1010  180.5060  143.9140 O   0  0  0  0  0  1  0  0  0  0  0  0
  184.7400  179.2000  144.2590 C   0  0  2  0  0  3  0  0  0  0  0  0
  187.7020  177.7010  145.6500 O   0  0  0  0  0  1  0  0  0  0  0  0
  186.4490  177.7170  145.0220 C   0  0  2  0  0  0  0  0  0  0  0  0
  185.5680  178.7810  145.4720 C   0  0  2  0  0  3  0  0  0  0  0  0
  186.3360  177.5180  143.5200 C   0  0  1  0  0  3  0  0  0  0  0  0
  184.4910  177.9960  140.7020 C   0  0  0  0  0  1  0  0  0  0  0  0
  185.1830  178.8500  141.7460 C   0  0  0  0  0  2  0  0  0  0  0  0
  188.5910  174.0680  138.9270 C   0  0  0  0  0  2  0  0  0  0  0  0
  189.4750  174.3850  136.5890 N   0  0  0  0  0  1  0  0  0  0  0  0
  189.2260  173.5240  137.6930 C   0  0  0  0  0  0  0  0  0  0  0  0
  189.5130  172.3020  137.6100 O   0  0  0  0  0  0  0  0  0  0  0  0
  1  9  1  0  0  0  0
  2 13  1  1  0  0  0
  4  6  1  0  0  0  0
  4  5  1  1  0  0  0
  7 34  1  6  0  0  0
  7  1  1  0  0  0  0
  7 11  1  0  0  0  0
  8  3  1  0  0  0  0
 10  9  1  1  0  0  0
 10  8  1  0  0  0  0
 11  2  1  0  0  0  0
 12  4  1  0  0  0  0
 13  6  1  0  0  0  0
 14  2  1  0  0  0  0
 14  3  1  0  0  0  0
 15 11  1  0  0  0  0
 15 12  1  0  0  0  0
 15  2  1  0  0  0  0
 16 10  1  0  0  0  0
 17 16  1  0  0  0  0
 18 17  1  0  0  0  0
 18 19  1  0  0  0  0
 19 16  1  0  0  0  0
 20 22  1  0  0  0  0
 22 17  1  0  0  0  0
 22 21  1  0  0  0  0
 23 30  1  0  0  0  0
 24 25  1  0  0  0  0
 25 26  1  0  0  0  0
 26 28  1  0  0  0  0
 27 31  1  0  0  0  0
 27 32  1  0  0  0  0
 29 23  1  0  0  0  0
 29 24  1  0  0  0  0
 30 31  1  0  0  0  0
 31 25  1  0  0  0  0
 32 22  1  0  0  0  0
 32 28  1  0  0  0  0
 33 35  2  0  0  0  0
 34 35  1  0  0  0  0
 36 14  1  0  0  0  0
 37 36  1  0  0  0  0
 38 39  1  0  0  0  0
 38 37  1  0  0  0  0
 39 37  1  0  0  0  0
 40 41  1  0  0  0  0
 41 38  1  0  0  0  0
 42 43  1  0  0  0  0
 42 41  1  0  0  0  0
 43 45  1  0  0  0  0
 44 42  1  0  0  0  0
 44 43  1  0  0  0  0
 45 46  1  0  0  0  0
 46 47  1  0  0  0  0
 47 56  1  0  0  0  0
 49 48  1  0  0  0  0
 50 56  1  0  0  0  0
 50 52  1  0  0  0  0
 51 52  1  0  0  0  0
 52 55  1  0  0  0  0
 54 55  1  0  0  0  0
 54 53  1  0  0  0  0
 54 49  1  0  0  0  0
 55 49  1  0  0  0  0
 56 54  1  0  0  0  0
 57 58  1  0  0  0  0
 58 50  1  0  0  0  0
 59 44  1  0  0  0  0
 60 61  1  0  0  0  0
 61 59  1  0  0  0  0
 62 61  2  0  0  0  0
M  END
>  <MODEL>
4

>  <REMARK>
 VINA RESULT:      -6.4      2.415      8.829
  Name = 
  15 active torsions:
  status: ('A' for Active; 'I' for Inactive)
    1  A    between atoms: C_4  and  C_33
    2  A    between atoms: C_7  and  C_37
    3  A    between atoms: C_8  and  N_27
    4  A    between atoms: C_13  and  N_27
    5  A    between atoms: C_18  and  C_22
    6  A    between atoms: C_22  and  C_26
    7  A    between atoms: C_25  and  C_55
    8  A    between atoms: C_26  and  C_60
    9  A    between atoms: C_28  and  C_37
   10  A    between atoms: C_30  and  N_41
   11  A    between atoms: C_33  and  C_49
   12  A    between atoms: C_34  and  C_45
   13  A    between atoms: C_47  and  C_51
   14  A    between atoms: C_51  and  C_59
   15  A    between atoms: C_60  and  C_62
                            x       y       z     vdW  Elec       q    Type
                         _______ _______ _______ _____ _____    ______ ____

>  <TORSDO>
F 15

$$$$
=
 OpenBabel11042416343D

 62 71  0  0  1  0  0  0  0  0999 V2000
  188.6780  173.2070  139.6210 C   0  0  0  0  0  2  0  0  0  0  0  0
  191.7800  171.5350  139.9860 C   0  0  2  0  0  0  0  0  0  0  0  0
  191.0990  172.1220  142.2540 O   0  0  0  0  0  0  0  0  0  0  0  0
  192.9540  169.6780  138.1440 C   0  0  2  0  0  3  0  0  0  0  0  0
  193.0090  168.7230  137.1290 O   0  0  0  0  0  1  0  0  0  0  0  0
  191.8560  169.3220  139.1210 C   0  0  0  0  0  2  0  0  0  0  0  0
  190.1040  173.3040  139.0760 C   0  0  1  0  0  3  0  0  0  0  0  0
  190.4810  173.2540  142.8290 C   0  0  0  0  0  2  0  0  0  0  0  0
  188.6610  172.8570  141.1000 C   0  0  0  0  0  2  0  0  0  0  0  0
  189.4610  173.8990  141.8940 C   0  0  1  0  0  3  0  0  0  0  0  0
  190.7400  171.9210  138.9230 C   0  0  1  0  0  3  0  0  0  0  0  0
  192.6110  171.0310  137.5530 C   0  0  0  0  0  2  0  0  0  0  0  0
  191.9550  170.1430  140.2610 O   0  0  0  0  0  0  0  0  0  0  0  0
  192.0290  172.4290  141.2200 C   0  0  2  0  0  3  0  0  0  0  0  0
  192.2420  172.0740  138.6190 C   0  0  2  0  0  3  0  0  0  0  0  0
  188.6400  174.9750  142.6140 C   0  0  1  0  0  3  0  0  0  0  0  0
  189.4480  176.2340  142.8030 C   0  0  1  0  0  3  0  0  0  0  0  0
  188.6180  176.9750  141.9410 O   0  0  0  0  0  0  0  0  0  0  0  0
  187.8270  175.8410  141.6850 C   0  0  0  0  0  2  0  0  0  0  0  0
  190.6380  176.3060  145.0530 C   0  0  0  0  0  1  0  0  0  0  0  0
  189.5010  178.3090  144.2000 C   0  0  0  0  0  1  0  0  0  0  0  0
  189.4330  176.7870  144.2480 C   0  0  0  0  0  0  0  0  0  0  0  0
  184.9430  179.6580  145.5030 O   0  0  0  0  0  0  0  0  0  0  0  0
  184.7030  177.4920  146.5640 C   0  0  0  0  0  2  0  0  0  0  0  0
  186.2170  177.7090  146.6500 C   0  0  1  0  0  3  0  0  0  0  0  0
  186.9040  176.4400  147.1560 C   0  0  0  0  0  2  0  0  0  0  0  0
  186.9900  177.1060  144.5430 O   0  0  0  0  0  0  0  0  0  0  0  0
  188.2780  176.3040  146.5160 C   0  0  0  0  0  2  0  0  0  0  0  0
  184.0420  178.6080  145.7470 C   0  0  0  0  0  2  0  0  0  0  0  0
  185.9290  179.1210  144.6580 C   0  0  0  0  0  2  0  0  0  0  0  0
  186.8080  178.1760  145.3700 N   0  0  1  0  0  0  0  0  0  0  0  0
  188.1380  176.3870  144.9830 C   0  0  2  0  0  3  0  0  0  0  0  0
  189.1970  174.4340  135.6760 N   0  0  0  0  0  2  0  0  0  0  0  0
  190.1040  174.0260  137.8070 N   0  0  0  0  0  2  0  0  0  0  0  0
  189.1630  173.7540  136.7720 C   0  0  0  0  0  3  0  0  0  0  0  0
  192.4150  173.8970  140.9640 C   0  0  0  0  0  2  0  0  0  0  0  0
  193.6320  174.2620  141.7860 C   0  0  1  0  0  3  0  0  0  0  0  0
  194.5110  175.2080  140.9850 C   0  0  1  0  0  3  0  0  0  0  0  0
  193.6090  175.7460  142.0780 C   0  0  0  0  0  2  0  0  0  0  0  0
  196.7340  176.0040  140.6980 C   0  0  0  0  0  1  0  0  0  0  0  0
  195.8890  175.1030  141.4760 N   0  0  0  0  0  0  0  0  0  0  0  0
  196.4740  173.7350  141.4590 C   0  0  2  0  0  3  0  0  0  0  0  0
  197.7680  173.6470  142.2740 C   0  0  2  0  0  3  0  0  0  0  0  0
  197.8190  173.6170  140.7400 C   0  0  1  0  0  3  0  0  0  0  0  0
  197.9350  172.2720  142.9390 C   0  0  0  0  0  2  0  0  0  0  0  0
  197.6940  172.3030  144.4450 C   0  0  0  0  0  2  0  0  0  0  0  0
  197.1500  173.6480  144.8940 C   0  0  0  0  0  2  0  0  0  0  0  0
  194.3930  170.5100  143.7610 C   0  0  0  0  0  1  0  0  0  0  0  0
  194.6200  171.9230  144.0420 N   0  0  0  0  0  0  0  0  0  0  0  0
  194.8380  174.4850  145.2910 C   0  0  2  0  0  3  0  0  0  0  0  0
  192.7390  174.0130  146.4180 O   0  0  0  0  0  1  0  0  0  0  0  0
  193.4860  173.7510  145.2650 C   0  0  2  0  0  3  0  0  0  0  0  0
  195.6030  170.9570  146.0830 O   0  0  0  0  0  1  0  0  0  0  0  0
  195.2160  172.1090  145.3850 C   0  0  2  0  0  0  0  0  0  0  0  0
  193.7810  172.2530  145.2170 C   0  0  2  0  0  3  0  0  0  0  0  0
  195.8640  173.4490  145.6890 C   0  0  1  0  0  3  0  0  0  0  0  0
  194.5890  176.9610  145.4640 C   0  0  0  0  0  1  0  0  0  0  0  0
  194.8870  175.6860  146.2270 C   0  0  0  0  0  2  0  0  0  0  0  0
  197.9400  172.2280  140.1200 C   0  0  0  0  0  2  0  0  0  0  0  0
  197.4830  173.0010  137.7650 N   0  0  0  0  0  1  0  0  0  0  0  0
  197.1520  172.1510  138.8560 C   0  0  0  0  0  0  0  0  0  0  0  0
  196.1760  171.3630  138.7620 O   0  0  0  0  0  0  0  0  0  0  0  0
  1  9  1  0  0  0  0
  2 13  1  1  0  0  0
  2 14  1  0  0  0  0
  3  8  1  0  0  0  0
  4  5  1  6  0  0  0
  4  6  1  0  0  0  0
  6 13  1  0  0  0  0
  7 34  1  6  0  0  0
  7  1  1  0  0  0  0
 10  9  1  1  0  0  0
 10 16  1  0  0  0  0
 10  8  1  0  0  0  0
 11  7  1  0  0  0  0
 11  2  1  0  0  0  0
 12  4  1  0  0  0  0
 12 15  1  0  0  0  0
 14  3  1  0  0  0  0
 15 11  1  0  0  0  0
 15  2  1  0  0  0  0
 16 17  1  0  0  0  0
 17 22  1  0  0  0  0
 18 17  1  0  0  0  0
 19 18  1  0  0  0  0
 19 16  1  0  0  0  0
 21 22  1  0  0  0  0
 22 32  1  0  0  0  0
 22 20  1  0  0  0  0
 23 29  1  0  0  0  0
 24 25  1  0  0  0  0
 25 26  1  0  0  0  0
 27 32  1  0  0  0  0
 27 31  1  0  0  0  0
 28 26  1  0  0  0  0
 29 24  1  0  0  0  0
 30 31  1  0  0  0  0
 30 23  1  0  0  0  0
 31 25  1  0  0  0  0
 32 28  1  0  0  0  0
 33 35  2  0  0  0  0
 35 34  1  0  0  0  0
 36 14  1  0  0  0  0
 36 37  1  0  0  0  0
 37 39  1  0  0  0  0
 38 41  1  0  0  0  0
 38 37  1  0  0  0  0
 38 39  1  0  0  0  0
 40 41  1  0  0  0  0
 42 41  1  0  0  0  0
 42 43  1  0  0  0  0
 43 45  1  0  0  0  0
 44 42  1  0  0  0  0
 44 43  1  0  0  0  0
 45 46  1  0  0  0  0
 46 47  1  0  0  0  0
 47 56  1  0  0  0  0
 48 49  1  0  0  0  0
 49 55  1  0  0  0  0
 49 54  1  0  0  0  0
 50 56  1  0  0  0  0
 50 58  1  0  0  0  0
 52 50  1  0  0  0  0
 52 51  1  0  0  0  0
 54 56  1  0  0  0  0
 54 53  1  0  0  0  0
 55 52  1  0  0  0  0
 55 54  1  0  0  0  0
 57 58  1  0  0  0  0
 59 44  1  0  0  0  0
 60 61  1  0  0  0  0
 61 59  1  0  0  0  0
 62 61  2  0  0  0  0
M  END
>  <MODEL>
5

>  <REMARK>
 VINA RESULT:      -6.3      2.005      3.309
  Name = 
  15 active torsions:
  status: ('A' for Active; 'I' for Inactive)
    1  A    between atoms: C_4  and  C_33
    2  A    between atoms: C_7  and  C_37
    3  A    between atoms: C_8  and  N_27
    4  A    between atoms: C_13  and  N_27
    5  A    between atoms: C_18  and  C_22
    6  A    between atoms: C_22  and  C_26
    7  A    between atoms: C_25  and  C_55
    8  A    between atoms: C_26  and  C_60
    9  A    between atoms: C_28  and  C_37
   10  A    between atoms: C_30  and  N_41
   11  A    between atoms: C_33  and  C_49
   12  A    between atoms: C_34  and  C_45
   13  A    between atoms: C_47  and  C_51
   14  A    between atoms: C_51  and  C_59
   15  A    between atoms: C_60  and  C_62
                            x       y       z     vdW  Elec       q    Type
                         _______ _______ _______ _____ _____    ______ ____

>  <TORSDO>
F 15

$$$$
=
 OpenBabel11042416343D

 62 71  0  0  1  0  0  0  0  0999 V2000
  190.1260  173.8040  139.2340 C   0  0  0  0  0  2  0  0  0  0  0  0
  191.4190  170.5230  138.9000 C   0  0  2  0  0  0  0  0  0  0  0  0
  190.5910  170.6530  141.1920 O   0  0  0  0  0  0  0  0  0  0  0  0
  191.7670  169.0580  136.4600 C   0  0  2  0  0  3  0  0  0  0  0  0
  191.5460  168.6790  135.1360 O   0  0  0  0  0  1  0  0  0  0  0  0
  190.4430  169.2100  137.1760 C   0  0  0  0  0  2  0  0  0  0  0  0
  191.4270  173.1220  138.8050 C   0  0  1  0  0  3  0  0  0  0  0  0
  190.6110  171.6570  142.1840 C   0  0  0  0  0  2  0  0  0  0  0  0
  189.4870  173.1040  140.4230 C   0  0  0  0  0  2  0  0  0  0  0  0
  190.4730  173.0600  141.5970 C   0  0  1  0  0  3  0  0  0  0  0  0
  191.1540  171.7990  138.0870 C   0  0  1  0  0  3  0  0  0  0  0  0
  192.4580  170.4060  136.4980 C   0  0  0  0  0  2  0  0  0  0  0  0
  190.6680  169.3560  138.5580 O   0  0  0  0  0  0  0  0  0  0  0  0
  191.7740  170.5920  140.4010 C   0  0  2  0  0  3  0  0  0  0  0  0
  192.4750  171.0320  137.9010 C   0  0  2  0  0  3  0  0  0  0  0  0
  190.2640  174.1100  142.6950 C   0  0  1  0  0  3  0  0  0  0  0  0
  188.8000  174.2650  143.0200 C   0  0  1  0  0  3  0  0  0  0  0  0
  188.9670  173.7560  144.3210 O   0  0  0  0  0  0  0  0  0  0  0  0
  190.3390  173.5480  144.0930 C   0  0  0  0  0  2  0  0  0  0  0  0
  189.4480  176.7200  142.8220 C   0  0  0  0  0  1  0  0  0  0  0  0
  187.3250  175.9310  141.8750 C   0  0  0  0  0  1  0  0  0  0  0  0
  188.3030  175.7310  143.0260 C   0  0  0  0  0  0  0  0  0  0  0  0
  184.6180  179.5920  144.2450 O   0  0  0  0  0  0  0  0  0  0  0  0
  185.1830  178.4880  146.3260 C   0  0  0  0  0  2  0  0  0  0  0  0
  186.5160  178.4260  145.5760 C   0  0  1  0  0  3  0  0  0  0  0  0
  187.5140  177.5590  146.3440 C   0  0  0  0  0  2  0  0  0  0  0  0
  186.2710  176.6120  144.1450 O   0  0  0  0  0  0  0  0  0  0  0  0
  188.4280  176.8330  145.3680 C   0  0  0  0  0  2  0  0  0  0  0  0
  184.0800  179.0520  145.4240 C   0  0  0  0  0  2  0  0  0  0  0  0
  185.1470  178.5000  143.5360 C   0  0  0  0  0  2  0  0  0  0  0  0
  186.3680  177.9730  144.1700 N   0  0  1  0  0  0  0  0  0  0  0  0
  187.5710  176.0650  144.3420 C   0  0  2  0  0  3  0  0  0  0  0  0
  192.4400  175.3500  136.0360 N   0  0  0  0  0  2  0  0  0  0  0  0
  192.2070  174.0250  137.9650 N   0  0  0  0  0  2  0  0  0  0  0  0
  191.7150  174.5410  136.7310 C   0  0  0  0  0  3  0  0  0  0  0  0
  192.9930  171.4440  140.8010 C   0  0  0  0  0  2  0  0  0  0  0  0
  194.1370  170.5440  141.2160 C   0  0  1  0  0  3  0  0  0  0  0  0
  193.9970  170.2070  142.6920 C   0  0  1  0  0  3  0  0  0  0  0  0
  193.5850  169.1990  141.6370 C   0  0  0  0  0  2  0  0  0  0  0  0
  195.4140  168.4140  143.3490 C   0  0  0  0  0  1  0  0  0  0  0  0
  195.3190  169.8650  143.2270 N   0  0  0  0  0  0  0  0  0  0  0  0
  195.6690  170.4980  144.5260 C   0  0  2  0  0  3  0  0  0  0  0  0
  197.0900  171.0700  144.5290 C   0  0  2  0  0  3  0  0  0  0  0  0
  196.7740  169.7890  145.3120 C   0  0  1  0  0  3  0  0  0  0  0  0
  197.1990  172.3330  145.3970 C   0  0  0  0  0  2  0  0  0  0  0  0
  196.6120  173.5720  144.7280 C   0  0  0  0  0  2  0  0  0  0  0  0
  196.0210  174.5280  145.7490 C   0  0  0  0  0  2  0  0  0  0  0  0
  192.0340  175.5240  147.1060 C   0  0  0  0  0  1  0  0  0  0  0  0
  192.9100  175.1250  146.0110 N   0  0  0  0  0  0  0  0  0  0  0  0
  194.6540  175.0970  143.7450 C   0  0  2  0  0  3  0  0  0  0  0  0
  193.2360  176.7960  142.7470 O   0  0  0  0  0  1  0  0  0  0  0  0
  193.2490  175.7120  143.6310 C   0  0  2  0  0  3  0  0  0  0  0  0
  194.1750  177.0720  146.8330 O   0  0  0  0  0  1  0  0  0  0  0  0
  194.0340  176.0760  145.8570 C   0  0  2  0  0  0  0  0  0  0  0  0
  192.8590  176.2220  145.0170 C   0  0  2  0  0  3  0  0  0  0  0  0
  195.2330  175.6240  145.0390 C   0  0  1  0  0  3  0  0  0  0  0  0
  196.4160  176.6300  142.8700 C   0  0  0  0  0  1  0  0  0  0  0  0
  195.5760  175.4030  142.5730 C   0  0  0  0  0  2  0  0  0  0  0  0
  196.5340  169.9820  146.8060 C   0  0  0  0  0  2  0  0  0  0  0  0
  194.6430  168.3160  146.8380 N   0  0  0  0  0  1  0  0  0  0  0  0
  195.8700  168.7800  147.3880 C   0  0  0  0  0  0  0  0  0  0  0  0
  196.3720  168.1940  148.3810 O   0  0  0  0  0  0  0  0  0  0  0  0
  1  9  1  0  0  0  0
  2 13  1  6  0  0  0
  2 14  1  0  0  0  0
  3  8  1  0  0  0  0
  4  5  1  6  0  0  0
  4 12  1  0  0  0  0
  4  6  1  0  0  0  0
  6 13  1  0  0  0  0
  7 34  1  6  0  0  0
  7  1  1  0  0  0  0
 10  9  1  6  0  0  0
 10  8  1  0  0  0  0
 10 16  1  0  0  0  0
 11  7  1  0  0  0  0
 11  2  1  0  0  0  0
 12 15  1  0  0  0  0
 14 36  1  0  0  0  0
 14  3  1  0  0  0  0
 15 11  1  0  0  0  0
 15  2  1  0  0  0  0
 16 17  1  0  0  0  0
 16 19  1  0  0  0  0
 17 22  1  0  0  0  0
 17 18  1  0  0  0  0
 19 18  1  0  0  0  0
 20 22  1  0  0  0  0
 21 22  1  0  0  0  0
 22 32  1  0  0  0  0
 23 29  1  0  0  0  0
 25 24  1  0  0  0  0
 25 26  1  0  0  0  0
 27 31  1  0  0  0  0
 27 32  1  0  0  0  0
 28 26  1  0  0  0  0
 29 24  1  0  0  0  0
 30 31  1  0  0  0  0
 30 23  1  0  0  0  0
 31 25  1  0  0  0  0
 32 28  1  0  0  0  0
 33 35  2  0  0  0  0
 35 34  1  0  0  0  0
 36 37  1  0  0  0  0
 37 39  1  0  0  0  0
 37 38  1  0  0  0  0
 38 41  1  0  0  0  0
 39 38  1  0  0  0  0
 41 40  1  0  0  0  0
 41 42  1  0  0  0  0
 42 43  1  0  0  0  0
 42 44  1  0  0  0  0
 43 44  1  0  0  0  0
 43 45  1  0  0  0  0
 44 59  1  0  0  0  0
 46 45  1  0  0  0  0
 46 47  1  0  0  0  0
 49 48  1  0  0  0  0
 50 56  1  0  0  0  0
 51 52  1  0  0  0  0
 52 50  1  0  0  0  0
 52 55  1  0  0  0  0
 54 49  1  0  0  0  0
 54 53  1  0  0  0  0
 55 54  1  0  0  0  0
 55 49  1  0  0  0  0
 56 47  1  0  0  0  0
 56 54  1  0  0  0  0
 58 57  1  0  0  0  0
 58 50  1  0  0  0  0
 59 61  1  0  0  0  0
 60 61  1  0  0  0  0
 61 62  2  0  0  0  0
M  END
>  <MODEL>
6

>  <REMARK>
 VINA RESULT:      -6.2      1.743      2.534
  Name = 
  15 active torsions:
  status: ('A' for Active; 'I' for Inactive)
    1  A    between atoms: C_4  and  C_33
    2  A    between atoms: C_7  and  C_37
    3  A    between atoms: C_8  and  N_27
    4  A    between atoms: C_13  and  N_27
    5  A    between atoms: C_18  and  C_22
    6  A    between atoms: C_22  and  C_26
    7  A    between atoms: C_25  and  C_55
    8  A    between atoms: C_26  and  C_60
    9  A    between atoms: C_28  and  C_37
   10  A    between atoms: C_30  and  N_41
   11  A    between atoms: C_33  and  C_49
   12  A    between atoms: C_34  and  C_45
   13  A    between atoms: C_47  and  C_51
   14  A    between atoms: C_51  and  C_59
   15  A    between atoms: C_60  and  C_62
                            x       y       z     vdW  Elec       q    Type
                         _______ _______ _______ _____ _____    ______ ____

>  <TORSDO>
F 15

$$$$
=
 OpenBabel11042416343D

 62 71  0  0  1  0  0  0  0  0999 V2000
  197.8490  173.1760  141.2410 C   0  0  0  0  0  2  0  0  0  0  0  0
  195.4580  171.2380  142.9950 C   0  0  2  0  0  0  0  0  0  0  0  0
  195.0070  170.8250  140.6320 O   0  0  0  0  0  0  0  0  0  0  0  0
  195.6680  170.2850  145.6900 C   0  0  2  0  0  3  0  0  0  0  0  0
  196.2840  169.8750  146.8730 O   0  0  0  0  0  1  0  0  0  0  0  0
  196.3520  169.6370  144.5070 C   0  0  0  0  0  2  0  0  0  0  0  0
  196.7830  173.3730  142.3200 C   0  0  1  0  0  3  0  0  0  0  0  0
  195.0070  171.6390  139.4790 C   0  0  0  0  0  2  0  0  0  0  0  0
  197.3870  172.2130  140.1590 C   0  0  0  0  0  2  0  0  0  0  0  0
  196.0840  172.7200  139.5280 C   0  0  1  0  0  3  0  0  0  0  0  0
  196.6750  172.1470  143.2290 C   0  0  1  0  0  3  0  0  0  0  0  0
  195.8180  171.7850  145.5320 C   0  0  0  0  0  2  0  0  0  0  0  0
  195.5900  169.8580  143.3430 O   0  0  0  0  0  0  0  0  0  0  0  0
  194.5080  171.4700  141.8000 C   0  0  2  0  0  3  0  0  0  0  0  0
  195.4330  172.2800  144.1290 C   0  0  2  0  0  3  0  0  0  0  0  0
  196.2200  173.4380  138.1800 C   0  0  1  0  0  3  0  0  0  0  0  0
  194.8770  173.5880  137.5100 C   0  0  1  0  0  3  0  0  0  0  0  0
  194.9030  174.9900  137.6240 O   0  0  0  0  0  0  0  0  0  0  0  0
  196.1440  174.9410  138.2830 C   0  0  0  0  0  2  0  0  0  0  0  0
  194.9010  174.2980  135.0650 C   0  0  0  0  0  1  0  0  0  0  0  0
  196.0730  172.2560  135.7620 C   0  0  0  0  0  1  0  0  0  0  0  0
  194.8490  173.1210  136.0360 C   0  0  0  0  0  0  0  0  0  0  0  0
  189.8310  173.2120  138.2260 O   0  0  0  0  0  0  0  0  0  0  0  0
  189.8990  171.3130  136.7210 C   0  0  0  0  0  2  0  0  0  0  0  0
  191.3370  171.3390  137.2460 C   0  0  1  0  0  3  0  0  0  0  0  0
  192.1980  170.3360  136.4760 C   0  0  0  0  0  2  0  0  0  0  0  0
  192.3720  172.9790  135.9640 O   0  0  0  0  0  0  0  0  0  0  0  0
  193.6210  170.8610  136.3530 C   0  0  0  0  0  2  0  0  0  0  0  0
  189.1170  172.5300  137.2280 C   0  0  0  0  0  2  0  0  0  0  0  0
  190.9620  173.7450  137.5850 C   0  0  0  0  0  2  0  0  0  0  0  0
  191.9360  172.6980  137.2270 N   0  0  1  0  0  0  0  0  0  0  0  0
  193.5910  172.2770  135.7430 C   0  0  2  0  0  3  0  0  0  0  0  0
  196.7520  176.8650  143.5280 N   0  0  0  0  0  2  0  0  0  0  0  0
  197.0730  174.5760  143.0930 N   0  0  0  0  0  2  0  0  0  0  0  0
  196.4740  175.8360  142.8020 C   0  0  0  0  0  3  0  0  0  0  0  0
  193.8550  172.8580  141.6740 C   0  0  0  0  0  2  0  0  0  0  0  0
  192.4110  172.7920  142.1240 C   0  0  1  0  0  3  0  0  0  0  0  0
  191.9270  174.1940  142.4550 C   0  0  1  0  0  3  0  0  0  0  0  0
  191.5470  173.5480  141.1370 C   0  0  0  0  0  2  0  0  0  0  0  0
  189.6210  174.6750  142.7860 C   0  0  0  0  0  1  0  0  0  0  0  0
  190.8120  174.0980  143.4030 N   0  0  0  0  0  0  0  0  0  0  0  0
  191.0410  174.7300  144.7290 C   0  0  2  0  0  3  0  0  0  0  0  0
  190.8710  176.2520  144.6850 C   0  0  2  0  0  3  0  0  0  0  0  0
  192.2710  175.6360  144.8090 C   0  0  1  0  0  3  0  0  0  0  0  0
  190.3040  176.8040  146.0020 C   0  0  0  0  0  2  0  0  0  0  0  0
  188.8880  177.3540  145.8600 C   0  0  0  0  0  2  0  0  0  0  0  0
  187.9790  176.3710  145.1420 C   0  0  0  0  0  2  0  0  0  0  0  0
  187.4290  177.8440  141.1100 C   0  0  0  0  0  1  0  0  0  0  0  0
  187.4190  178.1130  142.5430 N   0  0  0  0  0  0  0  0  0  0  0  0
  186.6570  178.4780  145.2740 C   0  0  2  0  0  3  0  0  0  0  0  0
  184.6600  179.6020  144.4720 O   0  0  0  0  0  1  0  0  0  0  0  0
  185.9960  179.3180  144.1690 C   0  0  2  0  0  3  0  0  0  0  0  0
  185.9650  176.1250  142.5090 O   0  0  0  0  0  1  0  0  0  0  0  0
  186.5180  177.1760  143.2530 C   0  0  2  0  0  0  0  0  0  0  0  0
  186.0280  178.4920  142.8850 C   0  0  2  0  0  3  0  0  0  0  0  0
  186.6720  177.0560  144.7600 C   0  0  1  0  0  3  0  0  0  0  0  0
  185.0810  177.3450  146.8420 C   0  0  0  0  0  1  0  0  0  0  0  0
  185.9650  178.5580  146.6300 C   0  0  0  0  0  2  0  0  0  0  0  0
  192.8400  175.5920  146.2240 C   0  0  0  0  0  2  0  0  0  0  0  0
  194.4710  177.5070  146.3820 N   0  0  0  0  0  1  0  0  0  0  0  0
  194.2380  176.1120  146.2400 C   0  0  0  0  0  0  0  0  0  0  0  0
  195.2110  175.3270  146.0950 O   0  0  0  0  0  0  0  0  0  0  0  0
  1  7  1  0  0  0  0
  2 11  1  0  0  0  0
  2 13  1  1  0  0  0
  2 15  1  0  0  0  0
  3 14  1  0  0  0  0
  4  5  1  1  0  0  0
  6  4  1  0  0  0  0
  7 34  1  1  0  0  0
  7 11  1  0  0  0  0
  8  3  1  0  0  0  0
  9  1  1  0  0  0  0
 10  8  1  6  0  0  0
 10  9  1  0  0  0  0
 11 15  1  0  0  0  0
 12  4  1  0  0  0  0
 13  6  1  0  0  0  0
 14  2  1  0  0  0  0
 15 12  1  0  0  0  0
 16 19  1  0  0  0  0
 16 10  1  0  0  0  0
 17 18  1  0  0  0  0
 17 16  1  0  0  0  0
 18 19  1  0  0  0  0
 20 22  1  0  0  0  0
 21 22  1  0  0  0  0
 22 17  1  0  0  0  0
 24 29  1  0  0  0  0
 24 25  1  0  0  0  0
 26 25  1  0  0  0  0
 27 31  1  0  0  0  0
 28 26  1  0  0  0  0
 29 23  1  0  0  0  0
 30 23  1  0  0  0  0
 31 25  1  0  0  0  0
 31 30  1  0  0  0  0
 32 27  1  0  0  0  0
 32 22  1  0  0  0  0
 32 28  1  0  0  0  0
 35 34  1  0  0  0  0
 35 33  2  0  0  0  0
 36 14  1  0  0  0  0
 36 37  1  0  0  0  0
 37 38  1  0  0  0  0
 38 41  1  0  0  0  0
 39 37  1  0  0  0  0
 39 38  1  0  0  0  0
 40 41  1  0  0  0  0
 41 42  1  0  0  0  0
 42 44  1  0  0  0  0
 43 42  1  0  0  0  0
 43 44  1  0  0  0  0
 43 45  1  0  0  0  0
 44 59  1  0  0  0  0
 46 45  1  0  0  0  0
 47 46  1  0  0  0  0
 48 49  1  0  0  0  0
 49 55  1  0  0  0  0
 49 54  1  0  0  0  0
 50 58  1  0  0  0  0
 52 51  1  0  0  0  0
 52 50  1  0  0  0  0
 53 54  1  0  0  0  0
 54 56  1  0  0  0  0
 55 54  1  0  0  0  0
 55 52  1  0  0  0  0
 56 47  1  0  0  0  0
 56 50  1  0  0  0  0
 58 57  1  0  0  0  0
 59 61  1  0  0  0  0
 61 60  1  0  0  0  0
 62 61  2  0  0  0  0
M  END
>  <MODEL>
7

>  <REMARK>
 VINA RESULT:      -6.2      2.561      8.271
  Name = 
  15 active torsions:
  status: ('A' for Active; 'I' for Inactive)
    1  A    between atoms: C_4  and  C_33
    2  A    between atoms: C_7  and  C_37
    3  A    between atoms: C_8  and  N_27
    4  A    between atoms: C_13  and  N_27
    5  A    between atoms: C_18  and  C_22
    6  A    between atoms: C_22  and  C_26
    7  A    between atoms: C_25  and  C_55
    8  A    between atoms: C_26  and  C_60
    9  A    between atoms: C_28  and  C_37
   10  A    between atoms: C_30  and  N_41
   11  A    between atoms: C_33  and  C_49
   12  A    between atoms: C_34  and  C_45
   13  A    between atoms: C_47  and  C_51
   14  A    between atoms: C_51  and  C_59
   15  A    between atoms: C_60  and  C_62
                            x       y       z     vdW  Elec       q    Type
                         _______ _______ _______ _____ _____    ______ ____

>  <TORSDO>
F 15

$$$$
=
 OpenBabel11042416343D

 62 71  0  0  1  0  0  0  0  0999 V2000
  193.2720  174.9130  146.0100 C   0  0  0  0  0  2  0  0  0  0  0  0
  193.4030  175.5540  142.5290 C   0  0  2  0  0  0  0  0  0  0  0  0
  191.7600  177.1300  143.4080 O   0  0  0  0  0  0  0  0  0  0  0  0
  195.5750  174.9550  140.7560 C   0  0  2  0  0  3  0  0  0  0  0  0
  196.8880  174.7060  140.3580 O   0  0  0  0  0  1  0  0  0  0  0  0
  195.5400  176.1530  141.6800 C   0  0  0  0  0  2  0  0  0  0  0  0
  193.1370  174.1410  144.6970 C   0  0  1  0  0  3  0  0  0  0  0  0
  190.7470  177.0440  144.3880 C   0  0  0  0  0  2  0  0  0  0  0  0
  192.6190  176.2840  145.9300 C   0  0  0  0  0  2  0  0  0  0  0  0
  191.1390  176.1380  145.5520 C   0  0  1  0  0  3  0  0  0  0  0  0
  194.0680  174.7020  143.6200 C   0  0  1  0  0  3  0  0  0  0  0  0
  195.0430  173.7690  141.5350 C   0  0  0  0  0  2  0  0  0  0  0  0
  194.2050  176.5490  141.8890 O   0  0  0  0  0  0  0  0  0  0  0  0
  191.9140  175.9510  142.6240 C   0  0  2  0  0  3  0  0  0  0  0  0
  193.7220  174.0720  142.2590 C   0  0  2  0  0  3  0  0  0  0  0  0
  190.1340  176.2400  146.7060 C   0  0  1  0  0  3  0  0  0  0  0  0
  188.7870  175.7000  146.2970 C   0  0  1  0  0  3  0  0  0  0  0  0
  188.8670  174.6280  147.2050 O   0  0  0  0  0  0  0  0  0  0  0  0
  190.1430  175.0440  147.6250 C   0  0  0  0  0  2  0  0  0  0  0  0
  186.9360  176.3000  147.9400 C   0  0  0  0  0  1  0  0  0  0  0  0
  188.1200  178.0740  146.7230 C   0  0  0  0  0  1  0  0  0  0  0  0
  187.6030  176.6450  146.6100 C   0  0  0  0  0  0  0  0  0  0  0  0
  187.7680  178.3570  141.4120 O   0  0  0  0  0  0  0  0  0  0  0  0
  185.4910  177.6480  141.8390 C   0  0  0  0  0  2  0  0  0  0  0  0
  185.8960  178.2100  143.2040 C   0  0  1  0  0  3  0  0  0  0  0  0
  184.8150  177.9070  144.2420 C   0  0  0  0  0  2  0  0  0  0  0  0
  187.1060  176.4850  144.1840 O   0  0  0  0  0  0  0  0  0  0  0  0
  185.4520  177.6850  145.6060 C   0  0  0  0  0  2  0  0  0  0  0  0
  186.6880  177.6330  140.8820 C   0  0  0  0  0  2  0  0  0  0  0  0
  188.1920  177.6340  142.5400 C   0  0  0  0  0  2  0  0  0  0  0  0
  187.2300  177.7360  143.6520 N   0  0  1  0  0  0  0  0  0  0  0  0
  186.5460  176.6050  145.4870 C   0  0  2  0  0  3  0  0  0  0  0  0
  194.6380  170.9930  145.9170 N   0  0  0  0  0  2  0  0  0  0  0  0
  193.3910  172.7230  144.9250 N   0  0  0  0  0  2  0  0  0  0  0  0
  194.4690  172.2580  145.7340 C   0  0  0  0  0  3  0  0  0  0  0  0
  190.8860  174.8130  142.7630 C   0  0  0  0  0  2  0  0  0  0  0  0
  190.0040  174.7610  141.5340 C   0  0  1  0  0  3  0  0  0  0  0  0
  189.9680  173.3360  141.0070 C   0  0  1  0  0  3  0  0  0  0  0  0
  188.8070  173.8780  141.8180 C   0  0  0  0  0  2  0  0  0  0  0  0
  188.3720  172.6810  139.3690 C   0  0  0  0  0  1  0  0  0  0  0  0
  189.6420  173.3690  139.5770 N   0  0  0  0  0  0  0  0  0  0  0  0
  190.6730  172.7970  138.6710 C   0  0  2  0  0  3  0  0  0  0  0  0
  192.0440  173.4530  138.8630 C   0  0  2  0  0  3  0  0  0  0  0  0
  191.2100  173.7630  137.6130 C   0  0  1  0  0  3  0  0  0  0  0  0
  193.1930  172.4600  138.6270 C   0  0  0  0  0  2  0  0  0  0  0  0
  193.0740  171.1950  139.4710 C   0  0  0  0  0  2  0  0  0  0  0  0
  194.1240  170.1680  139.0860 C   0  0  0  0  0  2  0  0  0  0  0  0
  191.7910  170.2700  142.7300 C   0  0  0  0  0  1  0  0  0  0  0  0
  193.0640  170.5150  142.0620 N   0  0  0  0  0  0  0  0  0  0  0  0
  195.7100  170.2900  141.0020 C   0  0  2  0  0  3  0  0  0  0  0  0
  196.3580  169.2360  143.0910 O   0  0  0  0  0  1  0  0  0  0  0  0
  195.4680  170.1480  142.5150 C   0  0  2  0  0  3  0  0  0  0  0  0
  192.6860  168.1920  141.3390 O   0  0  0  0  0  1  0  0  0  0  0  0
  193.5490  169.2950  141.3790 C   0  0  2  0  0  0  0  0  0  0  0  0
  194.0500  169.6150  142.7040 C   0  0  2  0  0  3  0  0  0  0  0  0
  194.6390  169.4580  140.3330 C   0  0  1  0  0  3  0  0  0  0  0  0
  197.6220  170.8270  139.4940 C   0  0  0  0  0  1  0  0  0  0  0  0
  197.0970  169.8640  140.5400 C   0  0  0  0  0  2  0  0  0  0  0  0
  191.5950  172.9790  136.3620 C   0  0  0  0  0  2  0  0  0  0  0  0
  190.7920  170.6740  135.7370 N   0  0  0  0  0  1  0  0  0  0  0  0
  190.5000  172.0450  135.9730 C   0  0  0  0  0  0  0  0  0  0  0  0
  189.3250  172.4700  135.8220 O   0  0  0  0  0  0  0  0  0  0  0  0
  2 13  1  6  0  0  0
  2 14  1  0  0  0  0
  2 11  1  0  0  0  0
  3  8  1  0  0  0  0
  4  5  1  1  0  0  0
  4 12  1  0  0  0  0
  4  6  1  0  0  0  0
  6 13  1  0  0  0  0
  7 34  1  1  0  0  0
  7  1  1  0  0  0  0
  9  1  1  0  0  0  0
 10  8  1  6  0  0  0
 10  9  1  0  0  0  0
 10 16  1  0  0  0  0
 11  7  1  0  0  0  0
 12 15  1  0  0  0  0
 14 36  1  0  0  0  0
 14  3  1  0  0  0  0
 15  2  1  0  0  0  0
 15 11  1  0  0  0  0
 16 19  1  0  0  0  0
 17 22  1  0  0  0  0
 17 16  1  0  0  0  0
 17 18  1  0  0  0  0
 18 19  1  0  0  0  0
 22 21  1  0  0  0  0
 22 20  1  0  0  0  0
 23 30  1  0  0  0  0
 24 25  1  0  0  0  0
 25 31  1  0  0  0  0
 25 26  1  0  0  0  0
 26 28  1  0  0  0  0
 27 32  1  0  0  0  0
 29 23  1  0  0  0  0
 29 24  1  0  0  0  0
 30 31  1  0  0  0  0
 31 27  1  0  0  0  0
 32 28  1  0  0  0  0
 32 22  1  0  0  0  0
 34 35  1  0  0  0  0
 35 33  2  0  0  0  0
 37 39  1  0  0  0  0
 37 36  1  0  0  0  0
 38 37  1  0  0  0  0
 38 39  1  0  0  0  0
 40 41  1  0  0  0  0
 41 38  1  0  0  0  0
 42 43  1  0  0  0  0
 42 41  1  0  0  0  0
 44 42  1  0  0  0  0
 44 43  1  0  0  0  0
 45 43  1  0  0  0  0
 45 46  1  0  0  0  0
 47 46  1  0  0  0  0
 47 56  1  0  0  0  0
 49 55  1  0  0  0  0
 49 48  1  0  0  0  0
 50 52  1  0  0  0  0
 52 55  1  0  0  0  0
 52 51  1  0  0  0  0
 53 54  1  0  0  0  0
 54 49  1  0  0  0  0
 54 55  1  0  0  0  0
 56 50  1  0  0  0  0
 56 54  1  0  0  0  0
 57 58  1  0  0  0  0
 58 50  1  0  0  0  0
 59 44  1  0  0  0  0
 60 61  1  0  0  0  0
 61 59  1  0  0  0  0
 62 61  2  0  0  0  0
M  END
>  <MODEL>
8

>  <REMARK>
 VINA RESULT:      -6.0      2.355      7.012
  Name = 
  15 active torsions:
  status: ('A' for Active; 'I' for Inactive)
    1  A    between atoms: C_4  and  C_33
    2  A    between atoms: C_7  and  C_37
    3  A    between atoms: C_8  and  N_27
    4  A    between atoms: C_13  and  N_27
    5  A    between atoms: C_18  and  C_22
    6  A    between atoms: C_22  and  C_26
    7  A    between atoms: C_25  and  C_55
    8  A    between atoms: C_26  and  C_60
    9  A    between atoms: C_28  and  C_37
   10  A    between atoms: C_30  and  N_41
   11  A    between atoms: C_33  and  C_49
   12  A    between atoms: C_34  and  C_45
   13  A    between atoms: C_47  and  C_51
   14  A    between atoms: C_51  and  C_59
   15  A    between atoms: C_60  and  C_62
                            x       y       z     vdW  Elec       q    Type
                         _______ _______ _______ _____ _____    ______ ____

>  <TORSDO>
F 15

$$$$
=
 OpenBabel11042416343D

 62 71  0  0  1  0  0  0  0  0999 V2000
  197.2290  170.8980  139.4580 C   0  0  0  0  0  2  0  0  0  0  0  0
  196.4360  174.3090  138.9230 C   0  0  2  0  0  0  0  0  0  0  0  0
  196.9950  174.1460  141.2930 O   0  0  0  0  0  0  0  0  0  0  0  0
  196.5470  175.7250  136.4330 C   0  0  2  0  0  3  0  0  0  0  0  0
  196.9540  176.0260  135.1340 O   0  0  0  0  0  1  0  0  0  0  0  0
  197.7560  175.4210  137.2900 C   0  0  0  0  0  2  0  0  0  0  0  0
  196.0850  171.7320  138.8780 C   0  0  1  0  0  3  0  0  0  0  0  0
  196.7350  173.1870  142.2970 C   0  0  0  0  0  2  0  0  0  0  0  0
  197.8300  171.5460  140.6940 C   0  0  0  0  0  2  0  0  0  0  0  0
  196.7420  171.7600  141.7550 C   0  0  1  0  0  3  0  0  0  0  0  0
  196.6080  172.9820  138.1680 C   0  0  1  0  0  3  0  0  0  0  0  0
  195.6780  174.4830  136.4220 C   0  0  0  0  0  2  0  0  0  0  0  0
  197.3700  175.3530  138.6430 O   0  0  0  0  0  0  0  0  0  0  0  0
  195.9200  174.3370  140.3790 C   0  0  2  0  0  3  0  0  0  0  0  0
  195.4300  173.9120  137.8260 C   0  0  2  0  0  3  0  0  0  0  0  0
  196.6910  170.7290  142.8880 C   0  0  1  0  0  3  0  0  0  0  0  0
  195.3940  169.9600  142.8600 C   0  0  1  0  0  3  0  0  0  0  0  0
  196.0410  168.7500  142.5460 O   0  0  0  0  0  0  0  0  0  0  0  0
  197.2910  169.3940  142.5220 C   0  0  0  0  0  2  0  0  0  0  0  0
  194.8210  168.5300  144.8880 C   0  0  0  0  0  1  0  0  0  0  0  0
  195.2730  170.9280  145.1640 C   0  0  0  0  0  1  0  0  0  0  0  0
  194.6640  169.8950  144.2230 C   0  0  0  0  0  0  0  0  0  0  0  0
  191.6990  171.3310  139.8490 O   0  0  0  0  0  0  0  0  0  0  0  0
  190.2300  171.4940  141.7700 C   0  0  0  0  0  2  0  0  0  0  0  0
  191.5750  171.9000  142.3790 C   0  0  1  0  0  3  0  0  0  0  0  0
  191.4500  172.0260  143.8980 C   0  0  0  0  0  2  0  0  0  0  0  0
  192.6410  169.8760  142.7850 O   0  0  0  0  0  0  0  0  0  0  0  0
  192.7580  171.6170  144.5610 C   0  0  0  0  0  2  0  0  0  0  0  0
  190.4100  171.0320  140.3190 C   0  0  0  0  0  2  0  0  0  0  0  0
  192.5720  170.5260  140.6010 C   0  0  0  0  0  2  0  0  0  0  0  0
  192.6830  170.9880  141.9960 N   0  0  1  0  0  0  0  0  0  0  0  0
  193.1630  170.2140  144.0660 C   0  0  2  0  0  3  0  0  0  0  0  0
  194.3130  168.8530  137.3830 N   0  0  0  0  0  2  0  0  0  0  0  0
  195.2800  170.9140  137.9760 N   0  0  0  0  0  2  0  0  0  0  0  0
  195.0470  169.5260  138.2040 C   0  0  0  0  0  3  0  0  0  0  0  0
  194.5620  173.6690  140.6610 C   0  0  0  0  0  2  0  0  0  0  0  0
  193.5220  174.7250  140.9700 C   0  0  1  0  0  3  0  0  0  0  0  0
  193.6300  175.1190  142.4340 C   0  0  1  0  0  3  0  0  0  0  0  0
  194.2190  176.0110  141.3590 C   0  0  0  0  0  2  0  0  0  0  0  0
  192.2810  177.0740  142.5590 C   0  0  0  0  0  1  0  0  0  0  0  0
  192.3360  175.6500  142.8770 N   0  0  0  0  0  0  0  0  0  0  0  0
  192.0190  175.4490  144.3160 C   0  0  2  0  0  3  0  0  0  0  0  0
  190.6970  176.1110  144.7170 C   0  0  2  0  0  3  0  0  0  0  0  0
  192.0310  176.7220  145.1640 C   0  0  1  0  0  3  0  0  0  0  0  0
  189.9660  175.3170  145.8110 C   0  0  0  0  0  2  0  0  0  0  0  0
  188.4750  175.6270  145.8810 C   0  0  0  0  0  2  0  0  0  0  0  0
  188.1790  177.0450  145.4230 C   0  0  0  0  0  2  0  0  0  0  0  0
  187.5560  177.7270  141.1940 C   0  0  0  0  0  1  0  0  0  0  0  0
  187.2920  178.1320  142.5700 N   0  0  0  0  0  0  0  0  0  0  0  0
  186.1610  178.4830  145.1720 C   0  0  2  0  0  3  0  0  0  0  0  0
  183.9870  178.6560  144.1040 O   0  0  0  0  0  1  0  0  0  0  0  0
  185.3570  178.8740  143.9210 C   0  0  2  0  0  3  0  0  0  0  0  0
  186.6970  175.7480  142.7440 O   0  0  0  0  0  1  0  0  0  0  0  0
  186.7350  177.0080  143.3570 C   0  0  2  0  0  0  0  0  0  0  0  0
  185.8330  177.9840  142.7740 C   0  0  2  0  0  3  0  0  0  0  0  0
  186.7590  177.1270  144.8720 C   0  0  1  0  0  3  0  0  0  0  0  0
  185.9810  179.3370  147.5090 C   0  0  0  0  0  1  0  0  0  0  0  0
  185.3480  178.4440  146.4600 C   0  0  0  0  0  2  0  0  0  0  0  0
  192.4610  176.3780  146.5870 C   0  0  0  0  0  2  0  0  0  0  0  0
  194.7160  175.2540  146.5150 N   0  0  0  0  0  1  0  0  0  0  0  0
  193.9460  176.4340  146.7100 C   0  0  0  0  0  0  0  0  0  0  0  0
  194.5190  177.5110  147.0190 O   0  0  0  0  0  0  0  0  0  0  0  0
  1  9  1  0  0  0  0
  2 13  1  6  0  0  0
  2 14  1  0  0  0  0
  3  8  1  0  0  0  0
  4  5  1  6  0  0  0
  4  6  1  0  0  0  0
  6 13  1  0  0  0  0
  7 34  1  6  0  0  0
  7  1  1  0  0  0  0
 10  9  1  1  0  0  0
 10  8  1  0  0  0  0
 10 16  1  0  0  0  0
 11  7  1  0  0  0  0
 11  2  1  0  0  0  0
 12  4  1  0  0  0  0
 12 15  1  0  0  0  0
 14 36  1  0  0  0  0
 14  3  1  0  0  0  0
 15 11  1  0  0  0  0
 15  2  1  0  0  0  0
 17 16  1  0  0  0  0
 17 22  1  0  0  0  0
 18 17  1  0  0  0  0
 19 18  1  0  0  0  0
 19 16  1  0  0  0  0
 22 20  1  0  0  0  0
 22 21  1  0  0  0  0
 23 29  1  0  0  0  0
 23 30  1  0  0  0  0
 24 25  1  0  0  0  0
 25 26  1  0  0  0  0
 26 28  1  0  0  0  0
 27 32  1  0  0  0  0
 29 24  1  0  0  0  0
 30 31  1  0  0  0  0
 31 25  1  0  0  0  0
 31 27  1  0  0  0  0
 32 22  1  0  0  0  0
 32 28  1  0  0  0  0
 33 35  2  0  0  0  0
 34 35  1  0  0  0  0
 36 37  1  0  0  0  0
 37 39  1  0  0  0  0
 37 38  1  0  0  0  0
 38 41  1  0  0  0  0
 39 38  1  0  0  0  0
 40 41  1  0  0  0  0
 41 42  1  0  0  0  0
 42 43  1  0  0  0  0
 42 44  1  0  0  0  0
 43 44  1  0  0  0  0
 43 45  1  0  0  0  0
 44 59  1  0  0  0  0
 45 46  1  0  0  0  0
 47 46  1  0  0  0  0
 48 49  1  0  0  0  0
 49 55  1  0  0  0  0
 49 54  1  0  0  0  0
 50 58  1  0  0  0  0
 52 51  1  0  0  0  0
 52 50  1  0  0  0  0
 53 54  1  0  0  0  0
 54 56  1  0  0  0  0
 55 54  1  0  0  0  0
 55 52  1  0  0  0  0
 56 50  1  0  0  0  0
 56 47  1  0  0  0  0
 58 57  1  0  0  0  0
 59 61  1  0  0  0  0
 60 61  1  0  0  0  0
 61 62  2  0  0  0  0
M  END
>  <MODEL>
9

>  <REMARK>
 VINA RESULT:      -5.9      2.709      7.665
  Name = 
  15 active torsions:
  status: ('A' for Active; 'I' for Inactive)
    1  A    between atoms: C_4  and  C_33
    2  A    between atoms: C_7  and  C_37
    3  A    between atoms: C_8  and  N_27
    4  A    between atoms: C_13  and  N_27
    5  A    between atoms: C_18  and  C_22
    6  A    between atoms: C_22  and  C_26
    7  A    between atoms: C_25  and  C_55
    8  A    between atoms: C_26  and  C_60
    9  A    between atoms: C_28  and  C_37
   10  A    between atoms: C_30  and  N_41
   11  A    between atoms: C_33  and  C_49
   12  A    between atoms: C_34  and  C_45
   13  A    between atoms: C_47  and  C_51
   14  A    between atoms: C_51  and  C_59
   15  A    between atoms: C_60  and  C_62
                            x       y       z     vdW  Elec       q    Type
                         _______ _______ _______ _____ _____    ______ ____

>  <TORSDO>
F 15

$$$$
