=
 OpenBabel11042414393D

 60 64  0  0  1  0  0  0  0  0999 V2000
  190.4510  173.3390  139.2030 N   0  0  0  0  0  0  0  0  0  0  0  0
  191.8870  173.1710  139.4070 C   0  0  1  0  0  3  0  0  0  0  0  0
  189.7830  172.7730  142.6450 C   0  0  0  0  0  0  0  0  0  0  0  0
  190.5030  172.6480  143.8750 N   0  0  0  0  0  2  0  0  0  0  0  0
  189.7350  172.9600  140.2070 C   0  0  0  0  0  0  0  0  0  0  0  0
  187.7530  173.2540  141.4400 C   0  0  0  0  0  3  0  0  0  0  0  0
  188.5180  173.0980  142.6500 N   0  0  0  0  0  0  0  0  0  0  0  0
  192.1650  172.8880  141.1980 S   0  0  0  0  0  0  0  0  0  0  0  0
  188.3300  173.2090  140.2750 N   0  0  0  0  0  0  0  0  0  0  0  0
  190.4420  172.3560  141.3610 C   0  0  1  0  0  3  0  0  0  0  0  0
  194.3510  170.9120  137.7620 C   0  0  0  0  0  3  0  0  0  0  0  0
  191.5030  171.0430  138.0780 C   0  0  0  0  0  2  0  0  0  0  0  0
  192.4220  172.0560  138.6220 N   0  0  0  0  0  0  0  0  0  0  0  0
  192.1390  170.2270  136.9860 C   0  0  0  0  0  0  0  0  0  0  0  0
  191.2780  169.4110  136.0870 C   0  0  0  0  0  1  0  0  0  0  0  0
  193.8470  171.8260  138.5900 C   0  0  0  0  0  0  0  0  0  0  0  0
  193.4650  170.1270  136.8900 C   0  0  0  0  0  3  0  0  0  0  0  0
  194.7820  172.6110  139.4530 C   0  0  0  0  0  2  0  0  0  0  0  0
  196.0040  174.8470  139.3710 C   0  0  0  0  0  0  0  0  0  0  0  0
  195.2260  173.8090  138.7570 N   0  0  0  0  0  2  0  0  0  0  0  0
  196.7980  175.5090  138.6520 O   0  0  0  0  0  0  0  0  0  0  0  0
  194.5940  176.1730  142.5520 C   0  0  0  0  0  3  0  0  0  0  0  0
  196.6820  175.0730  143.0950 C   0  0  0  0  0  0  0  0  0  0  0  0
  195.5310  175.7710  143.5210 C   0  0  0  0  0  0  0  0  0  0  0  0
  195.8780  175.1960  140.8050 C   0  0  0  0  0  0  0  0  0  0  0  0
  196.8360  174.7890  141.7350 C   0  0  0  0  0  3  0  0  0  0  0  0
  194.7820  175.8770  141.2370 N   0  0  0  0  0  0  0  0  0  0  0  0
  195.3320  176.0770  144.8730 O   0  0  0  0  0  0  0  0  0  0  0  0
  194.7610  177.3060  145.3100 C   0  0  0  0  0  1  0  0  0  0  0  0
  197.7020  174.6360  143.9510 O   0  0  0  0  0  0  0  0  0  0  0  0
  197.5560  173.7440  145.0510 C   0  0  0  0  0  2  0  0  0  0  0  0
  196.1060  172.0100  145.8510 O   0  0  0  0  0  1  0  0  0  0  0  0
  196.6660  172.5570  144.6940 C   0  0  2  0  0  3  0  0  0  0  0  0
  197.4940  171.4870  143.9920 C   0  0  0  0  0  2  0  0  0  0  0  0
  196.8600  171.1030  142.7410 N   0  0  0  0  0  2  0  0  0  0  0  0
  195.7970  169.0360  143.7680 C   0  0  0  0  0  1  0  0  0  0  0  0
  195.9730  169.9870  142.6380 C   0  0  0  0  0  0  0  0  0  0  0  0
  195.3210  169.8040  141.5790 O   0  0  0  0  0  0  0  0  0  0  0  0
  189.8610  172.7100  145.1850 C   0  0  0  0  0  2  0  0  0  0  0  0
  190.0870  174.0020  145.8430 N   0  0  0  0  0  0  0  0  0  0  0  0
  189.2100  174.4330  146.8500 N   0  0  0  0  0  1  0  0  0  0  0  0
  192.6440  174.3570  146.5260 S   0  0  0  0  0  0  0  0  0  0  0  0
  191.3110  174.7200  145.6400 C   0  0  0  0  0  0  0  0  0  0  0  0
  191.4780  175.5640  144.4180 C   0  0  0  0  0  2  0  0  0  0  0  0
  190.4780  176.7060  144.3900 C   0  0  0  0  0  2  0  0  0  0  0  0
  190.3350  177.2460  142.9770 C   0  0  2  0  0  3  0  0  0  0  0  0
  191.4440  178.0340  142.6500 O   0  0  0  0  0  1  0  0  0  0  0  0
  189.0460  178.0510  142.8410 C   0  0  1  0  0  3  0  0  0  0  0  0
  188.8140  178.3850  141.5040 O   0  0  0  0  0  1  0  0  0  0  0  0
  187.8720  177.2510  143.3910 C   0  0  0  0  0  2  0  0  0  0  0  0
  184.4240  178.0470  142.2340 C   0  0  0  0  0  2  0  0  0  0  0  0
  186.1060  178.4660  144.5790 C   0  0  1  0  0  3  0  0  0  0  0  0
  185.6380  177.1850  142.5800 C   0  0  0  0  0  2  0  0  0  0  0  0
  183.8330  178.6610  143.5020 C   0  0  0  0  0  2  0  0  0  0  0  0
  186.6310  178.0090  143.2710 N   0  0  0  0  0  0  0  0  0  0  0  0
  184.9100  179.3940  144.3130 C   0  0  0  0  0  2  0  0  0  0  0  0
  184.4530  177.5710  146.0990 O   0  0  0  0  0  1  0  0  0  0  0  0
  185.7080  177.3190  145.5410 C   0  0  2  0  0  3  0  0  0  0  0  0
  186.1310  177.7240  147.9560 C   0  0  0  0  0  1  0  0  0  0  0  0
  186.6990  177.1480  146.6770 C   0  0  0  0  0  2  0  0  0  0  0  0
  1  2  1  0  0  0  0
  1  5  2  0  0  0  0
  2 13  1  6  0  0  0
  2  8  1  0  0  0  0
  3  7  2  0  0  0  0
  3  4  1  0  0  0  0
  4 39  1  0  0  0  0
  5  9  1  0  0  0  0
  6  7  1  0  0  0  0
  8 10  1  0  0  0  0
  9  6  2  0  0  0  0
 10  5  1  6  0  0  0
 10  3  1  0  0  0  0
 11 16  2  0  0  0  0
 12 13  1  0  0  0  0
 14 12  1  0  0  0  0
 15 14  1  0  0  0  0
 16 13  1  0  0  0  0
 16 18  1  0  0  0  0
 17 14  2  0  0  0  0
 17 11  1  0  0  0  0
 19 25  1  0  0  0  0
 20 19  1  0  0  0  0
 20 18  1  0  0  0  0
 21 19  2  0  0  0  0
 22 24  1  0  0  0  0
 23 24  2  0  0  0  0
 23 30  1  0  0  0  0
 24 28  1  0  0  0  0
 25 27  1  0  0  0  0
 25 26  2  0  0  0  0
 26 23  1  0  0  0  0
 27 22  2  0  0  0  0
 28 29  1  0  0  0  0
 30 31  1  0  0  0  0
 33 31  1  0  0  0  0
 33 32  1  1  0  0  0
 34 33  1  0  0  0  0
 35 34  1  0  0  0  0
 37 35  1  0  0  0  0
 37 36  1  0  0  0  0
 38 37  2  0  0  0  0
 39 40  1  0  0  0  0
 40 41  1  0  0  0  0
 43 40  1  0  0  0  0
 43 42  2  0  0  0  0
 44 43  1  0  0  0  0
 45 44  1  0  0  0  0
 46 47  1  1  0  0  0
 46 45  1  0  0  0  0
 48 49  1  6  0  0  0
 48 46  1  0  0  0  0
 48 50  1  0  0  0  0
 51 53  1  0  0  0  0
 51 54  1  0  0  0  0
 52 58  1  1  0  0  0
 53 55  1  0  0  0  0
 54 56  1  0  0  0  0
 55 50  1  0  0  0  0
 55 52  1  0  0  0  0
 56 52  1  0  0  0  0
 58 57  1  1  0  0  0
 58 60  1  0  0  0  0
 60 59  1  0  0  0  0
M  END
>  <MODEL>
1

>  <REMARK>
 VINA RESULT:      -6.1      0.000      0.000
  Name = 
  21 active torsions:
  status: ('A' for Active; 'I' for Inactive)
    1  A    between atoms: C_2  and  C_23
    2  A    between atoms: C_2  and  C_44
    3  A    between atoms: C_3  and  N_11
    4  A    between atoms: C_4  and  C_30
    5  A    between atoms: C_7  and  C_21
    6  A    between atoms: C_7  and  N_50
    7  A    between atoms: N_8  and  C_35
    8  A    between atoms: N_12  and  C_35
    9  A    between atoms: N_12  and  C_51
   10  A    between atoms: C_13  and  O_16
   11  A    between atoms: O_16  and  C_52
   12  A    between atoms: C_17  and  O_42
   13  A    between atoms: C_18  and  C_20
   14  A    between atoms: C_18  and  N_26
   15  A    between atoms: C_20  and  C_52
   16  A    between atoms: C_21  and  C_23
   17  A    between atoms: C_22  and  N_24
   18  A    between atoms: C_22  and  C_55
   19  A    between atoms: C_25  and  C_28
   20  A    between atoms: C_25  and  C_56
   21  A    between atoms: C_44  and  C_51
                            x       y       z     vdW  Elec       q    Type
                         _______ _______ _______ _____ _____    ______ ____

>  <TORSDO>
F 21

$$$$
=
 OpenBabel11042414393D

 60 64  0  0  1  0  0  0  0  0999 V2000
  189.4010  175.7870  142.9020 N   0  0  0  0  0  0  0  0  0  0  0  0
  188.9620  177.1780  142.8500 C   0  0  1  0  0  3  0  0  0  0  0  0
  187.9240  175.0870  139.7480 C   0  0  0  0  0  0  0  0  0  0  0  0
  187.3230  175.7950  138.6600 N   0  0  0  0  0  2  0  0  0  0  0  0
  188.8480  175.0330  142.0120 C   0  0  0  0  0  0  0  0  0  0  0  0
  189.0520  173.1460  140.6230 C   0  0  0  0  0  3  0  0  0  0  0  0
  188.4210  173.8930  139.5660 N   0  0  0  0  0  0  0  0  0  0  0  0
  188.1090  177.4340  141.2460 S   0  0  0  0  0  0  0  0  0  0  0  0
  189.2760  173.6900  141.7830 N   0  0  0  0  0  0  0  0  0  0  0  0
  187.8220  175.6490  141.1380 C   0  0  1  0  0  3  0  0  0  0  0  0
  187.7150  177.5790  146.3380 C   0  0  0  0  0  3  0  0  0  0  0  0
  186.7750  178.1550  143.6900 C   0  0  0  0  0  2  0  0  0  0  0  0
  188.0700  177.5110  143.9630 N   0  0  0  0  0  0  0  0  0  0  0  0
  185.8320  178.0540  144.8570 C   0  0  0  0  0  0  0  0  0  0  0  0
  184.3830  178.3260  144.6520 C   0  0  0  0  0  1  0  0  0  0  0  0
  188.5600  177.4260  145.3190 C   0  0  0  0  0  0  0  0  0  0  0  0
  186.2910  177.8460  146.0920 C   0  0  0  0  0  3  0  0  0  0  0  0
  189.9990  177.1450  145.6100 C   0  0  0  0  0  2  0  0  0  0  0  0
  191.3680  175.6030  147.1100 C   0  0  0  0  0  0  0  0  0  0  0  0
  190.1150  176.1010  146.6170 N   0  0  0  0  0  2  0  0  0  0  0  0
  191.4200  175.1720  148.2920 O   0  0  0  0  0  0  0  0  0  0  0  0
  194.5020  176.6400  145.3890 C   0  0  0  0  0  3  0  0  0  0  0  0
  194.1920  174.2780  144.9550 C   0  0  0  0  0  0  0  0  0  0  0  0
  194.9670  175.4480  144.8020 C   0  0  0  0  0  0  0  0  0  0  0  0
  192.5880  175.5410  146.2720 C   0  0  0  0  0  0  0  0  0  0  0  0
  193.0100  174.3410  145.6980 C   0  0  0  0  0  3  0  0  0  0  0  0
  193.3450  176.6590  146.1040 N   0  0  0  0  0  0  0  0  0  0  0  0
  196.1590  175.4340  144.0690 O   0  0  0  0  0  0  0  0  0  0  0  0
  196.7350  176.6090  143.5090 C   0  0  0  0  0  1  0  0  0  0  0  0
  194.5270  173.0330  144.4040 O   0  0  0  0  0  0  0  0  0  0  0  0
  193.8390  172.3610  143.3540 C   0  0  0  0  0  2  0  0  0  0  0  0
  191.9120  171.2820  144.2880 O   0  0  0  0  0  1  0  0  0  0  0  0
  193.2160  171.0560  143.8390 C   0  0  2  0  0  3  0  0  0  0  0  0
  194.0410  170.4880  144.9870 C   0  0  0  0  0  2  0  0  0  0  0  0
  195.1860  169.7560  144.4680 N   0  0  0  0  0  2  0  0  0  0  0  0
  196.8160  170.9780  145.9870 C   0  0  0  0  0  1  0  0  0  0  0  0
  196.5040  169.9120  144.9980 C   0  0  0  0  0  0  0  0  0  0  0  0
  197.4190  169.1320  144.6310 O   0  0  0  0  0  0  0  0  0  0  0  0
  187.0810  175.1920  137.3520 C   0  0  0  0  0  2  0  0  0  0  0  0
  187.7800  175.9120  136.2820 N   0  0  0  0  0  0  0  0  0  0  0  0
  187.4740  177.2580  136.0330 N   0  0  0  0  0  1  0  0  0  0  0  0
  189.8230  176.2190  134.5900 S   0  0  0  0  0  0  0  0  0  0  0  0
  188.9280  175.3360  135.6430 C   0  0  0  0  0  0  0  0  0  0  0  0
  189.5020  174.0600  136.1680 C   0  0  0  0  0  2  0  0  0  0  0  0
  190.8330  173.7370  135.5110 C   0  0  0  0  0  2  0  0  0  0  0  0
  191.6850  172.8880  136.4380 C   0  0  2  0  0  3  0  0  0  0  0  0
  191.4290  173.2270  137.7710 O   0  0  0  0  0  1  0  0  0  0  0  0
  193.1660  173.0650  136.1140 C   0  0  1  0  0  3  0  0  0  0  0  0
  193.3850  172.9550  134.7380 O   0  0  0  0  0  1  0  0  0  0  0  0
  193.6480  174.4230  136.6120 C   0  0  0  0  0  2  0  0  0  0  0  0
  197.1470  175.6450  136.2680 C   0  0  0  0  0  2  0  0  0  0  0  0
  195.5210  174.1470  138.1680 C   0  0  1  0  0  3  0  0  0  0  0  0
  195.6210  175.7170  136.3300 C   0  0  0  0  0  2  0  0  0  0  0  0
  197.7160  175.2710  137.6360 C   0  0  0  0  0  2  0  0  0  0  0  0
  195.0980  174.4250  136.7750 N   0  0  0  0  0  0  0  0  0  0  0  0
  197.0510  174.0000  138.1800 C   0  0  0  0  0  2  0  0  0  0  0  0
  196.0940  175.4840  140.0990 O   0  0  0  0  0  1  0  0  0  0  0  0
  195.0630  175.2100  139.1970 C   0  0  2  0  0  3  0  0  0  0  0  0
  193.8260  175.4540  141.3380 C   0  0  0  0  0  1  0  0  0  0  0  0
  193.8530  174.7600  139.9940 C   0  0  0  0  0  2  0  0  0  0  0  0
  2  1  1  0  0  0  0
  2 13  1  1  0  0  0
  4  3  1  0  0  0  0
  5  1  2  0  0  0  0
  6  9  2  0  0  0  0
  7  3  2  0  0  0  0
  7  6  1  0  0  0  0
  8  2  1  0  0  0  0
  9  5  1  0  0  0  0
 10  3  1  6  0  0  0
 10  8  1  0  0  0  0
 10  5  1  0  0  0  0
 12 13  1  0  0  0  0
 12 14  1  0  0  0  0
 13 16  1  0  0  0  0
 14 17  2  0  0  0  0
 15 14  1  0  0  0  0
 16 18  1  0  0  0  0
 16 11  2  0  0  0  0
 17 11  1  0  0  0  0
 18 20  1  0  0  0  0
 19 21  2  0  0  0  0
 20 19  1  0  0  0  0
 22 27  1  0  0  0  0
 23 26  2  0  0  0  0
 24 23  1  0  0  0  0
 24 22  2  0  0  0  0
 25 19  1  0  0  0  0
 26 25  1  0  0  0  0
 27 25  2  0  0  0  0
 28 24  1  0  0  0  0
 29 28  1  0  0  0  0
 30 23  1  0  0  0  0
 31 33  1  0  0  0  0
 31 30  1  0  0  0  0
 33 32  1  1  0  0  0
 33 34  1  0  0  0  0
 35 34  1  0  0  0  0
 35 37  1  0  0  0  0
 37 36  1  0  0  0  0
 38 37  2  0  0  0  0
 39  4  1  0  0  0  0
 40 39  1  0  0  0  0
 41 40  1  0  0  0  0
 42 43  2  0  0  0  0
 43 44  1  0  0  0  0
 43 40  1  0  0  0  0
 45 44  1  0  0  0  0
 45 46  1  0  0  0  0
 46 47  1  1  0  0  0
 48 49  1  6  0  0  0
 48 46  1  0  0  0  0
 48 50  1  0  0  0  0
 50 55  1  0  0  0  0
 51 53  1  0  0  0  0
 51 54  1  0  0  0  0
 52 56  1  0  0  0  0
 52 58  1  1  0  0  0
 53 55  1  0  0  0  0
 54 56  1  0  0  0  0
 55 52  1  0  0  0  0
 58 60  1  0  0  0  0
 58 57  1  1  0  0  0
 60 59  1  0  0  0  0
M  END
>  <MODEL>
2

>  <REMARK>
 VINA RESULT:      -6.0      3.102      8.688
  Name = 
  21 active torsions:
  status: ('A' for Active; 'I' for Inactive)
    1  A    between atoms: C_2  and  C_23
    2  A    between atoms: C_2  and  C_44
    3  A    between atoms: C_3  and  N_11
    4  A    between atoms: C_4  and  C_30
    5  A    between atoms: C_7  and  C_21
    6  A    between atoms: C_7  and  N_50
    7  A    between atoms: N_8  and  C_35
    8  A    between atoms: N_12  and  C_35
    9  A    between atoms: N_12  and  C_51
   10  A    between atoms: C_13  and  O_16
   11  A    between atoms: O_16  and  C_52
   12  A    between atoms: C_17  and  O_42
   13  A    between atoms: C_18  and  C_20
   14  A    between atoms: C_18  and  N_26
   15  A    between atoms: C_20  and  C_52
   16  A    between atoms: C_21  and  C_23
   17  A    between atoms: C_22  and  N_24
   18  A    between atoms: C_22  and  C_55
   19  A    between atoms: C_25  and  C_28
   20  A    between atoms: C_25  and  C_56
   21  A    between atoms: C_44  and  C_51
                            x       y       z     vdW  Elec       q    Type
                         _______ _______ _______ _____ _____    ______ ____

>  <TORSDO>
F 21

$$$$
=
 OpenBabel11042414393D

 60 64  0  0  1  0  0  0  0  0999 V2000
  189.1670  177.7330  143.3900 N   0  0  0  0  0  0  0  0  0  0  0  0
  188.4940  177.2670  142.1810 C   0  0  1  0  0  3  0  0  0  0  0  0
  190.1950  174.4360  144.2220 C   0  0  0  0  0  0  0  0  0  0  0  0
  190.2230  173.1350  143.6280 N   0  0  0  0  0  2  0  0  0  0  0  0
  189.5080  176.7840  144.1950 C   0  0  0  0  0  0  0  0  0  0  0  0
  191.0260  176.0310  145.8260 C   0  0  0  0  0  3  0  0  0  0  0  0
  191.0010  174.7310  145.2060 N   0  0  0  0  0  0  0  0  0  0  0  0
  188.7740  175.4590  142.0500 S   0  0  0  0  0  0  0  0  0  0  0  0
  190.3330  177.0160  145.3370 N   0  0  0  0  0  0  0  0  0  0  0  0
  189.1140  175.4030  143.8270 C   0  0  1  0  0  3  0  0  0  0  0  0
  185.0470  178.0010  140.9720 C   0  0  0  0  0  3  0  0  0  0  0  0
  186.3470  177.5920  143.4960 C   0  0  0  0  0  2  0  0  0  0  0  0
  187.0590  177.5620  142.2080 N   0  0  0  0  0  0  0  0  0  0  0  0
  185.0220  178.2960  143.3960 C   0  0  0  0  0  0  0  0  0  0  0  0
  184.3290  178.7310  144.6400 C   0  0  0  0  0  1  0  0  0  0  0  0
  186.3130  177.5860  140.9720 C   0  0  0  0  0  0  0  0  0  0  0  0
  184.4010  178.4240  142.2230 C   0  0  0  0  0  3  0  0  0  0  0  0
  186.9380  177.1740  139.6780 C   0  0  0  0  0  2  0  0  0  0  0  0
  185.9380  176.2160  137.5370 C   0  0  0  0  0  0  0  0  0  0  0  0
  185.9400  177.1600  138.6190 N   0  0  0  0  0  2  0  0  0  0  0  0
  184.8350  175.8880  137.0270 O   0  0  0  0  0  0  0  0  0  0  0  0
  188.8680  175.7120  135.2950 C   0  0  0  0  0  3  0  0  0  0  0  0
  189.0800  174.1340  137.1200 C   0  0  0  0  0  0  0  0  0  0  0  0
  189.6000  174.6920  135.9320 C   0  0  0  0  0  0  0  0  0  0  0  0
  187.1840  175.6470  136.9720 C   0  0  0  0  0  0  0  0  0  0  0  0
  187.8750  174.6270  137.6290 C   0  0  0  0  0  3  0  0  0  0  0  0
  187.6990  176.1630  135.8240 N   0  0  0  0  0  0  0  0  0  0  0  0
  190.8040  174.2330  135.3850 O   0  0  0  0  0  0  0  0  0  0  0  0
  192.0780  174.6470  135.8670 C   0  0  0  0  0  1  0  0  0  0  0  0
  189.6940  173.1000  137.8410 O   0  0  0  0  0  0  0  0  0  0  0  0
  190.2580  173.1990  139.1440 C   0  0  0  0  0  2  0  0  0  0  0  0
  191.5670  171.1910  139.0830 O   0  0  0  0  0  1  0  0  0  0  0  0
  191.6520  172.5800  139.1980 C   0  0  2  0  0  3  0  0  0  0  0  0
  192.3160  172.9250  140.5250 C   0  0  0  0  0  2  0  0  0  0  0  0
  192.9550  174.2300  140.4420 N   0  0  0  0  0  2  0  0  0  0  0  0
  194.8370  173.3550  138.9750 C   0  0  0  0  0  1  0  0  0  0  0  0
  194.1070  174.4730  139.6320 C   0  0  0  0  0  0  0  0  0  0  0  0
  194.5130  175.6500  139.4620 O   0  0  0  0  0  0  0  0  0  0  0  0
  191.0090  172.0290  144.1670 C   0  0  0  0  0  2  0  0  0  0  0  0
  191.0620  170.8940  143.2390 N   0  0  0  0  0  0  0  0  0  0  0  0
  190.1510  170.8230  142.1740 N   0  0  0  0  0  1  0  0  0  0  0  0
  192.5910  169.1520  141.9120 S   0  0  0  0  0  0  0  0  0  0  0  0
  192.1680  169.9810  143.2640 C   0  0  0  0  0  0  0  0  0  0  0  0
  193.1330  170.0220  144.4040 C   0  0  0  0  0  2  0  0  0  0  0  0
  194.5580  169.7840  143.9350 C   0  0  0  0  0  2  0  0  0  0  0  0
  195.5070  170.7470  144.6270 C   0  0  2  0  0  3  0  0  0  0  0  0
  194.9280  171.2270  145.8060 O   0  0  0  0  0  1  0  0  0  0  0  0
  195.8670  171.9020  143.6970 C   0  0  1  0  0  3  0  0  0  0  0  0
  194.7360  172.3510  143.0090 O   0  0  0  0  0  1  0  0  0  0  0  0
  196.4770  173.0450  144.4990 C   0  0  0  0  0  2  0  0  0  0  0  0
  194.5680  175.6970  146.2830 C   0  0  0  0  0  2  0  0  0  0  0  0
  195.5850  175.1460  143.6070 C   0  0  1  0  0  3  0  0  0  0  0  0
  195.7210  174.7370  145.9880 C   0  0  0  0  0  2  0  0  0  0  0  0
  194.4750  176.7630  145.1930 C   0  0  0  0  0  2  0  0  0  0  0  0
  195.5100  174.1230  144.6760 N   0  0  0  0  0  0  0  0  0  0  0  0
  194.4150  176.1230  143.8000 C   0  0  0  0  0  2  0  0  0  0  0  0
  196.7320  177.2070  143.0770 O   0  0  0  0  0  1  0  0  0  0  0  0
  196.9320  175.9080  143.5480 C   0  0  2  0  0  3  0  0  0  0  0  0
  197.3240  174.9660  141.2830 C   0  0  0  0  0  1  0  0  0  0  0  0
  197.9410  175.2310  142.6390 C   0  0  0  0  0  2  0  0  0  0  0  0
  1  5  2  0  0  0  0
  2 13  1  1  0  0  0
  2  1  1  0  0  0  0
  3  7  2  0  0  0  0
  4 39  1  0  0  0  0
  4  3  1  0  0  0  0
  5  9  1  0  0  0  0
  7  6  1  0  0  0  0
  8  2  1  0  0  0  0
  9  6  2  0  0  0  0
 10  8  1  6  0  0  0
 10  5  1  0  0  0  0
 10  3  1  0  0  0  0
 11 17  1  0  0  0  0
 13 12  1  0  0  0  0
 14 12  1  0  0  0  0
 14 15  1  0  0  0  0
 16 11  2  0  0  0  0
 16 13  1  0  0  0  0
 17 14  2  0  0  0  0
 18 16  1  0  0  0  0
 19 20  1  0  0  0  0
 20 18  1  0  0  0  0
 21 19  2  0  0  0  0
 22 27  2  0  0  0  0
 22 24  1  0  0  0  0
 23 26  1  0  0  0  0
 23 30  1  0  0  0  0
 24 23  2  0  0  0  0
 25 19  1  0  0  0  0
 25 26  2  0  0  0  0
 27 25  1  0  0  0  0
 28 29  1  0  0  0  0
 28 24  1  0  0  0  0
 30 31  1  0  0  0  0
 31 33  1  0  0  0  0
 33 32  1  1  0  0  0
 33 34  1  0  0  0  0
 35 34  1  0  0  0  0
 36 37  1  0  0  0  0
 37 35  1  0  0  0  0
 38 37  2  0  0  0  0
 40 43  1  0  0  0  0
 40 39  1  0  0  0  0
 41 40  1  0  0  0  0
 42 43  2  0  0  0  0
 43 44  1  0  0  0  0
 45 44  1  0  0  0  0
 45 46  1  0  0  0  0
 46 47  1  1  0  0  0
 48 49  1  1  0  0  0
 48 50  1  0  0  0  0
 48 46  1  0  0  0  0
 50 55  1  0  0  0  0
 52 58  1  1  0  0  0
 52 56  1  0  0  0  0
 52 55  1  0  0  0  0
 53 51  1  0  0  0  0
 54 51  1  0  0  0  0
 55 53  1  0  0  0  0
 56 54  1  0  0  0  0
 58 57  1  6  0  0  0
 59 60  1  0  0  0  0
 60 58  1  0  0  0  0
M  END
>  <MODEL>
3

>  <REMARK>
 VINA RESULT:      -5.9      2.996      8.940
  Name = 
  21 active torsions:
  status: ('A' for Active; 'I' for Inactive)
    1  A    between atoms: C_2  and  C_23
    2  A    between atoms: C_2  and  C_44
    3  A    between atoms: C_3  and  N_11
    4  A    between atoms: C_4  and  C_30
    5  A    between atoms: C_7  and  C_21
    6  A    between atoms: C_7  and  N_50
    7  A    between atoms: N_8  and  C_35
    8  A    between atoms: N_12  and  C_35
    9  A    between atoms: N_12  and  C_51
   10  A    between atoms: C_13  and  O_16
   11  A    between atoms: O_16  and  C_52
   12  A    between atoms: C_17  and  O_42
   13  A    between atoms: C_18  and  C_20
   14  A    between atoms: C_18  and  N_26
   15  A    between atoms: C_20  and  C_52
   16  A    between atoms: C_21  and  C_23
   17  A    between atoms: C_22  and  N_24
   18  A    between atoms: C_22  and  C_55
   19  A    between atoms: C_25  and  C_28
   20  A    between atoms: C_25  and  C_56
   21  A    between atoms: C_44  and  C_51
                            x       y       z     vdW  Elec       q    Type
                         _______ _______ _______ _____ _____    ______ ____

>  <TORSDO>
F 21

$$$$
=
 OpenBabel11042414393D

 60 64  0  0  1  0  0  0  0  0999 V2000
  189.3340  175.7930  142.9440 N   0  0  0  0  0  0  0  0  0  0  0  0
  188.9190  177.1910  142.8780 C   0  0  1  0  0  3  0  0  0  0  0  0
  187.8980  175.1030  139.7690 C   0  0  0  0  0  0  0  0  0  0  0  0
  187.3280  175.8150  138.6680 N   0  0  0  0  0  2  0  0  0  0  0  0
  188.7830  175.0450  142.0490 C   0  0  0  0  0  0  0  0  0  0  0  0
  188.9790  173.1470  140.6720 C   0  0  0  0  0  3  0  0  0  0  0  0
  188.3780  173.9000  139.6010 N   0  0  0  0  0  0  0  0  0  0  0  0
  188.0980  177.4530  141.2590 S   0  0  0  0  0  0  0  0  0  0  0  0
  189.1920  173.6930  141.8330 N   0  0  0  0  0  0  0  0  0  0  0  0
  187.7820  175.6730  141.1550 C   0  0  1  0  0  3  0  0  0  0  0  0
  187.6260  177.6440  146.3430 C   0  0  0  0  0  3  0  0  0  0  0  0
  186.7290  178.1960  143.6750 C   0  0  0  0  0  2  0  0  0  0  0  0
  188.0140  177.5450  143.9750 N   0  0  0  0  0  0  0  0  0  0  0  0
  185.7690  178.1160  144.8300 C   0  0  0  0  0  0  0  0  0  0  0  0
  184.3250  178.3970  144.6010 C   0  0  0  0  0  1  0  0  0  0  0  0
  188.4840  177.4720  145.3380 C   0  0  0  0  0  0  0  0  0  0  0  0
  186.2080  177.9190  146.0740 C   0  0  0  0  0  3  0  0  0  0  0  0
  189.9160  177.1830  145.6530 C   0  0  0  0  0  2  0  0  0  0  0  0
  191.2510  175.6560  147.1980 C   0  0  0  0  0  0  0  0  0  0  0  0
  190.0090  176.1570  146.6810 N   0  0  0  0  0  2  0  0  0  0  0  0
  191.2850  175.2470  148.3890 O   0  0  0  0  0  0  0  0  0  0  0  0
  194.5430  176.5320  145.6950 C   0  0  0  0  0  3  0  0  0  0  0  0
  193.9580  174.3190  144.9050 C   0  0  0  0  0  0  0  0  0  0  0  0
  194.8760  175.3920  144.9410 C   0  0  0  0  0  0  0  0  0  0  0  0
  192.4800  175.5650  146.3760 C   0  0  0  0  0  0  0  0  0  0  0  0
  192.7700  174.4200  145.6330 C   0  0  0  0  0  3  0  0  0  0  0  0
  193.3740  176.5910  146.3890 N   0  0  0  0  0  0  0  0  0  0  0  0
  196.0800  175.3360  144.2300 O   0  0  0  0  0  0  0  0  0  0  0  0
  196.6060  176.4480  143.5130 C   0  0  0  0  0  1  0  0  0  0  0  0
  194.1550  173.1370  144.1770 O   0  0  0  0  0  0  0  0  0  0  0  0
  193.2210  172.0730  144.0270 C   0  0  0  0  0  2  0  0  0  0  0  0
  195.2230  170.7570  143.9240 O   0  0  0  0  0  1  0  0  0  0  0  0
  193.8730  170.7170  144.2820 C   0  0  2  0  0  3  0  0  0  0  0  0
  193.1750  169.6470  143.4530 C   0  0  0  0  0  2  0  0  0  0  0  0
  193.2800  169.9610  142.0370 N   0  0  0  0  0  2  0  0  0  0  0  0
  190.7590  169.9500  141.7180 C   0  0  0  0  0  1  0  0  0  0  0  0
  192.1360  170.2000  141.2140 C   0  0  0  0  0  0  0  0  0  0  0  0
  192.2890  170.6350  140.0450 O   0  0  0  0  0  0  0  0  0  0  0  0
  187.0980  175.2090  137.3590 C   0  0  0  0  0  2  0  0  0  0  0  0
  187.8200  175.9170  136.2960 N   0  0  0  0  0  0  0  0  0  0  0  0
  187.5380  177.2670  136.0430 N   0  0  0  0  0  1  0  0  0  0  0  0
  189.9960  176.2370  134.7810 S   0  0  0  0  0  0  0  0  0  0  0  0
  188.9660  175.3210  135.6710 C   0  0  0  0  0  0  0  0  0  0  0  0
  189.4070  173.9560  136.0860 C   0  0  0  0  0  2  0  0  0  0  0  0
  190.8070  173.6470  135.5850 C   0  0  0  0  0  2  0  0  0  0  0  0
  191.5670  172.8290  136.6140 C   0  0  2  0  0  3  0  0  0  0  0  0
  191.2460  173.2650  137.9050 O   0  0  0  0  0  1  0  0  0  0  0  0
  193.0700  172.9290  136.3730 C   0  0  1  0  0  3  0  0  0  0  0  0
  193.4070  172.3730  135.1350 O   0  0  0  0  0  1  0  0  0  0  0  0
  193.5100  174.3870  136.4260 C   0  0  0  0  0  2  0  0  0  0  0  0
  196.9060  175.8590  136.0330 C   0  0  0  0  0  2  0  0  0  0  0  0
  195.4450  174.1800  137.9160 C   0  0  1  0  0  3  0  0  0  0  0  0
  195.3820  175.8240  136.1420 C   0  0  0  0  0  2  0  0  0  0  0  0
  197.5410  175.4720  137.3680 C   0  0  0  0  0  2  0  0  0  0  0  0
  194.9610  174.4830  136.5490 N   0  0  0  0  0  0  0  0  0  0  0  0
  196.9810  174.1380  137.8780 C   0  0  0  0  0  2  0  0  0  0  0  0
  195.9760  175.4460  139.9050 O   0  0  0  0  0  1  0  0  0  0  0  0
  194.9490  175.1690  139.0000 C   0  0  2  0  0  3  0  0  0  0  0  0
  193.8100  175.1340  141.2080 C   0  0  0  0  0  1  0  0  0  0  0  0
  193.7700  174.6230  139.7840 C   0  0  0  0  0  2  0  0  0  0  0  0
  2  1  1  0  0  0  0
  2 13  1  1  0  0  0
  4  3  1  0  0  0  0
  5  1  2  0  0  0  0
  6  9  2  0  0  0  0
  7  3  2  0  0  0  0
  7  6  1  0  0  0  0
  8  2  1  0  0  0  0
  9  5  1  0  0  0  0
 10  3  1  6  0  0  0
 10  8  1  0  0  0  0
 10  5  1  0  0  0  0
 12 13  1  0  0  0  0
 12 14  1  0  0  0  0
 13 16  1  0  0  0  0
 14 17  2  0  0  0  0
 15 14  1  0  0  0  0
 16 18  1  0  0  0  0
 16 11  2  0  0  0  0
 17 11  1  0  0  0  0
 18 20  1  0  0  0  0
 19 21  2  0  0  0  0
 20 19  1  0  0  0  0
 22 27  1  0  0  0  0
 23 24  1  0  0  0  0
 23 26  2  0  0  0  0
 24 22  2  0  0  0  0
 25 27  2  0  0  0  0
 25 19  1  0  0  0  0
 26 25  1  0  0  0  0
 28 24  1  0  0  0  0
 29 28  1  0  0  0  0
 30 23  1  0  0  0  0
 31 30  1  0  0  0  0
 31 33  1  0  0  0  0
 33 32  1  6  0  0  0
 34 33  1  0  0  0  0
 35 34  1  0  0  0  0
 37 36  1  0  0  0  0
 37 35  1  0  0  0  0
 38 37  2  0  0  0  0
 39  4  1  0  0  0  0
 40 39  1  0  0  0  0
 41 40  1  0  0  0  0
 42 43  2  0  0  0  0
 43 44  1  0  0  0  0
 43 40  1  0  0  0  0
 45 44  1  0  0  0  0
 45 46  1  0  0  0  0
 46 47  1  1  0  0  0
 48 49  1  6  0  0  0
 48 50  1  0  0  0  0
 48 46  1  0  0  0  0
 50 55  1  0  0  0  0
 51 53  1  0  0  0  0
 51 54  1  0  0  0  0
 52 58  1  1  0  0  0
 53 55  1  0  0  0  0
 54 56  1  0  0  0  0
 55 52  1  0  0  0  0
 56 52  1  0  0  0  0
 58 60  1  0  0  0  0
 58 57  1  1  0  0  0
 60 59  1  0  0  0  0
M  END
>  <MODEL>
4

>  <REMARK>
 VINA RESULT:      -5.9      3.118      8.738
  Name = 
  21 active torsions:
  status: ('A' for Active; 'I' for Inactive)
    1  A    between atoms: C_2  and  C_23
    2  A    between atoms: C_2  and  C_44
    3  A    between atoms: C_3  and  N_11
    4  A    between atoms: C_4  and  C_30
    5  A    between atoms: C_7  and  C_21
    6  A    between atoms: C_7  and  N_50
    7  A    between atoms: N_8  and  C_35
    8  A    between atoms: N_12  and  C_35
    9  A    between atoms: N_12  and  C_51
   10  A    between atoms: C_13  and  O_16
   11  A    between atoms: O_16  and  C_52
   12  A    between atoms: C_17  and  O_42
   13  A    between atoms: C_18  and  C_20
   14  A    between atoms: C_18  and  N_26
   15  A    between atoms: C_20  and  C_52
   16  A    between atoms: C_21  and  C_23
   17  A    between atoms: C_22  and  N_24
   18  A    between atoms: C_22  and  C_55
   19  A    between atoms: C_25  and  C_28
   20  A    between atoms: C_25  and  C_56
   21  A    between atoms: C_44  and  C_51
                            x       y       z     vdW  Elec       q    Type
                         _______ _______ _______ _____ _____    ______ ____

>  <TORSDO>
F 21

$$$$
=
 OpenBabel11042414393D

 60 64  0  0  1  0  0  0  0  0999 V2000
  190.3670  175.2690  143.3710 N   0  0  0  0  0  0  0  0  0  0  0  0
  189.8380  174.8450  144.6630 C   0  0  1  0  0  3  0  0  0  0  0  0
  191.8840  172.1030  142.8300 C   0  0  0  0  0  0  0  0  0  0  0  0
  191.8850  170.7960  143.4110 N   0  0  0  0  0  2  0  0  0  0  0  0
  191.2500  174.4650  142.8810 C   0  0  0  0  0  0  0  0  0  0  0  0
  192.2400  173.5640  140.9470 C   0  0  0  0  0  3  0  0  0  0  0  0
  192.2400  172.2720  141.5850 N   0  0  0  0  0  0  0  0  0  0  0  0
  190.3060  173.0890  144.9080 S   0  0  0  0  0  0  0  0  0  0  0  0
  191.7520  174.6060  141.5510 N   0  0  0  0  0  0  0  0  0  0  0  0
  191.6440  173.2990  143.7070 C   0  0  1  0  0  3  0  0  0  0  0  0
  189.9060  177.3250  147.4430 C   0  0  0  0  0  3  0  0  0  0  0  0
  191.7430  175.5040  146.2040 C   0  0  0  0  0  2  0  0  0  0  0  0
  190.3500  175.6700  145.7600 N   0  0  0  0  0  0  0  0  0  0  0  0
  192.2210  176.6700  147.0250 C   0  0  0  0  0  0  0  0  0  0  0  0
  193.6800  176.8500  147.2610 C   0  0  0  0  0  1  0  0  0  0  0  0
  189.4330  176.4590  146.5470 C   0  0  0  0  0  0  0  0  0  0  0  0
  191.3540  177.4720  147.6450 C   0  0  0  0  0  3  0  0  0  0  0  0
  187.9540  176.3470  146.3640 C   0  0  0  0  0  2  0  0  0  0  0  0
  185.9140  177.6940  147.0920 C   0  0  0  0  0  0  0  0  0  0  0  0
  187.2630  177.2380  147.2830 N   0  0  0  0  0  2  0  0  0  0  0  0
  185.2170  177.9510  148.1080 O   0  0  0  0  0  0  0  0  0  0  0  0
  183.8040  179.1020  144.3670 C   0  0  0  0  0  3  0  0  0  0  0  0
  185.2960  177.4840  143.3570 C   0  0  0  0  0  0  0  0  0  0  0  0
  184.2740  178.4480  143.2130 C   0  0  0  0  0  0  0  0  0  0  0  0
  185.3280  177.9100  145.7490 C   0  0  0  0  0  0  0  0  0  0  0  0
  185.8160  177.2330  144.6300 C   0  0  0  0  0  3  0  0  0  0  0  0
  184.3360  178.8270  145.5890 N   0  0  0  0  0  0  0  0  0  0  0  0
  183.7230  178.7350  141.9590 O   0  0  0  0  0  0  0  0  0  0  0  0
  182.6970  177.9450  141.3670 C   0  0  0  0  0  1  0  0  0  0  0  0
  185.8380  176.7460  142.2960 O   0  0  0  0  0  0  0  0  0  0  0  0
  187.1680  176.2430  142.2090 C   0  0  0  0  0  2  0  0  0  0  0  0
  186.7930  177.0100  139.9690 O   0  0  0  0  0  1  0  0  0  0  0  0
  187.7470  176.4340  140.8110 C   0  0  2  0  0  3  0  0  0  0  0  0
  188.1610  175.0850  140.2380 C   0  0  0  0  0  2  0  0  0  0  0  0
  188.0530  174.0520  141.2570 N   0  0  0  0  0  2  0  0  0  0  0  0
  189.0590  172.2760  139.7440 C   0  0  0  0  0  1  0  0  0  0  0  0
  188.5610  172.7290  141.0700 C   0  0  0  0  0  0  0  0  0  0  0  0
  188.5960  171.9320  142.0410 O   0  0  0  0  0  0  0  0  0  0  0  0
  192.4210  169.6200  142.7310 C   0  0  0  0  0  2  0  0  0  0  0  0
  193.7590  169.2700  143.2190 N   0  0  0  0  0  0  0  0  0  0  0  0
  194.7810  168.9840  142.3020 N   0  0  0  0  0  1  0  0  0  0  0  0
  194.0460  168.1680  145.6340 S   0  0  0  0  0  0  0  0  0  0  0  0
  194.1000  169.4420  144.6010 C   0  0  0  0  0  0  0  0  0  0  0  0
  194.8120  170.6810  145.0370 C   0  0  0  0  0  2  0  0  0  0  0  0
  196.2930  170.4240  145.2560 C   0  0  0  0  0  2  0  0  0  0  0  0
  197.0700  171.7260  145.1790 C   0  0  2  0  0  3  0  0  0  0  0  0
  196.9780  172.4130  146.3950 O   0  0  0  0  0  1  0  0  0  0  0  0
  196.5520  172.5910  144.0330 C   0  0  1  0  0  3  0  0  0  0  0  0
  195.7450  173.6220  144.5220 O   0  0  0  0  0  1  0  0  0  0  0  0
  197.7220  173.1710  143.2480 C   0  0  0  0  0  2  0  0  0  0  0  0
  195.8830  172.3540  140.1160 C   0  0  0  0  0  2  0  0  0  0  0  0
  197.6300  174.4440  141.1560 C   0  0  1  0  0  3  0  0  0  0  0  0
  196.0910  172.6310  141.6050 C   0  0  0  0  0  2  0  0  0  0  0  0
  196.1290  173.6230  139.3020 C   0  0  0  0  0  2  0  0  0  0  0  0
  197.4510  173.1290  141.8150 N   0  0  0  0  0  0  0  0  0  0  0  0
  197.4940  174.2380  139.6390 C   0  0  0  0  0  2  0  0  0  0  0  0
  196.3470  176.4190  140.6090 O   0  0  0  0  0  1  0  0  0  0  0  0
  196.6550  175.5410  141.6510 C   0  0  2  0  0  3  0  0  0  0  0  0
  196.1320  176.7800  143.7400 C   0  0  0  0  0  1  0  0  0  0  0  0
  197.2330  176.3560  142.7930 C   0  0  0  0  0  2  0  0  0  0  0  0
  1  2  1  0  0  0  0
  2  8  1  0  0  0  0
  2 13  1  1  0  0  0
  3  4  1  0  0  0  0
  5  1  2  0  0  0  0
  5 10  1  0  0  0  0
  6  9  2  0  0  0  0
  6  7  1  0  0  0  0
  7  3  2  0  0  0  0
  9  5  1  0  0  0  0
 10  3  1  6  0  0  0
 10  8  1  0  0  0  0
 11 17  1  0  0  0  0
 12 14  1  0  0  0  0
 13 12  1  0  0  0  0
 13 16  1  0  0  0  0
 14 15  1  0  0  0  0
 14 17  2  0  0  0  0
 16 11  2  0  0  0  0
 18 16  1  0  0  0  0
 18 20  1  0  0  0  0
 19 20  1  0  0  0  0
 19 21  2  0  0  0  0
 22 27  1  0  0  0  0
 23 26  2  0  0  0  0
 24 23  1  0  0  0  0
 24 22  2  0  0  0  0
 25 19  1  0  0  0  0
 26 25  1  0  0  0  0
 27 25  2  0  0  0  0
 28 24  1  0  0  0  0
 29 28  1  0  0  0  0
 30 23  1  0  0  0  0
 31 30  1  0  0  0  0
 33 32  1  6  0  0  0
 33 31  1  0  0  0  0
 34 33  1  0  0  0  0
 34 35  1  0  0  0  0
 36 37  1  0  0  0  0
 37 35  1  0  0  0  0
 37 38  2  0  0  0  0
 39 40  1  0  0  0  0
 39  4  1  0  0  0  0
 40 43  1  0  0  0  0
 41 40  1  0  0  0  0
 43 44  1  0  0  0  0
 43 42  2  0  0  0  0
 44 45  1  0  0  0  0
 46 45  1  0  0  0  0
 46 47  1  1  0  0  0
 48 49  1  1  0  0  0
 48 46  1  0  0  0  0
 50 48  1  0  0  0  0
 51 53  1  0  0  0  0
 52 58  1  1  0  0  0
 52 55  1  0  0  0  0
 53 55  1  0  0  0  0
 54 56  1  0  0  0  0
 54 51  1  0  0  0  0
 55 50  1  0  0  0  0
 56 52  1  0  0  0  0
 58 57  1  6  0  0  0
 58 60  1  0  0  0  0
 60 59  1  0  0  0  0
M  END
>  <MODEL>
5

>  <REMARK>
 VINA RESULT:      -5.9      2.483     10.081
  Name = 
  21 active torsions:
  status: ('A' for Active; 'I' for Inactive)
    1  A    between atoms: C_2  and  C_23
    2  A    between atoms: C_2  and  C_44
    3  A    between atoms: C_3  and  N_11
    4  A    between atoms: C_4  and  C_30
    5  A    between atoms: C_7  and  C_21
    6  A    between atoms: C_7  and  N_50
    7  A    between atoms: N_8  and  C_35
    8  A    between atoms: N_12  and  C_35
    9  A    between atoms: N_12  and  C_51
   10  A    between atoms: C_13  and  O_16
   11  A    between atoms: O_16  and  C_52
   12  A    between atoms: C_17  and  O_42
   13  A    between atoms: C_18  and  C_20
   14  A    between atoms: C_18  and  N_26
   15  A    between atoms: C_20  and  C_52
   16  A    between atoms: C_21  and  C_23
   17  A    between atoms: C_22  and  N_24
   18  A    between atoms: C_22  and  C_55
   19  A    between atoms: C_25  and  C_28
   20  A    between atoms: C_25  and  C_56
   21  A    between atoms: C_44  and  C_51
                            x       y       z     vdW  Elec       q    Type
                         _______ _______ _______ _____ _____    ______ ____

>  <TORSDO>
F 21

$$$$
=
 OpenBabel11042414393D

 60 64  0  0  1  0  0  0  0  0999 V2000
  189.3740  174.4160  143.6470 N   0  0  0  0  0  0  0  0  0  0  0  0
  189.7930  173.7880  144.8960 C   0  0  1  0  0  3  0  0  0  0  0  0
  190.6170  171.6950  141.7330 C   0  0  0  0  0  0  0  0  0  0  0  0
  191.1270  170.3750  141.9430 N   0  0  0  0  0  2  0  0  0  0  0  0
  189.8660  173.8580  142.5930 C   0  0  0  0  0  0  0  0  0  0  0  0
  189.5780  173.3430  140.3160 C   0  0  0  0  0  3  0  0  0  0  0  0
  190.1210  172.0350  140.5740 N   0  0  0  0  0  0  0  0  0  0  0  0
  190.5210  172.1560  144.4830 S   0  0  0  0  0  0  0  0  0  0  0  0
  189.4360  174.2080  141.2770 N   0  0  0  0  0  0  0  0  0  0  0  0
  190.8170  172.7390  142.7940 C   0  0  1  0  0  3  0  0  0  0  0  0
  191.1770  176.5510  146.9780 C   0  0  0  0  0  3  0  0  0  0  0  0
  192.1650  174.1750  145.7110 C   0  0  0  0  0  2  0  0  0  0  0  0
  190.7630  174.6120  145.6230 N   0  0  0  0  0  0  0  0  0  0  0  0
  193.0850  175.2950  146.1150 C   0  0  0  0  0  0  0  0  0  0  0  0
  194.5530  175.1430  145.9190 C   0  0  0  0  0  1  0  0  0  0  0  0
  190.2970  175.7080  146.4390 C   0  0  0  0  0  0  0  0  0  0  0  0
  192.6180  176.3660  146.7580 C   0  0  0  0  0  3  0  0  0  0  0  0
  188.8390  175.9370  146.6770 C   0  0  0  0  0  2  0  0  0  0  0  0
  187.3870  177.9550  147.2400 C   0  0  0  0  0  0  0  0  0  0  0  0
  188.6270  177.2350  147.2990 N   0  0  0  0  0  2  0  0  0  0  0  0
  187.0870  178.7150  148.1990 O   0  0  0  0  0  0  0  0  0  0  0  0
  184.5940  178.7440  144.9080 C   0  0  0  0  0  3  0  0  0  0  0  0
  185.8440  176.9110  143.9380 C   0  0  0  0  0  0  0  0  0  0  0  0
  184.7800  177.8350  143.8500 C   0  0  0  0  0  0  0  0  0  0  0  0
  186.4690  177.8710  146.0810 C   0  0  0  0  0  0  0  0  0  0  0  0
  186.6810  176.9470  145.0560 C   0  0  0  0  0  3  0  0  0  0  0  0
  185.4310  178.7460  145.9800 N   0  0  0  0  0  0  0  0  0  0  0  0
  183.9160  177.8390  142.7490 O   0  0  0  0  0  0  0  0  0  0  0  0
  184.1250  178.6630  141.6070 C   0  0  0  0  0  1  0  0  0  0  0  0
  186.1270  175.9400  142.9670 O   0  0  0  0  0  0  0  0  0  0  0  0
  186.8810  176.1320  141.7750 C   0  0  0  0  0  2  0  0  0  0  0  0
  187.2070  178.1400  140.5050 O   0  0  0  0  0  1  0  0  0  0  0  0
  187.5000  177.5260  141.7250 C   0  0  2  0  0  3  0  0  0  0  0  0
  189.0130  177.4200  141.8730 C   0  0  0  0  0  2  0  0  0  0  0  0
  189.4590  178.1850  143.0270 N   0  0  0  0  0  2  0  0  0  0  0  0
  191.7380  177.0620  143.0490 C   0  0  0  0  0  1  0  0  0  0  0  0
  190.7880  178.0930  143.5450 C   0  0  0  0  0  0  0  0  0  0  0  0
  191.1690  178.8990  144.4310 O   0  0  0  0  0  0  0  0  0  0  0  0
  191.2770  169.3970  140.8690 C   0  0  0  0  0  2  0  0  0  0  0  0
  192.4170  169.7100  140.0000 N   0  0  0  0  0  0  0  0  0  0  0  0
  192.2110  169.9150  138.6280 N   0  0  0  0  0  1  0  0  0  0  0  0
  194.6170  168.8740  141.2630 S   0  0  0  0  0  0  0  0  0  0  0  0
  193.6950  170.0370  140.5630 C   0  0  0  0  0  0  0  0  0  0  0  0
  194.3330  171.3460  140.2320 C   0  0  0  0  0  2  0  0  0  0  0  0
  195.5250  171.1660  139.3070 C   0  0  0  0  0  2  0  0  0  0  0  0
  196.4660  172.3520  139.4240 C   0  0  2  0  0  3  0  0  0  0  0  0
  197.3790  172.1400  140.4620 O   0  0  0  0  0  1  0  0  0  0  0  0
  195.6780  173.6380  139.6570 C   0  0  1  0  0  3  0  0  0  0  0  0
  196.2800  174.4090  140.6550 O   0  0  0  0  0  1  0  0  0  0  0  0
  195.5910  174.4370  138.3620 C   0  0  0  0  0  2  0  0  0  0  0  0
  192.0400  173.9390  137.3640 C   0  0  0  0  0  2  0  0  0  0  0  0
  194.6490  174.2680  136.1060 C   0  0  1  0  0  3  0  0  0  0  0  0
  193.2410  174.5950  138.0460 C   0  0  0  0  0  2  0  0  0  0  0  0
  192.1470  174.0880  135.8470 C   0  0  0  0  0  2  0  0  0  0  0  0
  194.4710  173.9780  137.5480 N   0  0  0  0  0  0  0  0  0  0  0  0
  193.5050  173.5870  135.3380 C   0  0  0  0  0  2  0  0  0  0  0  0
  193.9370  176.0530  134.6400 O   0  0  0  0  0  1  0  0  0  0  0  0
  194.7180  175.7770  135.7640 C   0  0  2  0  0  3  0  0  0  0  0  0
  196.1160  177.6330  134.8830 C   0  0  0  0  0  1  0  0  0  0  0  0
  196.1340  176.2400  135.4750 C   0  0  0  0  0  2  0  0  0  0  0  0
  1  2  1  0  0  0  0
  2 13  1  6  0  0  0
  3  4  1  0  0  0  0
  5 10  1  0  0  0  0
  5  1  2  0  0  0  0
  6  7  1  0  0  0  0
  6  9  2  0  0  0  0
  7  3  2  0  0  0  0
  8  2  1  0  0  0  0
  9  5  1  0  0  0  0
 10  3  1  6  0  0  0
 10  8  1  0  0  0  0
 12 14  1  0  0  0  0
 13 12  1  0  0  0  0
 13 16  1  0  0  0  0
 14 17  2  0  0  0  0
 15 14  1  0  0  0  0
 16 18  1  0  0  0  0
 16 11  2  0  0  0  0
 17 11  1  0  0  0  0
 18 20  1  0  0  0  0
 19 20  1  0  0  0  0
 19 21  2  0  0  0  0
 22 27  1  0  0  0  0
 23 26  2  0  0  0  0
 24 23  1  0  0  0  0
 24 22  2  0  0  0  0
 25 19  1  0  0  0  0
 26 25  1  0  0  0  0
 27 25  2  0  0  0  0
 28 24  1  0  0  0  0
 29 28  1  0  0  0  0
 30 23  1  0  0  0  0
 31 30  1  0  0  0  0
 33 32  1  6  0  0  0
 33 31  1  0  0  0  0
 33 34  1  0  0  0  0
 34 35  1  0  0  0  0
 35 37  1  0  0  0  0
 36 37  1  0  0  0  0
 37 38  2  0  0  0  0
 39  4  1  0  0  0  0
 40 43  1  0  0  0  0
 40 39  1  0  0  0  0
 41 40  1  0  0  0  0
 43 42  2  0  0  0  0
 44 43  1  0  0  0  0
 45 46  1  0  0  0  0
 45 44  1  0  0  0  0
 46 48  1  0  0  0  0
 46 47  1  1  0  0  0
 48 49  1  1  0  0  0
 50 48  1  0  0  0  0
 51 53  1  0  0  0  0
 52 58  1  1  0  0  0
 52 55  1  0  0  0  0
 54 51  1  0  0  0  0
 55 53  1  0  0  0  0
 55 50  1  0  0  0  0
 56 54  1  0  0  0  0
 56 52  1  0  0  0  0
 58 57  1  6  0  0  0
 59 60  1  0  0  0  0
 60 58  1  0  0  0  0
M  END
>  <MODEL>
6

>  <REMARK>
 VINA RESULT:      -5.8      2.681      9.927
  Name = 
  21 active torsions:
  status: ('A' for Active; 'I' for Inactive)
    1  A    between atoms: C_2  and  C_23
    2  A    between atoms: C_2  and  C_44
    3  A    between atoms: C_3  and  N_11
    4  A    between atoms: C_4  and  C_30
    5  A    between atoms: C_7  and  C_21
    6  A    between atoms: C_7  and  N_50
    7  A    between atoms: N_8  and  C_35
    8  A    between atoms: N_12  and  C_35
    9  A    between atoms: N_12  and  C_51
   10  A    between atoms: C_13  and  O_16
   11  A    between atoms: O_16  and  C_52
   12  A    between atoms: C_17  and  O_42
   13  A    between atoms: C_18  and  C_20
   14  A    between atoms: C_18  and  N_26
   15  A    between atoms: C_20  and  C_52
   16  A    between atoms: C_21  and  C_23
   17  A    between atoms: C_22  and  N_24
   18  A    between atoms: C_22  and  C_55
   19  A    between atoms: C_25  and  C_28
   20  A    between atoms: C_25  and  C_56
   21  A    between atoms: C_44  and  C_51
                            x       y       z     vdW  Elec       q    Type
                         _______ _______ _______ _____ _____    ______ ____

>  <TORSDO>
F 21

$$$$
=
 OpenBabel11042414393D

 60 64  0  0  1  0  0  0  0  0999 V2000
  188.8850  171.8720  139.0570 N   0  0  0  0  0  0  0  0  0  0  0  0
  189.0920  172.8200  140.1480 C   0  0  1  0  0  3  0  0  0  0  0  0
  192.3840  171.5190  138.5570 C   0  0  0  0  0  0  0  0  0  0  0  0
  193.6070  171.8890  139.2010 N   0  0  0  0  0  2  0  0  0  0  0  0
  189.9480  171.6370  138.3650 C   0  0  0  0  0  0  0  0  0  0  0  0
  191.1490  170.0950  137.0560 C   0  0  0  0  0  3  0  0  0  0  0  0
  192.3560  170.5190  137.7160 N   0  0  0  0  0  0  0  0  0  0  0  0
  190.9000  172.9920  140.4030 S   0  0  0  0  0  0  0  0  0  0  0  0
  189.9980  170.6090  137.3740 N   0  0  0  0  0  0  0  0  0  0  0  0
  191.1730  172.3940  138.7160 C   0  0  1  0  0  3  0  0  0  0  0  0
  187.7220  176.2420  140.6930 C   0  0  0  0  0  3  0  0  0  0  0  0
  188.2000  174.4980  138.4670 C   0  0  0  0  0  2  0  0  0  0  0  0
  188.4880  174.1240  139.8600 N   0  0  0  0  0  0  0  0  0  0  0  0
  187.2340  175.6480  138.3750 C   0  0  0  0  0  0  0  0  0  0  0  0
  186.5590  175.9350  137.0800 C   0  0  0  0  0  1  0  0  0  0  0  0
  188.4030  175.1160  140.9050 C   0  0  0  0  0  0  0  0  0  0  0  0
  187.0690  176.4860  139.3990 C   0  0  0  0  0  3  0  0  0  0  0  0
  189.0440  174.9010  142.2380 C   0  0  0  0  0  2  0  0  0  0  0  0
  189.7230  176.7570  143.8500 C   0  0  0  0  0  0  0  0  0  0  0  0
  189.8500  176.0560  142.6030 N   0  0  0  0  0  2  0  0  0  0  0  0
  190.7420  177.3190  144.3290 O   0  0  0  0  0  0  0  0  0  0  0  0
  187.2730  177.0670  146.6360 C   0  0  0  0  0  3  0  0  0  0  0  0
  186.0250  177.1950  144.5650 C   0  0  0  0  0  0  0  0  0  0  0  0
  186.0410  177.2290  145.9770 C   0  0  0  0  0  0  0  0  0  0  0  0
  188.4340  176.8770  144.5700 C   0  0  0  0  0  0  0  0  0  0  0  0
  187.2310  177.0250  143.8780 C   0  0  0  0  0  3  0  0  0  0  0  0
  188.4250  176.9030  145.9300 N   0  0  0  0  0  0  0  0  0  0  0  0
  184.8600  177.3990  146.7080 O   0  0  0  0  0  0  0  0  0  0  0  0
  184.0940  178.5990  146.6700 C   0  0  0  0  0  1  0  0  0  0  0  0
  184.8660  177.3210  143.7860 O   0  0  0  0  0  0  0  0  0  0  0  0
  184.8110  177.6610  142.4040 C   0  0  0  0  0  2  0  0  0  0  0  0
  183.0250  178.9950  143.2880 O   0  0  0  0  0  1  0  0  0  0  0  0
  183.7850  178.7590  142.1400 C   0  0  2  0  0  3  0  0  0  0  0  0
  182.8550  178.3320  141.0120 C   0  0  0  0  0  2  0  0  0  0  0  0
  181.5720  177.9080  141.5520 N   0  0  0  0  0  2  0  0  0  0  0  0
  180.3530  179.9070  140.5640 C   0  0  0  0  0  1  0  0  0  0  0  0
  180.3530  178.5980  141.2710 C   0  0  0  0  0  0  0  0  0  0  0  0
  179.2560  178.0930  141.6190 O   0  0  0  0  0  0  0  0  0  0  0  0
  194.8990  171.3050  138.8540 C   0  0  0  0  0  2  0  0  0  0  0  0
  195.9560  172.3200  138.7830 N   0  0  0  0  0  0  0  0  0  0  0  0
  196.1910  172.9960  137.5760 N   0  0  0  0  0  1  0  0  0  0  0  0
  197.1620  171.7390  141.0930 S   0  0  0  0  0  0  0  0  0  0  0  0
  196.5920  172.7970  139.9770 C   0  0  0  0  0  0  0  0  0  0  0  0
  197.0290  174.2230  140.0610 C   0  0  0  0  0  2  0  0  0  0  0  0
  197.4180  174.6030  141.4790 C   0  0  0  0  0  2  0  0  0  0  0  0
  196.3180  175.4290  142.1230 C   0  0  2  0  0  3  0  0  0  0  0  0
  196.0020  176.5240  141.3110 O   0  0  0  0  0  1  0  0  0  0  0  0
  196.7450  175.8970  143.5110 C   0  0  1  0  0  3  0  0  0  0  0  0
  196.9850  177.2740  143.5140 O   0  0  0  0  0  1  0  0  0  0  0  0
  195.6660  175.5540  144.5310 C   0  0  0  0  0  2  0  0  0  0  0  0
  195.0940  171.8760  144.5920 C   0  0  0  0  0  2  0  0  0  0  0  0
  193.5540  174.3330  144.2930 C   0  0  1  0  0  3  0  0  0  0  0  0
  195.5640  173.2440  145.0850 C   0  0  0  0  0  2  0  0  0  0  0  0
  193.5670  171.8240  144.5510 C   0  0  0  0  0  2  0  0  0  0  0  0
  195.0320  174.2810  144.2000 N   0  0  0  0  0  0  0  0  0  0  0  0
  192.9970  173.0060  143.7550 C   0  0  0  0  0  2  0  0  0  0  0  0
  191.6310  174.4310  145.7550 O   0  0  0  0  0  1  0  0  0  0  0  0
  193.0140  174.6190  145.7160 C   0  0  2  0  0  3  0  0  0  0  0  0
  192.3680  176.4280  147.2920 C   0  0  0  0  0  1  0  0  0  0  0  0
  193.3070  176.0370  146.1710 C   0  0  0  0  0  2  0  0  0  0  0  0
  1  2  1  0  0  0  0
  2 13  1  6  0  0  0
  2  8  1  0  0  0  0
  3 10  1  0  0  0  0
  3  4  1  0  0  0  0
  5  1  2  0  0  0  0
  6  9  2  0  0  0  0
  6  7  1  0  0  0  0
  7  3  2  0  0  0  0
  9  5  1  0  0  0  0
 10  5  1  1  0  0  0
 10  8  1  0  0  0  0
 11 16  2  0  0  0  0
 12 13  1  0  0  0  0
 13 16  1  0  0  0  0
 14 12  1  0  0  0  0
 14 17  2  0  0  0  0
 15 14  1  0  0  0  0
 16 18  1  0  0  0  0
 17 11  1  0  0  0  0
 18 20  1  0  0  0  0
 19 21  2  0  0  0  0
 19 25  1  0  0  0  0
 20 19  1  0  0  0  0
 23 24  2  0  0  0  0
 24 22  1  0  0  0  0
 24 28  1  0  0  0  0
 25 27  1  0  0  0  0
 26 23  1  0  0  0  0
 26 25  2  0  0  0  0
 27 22  2  0  0  0  0
 29 28  1  0  0  0  0
 30 23  1  0  0  0  0
 31 30  1  0  0  0  0
 33 31  1  0  0  0  0
 33 32  1  1  0  0  0
 34 35  1  0  0  0  0
 34 33  1  0  0  0  0
 36 37  1  0  0  0  0
 37 35  1  0  0  0  0
 37 38  2  0  0  0  0
 39  4  1  0  0  0  0
 40 39  1  0  0  0  0
 40 43  1  0  0  0  0
 41 40  1  0  0  0  0
 43 44  1  0  0  0  0
 43 42  2  0  0  0  0
 44 45  1  0  0  0  0
 45 46  1  0  0  0  0
 46 47  1  6  0  0  0
 46 48  1  0  0  0  0
 48 49  1  6  0  0  0
 48 50  1  0  0  0  0
 51 53  1  0  0  0  0
 52 58  1  1  0  0  0
 54 51  1  0  0  0  0
 55 52  1  0  0  0  0
 55 50  1  0  0  0  0
 55 53  1  0  0  0  0
 56 52  1  0  0  0  0
 56 54  1  0  0  0  0
 58 57  1  6  0  0  0
 58 60  1  0  0  0  0
 60 59  1  0  0  0  0
M  END
>  <MODEL>
7

>  <REMARK>
 VINA RESULT:      -5.7      2.615      9.663
  Name = 
  21 active torsions:
  status: ('A' for Active; 'I' for Inactive)
    1  A    between atoms: C_2  and  C_23
    2  A    between atoms: C_2  and  C_44
    3  A    between atoms: C_3  and  N_11
    4  A    between atoms: C_4  and  C_30
    5  A    between atoms: C_7  and  C_21
    6  A    between atoms: C_7  and  N_50
    7  A    between atoms: N_8  and  C_35
    8  A    between atoms: N_12  and  C_35
    9  A    between atoms: N_12  and  C_51
   10  A    between atoms: C_13  and  O_16
   11  A    between atoms: O_16  and  C_52
   12  A    between atoms: C_17  and  O_42
   13  A    between atoms: C_18  and  C_20
   14  A    between atoms: C_18  and  N_26
   15  A    between atoms: C_20  and  C_52
   16  A    between atoms: C_21  and  C_23
   17  A    between atoms: C_22  and  N_24
   18  A    between atoms: C_22  and  C_55
   19  A    between atoms: C_25  and  C_28
   20  A    between atoms: C_25  and  C_56
   21  A    between atoms: C_44  and  C_51
                            x       y       z     vdW  Elec       q    Type
                         _______ _______ _______ _____ _____    ______ ____

>  <TORSDO>
F 21

$$$$
=
 OpenBabel11042414393D

 60 64  0  0  1  0  0  0  0  0999 V2000
  189.0860  176.1140  142.6250 N   0  0  0  0  0  0  0  0  0  0  0  0
  188.6410  177.5040  142.6020 C   0  0  1  0  0  3  0  0  0  0  0  0
  187.6580  175.4900  139.4330 C   0  0  0  0  0  0  0  0  0  0  0  0
  187.0690  176.2230  138.3550 N   0  0  0  0  0  2  0  0  0  0  0  0
  188.5500  175.3810  141.7080 C   0  0  0  0  0  0  0  0  0  0  0  0
  188.7830  173.5320  140.2730 C   0  0  0  0  0  3  0  0  0  0  0  0
  188.1630  174.3030  139.2270 N   0  0  0  0  0  0  0  0  0  0  0  0
  187.8100  177.7970  140.9930 S   0  0  0  0  0  0  0  0  0  0  0  0
  188.9880  174.0460  141.4500 N   0  0  0  0  0  0  0  0  0  0  0  0
  187.5330  176.0150  140.8350 C   0  0  1  0  0  3  0  0  0  0  0  0
  187.3260  177.7690  146.0780 C   0  0  0  0  0  3  0  0  0  0  0  0
  186.4570  178.4880  143.4410 C   0  0  0  0  0  2  0  0  0  0  0  0
  187.7320  177.8040  143.7110 N   0  0  0  0  0  0  0  0  0  0  0  0
  185.4870  178.3530  144.5810 C   0  0  0  0  0  0  0  0  0  0  0  0
  184.0480  178.6650  144.3590 C   0  0  0  0  0  1  0  0  0  0  0  0
  188.1900  177.6460  145.0710 C   0  0  0  0  0  0  0  0  0  0  0  0
  185.9130  178.0780  145.8150 C   0  0  0  0  0  3  0  0  0  0  0  0
  189.6160  177.3200  145.3800 C   0  0  0  0  0  2  0  0  0  0  0  0
  190.5630  175.5410  146.9410 C   0  0  0  0  0  0  0  0  0  0  0  0
  189.7150  176.6690  146.6770 N   0  0  0  0  0  2  0  0  0  0  0  0
  191.0290  175.3980  148.1020 O   0  0  0  0  0  0  0  0  0  0  0  0
  190.1280  172.7550  144.5100 C   0  0  0  0  0  3  0  0  0  0  0  0
  192.4170  173.5240  144.3190 C   0  0  0  0  0  0  0  0  0  0  0  0
  191.3870  172.6600  143.8870 C   0  0  0  0  0  0  0  0  0  0  0  0
  190.8780  174.5210  145.9140 C   0  0  0  0  0  0  0  0  0  0  0  0
  192.1430  174.4520  145.3280 C   0  0  0  0  0  3  0  0  0  0  0  0
  189.9040  173.6720  145.4890 N   0  0  0  0  0  0  0  0  0  0  0  0
  191.6120  171.7160  142.8790 O   0  0  0  0  0  0  0  0  0  0  0  0
  190.5930  170.8490  142.3920 C   0  0  0  0  0  1  0  0  0  0  0  0
  193.7190  173.5190  143.8010 O   0  0  0  0  0  0  0  0  0  0  0  0
  194.6690  172.4650  143.9160 C   0  0  0  0  0  2  0  0  0  0  0  0
  196.1310  172.5760  145.8130 O   0  0  0  0  0  1  0  0  0  0  0  0
  194.9010  172.0790  145.3730 C   0  0  2  0  0  3  0  0  0  0  0  0
  194.9060  170.5610  145.5080 C   0  0  0  0  0  2  0  0  0  0  0  0
  196.1120  170.1220  146.1950 N   0  0  0  0  0  2  0  0  0  0  0  0
  194.8280  168.5200  147.6920 C   0  0  0  0  0  1  0  0  0  0  0  0
  196.1040  169.0830  147.1750 C   0  0  0  0  0  0  0  0  0  0  0  0
  197.1920  168.6260  147.6080 O   0  0  0  0  0  0  0  0  0  0  0  0
  186.8490  175.6520  137.0290 C   0  0  0  0  0  2  0  0  0  0  0  0
  187.6750  176.3080  136.0090 N   0  0  0  0  0  0  0  0  0  0  0  0
  187.4760  177.6660  135.7190 N   0  0  0  0  0  1  0  0  0  0  0  0
  189.8820  176.4680  134.5130 S   0  0  0  0  0  0  0  0  0  0  0  0
  188.8310  175.6500  135.4720 C   0  0  0  0  0  0  0  0  0  0  0  0
  189.2600  174.3350  136.0360 C   0  0  0  0  0  2  0  0  0  0  0  0
  190.2430  173.6300  135.1170 C   0  0  0  0  0  2  0  0  0  0  0  0
  191.3030  172.9100  135.9330 C   0  0  2  0  0  3  0  0  0  0  0  0
  190.9180  172.8540  137.2770 O   0  0  0  0  0  1  0  0  0  0  0  0
  192.6520  173.6090  135.7900 C   0  0  1  0  0  3  0  0  0  0  0  0
  192.5480  174.9560  136.1450 O   0  0  0  0  0  1  0  0  0  0  0  0
  193.6910  172.9180  136.6650 C   0  0  0  0  0  2  0  0  0  0  0  0
  193.7430  173.5450  140.3340 C   0  0  0  0  0  2  0  0  0  0  0  0
  195.2040  174.3590  137.9460 C   0  0  1  0  0  3  0  0  0  0  0  0
  193.7710  172.7410  139.0340 C   0  0  0  0  0  2  0  0  0  0  0  0
  195.0090  174.3910  140.4610 C   0  0  0  0  0  2  0  0  0  0  0  0
  193.8970  173.6620  137.9040 N   0  0  0  0  0  0  0  0  0  0  0  0
  195.2310  175.2420  139.2040 C   0  0  0  0  0  2  0  0  0  0  0  0
  197.3570  173.7900  138.8880 O   0  0  0  0  0  1  0  0  0  0  0  0
  196.4310  173.4140  137.9120 C   0  0  2  0  0  3  0  0  0  0  0  0
  197.2450  172.0240  136.0200 C   0  0  0  0  0  1  0  0  0  0  0  0
  197.1360  173.4300  136.5680 C   0  0  0  0  0  2  0  0  0  0  0  0
  2  1  1  0  0  0  0
  2 13  1  1  0  0  0
  4  3  1  0  0  0  0
  5  1  2  0  0  0  0
  6  9  2  0  0  0  0
  7  3  2  0  0  0  0
  7  6  1  0  0  0  0
  8  2  1  0  0  0  0
  9  5  1  0  0  0  0
 10  3  1  6  0  0  0
 10  8  1  0  0  0  0
 10  5  1  0  0  0  0
 12 13  1  0  0  0  0
 12 14  1  0  0  0  0
 13 16  1  0  0  0  0
 14 17  2  0  0  0  0
 15 14  1  0  0  0  0
 16 18  1  0  0  0  0
 16 11  2  0  0  0  0
 17 11  1  0  0  0  0
 18 20  1  0  0  0  0
 19 21  2  0  0  0  0
 20 19  1  0  0  0  0
 22 27  1  0  0  0  0
 23 26  2  0  0  0  0
 24 23  1  0  0  0  0
 24 22  2  0  0  0  0
 25 19  1  0  0  0  0
 26 25  1  0  0  0  0
 27 25  2  0  0  0  0
 28 24  1  0  0  0  0
 29 28  1  0  0  0  0
 30 31  1  0  0  0  0
 30 23  1  0  0  0  0
 31 33  1  0  0  0  0
 33 34  1  0  0  0  0
 33 32  1  6  0  0  0
 34 35  1  0  0  0  0
 35 37  1  0  0  0  0
 37 38  2  0  0  0  0
 37 36  1  0  0  0  0
 39  4  1  0  0  0  0
 40 39  1  0  0  0  0
 41 40  1  0  0  0  0
 42 43  2  0  0  0  0
 43 40  1  0  0  0  0
 43 44  1  0  0  0  0
 45 46  1  0  0  0  0
 45 44  1  0  0  0  0
 46 47  1  1  0  0  0
 48 46  1  0  0  0  0
 48 49  1  1  0  0  0
 48 50  1  0  0  0  0
 50 55  1  0  0  0  0
 51 54  1  0  0  0  0
 52 58  1  1  0  0  0
 52 56  1  0  0  0  0
 53 51  1  0  0  0  0
 55 52  1  0  0  0  0
 55 53  1  0  0  0  0
 56 54  1  0  0  0  0
 58 57  1  1  0  0  0
 59 60  1  0  0  0  0
 60 58  1  0  0  0  0
M  END
>  <MODEL>
8

>  <REMARK>
 VINA RESULT:      -5.7      3.210      9.084
  Name = 
  21 active torsions:
  status: ('A' for Active; 'I' for Inactive)
    1  A    between atoms: C_2  and  C_23
    2  A    between atoms: C_2  and  C_44
    3  A    between atoms: C_3  and  N_11
    4  A    between atoms: C_4  and  C_30
    5  A    between atoms: C_7  and  C_21
    6  A    between atoms: C_7  and  N_50
    7  A    between atoms: N_8  and  C_35
    8  A    between atoms: N_12  and  C_35
    9  A    between atoms: N_12  and  C_51
   10  A    between atoms: C_13  and  O_16
   11  A    between atoms: O_16  and  C_52
   12  A    between atoms: C_17  and  O_42
   13  A    between atoms: C_18  and  C_20
   14  A    between atoms: C_18  and  N_26
   15  A    between atoms: C_20  and  C_52
   16  A    between atoms: C_21  and  C_23
   17  A    between atoms: C_22  and  N_24
   18  A    between atoms: C_22  and  C_55
   19  A    between atoms: C_25  and  C_28
   20  A    between atoms: C_25  and  C_56
   21  A    between atoms: C_44  and  C_51
                            x       y       z     vdW  Elec       q    Type
                         _______ _______ _______ _____ _____    ______ ____

>  <TORSDO>
F 21

$$$$
=
 OpenBabel11042414393D

 60 64  0  0  1  0  0  0  0  0999 V2000
  190.4870  171.9140  140.6310 N   0  0  0  0  0  0  0  0  0  0  0  0
  191.0080  173.1160  139.9860 C   0  0  1  0  0  3  0  0  0  0  0  0
  193.2170  169.9690  139.4560 C   0  0  0  0  0  0  0  0  0  0  0  0
  194.4810  170.1630  138.8140 N   0  0  0  0  0  2  0  0  0  0  0  0
  191.0690  170.8260  140.2510 C   0  0  0  0  0  0  0  0  0  0  0  0
  191.7370  168.6440  140.8200 C   0  0  0  0  0  3  0  0  0  0  0  0
  192.9840  168.8800  140.1400 N   0  0  0  0  0  0  0  0  0  0  0  0
  192.6030  172.6770  139.1940 S   0  0  0  0  0  0  0  0  0  0  0  0
  190.8300  169.5730  140.8930 N   0  0  0  0  0  0  0  0  0  0  0  0
  192.1000  170.9380  139.1920 C   0  0  1  0  0  3  0  0  0  0  0  0
  187.9240  174.6220  138.5360 C   0  0  0  0  0  3  0  0  0  0  0  0
  190.4950  173.7720  137.5890 C   0  0  0  0  0  2  0  0  0  0  0  0
  190.0730  173.6510  138.9940 N   0  0  0  0  0  0  0  0  0  0  0  0
  189.3270  173.9390  136.6570 C   0  0  0  0  0  0  0  0  0  0  0  0
  189.5200  173.7260  135.1960 C   0  0  0  0  0  1  0  0  0  0  0  0
  188.8450  174.2710  139.4320 C   0  0  0  0  0  0  0  0  0  0  0  0
  188.1540  174.3930  137.1020 C   0  0  0  0  0  3  0  0  0  0  0  0
  188.5680  174.5100  140.8820 C   0  0  0  0  0  2  0  0  0  0  0  0
  187.8850  176.7520  141.8860 C   0  0  0  0  0  0  0  0  0  0  0  0
  187.6380  175.6180  141.0410 N   0  0  0  0  0  2  0  0  0  0  0  0
  187.3800  177.8610  141.5660 O   0  0  0  0  0  0  0  0  0  0  0  0
  190.7900  176.7800  144.2140 C   0  0  0  0  0  3  0  0  0  0  0  0
  188.7980  176.4600  145.5540 C   0  0  0  0  0  0  0  0  0  0  0  0
  190.1990  176.6200  145.4810 C   0  0  0  0  0  0  0  0  0  0  0  0
  188.6740  176.6600  143.1360 C   0  0  0  0  0  0  0  0  0  0  0  0
  188.0520  176.4890  144.3730 C   0  0  0  0  0  3  0  0  0  0  0  0
  190.0270  176.8020  143.0890 N   0  0  0  0  0  0  0  0  0  0  0  0
  190.9890  176.6000  146.6370 O   0  0  0  0  0  0  0  0  0  0  0  0
  191.5290  175.4000  147.1820 C   0  0  0  0  0  1  0  0  0  0  0  0
  188.0870  176.2690  146.7480 O   0  0  0  0  0  0  0  0  0  0  0  0
  186.7580  176.7030  147.0160 C   0  0  0  0  0  2  0  0  0  0  0  0
  187.0490  178.6880  148.3280 O   0  0  0  0  0  1  0  0  0  0  0  0
  186.6660  178.2250  147.0670 C   0  0  2  0  0  3  0  0  0  0  0  0
  185.2330  178.6620  146.7960 C   0  0  0  0  0  2  0  0  0  0  0  0
  184.7060  177.9640  145.6330 N   0  0  0  0  0  2  0  0  0  0  0  0
  185.5070  179.7660  144.0300 C   0  0  0  0  0  1  0  0  0  0  0  0
  184.9090  178.4300  144.2970 C   0  0  0  0  0  0  0  0  0  0  0  0
  184.5840  177.7010  143.3270 O   0  0  0  0  0  0  0  0  0  0  0  0
  195.5070  169.1270  138.7410 C   0  0  0  0  0  2  0  0  0  0  0  0
  196.8550  169.6790  138.9140 N   0  0  0  0  0  0  0  0  0  0  0  0
  197.7770  169.0190  139.7390 N   0  0  0  0  0  1  0  0  0  0  0  0
  197.0630  170.7050  136.4570 S   0  0  0  0  0  0  0  0  0  0  0  0
  197.3180  170.7480  138.0780 C   0  0  0  0  0  0  0  0  0  0  0  0
  197.7370  172.0410  138.6970 C   0  0  0  0  0  2  0  0  0  0  0  0
  196.5380  172.8490  139.1630 C   0  0  0  0  0  2  0  0  0  0  0  0
  196.5900  173.0480  140.6680 C   0  0  2  0  0  3  0  0  0  0  0  0
  197.8270  172.6220  141.1660 O   0  0  0  0  0  1  0  0  0  0  0  0
  195.4500  172.2930  141.3460 C   0  0  1  0  0  3  0  0  0  0  0  0
  195.8750  171.0260  141.7560 O   0  0  0  0  0  1  0  0  0  0  0  0
  194.9420  173.0860  142.5450 C   0  0  0  0  0  2  0  0  0  0  0  0
  196.8610  174.1770  145.5420 C   0  0  0  0  0  2  0  0  0  0  0  0
  195.6680  171.7450  144.4640 C   0  0  1  0  0  3  0  0  0  0  0  0
  195.7330  174.1630  144.5100 C   0  0  0  0  0  2  0  0  0  0  0  0
  196.8230  172.9030  146.3850 C   0  0  0  0  0  2  0  0  0  0  0  0
  195.8710  172.9770  143.6650 N   0  0  0  0  0  0  0  0  0  0  0  0
  196.8050  171.6540  145.4940 C   0  0  0  0  0  2  0  0  0  0  0  0
  194.3660  170.8380  146.2880 O   0  0  0  0  0  1  0  0  0  0  0  0
  194.2870  171.6590  145.1610 C   0  0  2  0  0  3  0  0  0  0  0  0
  193.4820  169.6350  143.9660 C   0  0  0  0  0  1  0  0  0  0  0  0
  193.2130  171.0970  144.2480 C   0  0  0  0  0  2  0  0  0  0  0  0
  2 13  1  6  0  0  0
  2  1  1  0  0  0  0
  3  7  2  0  0  0  0
  4  3  1  0  0  0  0
  5  1  2  0  0  0  0
  5  9  1  0  0  0  0
  6  9  2  0  0  0  0
  7  6  1  0  0  0  0
  8  2  1  0  0  0  0
 10  8  1  1  0  0  0
 10  3  1  0  0  0  0
 10  5  1  0  0  0  0
 11 16  2  0  0  0  0
 12 13  1  0  0  0  0
 13 16  1  0  0  0  0
 14 17  2  0  0  0  0
 14 12  1  0  0  0  0
 15 14  1  0  0  0  0
 16 18  1  0  0  0  0
 17 11  1  0  0  0  0
 18 20  1  0  0  0  0
 19 25  1  0  0  0  0
 20 19  1  0  0  0  0
 21 19  2  0  0  0  0
 22 24  1  0  0  0  0
 23 30  1  0  0  0  0
 24 23  2  0  0  0  0
 24 28  1  0  0  0  0
 25 26  2  0  0  0  0
 26 23  1  0  0  0  0
 27 25  1  0  0  0  0
 27 22  2  0  0  0  0
 28 29  1  0  0  0  0
 30 31  1  0  0  0  0
 31 33  1  0  0  0  0
 33 32  1  1  0  0  0
 34 33  1  0  0  0  0
 35 34  1  0  0  0  0
 36 37  1  0  0  0  0
 37 35  1  0  0  0  0
 38 37  2  0  0  0  0
 39  4  1  0  0  0  0
 39 40  1  0  0  0  0
 40 41  1  0  0  0  0
 42 43  2  0  0  0  0
 43 44  1  0  0  0  0
 43 40  1  0  0  0  0
 44 45  1  0  0  0  0
 45 46  1  0  0  0  0
 46 47  1  1  0  0  0
 46 48  1  0  0  0  0
 48 49  1  1  0  0  0
 48 50  1  0  0  0  0
 50 55  1  0  0  0  0
 51 54  1  0  0  0  0
 52 58  1  1  0  0  0
 52 56  1  0  0  0  0
 53 51  1  0  0  0  0
 55 52  1  0  0  0  0
 55 53  1  0  0  0  0
 56 54  1  0  0  0  0
 58 57  1  1  0  0  0
 59 60  1  0  0  0  0
 60 58  1  0  0  0  0
M  END
>  <MODEL>
9

>  <REMARK>
 VINA RESULT:      -5.7      2.656      9.222
  Name = 
  21 active torsions:
  status: ('A' for Active; 'I' for Inactive)
    1  A    between atoms: C_2  and  C_23
    2  A    between atoms: C_2  and  C_44
    3  A    between atoms: C_3  and  N_11
    4  A    between atoms: C_4  and  C_30
    5  A    between atoms: C_7  and  C_21
    6  A    between atoms: C_7  and  N_50
    7  A    between atoms: N_8  and  C_35
    8  A    between atoms: N_12  and  C_35
    9  A    between atoms: N_12  and  C_51
   10  A    between atoms: C_13  and  O_16
   11  A    between atoms: O_16  and  C_52
   12  A    between atoms: C_17  and  O_42
   13  A    between atoms: C_18  and  C_20
   14  A    between atoms: C_18  and  N_26
   15  A    between atoms: C_20  and  C_52
   16  A    between atoms: C_21  and  C_23
   17  A    between atoms: C_22  and  N_24
   18  A    between atoms: C_22  and  C_55
   19  A    between atoms: C_25  and  C_28
   20  A    between atoms: C_25  and  C_56
   21  A    between atoms: C_44  and  C_51
                            x       y       z     vdW  Elec       q    Type
                         _______ _______ _______ _____ _____    ______ ____

>  <TORSDO>
F 21

$$$$
