=
 OpenBabel11042419273D

 40 43  0  0  1  0  0  0  0  0999 V2000
  193.5710  173.3070  142.2430 C   0  0  0  0  0  0  0  0  0  0  0  0
  187.4040  177.3040  141.0520 C   0  0  0  0  0  0  0  0  0  0  0  0
  192.8300  174.3210  142.5090 N   0  0  0  0  0  0  0  0  0  0  0  0
  193.3270  172.4690  141.0320 C   0  0  0  0  0  2  0  0  0  0  0  0
  192.6670  175.7330  144.4700 C   0  0  0  0  0  0  0  0  0  0  0  0
  190.4340  173.4690  141.2440 C   0  0  0  0  0  3  0  0  0  0  0  0
  192.2460  170.3720  141.2840 O   0  0  0  0  0  0  0  0  0  0  0  0
  191.4360  176.2960  143.9970 N   0  0  0  0  0  2  0  0  0  0  0  0
  190.7250  172.1670  141.2430 C   0  0  0  0  0  3  0  0  0  0  0  0
  194.3950  173.9200  144.1690 C   0  0  0  0  0  3  0  0  0  0  0  0
  187.9680  173.0440  141.1120 C   0  0  0  0  0  1  0  0  0  0  0  0
  189.0850  173.9620  141.3200 N   0  0  0  0  0  0  0  0  0  0  0  0
  188.1780  178.0760  141.9260 C   0  0  0  0  0  3  0  0  0  0  0  0
  189.5740  176.1550  142.4230 C   0  0  0  0  0  0  0  0  0  0  0  0
  194.5560  173.0270  143.2420 N   0  0  0  0  0  0  0  0  0  0  0  0
  188.8100  175.3640  141.5300 C   0  0  0  0  0  0  0  0  0  0  0  0
  193.2790  174.7690  143.7700 C   0  0  0  0  0  0  0  0  0  0  0  0
  187.7240  175.9580  140.8640 C   0  0  0  0  0  3  0  0  0  0  0  0
  192.0980  171.6180  141.1940 C   0  0  0  0  0  0  0  0  0  0  0  0
  189.2540  177.5060  142.6070 C   0  0  0  0  0  3  0  0  0  0  0  0
  190.6420  175.5860  143.1150 O   0  0  0  0  0  0  0  0  0  0  0  0
  186.2910  177.8540  140.3350 N   0  0  0  0  0  2  0  0  0  0  0  0
  184.7630  178.1190  142.2450 O   0  0  0  0  0  1  0  0  0  0  0  0
  185.0370  178.2670  140.8900 C   0  0  0  0  0  0  0  0  0  0  0  0
  184.1620  178.7630  140.1360 O   0  0  0  0  0  0  0  0  0  0  0  0
  193.3470  176.3100  146.0240 S   0  0  0  0  0  0  0  0  0  0  0  0
  191.9500  175.6380  146.9690 C   0  0  0  0  0  2  0  0  0  0  0  0
  189.9020  177.0400  147.5250 N   0  0  0  0  0  2  0  0  0  0  0  0
  191.2830  176.7330  147.7300 C   0  0  0  0  0  0  0  0  0  0  0  0
  191.9550  177.4140  148.5470 O   0  0  0  0  0  0  0  0  0  0  0  0
  189.0710  176.2950  146.5900 C   0  0  0  0  0  2  0  0  0  0  0  0
  184.3980  178.3470  146.8250 C   0  0  0  0  0  2  0  0  0  0  0  0
  186.9590  175.9600  144.4510 O   0  0  0  0  0  1  0  0  0  0  0  0
  186.0370  177.9810  145.1040 O   0  0  0  0  0  0  0  0  0  0  0  0
  185.4850  179.0450  147.6410 C   0  0  0  0  0  2  0  0  0  0  0  0
  184.9710  177.3790  145.7950 C   0  0  0  0  0  2  0  0  0  0  0  0
  187.1660  177.1340  145.1840 C   0  0  1  0  0  3  0  0  0  0  0  0
  186.3650  178.0720  148.2740 N   0  0  0  0  0  2  0  0  0  0  0  0
  187.6070  178.0540  147.5130 C   0  0  0  0  0  2  0  0  0  0  0  0
  187.6470  176.8220  146.6180 C   0  0  2  0  0  3  0  0  0  0  0  0
  1  3  2  0  0  0  0
  1 15  1  0  0  0  0
  2 13  1  0  0  0  0
  3 17  1  0  0  0  0
  4 19  1  0  0  0  0
  4  1  1  0  0  0  0
  5 26  1  0  0  0  0
  6 12  1  0  0  0  0
  8  5  1  0  0  0  0
  9  6  2  0  0  0  0
 11 12  1  0  0  0  0
 12 16  1  0  0  0  0
 13 20  2  0  0  0  0
 14 20  1  0  0  0  0
 14 21  1  0  0  0  0
 15 10  2  0  0  0  0
 16 14  2  0  0  0  0
 17 10  1  0  0  0  0
 17  5  2  0  0  0  0
 18  2  2  0  0  0  0
 18 16  1  0  0  0  0
 19  9  1  0  0  0  0
 19  7  2  0  0  0  0
 21  8  1  0  0  0  0
 22 24  1  0  0  0  0
 22  2  1  0  0  0  0
 24 23  1  0  0  0  0
 25 24  2  0  0  0  0
 26 27  1  0  0  0  0
 27 29  1  0  0  0  0
 28 29  1  0  0  0  0
 29 30  2  0  0  0  0
 31 28  1  0  0  0  0
 32 35  1  0  0  0  0
 34 37  1  0  0  0  0
 34 36  1  0  0  0  0
 35 38  1  0  0  0  0
 36 32  1  0  0  0  0
 37 33  1  1  0  0  0
 37 40  1  0  0  0  0
 39 38  1  0  0  0  0
 40 31  1  6  0  0  0
 40 39  1  0  0  0  0
M  END
>  <MODEL>
1

>  <REMARK>
 VINA RESULT:      -7.9      0.000      0.000
  Name = 
  6 active torsions:
  status: ('A' for Active; 'I' for Inactive)
    1  A    between atoms: C_1  and  N_10
    2  A    between atoms: C_1  and  C_34
    3  A    between atoms: C_3  and  N_4
    4  A    between atoms: C_9  and  S_11
    5  A    between atoms: S_11  and  C_37
    6  A    between atoms: C_18  and  C_37
                            x       y       z     vdW  Elec       q    Type
                         _______ _______ _______ _____ _____    ______ ____

>  <TORSDO>
F 6

$$$$
=
 OpenBabel11042419273D

 40 43  0  0  1  0  0  0  0  0999 V2000
  186.2980  177.4380  145.9040 C   0  0  0  0  0  0  0  0  0  0  0  0
  188.8450  173.7960  139.9310 C   0  0  0  0  0  0  0  0  0  0  0  0
  187.1920  176.7100  145.3390 N   0  0  0  0  0  0  0  0  0  0  0  0
  184.9650  177.6570  145.2700 C   0  0  0  0  0  2  0  0  0  0  0  0
  189.5330  176.3470  145.8360 C   0  0  0  0  0  0  0  0  0  0  0  0
  186.4170  177.0740  142.6310 C   0  0  0  0  0  3  0  0  0  0  0  0
  184.5390  179.7160  144.1700 O   0  0  0  0  0  0  0  0  0  0  0  0
  189.7370  175.7240  144.5610 N   0  0  0  0  0  2  0  0  0  0  0  0
  185.7460  178.2120  142.8230 C   0  0  0  0  0  3  0  0  0  0  0  0
  187.9700  177.6990  147.2830 C   0  0  0  0  0  3  0  0  0  0  0  0
  186.8140  177.5740  140.2070 C   0  0  0  0  0  1  0  0  0  0  0  0
  187.0870  176.7680  141.3940 N   0  0  0  0  0  0  0  0  0  0  0  0
  189.7130  173.4460  140.9720 C   0  0  0  0  0  3  0  0  0  0  0  0
  188.8700  175.2770  142.3220 C   0  0  0  0  0  0  0  0  0  0  0  0
  186.7370  178.0650  147.1130 N   0  0  0  0  0  0  0  0  0  0  0  0
  187.9760  175.6350  141.2840 C   0  0  0  0  0  0  0  0  0  0  0  0
  188.3320  176.8460  146.1580 C   0  0  0  0  0  0  0  0  0  0  0  0
  187.9870  174.8860  140.0950 C   0  0  0  0  0  3  0  0  0  0  0  0
  185.0670  178.5770  144.0850 C   0  0  0  0  0  0  0  0  0  0  0  0
  189.7260  174.1810  142.1570 C   0  0  0  0  0  3  0  0  0  0  0  0
  188.8960  176.0170  143.5040 O   0  0  0  0  0  0  0  0  0  0  0  0
  188.8020  173.0660  138.6980 N   0  0  0  0  0  2  0  0  0  0  0  0
  190.8060  174.0480  137.6610 O   0  0  0  0  0  1  0  0  0  0  0  0
  189.7390  173.1570  137.6190 C   0  0  0  0  0  0  0  0  0  0  0  0
  189.5870  172.4260  136.6080 O   0  0  0  0  0  0  0  0  0  0  0  0
  190.9150  176.4840  146.9680 S   0  0  0  0  0  0  0  0  0  0  0  0
  192.1240  176.4580  145.6130 C   0  0  0  0  0  2  0  0  0  0  0  0
  194.4260  175.3980  145.4050 N   0  0  0  0  0  2  0  0  0  0  0  0
  193.0520  175.3040  145.7890 C   0  0  0  0  0  0  0  0  0  0  0  0
  192.6110  174.2230  146.2570 O   0  0  0  0  0  0  0  0  0  0  0  0
  194.9970  176.6160  144.8500 C   0  0  0  0  0  2  0  0  0  0  0  0
  197.2320  175.4640  140.4020 C   0  0  0  0  0  2  0  0  0  0  0  0
  193.5320  176.4310  142.2100 O   0  0  0  0  0  1  0  0  0  0  0  0
  195.1420  174.9400  141.4690 O   0  0  0  0  0  0  0  0  0  0  0  0
  197.9410  174.9720  141.6630 C   0  0  0  0  0  2  0  0  0  0  0  0
  195.7940  175.8960  140.6710 C   0  0  0  0  0  2  0  0  0  0  0  0
  194.5840  175.5920  142.5930 C   0  0  1  0  0  3  0  0  0  0  0  0
  197.8870  175.9760  142.7160 N   0  0  0  0  0  2  0  0  0  0  0  0
  196.8840  175.5410  143.6780 C   0  0  0  0  0  2  0  0  0  0  0  0
  195.6010  176.3390  143.4850 C   0  0  2  0  0  3  0  0  0  0  0  0
  1 15  1  0  0  0  0
  2 18  2  0  0  0  0
  2 13  1  0  0  0  0
  3  1  2  0  0  0  0
  3 17  1  0  0  0  0
  4  1  1  0  0  0  0
  5 17  2  0  0  0  0
  5 26  1  0  0  0  0
  6  9  2  0  0  0  0
  8  5  1  0  0  0  0
  9 19  1  0  0  0  0
 11 12  1  0  0  0  0
 12  6  1  0  0  0  0
 13 20  2  0  0  0  0
 14 21  1  0  0  0  0
 15 10  2  0  0  0  0
 16 12  1  0  0  0  0
 16 14  2  0  0  0  0
 17 10  1  0  0  0  0
 18 16  1  0  0  0  0
 19  7  2  0  0  0  0
 19  4  1  0  0  0  0
 20 14  1  0  0  0  0
 21  8  1  0  0  0  0
 22  2  1  0  0  0  0
 24 23  1  0  0  0  0
 24 22  1  0  0  0  0
 25 24  2  0  0  0  0
 27 29  1  0  0  0  0
 27 26  1  0  0  0  0
 28 29  1  0  0  0  0
 29 30  2  0  0  0  0
 31 28  1  0  0  0  0
 32 36  1  0  0  0  0
 32 35  1  0  0  0  0
 34 37  1  0  0  0  0
 35 38  1  0  0  0  0
 36 34  1  0  0  0  0
 37 33  1  6  0  0  0
 37 40  1  0  0  0  0
 38 39  1  0  0  0  0
 40 39  1  0  0  0  0
 40 31  1  1  0  0  0
M  END
>  <MODEL>
2

>  <REMARK>
 VINA RESULT:      -7.9      2.781      7.732
  Name = 
  6 active torsions:
  status: ('A' for Active; 'I' for Inactive)
    1  A    between atoms: C_1  and  N_10
    2  A    between atoms: C_1  and  C_34
    3  A    between atoms: C_3  and  N_4
    4  A    between atoms: C_9  and  S_11
    5  A    between atoms: S_11  and  C_37
    6  A    between atoms: C_18  and  C_37
                            x       y       z     vdW  Elec       q    Type
                         _______ _______ _______ _____ _____    ______ ____

>  <TORSDO>
F 6

$$$$
=
 OpenBabel11042419273D

 40 43  0  0  1  0  0  0  0  0999 V2000
  187.0450  176.9610  145.8600 C   0  0  0  0  0  0  0  0  0  0  0  0
  189.0520  173.6270  139.5130 C   0  0  0  0  0  0  0  0  0  0  0  0
  187.9110  176.3190  145.1620 N   0  0  0  0  0  0  0  0  0  0  0  0
  185.6250  177.0720  145.4160 C   0  0  0  0  0  2  0  0  0  0  0  0
  190.3210  176.1520  145.3320 C   0  0  0  0  0  0  0  0  0  0  0  0
  186.7480  176.6490  142.5930 C   0  0  0  0  0  3  0  0  0  0  0  0
  184.8820  179.1000  144.4330 O   0  0  0  0  0  0  0  0  0  0  0  0
  190.4010  175.5650  144.0260 N   0  0  0  0  0  2  0  0  0  0  0  0
  186.0170  177.7230  142.9000 C   0  0  0  0  0  3  0  0  0  0  0  0
  188.8610  177.3470  147.0070 C   0  0  0  0  0  3  0  0  0  0  0  0
  186.7690  177.2120  140.1500 C   0  0  0  0  0  1  0  0  0  0  0  0
  187.2660  176.4180  141.2700 N   0  0  0  0  0  0  0  0  0  0  0  0
  190.0790  173.3390  140.4180 C   0  0  0  0  0  3  0  0  0  0  0  0
  189.2770  175.0740  141.9140 C   0  0  0  0  0  0  0  0  0  0  0  0
  187.5900  177.6070  147.0140 N   0  0  0  0  0  0  0  0  0  0  0  0
  188.2240  175.3670  141.0140 C   0  0  0  0  0  0  0  0  0  0  0  0
  189.1370  176.5420  145.8240 C   0  0  0  0  0  0  0  0  0  0  0  0
  188.1360  174.6370  139.8170 C   0  0  0  0  0  3  0  0  0  0  0  0
  185.4870  178.0120  144.2510 C   0  0  0  0  0  0  0  0  0  0  0  0
  190.1920  174.0580  141.6090 C   0  0  0  0  0  3  0  0  0  0  0  0
  189.4020  175.7980  143.0980 O   0  0  0  0  0  0  0  0  0  0  0  0
  188.9030  172.9110  138.2790 N   0  0  0  0  0  2  0  0  0  0  0  0
  190.3980  174.3010  136.9070 O   0  0  0  0  0  1  0  0  0  0  0  0
  189.5530  173.2060  137.0380 C   0  0  0  0  0  0  0  0  0  0  0  0
  189.3470  172.4640  136.0430 O   0  0  0  0  0  0  0  0  0  0  0  0
  191.8280  176.3930  146.2710 S   0  0  0  0  0  0  0  0  0  0  0  0
  192.8070  176.6730  144.7680 C   0  0  0  0  0  2  0  0  0  0  0  0
  195.2250  175.9220  144.5330 N   0  0  0  0  0  2  0  0  0  0  0  0
  194.2510  176.7860  145.1220 C   0  0  0  0  0  0  0  0  0  0  0  0
  194.6130  177.6390  145.9730 O   0  0  0  0  0  0  0  0  0  0  0  0
  194.8730  174.9100  143.5480 C   0  0  0  0  0  2  0  0  0  0  0  0
  195.7210  170.3610  145.7160 C   0  0  0  0  0  2  0  0  0  0  0  0
  192.7010  172.9090  144.2060 O   0  0  0  0  0  1  0  0  0  0  0  0
  194.0420  172.0720  145.8990 O   0  0  0  0  0  0  0  0  0  0  0  0
  196.7750  171.4380  145.9690 C   0  0  0  0  0  2  0  0  0  0  0  0
  194.4190  170.9350  145.1650 C   0  0  0  0  0  2  0  0  0  0  0  0
  193.8300  173.1430  144.9990 C   0  0  1  0  0  3  0  0  0  0  0  0
  197.0190  172.2200  144.7660 N   0  0  0  0  0  2  0  0  0  0  0  0
  196.3470  173.5010  144.9390 C   0  0  0  0  0  2  0  0  0  0  0  0
  195.0530  173.5200  144.1350 C   0  0  2  0  0  3  0  0  0  0  0  0
  1 15  1  0  0  0  0
  2 18  2  0  0  0  0
  2 13  1  0  0  0  0
  3 17  1  0  0  0  0
  3  1  2  0  0  0  0
  4  1  1  0  0  0  0
  5 17  2  0  0  0  0
  5 26  1  0  0  0  0
  6  9  2  0  0  0  0
  8  5  1  0  0  0  0
  9 19  1  0  0  0  0
 10 15  2  0  0  0  0
 11 12  1  0  0  0  0
 12  6  1  0  0  0  0
 13 20  2  0  0  0  0
 14 21  1  0  0  0  0
 16 12  1  0  0  0  0
 16 14  2  0  0  0  0
 17 10  1  0  0  0  0
 18 16  1  0  0  0  0
 19  7  2  0  0  0  0
 19  4  1  0  0  0  0
 20 14  1  0  0  0  0
 21  8  1  0  0  0  0
 22  2  1  0  0  0  0
 23 24  1  0  0  0  0
 24 22  1  0  0  0  0
 25 24  2  0  0  0  0
 27 29  1  0  0  0  0
 27 26  1  0  0  0  0
 28 29  1  0  0  0  0
 29 30  2  0  0  0  0
 31 28  1  0  0  0  0
 32 35  1  0  0  0  0
 36 32  1  0  0  0  0
 36 34  1  0  0  0  0
 37 33  1  6  0  0  0
 37 34  1  0  0  0  0
 38 39  1  0  0  0  0
 38 35  1  0  0  0  0
 40 31  1  1  0  0  0
 40 39  1  0  0  0  0
 40 37  1  0  0  0  0
M  END
>  <MODEL>
3

>  <REMARK>
 VINA RESULT:      -7.9      2.693      7.432
  Name = 
  6 active torsions:
  status: ('A' for Active; 'I' for Inactive)
    1  A    between atoms: C_1  and  N_10
    2  A    between atoms: C_1  and  C_34
    3  A    between atoms: C_3  and  N_4
    4  A    between atoms: C_9  and  S_11
    5  A    between atoms: S_11  and  C_37
    6  A    between atoms: C_18  and  C_37
                            x       y       z     vdW  Elec       q    Type
                         _______ _______ _______ _____ _____    ______ ____

>  <TORSDO>
F 6

$$$$
=
 OpenBabel11042419273D

 40 43  0  0  1  0  0  0  0  0999 V2000
  185.2640  178.8220  143.6040 C   0  0  0  0  0  0  0  0  0  0  0  0
  192.2690  176.5960  144.7920 C   0  0  0  0  0  0  0  0  0  0  0  0
  186.4050  178.4390  143.1550 N   0  0  0  0  0  0  0  0  0  0  0  0
  185.0900  179.2180  145.0320 C   0  0  0  0  0  2  0  0  0  0  0  0
  187.0580  177.4340  141.0510 C   0  0  0  0  0  0  0  0  0  0  0  0
  187.5050  177.4000  145.5580 C   0  0  0  0  0  3  0  0  0  0  0  0
  184.0640  177.6920  146.5320 O   0  0  0  0  0  0  0  0  0  0  0  0
  188.3390  177.0770  141.5870 N   0  0  0  0  0  2  0  0  0  0  0  0
  186.3410  177.2130  146.1840 C   0  0  0  0  0  3  0  0  0  0  0  0
  184.7350  178.2770  141.5590 C   0  0  0  0  0  3  0  0  0  0  0  0
  188.6730  175.6800  146.9590 C   0  0  0  0  0  1  0  0  0  0  0  0
  188.6580  176.5750  145.8050 N   0  0  0  0  0  0  0  0  0  0  0  0
  192.1690  176.7680  143.4060 C   0  0  0  0  0  3  0  0  0  0  0  0
  189.7480  176.8190  143.5650 C   0  0  0  0  0  0  0  0  0  0  0  0
  184.2050  178.7430  142.6470 N   0  0  0  0  0  0  0  0  0  0  0  0
  189.8330  176.6610  144.9700 C   0  0  0  0  0  0  0  0  0  0  0  0
  186.1470  178.0340  141.8280 C   0  0  0  0  0  0  0  0  0  0  0  0
  191.1030  176.5430  145.5600 C   0  0  0  0  0  3  0  0  0  0  0  0
  185.1250  178.0210  145.9410 C   0  0  0  0  0  0  0  0  0  0  0  0
  190.9190  176.8770  142.7980 C   0  0  0  0  0  3  0  0  0  0  0  0
  188.5000  176.9160  142.9510 O   0  0  0  0  0  0  0  0  0  0  0  0
  193.5350  176.4800  145.4540 N   0  0  0  0  0  2  0  0  0  0  0  0
  193.6170  174.0240  145.5830 O   0  0  0  0  0  0  0  0  0  0  0  0
  194.2000  175.2640  145.8170 C   0  0  0  0  0  0  0  0  0  0  0  0
  195.3290  175.3200  146.3680 O   0  0  0  0  0  1  0  0  0  0  0  0
  186.6840  177.0280  139.3470 S   0  0  0  0  0  0  0  0  0  0  0  0
  187.4450  175.3860  139.4930 C   0  0  0  0  0  2  0  0  0  0  0  0
  188.1850  173.5040  137.9510 N   0  0  0  0  0  2  0  0  0  0  0  0
  187.7740  174.8610  138.1370 C   0  0  0  0  0  0  0  0  0  0  0  0
  187.7140  175.6320  137.1450 O   0  0  0  0  0  0  0  0  0  0  0  0
  188.2830  172.5630  139.0560 C   0  0  0  0  0  2  0  0  0  0  0  0
  192.4040  173.2770  141.9910 C   0  0  0  0  0  2  0  0  0  0  0  0
  191.1280  172.1430  138.1190 O   0  0  0  0  0  1  0  0  0  0  0  0
  191.7380  171.6930  140.3080 O   0  0  0  0  0  0  0  0  0  0  0  0
  191.0970  172.9730  142.7220 C   0  0  0  0  0  2  0  0  0  0  0  0
  192.3290  172.9530  140.5020 C   0  0  0  0  0  2  0  0  0  0  0  0
  190.6610  171.8320  139.4010 C   0  0  1  0  0  3  0  0  0  0  0  0
  189.9780  173.6620  142.0950 N   0  0  0  0  0  2  0  0  0  0  0  0
  189.2330  172.6710  141.3310 C   0  0  0  0  0  2  0  0  0  0  0  0
  189.5540  172.8110  139.8480 C   0  0  2  0  0  3  0  0  0  0  0  0
  1  4  1  0  0  0  0
  2 22  1  0  0  0  0
  2 18  1  0  0  0  0
  3  1  2  0  0  0  0
  4 19  1  0  0  0  0
  5  8  1  0  0  0  0
  5 17  2  0  0  0  0
  6 12  1  0  0  0  0
  6  9  2  0  0  0  0
  8 21  1  0  0  0  0
 10 17  1  0  0  0  0
 10 15  2  0  0  0  0
 12 11  1  0  0  0  0
 13  2  2  0  0  0  0
 14 16  1  0  0  0  0
 15  1  1  0  0  0  0
 16 18  2  0  0  0  0
 16 12  1  0  0  0  0
 17  3  1  0  0  0  0
 19  9  1  0  0  0  0
 19  7  2  0  0  0  0
 20 13  1  0  0  0  0
 20 14  2  0  0  0  0
 21 14  1  0  0  0  0
 22 24  1  0  0  0  0
 23 24  2  0  0  0  0
 24 25  1  0  0  0  0
 26 27  1  0  0  0  0
 26  5  1  0  0  0  0
 28 29  1  0  0  0  0
 28 31  1  0  0  0  0
 29 27  1  0  0  0  0
 30 29  2  0  0  0  0
 32 35  1  0  0  0  0
 34 36  1  0  0  0  0
 36 32  1  0  0  0  0
 37 33  1  6  0  0  0
 37 40  1  0  0  0  0
 37 34  1  0  0  0  0
 38 35  1  0  0  0  0
 39 38  1  0  0  0  0
 40 31  1  6  0  0  0
 40 39  1  0  0  0  0
M  END
>  <MODEL>
4

>  <REMARK>
 VINA RESULT:      -7.9      2.754      8.763
  Name = 
  6 active torsions:
  status: ('A' for Active; 'I' for Inactive)
    1  A    between atoms: C_1  and  N_10
    2  A    between atoms: C_1  and  C_34
    3  A    between atoms: C_3  and  N_4
    4  A    between atoms: C_9  and  S_11
    5  A    between atoms: S_11  and  C_37
    6  A    between atoms: C_18  and  C_37
                            x       y       z     vdW  Elec       q    Type
                         _______ _______ _______ _____ _____    ______ ____

>  <TORSDO>
F 6

$$$$
=
 OpenBabel11042419273D

 40 43  0  0  1  0  0  0  0  0999 V2000
  185.1640  178.8350  143.7580 C   0  0  0  0  0  0  0  0  0  0  0  0
  192.2440  176.7380  144.7130 C   0  0  0  0  0  0  0  0  0  0  0  0
  186.3000  178.4870  143.2710 N   0  0  0  0  0  0  0  0  0  0  0  0
  185.0190  179.1970  145.1980 C   0  0  0  0  0  2  0  0  0  0  0  0
  186.9190  177.5420  141.1290 C   0  0  0  0  0  0  0  0  0  0  0  0
  187.4860  177.4210  145.6210 C   0  0  0  0  0  3  0  0  0  0  0  0
  184.0660  177.6170  146.6900 O   0  0  0  0  0  0  0  0  0  0  0  0
  188.2210  177.2010  141.6230 N   0  0  0  0  0  2  0  0  0  0  0  0
  186.3420  177.1960  146.2720 C   0  0  0  0  0  3  0  0  0  0  0  0
  184.5920  178.3230  141.7150 C   0  0  0  0  0  3  0  0  0  0  0  0
  188.7260  175.6980  146.9530 C   0  0  0  0  0  1  0  0  0  0  0  0
  188.6620  176.6160  145.8190 N   0  0  0  0  0  0  0  0  0  0  0  0
  192.1030  176.9370  143.3350 C   0  0  0  0  0  3  0  0  0  0  0  0
  189.6860  176.9320  143.5580 C   0  0  0  0  0  0  0  0  0  0  0  0
  184.0810  178.7540  142.8260 N   0  0  0  0  0  0  0  0  0  0  0  0
  189.8130  176.7460  144.9560 C   0  0  0  0  0  0  0  0  0  0  0  0
  186.0160  178.1050  141.9420 C   0  0  0  0  0  0  0  0  0  0  0  0
  191.1000  176.6430  145.5100 C   0  0  0  0  0  3  0  0  0  0  0  0
  185.1030  177.9820  146.0790 C   0  0  0  0  0  0  0  0  0  0  0  0
  190.8350  177.0320  142.7620 C   0  0  0  0  0  3  0  0  0  0  0  0
  188.4210  177.0150  142.9780 O   0  0  0  0  0  0  0  0  0  0  0  0
  193.5290  176.6350  145.3400 N   0  0  0  0  0  2  0  0  0  0  0  0
  193.5100  174.2080  145.7390 O   0  0  0  0  0  0  0  0  0  0  0  0
  194.1550  175.4370  145.8120 C   0  0  0  0  0  0  0  0  0  0  0  0
  195.3060  175.4990  146.3140 O   0  0  0  0  0  1  0  0  0  0  0  0
  186.5090  177.1640  139.4260 S   0  0  0  0  0  0  0  0  0  0  0  0
  187.3170  175.5410  139.5130 C   0  0  0  0  0  2  0  0  0  0  0  0
  188.1980  173.7650  137.9200 N   0  0  0  0  0  2  0  0  0  0  0  0
  187.6190  175.0540  138.1370 C   0  0  0  0  0  0  0  0  0  0  0  0
  187.3840  175.8010  137.1530 O   0  0  0  0  0  0  0  0  0  0  0  0
  188.5010  172.8550  139.0150 C   0  0  0  0  0  2  0  0  0  0  0  0
  193.5250  173.2290  139.8680 C   0  0  0  0  0  2  0  0  0  0  0  0
  189.7510  173.0070  141.7660 O   0  0  0  0  0  1  0  0  0  0  0  0
  191.5360  174.1610  140.8450 O   0  0  0  0  0  0  0  0  0  0  0  0
  193.0300  173.7270  138.5100 C   0  0  0  0  0  2  0  0  0  0  0  0
  192.3910  173.0470  140.8720 C   0  0  0  0  0  2  0  0  0  0  0  0
  190.2100  173.7110  140.6460 C   0  0  1  0  0  3  0  0  0  0  0  0
  192.0000  172.8460  137.9780 N   0  0  0  0  0  2  0  0  0  0  0  0
  190.7200  173.5170  138.1620 C   0  0  0  0  0  2  0  0  0  0  0  0
  189.9820  172.9070  139.3470 C   0  0  2  0  0  3  0  0  0  0  0  0
  1  4  1  0  0  0  0
  2 22  1  0  0  0  0
  2 18  1  0  0  0  0
  3  1  2  0  0  0  0
  4 19  1  0  0  0  0
  5  8  1  0  0  0  0
  5 17  2  0  0  0  0
  6 12  1  0  0  0  0
  6  9  2  0  0  0  0
  8 21  1  0  0  0  0
 10 17  1  0  0  0  0
 10 15  2  0  0  0  0
 12 11  1  0  0  0  0
 13  2  2  0  0  0  0
 14 16  1  0  0  0  0
 15  1  1  0  0  0  0
 16 18  2  0  0  0  0
 16 12  1  0  0  0  0
 17  3  1  0  0  0  0
 19  9  1  0  0  0  0
 19  7  2  0  0  0  0
 20 13  1  0  0  0  0
 20 14  2  0  0  0  0
 21 14  1  0  0  0  0
 22 24  1  0  0  0  0
 23 24  2  0  0  0  0
 24 25  1  0  0  0  0
 26 27  1  0  0  0  0
 26  5  1  0  0  0  0
 28 29  1  0  0  0  0
 28 31  1  0  0  0  0
 29 27  1  0  0  0  0
 30 29  2  0  0  0  0
 32 36  1  0  0  0  0
 34 36  1  0  0  0  0
 35 32  1  0  0  0  0
 37 34  1  0  0  0  0
 37 33  1  1  0  0  0
 38 39  1  0  0  0  0
 38 35  1  0  0  0  0
 39 40  1  0  0  0  0
 40 31  1  6  0  0  0
 40 37  1  0  0  0  0
M  END
>  <MODEL>
5

>  <REMARK>
 VINA RESULT:      -7.8      2.884      8.996
  Name = 
  6 active torsions:
  status: ('A' for Active; 'I' for Inactive)
    1  A    between atoms: C_1  and  N_10
    2  A    between atoms: C_1  and  C_34
    3  A    between atoms: C_3  and  N_4
    4  A    between atoms: C_9  and  S_11
    5  A    between atoms: S_11  and  C_37
    6  A    between atoms: C_18  and  C_37
                            x       y       z     vdW  Elec       q    Type
                         _______ _______ _______ _____ _____    ______ ____

>  <TORSDO>
F 6

$$$$
=
 OpenBabel11042419273D

 40 43  0  0  1  0  0  0  0  0999 V2000
  194.8190  176.6020  144.6030 C   0  0  0  0  0  0  0  0  0  0  0  0
  189.9300  173.2890  140.0700 C   0  0  0  0  0  0  0  0  0  0  0  0
  193.6110  176.2850  144.3050 N   0  0  0  0  0  0  0  0  0  0  0  0
  195.9240  176.4500  143.6120 C   0  0  0  0  0  2  0  0  0  0  0  0
  191.6150  176.0750  145.6600 C   0  0  0  0  0  0  0  0  0  0  0  0
  194.1400  174.2980  142.3460 C   0  0  0  0  0  3  0  0  0  0  0  0
  197.4020  174.6040  143.8110 O   0  0  0  0  0  0  0  0  0  0  0  0
  190.9310  175.3960  144.5980 N   0  0  0  0  0  2  0  0  0  0  0  0
  195.3850  174.0280  142.7450 C   0  0  0  0  0  3  0  0  0  0  0  0
  193.8280  176.9320  146.5180 C   0  0  0  0  0  3  0  0  0  0  0  0
  193.8700  172.0540  141.2630 C   0  0  0  0  0  1  0  0  0  0  0  0
  193.2930  173.3120  141.7300 N   0  0  0  0  0  0  0  0  0  0  0  0
  189.1520  173.9790  141.0070 C   0  0  0  0  0  3  0  0  0  0  0  0
  191.0860  174.2510  142.4470 C   0  0  0  0  0  0  0  0  0  0  0  0
  194.9960  177.0140  145.9610 N   0  0  0  0  0  0  0  0  0  0  0  0
  191.8900  173.5670  141.5020 C   0  0  0  0  0  0  0  0  0  0  0  0
  192.8950  176.4420  145.5110 C   0  0  0  0  0  0  0  0  0  0  0  0
  191.2880  173.0880  140.3260 C   0  0  0  0  0  3  0  0  0  0  0  0
  196.2800  175.0040  143.4060 C   0  0  0  0  0  0  0  0  0  0  0  0
  189.7250  174.4550  142.1860 C   0  0  0  0  0  3  0  0  0  0  0  0
  191.6520  174.7160  143.6330 O   0  0  0  0  0  0  0  0  0  0  0  0
  189.3780  172.7850  138.8470 N   0  0  0  0  0  2  0  0  0  0  0  0
  190.6180  174.2400  137.2980 O   0  0  0  0  0  1  0  0  0  0  0  0
  189.7120  173.2100  137.5200 C   0  0  0  0  0  0  0  0  0  0  0  0
  189.1650  172.6490  136.5370 O   0  0  0  0  0  0  0  0  0  0  0  0
  190.7460  176.3870  147.1950 S   0  0  0  0  0  0  0  0  0  0  0  0
  189.4490  177.3400  146.3540 C   0  0  0  0  0  2  0  0  0  0  0  0
  186.9640  177.1420  145.8530 N   0  0  0  0  0  2  0  0  0  0  0  0
  188.1670  176.5790  146.3800 C   0  0  0  0  0  0  0  0  0  0  0  0
  188.1410  175.4330  146.8980 O   0  0  0  0  0  0  0  0  0  0  0  0
  186.9240  178.4640  145.2470 C   0  0  0  0  0  2  0  0  0  0  0  0
  185.8690  177.8640  140.2840 C   0  0  0  0  0  2  0  0  0  0  0  0
  184.1570  178.7280  144.0550 O   0  0  0  0  0  1  0  0  0  0  0  0
  184.7960  177.2880  142.3570 O   0  0  0  0  0  0  0  0  0  0  0  0
  187.1260  177.1630  140.7980 C   0  0  0  0  0  2  0  0  0  0  0  0
  184.9500  178.3180  141.4140 C   0  0  0  0  0  2  0  0  0  0  0  0
  185.1140  177.7960  143.6390 C   0  0  1  0  0  3  0  0  0  0  0  0
  187.8410  178.0070  141.7440 N   0  0  0  0  0  2  0  0  0  0  0  0
  187.5750  177.4850  143.0770 C   0  0  0  0  0  2  0  0  0  0  0  0
  186.5450  178.3600  143.7800 C   0  0  2  0  0  3  0  0  0  0  0  0
  1 15  1  0  0  0  0
  2 18  2  0  0  0  0
  2 13  1  0  0  0  0
  3  1  2  0  0  0  0
  3 17  1  0  0  0  0
  4  1  1  0  0  0  0
  5 26  1  0  0  0  0
  6  9  2  0  0  0  0
  8  5  1  0  0  0  0
  9 19  1  0  0  0  0
 11 12  1  0  0  0  0
 12  6  1  0  0  0  0
 13 20  2  0  0  0  0
 14 21  1  0  0  0  0
 15 10  2  0  0  0  0
 16 12  1  0  0  0  0
 16 14  2  0  0  0  0
 17  5  2  0  0  0  0
 17 10  1  0  0  0  0
 18 16  1  0  0  0  0
 19  4  1  0  0  0  0
 19  7  2  0  0  0  0
 20 14  1  0  0  0  0
 21  8  1  0  0  0  0
 22  2  1  0  0  0  0
 23 24  1  0  0  0  0
 24 22  1  0  0  0  0
 25 24  2  0  0  0  0
 27 29  1  0  0  0  0
 27 26  1  0  0  0  0
 28 29  1  0  0  0  0
 29 30  2  0  0  0  0
 31 28  1  0  0  0  0
 32 35  1  0  0  0  0
 32 36  1  0  0  0  0
 34 37  1  0  0  0  0
 35 38  1  0  0  0  0
 36 34  1  0  0  0  0
 37 40  1  0  0  0  0
 37 33  1  6  0  0  0
 38 39  1  0  0  0  0
 39 40  1  0  0  0  0
 40 31  1  1  0  0  0
M  END
>  <MODEL>
6

>  <REMARK>
 VINA RESULT:      -7.7      2.554      4.807
  Name = 
  6 active torsions:
  status: ('A' for Active; 'I' for Inactive)
    1  A    between atoms: C_1  and  N_10
    2  A    between atoms: C_1  and  C_34
    3  A    between atoms: C_3  and  N_4
    4  A    between atoms: C_9  and  S_11
    5  A    between atoms: S_11  and  C_37
    6  A    between atoms: C_18  and  C_37
                            x       y       z     vdW  Elec       q    Type
                         _______ _______ _______ _____ _____    ______ ____

>  <TORSDO>
F 6

$$$$
=
 OpenBabel11042419273D

 40 43  0  0  1  0  0  0  0  0999 V2000
  194.8100  176.4540  144.5510 C   0  0  0  0  0  0  0  0  0  0  0  0
  190.9490  171.0300  141.2190 C   0  0  0  0  0  0  0  0  0  0  0  0
  193.7570  175.7230  144.4670 N   0  0  0  0  0  0  0  0  0  0  0  0
  195.8130  176.4930  143.4470 C   0  0  0  0  0  2  0  0  0  0  0  0
  192.0710  175.1260  146.0990 C   0  0  0  0  0  0  0  0  0  0  0  0
  194.7540  173.7010  142.7390 C   0  0  0  0  0  3  0  0  0  0  0  0
  197.8360  175.2760  143.6880 O   0  0  0  0  0  0  0  0  0  0  0  0
  191.5670  174.0920  145.2420 N   0  0  0  0  0  2  0  0  0  0  0  0
  196.0470  173.9140  142.9960 C   0  0  0  0  0  3  0  0  0  0  0  0
  193.9320  176.7760  146.5220 C   0  0  0  0  0  3  0  0  0  0  0  0
  195.1610  171.3360  142.0150 C   0  0  0  0  0  1  0  0  0  0  0  0
  194.2380  172.4060  142.3840 N   0  0  0  0  0  0  0  0  0  0  0  0
  190.0670  171.5870  142.1520 C   0  0  0  0  0  3  0  0  0  0  0  0
  191.9130  172.7030  143.2640 C   0  0  0  0  0  0  0  0  0  0  0  0
  194.9530  177.1280  145.8040 N   0  0  0  0  0  0  0  0  0  0  0  0
  192.8160  172.1590  142.3180 C   0  0  0  0  0  0  0  0  0  0  0  0
  193.1350  175.8490  145.7270 C   0  0  0  0  0  0  0  0  0  0  0  0
  192.3130  171.3180  141.3110 C   0  0  0  0  0  3  0  0  0  0  0  0
  196.6140  175.2220  143.3910 C   0  0  0  0  0  0  0  0  0  0  0  0
  190.5460  172.4160  143.1670 C   0  0  0  0  0  3  0  0  0  0  0  0
  192.3880  173.5220  144.2870 O   0  0  0  0  0  0  0  0  0  0  0  0
  190.4960  170.1730  140.1620 N   0  0  0  0  0  2  0  0  0  0  0  0
  189.9270  171.9280  138.5350 O   0  0  0  0  0  1  0  0  0  0  0  0
  190.0290  170.5830  138.8720 C   0  0  0  0  0  0  0  0  0  0  0  0
  189.6940  169.7100  138.0320 O   0  0  0  0  0  0  0  0  0  0  0  0
  191.2810  175.4050  147.6830 S   0  0  0  0  0  0  0  0  0  0  0  0
  190.1080  176.5940  146.9730 C   0  0  0  0  0  2  0  0  0  0  0  0
  187.8780  176.4530  145.7590 N   0  0  0  0  0  2  0  0  0  0  0  0
  188.8050  175.9200  146.7070 C   0  0  0  0  0  0  0  0  0  0  0  0
  188.5070  174.8790  147.3480 O   0  0  0  0  0  0  0  0  0  0  0  0
  188.1570  177.6560  144.9900 C   0  0  0  0  0  2  0  0  0  0  0  0
  185.9440  177.5400  140.3860 C   0  0  0  0  0  2  0  0  0  0  0  0
  189.6110  176.9910  142.4220 O   0  0  0  0  0  1  0  0  0  0  0  0
  188.0620  178.2650  141.2640 O   0  0  0  0  0  0  0  0  0  0  0  0
  185.2650  178.4130  141.4410 C   0  0  0  0  0  2  0  0  0  0  0  0
  187.3640  177.1450  140.7800 C   0  0  0  0  0  2  0  0  0  0  0  0
  188.5990  177.9500  142.5340 C   0  0  1  0  0  3  0  0  0  0  0  0
  185.2830  177.7620  142.7440 N   0  0  0  0  0  2  0  0  0  0  0  0
  186.3110  178.4180  143.5410 C   0  0  0  0  0  2  0  0  0  0  0  0
  187.5570  177.5440  143.6000 C   0  0  2  0  0  3  0  0  0  0  0  0
  1 15  1  0  0  0  0
  2 18  2  0  0  0  0
  2 13  1  0  0  0  0
  3  1  2  0  0  0  0
  3 17  1  0  0  0  0
  4  1  1  0  0  0  0
  5 26  1  0  0  0  0
  6  9  2  0  0  0  0
  8  5  1  0  0  0  0
  9 19  1  0  0  0  0
 11 12  1  0  0  0  0
 12  6  1  0  0  0  0
 13 20  2  0  0  0  0
 14 21  1  0  0  0  0
 15 10  2  0  0  0  0
 16 12  1  0  0  0  0
 16 14  2  0  0  0  0
 17  5  2  0  0  0  0
 17 10  1  0  0  0  0
 18 16  1  0  0  0  0
 19  4  1  0  0  0  0
 19  7  2  0  0  0  0
 20 14  1  0  0  0  0
 21  8  1  0  0  0  0
 22  2  1  0  0  0  0
 23 24  1  0  0  0  0
 24 22  1  0  0  0  0
 25 24  2  0  0  0  0
 27 26  1  0  0  0  0
 28 29  1  0  0  0  0
 29 27  1  0  0  0  0
 29 30  2  0  0  0  0
 31 28  1  0  0  0  0
 32 36  1  0  0  0  0
 32 35  1  0  0  0  0
 34 37  1  0  0  0  0
 35 38  1  0  0  0  0
 36 34  1  0  0  0  0
 37 33  1  6  0  0  0
 37 40  1  0  0  0  0
 38 39  1  0  0  0  0
 39 40  1  0  0  0  0
 40 31  1  1  0  0  0
M  END
>  <MODEL>
7

>  <REMARK>
 VINA RESULT:      -7.5      2.584      5.463
  Name = 
  6 active torsions:
  status: ('A' for Active; 'I' for Inactive)
    1  A    between atoms: C_1  and  N_10
    2  A    between atoms: C_1  and  C_34
    3  A    between atoms: C_3  and  N_4
    4  A    between atoms: C_9  and  S_11
    5  A    between atoms: S_11  and  C_37
    6  A    between atoms: C_18  and  C_37
                            x       y       z     vdW  Elec       q    Type
                         _______ _______ _______ _____ _____    ______ ____

>  <TORSDO>
F 6

$$$$
=
 OpenBabel11042419273D

 40 43  0  0  1  0  0  0  0  0999 V2000
  192.8000  173.1510  139.3730 C   0  0  0  0  0  0  0  0  0  0  0  0
  187.3710  177.1040  142.5880 C   0  0  0  0  0  0  0  0  0  0  0  0
  192.4210  174.1080  140.1410 N   0  0  0  0  0  0  0  0  0  0  0  0
  191.8350  172.4550  138.4720 C   0  0  0  0  0  2  0  0  0  0  0  0
  193.5430  175.2760  141.9410 C   0  0  0  0  0  0  0  0  0  0  0  0
  189.7070  173.3510  140.4940 C   0  0  0  0  0  3  0  0  0  0  0  0
  191.0170  170.3170  139.0960 O   0  0  0  0  0  0  0  0  0  0  0  0
  192.3060  175.8590  142.3720 N   0  0  0  0  0  2  0  0  0  0  0  0
  189.8720  172.0650  140.1760 C   0  0  0  0  0  3  0  0  0  0  0  0
  194.6470  173.5540  140.4640 C   0  0  0  0  0  3  0  0  0  0  0  0
  187.6400  172.8820  141.8320 C   0  0  0  0  0  1  0  0  0  0  0  0
  188.7020  173.7970  141.4210 N   0  0  0  0  0  0  0  0  0  0  0  0
  188.5540  177.7880  142.8950 C   0  0  0  0  0  3  0  0  0  0  0  0
  189.8680  175.8570  142.2360 C   0  0  0  0  0  0  0  0  0  0  0  0
  194.1720  172.7810  139.5370 N   0  0  0  0  0  0  0  0  0  0  0  0
  188.6810  175.1580  141.9060 C   0  0  0  0  0  0  0  0  0  0  0  0
  193.5610  174.4160  140.9140 C   0  0  0  0  0  0  0  0  0  0  0  0
  187.4450  175.7980  142.0990 C   0  0  0  0  0  3  0  0  0  0  0  0
  190.9090  171.5610  139.2490 C   0  0  0  0  0  0  0  0  0  0  0  0
  189.7910  177.1680  142.7220 C   0  0  0  0  0  3  0  0  0  0  0  0
  191.1060  175.2380  142.0770 O   0  0  0  0  0  0  0  0  0  0  0  0
  186.0810  177.7060  142.7520 N   0  0  0  0  0  2  0  0  0  0  0  0
  185.6560  176.9540  145.0560 O   0  0  0  0  0  1  0  0  0  0  0  0
  185.2620  177.6630  143.9270 C   0  0  0  0  0  0  0  0  0  0  0  0
  184.1610  178.2690  143.9330 O   0  0  0  0  0  0  0  0  0  0  0  0
  195.0490  175.6830  142.8220 S   0  0  0  0  0  0  0  0  0  0  0  0
  194.9760  174.1570  143.8030 C   0  0  0  0  0  2  0  0  0  0  0  0
  193.6780  174.4010  145.9760 N   0  0  0  0  0  2  0  0  0  0  0  0
  194.9080  174.4940  145.2540 C   0  0  0  0  0  0  0  0  0  0  0  0
  195.9450  174.8920  145.8440 O   0  0  0  0  0  0  0  0  0  0  0  0
  192.4410  173.9560  145.3520 C   0  0  0  0  0  2  0  0  0  0  0  0
  188.5640  176.7250  147.1980 C   0  0  0  0  0  2  0  0  0  0  0  0
  189.6120  172.9280  145.6550 O   0  0  0  0  0  1  0  0  0  0  0  0
  188.8440  175.1030  145.4450 O   0  0  0  0  0  0  0  0  0  0  0  0
  189.7250  177.5090  146.5880 C   0  0  0  0  0  2  0  0  0  0  0  0
  188.5950  175.2470  146.8210 C   0  0  0  0  0  2  0  0  0  0  0  0
  189.9450  174.2320  145.2720 C   0  0  1  0  0  3  0  0  0  0  0  0
  191.0020  176.9070  146.9450 N   0  0  0  0  0  2  0  0  0  0  0  0
  191.4860  176.1920  145.7720 C   0  0  0  0  0  2  0  0  0  0  0  0
  191.2560  174.6970  145.9450 C   0  0  2  0  0  3  0  0  0  0  0  0
  1 15  1  0  0  0  0
  1  3  2  0  0  0  0
  2 22  1  0  0  0  0
  2 13  1  0  0  0  0
  3 17  1  0  0  0  0
  4 19  1  0  0  0  0
  4  1  1  0  0  0  0
  5  8  1  0  0  0  0
  5 26  1  0  0  0  0
  6 12  1  0  0  0  0
  7 19  2  0  0  0  0
  9  6  2  0  0  0  0
 10 17  1  0  0  0  0
 12 11  1  0  0  0  0
 12 16  1  0  0  0  0
 14 20  1  0  0  0  0
 15 10  2  0  0  0  0
 16 18  1  0  0  0  0
 16 14  2  0  0  0  0
 17  5  2  0  0  0  0
 18  2  2  0  0  0  0
 19  9  1  0  0  0  0
 20 13  2  0  0  0  0
 21 14  1  0  0  0  0
 21  8  1  0  0  0  0
 22 24  1  0  0  0  0
 24 25  2  0  0  0  0
 24 23  1  0  0  0  0
 26 27  1  0  0  0  0
 27 29  1  0  0  0  0
 29 30  2  0  0  0  0
 29 28  1  0  0  0  0
 31 28  1  0  0  0  0
 34 36  1  0  0  0  0
 35 38  1  0  0  0  0
 35 32  1  0  0  0  0
 36 32  1  0  0  0  0
 37 34  1  0  0  0  0
 37 33  1  1  0  0  0
 37 40  1  0  0  0  0
 39 40  1  0  0  0  0
 39 38  1  0  0  0  0
 40 31  1  6  0  0  0
M  END
>  <MODEL>
8

>  <REMARK>
 VINA RESULT:      -7.5      2.232      3.313
  Name = 
  6 active torsions:
  status: ('A' for Active; 'I' for Inactive)
    1  A    between atoms: C_1  and  N_10
    2  A    between atoms: C_1  and  C_34
    3  A    between atoms: C_3  and  N_4
    4  A    between atoms: C_9  and  S_11
    5  A    between atoms: S_11  and  C_37
    6  A    between atoms: C_18  and  C_37
                            x       y       z     vdW  Elec       q    Type
                         _______ _______ _______ _____ _____    ______ ____

>  <TORSDO>
F 6

$$$$
=
 OpenBabel11042419273D

 40 43  0  0  1  0  0  0  0  0999 V2000
  195.0650  175.4320  145.0080 C   0  0  0  0  0  0  0  0  0  0  0  0
  190.8750  170.4870  141.3440 C   0  0  0  0  0  0  0  0  0  0  0  0
  193.9540  175.1030  144.4550 N   0  0  0  0  0  0  0  0  0  0  0  0
  196.3010  174.6220  144.7990 C   0  0  0  0  0  2  0  0  0  0  0  0
  191.6940  175.9200  144.7590 C   0  0  0  0  0  0  0  0  0  0  0  0
  194.3700  172.3020  144.2460 C   0  0  0  0  0  3  0  0  0  0  0  0
  197.0150  173.1500  146.5190 O   0  0  0  0  0  0  0  0  0  0  0  0
  191.1620  174.7990  144.0400 N   0  0  0  0  0  2  0  0  0  0  0  0
  195.3050  172.2220  145.1960 C   0  0  0  0  0  3  0  0  0  0  0  0
  193.7270  176.9300  145.8610 C   0  0  0  0  0  3  0  0  0  0  0  0
  193.7350  169.8900  144.4980 C   0  0  0  0  0  1  0  0  0  0  0  0
  193.4690  171.2190  143.9530 N   0  0  0  0  0  0  0  0  0  0  0  0
  190.1190  171.6640  141.3650 C   0  0  0  0  0  3  0  0  0  0  0  0
  191.5540  172.5820  143.0940 C   0  0  0  0  0  0  0  0  0  0  0  0
  194.9700  176.5610  145.8810 N   0  0  0  0  0  0  0  0  0  0  0  0
  192.3380  171.4030  143.0730 C   0  0  0  0  0  0  0  0  0  0  0  0
  193.0120  176.0130  144.9810 C   0  0  0  0  0  0  0  0  0  0  0  0
  191.9750  170.3660  142.1980 C   0  0  0  0  0  3  0  0  0  0  0  0
  196.2330  173.3190  145.5470 C   0  0  0  0  0  0  0  0  0  0  0  0
  190.4550  172.7030  142.2330 C   0  0  0  0  0  3  0  0  0  0  0  0
  191.8770  173.6180  143.9690 O   0  0  0  0  0  0  0  0  0  0  0  0
  190.5620  169.3970  140.4670 N   0  0  0  0  0  2  0  0  0  0  0  0
  191.9210  170.1170  138.5470 O   0  0  0  0  0  1  0  0  0  0  0  0
  191.0690  169.1950  139.1430 C   0  0  0  0  0  0  0  0  0  0  0  0
  190.7270  168.1680  138.5030 O   0  0  0  0  0  0  0  0  0  0  0  0
  190.5690  177.1640  145.3870 S   0  0  0  0  0  0  0  0  0  0  0  0
  190.3190  176.2600  146.9420 C   0  0  0  0  0  2  0  0  0  0  0  0
  187.7920  175.9840  146.8710 N   0  0  0  0  0  2  0  0  0  0  0  0
  189.0990  175.4080  146.8390 C   0  0  0  0  0  0  0  0  0  0  0  0
  189.2250  174.1590  146.7490 O   0  0  0  0  0  0  0  0  0  0  0  0
  187.5770  177.4190  146.9810 C   0  0  0  0  0  2  0  0  0  0  0  0
  184.4620  178.7220  143.1470 C   0  0  0  0  0  2  0  0  0  0  0  0
  185.2170  179.2890  147.2710 O   0  0  0  0  0  1  0  0  0  0  0  0
  184.2040  178.2190  145.4830 O   0  0  0  0  0  0  0  0  0  0  0  0
  185.2040  177.3950  142.9940 C   0  0  0  0  0  2  0  0  0  0  0  0
  184.4980  179.2520  144.5770 C   0  0  0  0  0  2  0  0  0  0  0  0
  185.2350  178.1560  146.4500 C   0  0  1  0  0  3  0  0  0  0  0  0
  186.5740  177.5070  143.4730 N   0  0  0  0  0  2  0  0  0  0  0  0
  186.6330  176.8520  144.7730 C   0  0  0  0  0  2  0  0  0  0  0  0
  186.6470  177.8980  145.8800 C   0  0  2  0  0  3  0  0  0  0  0  0
  1 15  1  0  0  0  0
  2 13  2  0  0  0  0
  2 18  1  0  0  0  0
  3 17  1  0  0  0  0
  3  1  2  0  0  0  0
  4  1  1  0  0  0  0
  4 19  1  0  0  0  0
  5 17  2  0  0  0  0
  5 26  1  0  0  0  0
  6  9  2  0  0  0  0
  8  5  1  0  0  0  0
  9 19  1  0  0  0  0
 10 15  2  0  0  0  0
 12  6  1  0  0  0  0
 12 11  1  0  0  0  0
 13 20  1  0  0  0  0
 14 21  1  0  0  0  0
 16 14  1  0  0  0  0
 16 12  1  0  0  0  0
 17 10  1  0  0  0  0
 18 16  2  0  0  0  0
 19  7  2  0  0  0  0
 20 14  2  0  0  0  0
 21  8  1  0  0  0  0
 22  2  1  0  0  0  0
 23 24  1  0  0  0  0
 24 22  1  0  0  0  0
 25 24  2  0  0  0  0
 26 27  1  0  0  0  0
 28 31  1  0  0  0  0
 29 28  1  0  0  0  0
 29 27  1  0  0  0  0
 30 29  2  0  0  0  0
 32 36  1  0  0  0  0
 34 37  1  0  0  0  0
 35 32  1  0  0  0  0
 35 38  1  0  0  0  0
 36 34  1  0  0  0  0
 37 33  1  6  0  0  0
 38 39  1  0  0  0  0
 39 40  1  0  0  0  0
 40 37  1  0  0  0  0
 40 31  1  1  0  0  0
M  END
>  <MODEL>
9

>  <REMARK>
 VINA RESULT:      -7.4      2.600      5.539
  Name = 
  6 active torsions:
  status: ('A' for Active; 'I' for Inactive)
    1  A    between atoms: C_1  and  N_10
    2  A    between atoms: C_1  and  C_34
    3  A    between atoms: C_3  and  N_4
    4  A    between atoms: C_9  and  S_11
    5  A    between atoms: S_11  and  C_37
    6  A    between atoms: C_18  and  C_37
                            x       y       z     vdW  Elec       q    Type
                         _______ _______ _______ _____ _____    ______ ____

>  <TORSDO>
F 6

$$$$
