=
 OpenBabel11042415213D

 47 52  0  0  1  0  0  0  0  0999 V2000
  183.0230  179.0380  142.7350 N   0  0  0  0  0  0  0  0  0  0  0  0
  183.4770  178.5880  141.4150 C   0  0  2  0  0  3  0  0  0  0  0  0
  186.8750  177.1800  140.3020 C   0  0  0  0  0  3  0  0  0  0  0  0
  185.5790  177.8350  142.7260 C   0  0  0  0  0  0  0  0  0  0  0  0
  186.5380  177.8330  147.6700 S   0  0  0  0  0  0  0  0  0  0  0  0
  183.6730  178.8570  143.8460 C   0  0  0  0  0  3  0  0  0  0  0  0
  184.0440  178.8650  146.7600 C   0  0  0  0  0  1  0  0  0  0  0  0
  186.9050  177.2510  142.7110 N   0  0  0  0  0  0  0  0  0  0  0  0
  187.0460  177.3410  145.1060 C   0  0  0  0  0  0  0  0  0  0  0  0
  187.6930  177.1360  146.4290 C   0  0  2  0  0  3  0  0  0  0  0  0
  187.6080  177.0100  143.9460 C   0  0  0  0  0  2  0  0  0  0  0  0
  185.3470  178.2440  146.3930 C   0  0  1  0  0  3  0  0  0  0  0  0
  187.5250  176.9370  141.4450 C   0  0  0  0  0  0  0  0  0  0  0  0
  182.5720  177.5630  140.9210 N   0  0  0  0  0  1  0  0  0  0  0  0
  185.7320  177.9580  145.1520 C   0  0  0  0  0  0  0  0  0  0  0  0
  184.8870  178.0590  141.4400 C   0  0  0  0  0  0  0  0  0  0  0  0
  185.5130  177.7520  140.2990 C   0  0  0  0  0  3  0  0  0  0  0  0
  184.9930  178.1970  143.8810 C   0  0  0  0  0  0  0  0  0  0  0  0
  190.2380  175.7660  146.4310 N   0  0  0  0  0  0  0  0  0  0  0  0
  189.1620  175.0860  146.6740 C   0  0  0  0  0  3  0  0  0  0  0  0
  187.8780  175.7130  146.6740 N   0  0  0  0  0  2  0  0  0  0  0  0
  191.8540  174.1070  145.4820 C   0  0  0  0  0  2  0  0  0  0  0  0
  192.4920  175.7190  147.3770 C   0  0  0  0  0  2  0  0  0  0  0  0
  193.3140  173.6620  145.5420 C   0  0  0  0  0  2  0  0  0  0  0  0
  193.5360  176.5560  146.6530 C   0  0  0  0  0  2  0  0  0  0  0  0
  194.6760  175.6780  146.1540 C   0  0  0  0  0  2  0  0  0  0  0  0
  194.2350  174.7600  145.0210 C   0  0  0  0  0  2  0  0  0  0  0  0
  191.5210  175.1870  146.4290 N   0  0  0  0  0  0  0  0  0  0  0  0
  188.9020  176.3560  141.3830 C   0  0  0  0  0  2  0  0  0  0  0  0
  188.8320  174.8290  141.3410 C   0  0  1  0  0  3  0  0  0  0  0  0
  188.1910  172.9910  139.9040 C   0  0  0  0  0  1  0  0  0  0  0  0
  188.8890  174.2700  139.9860 N   0  0  0  0  0  2  0  0  0  0  0  0
  189.7740  174.1280  142.3270 C   0  0  0  0  0  2  0  0  0  0  0  0
  191.1260  173.9980  141.8030 N   0  0  0  0  0  0  0  0  0  0  0  0
  192.9770  172.9960  140.9380 C   0  0  0  0  0  0  0  0  0  0  0  0
  192.1920  174.9230  141.9550 C   0  0  0  0  0  0  0  0  0  0  0  0
  193.3910  174.3260  141.4030 C   0  0  0  0  0  0  0  0  0  0  0  0
  192.0950  176.0490  142.5180 O   0  0  0  0  0  0  0  0  0  0  0  0
  191.6770  172.8270  141.1870 C   0  0  0  0  0  3  0  0  0  0  0  0
  194.5740  174.8480  141.3200 N   0  0  0  0  0  0  0  0  0  0  0  0
  193.4930  170.6330  140.4290 C   0  0  0  0  0  1  0  0  0  0  0  0
  193.7740  172.0210  140.3280 O   0  0  0  0  0  0  0  0  0  0  0  0
  194.8370  176.1130  141.7970 O   0  0  0  0  0  0  0  0  0  0  0  0
  196.9470  175.8300  140.6820 C   0  0  0  0  0  1  0  0  0  0  0  0
  196.1220  176.6870  141.6270 C   0  0  2  0  0  3  0  0  0  0  0  0
  196.8280  176.8310  142.9720 C   0  0  0  0  0  2  0  0  0  0  0  0
  197.3070  175.5950  143.4180 O   0  0  0  0  0  1  0  0  0  0  0  0
  1  6  2  0  0  0  0
  2 14  1  1  0  0  0
  2 16  1  0  0  0  0
  2  1  1  0  0  0  0
  3 13  2  0  0  0  0
  4 18  2  0  0  0  0
  6 18  1  0  0  0  0
  8  4  1  0  0  0  0
  8 11  1  0  0  0  0
  9 15  2  0  0  0  0
  9 10  1  0  0  0  0
 10 21  1  1  0  0  0
 10  5  1  0  0  0  0
 11  9  1  0  0  0  0
 12  7  1  6  0  0  0
 12  5  1  0  0  0  0
 13  8  1  0  0  0  0
 15 12  1  0  0  0  0
 16  4  1  0  0  0  0
 17  3  1  0  0  0  0
 17 16  2  0  0  0  0
 18 15  1  0  0  0  0
 19 20  2  0  0  0  0
 20 21  1  0  0  0  0
 22 24  1  0  0  0  0
 22 28  1  0  0  0  0
 25 23  1  0  0  0  0
 26 25  1  0  0  0  0
 27 24  1  0  0  0  0
 27 26  1  0  0  0  0
 28 19  1  0  0  0  0
 28 23  1  0  0  0  0
 29 13  1  0  0  0  0
 30 29  1  6  0  0  0
 30 33  1  0  0  0  0
 31 32  1  0  0  0  0
 32 30  1  0  0  0  0
 34 36  1  0  0  0  0
 34 33  1  0  0  0  0
 35 39  2  0  0  0  0
 35 37  1  0  0  0  0
 36 38  2  0  0  0  0
 37 36  1  0  0  0  0
 39 34  1  0  0  0  0
 40 37  2  0  0  0  0
 40 43  1  0  0  0  0
 42 41  1  0  0  0  0
 42 35  1  0  0  0  0
 45 44  1  6  0  0  0
 45 43  1  0  0  0  0
 45 46  1  0  0  0  0
 46 47  1  0  0  0  0
M  END
>  <MODEL>
1

>  <REMARK>
 VINA RESULT:      -7.4      0.000      0.000
  Name = 
  11 active torsions:
  status: ('A' for Active; 'I' for Inactive)
    1  A    between atoms: N_3  and  C_45
    2  A    between atoms: N_8  and  N_47
    3  A    between atoms: O_11  and  C_15
    4  A    between atoms: C_14  and  C_41
    5  A    between atoms: C_20  and  C_32
    6  A    between atoms: C_20  and  C_35
    7  A    between atoms: C_28  and  N_40
    8  A    between atoms: O_31  and  N_33
    9  A    between atoms: O_31  and  C_41
   10  A    between atoms: C_35  and  N_42
   11  A    between atoms: C_35  and  C_45
                            x       y       z     vdW  Elec       q    Type
                         _______ _______ _______ _____ _____    ______ ____

>  <TORSDO>
F 11

$$$$
=
 OpenBabel11042415213D

 47 52  0  0  1  0  0  0  0  0999 V2000
  196.9370  173.8710  145.6660 N   0  0  0  0  0  0  0  0  0  0  0  0
  197.0560  172.6930  144.7990 C   0  0  0  0  0  0  0  0  0  0  0  0
  194.3380  170.4580  143.2560 C   0  0  0  0  0  3  0  0  0  0  0  0
  194.4800  172.9040  144.6640 C   0  0  2  0  0  3  0  0  0  0  0  0
  191.3760  176.4400  146.4630 S   0  0  0  0  0  0  0  0  0  0  0  0
  195.8260  174.4960  145.9220 C   0  0  0  0  0  3  0  0  0  0  0  0
  194.1680  176.6760  146.9810 C   0  0  0  0  0  1  0  0  0  0  0  0
  193.2170  172.3830  144.1780 N   0  0  0  0  0  0  0  0  0  0  0  0
  192.0130  174.2350  145.1180 C   0  0  0  0  0  0  0  0  0  0  0  0
  190.8020  175.0400  145.4280 C   0  0  2  0  0  3  0  0  0  0  0  0
  191.9910  173.0990  144.4250 C   0  0  0  0  0  2  0  0  0  0  0  0
  193.0790  175.8900  146.3360 C   0  0  1  0  0  3  0  0  0  0  0  0
  193.1990  171.1270  143.4660 C   0  0  0  0  0  0  0  0  0  0  0  0
  197.8370  173.0400  143.6230 N   0  0  0  0  0  1  0  0  0  0  0  0
  193.2570  174.7650  145.6460 C   0  0  0  0  0  0  0  0  0  0  0  0
  195.7160  172.1460  144.3830 C   0  0  0  0  0  0  0  0  0  0  0  0
  195.6360  170.9870  143.7220 C   0  0  0  0  0  3  0  0  0  0  0  0
  194.5310  174.0390  145.3830 C   0  0  0  0  0  0  0  0  0  0  0  0
  188.1560  176.1760  145.1880 N   0  0  0  0  0  0  0  0  0  0  0  0
  188.9060  176.1110  144.1330 C   0  0  0  0  0  3  0  0  0  0  0  0
  190.2170  175.5480  144.1950 N   0  0  0  0  0  2  0  0  0  0  0  0
  186.0690  176.8250  146.4080 C   0  0  0  0  0  2  0  0  0  0  0  0
  186.3660  177.2170  143.8880 C   0  0  0  0  0  2  0  0  0  0  0  0
  184.7320  177.5430  146.2320 C   0  0  0  0  0  2  0  0  0  0  0  0
  186.3550  178.7390  143.8680 C   0  0  0  0  0  2  0  0  0  0  0  0
  185.0510  179.2750  144.4470 C   0  0  0  0  0  2  0  0  0  0  0  0
  184.9470  179.0240  145.9450 C   0  0  0  0  0  2  0  0  0  0  0  0
  186.8610  176.7290  145.1690 N   0  0  0  0  0  0  0  0  0  0  0  0
  191.9160  170.5410  142.9690 C   0  0  0  0  0  2  0  0  0  0  0  0
  191.8210  170.6820  141.4480 C   0  0  1  0  0  3  0  0  0  0  0  0
  190.8320  168.4930  141.7430 C   0  0  0  0  0  1  0  0  0  0  0  0
  191.1850  169.5390  140.7860 N   0  0  0  0  0  2  0  0  0  0  0  0
  191.2840  172.0370  140.9740 C   0  0  0  0  0  2  0  0  0  0  0  0
  192.2520  172.7600  140.1610 N   0  0  0  0  0  0  0  0  0  0  0  0
  193.7460  173.1500  138.4880 C   0  0  0  0  0  0  0  0  0  0  0  0
  192.9680  173.9290  140.5250 C   0  0  0  0  0  0  0  0  0  0  0  0
  193.9240  174.2210  139.4770 C   0  0  0  0  0  0  0  0  0  0  0  0
  192.8100  174.5630  141.6060 O   0  0  0  0  0  0  0  0  0  0  0  0
  192.7880  172.3200  138.9060 C   0  0  0  0  0  3  0  0  0  0  0  0
  194.7530  175.2150  139.4100 N   0  0  0  0  0  0  0  0  0  0  0  0
  195.6380  172.2220  137.1980 C   0  0  0  0  0  1  0  0  0  0  0  0
  194.4390  172.9770  137.2860 O   0  0  0  0  0  0  0  0  0  0  0  0
  194.8260  176.1590  140.4090 O   0  0  0  0  0  0  0  0  0  0  0  0
  197.1870  175.7190  140.3300 C   0  0  0  0  0  1  0  0  0  0  0  0
  196.0530  176.3930  141.0820 C   0  0  2  0  0  3  0  0  0  0  0  0
  195.9840  175.8820  142.5180 C   0  0  0  0  0  2  0  0  0  0  0  0
  196.1550  176.9300  143.4290 O   0  0  0  0  0  1  0  0  0  0  0  0
  1  6  1  0  0  0  0
  2  1  2  0  0  0  0
  3 13  2  0  0  0  0
  3 17  1  0  0  0  0
  4 16  1  1  0  0  0
  4 18  1  0  0  0  0
  8 11  1  0  0  0  0
  8  4  1  0  0  0  0
  9 10  1  0  0  0  0
  9 15  2  0  0  0  0
 10 21  1  6  0  0  0
 10  5  1  0  0  0  0
 11  9  1  0  0  0  0
 12  5  1  0  0  0  0
 12  7  1  1  0  0  0
 13  8  1  0  0  0  0
 14  2  1  0  0  0  0
 15 12  1  0  0  0  0
 16  2  1  0  0  0  0
 17 16  2  0  0  0  0
 18 15  1  0  0  0  0
 18  6  2  0  0  0  0
 20 21  1  0  0  0  0
 20 19  2  0  0  0  0
 23 28  1  0  0  0  0
 24 22  1  0  0  0  0
 25 23  1  0  0  0  0
 25 26  1  0  0  0  0
 26 27  1  0  0  0  0
 27 24  1  0  0  0  0
 28 19  1  0  0  0  0
 28 22  1  0  0  0  0
 29 13  1  0  0  0  0
 30 33  1  1  0  0  0
 30 29  1  0  0  0  0
 32 30  1  0  0  0  0
 32 31  1  0  0  0  0
 34 36  1  0  0  0  0
 34 33  1  0  0  0  0
 35 39  2  0  0  0  0
 35 37  1  0  0  0  0
 36 38  2  0  0  0  0
 37 36  1  0  0  0  0
 39 34  1  0  0  0  0
 40 37  2  0  0  0  0
 40 43  1  0  0  0  0
 41 42  1  0  0  0  0
 42 35  1  0  0  0  0
 43 45  1  0  0  0  0
 45 44  1  6  0  0  0
 45 46  1  0  0  0  0
 46 47  1  0  0  0  0
M  END
>  <MODEL>
2

>  <REMARK>
 VINA RESULT:      -7.0      2.478      7.644
  Name = 
  11 active torsions:
  status: ('A' for Active; 'I' for Inactive)
    1  A    between atoms: N_3  and  C_45
    2  A    between atoms: N_8  and  N_47
    3  A    between atoms: O_11  and  C_15
    4  A    between atoms: C_14  and  C_41
    5  A    between atoms: C_20  and  C_32
    6  A    between atoms: C_20  and  C_35
    7  A    between atoms: C_28  and  N_40
    8  A    between atoms: O_31  and  N_33
    9  A    between atoms: O_31  and  C_41
   10  A    between atoms: C_35  and  N_42
   11  A    between atoms: C_35  and  C_45
                            x       y       z     vdW  Elec       q    Type
                         _______ _______ _______ _____ _____    ______ ____

>  <TORSDO>
F 11

$$$$
=
 OpenBabel11042415213D

 47 52  0  0  1  0  0  0  0  0999 V2000
  197.1080  174.3520  145.1340 N   0  0  0  0  0  0  0  0  0  0  0  0
  197.2320  173.0690  144.4320 C   0  0  2  0  0  3  0  0  0  0  0  0
  194.6170  170.3330  143.7730 C   0  0  0  0  0  3  0  0  0  0  0  0
  194.6680  172.9740  144.7750 C   0  0  0  0  0  0  0  0  0  0  0  0
  191.4760  176.3950  146.6400 S   0  0  0  0  0  0  0  0  0  0  0  0
  195.9840  174.8850  145.5140 C   0  0  0  0  0  3  0  0  0  0  0  0
  194.2550  177.0140  146.5660 C   0  0  0  0  0  1  0  0  0  0  0  0
  193.4230  172.2470  144.6220 N   0  0  0  0  0  0  0  0  0  0  0  0
  192.1610  174.0850  145.5140 C   0  0  0  0  0  0  0  0  0  0  0  0
  190.9250  174.7920  145.9400 C   0  0  2  0  0  3  0  0  0  0  0  0
  192.1740  172.8560  145.0030 C   0  0  0  0  0  2  0  0  0  0  0  0
  193.1880  176.0200  146.2600 C   0  0  1  0  0  3  0  0  0  0  0  0
  193.4520  170.8990  144.1070 C   0  0  0  0  0  0  0  0  0  0  0  0
  197.7370  173.3050  143.0900 N   0  0  0  0  0  1  0  0  0  0  0  0
  193.3940  174.8260  145.7110 C   0  0  0  0  0  0  0  0  0  0  0  0
  195.9280  172.3200  144.3660 C   0  0  0  0  0  0  0  0  0  0  0  0
  195.8920  171.0680  143.8990 C   0  0  0  0  0  3  0  0  0  0  0  0
  194.6890  174.2100  145.3070 C   0  0  0  0  0  0  0  0  0  0  0  0
  188.6350  176.5550  145.9040 N   0  0  0  0  0  0  0  0  0  0  0  0
  188.9520  175.9200  144.8190 C   0  0  0  0  0  3  0  0  0  0  0  0
  190.0680  175.0280  144.7870 N   0  0  0  0  0  2  0  0  0  0  0  0
  187.1930  178.2870  144.8160 C   0  0  0  0  0  2  0  0  0  0  0  0
  186.7910  177.4760  147.2190 C   0  0  0  0  0  2  0  0  0  0  0  0
  185.9290  179.1200  145.0230 C   0  0  0  0  0  2  0  0  0  0  0  0
  185.4390  176.8020  147.0330 C   0  0  0  0  0  2  0  0  0  0  0  0
  184.4090  177.8000  146.5170 C   0  0  0  0  0  2  0  0  0  0  0  0
  184.6960  178.2260  145.0840 C   0  0  0  0  0  2  0  0  0  0  0  0
  187.5480  177.4470  145.9740 N   0  0  0  0  0  0  0  0  0  0  0  0
  192.1940  170.1030  143.9560 C   0  0  0  0  0  2  0  0  0  0  0  0
  191.8640  169.9090  142.4750 C   0  0  1  0  0  3  0  0  0  0  0  0
  191.5460  168.3630  140.6410 C   0  0  0  0  0  1  0  0  0  0  0  0
  192.0320  168.5290  142.0080 N   0  0  0  0  0  2  0  0  0  0  0  0
  190.5390  170.5420  142.0360 C   0  0  0  0  0  2  0  0  0  0  0  0
  190.6890  171.9460  141.6800 N   0  0  0  0  0  0  0  0  0  0  0  0
  191.7310  173.9170  141.2180 C   0  0  0  0  0  0  0  0  0  0  0  0
  189.6910  172.9530  141.7390 C   0  0  0  0  0  0  0  0  0  0  0  0
  190.3120  174.2260  141.4380 C   0  0  0  0  0  0  0  0  0  0  0  0
  188.4830  172.7520  142.0480 O   0  0  0  0  0  0  0  0  0  0  0  0
  191.9250  172.6050  141.3720 C   0  0  0  0  0  3  0  0  0  0  0  0
  189.7470  175.3890  141.3620 N   0  0  0  0  0  0  0  0  0  0  0  0
  193.5130  175.4920  141.8900 C   0  0  0  0  0  1  0  0  0  0  0  0
  192.7580  174.8110  140.8990 O   0  0  0  0  0  0  0  0  0  0  0  0
  188.3990  175.5500  141.5920 O   0  0  0  0  0  0  0  0  0  0  0  0
  188.5370  177.9480  141.6520 C   0  0  0  0  0  1  0  0  0  0  0  0
  187.7420  176.7400  141.1880 C   0  0  2  0  0  3  0  0  0  0  0  0
  186.3230  176.7860  141.7470 C   0  0  0  0  0  2  0  0  0  0  0  0
  185.6950  177.9910  141.4140 O   0  0  0  0  0  1  0  0  0  0  0  0
  1  6  2  0  0  0  0
  2 14  1  6  0  0  0
  2  1  1  0  0  0  0
  3 17  1  0  0  0  0
  3 13  2  0  0  0  0
  4 18  2  0  0  0  0
  8  4  1  0  0  0  0
  8 11  1  0  0  0  0
  9 15  2  0  0  0  0
  9 10  1  0  0  0  0
 10 21  1  6  0  0  0
 10  5  1  0  0  0  0
 11  9  1  0  0  0  0
 12  7  1  1  0  0  0
 12  5  1  0  0  0  0
 13  8  1  0  0  0  0
 15 12  1  0  0  0  0
 16  2  1  0  0  0  0
 16  4  1  0  0  0  0
 17 16  2  0  0  0  0
 18  6  1  0  0  0  0
 18 15  1  0  0  0  0
 19 28  1  0  0  0  0
 20 19  2  0  0  0  0
 21 20  1  0  0  0  0
 22 24  1  0  0  0  0
 22 28  1  0  0  0  0
 24 27  1  0  0  0  0
 25 23  1  0  0  0  0
 26 25  1  0  0  0  0
 27 26  1  0  0  0  0
 28 23  1  0  0  0  0
 29 13  1  0  0  0  0
 30 33  1  1  0  0  0
 30 29  1  0  0  0  0
 31 32  1  0  0  0  0
 32 30  1  0  0  0  0
 34 36  1  0  0  0  0
 34 33  1  0  0  0  0
 35 39  2  0  0  0  0
 35 37  1  0  0  0  0
 36 38  2  0  0  0  0
 37 36  1  0  0  0  0
 39 34  1  0  0  0  0
 40 37  2  0  0  0  0
 40 43  1  0  0  0  0
 42 35  1  0  0  0  0
 42 41  1  0  0  0  0
 45 43  1  0  0  0  0
 45 44  1  1  0  0  0
 45 46  1  0  0  0  0
 47 46  1  0  0  0  0
M  END
>  <MODEL>
3

>  <REMARK>
 VINA RESULT:      -7.0      2.725      8.349
  Name = 
  11 active torsions:
  status: ('A' for Active; 'I' for Inactive)
    1  A    between atoms: N_3  and  C_45
    2  A    between atoms: N_8  and  N_47
    3  A    between atoms: O_11  and  C_15
    4  A    between atoms: C_14  and  C_41
    5  A    between atoms: C_20  and  C_32
    6  A    between atoms: C_20  and  C_35
    7  A    between atoms: C_28  and  N_40
    8  A    between atoms: O_31  and  N_33
    9  A    between atoms: O_31  and  C_41
   10  A    between atoms: C_35  and  N_42
   11  A    between atoms: C_35  and  C_45
                            x       y       z     vdW  Elec       q    Type
                         _______ _______ _______ _____ _____    ______ ____

>  <TORSDO>
F 11

$$$$
=
 OpenBabel11042415213D

 47 52  0  0  1  0  0  0  0  0999 V2000
  197.2610  174.3740  145.0540 N   0  0  0  0  0  0  0  0  0  0  0  0
  197.3920  173.1260  144.2940 C   0  0  2  0  0  3  0  0  0  0  0  0
  194.7670  170.4580  143.4240 C   0  0  0  0  0  3  0  0  0  0  0  0
  194.8180  173.0470  144.5550 C   0  0  0  0  0  0  0  0  0  0  0  0
  191.6100  176.4140  146.4890 S   0  0  0  0  0  0  0  0  0  0  0  0
  196.1330  174.9030  145.4260 C   0  0  0  0  0  3  0  0  0  0  0  0
  194.3980  177.0000  146.5280 C   0  0  0  0  0  1  0  0  0  0  0  0
  193.5700  172.3450  144.3290 N   0  0  0  0  0  0  0  0  0  0  0  0
  192.3030  174.1530  145.2730 C   0  0  0  0  0  0  0  0  0  0  0  0
  191.0630  174.8550  145.6960 C   0  0  2  0  0  3  0  0  0  0  0  0
  192.3170  172.9500  144.7020 C   0  0  0  0  0  2  0  0  0  0  0  0
  193.3290  176.0360  146.1420 C   0  0  1  0  0  3  0  0  0  0  0  0
  193.5990  171.0220  143.7510 C   0  0  0  0  0  0  0  0  0  0  0  0
  197.9410  173.4200  142.9810 N   0  0  0  0  0  1  0  0  0  0  0  0
  193.5380  174.8670  145.5420 C   0  0  0  0  0  0  0  0  0  0  0  0
  196.0820  172.3970  144.1520 C   0  0  0  0  0  0  0  0  0  0  0  0
  196.0460  171.1700  143.6240 C   0  0  0  0  0  3  0  0  0  0  0  0
  194.8370  174.2550  145.1470 C   0  0  0  0  0  0  0  0  0  0  0  0
  188.4210  176.0240  145.7790 N   0  0  0  0  0  0  0  0  0  0  0  0
  188.9460  175.7460  144.6260 C   0  0  0  0  0  3  0  0  0  0  0  0
  190.2430  175.1570  144.5300 N   0  0  0  0  0  2  0  0  0  0  0  0
  186.5910  176.8890  147.2500 C   0  0  0  0  0  2  0  0  0  0  0  0
  186.4380  176.9480  144.6870 C   0  0  0  0  0  2  0  0  0  0  0  0
  185.2490  177.6200  147.2190 C   0  0  0  0  0  2  0  0  0  0  0  0
  186.4370  178.4540  144.4710 C   0  0  0  0  0  2  0  0  0  0  0  0
  185.2610  179.1000  145.1940 C   0  0  0  0  0  2  0  0  0  0  0  0
  185.4230  179.0460  146.7070 C   0  0  0  0  0  2  0  0  0  0  0  0
  187.1490  176.6110  145.9140 N   0  0  0  0  0  0  0  0  0  0  0  0
  192.3370  170.2510  143.5230 C   0  0  0  0  0  2  0  0  0  0  0  0
  191.8760  170.4040  142.0730 C   0  0  1  0  0  3  0  0  0  0  0  0
  193.1760  170.0300  140.0660 C   0  0  0  0  0  1  0  0  0  0  0  0
  192.4440  169.4040  141.1630 N   0  0  0  0  0  2  0  0  0  0  0  0
  190.3630  170.5860  141.9090 C   0  0  0  0  0  2  0  0  0  0  0  0
  190.0280  171.8220  141.2160 N   0  0  0  0  0  0  0  0  0  0  0  0
  189.3870  173.9880  140.9340 C   0  0  0  0  0  0  0  0  0  0  0  0
  189.6950  171.9680  139.8440 C   0  0  0  0  0  0  0  0  0  0  0  0
  189.2910  173.3410  139.6200 C   0  0  0  0  0  0  0  0  0  0  0  0
  189.7120  171.0340  138.9950 O   0  0  0  0  0  0  0  0  0  0  0  0
  189.8010  173.0950  141.8350 C   0  0  0  0  0  3  0  0  0  0  0  0
  188.9350  173.8930  138.5020 N   0  0  0  0  0  0  0  0  0  0  0  0
  187.8130  175.8890  141.0630 C   0  0  0  0  0  1  0  0  0  0  0  0
  189.0990  175.3200  141.2500 O   0  0  0  0  0  0  0  0  0  0  0  0
  188.8850  173.1740  137.3290 O   0  0  0  0  0  0  0  0  0  0  0  0
  189.9140  172.3730  135.3110 C   0  0  0  0  0  1  0  0  0  0  0  0
  189.6710  173.5680  136.2160 C   0  0  2  0  0  3  0  0  0  0  0  0
  190.9960  174.1650  136.6810 C   0  0  0  0  0  2  0  0  0  0  0  0
  191.9200  173.1580  136.9790 O   0  0  0  0  0  1  0  0  0  0  0  0
  1  6  2  0  0  0  0
  2 14  1  6  0  0  0
  2  1  1  0  0  0  0
  3 17  1  0  0  0  0
  3 13  2  0  0  0  0
  4 18  2  0  0  0  0
  8  4  1  0  0  0  0
  8 11  1  0  0  0  0
  9 15  2  0  0  0  0
  9 10  1  0  0  0  0
 10 21  1  6  0  0  0
 10  5  1  0  0  0  0
 11  9  1  0  0  0  0
 12  5  1  0  0  0  0
 12  7  1  1  0  0  0
 13  8  1  0  0  0  0
 15 12  1  0  0  0  0
 16  2  1  0  0  0  0
 16  4  1  0  0  0  0
 17 16  2  0  0  0  0
 18  6  1  0  0  0  0
 18 15  1  0  0  0  0
 19 28  1  0  0  0  0
 20 19  2  0  0  0  0
 21 20  1  0  0  0  0
 23 28  1  0  0  0  0
 24 22  1  0  0  0  0
 25 23  1  0  0  0  0
 25 26  1  0  0  0  0
 26 27  1  0  0  0  0
 27 24  1  0  0  0  0
 28 22  1  0  0  0  0
 29 13  1  0  0  0  0
 30 33  1  1  0  0  0
 30 29  1  0  0  0  0
 31 32  1  0  0  0  0
 32 30  1  0  0  0  0
 34 39  1  0  0  0  0
 34 33  1  0  0  0  0
 35 42  1  0  0  0  0
 35 39  2  0  0  0  0
 36 34  1  0  0  0  0
 37 36  1  0  0  0  0
 37 35  1  0  0  0  0
 38 36  2  0  0  0  0
 40 37  2  0  0  0  0
 41 42  1  0  0  0  0
 43 40  1  0  0  0  0
 45 44  1  6  0  0  0
 45 46  1  0  0  0  0
 45 43  1  0  0  0  0
 46 47  1  0  0  0  0
M  END
>  <MODEL>
4

>  <REMARK>
 VINA RESULT:      -6.9      3.103      8.450
  Name = 
  11 active torsions:
  status: ('A' for Active; 'I' for Inactive)
    1  A    between atoms: N_3  and  C_45
    2  A    between atoms: N_8  and  N_47
    3  A    between atoms: O_11  and  C_15
    4  A    between atoms: C_14  and  C_41
    5  A    between atoms: C_20  and  C_32
    6  A    between atoms: C_20  and  C_35
    7  A    between atoms: C_28  and  N_40
    8  A    between atoms: O_31  and  N_33
    9  A    between atoms: O_31  and  C_41
   10  A    between atoms: C_35  and  N_42
   11  A    between atoms: C_35  and  C_45
                            x       y       z     vdW  Elec       q    Type
                         _______ _______ _______ _____ _____    ______ ____

>  <TORSDO>
F 11

$$$$
=
 OpenBabel11042415213D

 47 52  0  0  1  0  0  0  0  0999 V2000
  190.0040  174.5820  135.3340 N   0  0  0  0  0  0  0  0  0  0  0  0
  188.8600  174.2190  136.1790 C   0  0  2  0  0  3  0  0  0  0  0  0
  188.7580  172.7970  139.7470 C   0  0  0  0  0  3  0  0  0  0  0  0
  190.6850  173.8730  137.9820 C   0  0  0  0  0  0  0  0  0  0  0  0
  195.6320  174.8130  137.8700 S   0  0  0  0  0  0  0  0  0  0  0  0
  191.2360  174.6560  135.7430 C   0  0  0  0  0  3  0  0  0  0  0  0
  194.0880  175.3240  135.5310 C   0  0  0  0  0  1  0  0  0  0  0  0
  191.0340  173.4730  139.3310 N   0  0  0  0  0  0  0  0  0  0  0  0
  193.3360  174.0630  138.9830 C   0  0  0  0  0  0  0  0  0  0  0  0
  194.7620  174.2210  139.3710 C   0  0  2  0  0  3  0  0  0  0  0  0
  192.3920  173.5960  139.7970 C   0  0  0  0  0  2  0  0  0  0  0  0
  194.0950  174.8550  136.9450 C   0  0  1  0  0  3  0  0  0  0  0  0
  190.0130  172.9270  140.1920 C   0  0  0  0  0  0  0  0  0  0  0  0
  187.9760  175.3660  136.3070 N   0  0  0  0  0  1  0  0  0  0  0  0
  193.0230  174.4410  137.6160 C   0  0  0  0  0  0  0  0  0  0  0  0
  189.2810  173.7400  137.5430 C   0  0  0  0  0  0  0  0  0  0  0  0
  188.3800  173.2240  138.3840 C   0  0  0  0  0  3  0  0  0  0  0  0
  191.6200  174.3300  137.1300 C   0  0  0  0  0  0  0  0  0  0  0  0
  196.1060  173.8060  141.8960 N   0  0  0  0  0  0  0  0  0  0  0  0
  195.5650  174.9600  141.6580 C   0  0  0  0  0  3  0  0  0  0  0  0
  194.8790  175.2130  140.4310 N   0  0  0  0  0  2  0  0  0  0  0  0
  197.1630  174.6020  144.0200 C   0  0  0  0  0  2  0  0  0  0  0  0
  197.1000  172.1210  143.3620 C   0  0  0  0  0  2  0  0  0  0  0  0
  197.8140  174.1110  145.3120 C   0  0  0  0  0  2  0  0  0  0  0  0
  196.2030  171.5910  144.4710 C   0  0  0  0  0  2  0  0  0  0  0  0
  196.8160  171.8720  145.8380 C   0  0  0  0  0  2  0  0  0  0  0  0
  196.8070  173.3580  146.1720 C   0  0  0  0  0  2  0  0  0  0  0  0
  196.7960  173.5200  143.0890 N   0  0  0  0  0  0  0  0  0  0  0  0
  190.3340  172.4780  141.5830 C   0  0  0  0  0  2  0  0  0  0  0  0
  189.5180  173.2770  142.6000 C   0  0  1  0  0  3  0  0  0  0  0  0
  190.1050  173.2600  144.9480 C   0  0  0  0  0  1  0  0  0  0  0  0
  189.3500  172.5970  143.8890 N   0  0  0  0  0  2  0  0  0  0  0  0
  189.9430  174.7430  142.7370 C   0  0  0  0  0  2  0  0  0  0  0  0
  188.8170  175.6580  142.6170 N   0  0  0  0  0  0  0  0  0  0  0  0
  187.2210  176.9370  141.6180 C   0  0  0  0  0  0  0  0  0  0  0  0
  188.3220  176.5370  143.6160 C   0  0  0  0  0  0  0  0  0  0  0  0
  187.2910  177.3630  143.0220 C   0  0  0  0  0  0  0  0  0  0  0  0
  188.7540  176.5980  144.8010 O   0  0  0  0  0  0  0  0  0  0  0  0
  188.1120  175.9660  141.4080 C   0  0  0  0  0  3  0  0  0  0  0  0
  186.5710  178.2740  143.5970 N   0  0  0  0  0  0  0  0  0  0  0  0
  186.5830  177.1600  139.2410 C   0  0  0  0  0  1  0  0  0  0  0  0
  186.3790  177.4350  140.6190 O   0  0  0  0  0  0  0  0  0  0  0  0
  186.7340  178.5840  144.9290 O   0  0  0  0  0  0  0  0  0  0  0  0
  185.9160  179.1730  147.1110 C   0  0  0  0  0  1  0  0  0  0  0  0
  185.6760  178.3640  145.8480 C   0  0  2  0  0  3  0  0  0  0  0  0
  185.5530  176.8790  146.1790 C   0  0  0  0  0  2  0  0  0  0  0  0
  186.0740  176.6070  147.4490 O   0  0  0  0  0  1  0  0  0  0  0  0
  1  6  2  0  0  0  0
  1  2  1  0  0  0  0
  2 14  1  1  0  0  0
  2 16  1  0  0  0  0
  3 13  2  0  0  0  0
  4  8  1  0  0  0  0
  5 10  1  0  0  0  0
  6 18  1  0  0  0  0
  8 11  1  0  0  0  0
  8 13  1  0  0  0  0
  9 10  1  0  0  0  0
  9 11  1  0  0  0  0
 10 21  1  1  0  0  0
 12  7  1  6  0  0  0
 12 15  1  0  0  0  0
 12  5  1  0  0  0  0
 13 29  1  0  0  0  0
 15  9  2  0  0  0  0
 16  4  1  0  0  0  0
 16 17  2  0  0  0  0
 17  3  1  0  0  0  0
 18 15  1  0  0  0  0
 18  4  2  0  0  0  0
 19 28  1  0  0  0  0
 20 19  2  0  0  0  0
 21 20  1  0  0  0  0
 22 24  1  0  0  0  0
 23 25  1  0  0  0  0
 24 27  1  0  0  0  0
 25 26  1  0  0  0  0
 26 27  1  0  0  0  0
 28 23  1  0  0  0  0
 28 22  1  0  0  0  0
 30 29  1  6  0  0  0
 30 33  1  0  0  0  0
 30 32  1  0  0  0  0
 32 31  1  0  0  0  0
 34 33  1  0  0  0  0
 34 36  1  0  0  0  0
 35 37  1  0  0  0  0
 36 38  2  0  0  0  0
 37 40  2  0  0  0  0
 37 36  1  0  0  0  0
 39 35  2  0  0  0  0
 39 34  1  0  0  0  0
 40 43  1  0  0  0  0
 41 42  1  0  0  0  0
 42 35  1  0  0  0  0
 43 45  1  0  0  0  0
 45 46  1  0  0  0  0
 45 44  1  1  0  0  0
 46 47  1  0  0  0  0
M  END
>  <MODEL>
5

>  <REMARK>
 VINA RESULT:      -6.7      3.820      8.373
  Name = 
  11 active torsions:
  status: ('A' for Active; 'I' for Inactive)
    1  A    between atoms: N_3  and  C_45
    2  A    between atoms: N_8  and  N_47
    3  A    between atoms: O_11  and  C_15
    4  A    between atoms: C_14  and  C_41
    5  A    between atoms: C_20  and  C_32
    6  A    between atoms: C_20  and  C_35
    7  A    between atoms: C_28  and  N_40
    8  A    between atoms: O_31  and  N_33
    9  A    between atoms: O_31  and  C_41
   10  A    between atoms: C_35  and  N_42
   11  A    between atoms: C_35  and  C_45
                            x       y       z     vdW  Elec       q    Type
                         _______ _______ _______ _____ _____    ______ ____

>  <TORSDO>
F 11

$$$$
=
 OpenBabel11042415213D

 47 52  0  0  1  0  0  0  0  0999 V2000
  185.0570  178.2870  147.0520 N   0  0  0  0  0  0  0  0  0  0  0  0
  186.3150  177.7330  147.5650 C   0  0  0  0  0  0  0  0  0  0  0  0
  188.9820  175.5890  145.8180 C   0  0  0  0  0  3  0  0  0  0  0  0
  186.6720  177.0470  145.0950 C   0  0  2  0  0  3  0  0  0  0  0  0
  183.9640  178.0770  140.9760 S   0  0  0  0  0  0  0  0  0  0  0  0
  184.7040  178.2950  145.8000 C   0  0  0  0  0  3  0  0  0  0  0  0
  183.0470  179.0430  143.4940 C   0  0  0  0  0  1  0  0  0  0  0  0
  187.4870  176.3780  144.1000 N   0  0  0  0  0  0  0  0  0  0  0  0
  186.0170  177.0680  142.3320 C   0  0  0  0  0  0  0  0  0  0  0  0
  185.5530  177.1660  140.9230 C   0  0  2  0  0  3  0  0  0  0  0  0
  187.1190  176.4240  142.7070 C   0  0  0  0  0  2  0  0  0  0  0  0
  184.0940  178.2860  142.7530 C   0  0  1  0  0  3  0  0  0  0  0  0
  188.6570  175.6440  144.5220 C   0  0  0  0  0  0  0  0  0  0  0  0
  187.1280  178.8110  148.1030 N   0  0  0  0  0  1  0  0  0  0  0  0
  185.1630  177.7210  143.3080 C   0  0  0  0  0  0  0  0  0  0  0  0
  187.0870  176.9840  146.5110 C   0  0  0  0  0  0  0  0  0  0  0  0
  188.1780  176.2860  146.8420 C   0  0  0  0  0  3  0  0  0  0  0  0
  185.5430  177.6900  144.7480 C   0  0  0  0  0  0  0  0  0  0  0  0
  186.7020  176.2790  138.4240 N   0  0  0  0  0  0  0  0  0  0  0  0
  187.0520  177.4340  138.8970 C   0  0  0  0  0  3  0  0  0  0  0  0
  186.5230  177.9140  140.1340 N   0  0  0  0  0  2  0  0  0  0  0  0
  187.1070  176.5760  135.9720 C   0  0  0  0  0  2  0  0  0  0  0  0
  187.8130  174.4540  137.2350 C   0  0  0  0  0  2  0  0  0  0  0  0
  187.7810  175.9260  134.7640 C   0  0  0  0  0  2  0  0  0  0  0  0
  189.3240  174.5720  137.0960 C   0  0  0  0  0  2  0  0  0  0  0  0
  189.7270  174.6020  135.6270 C   0  0  0  0  0  2  0  0  0  0  0  0
  189.2940  175.8920  134.9430 C   0  0  0  0  0  2  0  0  0  0  0  0
  187.1960  175.7750  137.2060 N   0  0  0  0  0  0  0  0  0  0  0  0
  189.5110  174.9180  143.5320 C   0  0  0  0  0  2  0  0  0  0  0  0
  189.9200  173.5510  144.0860 C   0  0  1  0  0  3  0  0  0  0  0  0
  188.3590  172.8420  142.3790 C   0  0  0  0  0  1  0  0  0  0  0  0
  189.1380  172.4360  143.5450 N   0  0  0  0  0  2  0  0  0  0  0  0
  191.4320  173.2950  144.0760 C   0  0  0  0  0  2  0  0  0  0  0  0
  192.0540  173.7050  142.8250 N   0  0  0  0  0  0  0  0  0  0  0  0
  192.7640  173.5710  140.6670 C   0  0  0  0  0  0  0  0  0  0  0  0
  192.9800  174.7640  142.6400 C   0  0  0  0  0  0  0  0  0  0  0  0
  193.4490  174.7220  141.2700 C   0  0  0  0  0  0  0  0  0  0  0  0
  193.3490  175.5640  143.5440 O   0  0  0  0  0  0  0  0  0  0  0  0
  191.9770  172.9980  141.5800 C   0  0  0  0  0  3  0  0  0  0  0  0
  194.2810  175.5270  140.6880 N   0  0  0  0  0  0  0  0  0  0  0  0
  191.9780  172.1610  138.7960 C   0  0  0  0  0  1  0  0  0  0  0  0
  192.8810  173.1040  139.3540 O   0  0  0  0  0  0  0  0  0  0  0  0
  194.8600  176.5760  141.3670 O   0  0  0  0  0  0  0  0  0  0  0  0
  196.9310  175.7990  140.4280 C   0  0  0  0  0  1  0  0  0  0  0  0
  196.2700  176.6490  141.5000 C   0  0  2  0  0  3  0  0  0  0  0  0
  196.7030  176.1900  142.8890 C   0  0  0  0  0  2  0  0  0  0  0  0
  196.3820  177.1510  143.8540 O   0  0  0  0  0  1  0  0  0  0  0  0
  1  2  2  0  0  0  0
  2 14  1  0  0  0  0
  3 17  1  0  0  0  0
  4 18  1  1  0  0  0
  4 16  1  0  0  0  0
  5 12  1  0  0  0  0
  6  1  1  0  0  0  0
  8 13  1  0  0  0  0
  8  4  1  0  0  0  0
  9 11  1  0  0  0  0
  9 15  2  0  0  0  0
 10 21  1  6  0  0  0
 10  5  1  0  0  0  0
 10  9  1  0  0  0  0
 11  8  1  0  0  0  0
 12 15  1  0  0  0  0
 12  7  1  1  0  0  0
 13  3  2  0  0  0  0
 15 18  1  0  0  0  0
 16 17  2  0  0  0  0
 16  2  1  0  0  0  0
 18  6  2  0  0  0  0
 19 20  2  0  0  0  0
 20 21  1  0  0  0  0
 22 28  1  0  0  0  0
 24 27  1  0  0  0  0
 24 22  1  0  0  0  0
 25 23  1  0  0  0  0
 26 25  1  0  0  0  0
 27 26  1  0  0  0  0
 28 23  1  0  0  0  0
 28 19  1  0  0  0  0
 29 13  1  0  0  0  0
 30 29  1  6  0  0  0
 31 32  1  0  0  0  0
 32 30  1  0  0  0  0
 33 30  1  0  0  0  0
 34 33  1  0  0  0  0
 35 37  1  0  0  0  0
 35 39  2  0  0  0  0
 36 34  1  0  0  0  0
 36 38  2  0  0  0  0
 37 36  1  0  0  0  0
 39 34  1  0  0  0  0
 40 37  2  0  0  0  0
 40 43  1  0  0  0  0
 41 42  1  0  0  0  0
 42 35  1  0  0  0  0
 43 45  1  0  0  0  0
 45 44  1  6  0  0  0
 45 46  1  0  0  0  0
 46 47  1  0  0  0  0
M  END
>  <MODEL>
6

>  <REMARK>
 VINA RESULT:      -6.7      2.546      5.772
  Name = 
  11 active torsions:
  status: ('A' for Active; 'I' for Inactive)
    1  A    between atoms: N_3  and  C_45
    2  A    between atoms: N_8  and  N_47
    3  A    between atoms: O_11  and  C_15
    4  A    between atoms: C_14  and  C_41
    5  A    between atoms: C_20  and  C_32
    6  A    between atoms: C_20  and  C_35
    7  A    between atoms: C_28  and  N_40
    8  A    between atoms: O_31  and  N_33
    9  A    between atoms: O_31  and  C_41
   10  A    between atoms: C_35  and  N_42
   11  A    between atoms: C_35  and  C_45
                            x       y       z     vdW  Elec       q    Type
                         _______ _______ _______ _____ _____    ______ ____

>  <TORSDO>
F 11

$$$$
=
 OpenBabel11042415213D

 47 52  0  0  1  0  0  0  0  0999 V2000
  184.8750  178.4310  147.1260 N   0  0  0  0  0  0  0  0  0  0  0  0
  186.1270  177.9140  147.6910 C   0  0  0  0  0  0  0  0  0  0  0  0
  188.8840  175.7750  146.0820 C   0  0  0  0  0  3  0  0  0  0  0  0
  186.5720  177.1720  145.2520 C   0  0  2  0  0  3  0  0  0  0  0  0
  183.9720  178.0460  141.0270 S   0  0  0  0  0  0  0  0  0  0  0  0
  184.5610  178.4000  145.8650 C   0  0  0  0  0  3  0  0  0  0  0  0
  182.9620  179.0580  143.4910 C   0  0  0  0  0  1  0  0  0  0  0  0
  187.4280  176.4920  144.2990 N   0  0  0  0  0  0  0  0  0  0  0  0
  186.0000  177.1100  142.4700 C   0  0  0  0  0  0  0  0  0  0  0  0
  185.5790  177.1640  141.0460 C   0  0  2  0  0  3  0  0  0  0  0  0
  187.1020  176.4960  142.8960 C   0  0  0  0  0  2  0  0  0  0  0  0
  184.0440  178.3030  142.8010 C   0  0  1  0  0  3  0  0  0  0  0  0
  188.5970  175.7910  144.7760 C   0  0  0  0  0  0  0  0  0  0  0  0
  186.9040  179.0200  148.2250 N   0  0  0  0  0  1  0  0  0  0  0  0
  185.1060  177.7710  143.4030 C   0  0  0  0  0  0  0  0  0  0  0  0
  186.9440  177.1530  146.6810 C   0  0  0  0  0  0  0  0  0  0  0  0
  188.0360  176.4840  147.0630 C   0  0  0  0  0  3  0  0  0  0  0  0
  185.4430  177.7850  144.8540 C   0  0  0  0  0  0  0  0  0  0  0  0
  186.6830  176.3160  138.5130 N   0  0  0  0  0  0  0  0  0  0  0  0
  187.0640  177.4490  139.0140 C   0  0  0  0  0  3  0  0  0  0  0  0
  186.5580  177.9090  140.2680 N   0  0  0  0  0  2  0  0  0  0  0  0
  187.0950  176.6760  136.0710 C   0  0  0  0  0  2  0  0  0  0  0  0
  187.7150  174.4870  137.2610 C   0  0  0  0  0  2  0  0  0  0  0  0
  187.7390  176.0400  134.8400 C   0  0  0  0  0  2  0  0  0  0  0  0
  189.2290  174.5470  137.1210 C   0  0  0  0  0  2  0  0  0  0  0  0
  189.6310  174.6090  135.6530 C   0  0  0  0  0  2  0  0  0  0  0  0
  189.2500  175.9380  135.0130 C   0  0  0  0  0  2  0  0  0  0  0  0
  187.1530  175.8320  137.2780 N   0  0  0  0  0  0  0  0  0  0  0  0
  189.4940  175.0560  143.8320 C   0  0  0  0  0  2  0  0  0  0  0  0
  190.7260  175.9010  143.5030 C   0  0  1  0  0  3  0  0  0  0  0  0
  191.0850  178.2940  143.5250 C   0  0  0  0  0  1  0  0  0  0  0  0
  190.4110  177.1810  142.8610 N   0  0  0  0  0  2  0  0  0  0  0  0
  191.7280  176.0280  144.6560 C   0  0  0  0  0  2  0  0  0  0  0  0
  193.0100  175.4120  144.3430 N   0  0  0  0  0  0  0  0  0  0  0  0
  195.0800  175.1710  143.4250 C   0  0  0  0  0  0  0  0  0  0  0  0
  193.3550  174.0420  144.4800 C   0  0  0  0  0  0  0  0  0  0  0  0
  194.6750  173.8490  143.9180 C   0  0  0  0  0  0  0  0  0  0  0  0
  192.6020  173.1560  144.9720 O   0  0  0  0  0  0  0  0  0  0  0  0
  194.1050  176.0500  143.6720 C   0  0  0  0  0  3  0  0  0  0  0  0
  195.3650  172.7530  143.8660 N   0  0  0  0  0  0  0  0  0  0  0  0
  197.0250  176.6690  143.1430 C   0  0  0  0  0  1  0  0  0  0  0  0
  196.2780  175.5140  142.7910 O   0  0  0  0  0  0  0  0  0  0  0  0
  194.8720  171.5680  144.3650 O   0  0  0  0  0  0  0  0  0  0  0  0
  196.8200  171.4870  145.7700 C   0  0  0  0  0  1  0  0  0  0  0  0
  195.3830  171.0360  145.5770 C   0  0  2  0  0  3  0  0  0  0  0  0
  195.2970  169.5120  145.5710 C   0  0  0  0  0  2  0  0  0  0  0  0
  193.9640  169.0880  145.5020 O   0  0  0  0  0  1  0  0  0  0  0  0
  1  2  2  0  0  0  0
  2 14  1  0  0  0  0
  3 17  1  0  0  0  0
  4 18  1  1  0  0  0
  4 16  1  0  0  0  0
  5 10  1  0  0  0  0
  5 12  1  0  0  0  0
  6  1  1  0  0  0  0
  8 13  1  0  0  0  0
  8  4  1  0  0  0  0
  9 11  1  0  0  0  0
  9 15  2  0  0  0  0
 10 21  1  6  0  0  0
 10  9  1  0  0  0  0
 11  8  1  0  0  0  0
 12 15  1  0  0  0  0
 12  7  1  1  0  0  0
 13  3  2  0  0  0  0
 15 18  1  0  0  0  0
 16 17  2  0  0  0  0
 16  2  1  0  0  0  0
 18  6  2  0  0  0  0
 19 20  2  0  0  0  0
 20 21  1  0  0  0  0
 22 28  1  0  0  0  0
 23 28  1  0  0  0  0
 24 27  1  0  0  0  0
 24 22  1  0  0  0  0
 25 23  1  0  0  0  0
 26 25  1  0  0  0  0
 27 26  1  0  0  0  0
 28 19  1  0  0  0  0
 29 13  1  0  0  0  0
 30 29  1  1  0  0  0
 30 33  1  0  0  0  0
 32 30  1  0  0  0  0
 32 31  1  0  0  0  0
 34 36  1  0  0  0  0
 34 33  1  0  0  0  0
 35 39  2  0  0  0  0
 35 37  1  0  0  0  0
 36 38  2  0  0  0  0
 37 36  1  0  0  0  0
 39 34  1  0  0  0  0
 40 37  2  0  0  0  0
 40 43  1  0  0  0  0
 42 41  1  0  0  0  0
 42 35  1  0  0  0  0
 43 45  1  0  0  0  0
 45 44  1  6  0  0  0
 46 45  1  0  0  0  0
 47 46  1  0  0  0  0
M  END
>  <MODEL>
7

>  <REMARK>
 VINA RESULT:      -6.7      3.077      6.532
  Name = 
  11 active torsions:
  status: ('A' for Active; 'I' for Inactive)
    1  A    between atoms: N_3  and  C_45
    2  A    between atoms: N_8  and  N_47
    3  A    between atoms: O_11  and  C_15
    4  A    between atoms: C_14  and  C_41
    5  A    between atoms: C_20  and  C_32
    6  A    between atoms: C_20  and  C_35
    7  A    between atoms: C_28  and  N_40
    8  A    between atoms: O_31  and  N_33
    9  A    between atoms: O_31  and  C_41
   10  A    between atoms: C_35  and  N_42
   11  A    between atoms: C_35  and  C_45
                            x       y       z     vdW  Elec       q    Type
                         _______ _______ _______ _____ _____    ______ ____

>  <TORSDO>
F 11

$$$$
=
 OpenBabel11042415213D

 47 52  0  0  1  0  0  0  0  0999 V2000
  183.2380  179.0070  142.8040 N   0  0  0  0  0  0  0  0  0  0  0  0
  183.7550  178.5760  141.5010 C   0  0  2  0  0  3  0  0  0  0  0  0
  187.2100  177.2040  140.5280 C   0  0  0  0  0  3  0  0  0  0  0  0
  185.8000  177.8220  142.8980 C   0  0  0  0  0  0  0  0  0  0  0  0
  186.5320  177.7670  147.8800 S   0  0  0  0  0  0  0  0  0  0  0  0
  183.8380  178.8170  143.9420 C   0  0  0  0  0  3  0  0  0  0  0  0
  184.0740  178.7930  146.8690 C   0  0  0  0  0  1  0  0  0  0  0  0
  187.1300  177.2460  142.9370 N   0  0  0  0  0  0  0  0  0  0  0  0
  187.1600  177.3080  145.3370 C   0  0  0  0  0  0  0  0  0  0  0  0
  187.7470  177.0920  146.6850 C   0  0  2  0  0  3  0  0  0  0  0  0
  187.7770  176.9950  144.2000 C   0  0  0  0  0  2  0  0  0  0  0  0
  185.3980  178.1860  146.5550 C   0  0  1  0  0  3  0  0  0  0  0  0
  187.8080  176.9510  141.6970 C   0  0  0  0  0  0  0  0  0  0  0  0
  182.8810  177.5510  140.9540 N   0  0  0  0  0  1  0  0  0  0  0  0
  185.8410  177.9160  145.3300 C   0  0  0  0  0  0  0  0  0  0  0  0
  185.1660  178.0560  141.5840 C   0  0  0  0  0  0  0  0  0  0  0  0
  185.8450  177.7660  140.4700 C   0  0  0  0  0  3  0  0  0  0  0  0
  185.1590  178.1660  144.0290 C   0  0  0  0  0  0  0  0  0  0  0  0
  190.2530  175.6740  146.4360 N   0  0  0  0  0  0  0  0  0  0  0  0
  189.1960  175.0170  146.7960 C   0  0  0  0  0  3  0  0  0  0  0  0
  187.9300  175.6670  146.9220 N   0  0  0  0  0  2  0  0  0  0  0  0
  191.7690  174.0730  145.2520 C   0  0  0  0  0  2  0  0  0  0  0  0
  192.5560  175.4960  147.2390 C   0  0  0  0  0  2  0  0  0  0  0  0
  193.2180  173.5950  145.1850 C   0  0  0  0  0  2  0  0  0  0  0  0
  193.5780  176.3730  146.5290 C   0  0  0  0  0  2  0  0  0  0  0  0
  194.6650  175.5190  145.8870 C   0  0  0  0  0  2  0  0  0  0  0  0
  194.1350  174.7140  144.7070 C   0  0  0  0  0  2  0  0  0  0  0  0
  191.5180  175.0710  146.3070 N   0  0  0  0  0  0  0  0  0  0  0  0
  189.1910  176.3800  141.6910 C   0  0  0  0  0  2  0  0  0  0  0  0
  189.1350  174.8540  141.6060 C   0  0  1  0  0  3  0  0  0  0  0  0
  188.7530  172.7640  142.7640 C   0  0  0  0  0  1  0  0  0  0  0  0
  189.0240  174.1910  142.9090 N   0  0  0  0  0  2  0  0  0  0  0  0
  188.1460  174.3170  140.5650 C   0  0  0  0  0  2  0  0  0  0  0  0
  188.7750  174.0890  139.2720 N   0  0  0  0  0  0  0  0  0  0  0  0
  189.0460  174.1130  137.0110 C   0  0  0  0  0  0  0  0  0  0  0  0
  189.8240  173.1780  138.9820 C   0  0  0  0  0  0  0  0  0  0  0  0
  190.0370  173.1730  137.5490 C   0  0  0  0  0  0  0  0  0  0  0  0
  190.4220  172.4720  139.8410 O   0  0  0  0  0  0  0  0  0  0  0  0
  188.3280  174.6180  138.0170 C   0  0  0  0  0  3  0  0  0  0  0  0
  190.9180  172.4990  136.8780 N   0  0  0  0  0  0  0  0  0  0  0  0
  188.1340  175.6300  135.2860 C   0  0  0  0  0  1  0  0  0  0  0  0
  188.8410  174.4610  135.6730 O   0  0  0  0  0  0  0  0  0  0  0  0
  191.7970  171.6440  137.5030 O   0  0  0  0  0  0  0  0  0  0  0  0
  191.2590  170.0950  135.7460 C   0  0  0  0  0  1  0  0  0  0  0  0
  191.8420  170.2740  137.1370 C   0  0  2  0  0  3  0  0  0  0  0  0
  191.0830  169.4230  138.1500 C   0  0  0  0  0  2  0  0  0  0  0  0
  189.7150  169.3970  137.8530 O   0  0  0  0  0  1  0  0  0  0  0  0
  1  6  2  0  0  0  0
  2 14  1  1  0  0  0
  2 16  1  0  0  0  0
  2  1  1  0  0  0  0
  3 13  2  0  0  0  0
  4  8  1  0  0  0  0
  4 18  2  0  0  0  0
  6 18  1  0  0  0  0
  8 11  1  0  0  0  0
  9 10  1  0  0  0  0
 10 21  1  1  0  0  0
 10  5  1  0  0  0  0
 11  9  1  0  0  0  0
 12  7  1  6  0  0  0
 12  5  1  0  0  0  0
 13  8  1  0  0  0  0
 15  9  2  0  0  0  0
 15 12  1  0  0  0  0
 16  4  1  0  0  0  0
 17  3  1  0  0  0  0
 17 16  2  0  0  0  0
 18 15  1  0  0  0  0
 19 20  2  0  0  0  0
 20 21  1  0  0  0  0
 22 28  1  0  0  0  0
 24 22  1  0  0  0  0
 25 23  1  0  0  0  0
 26 25  1  0  0  0  0
 27 24  1  0  0  0  0
 27 26  1  0  0  0  0
 28 19  1  0  0  0  0
 28 23  1  0  0  0  0
 29 13  1  0  0  0  0
 30 33  1  6  0  0  0
 30 29  1  0  0  0  0
 30 32  1  0  0  0  0
 31 32  1  0  0  0  0
 34 33  1  0  0  0  0
 35 37  1  0  0  0  0
 35 39  2  0  0  0  0
 36 34  1  0  0  0  0
 36 38  2  0  0  0  0
 37 36  1  0  0  0  0
 39 34  1  0  0  0  0
 40 43  1  0  0  0  0
 40 37  2  0  0  0  0
 41 42  1  0  0  0  0
 42 35  1  0  0  0  0
 45 44  1  6  0  0  0
 45 43  1  0  0  0  0
 45 46  1  0  0  0  0
 47 46  1  0  0  0  0
M  END
>  <MODEL>
8

>  <REMARK>
 VINA RESULT:      -6.6      2.527      4.093
  Name = 
  11 active torsions:
  status: ('A' for Active; 'I' for Inactive)
    1  A    between atoms: N_3  and  C_45
    2  A    between atoms: N_8  and  N_47
    3  A    between atoms: O_11  and  C_15
    4  A    between atoms: C_14  and  C_41
    5  A    between atoms: C_20  and  C_32
    6  A    between atoms: C_20  and  C_35
    7  A    between atoms: C_28  and  N_40
    8  A    between atoms: O_31  and  N_33
    9  A    between atoms: O_31  and  C_41
   10  A    between atoms: C_35  and  N_42
   11  A    between atoms: C_35  and  C_45
                            x       y       z     vdW  Elec       q    Type
                         _______ _______ _______ _____ _____    ______ ____

>  <TORSDO>
F 11

$$$$
=
 OpenBabel11042415213D

 47 52  0  0  1  0  0  0  0  0999 V2000
  184.9780  178.3360  147.1070 N   0  0  0  0  0  0  0  0  0  0  0  0
  186.2330  177.7960  147.6410 C   0  0  0  0  0  0  0  0  0  0  0  0
  188.9360  175.6540  145.9450 C   0  0  0  0  0  3  0  0  0  0  0  0
  186.6250  177.0910  145.1810 C   0  0  2  0  0  3  0  0  0  0  0  0
  183.9600  178.0680  141.0200 S   0  0  0  0  0  0  0  0  0  0  0  0
  184.6400  178.3310  145.8520 C   0  0  0  0  0  3  0  0  0  0  0  0
  183.0060  179.0490  143.5190 C   0  0  0  0  0  1  0  0  0  0  0  0
  187.4570  176.4190  144.2010 N   0  0  0  0  0  0  0  0  0  0  0  0
  186.0030  177.0850  142.4100 C   0  0  0  0  0  0  0  0  0  0  0  0
  185.5570  177.1680  140.9950 C   0  0  2  0  0  3  0  0  0  0  0  0
  187.1050  176.4510  142.8050 C   0  0  0  0  0  2  0  0  0  0  0  0
  184.0670  178.2930  142.7970 C   0  0  1  0  0  3  0  0  0  0  0  0
  188.6260  175.6960  144.6450 C   0  0  0  0  0  0  0  0  0  0  0  0
  187.0320  178.8830  148.1790 N   0  0  0  0  0  1  0  0  0  0  0  0
  185.1330  177.7400  143.3710 C   0  0  0  0  0  0  0  0  0  0  0  0
  187.0230  177.0430  146.6030 C   0  0  0  0  0  0  0  0  0  0  0  0
  188.1140  176.3550  146.9530 C   0  0  0  0  0  3  0  0  0  0  0  0
  185.4960  177.7240  144.8150 C   0  0  0  0  0  0  0  0  0  0  0  0
  186.6880  176.3000  138.4810 N   0  0  0  0  0  0  0  0  0  0  0  0
  187.0510  177.4450  138.9670 C   0  0  0  0  0  3  0  0  0  0  0  0
  186.5310  177.9160  140.2120 N   0  0  0  0  0  2  0  0  0  0  0  0
  187.0890  176.6230  136.0320 C   0  0  0  0  0  2  0  0  0  0  0  0
  187.7740  174.4770  137.2650 C   0  0  0  0  0  2  0  0  0  0  0  0
  187.7510  175.9810  134.8140 C   0  0  0  0  0  2  0  0  0  0  0  0
  189.2860  174.5790  137.1240 C   0  0  0  0  0  2  0  0  0  0  0  0
  189.6850  174.6240  135.6540 C   0  0  0  0  0  2  0  0  0  0  0  0
  189.2650  175.9270  134.9880 C   0  0  0  0  0  2  0  0  0  0  0  0
  187.1720  175.8050  137.2550 N   0  0  0  0  0  0  0  0  0  0  0  0
  189.4970  174.9680  143.6710 C   0  0  0  0  0  2  0  0  0  0  0  0
  189.6200  173.4950  144.0680 C   0  0  1  0  0  3  0  0  0  0  0  0
  189.1600  173.0820  141.7290 C   0  0  0  0  0  1  0  0  0  0  0  0
  189.0410  172.5690  143.0900 N   0  0  0  0  0  2  0  0  0  0  0  0
  191.0200  173.0850  144.5400 C   0  0  0  0  0  2  0  0  0  0  0  0
  192.0280  174.0840  144.2130 N   0  0  0  0  0  0  0  0  0  0  0  0
  193.2510  175.9960  144.3810 C   0  0  0  0  0  0  0  0  0  0  0  0
  192.7040  174.2390  142.9750 C   0  0  0  0  0  0  0  0  0  0  0  0
  193.5070  175.4430  143.0450 C   0  0  0  0  0  0  0  0  0  0  0  0
  192.5760  173.4700  141.9820 O   0  0  0  0  0  0  0  0  0  0  0  0
  192.3920  175.2050  145.0280 C   0  0  0  0  0  3  0  0  0  0  0  0
  194.2940  175.9290  142.1380 N   0  0  0  0  0  0  0  0  0  0  0  0
  194.4370  177.1740  146.2010 C   0  0  0  0  0  1  0  0  0  0  0  0
  193.7890  177.1600  144.9380 O   0  0  0  0  0  0  0  0  0  0  0  0
  194.4490  175.3130  140.9160 O   0  0  0  0  0  0  0  0  0  0  0  0
  196.7350  176.0230  140.6990 C   0  0  0  0  0  1  0  0  0  0  0  0
  195.7350  174.9000  140.4820 C   0  0  2  0  0  3  0  0  0  0  0  0
  195.7000  174.4910  139.0120 C   0  0  0  0  0  2  0  0  0  0  0  0
  194.8010  175.2890  138.2950 O   0  0  0  0  0  1  0  0  0  0  0  0
  1  2  2  0  0  0  0
  2 14  1  0  0  0  0
  3 17  1  0  0  0  0
  4 18  1  1  0  0  0
  4 16  1  0  0  0  0
  5 12  1  0  0  0  0
  6  1  1  0  0  0  0
  8 13  1  0  0  0  0
  8  4  1  0  0  0  0
  9 11  1  0  0  0  0
  9 15  2  0  0  0  0
 10 21  1  6  0  0  0
 10  5  1  0  0  0  0
 10  9  1  0  0  0  0
 11  8  1  0  0  0  0
 12 15  1  0  0  0  0
 12  7  1  1  0  0  0
 13  3  2  0  0  0  0
 15 18  1  0  0  0  0
 16 17  2  0  0  0  0
 16  2  1  0  0  0  0
 18  6  2  0  0  0  0
 19 20  2  0  0  0  0
 20 21  1  0  0  0  0
 22 28  1  0  0  0  0
 24 27  1  0  0  0  0
 24 22  1  0  0  0  0
 25 23  1  0  0  0  0
 26 25  1  0  0  0  0
 27 26  1  0  0  0  0
 28 23  1  0  0  0  0
 28 19  1  0  0  0  0
 29 13  1  0  0  0  0
 30 29  1  6  0  0  0
 30 33  1  0  0  0  0
 31 32  1  0  0  0  0
 32 30  1  0  0  0  0
 34 33  1  0  0  0  0
 34 39  1  0  0  0  0
 35 42  1  0  0  0  0
 35 39  2  0  0  0  0
 36 37  1  0  0  0  0
 36 34  1  0  0  0  0
 37 35  1  0  0  0  0
 38 36  2  0  0  0  0
 40 37  2  0  0  0  0
 42 41  1  0  0  0  0
 43 40  1  0  0  0  0
 45 44  1  6  0  0  0
 45 43  1  0  0  0  0
 46 45  1  0  0  0  0
 47 46  1  0  0  0  0
M  END
>  <MODEL>
9

>  <REMARK>
 VINA RESULT:      -6.6      2.677      6.161
  Name = 
  11 active torsions:
  status: ('A' for Active; 'I' for Inactive)
    1  A    between atoms: N_3  and  C_45
    2  A    between atoms: N_8  and  N_47
    3  A    between atoms: O_11  and  C_15
    4  A    between atoms: C_14  and  C_41
    5  A    between atoms: C_20  and  C_32
    6  A    between atoms: C_20  and  C_35
    7  A    between atoms: C_28  and  N_40
    8  A    between atoms: O_31  and  N_33
    9  A    between atoms: O_31  and  C_41
   10  A    between atoms: C_35  and  N_42
   11  A    between atoms: C_35  and  C_45
                            x       y       z     vdW  Elec       q    Type
                         _______ _______ _______ _____ _____    ______ ____

>  <TORSDO>
F 11

$$$$
