=
 OpenBabel11042415263D

 63 69  0  0  1  0  0  0  0  0999 V2000
  192.3920  173.8070  145.1160 C   0  0  2  0  0  3  0  0  0  0  0  0
  190.7930  175.5450  144.1790 C   0  0  0  0  0  2  0  0  0  0  0  0
  191.7930  175.6500  142.1070 C   0  0  0  0  0  2  0  0  0  0  0  0
  192.1230  174.2700  142.6480 C   0  0  0  0  0  2  0  0  0  0  0  0
  191.3930  174.1640  143.9860 C   0  0  1  0  0  0  0  0  0  0  0  0
  190.6360  176.1220  142.8450 N   0  0  0  0  0  0  0  0  0  0  0  0
  189.7270  172.7640  142.6280 N   0  0  0  0  0  2  0  0  0  0  0  0
  190.2780  173.1450  143.8960 C   0  0  0  0  0  0  0  0  0  0  0  0
  189.8080  172.6340  144.9490 O   0  0  0  0  0  0  0  0  0  0  0  0
  188.7120  171.8690  142.5500 O   0  0  0  0  0  0  0  0  0  0  0  0
  187.6030  172.6090  142.1250 C   0  0  0  0  0  1  0  0  0  0  0  0
  191.6420  178.2530  143.7760 C   0  0  0  0  0  1  0  0  0  0  0  0
  190.6210  177.5940  142.8470 C   0  0  2  0  0  3  0  0  0  0  0  0
  185.6840  177.6510  146.2230 C   0  0  0  0  0  2  0  0  0  0  0  0
  185.6130  179.6070  144.4090 O   0  0  0  0  0  1  0  0  0  0  0  0
  189.2090  178.1490  143.0630 C   0  0  1  0  0  3  0  0  0  0  0  0
  187.4010  177.0210  144.5020 C   0  0  2  0  0  3  0  0  0  0  0  0
  188.2840  177.5000  142.1340 N   0  0  1  0  0  0  0  0  0  0  0  0
  186.8170  176.6940  145.8750 C   0  0  0  0  0  2  0  0  0  0  0  0
  184.7050  177.6270  145.2080 O   0  0  0  0  0  0  0  0  0  0  0  0
  187.1000  178.3550  142.4070 C   0  0  2  0  0  3  0  0  0  0  0  0
  188.7000  177.8790  144.5280 C   0  0  0  0  0  2  0  0  0  0  0  0
  186.3560  177.4920  143.4300 C   0  0  2  0  0  3  0  0  0  0  0  0
  185.2210  178.3020  144.0820 C   0  0  2  0  0  3  0  0  0  0  0  0
  187.6020  178.1990  141.0440 C   0  0  2  0  0  3  0  0  0  0  0  0
  185.3880  177.6160  140.0420 O   0  0  0  0  0  1  0  0  0  0  0  0
  186.7080  177.2610  140.2900 C   0  0  0  0  0  0  0  0  0  0  0  0
  187.1470  176.1570  139.8630 O   0  0  0  0  0  0  0  0  0  0  0  0
  192.7670  174.9870  146.0450 C   0  0  1  0  0  3  0  0  0  0  0  0
  192.1900  174.7190  147.4100 C   0  0  0  0  0  3  0  0  0  0  0  0
  191.3730  175.5110  148.0230 N   0  0  0  0  0  0  0  0  0  0  0  0
  190.9190  176.7590  147.4720 C   0  0  0  0  0  1  0  0  0  0  0  0
  194.2780  175.2380  146.1240 C   0  0  0  0  0  2  0  0  0  0  0  0
  194.7060  176.4350  145.2920 C   0  0  0  0  0  2  0  0  0  0  0  0
  196.5330  174.8160  144.8860 C   0  0  0  0  0  1  0  0  0  0  0  0
  195.8720  176.0890  144.3830 C   0  0  1  0  0  3  0  0  0  0  0  0
  196.0220  176.7540  142.0840 O   0  0  0  0  0  1  0  0  0  0  0  0
  195.3890  175.8690  142.9590 C   0  0  0  0  0  2  0  0  0  0  0  0
  193.6070  173.0120  144.6190 C   0  0  0  0  0  2  0  0  0  0  0  0
  197.3960  169.8700  144.3310 C   0  0  0  0  0  3  0  0  0  0  0  0
  194.9680  171.0230  145.0310 C   0  0  0  0  0  0  0  0  0  0  0  0
  195.0390  170.1550  143.9730 C   0  0  0  0  0  0  0  0  0  0  0  0
  193.7760  170.0070  143.3560 N   0  0  0  0  0  0  0  0  0  0  0  0
  193.5900  171.5890  145.1490 C   0  0  2  0  0  3  0  0  0  0  0  0
  196.2430  169.5660  143.5850 C   0  0  0  0  0  3  0  0  0  0  0  0
  192.7820  170.7240  144.1530 C   0  0  0  0  0  2  0  0  0  0  0  0
  197.3260  170.7630  145.4190 C   0  0  0  0  0  3  0  0  0  0  0  0
  196.1030  171.3570  145.7740 C   0  0  0  0  0  3  0  0  0  0  0  0
  193.5520  169.4440  142.0310 C   0  0  0  0  0  2  0  0  0  0  0  0
  192.3440  170.1260  141.3800 C   0  0  0  0  0  2  0  0  0  0  0  0
  192.6890  171.3770  140.8540 O   0  0  0  0  0  0  0  0  0  0  0  0
  191.9700  171.5310  139.6560 C   0  0  2  0  0  3  0  0  0  0  0  0
  191.9370  170.2180  138.8750 C   0  0  0  0  0  1  0  0  0  0  0  0
  193.5290  173.3450  139.5740 O   0  0  0  0  0  1  0  0  0  0  0  0
  192.6240  172.6150  138.7940 C   0  0  2  0  0  3  0  0  0  0  0  0
  189.5420  174.7010  136.0630 C   0  0  0  0  0  3  0  0  0  0  0  0
  189.0170  173.5610  138.2340 C   0  0  0  0  0  0  0  0  0  0  0  0
  190.2240  173.2160  138.7140 C   0  0  0  0  0  3  0  0  0  0  0  0
  191.5730  173.5350  138.1560 C   0  0  2  0  0  3  0  0  0  0  0  0
  191.0350  174.6970  136.0910 C   0  0  0  0  0  2  0  0  0  0  0  0
  191.5850  173.4040  136.6460 C   0  0  0  0  0  2  0  0  0  0  0  0
  188.7540  174.2380  136.9890 N   0  0  0  0  0  0  0  0  0  0  0  0
  187.9380  173.1860  138.9660 F   0  0  0  0  0  0  0  0  0  0  0  0
  1 39  1  6  0  0  0
  1 29  1  0  0  0  0
  3  4  1  0  0  0  0
  3  6  1  0  0  0  0
  4  5  1  0  0  0  0
  5  8  1  6  0  0  0
  5  2  1  0  0  0  0
  5  1  1  0  0  0  0
  6 13  1  0  0  0  0
  6  2  1  0  0  0  0
  7  8  1  0  0  0  0
  8  9  2  0  0  0  0
 10  7  1  0  0  0  0
 11 10  1  0  0  0  0
 13 12  1  1  0  0  0
 16 13  1  1  0  0  0
 16 22  1  0  0  0  0
 17 22  1  1  0  0  0
 17 19  1  0  0  0  0
 18 21  1  0  0  0  0
 18 16  1  0  0  0  0
 19 14  1  0  0  0  0
 20 14  1  0  0  0  0
 21 23  1  0  0  0  0
 23 24  1  0  0  0  0
 23 17  1  0  0  0  0
 24 15  1  0  0  0  0
 24 20  1  0  0  0  0
 25 18  1  0  0  0  0
 25 21  1  0  0  0  0
 26 27  1  0  0  0  0
 27 25  1  0  0  0  0
 28 27  2  0  0  0  0
 29 33  1  0  0  0  0
 29 30  1  0  0  0  0
 30 31  2  0  0  0  0
 32 31  1  0  0  0  0
 34 33  1  0  0  0  0
 36 35  1  0  0  0  0
 36 34  1  0  0  0  0
 37 38  1  0  0  0  0
 38 36  1  0  0  0  0
 39 44  1  0  0  0  0
 40 47  1  0  0  0  0
 41 44  1  0  0  0  0
 41 48  1  0  0  0  0
 42 41  2  0  0  0  0
 43 42  1  0  0  0  0
 43 46  1  0  0  0  0
 45 42  1  0  0  0  0
 45 40  2  0  0  0  0
 46 44  1  0  0  0  0
 47 48  2  0  0  0  0
 49 43  1  0  0  0  0
 50 49  1  0  0  0  0
 51 50  1  0  0  0  0
 52 51  1  0  0  0  0
 53 52  1  0  0  0  0
 55 54  1  0  0  0  0
 55 52  1  0  0  0  0
 56 60  1  0  0  0  0
 56 62  2  0  0  0  0
 57 58  2  0  0  0  0
 57 63  1  0  0  0  0
 59 58  1  0  0  0  0
 59 55  1  0  0  0  0
 60 61  1  0  0  0  0
 61 59  1  0  0  0  0
 62 57  1  0  0  0  0
M  END
>  <MODEL>
1

>  <REMARK>
 VINA RESULT:      -6.9      0.000      0.000
  Name = 
  20 active torsions:
  status: ('A' for Active; 'I' for Inactive)
    1  A    between atoms: C_2  and  O_14
    2  A    between atoms: C_2  and  C_27
    3  A    between atoms: C_5  and  C_35
    4  A    between atoms: C_5  and  C_41
    5  A    between atoms: C_8  and  O_14
    6  A    between atoms: C_8  and  C_23
    7  A    between atoms: O_9  and  N_22
    8  A    between atoms: C_10  and  C_41
    9  A    between atoms: C_20  and  C_62
   10  A    between atoms: C_23  and  C_45
   11  A    between atoms: C_26  and  C_35
   12  A    between atoms: C_26  and  C_46
   13  A    between atoms: C_27  and  N_37
   14  A    between atoms: C_33  and  C_59
   15  A    between atoms: C_36  and  C_43
   16  A    between atoms: C_36  and  C_61
   17  A    between atoms: C_38  and  C_60
   18  A    between atoms: C_41  and  C_61
   19  A    between atoms: N_57  and  C_62
   20  A    between atoms: C_60  and  C_61
                            x       y       z     vdW  Elec       q    Type
                         _______ _______ _______ _____ _____    ______ ____

>  <TORSDO>
F 20

$$$$
=
 OpenBabel11042415263D

 63 69  0  0  1  0  0  0  0  0999 V2000
  191.6780  174.4070  143.6590 C   0  0  2  0  0  3  0  0  0  0  0  0
  189.3280  175.3550  143.4730 C   0  0  0  0  0  2  0  0  0  0  0  0
  188.4330  173.4920  142.4550 C   0  0  0  0  0  2  0  0  0  0  0  0
  189.6280  172.9890  143.2450 C   0  0  0  0  0  2  0  0  0  0  0  0
  190.1760  174.2070  143.9880 C   0  0  1  0  0  0  0  0  0  0  0  0
  188.0630  174.7730  143.0290 N   0  0  0  0  0  0  0  0  0  0  0  0
  190.2900  175.1150  146.3840 N   0  0  0  0  0  2  0  0  0  0  0  0
  189.9560  174.0560  145.4780 C   0  0  0  0  0  0  0  0  0  0  0  0
  189.4900  172.9780  145.9380 O   0  0  0  0  0  0  0  0  0  0  0  0
  190.1160  174.9710  147.7210 O   0  0  0  0  0  0  0  0  0  0  0  0
  191.2650  175.5160  148.3020 C   0  0  0  0  0  1  0  0  0  0  0  0
  188.1740  175.8450  140.7360 C   0  0  0  0  0  1  0  0  0  0  0  0
  187.3730  175.5870  142.0140 C   0  0  2  0  0  3  0  0  0  0  0  0
  185.0870  178.3670  146.7890 C   0  0  0  0  0  2  0  0  0  0  0  0
  185.6680  180.1200  144.8630 O   0  0  0  0  0  1  0  0  0  0  0  0
  186.8090  176.8810  142.6080 C   0  0  1  0  0  3  0  0  0  0  0  0
  185.3140  176.9990  144.6970 C   0  0  2  0  0  3  0  0  0  0  0  0
  185.4420  177.0820  142.1290 N   0  0  1  0  0  0  0  0  0  0  0  0
  185.1570  176.9590  146.2150 C   0  0  0  0  0  2  0  0  0  0  0  0
  184.0480  179.0900  146.1660 O   0  0  0  0  0  0  0  0  0  0  0  0
  185.2470  178.4550  142.6630 C   0  0  2  0  0  3  0  0  0  0  0  0
  186.7720  176.8260  144.1810 C   0  0  0  0  0  2  0  0  0  0  0  0
  184.5220  178.1470  143.9770 C   0  0  2  0  0  3  0  0  0  0  0  0
  184.4590  179.4100  144.8560 C   0  0  2  0  0  3  0  0  0  0  0  0
  185.0430  178.1770  141.2440 C   0  0  2  0  0  3  0  0  0  0  0  0
  182.6680  178.6410  141.8690 O   0  0  0  0  0  1  0  0  0  0  0  0
  183.5730  178.1170  140.9550 C   0  0  0  0  0  0  0  0  0  0  0  0
  183.1490  177.6070  139.8800 O   0  0  0  0  0  0  0  0  0  0  0  0
  191.9840  175.6110  142.7380 C   0  0  1  0  0  3  0  0  0  0  0  0
  192.6060  176.7010  143.5710 C   0  0  0  0  0  3  0  0  0  0  0  0
  192.0470  177.8400  143.8150 N   0  0  0  0  0  0  0  0  0  0  0  0
  190.7540  178.2100  143.3080 C   0  0  0  0  0  1  0  0  0  0  0  0
  192.8770  175.2500  141.5450 C   0  0  0  0  0  2  0  0  0  0  0  0
  194.2550  175.8830  141.6460 C   0  0  0  0  0  2  0  0  0  0  0  0
  194.6660  175.0180  139.3630 C   0  0  0  0  0  1  0  0  0  0  0  0
  195.2580  175.1700  140.7550 C   0  0  1  0  0  3  0  0  0  0  0  0
  197.2430  175.6440  139.4960 O   0  0  0  0  0  1  0  0  0  0  0  0
  196.5480  175.9690  140.6620 C   0  0  0  0  0  2  0  0  0  0  0  0
  192.3770  173.1120  143.2230 C   0  0  0  0  0  2  0  0  0  0  0  0
  197.2680  172.8240  143.7760 C   0  0  0  0  0  3  0  0  0  0  0  0
  194.5410  172.7130  144.2900 C   0  0  0  0  0  0  0  0  0  0  0  0
  195.2020  171.6030  143.8340 C   0  0  0  0  0  0  0  0  0  0  0  0
  194.3110  170.5190  143.6630 N   0  0  0  0  0  0  0  0  0  0  0  0
  193.0750  172.4410  144.3930 C   0  0  2  0  0  3  0  0  0  0  0  0
  196.5680  171.6240  143.5530 C   0  0  0  0  0  3  0  0  0  0  0  0
  192.9990  170.9120  144.1750 C   0  0  0  0  0  2  0  0  0  0  0  0
  196.5910  173.9680  144.2450 C   0  0  0  0  0  3  0  0  0  0  0  0
  195.2090  173.9210  144.4980 C   0  0  0  0  0  3  0  0  0  0  0  0
  194.5930  169.3160  142.8920 C   0  0  0  0  0  2  0  0  0  0  0  0
  194.3610  169.5940  141.4020 C   0  0  0  0  0  2  0  0  0  0  0  0
  193.0480  169.2800  141.0260 O   0  0  0  0  0  0  0  0  0  0  0  0
  192.5890  170.3380  140.2200 C   0  0  2  0  0  3  0  0  0  0  0  0
  193.6120  171.4720  140.1870 C   0  0  0  0  0  1  0  0  0  0  0  0
  190.6990  169.9140  141.6250 O   0  0  0  0  0  1  0  0  0  0  0  0
  191.2620  170.8690  140.7700 C   0  0  2  0  0  3  0  0  0  0  0  0
  189.0070  172.8140  137.2440 C   0  0  0  0  0  3  0  0  0  0  0  0
  190.2040  170.6120  137.1600 C   0  0  0  0  0  0  0  0  0  0  0  0
  190.5970  170.4140  138.4300 C   0  0  0  0  0  3  0  0  0  0  0  0
  190.2940  171.2400  139.6370 C   0  0  2  0  0  3  0  0  0  0  0  0
  189.0500  173.1080  138.7070 C   0  0  0  0  0  2  0  0  0  0  0  0
  190.3750  172.7200  139.3200 C   0  0  0  0  0  2  0  0  0  0  0  0
  189.4790  171.7530  136.6580 N   0  0  0  0  0  0  0  0  0  0  0  0
  190.5750  169.6750  136.2510 F   0  0  0  0  0  0  0  0  0  0  0  0
  1 39  1  6  0  0  0
  1  5  1  0  0  0  0
  2  5  1  0  0  0  0
  3  6  1  0  0  0  0
  3  4  1  0  0  0  0
  4  5  1  0  0  0  0
  5  8  1  1  0  0  0
  6  2  1  0  0  0  0
  7 10  1  0  0  0  0
  8  9  2  0  0  0  0
  8  7  1  0  0  0  0
 10 11  1  0  0  0  0
 13 12  1  6  0  0  0
 13  6  1  0  0  0  0
 16 13  1  6  0  0  0
 16 22  1  0  0  0  0
 17 22  1  1  0  0  0
 17 19  1  0  0  0  0
 18 16  1  0  0  0  0
 18 21  1  0  0  0  0
 19 14  1  0  0  0  0
 20 14  1  0  0  0  0
 21 23  1  0  0  0  0
 23 17  1  0  0  0  0
 23 24  1  0  0  0  0
 24 15  1  0  0  0  0
 24 20  1  0  0  0  0
 25 18  1  0  0  0  0
 25 21  1  0  0  0  0
 27 25  1  0  0  0  0
 27 26  1  0  0  0  0
 28 27  2  0  0  0  0
 29 30  1  0  0  0  0
 29  1  1  0  0  0  0
 30 31  2  0  0  0  0
 32 31  1  0  0  0  0
 33 34  1  0  0  0  0
 33 29  1  0  0  0  0
 35 36  1  0  0  0  0
 36 34  1  0  0  0  0
 37 38  1  0  0  0  0
 38 36  1  0  0  0  0
 39 44  1  0  0  0  0
 40 47  1  0  0  0  0
 41 44  1  0  0  0  0
 41 48  1  0  0  0  0
 42 41  2  0  0  0  0
 43 42  1  0  0  0  0
 43 46  1  0  0  0  0
 45 40  2  0  0  0  0
 45 42  1  0  0  0  0
 46 44  1  0  0  0  0
 47 48  2  0  0  0  0
 49 43  1  0  0  0  0
 50 49  1  0  0  0  0
 51 50  1  0  0  0  0
 52 55  1  0  0  0  0
 52 51  1  0  0  0  0
 53 52  1  0  0  0  0
 55 54  1  0  0  0  0
 56 60  1  0  0  0  0
 57 58  2  0  0  0  0
 58 59  1  0  0  0  0
 59 55  1  0  0  0  0
 60 61  1  0  0  0  0
 61 59  1  0  0  0  0
 62 57  1  0  0  0  0
 62 56  2  0  0  0  0
 63 57  1  0  0  0  0
M  END
>  <MODEL>
2

>  <REMARK>
 VINA RESULT:      -6.6      2.026      3.233
  Name = 
  20 active torsions:
  status: ('A' for Active; 'I' for Inactive)
    1  A    between atoms: C_2  and  O_14
    2  A    between atoms: C_2  and  C_27
    3  A    between atoms: C_5  and  C_35
    4  A    between atoms: C_5  and  C_41
    5  A    between atoms: C_8  and  O_14
    6  A    between atoms: C_8  and  C_23
    7  A    between atoms: O_9  and  N_22
    8  A    between atoms: C_10  and  C_41
    9  A    between atoms: C_20  and  C_62
   10  A    between atoms: C_23  and  C_45
   11  A    between atoms: C_26  and  C_35
   12  A    between atoms: C_26  and  C_46
   13  A    between atoms: C_27  and  N_37
   14  A    between atoms: C_33  and  C_59
   15  A    between atoms: C_36  and  C_43
   16  A    between atoms: C_36  and  C_61
   17  A    between atoms: C_38  and  C_60
   18  A    between atoms: C_41  and  C_61
   19  A    between atoms: N_57  and  C_62
   20  A    between atoms: C_60  and  C_61
                            x       y       z     vdW  Elec       q    Type
                         _______ _______ _______ _____ _____    ______ ____

>  <TORSDO>
F 20

$$$$
=
 OpenBabel11042415263D

 63 69  0  0  1  0  0  0  0  0999 V2000
  193.8800  174.4660  142.9830 C   0  0  2  0  0  3  0  0  0  0  0  0
  195.7350  173.7890  141.3840 C   0  0  0  0  0  2  0  0  0  0  0  0
  195.6370  175.7170  140.1260 C   0  0  0  0  0  2  0  0  0  0  0  0
  195.1080  176.0990  141.4970 C   0  0  0  0  0  2  0  0  0  0  0  0
  195.2480  174.8450  142.3600 C   0  0  1  0  0  0  0  0  0  0  0  0
  196.4110  174.5020  140.3020 N   0  0  0  0  0  0  0  0  0  0  0  0
  196.6290  174.0160  144.3550 N   0  0  0  0  0  2  0  0  0  0  0  0
  196.2980  175.0580  143.4280 C   0  0  0  0  0  0  0  0  0  0  0  0
  196.8810  176.1720  143.5230 O   0  0  0  0  0  0  0  0  0  0  0  0
  197.5530  174.2150  145.3270 O   0  0  0  0  0  0  0  0  0  0  0  0
  197.0740  173.5100  146.4370 C   0  0  0  0  0  1  0  0  0  0  0  0
  196.5590  174.6010  137.7750 C   0  0  0  0  0  1  0  0  0  0  0  0
  196.4380  173.7470  139.0380 C   0  0  2  0  0  3  0  0  0  0  0  0
  194.4270  168.5360  136.9010 C   0  0  0  0  0  2  0  0  0  0  0  0
  192.7470  169.5230  138.7230 O   0  0  0  0  0  1  0  0  0  0  0  0
  195.2800  172.7490  138.9460 C   0  0  1  0  0  3  0  0  0  0  0  0
  195.0310  170.9640  137.1120 C   0  0  2  0  0  3  0  0  0  0  0  0
  194.2750  173.2520  138.0110 N   0  0  1  0  0  0  0  0  0  0  0  0
  195.4300  169.6150  136.5160 C   0  0  0  0  0  2  0  0  0  0  0  0
  193.1280  168.9260  136.5130 O   0  0  0  0  0  0  0  0  0  0  0  0
  193.2250  172.2370  138.2850 C   0  0  2  0  0  3  0  0  0  0  0  0
  195.7680  171.3440  138.4290 C   0  0  0  0  0  2  0  0  0  0  0  0
  193.4880  171.2440  137.1490 C   0  0  2  0  0  3  0  0  0  0  0  0
  192.6960  169.9450  137.3870 C   0  0  2  0  0  3  0  0  0  0  0  0
  192.9270  173.6610  138.4070 C   0  0  2  0  0  3  0  0  0  0  0  0
  190.7540  174.2100  137.3030 O   0  0  0  0  0  1  0  0  0  0  0  0
  192.1360  174.1080  137.2150 C   0  0  0  0  0  0  0  0  0  0  0  0
  192.7150  174.4080  136.1330 O   0  0  0  0  0  0  0  0  0  0  0  0
  193.4120  173.0210  142.6870 C   0  0  1  0  0  3  0  0  0  0  0  0
  193.2340  172.3010  143.9980 C   0  0  0  0  0  3  0  0  0  0  0  0
  193.9770  171.3240  144.3990 N   0  0  0  0  0  0  0  0  0  0  0  0
  195.0720  170.7970  143.6290 C   0  0  0  0  0  1  0  0  0  0  0  0
  192.1320  172.9600  141.8450 C   0  0  0  0  0  2  0  0  0  0  0  0
  191.7380  171.5340  141.5010 C   0  0  0  0  0  2  0  0  0  0  0  0
  189.5150  171.5470  142.5900 C   0  0  0  0  0  1  0  0  0  0  0  0
  190.2420  171.4150  141.2620 C   0  0  1  0  0  3  0  0  0  0  0  0
  188.3700  172.5620  140.2980 O   0  0  0  0  0  1  0  0  0  0  0  0
  189.7660  172.5100  140.3220 C   0  0  0  0  0  2  0  0  0  0  0  0
  192.7930  175.5220  142.7410 C   0  0  0  0  0  2  0  0  0  0  0  0
  190.9010  175.4720  147.2930 C   0  0  0  0  0  3  0  0  0  0  0  0
  192.3610  176.2060  145.0480 C   0  0  0  0  0  0  0  0  0  0  0  0
  191.1140  176.7300  145.2600 C   0  0  0  0  0  0  0  0  0  0  0  0
  190.7440  177.5970  144.2070 N   0  0  0  0  0  0  0  0  0  0  0  0
  192.9030  176.6660  143.7330 C   0  0  2  0  0  3  0  0  0  0  0  0
  190.3460  176.3760  146.3700 C   0  0  0  0  0  3  0  0  0  0  0  0
  191.8900  177.7550  143.3120 C   0  0  0  0  0  2  0  0  0  0  0  0
  192.1850  174.9300  147.0780 C   0  0  0  0  0  3  0  0  0  0  0  0
  192.9260  175.2900  145.9390 C   0  0  0  0  0  3  0  0  0  0  0  0
  189.3880  178.0530  143.9340 C   0  0  0  0  0  2  0  0  0  0  0  0
  189.1960  178.2220  142.4230 C   0  0  0  0  0  2  0  0  0  0  0  0
  188.5680  177.1020  141.8620 O   0  0  0  0  0  0  0  0  0  0  0  0
  187.9550  176.4040  142.9180 C   0  0  2  0  0  3  0  0  0  0  0  0
  188.4690  174.9670  142.9840 C   0  0  0  0  0  1  0  0  0  0  0  0
  186.1250  176.9980  141.4940 O   0  0  0  0  0  1  0  0  0  0  0  0
  186.4370  176.3890  142.7160 C   0  0  2  0  0  3  0  0  0  0  0  0
  185.1670  178.2860  146.7280 C   0  0  0  0  0  3  0  0  0  0  0  0
  185.4710  179.5270  144.5700 C   0  0  0  0  0  0  0  0  0  0  0  0
  185.7240  178.5560  143.6760 C   0  0  0  0  0  3  0  0  0  0  0  0
  185.7100  177.0760  143.8810 C   0  0  2  0  0  3  0  0  0  0  0  0
  185.2710  176.8710  146.2620 C   0  0  0  0  0  2  0  0  0  0  0  0
  186.3390  176.7020  145.2080 C   0  0  0  0  0  2  0  0  0  0  0  0
  185.2340  179.3490  145.9810 N   0  0  0  0  0  0  0  0  0  0  0  0
  185.4990  180.8030  144.1110 F   0  0  0  0  0  0  0  0  0  0  0  0
  1 39  1  6  0  0  0
  2  5  1  0  0  0  0
  3  6  1  0  0  0  0
  3  4  1  0  0  0  0
  4  5  1  0  0  0  0
  5  1  1  0  0  0  0
  5  8  1  1  0  0  0
  6  2  1  0  0  0  0
  7 10  1  0  0  0  0
  8  9  2  0  0  0  0
  8  7  1  0  0  0  0
 10 11  1  0  0  0  0
 13 12  1  6  0  0  0
 13  6  1  0  0  0  0
 16 13  1  6  0  0  0
 17 19  1  1  0  0  0
 17 23  1  0  0  0  0
 17 22  1  0  0  0  0
 18 21  1  0  0  0  0
 18 25  1  0  0  0  0
 18 16  1  0  0  0  0
 19 14  1  0  0  0  0
 20 14  1  0  0  0  0
 20 24  1  0  0  0  0
 21 25  1  0  0  0  0
 22 16  1  0  0  0  0
 23 24  1  0  0  0  0
 23 21  1  0  0  0  0
 24 15  1  0  0  0  0
 27 26  1  0  0  0  0
 27 25  1  0  0  0  0
 28 27  2  0  0  0  0
 29  1  1  0  0  0  0
 29 30  1  0  0  0  0
 30 31  2  0  0  0  0
 32 31  1  0  0  0  0
 33 29  1  0  0  0  0
 34 33  1  0  0  0  0
 36 34  1  0  0  0  0
 36 35  1  0  0  0  0
 37 38  1  0  0  0  0
 38 36  1  0  0  0  0
 39 44  1  0  0  0  0
 41 42  2  0  0  0  0
 41 48  1  0  0  0  0
 42 45  1  0  0  0  0
 43 42  1  0  0  0  0
 44 41  1  0  0  0  0
 45 40  2  0  0  0  0
 46 44  1  0  0  0  0
 46 43  1  0  0  0  0
 47 40  1  0  0  0  0
 48 47  2  0  0  0  0
 49 43  1  0  0  0  0
 50 49  1  0  0  0  0
 51 50  1  0  0  0  0
 51 52  1  0  0  0  0
 52 53  1  0  0  0  0
 54 55  1  0  0  0  0
 55 52  1  0  0  0  0
 55 59  1  0  0  0  0
 57 62  1  0  0  0  0
 58 59  1  0  0  0  0
 58 57  2  0  0  0  0
 59 61  1  0  0  0  0
 60 56  1  0  0  0  0
 61 60  1  0  0  0  0
 62 56  2  0  0  0  0
 63 57  1  0  0  0  0
M  END
>  <MODEL>
3

>  <REMARK>
 VINA RESULT:      -6.5      2.849      8.730
  Name = 
  20 active torsions:
  status: ('A' for Active; 'I' for Inactive)
    1  A    between atoms: C_2  and  O_14
    2  A    between atoms: C_2  and  C_27
    3  A    between atoms: C_5  and  C_35
    4  A    between atoms: C_5  and  C_41
    5  A    between atoms: C_8  and  O_14
    6  A    between atoms: C_8  and  C_23
    7  A    between atoms: O_9  and  N_22
    8  A    between atoms: C_10  and  C_41
    9  A    between atoms: C_20  and  C_62
   10  A    between atoms: C_23  and  C_45
   11  A    between atoms: C_26  and  C_35
   12  A    between atoms: C_26  and  C_46
   13  A    between atoms: C_27  and  N_37
   14  A    between atoms: C_33  and  C_59
   15  A    between atoms: C_36  and  C_43
   16  A    between atoms: C_36  and  C_61
   17  A    between atoms: C_38  and  C_60
   18  A    between atoms: C_41  and  C_61
   19  A    between atoms: N_57  and  C_62
   20  A    between atoms: C_60  and  C_61
                            x       y       z     vdW  Elec       q    Type
                         _______ _______ _______ _____ _____    ______ ____

>  <TORSDO>
F 20

$$$$
=
 OpenBabel11042415263D

 63 69  0  0  1  0  0  0  0  0999 V2000
  193.2380  173.6600  142.0580 C   0  0  2  0  0  3  0  0  0  0  0  0
  191.2270  175.1520  142.4910 C   0  0  0  0  0  2  0  0  0  0  0  0
  190.7780  174.2930  144.5800 C   0  0  0  0  0  2  0  0  0  0  0  0
  192.2600  174.0560  144.3540 C   0  0  0  0  0  2  0  0  0  0  0  0
  192.5810  174.6980  143.0050 C   0  0  1  0  0  0  0  0  0  0  0  0
  190.3790  175.3470  143.6650 N   0  0  0  0  0  0  0  0  0  0  0  0
  194.6310  175.8420  144.0370 N   0  0  0  0  0  2  0  0  0  0  0  0
  193.4710  175.9060  143.1970 C   0  0  0  0  0  0  0  0  0  0  0  0
  193.1840  176.9950  142.6290 O   0  0  0  0  0  0  0  0  0  0  0  0
  195.4150  176.9310  144.2290 O   0  0  0  0  0  0  0  0  0  0  0  0
  196.5520  176.7070  143.4450 C   0  0  0  0  0  1  0  0  0  0  0  0
  188.6080  174.6470  141.9940 C   0  0  0  0  0  1  0  0  0  0  0  0
  188.9410  175.2250  143.3700 C   0  0  2  0  0  3  0  0  0  0  0  0
  184.7290  178.0710  146.5200 C   0  0  0  0  0  2  0  0  0  0  0  0
  186.1930  179.8040  145.1160 O   0  0  0  0  0  1  0  0  0  0  0  0
  188.1920  176.5340  143.6390 C   0  0  1  0  0  3  0  0  0  0  0  0
  185.8890  176.6930  144.7710 C   0  0  2  0  0  3  0  0  0  0  0  0
  187.2200  176.7670  142.5720 N   0  0  1  0  0  0  0  0  0  0  0  0
  185.0310  176.6600  146.0340 C   0  0  0  0  0  2  0  0  0  0  0  0
  184.1250  178.8170  145.4860 O   0  0  0  0  0  0  0  0  0  0  0  0
  186.8260  178.1450  142.9630 C   0  0  2  0  0  3  0  0  0  0  0  0
  187.4130  176.4830  145.0060 C   0  0  0  0  0  2  0  0  0  0  0  0
  185.5590  177.8580  143.7740 C   0  0  2  0  0  3  0  0  0  0  0  0
  185.1150  179.1240  144.5300 C   0  0  2  0  0  3  0  0  0  0  0  0
  187.3130  177.8700  141.6140 C   0  0  2  0  0  3  0  0  0  0  0  0
  186.2380  177.1000  139.4930 O   0  0  0  0  0  0  0  0  0  0  0  0
  186.1540  177.8450  140.6630 C   0  0  0  0  0  0  0  0  0  0  0  0
  185.0940  178.4810  140.9210 O   0  0  0  0  0  1  0  0  0  0  0  0
  194.1400  172.6200  142.7640 C   0  0  1  0  0  3  0  0  0  0  0  0
  193.8240  171.2590  142.2030 C   0  0  0  0  0  3  0  0  0  0  0  0
  193.0770  170.3840  142.7900 N   0  0  0  0  0  0  0  0  0  0  0  0
  192.4560  170.6060  144.0680 C   0  0  0  0  0  1  0  0  0  0  0  0
  195.6360  172.9340  142.6430 C   0  0  0  0  0  2  0  0  0  0  0  0
  196.4450  172.3280  143.7770 C   0  0  0  0  0  2  0  0  0  0  0  0
  195.6310  171.2220  145.8360 C   0  0  0  0  0  1  0  0  0  0  0  0
  195.7720  172.5550  145.1200 C   0  0  1  0  0  3  0  0  0  0  0  0
  197.7260  173.9370  145.2740 O   0  0  0  0  0  1  0  0  0  0  0  0
  196.6040  173.4950  145.9780 C   0  0  0  0  0  2  0  0  0  0  0  0
  193.8910  174.2980  140.8250 C   0  0  0  0  0  2  0  0  0  0  0  0
  197.1310  174.4760  137.1130 C   0  0  0  0  0  3  0  0  0  0  0  0
  195.1350  173.6060  138.8370 C   0  0  0  0  0  0  0  0  0  0  0  0
  194.8100  174.2920  137.6970 C   0  0  0  0  0  0  0  0  0  0  0  0
  193.4120  174.4790  137.6010 N   0  0  0  0  0  0  0  0  0  0  0  0
  193.9110  173.3360  139.6500 C   0  0  2  0  0  3  0  0  0  0  0  0
  195.7850  174.7550  136.8130 C   0  0  0  0  0  3  0  0  0  0  0  0
  192.7700  173.7420  138.6890 C   0  0  0  0  0  2  0  0  0  0  0  0
  197.4690  173.7700  138.2850 C   0  0  0  0  0  3  0  0  0  0  0  0
  196.4650  173.3350  139.1670 C   0  0  0  0  0  3  0  0  0  0  0  0
  192.7530  175.4340  136.7210 C   0  0  0  0  0  2  0  0  0  0  0  0
  191.7900  174.6930  135.7870 C   0  0  0  0  0  2  0  0  0  0  0  0
  190.4880  174.6780  136.3070 O   0  0  0  0  0  0  0  0  0  0  0  0
  190.0210  173.3560  136.2070 C   0  0  2  0  0  3  0  0  0  0  0  0
  189.4260  173.0980  134.8240 C   0  0  0  0  0  1  0  0  0  0  0  0
  188.8640  174.2170  138.1160 O   0  0  0  0  0  1  0  0  0  0  0  0
  188.9520  173.1020  137.2730 C   0  0  2  0  0  3  0  0  0  0  0  0
  190.7570  169.2850  139.1360 C   0  0  0  0  0  3  0  0  0  0  0  0
  190.2940  171.4190  140.3690 C   0  0  0  0  0  0  0  0  0  0  0  0
  189.6730  172.1870  139.4560 C   0  0  0  0  0  3  0  0  0  0  0  0
  189.2470  171.8240  138.0710 C   0  0  2  0  0  3  0  0  0  0  0  0
  190.0900  169.5590  137.8290 C   0  0  0  0  0  2  0  0  0  0  0  0
  190.3000  170.9850  137.3770 C   0  0  0  0  0  2  0  0  0  0  0  0
  190.7900  170.0810  140.1640 N   0  0  0  0  0  0  0  0  0  0  0  0
  190.5250  171.9780  141.5830 F   0  0  0  0  0  0  0  0  0  0  0  0
  1 39  1  6  0  0  0
  1 29  1  0  0  0  0
  1  5  1  0  0  0  0
  2  5  1  0  0  0  0
  2  6  1  0  0  0  0
  4  3  1  0  0  0  0
  5  8  1  1  0  0  0
  5  4  1  0  0  0  0
  6  3  1  0  0  0  0
  7 10  1  0  0  0  0
  8  7  1  0  0  0  0
  9  8  2  0  0  0  0
 11 10  1  0  0  0  0
 13 12  1  6  0  0  0
 13  6  1  0  0  0  0
 16 13  1  6  0  0  0
 16 22  1  0  0  0  0
 17 22  1  1  0  0  0
 17 19  1  0  0  0  0
 18 21  1  0  0  0  0
 18 16  1  0  0  0  0
 19 14  1  0  0  0  0
 20 14  1  0  0  0  0
 21 23  1  0  0  0  0
 23 24  1  0  0  0  0
 23 17  1  0  0  0  0
 24 15  1  0  0  0  0
 24 20  1  0  0  0  0
 25 18  1  0  0  0  0
 25 21  1  0  0  0  0
 26 27  2  0  0  0  0
 27 28  1  0  0  0  0
 27 25  1  0  0  0  0
 30 29  1  0  0  0  0
 30 31  2  0  0  0  0
 31 32  1  0  0  0  0
 33 29  1  0  0  0  0
 33 34  1  0  0  0  0
 34 36  1  0  0  0  0
 36 35  1  0  0  0  0
 36 38  1  0  0  0  0
 37 38  1  0  0  0  0
 40 47  1  0  0  0  0
 41 48  1  0  0  0  0
 41 44  1  0  0  0  0
 42 41  2  0  0  0  0
 43 42  1  0  0  0  0
 43 46  1  0  0  0  0
 44 39  1  0  0  0  0
 45 40  2  0  0  0  0
 45 42  1  0  0  0  0
 46 44  1  0  0  0  0
 47 48  2  0  0  0  0
 49 43  1  0  0  0  0
 50 51  1  0  0  0  0
 50 49  1  0  0  0  0
 52 51  1  0  0  0  0
 52 55  1  0  0  0  0
 53 52  1  0  0  0  0
 55 59  1  0  0  0  0
 55 54  1  0  0  0  0
 56 62  2  0  0  0  0
 57 63  1  0  0  0  0
 58 57  2  0  0  0  0
 59 58  1  0  0  0  0
 60 56  1  0  0  0  0
 61 60  1  0  0  0  0
 61 59  1  0  0  0  0
 62 57  1  0  0  0  0
M  END
>  <MODEL>
4

>  <REMARK>
 VINA RESULT:      -6.3      2.340      4.916
  Name = 
  20 active torsions:
  status: ('A' for Active; 'I' for Inactive)
    1  A    between atoms: C_2  and  O_14
    2  A    between atoms: C_2  and  C_27
    3  A    between atoms: C_5  and  C_35
    4  A    between atoms: C_5  and  C_41
    5  A    between atoms: C_8  and  O_14
    6  A    between atoms: C_8  and  C_23
    7  A    between atoms: O_9  and  N_22
    8  A    between atoms: C_10  and  C_41
    9  A    between atoms: C_20  and  C_62
   10  A    between atoms: C_23  and  C_45
   11  A    between atoms: C_26  and  C_35
   12  A    between atoms: C_26  and  C_46
   13  A    between atoms: C_27  and  N_37
   14  A    between atoms: C_33  and  C_59
   15  A    between atoms: C_36  and  C_43
   16  A    between atoms: C_36  and  C_61
   17  A    between atoms: C_38  and  C_60
   18  A    between atoms: C_41  and  C_61
   19  A    between atoms: N_57  and  C_62
   20  A    between atoms: C_60  and  C_61
                            x       y       z     vdW  Elec       q    Type
                         _______ _______ _______ _____ _____    ______ ____

>  <TORSDO>
F 20

$$$$
=
 OpenBabel11042415263D

 63 69  0  0  1  0  0  0  0  0999 V2000
  193.5010  173.8590  144.0320 C   0  0  2  0  0  3  0  0  0  0  0  0
  191.3480  175.0780  144.6070 C   0  0  0  0  0  2  0  0  0  0  0  0
  191.8960  177.0100  143.4790 C   0  0  0  0  0  2  0  0  0  0  0  0
  192.6820  175.9040  142.7970 C   0  0  0  0  0  2  0  0  0  0  0  0
  192.2580  174.6090  143.4880 C   0  0  1  0  0  0  0  0  0  0  0  0
  190.8050  176.3700  144.1900 N   0  0  0  0  0  0  0  0  0  0  0  0
  190.3040  173.0270  142.9780 N   0  0  0  0  0  2  0  0  0  0  0  0
  191.4670  173.7400  142.5350 C   0  0  0  0  0  0  0  0  0  0  0  0
  191.8400  173.6200  141.3360 O   0  0  0  0  0  0  0  0  0  0  0  0
  189.6090  172.2290  142.1310 O   0  0  0  0  0  0  0  0  0  0  0  0
  188.3100  172.7470  142.1230 C   0  0  0  0  0  1  0  0  0  0  0  0
  190.4560  176.5480  146.6930 C   0  0  0  0  0  1  0  0  0  0  0  0
  190.3880  177.2180  145.3190 C   0  0  2  0  0  3  0  0  0  0  0  0
  184.8280  178.2130  147.2830 C   0  0  0  0  0  2  0  0  0  0  0  0
  185.3770  179.7540  145.1750 O   0  0  0  0  0  1  0  0  0  0  0  0
  189.0270  177.8730  145.0670 C   0  0  1  0  0  3  0  0  0  0  0  0
  186.8300  177.1580  146.1950 C   0  0  2  0  0  3  0  0  0  0  0  0
  188.2860  177.0930  144.0760 N   0  0  1  0  0  0  0  0  0  0  0  0
  185.9110  177.1500  147.4150 C   0  0  0  0  0  2  0  0  0  0  0  0
  184.1160  178.0280  146.0790 O   0  0  0  0  0  0  0  0  0  0  0  0
  187.1610  178.0440  143.8790 C   0  0  2  0  0  3  0  0  0  0  0  0
  188.1640  177.9370  146.3820 C   0  0  0  0  0  2  0  0  0  0  0  0
  186.1170  177.4470  144.8280 C   0  0  2  0  0  3  0  0  0  0  0  0
  184.9460  178.4300  145.0120 C   0  0  2  0  0  3  0  0  0  0  0  0
  187.9510  177.5850  142.7390 C   0  0  2  0  0  3  0  0  0  0  0  0
  186.3320  175.6830  142.6560 O   0  0  0  0  0  1  0  0  0  0  0  0
  187.1710  176.5570  141.9760 C   0  0  0  0  0  0  0  0  0  0  0  0
  187.2570  176.4860  140.7180 O   0  0  0  0  0  0  0  0  0  0  0  0
  194.8070  174.6880  144.0380 C   0  0  1  0  0  3  0  0  0  0  0  0
  195.3180  174.7600  145.4530 C   0  0  0  0  0  3  0  0  0  0  0  0
  195.1570  175.7750  146.2350 N   0  0  0  0  0  0  0  0  0  0  0  0
  194.4680  176.9750  145.8410 C   0  0  0  0  0  1  0  0  0  0  0  0
  195.8790  174.1370  143.0910 C   0  0  0  0  0  2  0  0  0  0  0  0
  196.3030  175.1550  142.0460 C   0  0  0  0  0  2  0  0  0  0  0  0
  197.2230  173.1570  140.9110 C   0  0  0  0  0  1  0  0  0  0  0  0
  196.5410  174.4990  140.6970 C   0  0  1  0  0  3  0  0  0  0  0  0
  194.5570  175.4890  139.7830 O   0  0  0  0  0  1  0  0  0  0  0  0
  195.2220  174.2760  139.9750 C   0  0  0  0  0  2  0  0  0  0  0  0
  193.6710  172.4570  143.4310 C   0  0  0  0  0  2  0  0  0  0  0  0
  196.8860  169.1620  145.1950 C   0  0  0  0  0  3  0  0  0  0  0  0
  194.5980  170.6980  144.8540 C   0  0  0  0  0  0  0  0  0  0  0  0
  194.7030  169.4750  144.2480 C   0  0  0  0  0  0  0  0  0  0  0  0
  193.5550  169.1950  143.4720 N   0  0  0  0  0  0  0  0  0  0  0  0
  193.3310  171.3770  144.4430 C   0  0  2  0  0  3  0  0  0  0  0  0
  195.8420  168.6800  144.3870 C   0  0  0  0  0  3  0  0  0  0  0  0
  192.5730  170.2540  143.6980 C   0  0  0  0  0  2  0  0  0  0  0  0
  196.7820  170.4210  145.8200 C   0  0  0  0  0  3  0  0  0  0  0  0
  195.6300  171.2080  145.6450 C   0  0  0  0  0  3  0  0  0  0  0  0
  193.4690  168.1660  142.4450 C   0  0  0  0  0  2  0  0  0  0  0  0
  193.9930  168.7200  141.1150 C   0  0  0  0  0  2  0  0  0  0  0  0
  193.0550  168.5480  140.0880 O   0  0  0  0  0  0  0  0  0  0  0  0
  192.9860  169.7640  139.3870 C   0  0  2  0  0  3  0  0  0  0  0  0
  194.1790  170.6530  139.7340 C   0  0  0  0  0  1  0  0  0  0  0  0
  190.6760  169.5580  139.9740 O   0  0  0  0  0  1  0  0  0  0  0  0
  191.6900  170.4960  139.7440 C   0  0  2  0  0  3  0  0  0  0  0  0
  190.3390  172.6070  135.8680 C   0  0  0  0  0  3  0  0  0  0  0  0
  189.0550  172.5730  138.0220 C   0  0  0  0  0  0  0  0  0  0  0  0
  189.8840  171.9510  138.8780 C   0  0  0  0  0  3  0  0  0  0  0  0
  191.2870  171.4920  138.6460 C   0  0  2  0  0  3  0  0  0  0  0  0
  191.6380  172.0100  136.2990 C   0  0  0  0  0  2  0  0  0  0  0  0
  191.4390  170.8720  137.2720 C   0  0  0  0  0  2  0  0  0  0  0  0
  189.3100  172.8400  136.6290 N   0  0  0  0  0  0  0  0  0  0  0  0
  187.8390  172.9340  138.5020 F   0  0  0  0  0  0  0  0  0  0  0  0
  1 39  1  6  0  0  0
  1 29  1  0  0  0  0
  3  6  1  0  0  0  0
  4  3  1  0  0  0  0
  4  5  1  0  0  0  0
  5  8  1  6  0  0  0
  5  1  1  0  0  0  0
  5  2  1  0  0  0  0
  6  2  1  0  0  0  0
  6 13  1  0  0  0  0
  8  7  1  0  0  0  0
  9  8  2  0  0  0  0
 10  7  1  0  0  0  0
 11 10  1  0  0  0  0
 13 12  1  1  0  0  0
 14 19  1  0  0  0  0
 16 13  1  1  0  0  0
 16 22  1  0  0  0  0
 17 22  1  1  0  0  0
 17 19  1  0  0  0  0
 18 16  1  0  0  0  0
 20 14  1  0  0  0  0
 21 18  1  0  0  0  0
 21 23  1  0  0  0  0
 23 24  1  0  0  0  0
 23 17  1  0  0  0  0
 24 15  1  0  0  0  0
 24 20  1  0  0  0  0
 25 21  1  0  0  0  0
 25 18  1  0  0  0  0
 27 26  1  0  0  0  0
 27 25  1  0  0  0  0
 28 27  2  0  0  0  0
 29 30  1  0  0  0  0
 30 31  2  0  0  0  0
 32 31  1  0  0  0  0
 33 29  1  0  0  0  0
 34 33  1  0  0  0  0
 36 35  1  0  0  0  0
 36 34  1  0  0  0  0
 37 38  1  0  0  0  0
 38 36  1  0  0  0  0
 39 44  1  0  0  0  0
 40 47  1  0  0  0  0
 41 48  1  0  0  0  0
 42 45  1  0  0  0  0
 42 41  2  0  0  0  0
 43 46  1  0  0  0  0
 43 42  1  0  0  0  0
 44 41  1  0  0  0  0
 45 40  2  0  0  0  0
 46 44  1  0  0  0  0
 48 47  2  0  0  0  0
 49 43  1  0  0  0  0
 50 49  1  0  0  0  0
 51 50  1  0  0  0  0
 52 53  1  0  0  0  0
 52 55  1  0  0  0  0
 52 51  1  0  0  0  0
 55 54  1  0  0  0  0
 56 60  1  0  0  0  0
 56 62  2  0  0  0  0
 57 63  1  0  0  0  0
 57 58  2  0  0  0  0
 59 58  1  0  0  0  0
 59 55  1  0  0  0  0
 60 61  1  0  0  0  0
 61 59  1  0  0  0  0
 62 57  1  0  0  0  0
M  END
>  <MODEL>
5

>  <REMARK>
 VINA RESULT:      -6.3      1.660      2.302
  Name = 
  20 active torsions:
  status: ('A' for Active; 'I' for Inactive)
    1  A    between atoms: C_2  and  O_14
    2  A    between atoms: C_2  and  C_27
    3  A    between atoms: C_5  and  C_35
    4  A    between atoms: C_5  and  C_41
    5  A    between atoms: C_8  and  O_14
    6  A    between atoms: C_8  and  C_23
    7  A    between atoms: O_9  and  N_22
    8  A    between atoms: C_10  and  C_41
    9  A    between atoms: C_20  and  C_62
   10  A    between atoms: C_23  and  C_45
   11  A    between atoms: C_26  and  C_35
   12  A    between atoms: C_26  and  C_46
   13  A    between atoms: C_27  and  N_37
   14  A    between atoms: C_33  and  C_59
   15  A    between atoms: C_36  and  C_43
   16  A    between atoms: C_36  and  C_61
   17  A    between atoms: C_38  and  C_60
   18  A    between atoms: C_41  and  C_61
   19  A    between atoms: N_57  and  C_62
   20  A    between atoms: C_60  and  C_61
                            x       y       z     vdW  Elec       q    Type
                         _______ _______ _______ _____ _____    ______ ____

>  <TORSDO>
F 20

$$$$
=
 OpenBabel11042415263D

 63 69  0  0  1  0  0  0  0  0999 V2000
  188.0830  176.1800  143.9960 C   0  0  2  0  0  3  0  0  0  0  0  0
  189.7410  175.0860  142.4120 C   0  0  0  0  0  2  0  0  0  0  0  0
  188.3680  173.3200  141.8630 C   0  0  0  0  0  2  0  0  0  0  0  0
  187.4370  174.4450  142.2780 C   0  0  0  0  0  2  0  0  0  0  0  0
  188.3380  175.6450  142.5630 C   0  0  1  0  0  0  0  0  0  0  0  0
  189.6370  173.9340  141.5180 N   0  0  0  0  0  0  0  0  0  0  0  0
  187.2480  176.5080  140.4080 N   0  0  0  0  0  2  0  0  0  0  0  0
  188.1190  176.7250  141.5270 C   0  0  0  0  0  0  0  0  0  0  0  0
  188.7220  177.8280  141.6300 O   0  0  0  0  0  0  0  0  0  0  0  0
  187.0700  177.4670  139.4660 O   0  0  0  0  0  0  0  0  0  0  0  0
  186.5010  176.8050  138.3730 C   0  0  0  0  0  1  0  0  0  0  0  0
  191.7240  173.2980  142.8060 C   0  0  0  0  0  1  0  0  0  0  0  0
  190.7230  172.9570  141.7000 C   0  0  2  0  0  3  0  0  0  0  0  0
  195.2510  174.0990  137.9640 C   0  0  0  0  0  2  0  0  0  0  0  0
  193.9590  171.8810  137.2350 O   0  0  0  0  0  1  0  0  0  0  0  0
  191.4210  172.6280  140.3770 C   0  0  1  0  0  3  0  0  0  0  0  0
  193.0390  174.2030  139.1460 C   0  0  2  0  0  3  0  0  0  0  0  0
  190.6670  173.2130  139.2700 N   0  0  1  0  0  0  0  0  0  0  0  0
  194.4230  174.8340  139.0100 C   0  0  0  0  0  2  0  0  0  0  0  0
  194.5570  174.0670  136.7360 O   0  0  0  0  0  0  0  0  0  0  0  0
  191.4190  172.5720  138.1600 C   0  0  2  0  0  3  0  0  0  0  0  0
  192.8830  173.2090  140.3350 C   0  0  0  0  0  2  0  0  0  0  0  0
  192.4080  173.6850  137.8060 C   0  0  2  0  0  3  0  0  0  0  0  0
  193.4940  173.1480  136.8560 C   0  0  2  0  0  3  0  0  0  0  0  0
  189.9690  172.4250  138.2540 C   0  0  2  0  0  3  0  0  0  0  0  0
  189.5180  173.1010  135.8910 O   0  0  0  0  0  0  0  0  0  0  0  0
  189.3120  173.3200  137.2470 C   0  0  0  0  0  0  0  0  0  0  0  0
  188.5580  174.2630  137.6170 O   0  0  0  0  0  1  0  0  0  0  0  0
  187.0460  177.3250  144.0840 C   0  0  1  0  0  3  0  0  0  0  0  0
  185.7040  176.7840  143.6650 C   0  0  0  0  0  3  0  0  0  0  0  0
  184.8950  177.3880  142.8590 N   0  0  0  0  0  0  0  0  0  0  0  0
  185.1800  178.6660  142.2640 C   0  0  0  0  0  1  0  0  0  0  0  0
  186.9720  177.9700  145.4730 C   0  0  0  0  0  2  0  0  0  0  0  0
  186.1080  177.1700  146.4330 C   0  0  0  0  0  2  0  0  0  0  0  0
  185.9200  179.4030  147.4850 C   0  0  0  0  0  1  0  0  0  0  0  0
  185.2110  178.0770  147.2580 C   0  0  1  0  0  3  0  0  0  0  0  0
  184.0510  179.3540  145.5920 O   0  0  0  0  0  1  0  0  0  0  0  0
  183.9000  178.3320  146.5320 C   0  0  0  0  0  2  0  0  0  0  0  0
  189.3760  176.4680  144.7710 C   0  0  0  0  0  2  0  0  0  0  0  0
  191.2840  178.1150  149.0090 C   0  0  0  0  0  3  0  0  0  0  0  0
  189.9210  176.5620  147.1530 C   0  0  0  0  0  0  0  0  0  0  0  0
  191.2320  176.2940  147.4460 C   0  0  0  0  0  0  0  0  0  0  0  0
  191.7100  175.2100  146.6750 N   0  0  0  0  0  0  0  0  0  0  0  0
  189.4370  175.6650  146.0590 C   0  0  2  0  0  3  0  0  0  0  0  0
  191.9520  177.0590  148.3630 C   0  0  0  0  0  3  0  0  0  0  0  0
  190.5900  174.6440  145.9250 C   0  0  0  0  0  2  0  0  0  0  0  0
  189.9350  178.3940  148.7090 C   0  0  0  0  0  3  0  0  0  0  0  0
  189.2420  177.6180  147.7650 C   0  0  0  0  0  3  0  0  0  0  0  0
  193.1150  174.8760  146.4800 C   0  0  0  0  0  2  0  0  0  0  0  0
  193.5620  175.3260  145.0840 C   0  0  0  0  0  2  0  0  0  0  0  0
  194.6260  174.5440  144.6150 O   0  0  0  0  0  0  0  0  0  0  0  0
  195.8090  175.2440  144.9100 C   0  0  2  0  0  3  0  0  0  0  0  0
  196.0130  176.3950  143.9260 C   0  0  0  0  0  1  0  0  0  0  0  0
  197.9060  174.7600  143.8630 O   0  0  0  0  0  1  0  0  0  0  0  0
  197.0070  174.2930  144.8300 C   0  0  2  0  0  3  0  0  0  0  0  0
  196.6520  169.8820  143.5210 C   0  0  0  0  0  3  0  0  0  0  0  0
  196.6450  170.6940  145.8940 C   0  0  0  0  0  0  0  0  0  0  0  0
  196.6520  172.0330  145.7730 C   0  0  0  0  0  3  0  0  0  0  0  0
  196.5630  172.8550  144.5290 C   0  0  2  0  0  3  0  0  0  0  0  0
  196.5580  171.1720  142.7760 C   0  0  0  0  0  2  0  0  0  0  0  0
  197.3970  172.2540  143.4160 C   0  0  0  0  0  2  0  0  0  0  0  0
  196.6600  169.7390  144.8140 N   0  0  0  0  0  0  0  0  0  0  0  0
  196.6850  170.1930  147.1540 F   0  0  0  0  0  0  0  0  0  0  0  0
  1 29  1  0  0  0  0
  1 39  1  6  0  0  0
  2  5  1  0  0  0  0
  3  4  1  0  0  0  0
  4  5  1  0  0  0  0
  5  8  1  6  0  0  0
  5  1  1  0  0  0  0
  6 13  1  0  0  0  0
  6  3  1  0  0  0  0
  6  2  1  0  0  0  0
  7  8  1  0  0  0  0
  8  9  2  0  0  0  0
 10  7  1  0  0  0  0
 11 10  1  0  0  0  0
 13 12  1  1  0  0  0
 14 19  1  0  0  0  0
 16 13  1  1  0  0  0
 17 19  1  6  0  0  0
 17 22  1  0  0  0  0
 18 16  1  0  0  0  0
 20 24  1  0  0  0  0
 20 14  1  0  0  0  0
 21 25  1  0  0  0  0
 21 18  1  0  0  0  0
 22 16  1  0  0  0  0
 23 21  1  0  0  0  0
 23 17  1  0  0  0  0
 24 15  1  0  0  0  0
 24 23  1  0  0  0  0
 25 18  1  0  0  0  0
 26 27  2  0  0  0  0
 27 28  1  0  0  0  0
 27 25  1  0  0  0  0
 29 33  1  0  0  0  0
 30 29  1  0  0  0  0
 31 30  2  0  0  0  0
 32 31  1  0  0  0  0
 33 34  1  0  0  0  0
 34 36  1  0  0  0  0
 36 35  1  0  0  0  0
 37 38  1  0  0  0  0
 38 36  1  0  0  0  0
 39 44  1  0  0  0  0
 41 42  2  0  0  0  0
 41 48  1  0  0  0  0
 42 45  1  0  0  0  0
 43 42  1  0  0  0  0
 44 41  1  0  0  0  0
 45 40  2  0  0  0  0
 46 44  1  0  0  0  0
 46 43  1  0  0  0  0
 47 40  1  0  0  0  0
 48 47  2  0  0  0  0
 49 43  1  0  0  0  0
 50 49  1  0  0  0  0
 51 52  1  0  0  0  0
 51 50  1  0  0  0  0
 53 52  1  0  0  0  0
 54 55  1  0  0  0  0
 55 52  1  0  0  0  0
 56 62  2  0  0  0  0
 57 63  1  0  0  0  0
 58 57  2  0  0  0  0
 59 55  1  0  0  0  0
 59 58  1  0  0  0  0
 60 61  1  0  0  0  0
 60 56  1  0  0  0  0
 61 59  1  0  0  0  0
 62 57  1  0  0  0  0
M  END
>  <MODEL>
6

>  <REMARK>
 VINA RESULT:      -6.1      2.643      8.423
  Name = 
  20 active torsions:
  status: ('A' for Active; 'I' for Inactive)
    1  A    between atoms: C_2  and  O_14
    2  A    between atoms: C_2  and  C_27
    3  A    between atoms: C_5  and  C_35
    4  A    between atoms: C_5  and  C_41
    5  A    between atoms: C_8  and  O_14
    6  A    between atoms: C_8  and  C_23
    7  A    between atoms: O_9  and  N_22
    8  A    between atoms: C_10  and  C_41
    9  A    between atoms: C_20  and  C_62
   10  A    between atoms: C_23  and  C_45
   11  A    between atoms: C_26  and  C_35
   12  A    between atoms: C_26  and  C_46
   13  A    between atoms: C_27  and  N_37
   14  A    between atoms: C_33  and  C_59
   15  A    between atoms: C_36  and  C_43
   16  A    between atoms: C_36  and  C_61
   17  A    between atoms: C_38  and  C_60
   18  A    between atoms: C_41  and  C_61
   19  A    between atoms: N_57  and  C_62
   20  A    between atoms: C_60  and  C_61
                            x       y       z     vdW  Elec       q    Type
                         _______ _______ _______ _____ _____    ______ ____

>  <TORSDO>
F 20

$$$$
=
 OpenBabel11042415263D

 63 69  0  0  1  0  0  0  0  0999 V2000
  192.8660  174.2530  143.6650 C   0  0  2  0  0  3  0  0  0  0  0  0
  192.2020  176.4320  144.7900 C   0  0  0  0  0  2  0  0  0  0  0  0
  191.6360  175.4620  146.8020 C   0  0  0  0  0  2  0  0  0  0  0  0
  192.6460  174.5220  146.1670 C   0  0  0  0  0  2  0  0  0  0  0  0
  193.0860  175.2010  144.8710 C   0  0  1  0  0  0  0  0  0  0  0  0
  191.8070  176.7530  146.1610 N   0  0  0  0  0  0  0  0  0  0  0  0
  195.1510  176.3890  143.9200 N   0  0  0  0  0  2  0  0  0  0  0  0
  194.5330  175.6350  144.9710 C   0  0  0  0  0  0  0  0  0  0  0  0
  195.2170  175.3150  145.9810 O   0  0  0  0  0  0  0  0  0  0  0  0
  196.4540  176.7570  143.9990 O   0  0  0  0  0  0  0  0  0  0  0  0
  197.1360  175.8690  143.1610 C   0  0  0  0  0  1  0  0  0  0  0  0
  190.0920  177.8680  147.6560 C   0  0  0  0  0  1  0  0  0  0  0  0
  190.5480  177.5130  146.2400 C   0  0  2  0  0  3  0  0  0  0  0  0
  187.5240  177.2710  141.0860 C   0  0  0  0  0  2  0  0  0  0  0  0
  186.9260  175.1800  142.6330 O   0  0  0  0  0  1  0  0  0  0  0  0
  189.4310  176.8510  145.4270 C   0  0  1  0  0  3  0  0  0  0  0  0
  188.2760  177.9180  143.3920 C   0  0  2  0  0  3  0  0  0  0  0  0
  188.1340  177.3380  145.8950 N   0  0  1  0  0  0  0  0  0  0  0  0
  188.2880  178.2970  141.9130 C   0  0  0  0  0  2  0  0  0  0  0  0
  186.2140  177.1260  141.5890 O   0  0  0  0  0  0  0  0  0  0  0  0
  187.2810  176.4020  145.1160 C   0  0  2  0  0  3  0  0  0  0  0  0
  189.5560  177.1870  143.8940 C   0  0  0  0  0  2  0  0  0  0  0  0
  186.9400  177.2720  143.9030 C   0  0  2  0  0  3  0  0  0  0  0  0
  186.2850  176.4150  142.8040 C   0  0  2  0  0  3  0  0  0  0  0  0
  187.1440  176.4960  146.5670 C   0  0  2  0  0  3  0  0  0  0  0  0
  186.0270  178.4640  147.6300 O   0  0  0  0  0  1  0  0  0  0  0  0
  185.9140  177.2870  146.9000 C   0  0  0  0  0  0  0  0  0  0  0  0
  184.7760  176.9030  146.5100 O   0  0  0  0  0  0  0  0  0  0  0  0
  193.9200  173.1290  143.5240 C   0  0  1  0  0  3  0  0  0  0  0  0
  193.3700  171.8780  144.1560 C   0  0  0  0  0  3  0  0  0  0  0  0
  193.9270  171.2540  145.1410 N   0  0  0  0  0  0  0  0  0  0  0  0
  195.1570  171.6800  145.7520 C   0  0  0  0  0  1  0  0  0  0  0  0
  194.3420  172.8740  142.0720 C   0  0  0  0  0  2  0  0  0  0  0  0
  194.5340  171.3950  141.7800 C   0  0  0  0  0  2  0  0  0  0  0  0
  196.7790  172.3440  141.3460 C   0  0  0  0  0  1  0  0  0  0  0  0
  195.8900  171.1260  141.1500 C   0  0  1  0  0  3  0  0  0  0  0  0
  195.8340  169.5230  142.9330 O   0  0  0  0  0  1  0  0  0  0  0  0
  196.5480  169.9200  141.8000 C   0  0  0  0  0  2  0  0  0  0  0  0
  192.5910  175.0000  142.3530 C   0  0  0  0  0  2  0  0  0  0  0  0
  189.7330  171.2500  143.7980 C   0  0  0  0  0  3  0  0  0  0  0  0
  190.5840  173.6360  142.6610 C   0  0  0  0  0  0  0  0  0  0  0  0
  190.5580  172.4880  141.9150 C   0  0  0  0  0  0  0  0  0  0  0  0
  191.0310  172.7270  140.6040 N   0  0  0  0  0  0  0  0  0  0  0  0
  191.1710  174.7600  141.8690 C   0  0  2  0  0  3  0  0  0  0  0  0
  190.1490  171.2690  142.4540 C   0  0  0  0  0  3  0  0  0  0  0  0
  191.2530  174.1640  140.4450 C   0  0  0  0  0  2  0  0  0  0  0  0
  189.7590  172.4300  144.5690 C   0  0  0  0  0  3  0  0  0  0  0  0
  190.1960  173.6390  144.0030 C   0  0  0  0  0  3  0  0  0  0  0  0
  191.4530  171.6970  139.6650 C   0  0  0  0  0  2  0  0  0  0  0  0
  192.0460  172.3530  138.4130 C   0  0  0  0  0  2  0  0  0  0  0  0
  192.4740  171.3900  137.4890 O   0  0  0  0  0  0  0  0  0  0  0  0
  193.7260  171.8120  137.0080 C   0  0  2  0  0  3  0  0  0  0  0  0
  194.8560  171.1250  137.7740 C   0  0  0  0  0  1  0  0  0  0  0  0
  193.8490  173.9290  135.8990 O   0  0  0  0  0  1  0  0  0  0  0  0
  193.8580  173.3290  137.1650 C   0  0  2  0  0  3  0  0  0  0  0  0
  197.8510  175.0810  138.6800 C   0  0  0  0  0  3  0  0  0  0  0  0
  195.6040  175.4880  139.7160 C   0  0  0  0  0  0  0  0  0  0  0  0
  194.7790  174.6920  139.0140 C   0  0  0  0  0  3  0  0  0  0  0  0
  195.1250  173.7040  137.9490 C   0  0  2  0  0  3  0  0  0  0  0  0
  197.5220  174.0080  137.6950 C   0  0  0  0  0  2  0  0  0  0  0  0
  196.1920  174.2510  137.0210 C   0  0  0  0  0  2  0  0  0  0  0  0
  197.0220  175.6430  139.5110 N   0  0  0  0  0  0  0  0  0  0  0  0
  195.0370  176.2630  140.6740 F   0  0  0  0  0  0  0  0  0  0  0  0
  1 39  1  6  0  0  0
  1  5  1  0  0  0  0
  2  5  1  0  0  0  0
  2  6  1  0  0  0  0
  4  3  1  0  0  0  0
  5  8  1  1  0  0  0
  5  4  1  0  0  0  0
  6 13  1  0  0  0  0
  6  3  1  0  0  0  0
  7 10  1  0  0  0  0
  7  8  1  0  0  0  0
  8  9  2  0  0  0  0
 11 10  1  0  0  0  0
 13 12  1  1  0  0  0
 14 20  1  0  0  0  0
 14 19  1  0  0  0  0
 15 24  1  0  0  0  0
 16 18  1  0  0  0  0
 16 13  1  1  0  0  0
 17 19  1  6  0  0  0
 17 22  1  0  0  0  0
 17 23  1  0  0  0  0
 18 25  1  0  0  0  0
 20 24  1  0  0  0  0
 21 18  1  0  0  0  0
 21 25  1  0  0  0  0
 22 16  1  0  0  0  0
 23 21  1  0  0  0  0
 24 23  1  0  0  0  0
 25 27  1  0  0  0  0
 27 26  1  0  0  0  0
 28 27  2  0  0  0  0
 29  1  1  0  0  0  0
 29 30  1  0  0  0  0
 30 31  2  0  0  0  0
 31 32  1  0  0  0  0
 33 29  1  0  0  0  0
 34 33  1  0  0  0  0
 36 35  1  0  0  0  0
 36 34  1  0  0  0  0
 36 38  1  0  0  0  0
 38 37  1  0  0  0  0
 40 47  1  0  0  0  0
 41 48  1  0  0  0  0
 42 45  1  0  0  0  0
 42 41  2  0  0  0  0
 43 42  1  0  0  0  0
 44 39  1  0  0  0  0
 44 41  1  0  0  0  0
 45 40  2  0  0  0  0
 46 43  1  0  0  0  0
 46 44  1  0  0  0  0
 48 47  2  0  0  0  0
 49 43  1  0  0  0  0
 50 49  1  0  0  0  0
 51 50  1  0  0  0  0
 52 55  1  0  0  0  0
 52 51  1  0  0  0  0
 52 53  1  0  0  0  0
 54 55  1  0  0  0  0
 55 59  1  0  0  0  0
 56 62  2  0  0  0  0
 57 63  1  0  0  0  0
 58 57  2  0  0  0  0
 59 58  1  0  0  0  0
 60 56  1  0  0  0  0
 61 60  1  0  0  0  0
 61 59  1  0  0  0  0
 62 57  1  0  0  0  0
M  END
>  <MODEL>
7

>  <REMARK>
 VINA RESULT:      -6.0      2.704      5.378
  Name = 
  20 active torsions:
  status: ('A' for Active; 'I' for Inactive)
    1  A    between atoms: C_2  and  O_14
    2  A    between atoms: C_2  and  C_27
    3  A    between atoms: C_5  and  C_35
    4  A    between atoms: C_5  and  C_41
    5  A    between atoms: C_8  and  O_14
    6  A    between atoms: C_8  and  C_23
    7  A    between atoms: O_9  and  N_22
    8  A    between atoms: C_10  and  C_41
    9  A    between atoms: C_20  and  C_62
   10  A    between atoms: C_23  and  C_45
   11  A    between atoms: C_26  and  C_35
   12  A    between atoms: C_26  and  C_46
   13  A    between atoms: C_27  and  N_37
   14  A    between atoms: C_33  and  C_59
   15  A    between atoms: C_36  and  C_43
   16  A    between atoms: C_36  and  C_61
   17  A    between atoms: C_38  and  C_60
   18  A    between atoms: C_41  and  C_61
   19  A    between atoms: N_57  and  C_62
   20  A    between atoms: C_60  and  C_61
                            x       y       z     vdW  Elec       q    Type
                         _______ _______ _______ _____ _____    ______ ____

>  <TORSDO>
F 20

$$$$
=
 OpenBabel11042415263D

 63 69  0  0  1  0  0  0  0  0999 V2000
  192.9370  171.6820  138.9360 C   0  0  2  0  0  3  0  0  0  0  0  0
  192.6080  172.4020  141.3500 C   0  0  0  0  0  2  0  0  0  0  0  0
  192.8560  170.2890  142.2320 C   0  0  0  0  0  2  0  0  0  0  0  0
  193.6180  170.2730  140.9190 C   0  0  0  0  0  2  0  0  0  0  0  0
  193.5260  171.6960  140.3700 C   0  0  1  0  0  0  0  0  0  0  0  0
  192.7160  171.6810  142.6170 N   0  0  0  0  0  0  0  0  0  0  0  0
  195.0130  173.7780  140.5530 N   0  0  0  0  0  2  0  0  0  0  0  0
  194.8870  172.3580  140.3980 C   0  0  0  0  0  0  0  0  0  0  0  0
  195.9290  171.6600  140.2640 O   0  0  0  0  0  0  0  0  0  0  0  0
  196.2310  174.3740  140.5540 O   0  0  0  0  0  0  0  0  0  0  0  0
  196.0000  175.6810  140.1130 C   0  0  0  0  0  1  0  0  0  0  0  0
  190.2130  172.0560  142.7340 C   0  0  0  0  0  1  0  0  0  0  0  0
  191.5310  171.8380  143.4780 C   0  0  2  0  0  3  0  0  0  0  0  0
  189.1720  176.1420  146.8950 C   0  0  0  0  0  2  0  0  0  0  0  0
  191.6260  175.5100  147.7300 O   0  0  0  0  0  1  0  0  0  0  0  0
  191.7550  172.8910  144.5680 C   0  0  1  0  0  3  0  0  0  0  0  0
  190.2310  174.9220  144.9730 C   0  0  2  0  0  3  0  0  0  0  0  0
  192.4440  174.0470  143.9960 N   0  0  1  0  0  0  0  0  0  0  0  0
  188.9370  175.5150  145.5270 C   0  0  0  0  0  2  0  0  0  0  0  0
  190.2050  177.1000  146.8140 O   0  0  0  0  0  0  0  0  0  0  0  0
  192.7100  174.7660  145.2680 C   0  0  2  0  0  3  0  0  0  0  0  0
  190.3920  173.3880  145.1800 C   0  0  0  0  0  2  0  0  0  0  0  0
  191.5300  175.7410  145.2950 C   0  0  2  0  0  3  0  0  0  0  0  0
  191.4300  176.4150  146.6760 C   0  0  2  0  0  3  0  0  0  0  0  0
  193.8050  174.4440  144.3570 C   0  0  2  0  0  3  0  0  0  0  0  0
  193.5360  176.0410  142.4540 O   0  0  0  0  0  0  0  0  0  0  0  0
  194.2130  175.6790  143.6120 C   0  0  0  0  0  0  0  0  0  0  0  0
  195.1550  176.4050  144.0350 O   0  0  0  0  0  1  0  0  0  0  0  0
  193.9900  171.6150  137.8040 C   0  0  1  0  0  3  0  0  0  0  0  0
  193.7540  170.3570  137.0100 C   0  0  0  0  0  3  0  0  0  0  0  0
  194.6090  169.3950  136.8980 N   0  0  0  0  0  0  0  0  0  0  0  0
  195.9060  169.4140  137.5190 C   0  0  0  0  0  1  0  0  0  0  0  0
  193.9840  172.8500  136.8970 C   0  0  0  0  0  2  0  0  0  0  0  0
  195.3080  173.0400  136.1750 C   0  0  0  0  0  2  0  0  0  0  0  0
  197.5670  172.7340  137.1390 C   0  0  0  0  0  1  0  0  0  0  0  0
  196.3550  173.6500  137.0910 C   0  0  1  0  0  3  0  0  0  0  0  0
  195.7370  175.6250  135.8800 O   0  0  0  0  0  1  0  0  0  0  0  0
  196.7830  175.0140  136.5750 C   0  0  0  0  0  2  0  0  0  0  0  0
  191.8700  172.7620  138.7130 C   0  0  0  0  0  2  0  0  0  0  0  0
  188.6100  175.1110  135.8560 C   0  0  0  0  0  3  0  0  0  0  0  0
  189.9490  173.1110  137.2410 C   0  0  0  0  0  0  0  0  0  0  0  0
  188.8990  173.7690  137.8240 C   0  0  0  0  0  0  0  0  0  0  0  0
  188.6790  173.3020  139.1400 N   0  0  0  0  0  0  0  0  0  0  0  0
  190.5700  172.1580  138.2100 C   0  0  2  0  0  3  0  0  0  0  0  0
  188.2100  174.7870  137.1650 C   0  0  0  0  0  3  0  0  0  0  0  0
  189.5630  172.1620  139.3820 C   0  0  0  0  0  2  0  0  0  0  0  0
  189.6900  174.4360  135.2520 C   0  0  0  0  0  3  0  0  0  0  0  0
  190.3780  173.4290  135.9500 C   0  0  0  0  0  3  0  0  0  0  0  0
  187.8890  173.9900  140.1520 C   0  0  0  0  0  2  0  0  0  0  0  0
  188.8200  174.7510  141.1030 C   0  0  0  0  0  2  0  0  0  0  0  0
  188.0930  175.4260  142.0930 O   0  0  0  0  0  0  0  0  0  0  0  0
  187.7700  176.6920  141.5740 C   0  0  2  0  0  3  0  0  0  0  0  0
  188.6850  177.7640  142.1620 C   0  0  0  0  0  1  0  0  0  0  0  0
  185.7610  177.7740  140.8540 O   0  0  0  0  0  1  0  0  0  0  0  0
  186.3150  177.0320  141.9050 C   0  0  2  0  0  3  0  0  0  0  0  0
  185.0280  179.5820  145.5310 C   0  0  0  0  0  3  0  0  0  0  0  0
  185.3810  177.0990  145.5580 C   0  0  0  0  0  0  0  0  0  0  0  0
  185.8530  176.8310  144.3280 C   0  0  0  0  0  3  0  0  0  0  0  0
  186.2040  177.7880  143.2370 C   0  0  2  0  0  3  0  0  0  0  0  0
  185.5630  179.9330  144.1820 C   0  0  0  0  0  2  0  0  0  0  0  0
  185.1850  178.9050  143.1420 C   0  0  0  0  0  2  0  0  0  0  0  0
  184.9990  178.3950  146.0620 N   0  0  0  0  0  0  0  0  0  0  0  0
  185.1920  176.0410  146.3850 F   0  0  0  0  0  0  0  0  0  0  0  0
  1 39  1  6  0  0  0
  1  5  1  0  0  0  0
  2  6  1  0  0  0  0
  3  6  1  0  0  0  0
  4  3  1  0  0  0  0
  5  8  1  6  0  0  0
  5  4  1  0  0  0  0
  5  2  1  0  0  0  0
  6 13  1  0  0  0  0
  7 10  1  0  0  0  0
  8  7  1  0  0  0  0
  9  8  2  0  0  0  0
 11 10  1  0  0  0  0
 13 12  1  6  0  0  0
 16 13  1  6  0  0  0
 16 22  1  0  0  0  0
 17 22  1  1  0  0  0
 17 23  1  0  0  0  0
 17 19  1  0  0  0  0
 18 25  1  0  0  0  0
 18 16  1  0  0  0  0
 18 21  1  0  0  0  0
 19 14  1  0  0  0  0
 20 14  1  0  0  0  0
 21 23  1  0  0  0  0
 23 24  1  0  0  0  0
 24 20  1  0  0  0  0
 24 15  1  0  0  0  0
 25 21  1  0  0  0  0
 26 27  2  0  0  0  0
 27 28  1  0  0  0  0
 27 25  1  0  0  0  0
 29  1  1  0  0  0  0
 30 29  1  0  0  0  0
 31 30  2  0  0  0  0
 31 32  1  0  0  0  0
 33 29  1  0  0  0  0
 34 33  1  0  0  0  0
 34 36  1  0  0  0  0
 36 35  1  0  0  0  0
 37 38  1  0  0  0  0
 38 36  1  0  0  0  0
 40 45  1  0  0  0  0
 41 42  1  0  0  0  0
 41 44  1  0  0  0  0
 42 43  1  0  0  0  0
 43 46  1  0  0  0  0
 43 49  1  0  0  0  0
 44 39  1  0  0  0  0
 44 46  1  0  0  0  0
 45 42  2  0  0  0  0
 47 40  2  0  0  0  0
 47 48  1  0  0  0  0
 48 41  2  0  0  0  0
 49 50  1  0  0  0  0
 50 51  1  0  0  0  0
 52 55  1  0  0  0  0
 52 51  1  0  0  0  0
 52 53  1  0  0  0  0
 54 55  1  0  0  0  0
 55 59  1  0  0  0  0
 56 62  2  0  0  0  0
 57 62  1  0  0  0  0
 57 63  1  0  0  0  0
 58 57  2  0  0  0  0
 59 58  1  0  0  0  0
 60 56  1  0  0  0  0
 61 59  1  0  0  0  0
 61 60  1  0  0  0  0
M  END
>  <MODEL>
8

>  <REMARK>
 VINA RESULT:      -5.9      2.826      8.240
  Name = 
  20 active torsions:
  status: ('A' for Active; 'I' for Inactive)
    1  A    between atoms: C_2  and  O_14
    2  A    between atoms: C_2  and  C_27
    3  A    between atoms: C_5  and  C_35
    4  A    between atoms: C_5  and  C_41
    5  A    between atoms: C_8  and  O_14
    6  A    between atoms: C_8  and  C_23
    7  A    between atoms: O_9  and  N_22
    8  A    between atoms: C_10  and  C_41
    9  A    between atoms: C_20  and  C_62
   10  A    between atoms: C_23  and  C_45
   11  A    between atoms: C_26  and  C_35
   12  A    between atoms: C_26  and  C_46
   13  A    between atoms: C_27  and  N_37
   14  A    between atoms: C_33  and  C_59
   15  A    between atoms: C_36  and  C_43
   16  A    between atoms: C_36  and  C_61
   17  A    between atoms: C_38  and  C_60
   18  A    between atoms: C_41  and  C_61
   19  A    between atoms: N_57  and  C_62
   20  A    between atoms: C_60  and  C_61
                            x       y       z     vdW  Elec       q    Type
                         _______ _______ _______ _____ _____    ______ ____

>  <TORSDO>
F 20

$$$$
=
 OpenBabel11042415263D

 63 69  0  0  1  0  0  0  0  0999 V2000
  188.2580  176.4570  143.3600 C   0  0  2  0  0  3  0  0  0  0  0  0
  189.6000  175.1740  141.6250 C   0  0  0  0  0  2  0  0  0  0  0  0
  188.1810  173.3600  141.5680 C   0  0  0  0  0  2  0  0  0  0  0  0
  187.3260  174.5300  142.0190 C   0  0  0  0  0  2  0  0  0  0  0  0
  188.2420  175.7520  141.9790 C   0  0  1  0  0  0  0  0  0  0  0  0
  189.3470  173.9230  140.9120 N   0  0  0  0  0  0  0  0  0  0  0  0
  186.9790  176.2480  139.8020 N   0  0  0  0  0  2  0  0  0  0  0  0
  187.8040  176.7000  140.8840 C   0  0  0  0  0  0  0  0  0  0  0  0
  188.1830  177.9030  140.9050 O   0  0  0  0  0  0  0  0  0  0  0  0
  186.6070  177.0910  138.8080 O   0  0  0  0  0  0  0  0  0  0  0  0
  186.6850  176.3330  137.6350 C   0  0  0  0  0  1  0  0  0  0  0  0
  191.8600  173.6000  140.9300 C   0  0  0  0  0  1  0  0  0  0  0  0
  190.4670  172.9710  140.9940 C   0  0  2  0  0  3  0  0  0  0  0  0
  192.9370  168.1960  138.3750 C   0  0  0  0  0  2  0  0  0  0  0  0
  190.3260  168.3240  137.8400 O   0  0  0  0  0  1  0  0  0  0  0  0
  190.3110  171.8200  139.9950 C   0  0  1  0  0  3  0  0  0  0  0  0
  192.2680  170.5560  138.9050 C   0  0  2  0  0  3  0  0  0  0  0  0
  190.4320  172.3380  138.6330 N   0  0  1  0  0  0  0  0  0  0  0  0
  193.3810  169.5150  138.9910 C   0  0  0  0  0  2  0  0  0  0  0  0
  192.5060  168.4060  137.0480 O   0  0  0  0  0  0  0  0  0  0  0  0
  190.0340  171.0980  137.9170 C   0  0  2  0  0  3  0  0  0  0  0  0
  191.4210  170.7230  140.2010 C   0  0  0  0  0  2  0  0  0  0  0  0
  191.4080  170.5040  137.5930 C   0  0  2  0  0  3  0  0  0  0  0  0
  191.2560  169.0570  137.0900 C   0  0  2  0  0  3  0  0  0  0  0  0
  189.3310  172.3540  137.6690 C   0  0  2  0  0  3  0  0  0  0  0  0
  189.5300  172.2350  135.1800 O   0  0  0  0  0  0  0  0  0  0  0  0
  189.7820  172.9260  136.3590 C   0  0  0  0  0  0  0  0  0  0  0  0
  190.3750  174.0400  136.3120 O   0  0  0  0  0  1  0  0  0  0  0  0
  187.1390  177.5050  143.5650 C   0  0  1  0  0  3  0  0  0  0  0  0
  185.8110  176.7960  143.5230 C   0  0  0  0  0  3  0  0  0  0  0  0
  184.8110  177.1640  142.7920 N   0  0  0  0  0  0  0  0  0  0  0  0
  184.8460  178.3120  141.9260 C   0  0  0  0  0  1  0  0  0  0  0  0
  187.2930  178.3110  144.8600 C   0  0  0  0  0  2  0  0  0  0  0  0
  186.0610  179.1430  145.1710 C   0  0  0  0  0  2  0  0  0  0  0  0
  184.2460  178.1970  146.5640 C   0  0  0  0  0  1  0  0  0  0  0  0
  185.5850  178.9170  146.5950 C   0  0  1  0  0  3  0  0  0  0  0  0
  185.9320  177.0730  148.0890 O   0  0  0  0  0  1  0  0  0  0  0  0
  186.5870  178.0700  147.3620 C   0  0  0  0  0  2  0  0  0  0  0  0
  189.6500  176.9650  143.7600 C   0  0  0  0  0  2  0  0  0  0  0  0
  191.1540  175.4040  148.1890 C   0  0  0  0  0  3  0  0  0  0  0  0
  190.6840  175.5370  145.4560 C   0  0  0  0  0  0  0  0  0  0  0  0
  191.8490  176.0310  145.9790 C   0  0  0  0  0  0  0  0  0  0  0  0
  192.6610  176.5910  144.9660 N   0  0  0  0  0  0  0  0  0  0  0  0
  190.6130  175.8130  143.9880 C   0  0  2  0  0  3  0  0  0  0  0  0
  192.1150  175.9930  147.3480 C   0  0  0  0  0  3  0  0  0  0  0  0
  192.0390  176.3200  143.6700 C   0  0  0  0  0  2  0  0  0  0  0  0
  189.9530  174.8950  147.6540 C   0  0  0  0  0  3  0  0  0  0  0  0
  189.7050  174.9670  146.2720 C   0  0  0  0  0  3  0  0  0  0  0  0
  193.7850  177.4880  145.1940 C   0  0  0  0  0  2  0  0  0  0  0  0
  195.0840  176.6770  145.2650 C   0  0  0  0  0  2  0  0  0  0  0  0
  195.9200  176.9580  144.1760 O   0  0  0  0  0  0  0  0  0  0  0  0
  196.1820  175.7360  143.5330 C   0  0  2  0  0  3  0  0  0  0  0  0
  195.3590  175.6150  142.2520 C   0  0  0  0  0  1  0  0  0  0  0  0
  197.0150  174.0380  144.9990 O   0  0  0  0  0  1  0  0  0  0  0  0
  195.8350  174.5740  144.4680 C   0  0  2  0  0  3  0  0  0  0  0  0
  193.9950  170.6710  142.8270 C   0  0  0  0  0  3  0  0  0  0  0  0
  192.8230  172.3100  144.3210 C   0  0  0  0  0  0  0  0  0  0  0  0
  193.7000  173.3220  144.4340 C   0  0  0  0  0  3  0  0  0  0  0  0
  195.0130  173.4970  143.7440 C   0  0  2  0  0  3  0  0  0  0  0  0
  195.2360  171.4290  142.4890 C   0  0  0  0  0  2  0  0  0  0  0  0
  195.7750  172.1890  143.6780 C   0  0  0  0  0  2  0  0  0  0  0  0
  193.0160  171.0930  143.5720 N   0  0  0  0  0  0  0  0  0  0  0  0
  191.6680  172.4190  145.0240 F   0  0  0  0  0  0  0  0  0  0  0  0
  1 29  1  0  0  0  0
  1 39  1  6  0  0  0
  2  5  1  0  0  0  0
  3  4  1  0  0  0  0
  5  8  1  6  0  0  0
  5  4  1  0  0  0  0
  5  1  1  0  0  0  0
  6 13  1  0  0  0  0
  6  3  1  0  0  0  0
  6  2  1  0  0  0  0
  7  8  1  0  0  0  0
  8  9  2  0  0  0  0
 10  7  1  0  0  0  0
 11 10  1  0  0  0  0
 13 12  1  6  0  0  0
 14 19  1  0  0  0  0
 16 22  1  0  0  0  0
 16 13  1  1  0  0  0
 17 19  1  1  0  0  0
 17 22  1  0  0  0  0
 18 16  1  0  0  0  0
 20 24  1  0  0  0  0
 20 14  1  0  0  0  0
 21 18  1  0  0  0  0
 23 21  1  0  0  0  0
 23 17  1  0  0  0  0
 24 23  1  0  0  0  0
 24 15  1  0  0  0  0
 25 21  1  0  0  0  0
 25 18  1  0  0  0  0
 26 27  2  0  0  0  0
 27 25  1  0  0  0  0
 28 27  1  0  0  0  0
 29 33  1  0  0  0  0
 30 29  1  0  0  0  0
 31 30  2  0  0  0  0
 32 31  1  0  0  0  0
 33 34  1  0  0  0  0
 34 36  1  0  0  0  0
 35 36  1  0  0  0  0
 36 38  1  0  0  0  0
 38 37  1  0  0  0  0
 39 44  1  0  0  0  0
 41 42  2  0  0  0  0
 41 48  1  0  0  0  0
 42 45  1  0  0  0  0
 43 49  1  0  0  0  0
 43 42  1  0  0  0  0
 44 41  1  0  0  0  0
 45 40  2  0  0  0  0
 46 44  1  0  0  0  0
 46 43  1  0  0  0  0
 47 40  1  0  0  0  0
 48 47  2  0  0  0  0
 49 50  1  0  0  0  0
 51 50  1  0  0  0  0
 52 51  1  0  0  0  0
 52 55  1  0  0  0  0
 53 52  1  0  0  0  0
 55 54  1  0  0  0  0
 56 62  2  0  0  0  0
 57 58  2  0  0  0  0
 57 63  1  0  0  0  0
 59 58  1  0  0  0  0
 59 55  1  0  0  0  0
 60 56  1  0  0  0  0
 60 61  1  0  0  0  0
 61 59  1  0  0  0  0
 62 57  1  0  0  0  0
M  END
>  <MODEL>
9

>  <REMARK>
 VINA RESULT:      -5.9      2.498      8.170
  Name = 
  20 active torsions:
  status: ('A' for Active; 'I' for Inactive)
    1  A    between atoms: C_2  and  O_14
    2  A    between atoms: C_2  and  C_27
    3  A    between atoms: C_5  and  C_35
    4  A    between atoms: C_5  and  C_41
    5  A    between atoms: C_8  and  O_14
    6  A    between atoms: C_8  and  C_23
    7  A    between atoms: O_9  and  N_22
    8  A    between atoms: C_10  and  C_41
    9  A    between atoms: C_20  and  C_62
   10  A    between atoms: C_23  and  C_45
   11  A    between atoms: C_26  and  C_35
   12  A    between atoms: C_26  and  C_46
   13  A    between atoms: C_27  and  N_37
   14  A    between atoms: C_33  and  C_59
   15  A    between atoms: C_36  and  C_43
   16  A    between atoms: C_36  and  C_61
   17  A    between atoms: C_38  and  C_60
   18  A    between atoms: C_41  and  C_61
   19  A    between atoms: N_57  and  C_62
   20  A    between atoms: C_60  and  C_61
                            x       y       z     vdW  Elec       q    Type
                         _______ _______ _______ _____ _____    ______ ____

>  <TORSDO>
F 20

$$$$
