=
 OpenBabel11042416103D

 34 38  0  0  1  0  0  0  0  0999 V2000
  186.8020  177.2190  146.8030 C   0  0  0  0  0  2  0  0  0  0  0  0
  194.1900  175.0700  144.2390 C   0  0  1  0  0  3  0  0  0  0  0  0
  193.3040  172.8820  143.5730 C   0  0  0  0  0  0  0  0  0  0  0  0
  187.3520  176.9010  141.8160 C   0  0  0  0  0  2  0  0  0  0  0  0
  191.3630  177.6890  144.1600 C   0  0  0  0  0  2  0  0  0  0  0  0
  185.3190  177.8130  144.8510 C   0  0  0  0  0  2  0  0  0  0  0  0
  192.6460  172.3630  142.5680 C   0  0  0  0  0  3  0  0  0  0  0  0
  187.8150  175.8020  140.8890 C   0  0  0  0  0  2  0  0  0  0  0  0
  194.9720  175.6320  146.4730 O   0  0  0  0  0  0  0  0  0  0  0  0
  188.0140  174.9550  143.1520 C   0  0  0  0  0  2  0  0  0  0  0  0
  188.4970  173.4320  141.2360 C   0  0  0  0  0  2  0  0  0  0  0  0
  190.8020  172.3950  140.8210 C   0  0  1  0  0  3  0  0  0  0  0  0
  193.0940  175.8230  143.5140 C   0  0  0  0  0  0  0  0  0  0  0  0
  188.8920  177.8620  144.1980 C   0  0  0  0  0  2  0  0  0  0  0  0
  189.6090  173.1690  140.2210 C   0  0  1  0  0  3  0  0  0  0  0  0
  191.8520  174.5590  141.6090 C   0  0  0  0  0  3  0  0  0  0  0  0
  190.0750  176.9180  144.3700 C   0  0  0  0  0  2  0  0  0  0  0  0
  187.4870  176.4140  145.7020 C   0  0  0  0  0  2  0  0  0  0  0  0
  191.4780  173.1390  141.9880 C   0  0  2  0  0  3  0  0  0  0  0  0
  185.3940  177.6240  146.3680 C   0  0  0  0  0  2  0  0  0  0  0  0
  194.1720  175.8310  145.5220 C   0  0  0  0  0  0  0  0  0  0  0  0
  192.4380  175.3030  142.5090 C   0  0  0  0  0  0  0  0  0  0  0  0
  193.1530  176.8250  145.5740 N   0  0  0  0  0  0  0  0  0  0  0  0
  186.5600  178.2610  144.3510 O   0  0  0  0  0  0  0  0  0  0  0  0
  188.6060  174.8510  141.7620 C   0  0  1  0  0  3  0  0  0  0  0  0
  187.1970  176.2410  143.1790 C   0  0  1  0  0  3  0  0  0  0  0  0
  193.8690  173.6090  144.5040 C   0  0  0  0  0  3  0  0  0  0  0  0
  192.5390  176.8120  144.4380 C   0  0  0  0  0  0  0  0  0  0  0  0
  187.5100  177.1990  144.3610 C   0  0  1  0  0  0  0  0  0  0  0  0
  190.4770  170.9250  141.1420 C   0  0  0  0  0  2  0  0  0  0  0  0
  191.2470  169.9410  140.2730 C   0  0  0  0  0  1  0  0  0  0  0  0
  189.0630  172.4780  138.9780 C   0  0  0  0  0  2  0  0  0  0  0  0
  189.0100  173.9930  137.2120 C   0  0  0  0  0  1  0  0  0  0  0  0
  188.1950  173.3830  138.2460 N   0  0  0  0  0  2  0  0  0  0  0  0
  2 27  1  1  0  0  0
  2 21  1  0  0  0  0
  3 27  2  0  0  0  0
  5 17  1  0  0  0  0
  5 28  1  0  0  0  0
  6 20  1  0  0  0  0
  7  3  2  0  0  0  0
  8  4  1  0  0  0  0
 10 26  1  0  0  0  0
 11 25  1  0  0  0  0
 12 30  1  1  0  0  0
 12 19  1  0  0  0  0
 13  2  1  0  0  0  0
 13 28  1  0  0  0  0
 14 17  1  0  0  0  0
 15 32  1  6  0  0  0
 15 12  1  0  0  0  0
 15 11  1  0  0  0  0
 16 22  2  0  0  0  0
 18  1  1  0  0  0  0
 19 16  1  6  0  0  0
 19  7  1  0  0  0  0
 20  1  1  0  0  0  0
 21 23  1  0  0  0  0
 21  9  2  0  0  0  0
 22 13  2  0  0  0  0
 24 29  1  0  0  0  0
 24  6  1  0  0  0  0
 25  8  1  6  0  0  0
 25 10  1  0  0  0  0
 26  4  1  6  0  0  0
 26 29  1  0  0  0  0
 28 23  2  0  0  0  0
 29 14  1  6  0  0  0
 29 18  1  0  0  0  0
 31 30  1  0  0  0  0
 33 34  1  0  0  0  0
 34 32  1  0  0  0  0
M  END
>  <MODEL>
1

>  <REMARK>
 VINA RESULT:      -8.0      0.000      0.000
  Name = 
  3 active torsions:
  status: ('A' for Active; 'I' for Inactive)
    1  A    between atoms: C_6  and  C_13
    2  A    between atoms: C_17  and  C_33
    3  A    between atoms: N_26  and  C_33
                            x       y       z     vdW  Elec       q    Type
                         _______ _______ _______ _____ _____    ______ ____

>  <TORSDO>
F 3

$$$$
=
 OpenBabel11042416103D

 34 38  0  0  1  0  0  0  0  0999 V2000
  193.4610  176.6840  146.7750 C   0  0  0  0  0  2  0  0  0  0  0  0
  185.5430  178.2130  145.9110 C   0  0  1  0  0  3  0  0  0  0  0  0
  185.9320  178.8070  143.5640 C   0  0  0  0  0  0  0  0  0  0  0  0
  190.9060  173.3560  144.0050 C   0  0  0  0  0  2  0  0  0  0  0  0
  188.2610  175.7460  147.0870 C   0  0  0  0  0  2  0  0  0  0  0  0
  194.0560  174.4580  145.7490 C   0  0  0  0  0  2  0  0  0  0  0  0
  186.0860  178.1960  142.4170 C   0  0  0  0  0  3  0  0  0  0  0  0
  190.0330  173.4760  142.7780 C   0  0  0  0  0  2  0  0  0  0  0  0
  185.7790  179.7400  147.7900 O   0  0  0  0  0  0  0  0  0  0  0  0
  190.7170  175.7220  143.3890 C   0  0  0  0  0  2  0  0  0  0  0  0
  189.3940  175.3760  141.3020 C   0  0  0  0  0  2  0  0  0  0  0  0
  187.0560  176.3620  140.9510 C   0  0  1  0  0  3  0  0  0  0  0  0
  186.2970  176.9040  145.7870 C   0  0  0  0  0  0  0  0  0  0  0  0
  190.5390  174.9640  146.5050 C   0  0  0  0  0  2  0  0  0  0  0  0
  187.9500  175.1060  140.8810 C   0  0  1  0  0  3  0  0  0  0  0  0
  186.5660  175.9190  143.3940 C   0  0  0  0  0  3  0  0  0  0  0  0
  189.4690  176.0060  146.2070 C   0  0  0  0  0  2  0  0  0  0  0  0
  192.3340  176.5590  145.7530 C   0  0  0  0  0  2  0  0  0  0  0  0
  186.9660  176.9600  142.3670 C   0  0  2  0  0  3  0  0  0  0  0  0
  194.5930  175.7140  146.4390 C   0  0  0  0  0  2  0  0  0  0  0  0
  186.1340  178.6880  147.1960 C   0  0  0  0  0  0  0  0  0  0  0  0
  186.4490  176.2940  144.6390 C   0  0  0  0  0  0  0  0  0  0  0  0
  187.1500  177.8280  147.7020 N   0  0  0  0  0  0  0  0  0  0  0  0
  192.7520  174.1680  146.2050 O   0  0  0  0  0  0  0  0  0  0  0  0
  189.6040  174.9270  142.7360 C   0  0  1  0  0  3  0  0  0  0  0  0
  191.5590  174.7210  144.1720 C   0  0  1  0  0  3  0  0  0  0  0  0
  185.8450  179.2100  144.8070 C   0  0  0  0  0  3  0  0  0  0  0  0
  187.2450  176.8230  146.8980 C   0  0  0  0  0  0  0  0  0  0  0  0
  191.8190  175.0960  145.6570 C   0  0  1  0  0  0  0  0  0  0  0  0
  187.3840  177.4060  139.8670 C   0  0  0  0  0  2  0  0  0  0  0  0
  186.3570  177.4410  138.7440 C   0  0  0  0  0  1  0  0  0  0  0  0
  187.8940  174.4560  139.5050 C   0  0  0  0  0  2  0  0  0  0  0  0
  188.7730  172.3680  138.9690 C   0  0  0  0  0  1  0  0  0  0  0  0
  189.1330  173.7480  139.2370 N   0  0  0  0  0  2  0  0  0  0  0  0
  2 27  1  6  0  0  0
  2 21  1  0  0  0  0
  3 27  2  0  0  0  0
  4 26  1  0  0  0  0
  6 24  1  0  0  0  0
  6 20  1  0  0  0  0
  7  3  2  0  0  0  0
  8  4  1  0  0  0  0
 12 30  1  6  0  0  0
 12 19  1  0  0  0  0
 13  2  1  0  0  0  0
 13 28  1  0  0  0  0
 15 32  1  6  0  0  0
 15 12  1  0  0  0  0
 15 11  1  0  0  0  0
 16 22  2  0  0  0  0
 17 14  1  0  0  0  0
 17  5  1  0  0  0  0
 18  1  1  0  0  0  0
 19  7  1  6  0  0  0
 19 16  1  0  0  0  0
 20  1  1  0  0  0  0
 21 23  1  0  0  0  0
 21  9  2  0  0  0  0
 22 13  2  0  0  0  0
 25 11  1  6  0  0  0
 25  8  1  0  0  0  0
 25 10  1  0  0  0  0
 26 10  1  1  0  0  0
 26 29  1  0  0  0  0
 28  5  1  0  0  0  0
 28 23  2  0  0  0  0
 29 18  1  1  0  0  0
 29 24  1  0  0  0  0
 29 14  1  0  0  0  0
 31 30  1  0  0  0  0
 33 34  1  0  0  0  0
 34 32  1  0  0  0  0
M  END
>  <MODEL>
2

>  <REMARK>
 VINA RESULT:      -8.0      2.231      6.425
  Name = 
  3 active torsions:
  status: ('A' for Active; 'I' for Inactive)
    1  A    between atoms: C_6  and  C_13
    2  A    between atoms: C_17  and  C_33
    3  A    between atoms: N_26  and  C_33
                            x       y       z     vdW  Elec       q    Type
                         _______ _______ _______ _____ _____    ______ ____

>  <TORSDO>
F 3

$$$$
=
 OpenBabel11042416103D

 34 38  0  0  1  0  0  0  0  0999 V2000
  185.9520  178.5870  142.2800 C   0  0  0  0  0  2  0  0  0  0  0  0
  190.6070  172.5750  139.4590 C   0  0  1  0  0  3  0  0  0  0  0  0
  192.5560  174.0610  139.5600 C   0  0  0  0  0  0  0  0  0  0  0  0
  189.1280  176.5680  145.6120 C   0  0  0  0  0  2  0  0  0  0  0  0
  187.9840  173.7060  142.0470 C   0  0  0  0  0  2  0  0  0  0  0  0
  186.2770  178.8770  144.7640 C   0  0  0  0  0  2  0  0  0  0  0  0
  193.4060  174.4920  140.4560 C   0  0  0  0  0  3  0  0  0  0  0  0
  190.6250  176.3620  145.6290 C   0  0  0  0  0  2  0  0  0  0  0  0
  189.0550  172.4430  137.5900 O   0  0  0  0  0  0  0  0  0  0  0  0
  190.0670  177.3530  143.4870 C   0  0  0  0  0  2  0  0  0  0  0  0
  192.4650  176.9800  144.0700 C   0  0  0  0  0  2  0  0  0  0  0  0
  193.9930  175.4010  142.7550 C   0  0  1  0  0  3  0  0  0  0  0  0
  190.1920  172.8940  140.8810 C   0  0  0  0  0  0  0  0  0  0  0  0
  187.3270  175.6810  143.3900 C   0  0  0  0  0  2  0  0  0  0  0  0
  193.4710  175.8340  144.1410 C   0  0  1  0  0  3  0  0  0  0  0  0
  192.0280  173.8340  142.4660 C   0  0  0  0  0  3  0  0  0  0  0  0
  188.2240  175.1880  142.2630 C   0  0  0  0  0  2  0  0  0  0  0  0
  187.3550  178.0060  142.4270 C   0  0  0  0  0  2  0  0  0  0  0  0
  192.8760  174.9100  141.8160 C   0  0  2  0  0  3  0  0  0  0  0  0
  185.5880  179.4190  143.5090 C   0  0  0  0  0  2  0  0  0  0  0  0
  189.2700  172.6880  138.8070 C   0  0  0  0  0  0  0  0  0  0  0  0
  191.0430  173.3240  141.7760 C   0  0  0  0  0  0  0  0  0  0  0  0
  188.2400  173.1010  139.6980 N   0  0  0  0  0  0  0  0  0  0  0  0
  186.4500  177.4790  144.6630 O   0  0  0  0  0  0  0  0  0  0  0  0
  191.0530  176.4340  144.1790 C   0  0  1  0  0  3  0  0  0  0  0  0
  188.8570  177.4590  144.4080 C   0  0  1  0  0  3  0  0  0  0  0  0
  191.5630  173.5860  138.8500 C   0  0  0  0  0  3  0  0  0  0  0  0
  188.7660  173.2240  140.8700 C   0  0  0  0  0  0  0  0  0  0  0  0
  187.4870  177.1750  143.7340 C   0  0  1  0  0  0  0  0  0  0  0  0
  194.9250  176.4400  142.1020 C   0  0  0  0  0  2  0  0  0  0  0  0
  196.3640  175.9590  141.9860 C   0  0  0  0  0  1  0  0  0  0  0  0
  194.6150  176.1680  145.0900 C   0  0  0  0  0  2  0  0  0  0  0  0
  196.0660  174.4370  145.6510 C   0  0  0  0  0  1  0  0  0  0  0  0
  194.8210  175.0780  146.0270 N   0  0  0  0  0  2  0  0  0  0  0  0
  1 18  1  0  0  0  0
  1 20  1  0  0  0  0
  2 27  1  6  0  0  0
  2 13  1  0  0  0  0
  3  7  2  0  0  0  0
  4  8  1  0  0  0  0
  5 17  1  0  0  0  0
  9 21  2  0  0  0  0
 11 15  1  0  0  0  0
 11 25  1  0  0  0  0
 12 30  1  6  0  0  0
 12 15  1  0  0  0  0
 13 22  2  0  0  0  0
 14 29  1  0  0  0  0
 15 32  1  1  0  0  0
 17 14  1  0  0  0  0
 19  7  1  6  0  0  0
 19 16  1  0  0  0  0
 19 12  1  0  0  0  0
 20  6  1  0  0  0  0
 21  2  1  0  0  0  0
 21 23  1  0  0  0  0
 22 16  2  0  0  0  0
 23 28  2  0  0  0  0
 24  6  1  0  0  0  0
 25 10  1  6  0  0  0
 25  8  1  0  0  0  0
 26 10  1  6  0  0  0
 26  4  1  0  0  0  0
 27  3  2  0  0  0  0
 28 13  1  0  0  0  0
 28  5  1  0  0  0  0
 29 18  1  6  0  0  0
 29 26  1  0  0  0  0
 29 24  1  0  0  0  0
 31 30  1  0  0  0  0
 32 34  1  0  0  0  0
 33 34  1  0  0  0  0
M  END
>  <MODEL>
3

>  <REMARK>
 VINA RESULT:      -7.7      2.180      5.847
  Name = 
  3 active torsions:
  status: ('A' for Active; 'I' for Inactive)
    1  A    between atoms: C_6  and  C_13
    2  A    between atoms: C_17  and  C_33
    3  A    between atoms: N_26  and  C_33
                            x       y       z     vdW  Elec       q    Type
                         _______ _______ _______ _____ _____    ______ ____

>  <TORSDO>
F 3

$$$$
=
 OpenBabel11042416103D

 34 38  0  0  1  0  0  0  0  0999 V2000
  185.7240  177.8150  140.5770 C   0  0  0  0  0  2  0  0  0  0  0  0
  191.4270  172.0540  140.8090 C   0  0  1  0  0  3  0  0  0  0  0  0
  193.0920  173.7510  141.4110 C   0  0  0  0  0  0  0  0  0  0  0  0
  187.4050  176.6210  145.1620 C   0  0  0  0  0  2  0  0  0  0  0  0
  187.9330  173.2070  141.9570 C   0  0  0  0  0  2  0  0  0  0  0  0
  185.0130  178.4610  142.9090 C   0  0  0  0  0  2  0  0  0  0  0  0
  193.4890  174.3890  142.4820 C   0  0  0  0  0  3  0  0  0  0  0  0
  188.7780  176.5890  145.7910 C   0  0  0  0  0  2  0  0  0  0  0  0
  190.7610  171.5040  138.5350 O   0  0  0  0  0  0  0  0  0  0  0  0
  189.0730  177.2230  143.4680 C   0  0  0  0  0  2  0  0  0  0  0  0
  191.0530  177.2040  144.9860 C   0  0  0  0  0  2  0  0  0  0  0  0
  193.0600  175.6500  144.6450 C   0  0  1  0  0  3  0  0  0  0  0  0
  190.4620  172.5050  141.8860 C   0  0  0  0  0  0  0  0  0  0  0  0
  186.6910  175.2530  142.5950 C   0  0  0  0  0  2  0  0  0  0  0  0
  192.0050  176.1980  145.6290 C   0  0  1  0  0  3  0  0  0  0  0  0
  191.4590  173.8460  143.8800 C   0  0  0  0  0  3  0  0  0  0  0  0
  187.9880  174.7220  142.0010 C   0  0  0  0  0  2  0  0  0  0  0  0
  186.9790  177.4210  141.3490 C   0  0  0  0  0  2  0  0  0  0  0  0
  192.4390  174.9170  143.4420 C   0  0  2  0  0  3  0  0  0  0  0  0
  184.8570  178.7530  141.4150 C   0  0  0  0  0  2  0  0  0  0  0  0
  190.4590  171.9280  139.6820 C   0  0  0  0  0  0  0  0  0  0  0  0
  190.8610  173.1430  142.9560 C   0  0  0  0  0  0  0  0  0  0  0  0
  189.1380  172.3340  140.0240 N   0  0  0  0  0  0  0  0  0  0  0  0
  185.2850  177.0910  143.1150 O   0  0  0  0  0  0  0  0  0  0  0  0
  189.7460  176.5200  144.6290 C   0  0  1  0  0  3  0  0  0  0  0  0
  187.5910  177.3100  143.8180 C   0  0  1  0  0  3  0  0  0  0  0  0
  192.4920  173.0780  140.4600 C   0  0  0  0  0  3  0  0  0  0  0  0
  189.1450  172.6680  141.2710 C   0  0  0  0  0  0  0  0  0  0  0  0
  186.6220  176.7880  142.7230 C   0  0  1  0  0  0  0  0  0  0  0  0
  194.1190  176.6940  144.2420 C   0  0  0  0  0  2  0  0  0  0  0  0
  195.5340  176.2820  144.6210 C   0  0  0  0  0  1  0  0  0  0  0  0
  192.6560  176.7810  146.8770 C   0  0  0  0  0  2  0  0  0  0  0  0
  191.2610  175.3120  148.0250 C   0  0  0  0  0  1  0  0  0  0  0  0
  191.7480  176.6790  148.0060 N   0  0  0  0  0  2  0  0  0  0  0  0
  1 18  1  0  0  0  0
  1 20  1  0  0  0  0
  2 27  1  6  0  0  0
  2 13  1  0  0  0  0
  3  7  2  0  0  0  0
  4  8  1  0  0  0  0
  5 17  1  0  0  0  0
  6 24  1  0  0  0  0
  9 21  2  0  0  0  0
 11 15  1  0  0  0  0
 12 30  1  6  0  0  0
 12 15  1  0  0  0  0
 13 22  2  0  0  0  0
 14 29  1  0  0  0  0
 15 32  1  1  0  0  0
 17 14  1  0  0  0  0
 19  7  1  1  0  0  0
 19 16  1  0  0  0  0
 19 12  1  0  0  0  0
 20  6  1  0  0  0  0
 21 23  1  0  0  0  0
 21  2  1  0  0  0  0
 22 16  2  0  0  0  0
 23 28  2  0  0  0  0
 25 10  1  6  0  0  0
 25 11  1  0  0  0  0
 25  8  1  0  0  0  0
 26 10  1  6  0  0  0
 26  4  1  0  0  0  0
 27  3  2  0  0  0  0
 28 13  1  0  0  0  0
 28  5  1  0  0  0  0
 29 18  1  6  0  0  0
 29 24  1  0  0  0  0
 29 26  1  0  0  0  0
 30 31  1  0  0  0  0
 32 34  1  0  0  0  0
 34 33  1  0  0  0  0
M  END
>  <MODEL>
4

>  <REMARK>
 VINA RESULT:      -7.4      2.363      5.854
  Name = 
  3 active torsions:
  status: ('A' for Active; 'I' for Inactive)
    1  A    between atoms: C_6  and  C_13
    2  A    between atoms: C_17  and  C_33
    3  A    between atoms: N_26  and  C_33
                            x       y       z     vdW  Elec       q    Type
                         _______ _______ _______ _____ _____    ______ ____

>  <TORSDO>
F 3

$$$$
=
 OpenBabel11042416103D

 34 38  0  0  1  0  0  0  0  0999 V2000
  197.0080  176.3170  143.0170 C   0  0  0  0  0  2  0  0  0  0  0  0
  190.1710  176.3050  147.3800 C   0  0  1  0  0  3  0  0  0  0  0  0
  188.9340  177.0810  145.4100 C   0  0  0  0  0  0  0  0  0  0  0  0
  193.7170  172.6960  141.8670 C   0  0  0  0  0  2  0  0  0  0  0  0
  193.3050  174.3630  146.2550 C   0  0  0  0  0  2  0  0  0  0  0  0
  197.1010  174.3050  141.4990 C   0  0  0  0  0  2  0  0  0  0  0  0
  188.4120  176.5700  144.3240 C   0  0  0  0  0  3  0  0  0  0  0  0
  192.2620  172.7040  141.4580 C   0  0  0  0  0  2  0  0  0  0  0  0
  191.3380  177.7530  148.9470 O   0  0  0  0  0  0  0  0  0  0  0  0
  192.8950  175.0060  141.8810 C   0  0  0  0  0  2  0  0  0  0  0  0
  190.6140  174.5130  140.9990 C   0  0  0  0  0  2  0  0  0  0  0  0
  188.4700  175.0370  142.2990 C   0  0  1  0  0  3  0  0  0  0  0  0
  190.8360  175.1780  146.6160 C   0  0  0  0  0  0  0  0  0  0  0  0
  194.7950  174.0740  144.2970 C   0  0  0  0  0  2  0  0  0  0  0  0
  189.2710  173.9860  141.5010 C   0  0  1  0  0  3  0  0  0  0  0  0
  189.6710  174.3850  144.4290 C   0  0  0  0  0  3  0  0  0  0  0  0
  193.6560  174.8990  144.8800 C   0  0  0  0  0  2  0  0  0  0  0  0
  195.5170  176.0250  142.8820 C   0  0  0  0  0  2  0  0  0  0  0  0
  189.2110  175.5350  143.5530 C   0  0  2  0  0  3  0  0  0  0  0  0
  197.7910  175.6070  141.9140 C   0  0  0  0  0  2  0  0  0  0  0  0
  191.3710  176.8220  148.1000 C   0  0  0  0  0  0  0  0  0  0  0  0
  190.3120  174.6680  145.5310 C   0  0  0  0  0  0  0  0  0  0  0  0
  192.5760  176.1540  147.7420 N   0  0  0  0  0  0  0  0  0  0  0  0
  196.4140  173.7430  142.5960 O   0  0  0  0  0  0  0  0  0  0  0  0
  191.7270  174.0430  141.9180 C   0  0  1  0  0  3  0  0  0  0  0  0
  194.1570  174.1520  141.8220 C   0  0  1  0  0  3  0  0  0  0  0  0
  189.5930  177.3970  146.4960 C   0  0  0  0  0  3  0  0  0  0  0  0
  192.2710  175.2280  146.8960 C   0  0  0  0  0  0  0  0  0  0  0  0
  195.2380  174.4960  142.8820 C   0  0  1  0  0  0  0  0  0  0  0  0
  187.9190  176.1780  141.4230 C   0  0  0  0  0  2  0  0  0  0  0  0
  186.5290  176.6330  141.8440 C   0  0  0  0  0  1  0  0  0  0  0  0
  188.4480  173.4080  140.3570 C   0  0  0  0  0  2  0  0  0  0  0  0
  188.2000  174.1770  138.1740 C   0  0  0  0  0  1  0  0  0  0  0  0
  189.1500  173.5870  139.0980 N   0  0  0  0  0  2  0  0  0  0  0  0
  2 27  1  6  0  0  0
  2 21  1  0  0  0  0
  3 27  2  0  0  0  0
  5 28  1  0  0  0  0
  6 20  1  0  0  0  0
  6 24  1  0  0  0  0
  7  3  2  0  0  0  0
  8  4  1  0  0  0  0
  8 25  1  0  0  0  0
 10 25  1  0  0  0  0
 11 15  1  0  0  0  0
 12 30  1  6  0  0  0
 12 19  1  0  0  0  0
 13 28  1  0  0  0  0
 13  2  1  0  0  0  0
 14 17  1  0  0  0  0
 15 32  1  6  0  0  0
 15 12  1  0  0  0  0
 16 22  2  0  0  0  0
 17  5  1  0  0  0  0
 18  1  1  0  0  0  0
 19  7  1  1  0  0  0
 19 16  1  0  0  0  0
 20  1  1  0  0  0  0
 21  9  2  0  0  0  0
 22 13  2  0  0  0  0
 23 21  1  0  0  0  0
 24 29  1  0  0  0  0
 25 11  1  6  0  0  0
 26  4  1  1  0  0  0
 26 10  1  0  0  0  0
 26 29  1  0  0  0  0
 28 23  2  0  0  0  0
 29 18  1  6  0  0  0
 29 14  1  0  0  0  0
 30 31  1  0  0  0  0
 33 34  1  0  0  0  0
 34 32  1  0  0  0  0
M  END
>  <MODEL>
5

>  <REMARK>
 VINA RESULT:      -7.1      2.342      6.348
  Name = 
  3 active torsions:
  status: ('A' for Active; 'I' for Inactive)
    1  A    between atoms: C_6  and  C_13
    2  A    between atoms: C_17  and  C_33
    3  A    between atoms: N_26  and  C_33
                            x       y       z     vdW  Elec       q    Type
                         _______ _______ _______ _____ _____    ______ ____

>  <TORSDO>
F 3

$$$$
=
 OpenBabel11042416103D

 34 38  0  0  1  0  0  0  0  0999 V2000
  187.1860  177.4260  144.9670 C   0  0  0  0  0  2  0  0  0  0  0  0
  190.9440  172.2730  139.9580 C   0  0  1  0  0  3  0  0  0  0  0  0
  192.6880  173.9520  139.5680 C   0  0  0  0  0  0  0  0  0  0  0  0
  191.4790  175.4700  146.7020 C   0  0  0  0  0  2  0  0  0  0  0  0
  189.3450  172.8490  143.4180 C   0  0  0  0  0  2  0  0  0  0  0  0
  188.3550  177.5120  147.2000 C   0  0  0  0  0  2  0  0  0  0  0  0
  193.7690  174.3890  140.1620 C   0  0  0  0  0  3  0  0  0  0  0  0
  192.8940  175.4330  146.1730 C   0  0  0  0  0  2  0  0  0  0  0  0
  188.8410  172.1450  138.7430 O   0  0  0  0  0  0  0  0  0  0  0  0
  191.5380  176.5540  144.5030 C   0  0  0  0  0  2  0  0  0  0  0  0
  194.0050  176.4000  144.1660 C   0  0  0  0  0  2  0  0  0  0  0  0
  195.0720  175.1360  142.2110 C   0  0  1  0  0  3  0  0  0  0  0  0
  191.0420  172.4060  141.4640 C   0  0  0  0  0  0  0  0  0  0  0  0
  189.0710  174.6010  145.1480 C   0  0  0  0  0  2  0  0  0  0  0  0
  195.0500  175.3730  143.7360 C   0  0  1  0  0  3  0  0  0  0  0  0
  193.2510  173.3910  142.4220 C   0  0  0  0  0  3  0  0  0  0  0  0
  189.5390  174.3210  143.7270 C   0  0  0  0  0  2  0  0  0  0  0  0
  188.5860  176.9950  144.5430 C   0  0  0  0  0  2  0  0  0  0  0  0
  193.7320  174.6130  141.6630 C   0  0  2  0  0  3  0  0  0  0  0  0
  187.2270  178.0900  146.3430 C   0  0  0  0  0  2  0  0  0  0  0  0
  189.4580  172.2960  139.8300 C   0  0  0  0  0  0  0  0  0  0  0  0
  192.1240  172.8420  142.0560 C   0  0  0  0  0  0  0  0  0  0  0  0
  188.7870  172.5030  141.0690 N   0  0  0  0  0  0  0  0  0  0  0  0
  188.5810  176.1590  146.8670 O   0  0  0  0  0  0  0  0  0  0  0  0
  192.7690  175.6910  144.6860 C   0  0  1  0  0  3  0  0  0  0  0  0
  190.7320  176.4350  145.7920 C   0  0  1  0  0  3  0  0  0  0  0  0
  191.5440  173.4390  139.1920 C   0  0  0  0  0  3  0  0  0  0  0  0
  189.6880  172.5730  141.9910 C   0  0  0  0  0  0  0  0  0  0  0  0
  189.2360  176.0640  145.6040 C   0  0  1  0  0  0  0  0  0  0  0  0
  195.6320  176.3300  141.4160 C   0  0  0  0  0  2  0  0  0  0  0  0
  196.9200  176.0010  140.6740 C   0  0  0  0  0  1  0  0  0  0  0  0
  196.4310  175.7430  144.2630 C   0  0  0  0  0  2  0  0  0  0  0  0
  196.6920  173.9530  145.7290 C   0  0  0  0  0  1  0  0  0  0  0  0
  197.2090  174.5410  144.5080 N   0  0  0  0  0  2  0  0  0  0  0  0
  1 20  1  0  0  0  0
  2 27  1  6  0  0  0
  2 13  1  0  0  0  0
  3  7  2  0  0  0  0
  5 17  1  0  0  0  0
  8  4  1  0  0  0  0
  9 21  2  0  0  0  0
 10 25  1  0  0  0  0
 12 30  1  6  0  0  0
 12 15  1  0  0  0  0
 13 28  1  0  0  0  0
 13 22  2  0  0  0  0
 14 29  1  0  0  0  0
 15 11  1  0  0  0  0
 15 32  1  6  0  0  0
 17 14  1  0  0  0  0
 18  1  1  0  0  0  0
 19  7  1  6  0  0  0
 19 12  1  0  0  0  0
 19 16  1  0  0  0  0
 20  6  1  0  0  0  0
 21  2  1  0  0  0  0
 21 23  1  0  0  0  0
 22 16  2  0  0  0  0
 23 28  2  0  0  0  0
 24  6  1  0  0  0  0
 25 11  1  1  0  0  0
 25  8  1  0  0  0  0
 26 10  1  6  0  0  0
 26  4  1  0  0  0  0
 27  3  2  0  0  0  0
 28  5  1  0  0  0  0
 29 18  1  6  0  0  0
 29 26  1  0  0  0  0
 29 24  1  0  0  0  0
 31 30  1  0  0  0  0
 32 34  1  0  0  0  0
 34 33  1  0  0  0  0
M  END
>  <MODEL>
6

>  <REMARK>
 VINA RESULT:      -7.0      2.647      6.061
  Name = 
  3 active torsions:
  status: ('A' for Active; 'I' for Inactive)
    1  A    between atoms: C_6  and  C_13
    2  A    between atoms: C_17  and  C_33
    3  A    between atoms: N_26  and  C_33
                            x       y       z     vdW  Elec       q    Type
                         _______ _______ _______ _____ _____    ______ ____

>  <TORSDO>
F 3

$$$$
=
 OpenBabel11042416103D

 34 38  0  0  1  0  0  0  0  0999 V2000
  192.9710  171.3690  138.7920 C   0  0  0  0  0  2  0  0  0  0  0  0
  195.6890  174.5140  145.7550 C   0  0  1  0  0  3  0  0  0  0  0  0
  194.3160  176.5090  145.3690 C   0  0  0  0  0  0  0  0  0  0  0  0
  189.6190  171.5540  142.5330 C   0  0  0  0  0  2  0  0  0  0  0  0
  194.1100  171.4910  143.9590 C   0  0  0  0  0  2  0  0  0  0  0  0
  190.6310  170.4710  139.0720 C   0  0  0  0  0  2  0  0  0  0  0  0
  193.0700  176.8780  145.5220 C   0  0  0  0  0  3  0  0  0  0  0  0
  189.0950  172.6700  143.4050 C   0  0  0  0  0  2  0  0  0  0  0  0
  197.9290  174.1750  144.8680 O   0  0  0  0  0  0  0  0  0  0  0  0
  190.7800  173.6340  141.9520 C   0  0  0  0  0  2  0  0  0  0  0  0
  189.4830  175.1290  143.4710 C   0  0  0  0  0  2  0  0  0  0  0  0
  190.5650  176.4890  145.3520 C   0  0  1  0  0  3  0  0  0  0  0  0
  194.5300  173.5710  145.5050 C   0  0  0  0  0  0  0  0  0  0  0  0
  192.5240  170.9430  142.1370 C   0  0  0  0  0  2  0  0  0  0  0  0
  189.4370  175.5160  144.9480 C   0  0  1  0  0  3  0  0  0  0  0  0
  192.1340  174.5480  145.7730 C   0  0  0  0  0  3  0  0  0  0  0  0
  193.3070  172.0640  142.8070 C   0  0  0  0  0  2  0  0  0  0  0  0
  192.5060  172.2210  139.9680 C   0  0  0  0  0  2  0  0  0  0  0  0
  191.9730  175.9080  145.1230 C   0  0  2  0  0  3  0  0  0  0  0  0
  191.7730  170.7340  138.0870 C   0  0  0  0  0  2  0  0  0  0  0  0
  196.7240  173.8140  144.9410 C   0  0  0  0  0  0  0  0  0  0  0  0
  193.2850  173.9420  145.6580 C   0  0  0  0  0  0  0  0  0  0  0  0
  196.2220  172.6800  144.2430 N   0  0  0  0  0  0  0  0  0  0  0  0
  191.1460  170.1970  140.3580 O   0  0  0  0  0  0  0  0  0  0  0  0
  190.1340  173.7670  143.3150 C   0  0  1  0  0  3  0  0  0  0  0  0
  190.4320  172.2390  141.4440 C   0  0  1  0  0  3  0  0  0  0  0  0
  195.4750  175.9180  145.2170 C   0  0  0  0  0  3  0  0  0  0  0  0
  194.9770  172.5490  144.5590 C   0  0  0  0  0  0  0  0  0  0  0  0
  191.6390  171.3930  140.9570 C   0  0  1  0  0  0  0  0  0  0  0  0
  190.3880  177.9040  144.7720 C   0  0  0  0  0  2  0  0  0  0  0  0
  190.8710  178.0230  143.3340 C   0  0  0  0  0  1  0  0  0  0  0  0
  188.0670  176.0620  145.3280 C   0  0  0  0  0  2  0  0  0  0  0  0
  186.7020  176.8030  147.0620 C   0  0  0  0  0  1  0  0  0  0  0  0
  187.9110  176.0540  146.7720 N   0  0  0  0  0  2  0  0  0  0  0  0
  1 18  1  0  0  0  0
  2 27  1  6  0  0  0
  3  7  2  0  0  0  0
  4  8  1  0  0  0  0
  5 28  1  0  0  0  0
  6 24  1  0  0  0  0
  9 21  2  0  0  0  0
 11 15  1  0  0  0  0
 12 30  1  6  0  0  0
 13 22  2  0  0  0  0
 13  2  1  0  0  0  0
 14 17  1  0  0  0  0
 15 32  1  6  0  0  0
 15 12  1  0  0  0  0
 17  5  1  0  0  0  0
 19 12  1  0  0  0  0
 19  7  1  1  0  0  0
 19 16  1  0  0  0  0
 20  1  1  0  0  0  0
 20  6  1  0  0  0  0
 21  2  1  0  0  0  0
 22 16  2  0  0  0  0
 23 28  2  0  0  0  0
 23 21  1  0  0  0  0
 24 29  1  0  0  0  0
 25 10  1  6  0  0  0
 25  8  1  0  0  0  0
 25 11  1  0  0  0  0
 26 10  1  1  0  0  0
 26  4  1  0  0  0  0
 27  3  2  0  0  0  0
 28 13  1  0  0  0  0
 29 18  1  6  0  0  0
 29 26  1  0  0  0  0
 29 14  1  0  0  0  0
 31 30  1  0  0  0  0
 32 34  1  0  0  0  0
 34 33  1  0  0  0  0
M  END
>  <MODEL>
7

>  <REMARK>
 VINA RESULT:      -6.9      3.130      6.742
  Name = 
  3 active torsions:
  status: ('A' for Active; 'I' for Inactive)
    1  A    between atoms: C_6  and  C_13
    2  A    between atoms: C_17  and  C_33
    3  A    between atoms: N_26  and  C_33
                            x       y       z     vdW  Elec       q    Type
                         _______ _______ _______ _____ _____    ______ ____

>  <TORSDO>
F 3

$$$$
=
 OpenBabel11042416103D

 34 38  0  0  1  0  0  0  0  0999 V2000
  187.9560  172.1490  139.4720 C   0  0  0  0  0  2  0  0  0  0  0  0
  185.8460  178.4320  144.1450 C   0  0  1  0  0  3  0  0  0  0  0  0
  186.6520  177.2150  146.1150 C   0  0  0  0  0  0  0  0  0  0  0  0
  191.7750  174.8210  141.3530 C   0  0  0  0  0  2  0  0  0  0  0  0
  187.7260  177.2070  141.0110 C   0  0  0  0  0  2  0  0  0  0  0  0
  190.4500  172.1130  139.0980 C   0  0  0  0  0  2  0  0  0  0  0  0
  187.7910  176.9700  146.7100 C   0  0  0  0  0  3  0  0  0  0  0  0
  192.1800  175.2130  142.7550 C   0  0  0  0  0  2  0  0  0  0  0  0
  183.6210  178.2130  143.1880 O   0  0  0  0  0  0  0  0  0  0  0  0
  190.0970  173.9830  142.9320 C   0  0  0  0  0  2  0  0  0  0  0  0
  191.2700  174.6980  145.0150 C   0  0  0  0  0  2  0  0  0  0  0  0
  190.2520  176.3380  146.6980 C   0  0  1  0  0  3  0  0  0  0  0  0
  187.1260  178.1860  143.3720 C   0  0  0  0  0  0  0  0  0  0  0  0
  189.0560  175.2860  140.1870 C   0  0  0  0  0  2  0  0  0  0  0  0
  191.4820  175.9630  145.8440 C   0  0  1  0  0  3  0  0  0  0  0  0
  189.2530  177.6190  144.7580 C   0  0  0  0  0  3  0  0  0  0  0  0
  188.1700  175.7900  141.3180 C   0  0  0  0  0  2  0  0  0  0  0  0
  188.4150  172.9100  140.7110 C   0  0  0  0  0  2  0  0  0  0  0  0
  188.9920  176.6060  145.8550 C   0  0  2  0  0  3  0  0  0  0  0  0
  189.1260  171.3850  138.8520 C   0  0  0  0  0  2  0  0  0  0  0  0
  184.8690  178.0990  143.0680 C   0  0  0  0  0  0  0  0  0  0  0  0
  188.2640  177.9420  143.9680 C   0  0  0  0  0  0  0  0  0  0  0  0
  185.4840  177.6390  141.8700 N   0  0  0  0  0  0  0  0  0  0  0  0
  190.2390  173.5080  139.1580 O   0  0  0  0  0  0  0  0  0  0  0  0
  190.9220  175.0720  143.5860 C   0  0  1  0  0  3  0  0  0  0  0  0
  190.6560  173.8050  141.5240 C   0  0  1  0  0  3  0  0  0  0  0  0
  185.6460  177.5000  145.3270 C   0  0  0  0  0  3  0  0  0  0  0  0
  186.7620  177.6810  142.0470 C   0  0  0  0  0  0  0  0  0  0  0  0
  189.6020  173.8580  140.3840 C   0  0  1  0  0  0  0  0  0  0  0  0
  190.0070  175.3720  147.8720 C   0  0  0  0  0  2  0  0  0  0  0  0
  188.9720  174.3020  147.5550 C   0  0  0  0  0  1  0  0  0  0  0  0
  192.7410  175.8550  146.6950 C   0  0  0  0  0  2  0  0  0  0  0  0
  194.9150  175.6850  145.8830 C   0  0  0  0  0  1  0  0  0  0  0  0
  193.8200  176.6130  146.0880 N   0  0  0  0  0  2  0  0  0  0  0  0
  1 18  1  0  0  0  0
  2 27  1  1  0  0  0
  3  7  2  0  0  0  0
  4  8  1  0  0  0  0
  5 17  1  0  0  0  0
  5 28  1  0  0  0  0
  6 24  1  0  0  0  0
 10 25  1  0  0  0  0
 11 15  1  0  0  0  0
 12 30  1  1  0  0  0
 13 22  2  0  0  0  0
 13  2  1  0  0  0  0
 14 17  1  0  0  0  0
 15 32  1  1  0  0  0
 15 12  1  0  0  0  0
 19 16  1  6  0  0  0
 19 12  1  0  0  0  0
 19  7  1  0  0  0  0
 20  6  1  0  0  0  0
 20  1  1  0  0  0  0
 21  9  2  0  0  0  0
 21  2  1  0  0  0  0
 22 16  2  0  0  0  0
 23 28  2  0  0  0  0
 23 21  1  0  0  0  0
 24 29  1  0  0  0  0
 25  8  1  6  0  0  0
 25 11  1  0  0  0  0
 26  4  1  6  0  0  0
 26 10  1  0  0  0  0
 27  3  2  0  0  0  0
 28 13  1  0  0  0  0
 29 14  1  6  0  0  0
 29 18  1  0  0  0  0
 29 26  1  0  0  0  0
 31 30  1  0  0  0  0
 33 34  1  0  0  0  0
 34 32  1  0  0  0  0
M  END
>  <MODEL>
8

>  <REMARK>
 VINA RESULT:      -6.8      2.490      7.469
  Name = 
  3 active torsions:
  status: ('A' for Active; 'I' for Inactive)
    1  A    between atoms: C_6  and  C_13
    2  A    between atoms: C_17  and  C_33
    3  A    between atoms: N_26  and  C_33
                            x       y       z     vdW  Elec       q    Type
                         _______ _______ _______ _____ _____    ______ ____

>  <TORSDO>
F 3

$$$$
=
 OpenBabel11042416103D

 34 38  0  0  1  0  0  0  0  0999 V2000
  196.6680  176.8730  143.6710 C   0  0  0  0  0  2  0  0  0  0  0  0
  188.9390  175.5910  145.7650 C   0  0  1  0  0  3  0  0  0  0  0  0
  188.3410  175.4320  143.3920 C   0  0  0  0  0  0  0  0  0  0  0  0
  194.9730  172.2000  142.9230 C   0  0  0  0  0  2  0  0  0  0  0  0
  192.6340  174.6010  146.2350 C   0  0  0  0  0  2  0  0  0  0  0  0
  197.7750  174.7140  142.9820 C   0  0  0  0  0  2  0  0  0  0  0  0
  188.3800  174.5400  142.4350 C   0  0  0  0  0  3  0  0  0  0  0  0
  193.8050  171.6280  142.1560 C   0  0  0  0  0  2  0  0  0  0  0  0
  189.0860  177.6650  147.0260 O   0  0  0  0  0  0  0  0  0  0  0  0
  193.6750  174.0410  141.9560 C   0  0  0  0  0  2  0  0  0  0  0  0
  192.0490  172.6260  140.7000 C   0  0  0  0  0  2  0  0  0  0  0  0
  189.5230  172.6910  141.1210 C   0  0  1  0  0  3  0  0  0  0  0  0
  190.0810  174.6050  145.6240 C   0  0  0  0  0  0  0  0  0  0  0  0
  194.7490  174.3810  144.9640 C   0  0  0  0  0  2  0  0  0  0  0  0
  190.7820  171.8130  140.9620 C   0  0  1  0  0  3  0  0  0  0  0  0
  190.0010  172.9870  143.5890 C   0  0  0  0  0  3  0  0  0  0  0  0
  193.3150  174.8900  144.9110 C   0  0  0  0  0  2  0  0  0  0  0  0
  195.4400  176.0780  143.2390 C   0  0  0  0  0  2  0  0  0  0  0  0
  189.6240  173.6820  142.2950 C   0  0  2  0  0  3  0  0  0  0  0  0
  197.9390  176.2300  143.1190 C   0  0  0  0  0  2  0  0  0  0  0  0
  189.6400  176.6290  146.5730 C   0  0  0  0  0  0  0  0  0  0  0  0
  190.1180  173.7140  144.6670 C   0  0  0  0  0  0  0  0  0  0  0  0
  191.0160  176.3380  146.7960 N   0  0  0  0  0  0  0  0  0  0  0  0
  196.8970  174.2250  143.9730 O   0  0  0  0  0  0  0  0  0  0  0  0
  192.8370  172.7800  141.9870 C   0  0  1  0  0  3  0  0  0  0  0  0
  195.0390  173.6670  142.5250 C   0  0  1  0  0  3  0  0  0  0  0  0
  188.4720  176.1920  144.4510 C   0  0  0  0  0  3  0  0  0  0  0  0
  191.2650  175.1950  146.2500 C   0  0  0  0  0  0  0  0  0  0  0  0
  195.5540  174.5880  143.6650 C   0  0  1  0  0  0  0  0  0  0  0  0
  189.0660  173.3480  139.8050 C   0  0  0  0  0  2  0  0  0  0  0  0
  187.8470  172.6720  139.1950 C   0  0  0  0  0  1  0  0  0  0  0  0
  190.5870  170.7450  139.8930 C   0  0  0  0  0  2  0  0  0  0  0  0
  190.8300  169.2240  141.6380 C   0  0  0  0  0  1  0  0  0  0  0  0
  191.2600  169.5190  140.2840 N   0  0  0  0  0  2  0  0  0  0  0  0
  2 27  1  6  0  0  0
  2 21  1  0  0  0  0
  3 27  2  0  0  0  0
  5 28  1  0  0  0  0
  6 20  1  0  0  0  0
  6 24  1  0  0  0  0
  7  3  2  0  0  0  0
  8  4  1  0  0  0  0
 10 25  1  0  0  0  0
 11 15  1  0  0  0  0
 12 30  1  6  0  0  0
 12 19  1  0  0  0  0
 13  2  1  0  0  0  0
 13 28  1  0  0  0  0
 15 32  1  6  0  0  0
 15 12  1  0  0  0  0
 16 22  2  0  0  0  0
 17 14  1  0  0  0  0
 17  5  1  0  0  0  0
 18  1  1  0  0  0  0
 19  7  1  1  0  0  0
 19 16  1  0  0  0  0
 20  1  1  0  0  0  0
 21 23  1  0  0  0  0
 21  9  2  0  0  0  0
 22 13  2  0  0  0  0
 25 11  1  6  0  0  0
 25  8  1  0  0  0  0
 26 10  1  1  0  0  0
 26  4  1  0  0  0  0
 26 29  1  0  0  0  0
 28 23  2  0  0  0  0
 29 18  1  6  0  0  0
 29 24  1  0  0  0  0
 29 14  1  0  0  0  0
 31 30  1  0  0  0  0
 32 34  1  0  0  0  0
 34 33  1  0  0  0  0
M  END
>  <MODEL>
9

>  <REMARK>
 VINA RESULT:      -6.8      2.292      6.450
  Name = 
  3 active torsions:
  status: ('A' for Active; 'I' for Inactive)
    1  A    between atoms: C_6  and  C_13
    2  A    between atoms: C_17  and  C_33
    3  A    between atoms: N_26  and  C_33
                            x       y       z     vdW  Elec       q    Type
                         _______ _______ _______ _____ _____    ______ ____

>  <TORSDO>
F 3

$$$$
