=
 OpenBabel11042414063D

 49 51  0  0  1  0  0  0  0  0999 V2000
  187.1490  176.5200  139.9770 C   0  0  0  0  0  3  0  0  0  0  0  0
  191.4270  172.8400  141.0070 C   0  0  0  0  0  3  0  0  0  0  0  0
  185.7800  179.5050  147.4750 O   0  0  0  0  0  0  0  0  0  0  0  0
  188.3460  174.4860  139.6960 O   0  0  0  0  0  0  0  0  0  0  0  0
  186.0670  178.9050  146.4060 C   0  0  0  0  0  0  0  0  0  0  0  0
  187.4410  176.3650  144.1720 C   0  0  0  0  0  3  0  0  0  0  0  0
  188.4230  174.1520  142.6550 C   0  0  0  0  0  3  0  0  0  0  0  0
  186.2280  178.4350  144.2420 C   0  0  0  0  0  0  0  0  0  0  0  0
  186.5860  177.5300  140.7530 C   0  0  0  0  0  3  0  0  0  0  0  0
  189.3350  173.2690  142.2480 C   0  0  0  0  0  0  0  0  0  0  0  0
  186.1310  178.4750  142.8910 N   0  0  0  0  0  0  0  0  0  0  0  0
  187.3560  176.3880  142.7640 C   0  0  0  0  0  0  0  0  0  0  0  0
  186.6860  177.4800  142.1400 C   0  0  0  0  0  0  0  0  0  0  0  0
  191.6710  173.3080  138.6510 C   0  0  0  0  0  0  0  0  0  0  0  0
  187.8230  175.4450  140.5640 C   0  0  0  0  0  0  0  0  0  0  0  0
  185.6930  179.4050  145.1230 N   0  0  0  0  0  2  0  0  0  0  0  0
  190.3850  173.8510  138.6350 C   0  0  0  0  0  3  0  0  0  0  0  0
  187.9210  175.3590  141.9730 C   0  0  0  0  0  0  0  0  0  0  0  0
  186.8300  177.6140  146.3620 C   0  0  0  0  0  2  0  0  0  0  0  0
  190.1330  173.3900  141.0080 C   0  0  0  0  0  0  0  0  0  0  0  0
  186.8690  177.4120  144.8900 C   0  0  0  0  0  0  0  0  0  0  0  0
  192.1960  172.8110  139.8420 C   0  0  0  0  0  3  0  0  0  0  0  0
  189.6150  173.9170  139.8030 C   0  0  0  0  0  0  0  0  0  0  0  0
  192.4790  173.2550  137.4010 C   0  0  0  0  0  2  0  0  0  0  0  0
  191.9900  174.1750  136.4700 O   0  0  0  0  0  0  0  0  0  0  0  0
  194.5170  175.0990  137.4570 C   0  0  0  0  0  1  0  0  0  0  0  0
  193.9550  174.7310  134.8220 O   0  0  0  0  0  0  0  0  0  0  0  0
  192.7830  176.7920  135.9470 O   0  0  0  0  0  1  0  0  0  0  0  0
  193.3030  175.1870  136.1100 P   0  0  1  0  0  0  0  0  0  0  0  0
  189.5820  172.1160  143.1700 C   0  0  0  0  0  2  0  0  0  0  0  0
  189.9650  172.6180  144.5550 C   0  0  0  0  0  2  0  0  0  0  0  0
  191.4600  172.8990  144.6280 C   0  0  0  0  0  2  0  0  0  0  0  0
  191.7070  174.2320  144.2700 O   0  0  0  0  0  0  0  0  0  0  0  0
  191.7600  174.9080  145.4470 N   0  0  0  0  0  0  0  0  0  0  0  0
  191.4410  176.3140  145.1620 C   0  0  2  0  0  3  0  0  0  0  0  0
  190.4430  176.8000  146.0150 O   0  0  0  0  0  1  0  0  0  0  0  0
  190.7510  177.9610  143.4240 C   0  0  0  0  0  1  0  0  0  0  0  0
  191.0440  176.4970  143.7020 C   0  0  0  0  0  2  0  0  0  0  0  0
  193.1270  174.7960  145.9530 C   0  0  0  0  0  2  0  0  0  0  0  0
  193.9440  176.0170  145.5470 C   0  0  0  0  0  1  0  0  0  0  0  0
  194.8430  175.6660  144.3690 O   0  0  0  0  0  1  0  0  0  0  0  0
  194.6640  176.3480  144.0300 O   0  0  0  0  0  0  0  0  0  0  0  0
  195.9080  176.5550  143.9910 C   0  0  0  0  0  1  0  0  0  0  0  0
  196.7370  176.2670  142.7890 C   0  0  0  0  0  1  0  0  0  0  0  0
  196.1580  176.8710  141.6710 O   0  0  0  0  0  0  0  0  0  0  0  0
  196.1610  175.8770  140.6890 C   0  0  2  0  0  3  0  0  0  0  0  0
  195.5800  174.7140  141.1950 O   0  0  0  0  0  1  0  0  0  0  0  0
  197.5720  174.6480  139.2170 O   0  0  0  0  0  1  0  0  0  0  0  0
  197.5820  175.5840  140.2520 C   0  0  0  0  0  2  0  0  0  0  0  0
  1 15  2  0  0  0  0
  1  9  1  0  0  0  0
  2 20  1  0  0  0  0
  4 23  1  0  0  0  0
  4 15  1  0  0  0  0
  5  3  2  0  0  0  0
  6 21  2  0  0  0  0
  8 21  1  0  0  0  0
  8 16  1  0  0  0  0
  9 13  2  0  0  0  0
 10  7  2  0  0  0  0
 10 30  1  0  0  0  0
 11  8  2  0  0  0  0
 12  6  1  0  0  0  0
 13 12  1  0  0  0  0
 13 11  1  0  0  0  0
 14 22  1  0  0  0  0
 15 18  1  0  0  0  0
 16  5  1  0  0  0  0
 17 14  2  0  0  0  0
 17 23  1  0  0  0  0
 18  7  1  0  0  0  0
 18 12  2  0  0  0  0
 19  5  1  0  0  0  0
 20 10  1  0  0  0  0
 21 19  1  0  0  0  0
 22  2  2  0  0  0  0
 23 20  2  0  0  0  0
 24 14  1  0  0  0  0
 25 24  1  0  0  0  0
 27 29  2  0  0  0  0
 28 29  1  0  0  0  0
 29 25  1  0  0  0  0
 29 26  1  1  0  0  0
 30 31  1  0  0  0  0
 31 32  1  0  0  0  0
 33 32  1  0  0  0  0
 33 34  1  0  0  0  0
 34 39  1  0  0  0  0
 35 34  1  0  0  0  0
 35 36  1  1  0  0  0
 37 38  1  0  0  0  0
 38 35  1  0  0  0  0
 40 39  1  0  0  0  0
 42 41  1  0  0  0  0
 43 42  1  0  0  0  0
 45 44  1  0  0  0  0
 46 47  1  1  0  0  0
 46 45  1  0  0  0  0
 48 49  1  0  0  0  0
 49 46  1  0  0  0  0
M  END
>  <MODEL>
1

>  <REMARK>
 VINA RESULT:      -6.4      0.000      0.000
  Name = 
  18 active torsions:
  status: ('A' for Active; 'I' for Inactive)
    1  A    between atoms: C_1  and  C_22
    2  A    between atoms: C_1  and  C_45
    3  A    between atoms: C_2  and  C_26
    4  A    between atoms: C_2  and  N_33
    5  A    between atoms: C_3  and  O_21
    6  A    between atoms: C_3  and  C_30
    7  A    between atoms: C_7  and  O_21
    8  A    between atoms: C_7  and  C_32
    9  A    between atoms: C_18  and  C_22
   10  A    between atoms: C_23  and  C_28
   11  A    between atoms: C_23  and  O_48
   12  A    between atoms: C_30  and  O_43
   13  A    between atoms: N_33  and  O_34
   14  A    between atoms: N_33  and  C_44
   15  A    between atoms: O_34  and  C_45
   16  A    between atoms: P_41  and  O_48
   17  A    between atoms: O_43  and  C_47
   18  A    between atoms: C_44  and  C_47
                            x       y       z     vdW  Elec       q    Type
                         _______ _______ _______ _____ _____    ______ ____

>  <TORSDO>
F 18

$$$$
=
 OpenBabel11042414063D

 49 51  0  0  1  0  0  0  0  0999 V2000
  187.5130  175.0530  138.1330 C   0  0  0  0  0  3  0  0  0  0  0  0
  185.5530  177.6270  142.8690 C   0  0  0  0  0  3  0  0  0  0  0  0
  192.1860  169.1520  141.3470 O   0  0  0  0  0  0  0  0  0  0  0  0
  186.8680  176.9240  139.4490 O   0  0  0  0  0  0  0  0  0  0  0  0
  191.4870  170.1440  141.0120 C   0  0  0  0  0  0  0  0  0  0  0  0
  189.7060  173.3190  141.2780 C   0  0  0  0  0  3  0  0  0  0  0  0
  188.5680  175.9100  141.6750 C   0  0  0  0  0  3  0  0  0  0  0  0
  190.2350  171.5100  139.7910 C   0  0  0  0  0  0  0  0  0  0  0  0
  188.1710  173.8410  137.9390 C   0  0  0  0  0  3  0  0  0  0  0  0
  187.8150  176.8240  142.2890 C   0  0  0  0  0  0  0  0  0  0  0  0
  189.5330  172.0780  138.7800 N   0  0  0  0  0  0  0  0  0  0  0  0
  188.9660  173.9270  140.2410 C   0  0  0  0  0  0  0  0  0  0  0  0
  188.8930  173.2660  138.9800 C   0  0  0  0  0  0  0  0  0  0  0  0
  183.9130  178.2350  141.2040 C   0  0  0  0  0  0  0  0  0  0  0  0
  187.5590  175.7140  139.3630 C   0  0  0  0  0  0  0  0  0  0  0  0
  190.9380  170.2860  139.7030 N   0  0  0  0  0  2  0  0  0  0  0  0
  184.7970  177.8360  140.2010 C   0  0  0  0  0  3  0  0  0  0  0  0
  188.3020  175.1620  140.4330 C   0  0  0  0  0  0  0  0  0  0  0  0
  191.1520  171.2710  141.9430 C   0  0  0  0  0  2  0  0  0  0  0  0
  186.4520  177.2140  141.8700 C   0  0  0  0  0  0  0  0  0  0  0  0
  190.3290  172.1010  141.0250 C   0  0  0  0  0  0  0  0  0  0  0  0
  184.2890  178.1210  142.5420 C   0  0  0  0  0  3  0  0  0  0  0  0
  186.0550  177.3070  140.5160 C   0  0  0  0  0  0  0  0  0  0  0  0
  182.5750  178.7850  140.8520 C   0  0  0  0  0  2  0  0  0  0  0  0
  181.5660  177.9870  141.4000 O   0  0  0  0  0  0  0  0  0  0  0  0
  179.0180  178.8170  142.4150 C   0  0  0  0  0  1  0  0  0  0  0  0
  180.3980  180.1560  140.4930 O   0  0  0  0  0  1  0  0  0  0  0  0
  179.3360  177.8790  139.7380 O   0  0  0  0  0  0  0  0  0  0  0  0
  180.1130  178.7470  140.9680 P   0  0  1  0  0  0  0  0  0  0  0  0
  188.4070  177.4330  143.5210 C   0  0  0  0  0  2  0  0  0  0  0  0
  189.7280  178.1140  143.1930 C   0  0  0  0  0  2  0  0  0  0  0  0
  190.7690  177.8070  144.2610 C   0  0  0  0  0  2  0  0  0  0  0  0
  191.9080  177.2500  143.6630 O   0  0  0  0  0  0  0  0  0  0  0  0
  192.4170  176.4040  144.5950 N   0  0  0  0  0  0  0  0  0  0  0  0
  193.8410  176.2110  144.2850 C   0  0  2  0  0  3  0  0  0  0  0  0
  194.1740  174.8530  144.2110 O   0  0  0  0  0  1  0  0  0  0  0  0
  194.1220  176.8040  146.6890 C   0  0  0  0  0  1  0  0  0  0  0  0
  194.7210  176.9320  145.3000 C   0  0  0  0  0  2  0  0  0  0  0  0
  191.7000  175.1360  144.4710 C   0  0  0  0  0  2  0  0  0  0  0  0
  191.1030  174.7310  145.8140 C   0  0  0  0  0  1  0  0  0  0  0  0
  189.6020  174.9820  145.8060 O   0  0  0  0  0  1  0  0  0  0  0  0
  188.9470  174.6350  146.0560 O   0  0  0  0  0  0  0  0  0  0  0  0
  188.9540  175.4880  146.9860 C   0  0  0  0  0  1  0  0  0  0  0  0
  188.1670  176.7510  146.9300 C   0  0  0  0  0  1  0  0  0  0  0  0
  186.8290  176.4510  146.6700 O   0  0  0  0  0  0  0  0  0  0  0  0
  186.1690  177.6810  146.7420 C   0  0  2  0  0  3  0  0  0  0  0  0
  186.3520  178.2400  148.0070 O   0  0  0  0  0  1  0  0  0  0  0  0
  184.1160  178.7060  146.1070 O   0  0  0  0  0  1  0  0  0  0  0  0
  184.6880  177.4900  146.4840 C   0  0  0  0  0  2  0  0  0  0  0  0
  1 15  1  0  0  0  0
  4 23  1  0  0  0  0
  5  3  2  0  0  0  0
  5 19  1  0  0  0  0
  7 10  2  0  0  0  0
  8 21  1  0  0  0  0
  9  1  2  0  0  0  0
  9 13  1  0  0  0  0
 10 30  1  0  0  0  0
 11 13  1  0  0  0  0
 11  8  2  0  0  0  0
 12 18  1  0  0  0  0
 12  6  1  0  0  0  0
 13 12  2  0  0  0  0
 14 22  2  0  0  0  0
 15  4  1  0  0  0  0
 15 18  2  0  0  0  0
 16  8  1  0  0  0  0
 16  5  1  0  0  0  0
 17 23  2  0  0  0  0
 17 14  1  0  0  0  0
 18  7  1  0  0  0  0
 20 10  1  0  0  0  0
 20  2  2  0  0  0  0
 21  6  2  0  0  0  0
 21 19  1  0  0  0  0
 22  2  1  0  0  0  0
 23 20  1  0  0  0  0
 24 14  1  0  0  0  0
 24 25  1  0  0  0  0
 27 29  1  0  0  0  0
 28 29  2  0  0  0  0
 29 25  1  0  0  0  0
 29 26  1  1  0  0  0
 31 30  1  0  0  0  0
 31 32  1  0  0  0  0
 33 32  1  0  0  0  0
 33 34  1  0  0  0  0
 35 36  1  1  0  0  0
 35 34  1  0  0  0  0
 35 38  1  0  0  0  0
 38 37  1  0  0  0  0
 39 34  1  0  0  0  0
 39 40  1  0  0  0  0
 41 42  1  0  0  0  0
 42 43  1  0  0  0  0
 45 46  1  0  0  0  0
 45 44  1  0  0  0  0
 46 47  1  1  0  0  0
 48 49  1  0  0  0  0
 49 46  1  0  0  0  0
M  END
>  <MODEL>
2

>  <REMARK>
 VINA RESULT:      -6.4      4.024      8.690
  Name = 
  18 active torsions:
  status: ('A' for Active; 'I' for Inactive)
    1  A    between atoms: C_1  and  C_22
    2  A    between atoms: C_1  and  C_45
    3  A    between atoms: C_2  and  C_26
    4  A    between atoms: C_2  and  N_33
    5  A    between atoms: C_3  and  O_21
    6  A    between atoms: C_3  and  C_30
    7  A    between atoms: C_7  and  O_21
    8  A    between atoms: C_7  and  C_32
    9  A    between atoms: C_18  and  C_22
   10  A    between atoms: C_23  and  C_28
   11  A    between atoms: C_23  and  O_48
   12  A    between atoms: C_30  and  O_43
   13  A    between atoms: N_33  and  O_34
   14  A    between atoms: N_33  and  C_44
   15  A    between atoms: O_34  and  C_45
   16  A    between atoms: P_41  and  O_48
   17  A    between atoms: O_43  and  C_47
   18  A    between atoms: C_44  and  C_47
                            x       y       z     vdW  Elec       q    Type
                         _______ _______ _______ _____ _____    ______ ____

>  <TORSDO>
F 18

$$$$
=
 OpenBabel11042414063D

 49 51  0  0  1  0  0  0  0  0999 V2000
  192.0130  176.1390  147.1270 C   0  0  0  0  0  3  0  0  0  0  0  0
  191.9580  171.2990  144.0480 C   0  0  0  0  0  3  0  0  0  0  0  0
  184.0920  178.2000  146.9920 O   0  0  0  0  0  0  0  0  0  0  0  0
  192.8770  174.5920  145.5430 O   0  0  0  0  0  0  0  0  0  0  0  0
  185.2740  177.7840  146.8650 C   0  0  0  0  0  0  0  0  0  0  0  0
  188.1220  175.9260  145.5380 C   0  0  0  0  0  3  0  0  0  0  0  0
  190.2220  174.5290  144.1950 C   0  0  0  0  0  3  0  0  0  0  0  0
  187.4440  177.4900  147.2270 C   0  0  0  0  0  0  0  0  0  0  0  0
  190.9860  176.8910  147.6920 C   0  0  0  0  0  3  0  0  0  0  0  0
  190.8300  173.4640  143.6700 C   0  0  0  0  0  0  0  0  0  0  0  0
  188.7010  177.5590  147.7300 N   0  0  0  0  0  0  0  0  0  0  0  0
  189.4370  175.9790  146.0460 C   0  0  0  0  0  0  0  0  0  0  0  0
  189.7000  176.8180  147.1680 C   0  0  0  0  0  0  0  0  0  0  0  0
  193.9760  171.0860  145.3550 C   0  0  0  0  0  0  0  0  0  0  0  0
  191.7790  175.2980  146.0340 C   0  0  0  0  0  0  0  0  0  0  0  0
  186.3310  178.2100  147.7230 N   0  0  0  0  0  2  0  0  0  0  0  0
  193.9140  172.4470  145.6580 C   0  0  0  0  0  3  0  0  0  0  0  0
  190.4840  175.2210  145.4690 C   0  0  0  0  0  0  0  0  0  0  0  0
  185.6960  176.8030  145.8120 C   0  0  0  0  0  2  0  0  0  0  0  0
  191.8770  172.6710  144.3490 C   0  0  0  0  0  0  0  0  0  0  0  0
  187.1380  176.6920  146.1550 C   0  0  0  0  0  0  0  0  0  0  0  0
  192.9900  170.5090  144.5570 C   0  0  0  0  0  3  0  0  0  0  0  0
  192.8650  173.2440  145.1810 C   0  0  0  0  0  0  0  0  0  0  0  0
  195.0920  170.2510  145.8790 C   0  0  0  0  0  2  0  0  0  0  0  0
  195.6000  169.4330  144.8650 O   0  0  0  0  0  0  0  0  0  0  0  0
  197.5400  171.5420  144.9420 C   0  0  0  0  0  1  0  0  0  0  0  0
  197.9370  169.0690  146.0010 O   0  0  0  0  0  1  0  0  0  0  0  0
  197.9410  169.1860  143.3800 O   0  0  0  0  0  0  0  0  0  0  0  0
  197.2660  169.7500  144.8280 P   0  0  1  0  0  0  0  0  0  0  0  0
  190.3470  173.0380  142.3190 C   0  0  0  0  0  2  0  0  0  0  0  0
  190.0180  174.2560  141.4660 C   0  0  0  0  0  2  0  0  0  0  0  0
  188.5750  174.6880  141.6830 C   0  0  0  0  0  2  0  0  0  0  0  0
  188.3610  175.9370  141.0830 O   0  0  0  0  0  0  0  0  0  0  0  0
  188.0430  176.7710  142.1070 N   0  0  0  0  0  0  0  0  0  0  0  0
  186.6350  177.1570  141.9390 C   0  0  2  0  0  3  0  0  0  0  0  0
  186.2850  177.2570  140.5870 O   0  0  0  0  0  1  0  0  0  0  0  0
  184.8350  178.6410  142.8130 C   0  0  0  0  0  1  0  0  0  0  0  0
  186.3350  178.4570  142.6760 C   0  0  0  0  0  2  0  0  0  0  0  0
  188.9030  177.9470  141.9950 C   0  0  0  0  0  2  0  0  0  0  0  0
  190.0310  177.8780  143.0180 C   0  0  0  0  0  1  0  0  0  0  0  0
  191.2590  177.2350  142.3880 O   0  0  0  0  0  1  0  0  0  0  0  0
  191.8250  177.7710  142.3250 O   0  0  0  0  0  0  0  0  0  0  0  0
  192.4590  177.0720  143.1620 C   0  0  0  0  0  1  0  0  0  0  0  0
  193.4810  176.0650  142.7640 C   0  0  0  0  0  1  0  0  0  0  0  0
  194.3970  176.6540  141.8910 O   0  0  0  0  0  0  0  0  0  0  0  0
  195.5800  175.9340  142.0780 C   0  0  2  0  0  3  0  0  0  0  0  0
  195.2800  174.6040  142.3730 O   0  0  0  0  0  1  0  0  0  0  0  0
  197.2040  175.5630  143.7790 O   0  0  0  0  0  1  0  0  0  0  0  0
  196.3790  176.5370  143.2150 C   0  0  0  0  0  2  0  0  0  0  0  0
  1  9  1  0  0  0  0
  2 20  2  0  0  0  0
  2 22  1  0  0  0  0
  4 15  1  0  0  0  0
  5  3  2  0  0  0  0
  5 16  1  0  0  0  0
  6 12  1  0  0  0  0
  6 21  2  0  0  0  0
  7 18  1  0  0  0  0
  8 16  1  0  0  0  0
  8 11  2  0  0  0  0
 10  7  2  0  0  0  0
 10 20  1  0  0  0  0
 12 13  1  0  0  0  0
 13  9  2  0  0  0  0
 13 11  1  0  0  0  0
 14 17  1  0  0  0  0
 14 24  1  0  0  0  0
 15  1  2  0  0  0  0
 18 15  1  0  0  0  0
 18 12  2  0  0  0  0
 19 21  1  0  0  0  0
 19  5  1  0  0  0  0
 20 23  1  0  0  0  0
 21  8  1  0  0  0  0
 22 14  2  0  0  0  0
 23  4  1  0  0  0  0
 23 17  2  0  0  0  0
 25 24  1  0  0  0  0
 28 29  2  0  0  0  0
 29 25  1  0  0  0  0
 29 26  1  1  0  0  0
 29 27  1  0  0  0  0
 30 10  1  0  0  0  0
 31 32  1  0  0  0  0
 31 30  1  0  0  0  0
 33 32  1  0  0  0  0
 33 34  1  0  0  0  0
 35 36  1  6  0  0  0
 35 34  1  0  0  0  0
 35 38  1  0  0  0  0
 38 37  1  0  0  0  0
 39 34  1  0  0  0  0
 39 40  1  0  0  0  0
 42 41  1  0  0  0  0
 42 43  1  0  0  0  0
 45 46  1  0  0  0  0
 45 44  1  0  0  0  0
 46 47  1  1  0  0  0
 46 49  1  0  0  0  0
 49 48  1  0  0  0  0
M  END
>  <MODEL>
3

>  <REMARK>
 VINA RESULT:      -5.9      3.196      5.892
  Name = 
  18 active torsions:
  status: ('A' for Active; 'I' for Inactive)
    1  A    between atoms: C_1  and  C_22
    2  A    between atoms: C_1  and  C_45
    3  A    between atoms: C_2  and  C_26
    4  A    between atoms: C_2  and  N_33
    5  A    between atoms: C_3  and  O_21
    6  A    between atoms: C_3  and  C_30
    7  A    between atoms: C_7  and  O_21
    8  A    between atoms: C_7  and  C_32
    9  A    between atoms: C_18  and  C_22
   10  A    between atoms: C_23  and  C_28
   11  A    between atoms: C_23  and  O_48
   12  A    between atoms: C_30  and  O_43
   13  A    between atoms: N_33  and  O_34
   14  A    between atoms: N_33  and  C_44
   15  A    between atoms: O_34  and  C_45
   16  A    between atoms: P_41  and  O_48
   17  A    between atoms: O_43  and  C_47
   18  A    between atoms: C_44  and  C_47
                            x       y       z     vdW  Elec       q    Type
                         _______ _______ _______ _____ _____    ______ ____

>  <TORSDO>
F 18

$$$$
=
 OpenBabel11042414063D

 49 51  0  0  1  0  0  0  0  0999 V2000
  187.0720  176.4820  139.5130 C   0  0  0  0  0  3  0  0  0  0  0  0
  191.2020  172.6360  140.5400 C   0  0  0  0  0  3  0  0  0  0  0  0
  185.7430  179.4350  147.0310 O   0  0  0  0  0  0  0  0  0  0  0  0
  188.1960  174.4080  139.2200 O   0  0  0  0  0  0  0  0  0  0  0  0
  186.0180  178.8360  145.9580 C   0  0  0  0  0  0  0  0  0  0  0  0
  187.3180  176.2720  143.7090 C   0  0  0  0  0  3  0  0  0  0  0  0
  188.2320  174.0400  142.1760 C   0  0  0  0  0  3  0  0  0  0  0  0
  186.1820  178.3840  143.7910 C   0  0  0  0  0  0  0  0  0  0  0  0
  186.5400  177.5040  140.2950 C   0  0  0  0  0  3  0  0  0  0  0  0
  189.1150  173.1280  141.7670 C   0  0  0  0  0  0  0  0  0  0  0  0
  186.1000  178.4420  142.4390 N   0  0  0  0  0  0  0  0  0  0  0  0
  187.2480  176.3120  142.3000 C   0  0  0  0  0  0  0  0  0  0  0  0
  186.6240  177.4350  141.6820 C   0  0  0  0  0  0  0  0  0  0  0  0
  191.4840  173.1200  138.1920 C   0  0  0  0  0  0  0  0  0  0  0  0
  187.7000  175.3760  140.0940 C   0  0  0  0  0  0  0  0  0  0  0  0
  185.6750  179.3640  144.6770 N   0  0  0  0  0  2  0  0  0  0  0  0
  190.2200  173.7100  138.1700 C   0  0  0  0  0  3  0  0  0  0  0  0
  187.7820  175.2720  141.5030 C   0  0  0  0  0  0  0  0  0  0  0  0
  186.7330  177.5190  145.9070 C   0  0  0  0  0  2  0  0  0  0  0  0
  189.9290  173.2330  140.5360 C   0  0  0  0  0  0  0  0  0  0  0  0
  186.7790  177.3300  144.4330 C   0  0  0  0  0  0  0  0  0  0  0  0
  191.9800  172.5910  139.3820 C   0  0  0  0  0  3  0  0  0  0  0  0
  189.4420  173.7910  139.3330 C   0  0  0  0  0  0  0  0  0  0  0  0
  192.3030  173.0500  136.9490 C   0  0  0  0  0  2  0  0  0  0  0  0
  193.3540  172.1450  137.1150 O   0  0  0  0  0  0  0  0  0  0  0  0
  194.4000  173.9710  135.1690 C   0  0  0  0  0  1  0  0  0  0  0  0
  195.1650  173.9250  137.7780 O   0  0  0  0  0  1  0  0  0  0  0  0
  196.0120  171.9150  136.3200 O   0  0  0  0  0  0  0  0  0  0  0  0
  194.7500  172.9940  136.6590 P   0  0  1  0  0  0  0  0  0  0  0  0
  189.3100  171.9570  142.6780 C   0  0  0  0  0  2  0  0  0  0  0  0
  189.7790  172.4250  144.0490 C   0  0  0  0  0  2  0  0  0  0  0  0
  191.2950  172.3330  144.1570 C   0  0  0  0  0  2  0  0  0  0  0  0
  191.8370  173.6210  144.2800 O   0  0  0  0  0  0  0  0  0  0  0  0
  193.1330  173.4950  143.8950 N   0  0  0  0  0  0  0  0  0  0  0  0
  193.9680  173.6630  145.0930 C   0  0  2  0  0  3  0  0  0  0  0  0
  194.2460  172.4350  145.7040 O   0  0  0  0  0  1  0  0  0  0  0  0
  194.2490  175.7920  146.3550 C   0  0  0  0  0  1  0  0  0  0  0  0
  193.3170  174.6260  146.0790 C   0  0  0  0  0  2  0  0  0  0  0  0
  193.4080  174.5640  142.9360 C   0  0  0  0  0  2  0  0  0  0  0  0
  192.1130  175.2620  142.5360 C   0  0  0  0  0  1  0  0  0  0  0  0
  192.1030  176.6820  143.0860 O   0  0  0  0  0  1  0  0  0  0  0  0
  192.0410  177.4520  143.2030 O   0  0  0  0  0  0  0  0  0  0  0  0
  190.9210  177.1940  143.7240 C   0  0  0  0  0  1  0  0  0  0  0  0
  190.7310  177.0370  145.1930 C   0  0  0  0  0  1  0  0  0  0  0  0
  189.9540  175.9040  145.4400 O   0  0  0  0  0  0  0  0  0  0  0  0
  190.0950  175.6690  146.8110 C   0  0  2  0  0  3  0  0  0  0  0  0
  188.9070  175.1440  147.3220 O   0  0  0  0  0  1  0  0  0  0  0  0
  191.3450  176.7130  148.5470 O   0  0  0  0  0  1  0  0  0  0  0  0
  190.4250  176.9620  147.5270 C   0  0  0  0  0  2  0  0  0  0  0  0
  1 15  2  0  0  0  0
  1  9  1  0  0  0  0
  4 23  1  0  0  0  0
  4 15  1  0  0  0  0
  5  3  2  0  0  0  0
  6 21  2  0  0  0  0
  8 21  1  0  0  0  0
  8 16  1  0  0  0  0
  9 13  2  0  0  0  0
 10  7  2  0  0  0  0
 10 30  1  0  0  0  0
 11  8  2  0  0  0  0
 12  6  1  0  0  0  0
 13 12  1  0  0  0  0
 13 11  1  0  0  0  0
 14 22  1  0  0  0  0
 15 18  1  0  0  0  0
 16  5  1  0  0  0  0
 17 14  2  0  0  0  0
 17 23  1  0  0  0  0
 18  7  1  0  0  0  0
 18 12  2  0  0  0  0
 19  5  1  0  0  0  0
 20  2  1  0  0  0  0
 20 10  1  0  0  0  0
 21 19  1  0  0  0  0
 22  2  2  0  0  0  0
 23 20  2  0  0  0  0
 24 25  1  0  0  0  0
 24 14  1  0  0  0  0
 28 29  2  0  0  0  0
 29 26  1  6  0  0  0
 29 25  1  0  0  0  0
 29 27  1  0  0  0  0
 30 31  1  0  0  0  0
 31 32  1  0  0  0  0
 32 33  1  0  0  0  0
 34 33  1  0  0  0  0
 34 35  1  0  0  0  0
 35 36  1  1  0  0  0
 35 38  1  0  0  0  0
 38 37  1  0  0  0  0
 39 34  1  0  0  0  0
 40 39  1  0  0  0  0
 41 42  1  0  0  0  0
 42 43  1  0  0  0  0
 44 45  1  0  0  0  0
 45 46  1  0  0  0  0
 46 47  1  1  0  0  0
 46 49  1  0  0  0  0
 49 48  1  0  0  0  0
M  END
>  <MODEL>
4

>  <REMARK>
 VINA RESULT:      -5.9      1.951      3.837
  Name = 
  18 active torsions:
  status: ('A' for Active; 'I' for Inactive)
    1  A    between atoms: C_1  and  C_22
    2  A    between atoms: C_1  and  C_45
    3  A    between atoms: C_2  and  C_26
    4  A    between atoms: C_2  and  N_33
    5  A    between atoms: C_3  and  O_21
    6  A    between atoms: C_3  and  C_30
    7  A    between atoms: C_7  and  O_21
    8  A    between atoms: C_7  and  C_32
    9  A    between atoms: C_18  and  C_22
   10  A    between atoms: C_23  and  C_28
   11  A    between atoms: C_23  and  O_48
   12  A    between atoms: C_30  and  O_43
   13  A    between atoms: N_33  and  O_34
   14  A    between atoms: N_33  and  C_44
   15  A    between atoms: O_34  and  C_45
   16  A    between atoms: P_41  and  O_48
   17  A    between atoms: O_43  and  C_47
   18  A    between atoms: C_44  and  C_47
                            x       y       z     vdW  Elec       q    Type
                         _______ _______ _______ _____ _____    ______ ____

>  <TORSDO>
F 18

$$$$
=
 OpenBabel11042414063D

 49 51  0  0  1  0  0  0  0  0999 V2000
  187.3210  176.4010  139.8930 C   0  0  0  0  0  3  0  0  0  0  0  0
  191.4650  172.6230  141.1010 C   0  0  0  0  0  3  0  0  0  0  0  0
  185.6840  179.4000  147.3310 O   0  0  0  0  0  0  0  0  0  0  0  0
  188.4840  174.3410  139.6590 O   0  0  0  0  0  0  0  0  0  0  0  0
  186.0060  178.7950  146.2740 C   0  0  0  0  0  0  0  0  0  0  0  0
  187.4210  176.2310  144.0960 C   0  0  0  0  0  3  0  0  0  0  0  0
  188.4200  173.9990  142.6170 C   0  0  0  0  0  3  0  0  0  0  0  0
  186.2530  178.3270  144.1180 C   0  0  0  0  0  0  0  0  0  0  0  0
  186.7470  177.4220  140.6460 C   0  0  0  0  0  3  0  0  0  0  0  0
  189.3300  173.0970  142.2490 C   0  0  0  0  0  0  0  0  0  0  0  0
  186.2180  178.3730  142.7640 N   0  0  0  0  0  0  0  0  0  0  0  0
  187.4000  176.2580  142.6860 C   0  0  0  0  0  0  0  0  0  0  0  0
  186.7830  177.3660  142.0360 C   0  0  0  0  0  0  0  0  0  0  0  0
  191.8250  173.0910  138.7600 C   0  0  0  0  0  0  0  0  0  0  0  0
  187.9440  175.3100  140.5060 C   0  0  0  0  0  0  0  0  0  0  0  0
  185.7010  179.3070  144.9780 N   0  0  0  0  0  2  0  0  0  0  0  0
  190.5540  173.6620  138.6880 C   0  0  0  0  0  3  0  0  0  0  0  0
  187.9770  175.2180  141.9170 C   0  0  0  0  0  0  0  0  0  0  0  0
  186.7400  177.4880  146.2610 C   0  0  0  0  0  2  0  0  0  0  0  0
  190.1850  173.2020  141.0460 C   0  0  0  0  0  0  0  0  0  0  0  0
  186.8410  177.2880  144.7910 C   0  0  0  0  0  0  0  0  0  0  0  0
  192.2850  172.5790  139.9720 C   0  0  0  0  0  3  0  0  0  0  0  0
  189.7340  173.7430  139.8210 C   0  0  0  0  0  0  0  0  0  0  0  0
  192.6870  173.0220  137.5480 C   0  0  0  0  0  2  0  0  0  0  0  0
  193.1910  171.7280  137.3870 O   0  0  0  0  0  0  0  0  0  0  0  0
  192.1370  169.4610  135.9850 C   0  0  0  0  0  1  0  0  0  0  0  0
  191.4030  172.0320  135.4890 O   0  0  0  0  0  1  0  0  0  0  0  0
  193.8180  171.3770  134.6980 O   0  0  0  0  0  0  0  0  0  0  0  0
  192.6140  171.2100  135.8780 P   0  0  1  0  0  0  0  0  0  0  0  0
  189.5090  171.9360  143.1770 C   0  0  0  0  0  2  0  0  0  0  0  0
  189.7540  172.4270  144.5970 C   0  0  0  0  0  2  0  0  0  0  0  0
  191.0900  173.1500  144.6910 C   0  0  0  0  0  2  0  0  0  0  0  0
  190.8800  174.4800  145.0820 O   0  0  0  0  0  0  0  0  0  0  0  0
  192.1240  175.0060  145.2260 N   0  0  0  0  0  0  0  0  0  0  0  0
  191.9680  176.3800  145.7210 C   0  0  2  0  0  3  0  0  0  0  0  0
  192.2600  176.4730  147.0870 O   0  0  0  0  0  1  0  0  0  0  0  0
  190.6390  178.0140  144.3900 C   0  0  0  0  0  1  0  0  0  0  0  0
  190.5690  176.9090  145.4280 C   0  0  0  0  0  2  0  0  0  0  0  0
  192.7480  175.0160  143.9040 C   0  0  0  0  0  2  0  0  0  0  0  0
  193.7570  176.1550  143.8030 C   0  0  0  0  0  1  0  0  0  0  0  0
  194.8160  175.8140  142.7630 O   0  0  0  0  0  1  0  0  0  0  0  0
  195.2050  176.0360  142.1230 O   0  0  0  0  0  0  0  0  0  0  0  0
  196.1510  176.3280  142.9060 C   0  0  0  0  0  1  0  0  0  0  0  0
  197.2870  175.4050  143.1800 C   0  0  0  0  0  1  0  0  0  0  0  0
  197.1160  174.8200  144.4350 O   0  0  0  0  0  0  0  0  0  0  0  0
  197.2890  173.4510  144.2160 C   0  0  2  0  0  3  0  0  0  0  0  0
  196.3620  173.0040  143.2730 O   0  0  0  0  0  1  0  0  0  0  0  0
  197.0720  173.5840  146.5830 O   0  0  0  0  0  1  0  0  0  0  0  0
  197.0980  172.6900  145.5120 C   0  0  0  0  0  2  0  0  0  0  0  0
  1 15  2  0  0  0  0
  1  9  1  0  0  0  0
  4 23  1  0  0  0  0
  4 15  1  0  0  0  0
  5  3  2  0  0  0  0
  6 21  2  0  0  0  0
  8 21  1  0  0  0  0
  8 16  1  0  0  0  0
  9 13  2  0  0  0  0
 10  7  2  0  0  0  0
 10 30  1  0  0  0  0
 11  8  2  0  0  0  0
 12  6  1  0  0  0  0
 13 12  1  0  0  0  0
 13 11  1  0  0  0  0
 14 22  1  0  0  0  0
 15 18  1  0  0  0  0
 16  5  1  0  0  0  0
 17 14  2  0  0  0  0
 17 23  1  0  0  0  0
 18  7  1  0  0  0  0
 18 12  2  0  0  0  0
 19  5  1  0  0  0  0
 20  2  1  0  0  0  0
 20 10  1  0  0  0  0
 21 19  1  0  0  0  0
 22  2  2  0  0  0  0
 23 20  2  0  0  0  0
 24 14  1  0  0  0  0
 25 24  1  0  0  0  0
 27 29  1  0  0  0  0
 28 29  2  0  0  0  0
 29 26  1  1  0  0  0
 29 25  1  0  0  0  0
 30 31  1  0  0  0  0
 31 32  1  0  0  0  0
 32 33  1  0  0  0  0
 33 34  1  0  0  0  0
 34 35  1  0  0  0  0
 35 36  1  1  0  0  0
 37 38  1  0  0  0  0
 38 35  1  0  0  0  0
 39 34  1  0  0  0  0
 40 39  1  0  0  0  0
 42 41  1  0  0  0  0
 42 43  1  0  0  0  0
 44 45  1  0  0  0  0
 46 47  1  6  0  0  0
 46 45  1  0  0  0  0
 46 49  1  0  0  0  0
 49 48  1  0  0  0  0
M  END
>  <MODEL>
5

>  <REMARK>
 VINA RESULT:      -5.9      1.680      2.354
  Name = 
  18 active torsions:
  status: ('A' for Active; 'I' for Inactive)
    1  A    between atoms: C_1  and  C_22
    2  A    between atoms: C_1  and  C_45
    3  A    between atoms: C_2  and  C_26
    4  A    between atoms: C_2  and  N_33
    5  A    between atoms: C_3  and  O_21
    6  A    between atoms: C_3  and  C_30
    7  A    between atoms: C_7  and  O_21
    8  A    between atoms: C_7  and  C_32
    9  A    between atoms: C_18  and  C_22
   10  A    between atoms: C_23  and  C_28
   11  A    between atoms: C_23  and  O_48
   12  A    between atoms: C_30  and  O_43
   13  A    between atoms: N_33  and  O_34
   14  A    between atoms: N_33  and  C_44
   15  A    between atoms: O_34  and  C_45
   16  A    between atoms: P_41  and  O_48
   17  A    between atoms: O_43  and  C_47
   18  A    between atoms: C_44  and  C_47
                            x       y       z     vdW  Elec       q    Type
                         _______ _______ _______ _____ _____    ______ ____

>  <TORSDO>
F 18

$$$$
=
 OpenBabel11042414063D

 49 50  0  0  1  0  0  0  0  0999 V2000
  187.2170  176.7550  146.0760 C   0  0  0  0  0  3  0  0  0  0  0  0
  185.8940  177.5380  140.5500 C   0  0  0  0  0  3  0  0  0  0  0  0
  195.3940  176.6050  145.7480 O   0  0  0  0  0  0  0  0  0  0  0  0
  185.9300  176.4130  144.1070 O   0  0  0  0  0  0  0  0  0  0  0  0
  194.1410  176.5860  145.6220 C   0  0  0  0  0  0  0  0  0  0  0  0
  190.8680  176.3180  144.0300 C   0  0  0  0  0  3  0  0  0  0  0  0
  188.4380  175.8640  142.5960 C   0  0  0  0  0  3  0  0  0  0  0  0
  191.9810  176.6990  146.1220 C   0  0  0  0  0  0  0  0  0  0  0  0
  188.4210  176.8640  146.7670 C   0  0  0  0  0  3  0  0  0  0  0  0
  187.5540  176.0520  141.6160 C   0  0  0  0  0  0  0  0  0  0  0  0
  190.8020  176.8320  146.7760 N   0  0  0  0  0  0  0  0  0  0  0  0
  189.6280  176.4560  144.6890 C   0  0  0  0  0  0  0  0  0  0  0  0
  189.6270  176.7230  146.0890 C   0  0  0  0  0  0  0  0  0  0  0  0
  183.9240  178.3350  141.6960 C   0  0  0  0  0  0  0  0  0  0  0  0
  187.1900  176.5070  144.7000 C   0  0  0  0  0  0  0  0  0  0  0  0
  193.2580  176.7900  146.7240 N   0  0  0  0  0  2  0  0  0  0  0  0
  184.3580  177.7040  142.8620 C   0  0  0  0  0  3  0  0  0  0  0  0
  188.4020  176.3390  143.9910 C   0  0  0  0  0  0  0  0  0  0  0  0
  193.4460  176.3530  144.3140 C   0  0  0  0  0  2  0  0  0  0  0  0
  186.3480  176.9020  141.7180 C   0  0  0  0  0  0  0  0  0  0  0  0
  192.0360  176.4510  144.7740 C   0  0  0  0  0  0  0  0  0  0  0  0
  184.6990  178.2610  140.5400 C   0  0  0  0  0  3  0  0  0  0  0  0
  185.5710  177.0030  142.8950 C   0  0  0  0  0  0  0  0  0  0  0  0
  182.6370  179.0850  141.6810 C   0  0  0  0  0  2  0  0  0  0  0  0
  181.9070  178.7670  140.5320 O   0  0  0  0  0  0  0  0  0  0  0  0
  179.1830  178.0340  140.0260 C   0  0  0  0  0  1  0  0  0  0  0  0
  180.0740  179.0380  142.3910 O   0  0  0  0  0  1  0  0  0  0  0  0
  179.9620  180.7540  140.4090 O   0  0  0  0  0  0  0  0  0  0  0  0
  180.3010  179.1680  140.8990 P   0  0  1  0  0  0  0  0  0  0  0  0
  187.8720  175.3850  140.3140 C   0  0  0  0  0  2  0  0  0  0  0  0
  188.9090  174.2890  140.5210 C   0  0  0  0  0  2  0  0  0  0  0  0
  188.2590  172.9150  140.4450 C   0  0  0  0  0  2  0  0  0  0  0  0
  188.4830  172.3570  139.1780 O   0  0  0  0  0  0  0  0  0  0  0  0
  189.8300  172.3960  139.0090 N   0  0  0  0  0  0  0  0  0  0  0  0
  190.0920  172.3990  137.5630 C   0  0  2  0  0  3  0  0  0  0  0  0
  191.1080  171.4990  137.2210 O   0  0  0  0  0  1  0  0  0  0  0  0
  189.1890  174.4440  136.4640 C   0  0  0  0  0  1  0  0  0  0  0  0
  190.4230  173.8040  137.0720 C   0  0  0  0  0  2  0  0  0  0  0  0
  190.3800  171.1870  139.6170 C   0  0  0  0  0  1  0  0  0  0  0  0
  191.4860  171.5460  140.6030 C   0  0  0  0  0 15  0  0  0  0  0  0
  191.0170  171.2690  142.0250 O   0  0  0  0  0  1  0  0  0  0  0  0
  191.4440  171.9120  141.9030 O   0  0  0  0  0  0  0  0  0  0  0  0
  190.9400  172.3440  142.9770 C   0  0  0  0  0  1  0  0  0  0  0  0
  191.6280  172.2350  144.2930 C   0  0  0  0  0  1  0  0  0  0  0  0
  192.7720  173.0330  144.2850 O   0  0  0  0  0  0  0  0  0  0  0  0
  193.6450  172.4110  145.1820 C   0  0  2  0  0  3  0  0  0  0  0  0
  194.8370  173.1340  145.2570 O   0  0  0  0  0  1  0  0  0  0  0  0
  194.5480  170.2840  145.7570 O   0  0  0  0  0  1  0  0  0  0  0  0
  193.9400  170.9980  144.7230 C   0  0  0  0  0  2  0  0  0  0  0  0
  1  9  1  0  0  0  0
  2 20  1  0  0  0  0
  4 15  1  0  0  0  0
  5  3  2  0  0  0  0
  5 16  1  0  0  0  0
  6 12  1  0  0  0  0
  6 21  2  0  0  0  0
  7 18  1  0  0  0  0
  8 16  1  0  0  0  0
  8 11  2  0  0  0  0
 10 20  1  0  0  0  0
 10  7  2  0  0  0  0
 12 13  1  0  0  0  0
 13  9  2  0  0  0  0
 13 11  1  0  0  0  0
 14 17  2  0  0  0  0
 15  1  2  0  0  0  0
 17 23  1  0  0  0  0
 18 12  2  0  0  0  0
 18 15  1  0  0  0  0
 19 21  1  0  0  0  0
 19  5  1  0  0  0  0
 20 23  2  0  0  0  0
 21  8  1  0  0  0  0
 22  2  2  0  0  0  0
 22 14  1  0  0  0  0
 23  4  1  0  0  0  0
 24 14  1  0  0  0  0
 25 29  1  0  0  0  0
 25 24  1  0  0  0  0
 28 29  2  0  0  0  0
 29 26  1  6  0  0  0
 29 27  1  0  0  0  0
 30 31  1  0  0  0  0
 30 10  1  0  0  0  0
 32 31  1  0  0  0  0
 33 32  1  0  0  0  0
 34 33  1  0  0  0  0
 34 39  1  0  0  0  0
 35 36  1  1  0  0  0
 35 34  1  0  0  0  0
 37 38  1  0  0  0  0
 38 35  1  0  0  0  0
 42 41  1  0  0  0  0
 42 43  1  0  0  0  0
 45 44  1  0  0  0  0
 45 46  1  0  0  0  0
 46 47  1  6  0  0  0
 49 46  1  0  0  0  0
 49 48  1  0  0  0  0
M  END
>  <MODEL>
6

>  <REMARK>
 VINA RESULT:      -5.8      3.868      7.973
  Name = 
  18 active torsions:
  status: ('A' for Active; 'I' for Inactive)
    1  A    between atoms: C_1  and  C_22
    2  A    between atoms: C_1  and  C_45
    3  A    between atoms: C_2  and  C_26
    4  A    between atoms: C_2  and  N_33
    5  A    between atoms: C_3  and  O_21
    6  A    between atoms: C_3  and  C_30
    7  A    between atoms: C_7  and  O_21
    8  A    between atoms: C_7  and  C_32
    9  A    between atoms: C_18  and  C_22
   10  A    between atoms: C_23  and  C_28
   11  A    between atoms: C_23  and  O_48
   12  A    between atoms: C_30  and  O_43
   13  A    between atoms: N_33  and  O_34
   14  A    between atoms: N_33  and  C_44
   15  A    between atoms: O_34  and  C_45
   16  A    between atoms: P_41  and  O_48
   17  A    between atoms: O_43  and  C_47
   18  A    between atoms: C_44  and  C_47
                            x       y       z     vdW  Elec       q    Type
                         _______ _______ _______ _____ _____    ______ ____

>  <TORSDO>
F 18

$$$$
=
 OpenBabel11042414063D

 49 51  0  0  1  0  0  0  0  0999 V2000
  186.6810  176.9420  146.0290 C   0  0  0  0  0  3  0  0  0  0  0  0
  186.1440  177.4660  140.3420 C   0  0  0  0  0  3  0  0  0  0  0  0
  194.8160  176.5190  146.8260 O   0  0  0  0  0  0  0  0  0  0  0  0
  185.6590  176.5340  143.9220 O   0  0  0  0  0  0  0  0  0  0  0  0
  193.5920  176.5320  146.5320 C   0  0  0  0  0  0  0  0  0  0  0  0
  190.5550  176.2810  144.5230 C   0  0  0  0  0  3  0  0  0  0  0  0
  188.3240  175.8260  142.7960 C   0  0  0  0  0  3  0  0  0  0  0  0
  191.3910  176.7400  146.7260 C   0  0  0  0  0  0  0  0  0  0  0  0
  187.7850  177.0500  146.8710 C   0  0  0  0  0  3  0  0  0  0  0  0
  187.5880  175.9880  141.6960 C   0  0  0  0  0  0  0  0  0  0  0  0
  190.1400  176.9440  147.2060 N   0  0  0  0  0  0  0  0  0  0  0  0
  189.2430  176.4930  145.0000 C   0  0  0  0  0  0  0  0  0  0  0  0
  189.0650  176.8350  146.3720 C   0  0  0  0  0  0  0  0  0  0  0  0
  184.0700  178.3850  141.1680 C   0  0  0  0  0  0  0  0  0  0  0  0
  186.8300  176.6210  144.6760 C   0  0  0  0  0  0  0  0  0  0  0  0
  192.5780  176.8230  147.4920 N   0  0  0  0  0  2  0  0  0  0  0  0
  184.3190  177.8040  142.4120 C   0  0  0  0  0  3  0  0  0  0  0  0
  188.1190  176.3770  144.1480 C   0  0  0  0  0  0  0  0  0  0  0  0
  193.0710  176.2500  145.1540 C   0  0  0  0  0  2  0  0  0  0  0  0
  186.4120  176.8800  141.5920 C   0  0  0  0  0  0  0  0  0  0  0  0
  191.6160  176.4170  145.4130 C   0  0  0  0  0  0  0  0  0  0  0  0
  184.9900  178.2240  140.1340 C   0  0  0  0  0  3  0  0  0  0  0  0
  185.4890  177.0690  142.6450 C   0  0  0  0  0  0  0  0  0  0  0  0
  182.8260  179.1720  140.9420 C   0  0  0  0  0  2  0  0  0  0  0  0
  181.8030  178.3360  140.4860 O   0  0  0  0  0  0  0  0  0  0  0  0
  179.9370  180.5000  140.2660 C   0  0  0  0  0  1  0  0  0  0  0  0
  179.2540  177.9710  140.9940 O   0  0  0  0  0  0  0  0  0  0  0  0
  180.5980  179.3360  142.7870 O   0  0  0  0  0  1  0  0  0  0  0  0
  180.3780  178.9750  141.1470 P   0  0  1  0  0  0  0  0  0  0  0  0
  188.0520  175.2420  140.4850 C   0  0  0  0  0  2  0  0  0  0  0  0
  189.1000  174.2060  140.8710 C   0  0  0  0  0  2  0  0  0  0  0  0
  189.6150  173.4800  139.6370 C   0  0  0  0  0  2  0  0  0  0  0  0
  189.4000  172.1010  139.7770 O   0  0  0  0  0  0  0  0  0  0  0  0
  190.6420  171.5570  139.8480 N   0  0  0  0  0  0  0  0  0  0  0  0
  190.7540  170.5710  138.7630 C   0  0  2  0  0  3  0  0  0  0  0  0
  191.2420  169.3440  139.2300 O   0  0  0  0  0  1  0  0  0  0  0  0
  192.7810  171.9030  138.1960 C   0  0  0  0  0  1  0  0  0  0  0  0
  191.6210  171.1050  137.6290 C   0  0  0  0  0  2  0  0  0  0  0  0
  190.7530  170.8910  141.1450 C   0  0  0  0  0  2  0  0  0  0  0  0
  192.0710  171.2580  141.8180 C   0  0  0  0  0  1  0  0  0  0  0  0
  192.0900  172.7470  142.1340 O   0  0  0  0  0  1  0  0  0  0  0  0
  191.9370  173.3370  142.6240 O   0  0  0  0  0  0  0  0  0  0  0  0
  193.1660  173.3010  142.9110 C   0  0  0  0  0  1  0  0  0  0  0  0
  194.1700  174.1970  142.2740 C   0  0  0  0  0  1  0  0  0  0  0  0
  195.4380  173.6240  142.3850 O   0  0  0  0  0  0  0  0  0  0  0  0
  196.2130  174.5980  143.0210 C   0  0  2  0  0  3  0  0  0  0  0  0
  196.0490  174.5020  144.4030 O   0  0  0  0  0  1  0  0  0  0  0  0
  196.8300  176.8860  142.7850 O   0  0  0  0  0  1  0  0  0  0  0  0
  195.7940  175.9780  142.5570 C   0  0  0  0  0  2  0  0  0  0  0  0
  1  9  1  0  0  0  0
  2 20  1  0  0  0  0
  4 15  1  0  0  0  0
  5  3  2  0  0  0  0
  5 16  1  0  0  0  0
  6 12  1  0  0  0  0
  6 21  2  0  0  0  0
  7 18  1  0  0  0  0
  8 11  2  0  0  0  0
  8 16  1  0  0  0  0
 10  7  2  0  0  0  0
 12 13  1  0  0  0  0
 13  9  2  0  0  0  0
 13 11  1  0  0  0  0
 14 17  2  0  0  0  0
 15  1  2  0  0  0  0
 17 23  1  0  0  0  0
 18 15  1  0  0  0  0
 18 12  2  0  0  0  0
 19 21  1  0  0  0  0
 19  5  1  0  0  0  0
 20 10  1  0  0  0  0
 20 23  2  0  0  0  0
 21  8  1  0  0  0  0
 22  2  2  0  0  0  0
 22 14  1  0  0  0  0
 23  4  1  0  0  0  0
 24 14  1  0  0  0  0
 25 24  1  0  0  0  0
 25 29  1  0  0  0  0
 27 29  2  0  0  0  0
 29 26  1  6  0  0  0
 29 28  1  0  0  0  0
 30 31  1  0  0  0  0
 30 10  1  0  0  0  0
 32 33  1  0  0  0  0
 32 31  1  0  0  0  0
 33 34  1  0  0  0  0
 34 39  1  0  0  0  0
 35 36  1  1  0  0  0
 35 34  1  0  0  0  0
 38 37  1  0  0  0  0
 38 35  1  0  0  0  0
 39 40  1  0  0  0  0
 41 42  1  0  0  0  0
 42 43  1  0  0  0  0
 44 45  1  0  0  0  0
 45 46  1  0  0  0  0
 46 47  1  1  0  0  0
 49 48  1  0  0  0  0
 49 46  1  0  0  0  0
M  END
>  <MODEL>
7

>  <REMARK>
 VINA RESULT:      -5.6      3.786      7.489
  Name = 
  18 active torsions:
  status: ('A' for Active; 'I' for Inactive)
    1  A    between atoms: C_1  and  C_22
    2  A    between atoms: C_1  and  C_45
    3  A    between atoms: C_2  and  C_26
    4  A    between atoms: C_2  and  N_33
    5  A    between atoms: C_3  and  O_21
    6  A    between atoms: C_3  and  C_30
    7  A    between atoms: C_7  and  O_21
    8  A    between atoms: C_7  and  C_32
    9  A    between atoms: C_18  and  C_22
   10  A    between atoms: C_23  and  C_28
   11  A    between atoms: C_23  and  O_48
   12  A    between atoms: C_30  and  O_43
   13  A    between atoms: N_33  and  O_34
   14  A    between atoms: N_33  and  C_44
   15  A    between atoms: O_34  and  C_45
   16  A    between atoms: P_41  and  O_48
   17  A    between atoms: O_43  and  C_47
   18  A    between atoms: C_44  and  C_47
                            x       y       z     vdW  Elec       q    Type
                         _______ _______ _______ _____ _____    ______ ____

>  <TORSDO>
F 18

$$$$
=
 OpenBabel11042414063D

 49 51  0  0  1  0  0  0  0  0999 V2000
  187.1540  176.4080  139.9310 C   0  0  0  0  0  3  0  0  0  0  0  0
  191.4720  172.8040  141.0570 C   0  0  0  0  0  3  0  0  0  0  0  0
  185.6080  179.4160  147.3850 O   0  0  0  0  0  0  0  0  0  0  0  0
  188.3880  174.3920  139.6830 O   0  0  0  0  0  0  0  0  0  0  0  0
  185.9230  178.8140  146.3250 C   0  0  0  0  0  0  0  0  0  0  0  0
  187.3760  176.2840  144.1320 C   0  0  0  0  0  3  0  0  0  0  0  0
  188.4190  174.0780  142.6450 C   0  0  0  0  0  3  0  0  0  0  0  0
  186.1290  178.3340  144.1680 C   0  0  0  0  0  0  0  0  0  0  0  0
  186.5620  177.4140  140.6910 C   0  0  0  0  0  3  0  0  0  0  0  0
  189.3520  173.2070  142.2590 C   0  0  0  0  0  0  0  0  0  0  0  0
  186.0550  178.3650  142.8150 N   0  0  0  0  0  0  0  0  0  0  0  0
  187.3150  176.2960  142.7220 C   0  0  0  0  0  0  0  0  0  0  0  0
  186.6380  177.3740  142.0800 C   0  0  0  0  0  0  0  0  0  0  0  0
  191.7480  173.2620  138.7030 C   0  0  0  0  0  0  0  0  0  0  0  0
  187.8350  175.3480  140.5360 C   0  0  0  0  0  0  0  0  0  0  0  0
  185.5640  179.3010  145.0330 N   0  0  0  0  0  2  0  0  0  0  0  0
  190.4550  173.7830  138.6610 C   0  0  0  0  0  3  0  0  0  0  0  0
  187.9100  175.2720  141.9470 C   0  0  0  0  0  0  0  0  0  0  0  0
  186.7070  177.5360  146.3030 C   0  0  0  0  0  2  0  0  0  0  0  0
  190.1690  173.3330  141.0330 C   0  0  0  0  0  0  0  0  0  0  0  0
  186.7750  177.3250  144.8330 C   0  0  0  0  0  0  0  0  0  0  0  0
  192.2610  172.7800  139.9060 C   0  0  0  0  0  3  0  0  0  0  0  0
  189.6640  173.8440  139.8160 C   0  0  0  0  0  0  0  0  0  0  0  0
  192.5790  173.2140  137.4680 C   0  0  0  0  0  2  0  0  0  0  0  0
  192.1130  174.1460  136.5360 O   0  0  0  0  0  0  0  0  0  0  0  0
  194.6540  175.0280  137.5270 C   0  0  0  0  0  1  0  0  0  0  0  0
  194.1060  174.6180  134.8950 O   0  0  0  0  0  0  0  0  0  0  0  0
  192.9750  176.7300  135.9660 O   0  0  0  0  0  1  0  0  0  0  0  0
  193.4540  175.1170  136.1670 P   0  0  1  0  0  0  0  0  0  0  0  0
  189.6010  172.0630  143.1920 C   0  0  0  0  0  2  0  0  0  0  0  0
  189.9460  172.5800  144.5820 C   0  0  0  0  0  2  0  0  0  0  0  0
  191.4000  173.0270  144.6430 C   0  0  0  0  0  2  0  0  0  0  0  0
  191.4920  174.3800  144.2860 O   0  0  0  0  0  0  0  0  0  0  0  0
  191.6730  175.0420  145.4590 N   0  0  0  0  0  0  0  0  0  0  0  0
  190.4750  175.8610  145.6920 C   0  0  2  0  0  3  0  0  0  0  0  0
  190.6750  177.1900  145.2980 O   0  0  0  0  0  1  0  0  0  0  0  0
  188.9360  174.7560  147.3090 C   0  0  0  0  0  1  0  0  0  0  0  0
  190.0390  175.7860  147.1500 C   0  0  0  0  0  2  0  0  0  0  0  0
  192.8450  175.9000  145.2980 C   0  0  0  0  0  2  0  0  0  0  0  0
  194.0430  175.3010  146.0270 C   0  0  0  0  0  1  0  0  0  0  0  0
  195.2850  175.4110  145.1520 O   0  0  0  0  0  1  0  0  0  0  0  0
  194.8280  174.9090  144.7640 O   0  0  0  0  0  0  0  0  0  0  0  0
  195.8740  174.2250  144.5930 C   0  0  0  0  0  1  0  0  0  0  0  0
  196.2450  173.0820  145.4730 C   0  0  0  0  0  1  0  0  0  0  0  0
  195.2310  172.1240  145.4380 O   0  0  0  0  0  0  0  0  0  0  0  0
  195.8990  170.9060  145.2770 C   0  0  2  0  0  3  0  0  0  0  0  0
  197.1900  171.0050  145.7970 O   0  0  0  0  0  1  0  0  0  0  0  0
  197.3020  170.3350  143.4400 O   0  0  0  0  0  1  0  0  0  0  0  0
  195.9720  170.5450  143.8080 C   0  0  0  0  0  2  0  0  0  0  0  0
  1 15  2  0  0  0  0
  1  9  1  0  0  0  0
  4 23  1  0  0  0  0
  4 15  1  0  0  0  0
  5  3  2  0  0  0  0
  6 21  2  0  0  0  0
  8 21  1  0  0  0  0
  8 16  1  0  0  0  0
  9 13  2  0  0  0  0
 10  7  2  0  0  0  0
 10 30  1  0  0  0  0
 11  8  2  0  0  0  0
 12  6  1  0  0  0  0
 13 12  1  0  0  0  0
 13 11  1  0  0  0  0
 14 22  1  0  0  0  0
 15 18  1  0  0  0  0
 16  5  1  0  0  0  0
 17 14  2  0  0  0  0
 17 23  1  0  0  0  0
 18  7  1  0  0  0  0
 18 12  2  0  0  0  0
 19  5  1  0  0  0  0
 20  2  1  0  0  0  0
 20 10  1  0  0  0  0
 21 19  1  0  0  0  0
 22  2  2  0  0  0  0
 23 20  2  0  0  0  0
 24 14  1  0  0  0  0
 25 24  1  0  0  0  0
 27 29  2  0  0  0  0
 28 29  1  0  0  0  0
 29 25  1  0  0  0  0
 29 26  1  1  0  0  0
 30 31  1  0  0  0  0
 31 32  1  0  0  0  0
 33 32  1  0  0  0  0
 33 34  1  0  0  0  0
 34 35  1  0  0  0  0
 35 36  1  1  0  0  0
 35 38  1  0  0  0  0
 38 37  1  0  0  0  0
 39 34  1  0  0  0  0
 39 40  1  0  0  0  0
 42 41  1  0  0  0  0
 43 42  1  0  0  0  0
 45 44  1  0  0  0  0
 46 45  1  0  0  0  0
 46 47  1  6  0  0  0
 48 49  1  0  0  0  0
 49 46  1  0  0  0  0
M  END
>  <MODEL>
8

>  <REMARK>
 VINA RESULT:      -5.5      1.833      2.357
  Name = 
  18 active torsions:
  status: ('A' for Active; 'I' for Inactive)
    1  A    between atoms: C_1  and  C_22
    2  A    between atoms: C_1  and  C_45
    3  A    between atoms: C_2  and  C_26
    4  A    between atoms: C_2  and  N_33
    5  A    between atoms: C_3  and  O_21
    6  A    between atoms: C_3  and  C_30
    7  A    between atoms: C_7  and  O_21
    8  A    between atoms: C_7  and  C_32
    9  A    between atoms: C_18  and  C_22
   10  A    between atoms: C_23  and  C_28
   11  A    between atoms: C_23  and  O_48
   12  A    between atoms: C_30  and  O_43
   13  A    between atoms: N_33  and  O_34
   14  A    between atoms: N_33  and  C_44
   15  A    between atoms: O_34  and  C_45
   16  A    between atoms: P_41  and  O_48
   17  A    between atoms: O_43  and  C_47
   18  A    between atoms: C_44  and  C_47
                            x       y       z     vdW  Elec       q    Type
                         _______ _______ _______ _____ _____    ______ ____

>  <TORSDO>
F 18

$$$$
=
 OpenBabel11042414063D

 49 50  0  0  1  0  0  0  0  0999 V2000
  195.0080  176.6650  144.8880 C   0  0  0  0  0  3  0  0  0  0  0  0
  189.9830  173.9070  145.1000 C   0  0  0  0  0  3  0  0  0  0  0  0
  197.9410  174.0790  137.6980 O   0  0  0  0  0  0  0  0  0  0  0  0
  193.2550  175.4770  145.9670 O   0  0  0  0  0  0  0  0  0  0  0  0
  197.3840  174.3290  138.7990 C   0  0  0  0  0  0  0  0  0  0  0  0
  195.1180  173.9920  141.6400 C   0  0  0  0  0  3  0  0  0  0  0  0
  193.3910  173.3980  143.8380 C   0  0  0  0  0  3  0  0  0  0  0  0
  196.8740  175.3380  140.7100 C   0  0  0  0  0  0  0  0  0  0  0  0
  195.9130  176.8660  143.8500 C   0  0  0  0  0  3  0  0  0  0  0  0
  192.2260  173.1230  144.4260 C   0  0  0  0  0  0  0  0  0  0  0  0
  196.8380  176.1910  141.7620 N   0  0  0  0  0  0  0  0  0  0  0  0
  195.0600  174.8700  142.7440 C   0  0  0  0  0  0  0  0  0  0  0  0
  195.9470  175.9840  142.7750 C   0  0  0  0  0  0  0  0  0  0  0  0
  189.6430  175.7670  146.6000 C   0  0  0  0  0  0  0  0  0  0  0  0
  194.1180  175.5870  144.8760 C   0  0  0  0  0  0  0  0  0  0  0  0
  197.7520  175.4480  139.6050 N   0  0  0  0  0  2  0  0  0  0  0  0
  191.0210  175.9820  146.6320 C   0  0  0  0  0  3  0  0  0  0  0  0
  194.1450  174.6640  143.8040 C   0  0  0  0  0  0  0  0  0  0  0  0
  196.2840  173.4920  139.3780 C   0  0  0  0  0  2  0  0  0  0  0  0
  191.3730  174.1150  145.1160 C   0  0  0  0  0  0  0  0  0  0  0  0
  196.0360  174.2560  140.6280 C   0  0  0  0  0  0  0  0  0  0  0  0
  189.1220  174.7330  145.8240 C   0  0  0  0  0  3  0  0  0  0  0  0
  191.8940  175.1820  145.8830 C   0  0  0  0  0  0  0  0  0  0  0  0
  188.7290  176.6340  147.3940 C   0  0  0  0  0  2  0  0  0  0  0  0
  188.0920  177.5560  146.5590 O   0  0  0  0  0  0  0  0  0  0  0  0
  185.4760  176.7890  145.6740 C   0  0  0  0  0  1  0  0  0  0  0  0
  186.3000  176.6750  148.2620 O   0  0  0  0  0  1  0  0  0  0  0  0
  185.8940  179.0870  147.3150 O   0  0  0  0  0  0  0  0  0  0  0  0
  186.4590  177.5180  147.0150 P   0  0  1  0  0  0  0  0  0  0  0  0
  191.7550  171.7070  144.3080 C   0  0  0  0  0  2  0  0  0  0  0  0
  191.9020  171.2190  142.8740 C   0  0  0  0  0  2  0  0  0  0  0  0
  190.5570  171.2400  142.1610 C   0  0  0  0  0  2  0  0  0  0  0  0
  190.2280  172.5580  141.8140 O   0  0  0  0  0  0  0  0  0  0  0  0
  189.1360  172.4500  141.0140 N   0  0  0  0  0  0  0  0  0  0  0  0
  189.4870  173.0250  139.7080 C   0  0  2  0  0  3  0  0  0  0  0  0
  188.3860  173.0520  138.8430 O   0  0  0  0  0  1  0  0  0  0  0  0
  191.6610  173.2590  138.5150 C   0  0  0  0  0  1  0  0  0  0  0  0
  190.6540  172.2740  139.0790 C   0  0  0  0  0  2  0  0  0  0  0  0
  188.0640  173.2270  141.6330 C   0  0  0  0  0  1  0  0  0  0  0  0
  188.5270  174.6570  141.8900 C   0  0  0  0  0 15  0  0  0  0  0  0
  187.7010  175.6230  141.0520 O   0  0  0  0  0  1  0  0  0  0  0  0
  187.6610  175.8980  141.7830 O   0  0  0  0  0  0  0  0  0  0  0  0
  187.8180  177.0400  141.2690 C   0  0  0  0  0  1  0  0  0  0  0  0
  186.6800  177.9460  140.9520 C   0  0  0  0  0  1  0  0  0  0  0  0
  185.5380  177.5090  141.6240 O   0  0  0  0  0  0  0  0  0  0  0  0
  185.0120  178.6600  142.2160 C   0  0  2  0  0  3  0  0  0  0  0  0
  185.9440  179.2040  143.1000 O   0  0  0  0  0  1  0  0  0  0  0  0
  183.4910  179.2970  143.9340 O   0  0  0  0  0  1  0  0  0  0  0  0
  183.7410  178.3220  142.9680 C   0  0  0  0  0  2  0  0  0  0  0  0
  2 20  2  0  0  0  0
  2 22  1  0  0  0  0
  3  5  2  0  0  0  0
  5 19  1  0  0  0  0
  5 16  1  0  0  0  0
  6 12  1  0  0  0  0
  7 10  2  0  0  0  0
  8 11  2  0  0  0  0
  9  1  2  0  0  0  0
 10 20  1  0  0  0  0
 11 13  1  0  0  0  0
 12 13  2  0  0  0  0
 12 18  1  0  0  0  0
 13  9  1  0  0  0  0
 14 17  1  0  0  0  0
 14 24  1  0  0  0  0
 15  1  1  0  0  0  0
 15  4  1  0  0  0  0
 16  8  1  0  0  0  0
 18  7  1  0  0  0  0
 18 15  2  0  0  0  0
 19 21  1  0  0  0  0
 20 23  1  0  0  0  0
 21  8  1  0  0  0  0
 21  6  2  0  0  0  0
 22 14  2  0  0  0  0
 23  4  1  0  0  0  0
 23 17  2  0  0  0  0
 25 29  1  0  0  0  0
 25 24  1  0  0  0  0
 29 26  1  6  0  0  0
 29 28  2  0  0  0  0
 29 27  1  0  0  0  0
 30 10  1  0  0  0  0
 31 30  1  0  0  0  0
 32 31  1  0  0  0  0
 33 32  1  0  0  0  0
 34 39  1  0  0  0  0
 34 33  1  0  0  0  0
 35 36  1  6  0  0  0
 35 34  1  0  0  0  0
 37 38  1  0  0  0  0
 38 35  1  0  0  0  0
 41 42  1  0  0  0  0
 43 42  1  0  0  0  0
 44 45  1  0  0  0  0
 45 46  1  0  0  0  0
 46 49  1  0  0  0  0
 46 47  1  1  0  0  0
 49 48  1  0  0  0  0
M  END
>  <MODEL>
9

>  <REMARK>
 VINA RESULT:      -5.5      3.441      9.636
  Name = 
  18 active torsions:
  status: ('A' for Active; 'I' for Inactive)
    1  A    between atoms: C_1  and  C_22
    2  A    between atoms: C_1  and  C_45
    3  A    between atoms: C_2  and  C_26
    4  A    between atoms: C_2  and  N_33
    5  A    between atoms: C_3  and  O_21
    6  A    between atoms: C_3  and  C_30
    7  A    between atoms: C_7  and  O_21
    8  A    between atoms: C_7  and  C_32
    9  A    between atoms: C_18  and  C_22
   10  A    between atoms: C_23  and  C_28
   11  A    between atoms: C_23  and  O_48
   12  A    between atoms: C_30  and  O_43
   13  A    between atoms: N_33  and  O_34
   14  A    between atoms: N_33  and  C_44
   15  A    between atoms: O_34  and  C_45
   16  A    between atoms: P_41  and  O_48
   17  A    between atoms: O_43  and  C_47
   18  A    between atoms: C_44  and  C_47
                            x       y       z     vdW  Elec       q    Type
                         _______ _______ _______ _____ _____    ______ ____

>  <TORSDO>
F 18

$$$$
