=
 OpenBabel11042415423D

 46 50  0  0  1  0  0  0  0  0999 V2000
  188.9600  175.7960  145.6520 C   0  0  0  0  0  0  0  0  0  0  0  0
  187.8030  177.9120  145.9670 C   0  0  0  0  0  3  0  0  0  0  0  0
  193.0220  173.1610  140.6160 C   0  0  0  0  0  2  0  0  0  0  0  0
  191.3190  174.9660  145.9260 C   0  0  0  0  0  0  0  0  0  0  0  0
  194.1690  171.1490  142.8240 C   0  0  0  0  0  2  0  0  0  0  0  0
  188.5010  175.7460  144.3230 C   0  0  0  0  0  0  0  0  0  0  0  0
  194.6960  172.5100  142.3850 C   0  0  0  0  0  2  0  0  0  0  0  0
  188.8750  174.6750  143.5060 O   0  0  0  0  0  0  0  0  0  0  0  0
  193.5530  174.0680  145.5540 C   0  0  0  0  0  0  0  0  0  0  0  0
  194.0670  175.3680  145.5450 C   0  0  0  0  0  3  0  0  0  0  0  0
  189.2050  173.4090  141.4740 C   0  0  1  0  0  3  0  0  0  0  0  0
  191.4500  171.2980  141.1440 C   0  0  0  0  0  1  0  0  0  0  0  0
  190.7150  173.6450  141.5210 C   0  0  0  0  0  2  0  0  0  0  0  0
  194.0220  171.6300  145.4060 C   0  0  1  0  0  3  0  0  0  0  0  0
  187.6870  176.7800  143.8340 C   0  0  0  0  0  3  0  0  0  0  0  0
  189.8620  174.7120  146.1850 C   0  0  1  0  0  3  0  0  0  0  0  0
  193.7780  177.8400  145.7380 C   0  0  0  0  0  1  0  0  0  0  0  0
  194.4340  172.9950  145.3850 O   0  0  0  0  0  0  0  0  0  0  0  0
  187.3370  177.8540  144.6540 C   0  0  0  0  0  0  0  0  0  0  0  0
  193.5640  173.4570  142.0140 C   0  0  0  0  0  2  0  0  0  0  0  0
  191.8550  176.2630  145.9400 C   0  0  0  0  0  3  0  0  0  0  0  0
  193.3040  171.2470  144.0940 C   0  0  2  0  0  3  0  0  0  0  0  0
  188.8710  172.2240  142.1300 O   0  0  0  0  0  1  0  0  0  0  0  0
  188.4890  174.5740  142.1380 C   0  0  0  0  0  2  0  0  0  0  0  0
  186.3200  179.1360  144.0290 Cl  0  0  0  0  0  0  0  0  0  0  0  0
  188.6140  176.8890  146.4640 C   0  0  0  0  0  3  0  0  0  0  0  0
  191.5380  172.7220  140.5970 C   0  0  1  0  0  0  0  0  0  0  0  0
  193.2220  176.4630  145.7380 C   0  0  0  0  0  0  0  0  0  0  0  0
  189.6450  174.4990  147.5490 O   0  0  0  0  0  1  0  0  0  0  0  0
  192.1750  173.8730  145.7450 C   0  0  0  0  0  3  0  0  0  0  0  0
  191.0610  173.8510  137.0200 C   0  0  2  0  0  3  0  0  0  0  0  0
  190.9910  172.7590  139.2190 N   0  0  2  0  0  0  0  0  0  0  0  0
  191.7820  174.7450  136.2310 O   0  0  0  0  0  1  0  0  0  0  0  0
  191.0480  171.4330  138.5840 C   0  0  0  0  0  2  0  0  0  0  0  0
  190.3300  171.4670  137.2360 C   0  0  1  0  0  3  0  0  0  0  0  0
  191.7420  173.7050  138.3780 C   0  0  0  0  0  2  0  0  0  0  0  0
  191.0020  172.4930  136.3290 C   0  0  0  0  0  2  0  0  0  0  0  0
  190.1400  169.1050  137.5250 O   0  0  0  0  0  1  0  0  0  0  0  0
  190.3860  170.1000  136.5790 C   0  0  0  0  0  2  0  0  0  0  0  0
  197.3130  170.0500  145.8460 C   0  0  0  0  0  3  0  0  0  0  0  0
  195.0970  169.5770  146.3630 C   0  0  0  0  0  3  0  0  0  0  0  0
  196.5600  171.0480  145.4110 C   0  0  0  0  0  3  0  0  0  0  0  0
  195.1830  170.7430  145.7420 C   0  0  0  0  0  0  0  0  0  0  0  0
  196.4660  169.0070  146.5010 C   0  0  0  0  0  2  0  0  0  0  0  0
  192.8200  169.0750  143.5450 C   0  0  0  0  0  1  0  0  0  0  0  0
  192.3650  170.2050  144.2410 O   0  0  0  0  0  0  0  0  0  0  0  0
  1 16  1  0  0  0  0
  1 26  1  0  0  0  0
  2 26  2  0  0  0  0
  3 20  1  0  0  0  0
  4 21  1  0  0  0  0
  4 16  1  0  0  0  0
  5 22  1  0  0  0  0
  6  1  2  0  0  0  0
  7  5  1  0  0  0  0
  8  6  1  0  0  0  0
  9 30  1  0  0  0  0
 10  9  2  0  0  0  0
 10 28  1  0  0  0  0
 11 13  1  0  0  0  0
 11 23  1  1  0  0  0
 11 24  1  0  0  0  0
 14 43  1  6  0  0  0
 15  6  1  0  0  0  0
 15 19  2  0  0  0  0
 16 29  1  1  0  0  0
 17 28  1  0  0  0  0
 18 14  1  0  0  0  0
 18  9  1  0  0  0  0
 19  2  1  0  0  0  0
 20  7  1  0  0  0  0
 22 46  1  1  0  0  0
 22 14  1  0  0  0  0
 24  8  1  0  0  0  0
 25 19  1  0  0  0  0
 27  3  1  0  0  0  0
 27 12  1  1  0  0  0
 27 13  1  0  0  0  0
 28 21  2  0  0  0  0
 30  4  2  0  0  0  0
 31 33  1  6  0  0  0
 31 36  1  0  0  0  0
 32 36  1  6  0  0  0
 32 27  1  0  0  0  0
 34 32  1  0  0  0  0
 35 39  1  6  0  0  0
 35 34  1  0  0  0  0
 37 31  1  0  0  0  0
 37 35  1  0  0  0  0
 39 38  1  0  0  0  0
 40 44  1  0  0  0  0
 41 44  1  0  0  0  0
 42 43  1  0  0  0  0
 42 40  2  0  0  0  0
 43 41  2  0  0  0  0
 45 46  1  0  0  0  0
M  END
>  <MODEL>
1

>  <REMARK>
 VINA RESULT:      -8.3      0.000      0.000
  Name = 
  4 active torsions:
  status: ('A' for Active; 'I' for Inactive)
    1  A    between atoms: N_16  and  C_41
    2  A    between atoms: C_22  and  C_29
    3  A    between atoms: C_26  and  C_35
    4  A    between atoms: C_33  and  O_39
                            x       y       z     vdW  Elec       q    Type
                         _______ _______ _______ _____ _____    ______ ____

>  <TORSDO>
F 4

$$$$
=
 OpenBabel11042415423D

 46 50  0  0  1  0  0  0  0  0999 V2000
  187.5810  176.3720  144.6070 C   0  0  0  0  0  0  0  0  0  0  0  0
  185.8950  178.1220  144.5170 C   0  0  0  0  0  3  0  0  0  0  0  0
  192.1830  173.7940  140.0260 C   0  0  0  0  0  2  0  0  0  0  0  0
  190.0780  176.2790  144.9000 C   0  0  0  0  0  0  0  0  0  0  0  0
  193.8430  172.7290  142.5450 C   0  0  0  0  0  2  0  0  0  0  0  0
  187.1470  175.8940  143.3570 C   0  0  0  0  0  0  0  0  0  0  0  0
  193.9790  174.0390  141.7780 C   0  0  0  0  0  2  0  0  0  0  0  0
  187.7940  174.7980  142.7770 O   0  0  0  0  0  0  0  0  0  0  0  0
  192.4700  175.9390  144.5880 C   0  0  0  0  0  0  0  0  0  0  0  0
  192.6130  177.2880  144.2540 C   0  0  0  0  0  3  0  0  0  0  0  0
  188.4460  173.2250  141.0630 C   0  0  1  0  0  3  0  0  0  0  0  0
  191.1780  171.7610  141.0630 C   0  0  0  0  0  1  0  0  0  0  0  0
  189.8360  173.8530  140.9540 C   0  0  0  0  0  2  0  0  0  0  0  0
  193.5820  173.7450  144.9580 C   0  0  1  0  0  3  0  0  0  0  0  0
  186.0810  176.5330  142.7050 C   0  0  0  0  0  3  0  0  0  0  0  0
  188.7460  175.7190  145.3070 C   0  0  1  0  0  3  0  0  0  0  0  0
  191.6650  179.5720  143.9070 C   0  0  0  0  0  1  0  0  0  0  0  0
  193.6080  175.1260  144.6050 O   0  0  0  0  0  0  0  0  0  0  0  0
  185.4560  177.6390  143.2850 C   0  0  0  0  0  0  0  0  0  0  0  0
  192.6310  174.5410  141.2820 C   0  0  0  0  0  2  0  0  0  0  0  0
  190.2420  177.6370  144.5860 C   0  0  0  0  0  3  0  0  0  0  0  0
  192.9890  172.8910  143.8170 C   0  0  2  0  0  3  0  0  0  0  0  0
  188.4490  172.1810  141.9880 O   0  0  0  0  0  1  0  0  0  0  0  0
  187.4430  174.2830  141.4960 C   0  0  0  0  0  2  0  0  0  0  0  0
  184.1270  178.4250  142.4600 Cl  0  0  0  0  0  0  0  0  0  0  0  0
  186.9550  177.4940  145.1750 C   0  0  0  0  0  3  0  0  0  0  0  0
  190.8740  172.9890  140.2070 C   0  0  1  0  0  0  0  0  0  0  0  0
  191.5030  178.1370  144.2530 C   0  0  0  0  0  0  0  0  0  0  0  0
  188.6010  175.7810  146.6950 O   0  0  0  0  0  1  0  0  0  0  0  0
  191.1980  175.4380  144.9100 C   0  0  0  0  0  3  0  0  0  0  0  0
  189.7610  173.2210  136.6000 C   0  0  2  0  0  3  0  0  0  0  0  0
  190.3310  172.5580  138.8950 N   0  0  2  0  0  0  0  0  0  0  0  0
  189.9070  174.2330  135.6530 O   0  0  0  0  0  1  0  0  0  0  0  0
  191.0220  171.3580  138.3980 C   0  0  0  0  0  2  0  0  0  0  0  0
  190.3340  170.8430  137.1340 C   0  0  1  0  0  3  0  0  0  0  0  0
  190.4750  173.6220  137.8890 C   0  0  0  0  0  2  0  0  0  0  0  0
  190.3660  171.9290  136.0620 C   0  0  0  0  0  2  0  0  0  0  0  0
  190.5970  168.4780  137.3100 O   0  0  0  0  0  1  0  0  0  0  0  0
  191.0440  169.6050  136.6190 C   0  0  0  0  0  2  0  0  0  0  0  0
  197.0840  173.4680  146.0440 C   0  0  0  0  0  3  0  0  0  0  0  0
  195.3090  172.0390  145.5850 C   0  0  0  0  0  3  0  0  0  0  0  0
  196.0410  174.1990  145.6850 C   0  0  0  0  0  3  0  0  0  0  0  0
  194.9420  173.2970  145.4050 C   0  0  0  0  0  0  0  0  0  0  0  0
  196.7330  172.0150  146.0230 C   0  0  0  0  0  2  0  0  0  0  0  0
  191.0020  171.9470  144.4600 C   0  0  0  0  0  1  0  0  0  0  0  0
  192.3690  171.7030  144.2570 O   0  0  0  0  0  0  0  0  0  0  0  0
  1 26  1  0  0  0  0
  1 16  1  0  0  0  0
  2 26  2  0  0  0  0
  3 27  1  0  0  0  0
  3 20  1  0  0  0  0
  4 30  1  0  0  0  0
  4 16  1  0  0  0  0
  5 22  1  0  0  0  0
  6  1  2  0  0  0  0
  7  5  1  0  0  0  0
  8  6  1  0  0  0  0
  9 18  1  0  0  0  0
  9 30  2  0  0  0  0
 10  9  1  0  0  0  0
 11 24  1  0  0  0  0
 11 23  1  1  0  0  0
 13 11  1  0  0  0  0
 14 43  1  6  0  0  0
 15 19  2  0  0  0  0
 15  6  1  0  0  0  0
 16 29  1  1  0  0  0
 17 28  1  0  0  0  0
 18 14  1  0  0  0  0
 19  2  1  0  0  0  0
 20  7  1  0  0  0  0
 21  4  2  0  0  0  0
 22 46  1  1  0  0  0
 22 14  1  0  0  0  0
 24  8  1  0  0  0  0
 25 19  1  0  0  0  0
 27 13  1  0  0  0  0
 27 12  1  1  0  0  0
 28 10  2  0  0  0  0
 28 21  1  0  0  0  0
 31 33  1  6  0  0  0
 31 36  1  0  0  0  0
 32 36  1  6  0  0  0
 32 27  1  0  0  0  0
 34 32  1  0  0  0  0
 35 39  1  6  0  0  0
 35 34  1  0  0  0  0
 37 31  1  0  0  0  0
 37 35  1  0  0  0  0
 39 38  1  0  0  0  0
 41 44  1  0  0  0  0
 42 40  2  0  0  0  0
 43 41  2  0  0  0  0
 43 42  1  0  0  0  0
 44 40  1  0  0  0  0
 46 45  1  0  0  0  0
M  END
>  <MODEL>
2

>  <REMARK>
 VINA RESULT:      -8.2      1.578      2.020
  Name = 
  4 active torsions:
  status: ('A' for Active; 'I' for Inactive)
    1  A    between atoms: N_16  and  C_41
    2  A    between atoms: C_22  and  C_29
    3  A    between atoms: C_26  and  C_35
    4  A    between atoms: C_33  and  O_39
                            x       y       z     vdW  Elec       q    Type
                         _______ _______ _______ _____ _____    ______ ____

>  <TORSDO>
F 4

$$$$
=
 OpenBabel11042415423D

 46 50  0  0  1  0  0  0  0  0999 V2000
  189.0480  172.6470  140.1190 C   0  0  0  0  0  0  0  0  0  0  0  0
  189.1330  171.9240  137.7980 C   0  0  0  0  0  3  0  0  0  0  0  0
  192.2770  177.6340  143.7940 C   0  0  0  0  0  2  0  0  0  0  0  0
  187.9380  174.5110  141.3930 C   0  0  0  0  0  0  0  0  0  0  0  0
  189.8530  177.4410  145.8720 C   0  0  0  0  0  2  0  0  0  0  0  0
  190.4530  172.7110  140.1470 C   0  0  0  0  0  0  0  0  0  0  0  0
  190.0300  178.3640  144.6720 C   0  0  0  0  0  2  0  0  0  0  0  0
  191.1000  173.1280  141.3150 O   0  0  0  0  0  0  0  0  0  0  0  0
  187.4750  176.4850  142.7430 C   0  0  0  0  0  0  0  0  0  0  0  0
  187.2590  177.2250  141.5770 C   0  0  0  0  0  3  0  0  0  0  0  0
  192.8930  173.9110  142.7300 C   0  0  1  0  0  3  0  0  0  0  0  0
  192.4190  175.6270  145.2680 C   0  0  0  0  0  1  0  0  0  0  0  0
  192.2820  175.3120  142.8040 C   0  0  0  0  0  2  0  0  0  0  0  0
  187.4990  176.4560  145.2300 C   0  0  1  0  0  3  0  0  0  0  0  0
  191.1840  172.3690  138.9980 C   0  0  0  0  0  3  0  0  0  0  0  0
  188.2450  173.0420  141.3320 C   0  0  1  0  0  3  0  0  0  0  0  0
  187.1260  177.4070  139.0910 C   0  0  0  0  0  1  0  0  0  0  0  0
  187.3310  177.1210  143.9810 O   0  0  0  0  0  0  0  0  0  0  0  0
  190.5260  171.9740  137.8320 C   0  0  0  0  0  0  0  0  0  0  0  0
  190.7710  177.6720  143.5380 C   0  0  0  0  0  2  0  0  0  0  0  0
  187.6930  175.2610  140.2330 C   0  0  0  0  0  3  0  0  0  0  0  0
  188.9930  176.2100  145.5310 C   0  0  2  0  0  3  0  0  0  0  0  0
  192.4390  173.1210  143.7860 O   0  0  0  0  0  1  0  0  0  0  0  0
  192.5140  173.2610  141.4100 C   0  0  0  0  0  2  0  0  0  0  0  0
  191.4510  171.5490  136.4070 Cl  0  0  0  0  0  0  0  0  0  0  0  0
  188.3950  172.2620  138.9360 C   0  0  0  0  0  3  0  0  0  0  0  0
  192.8570  176.2050  143.9230 C   0  0  1  0  0  0  0  0  0  0  0  0
  187.3670  176.6160  140.3250 C   0  0  0  0  0  0  0  0  0  0  0  0
  187.0650  172.2990  141.4220 O   0  0  0  0  0  1  0  0  0  0  0  0
  187.8150  175.1250  142.6450 C   0  0  0  0  0  3  0  0  0  0  0  0
  196.4390  175.2760  144.7010 C   0  0  2  0  0  3  0  0  0  0  0  0
  194.3390  176.2250  143.8520 N   0  0  2  0  0  0  0  0  0  0  0  0
  196.9800  174.2380  145.4570 O   0  0  0  0  0  1  0  0  0  0  0  0
  194.8100  176.0790  142.4660 C   0  0  0  0  0  2  0  0  0  0  0  0
  196.3260  176.2690  142.4050 C   0  0  1  0  0  3  0  0  0  0  0  0
  194.9210  175.1350  144.6530 C   0  0  0  0  0  2  0  0  0  0  0  0
  197.0030  175.2220  143.2850 C   0  0  0  0  0  2  0  0  0  0  0  0
  197.9320  175.2860  140.9390 O   0  0  0  0  0  1  0  0  0  0  0  0
  196.8150  176.1200  140.9770 C   0  0  0  0  0  2  0  0  0  0  0  0
  185.7230  178.8990  147.3280 C   0  0  0  0  0  3  0  0  0  0  0  0
  186.5020  176.7170  147.5160 C   0  0  0  0  0  3  0  0  0  0  0  0
  186.3010  178.5620  146.1860 C   0  0  0  0  0  3  0  0  0  0  0  0
  186.7780  177.1990  146.3150 C   0  0  0  0  0  0  0  0  0  0  0  0
  185.7860  177.7630  148.2980 C   0  0  0  0  0  2  0  0  0  0  0  0
  189.9440  175.4940  147.4900 C   0  0  0  0  0  1  0  0  0  0  0  0
  189.2320  175.0870  146.3520 O   0  0  0  0  0  0  0  0  0  0  0  0
  1  6  1  0  0  0  0
  1 16  1  0  0  0  0
  2 19  2  0  0  0  0
  2 26  1  0  0  0  0
  3 27  1  0  0  0  0
  4 30  1  0  0  0  0
  6  8  1  0  0  0  0
  7  5  1  0  0  0  0
  8 24  1  0  0  0  0
  9 18  1  0  0  0  0
 10  9  1  0  0  0  0
 11 13  1  0  0  0  0
 11 23  1  1  0  0  0
 13 27  1  0  0  0  0
 14 22  1  0  0  0  0
 14 43  1  1  0  0  0
 15  6  2  0  0  0  0
 16  4  1  0  0  0  0
 16 29  1  6  0  0  0
 17 28  1  0  0  0  0
 18 14  1  0  0  0  0
 19 15  1  0  0  0  0
 20  3  1  0  0  0  0
 20  7  1  0  0  0  0
 21 28  1  0  0  0  0
 21  4  2  0  0  0  0
 22  5  1  0  0  0  0
 22 46  1  1  0  0  0
 24 11  1  0  0  0  0
 25 19  1  0  0  0  0
 26  1  2  0  0  0  0
 27 12  1  1  0  0  0
 28 10  2  0  0  0  0
 30  9  2  0  0  0  0
 31 33  1  1  0  0  0
 32 34  1  6  0  0  0
 32 27  1  0  0  0  0
 32 36  1  0  0  0  0
 35 39  1  6  0  0  0
 35 34  1  0  0  0  0
 35 37  1  0  0  0  0
 36 31  1  0  0  0  0
 37 31  1  0  0  0  0
 38 39  1  0  0  0  0
 40 44  1  0  0  0  0
 41 44  1  0  0  0  0
 42 43  1  0  0  0  0
 42 40  2  0  0  0  0
 43 41  2  0  0  0  0
 46 45  1  0  0  0  0
M  END
>  <MODEL>
3

>  <REMARK>
 VINA RESULT:      -7.6      3.427      8.272
  Name = 
  4 active torsions:
  status: ('A' for Active; 'I' for Inactive)
    1  A    between atoms: N_16  and  C_41
    2  A    between atoms: C_22  and  C_29
    3  A    between atoms: C_26  and  C_35
    4  A    between atoms: C_33  and  O_39
                            x       y       z     vdW  Elec       q    Type
                         _______ _______ _______ _____ _____    ______ ____

>  <TORSDO>
F 4

$$$$
=
 OpenBabel11042415423D

 46 50  0  0  1  0  0  0  0  0999 V2000
  196.1070  173.4480  138.6300 C   0  0  0  0  0  0  0  0  0  0  0  0
  195.7480  173.7220  136.2400 C   0  0  0  0  0  3  0  0  0  0  0  0
  191.9480  173.6460  144.2400 C   0  0  0  0  0  2  0  0  0  0  0  0
  195.7840  171.6020  140.3080 C   0  0  0  0  0  0  0  0  0  0  0  0
  194.1860  171.9330  145.7530 C   0  0  0  0  0  2  0  0  0  0  0  0
  195.3000  174.5740  138.8770 C   0  0  0  0  0  0  0  0  0  0  0  0
  192.9530  171.4610  144.9920 C   0  0  0  0  0  2  0  0  0  0  0  0
  195.0650  174.9760  140.1950 O   0  0  0  0  0  0  0  0  0  0  0  0
  195.0520  170.2350  142.1870 C   0  0  0  0  0  0  0  0  0  0  0  0
  194.1840  169.5430  141.3370 C   0  0  0  0  0  3  0  0  0  0  0  0
  194.0160  176.1410  142.0340 C   0  0  1  0  0  3  0  0  0  0  0  0
  193.9220  175.0110  144.9190 C   0  0  0  0  0  1  0  0  0  0  0  0
  193.3250  174.8620  142.5080 C   0  0  0  0  0  2  0  0  0  0  0  0
  195.9770  170.4860  144.4820 C   0  0  1  0  0  3  0  0  0  0  0  0
  194.7340  175.2690  137.7960 C   0  0  0  0  0  3  0  0  0  0  0  0
  196.6970  172.6700  139.7780 C   0  0  1  0  0  3  0  0  0  0  0  0
  193.2030  169.1160  139.0810 C   0  0  0  0  0  1  0  0  0  0  0  0
  195.1090  169.8670  143.5350 O   0  0  0  0  0  0  0  0  0  0  0  0
  194.9610  174.8460  136.4850 C   0  0  0  0  0  0  0  0  0  0  0  0
  192.6490  172.3600  143.8040 C   0  0  0  0  0  2  0  0  0  0  0  0
  194.9260  170.8810  139.4630 C   0  0  0  0  0  3  0  0  0  0  0  0
  195.4560  171.8820  144.8840 C   0  0  2  0  0  3  0  0  0  0  0  0
  195.2480  176.2990  142.6690 O   0  0  0  0  0  1  0  0  0  0  0  0
  194.2260  176.0780  140.5290 C   0  0  0  0  0  2  0  0  0  0  0  0
  194.2480  175.7240  135.1480 Cl  0  0  0  0  0  0  0  0  0  0  0  0
  196.3160  173.0230  137.3080 C   0  0  0  0  0  3  0  0  0  0  0  0
  192.7520  174.9340  143.9390 C   0  0  1  0  0  0  0  0  0  0  0  0
  194.1200  169.8630  139.9790 C   0  0  0  0  0  0  0  0  0  0  0  0
  197.9340  172.1200  139.4340 O   0  0  0  0  0  1  0  0  0  0  0  0
  195.8510  171.2660  141.6660 C   0  0  0  0  0  3  0  0  0  0  0  0
  190.1620  177.5510  143.0810 C   0  0  2  0  0  3  0  0  0  0  0  0
  191.9010  176.1390  144.0890 N   0  0  2  0  0  0  0  0  0  0  0  0
  189.2250  177.6200  142.0520 O   0  0  0  0  0  1  0  0  0  0  0  0
  191.1770  176.1280  145.3700 C   0  0  0  0  0  2  0  0  0  0  0  0
  190.4420  177.4540  145.5670 C   0  0  1  0  0  3  0  0  0  0  0  0
  190.9110  176.2240  143.0020 C   0  0  0  0  0  2  0  0  0  0  0  0
  189.4500  177.6570  144.4260 C   0  0  0  0  0  2  0  0  0  0  0  0
  188.7070  176.4620  146.8730 O   0  0  0  0  0  1  0  0  0  0  0  0
  189.6960  177.4460  146.8880 C   0  0  0  0  0  2  0  0  0  0  0  0
  195.7220  168.1660  147.3240 C   0  0  0  0  0  3  0  0  0  0  0  0
  197.3960  169.2930  146.1700 C   0  0  0  0  0  3  0  0  0  0  0  0
  195.1600  168.8750  146.3580 C   0  0  0  0  0  3  0  0  0  0  0  0
  196.2140  169.5690  145.6450 C   0  0  0  0  0  0  0  0  0  0  0  0
  197.2060  168.3520  147.3090 C   0  0  0  0  0  2  0  0  0  0  0  0
  197.5310  172.7070  144.3640 C   0  0  0  0  0  1  0  0  0  0  0  0
  196.4720  172.7760  145.2830 O   0  0  0  0  0  0  0  0  0  0  0  0
  1  6  1  0  0  0  0
  1 16  1  0  0  0  0
  2 19  2  0  0  0  0
  2 26  1  0  0  0  0
  4 30  1  0  0  0  0
  6  8  1  0  0  0  0
  7  5  1  0  0  0  0
  8 24  1  0  0  0  0
  9 18  1  0  0  0  0
 10  9  1  0  0  0  0
 11 13  1  0  0  0  0
 11 23  1  1  0  0  0
 13 27  1  0  0  0  0
 14 22  1  0  0  0  0
 14 43  1  1  0  0  0
 15  6  2  0  0  0  0
 16 29  1  6  0  0  0
 16  4  1  0  0  0  0
 17 28  1  0  0  0  0
 18 14  1  0  0  0  0
 19 15  1  0  0  0  0
 20  3  1  0  0  0  0
 20  7  1  0  0  0  0
 21 28  1  0  0  0  0
 21  4  2  0  0  0  0
 22 46  1  1  0  0  0
 22  5  1  0  0  0  0
 24 11  1  0  0  0  0
 25 19  1  0  0  0  0
 26  1  2  0  0  0  0
 27 32  1  0  0  0  0
 27  3  1  0  0  0  0
 27 12  1  1  0  0  0
 28 10  2  0  0  0  0
 30  9  2  0  0  0  0
 31 33  1  6  0  0  0
 31 37  1  0  0  0  0
 32 36  1  6  0  0  0
 32 34  1  0  0  0  0
 34 35  1  0  0  0  0
 35 39  1  1  0  0  0
 36 31  1  0  0  0  0
 37 35  1  0  0  0  0
 38 39  1  0  0  0  0
 41 44  1  0  0  0  0
 42 40  2  0  0  0  0
 43 41  2  0  0  0  0
 43 42  1  0  0  0  0
 44 40  1  0  0  0  0
 45 46  1  0  0  0  0
M  END
>  <MODEL>
4

>  <REMARK>
 VINA RESULT:      -6.1      3.474      7.671
  Name = 
  4 active torsions:
  status: ('A' for Active; 'I' for Inactive)
    1  A    between atoms: N_16  and  C_41
    2  A    between atoms: C_22  and  C_29
    3  A    between atoms: C_26  and  C_35
    4  A    between atoms: C_33  and  O_39
                            x       y       z     vdW  Elec       q    Type
                         _______ _______ _______ _____ _____    ______ ____

>  <TORSDO>
F 4

$$$$
=
 OpenBabel11042415423D

 46 50  0  0  1  0  0  0  0  0999 V2000
  188.2540  176.4760  143.5270 C   0  0  0  0  0  0  0  0  0  0  0  0
  186.5400  176.9730  145.1800 C   0  0  0  0  0  3  0  0  0  0  0  0
  193.0870  171.4750  142.8660 C   0  0  0  0  0  2  0  0  0  0  0  0
  188.4940  174.8860  141.5930 C   0  0  0  0  0  0  0  0  0  0  0  0
  193.1210  172.1530  139.7400 C   0  0  0  0  0  2  0  0  0  0  0  0
  189.1780  176.2410  144.5620 C   0  0  0  0  0  0  0  0  0  0  0  0
  192.3050  171.1120  140.4970 C   0  0  0  0  0  2  0  0  0  0  0  0
  190.4840  175.8530  144.2430 O   0  0  0  0  0  0  0  0  0  0  0  0
  189.2070  173.1130  140.0820 C   0  0  0  0  0  0  0  0  0  0  0  0
  188.1670  172.3040  140.5490 C   0  0  0  0  0  3  0  0  0  0  0  0
  192.7120  174.9820  144.5770 C   0  0  1  0  0  3  0  0  0  0  0  0
  194.3300  173.5720  142.3400 C   0  0  0  0  0  1  0  0  0  0  0  0
  192.3590  173.6810  143.8550 C   0  0  0  0  0  2  0  0  0  0  0  0
  191.1270  173.3610  138.5200 C   0  0  1  0  0  3  0  0  0  0  0  0
  188.7730  176.3850  145.8980 C   0  0  0  0  0  3  0  0  0  0  0  0
  188.6610  176.2930  142.0880 C   0  0  1  0  0  3  0  0  0  0  0  0
  186.1750  171.9190  142.0040 C   0  0  0  0  0  1  0  0  0  0  0  0
  190.0540  172.6120  139.0880 O   0  0  0  0  0  0  0  0  0  0  0  0
  187.4620  176.7540  146.2040 C   0  0  0  0  0  0  0  0  0  0  0  0
  191.9210  171.6010  141.8850 C   0  0  0  0  0  2  0  0  0  0  0  0
  187.4390  174.0710  142.0330 C   0  0  0  0  0  3  0  0  0  0  0  0
  192.3210  173.4450  139.4950 C   0  0  2  0  0  3  0  0  0  0  0  0
  193.2370  175.9140  143.6810 O   0  0  0  0  0  1  0  0  0  0  0  0
  191.4650  175.5540  145.2310 C   0  0  0  0  0  2  0  0  0  0  0  0
  186.9710  176.9310  147.8760 Cl  0  0  0  0  0  0  0  0  0  0  0  0
  186.9330  176.8310  143.8470 C   0  0  0  0  0  3  0  0  0  0  0  0
  193.5760  172.8270  143.4390 C   0  0  1  0  0  0  0  0  0  0  0  0
  187.2840  172.7810  141.5210 C   0  0  0  0  0  0  0  0  0  0  0  0
  187.9800  177.1830  141.2530 O   0  0  0  0  0  1  0  0  0  0  0  0
  189.3660  174.4060  140.6090 C   0  0  0  0  0  3  0  0  0  0  0  0
  195.5100  170.9840  146.1160 C   0  0  2  0  0  3  0  0  0  0  0  0
  194.4740  172.6170  144.6020 N   0  0  2  0  0  0  0  0  0  0  0  0
  195.7460  169.6250  146.3120 O   0  0  0  0  0  1  0  0  0  0  0  0
  195.7690  173.2860  144.4050 C   0  0  0  0  0  2  0  0  0  0  0  0
  196.6050  173.1920  145.6810 C   0  0  1  0  0  3  0  0  0  0  0  0
  194.7250  171.1830  144.8220 C   0  0  0  0  0  2  0  0  0  0  0  0
  196.8400  171.7250  146.0260 C   0  0  0  0  0  2  0  0  0  0  0  0
  197.9410  174.5850  144.2770 O   0  0  0  0  0  1  0  0  0  0  0  0
  197.9410  173.8840  145.4820 C   0  0  0  0  0  2  0  0  0  0  0  0
  192.3080  172.7870  135.0850 C   0  0  0  0  0  3  0  0  0  0  0  0
  191.2190  171.5860  136.7510 C   0  0  0  0  0  3  0  0  0  0  0  0
  192.1600  173.5740  136.1390 C   0  0  0  0  0  2  0  0  0  0  0  0
  191.4850  172.8130  137.1710 C   0  0  0  0  0  0  0  0  0  0  0  0
  191.7280  171.4360  135.3590 C   0  0  0  0  0  3  0  0  0  0  0  0
  194.4010  174.2130  138.9130 C   0  0  0  0  0  1  0  0  0  0  0  0
  193.1160  174.5990  139.3230 O   0  0  0  0  0  0  0  0  0  0  0  0
  1 26  2  0  0  0  0
  1  6  1  0  0  0  0
  2 19  2  0  0  0  0
  3 27  1  0  0  0  0
  4 21  1  0  0  0  0
  4 16  1  0  0  0  0
  5  7  1  0  0  0  0
  6 15  2  0  0  0  0
  7 20  1  0  0  0  0
  8  6  1  0  0  0  0
  8 24  1  0  0  0  0
  9 10  2  0  0  0  0
  9 30  1  0  0  0  0
 10 28  1  0  0  0  0
 11 23  1  6  0  0  0
 11 24  1  0  0  0  0
 13 11  1  0  0  0  0
 14 43  1  6  0  0  0
 14 18  1  0  0  0  0
 14 22  1  0  0  0  0
 15 19  1  0  0  0  0
 16 29  1  6  0  0  0
 16  1  1  0  0  0  0
 18  9  1  0  0  0  0
 19 25  1  0  0  0  0
 20  3  1  0  0  0  0
 22 46  1  6  0  0  0
 22  5  1  0  0  0  0
 26  2  1  0  0  0  0
 27 12  1  6  0  0  0
 27 13  1  0  0  0  0
 27 32  1  0  0  0  0
 28 17  1  0  0  0  0
 28 21  2  0  0  0  0
 30  4  2  0  0  0  0
 31 33  1  6  0  0  0
 32 34  1  6  0  0  0
 32 36  1  0  0  0  0
 34 35  1  0  0  0  0
 35 39  1  6  0  0  0
 35 37  1  0  0  0  0
 36 31  1  0  0  0  0
 37 31  1  0  0  0  0
 38 39  1  0  0  0  0
 40 44  2  0  0  0  0
 40 42  1  0  0  0  0
 41 43  2  0  0  0  0
 42 43  1  0  0  0  0
 44 41  1  0  0  0  0
 45 46  1  0  0  0  0
M  END
>  <MODEL>
5

>  <REMARK>
 VINA RESULT:      -5.5      2.245      7.318
  Name = 
  4 active torsions:
  status: ('A' for Active; 'I' for Inactive)
    1  A    between atoms: N_16  and  C_41
    2  A    between atoms: C_22  and  C_29
    3  A    between atoms: C_26  and  C_35
    4  A    between atoms: C_33  and  O_39
                            x       y       z     vdW  Elec       q    Type
                         _______ _______ _______ _____ _____    ______ ____

>  <TORSDO>
F 4

$$$$
