=
 OpenBabel11042417433D

 48 53  0  0  1  0  0  0  0  0999 V2000
  189.0660  175.9540  143.5710 N   0  0  0  0  0  2  0  0  0  0  0  0
  193.2220  175.6650  144.1160 N   0  0  0  0  0  0  0  0  0  0  0  0
  194.3120  175.0140  143.6290 C   0  0  0  0  0  0  0  0  0  0  0  0
  191.9740  176.6820  145.9360 N   0  0  0  0  0  2  0  0  0  0  0  0
  191.3610  173.7170  140.7580 C   0  0  0  0  0  0  0  0  0  0  0  0
  190.6120  174.5310  141.6190 O   0  0  0  0  0  0  0  0  0  0  0  0
  189.4260  172.2450  140.2360 N   0  0  0  0  0  1  0  0  0  0  0  0
  195.2130  174.9290  145.8430 N   0  0  0  0  0  0  0  0  0  0  0  0
  193.5010  173.2210  139.7490 N   0  0  0  0  0  0  0  0  0  0  0  0
  190.6090  174.5330  144.5930 O   0  0  0  0  0  0  0  0  0  0  0  0
  188.4970  174.9070  142.7350 C   0  0  2  0  0  3  0  0  0  0  0  0
  191.2720  170.5320  138.2880 S   0  0  0  0  0  0  0  0  0  0  0  0
  194.4350  174.7330  142.2560 C   0  0  0  0  0  0  0  0  0  0  0  0
  196.5970  173.7060  142.6690 C   0  0  0  0  0  3  0  0  0  0  0  0
  196.4770  173.9620  144.0370 C   0  0  0  0  0  0  0  0  0  0  0  0
  191.6170  171.8730  139.2330 C   0  0  0  0  0  0  0  0  0  0  0  0
  189.2360  174.8250  141.4100 C   0  0  0  0  0  2  0  0  0  0  0  0
  190.0520  177.8660  145.3990 O   0  0  0  0  0  0  0  0  0  0  0  0
  192.8620  170.3980  137.7140 C   0  0  0  0  0  3  0  0  0  0  0  0
  193.6480  171.3710  138.2440 N   0  0  0  0  0  0  0  0  0  0  0  0
  192.7430  173.9880  140.5900 C   0  0  0  0  0  0  0  0  0  0  0  0
  190.7900  172.6200  140.0660 C   0  0  0  0  0  0  0  0  0  0  0  0
  194.1230  175.5860  146.3180 C   0  0  0  0  0  3  0  0  0  0  0  0
  195.5900  174.0950  141.7860 C   0  0  0  0  0  3  0  0  0  0  0  0
  190.1560  175.7040  144.4620 C   0  0  0  0  0  0  0  0  0  0  0  0
  193.3770  175.1590  141.2800 C   0  0  0  0  0  2  0  0  0  0  0  0
  190.7170  176.8050  145.2600 C   0  0  0  0  0  0  0  0  0  0  0  0
  192.9510  172.1780  139.0830 C   0  0  0  0  0  0  0  0  0  0  0  0
  195.3400  174.6320  144.5210 C   0  0  0  0  0  0  0  0  0  0  0  0
  193.1000  175.9520  145.4420 C   0  0  0  0  0  0  0  0  0  0  0  0
  187.0380  175.2110  142.4570 C   0  0  0  0  0  2  0  0  0  0  0  0
  186.8200  176.9770  142.0870 S   0  0  0  0  0  0  0  0  0  0  0  0
  184.5050  177.5650  143.1510 F   0  0  0  0  0  0  0  0  0  0  0  0
  185.7850  177.2360  143.5550 C   0  0  2  0  0  3  0  0  0  0  0  0
  186.3600  178.3640  144.3920 C   0  0  0  0  0  2  0  0  0  0  0  0
  186.2580  178.0570  145.8820 C   0  0  0  0  0  2  0  0  0  0  0  0
  184.2340  179.3040  145.6570 F   0  0  0  0  0  0  0  0  0  0  0  0
  184.1400  177.2450  146.5510 F   0  0  0  0  0  0  0  0  0  0  0  0
  185.0350  178.9330  147.7390 F   0  0  0  0  0  0  0  0  0  0  0  0
  184.8940  178.4000  146.4700 C   0  0  0  0  0  0  0  0  0  0  0  0
  197.5520  173.4740  144.9560 C   0  0  0  0  0  2  0  0  0  0  0  0
  197.5430  171.9520  145.0700 C   0  0  0  0  0  2  0  0  0  0  0  0
  196.5800  171.5140  146.0740 N   0  0  0  0  0  2  0  0  0  0  0  0
  195.4810  170.6390  145.7880 C   0  0  0  0  0  0  0  0  0  0  0  0
  195.5040  169.3650  146.1720 C   0  0  0  0  0  2  0  0  0  0  0  0
  194.2380  171.0560  143.6830 C   0  0  0  0  0  2  0  0  0  0  0  0
  194.2240  171.1930  145.1960 C   0  0  0  0  0  3  0  0  0  0  0  0
  193.4390  170.0830  144.5180 C   0  0  0  0  0  2  0  0  0  0  0  0
  1 25  1  0  0  0  0
  2 30  2  0  0  0  0
  3  2  1  0  0  0  0
  3 29  1  0  0  0  0
  5  6  1  0  0  0  0
  8 23  2  0  0  0  0
  9 21  1  0  0  0  0
 11 31  1  6  0  0  0
 11  1  1  0  0  0  0
 12 16  1  0  0  0  0
 13  3  2  0  0  0  0
 14 15  1  0  0  0  0
 15 29  2  0  0  0  0
 15 41  1  0  0  0  0
 16 22  2  0  0  0  0
 17  6  1  0  0  0  0
 17 11  1  0  0  0  0
 19 20  2  0  0  0  0
 19 12  1  0  0  0  0
 20 28  1  0  0  0  0
 21  5  2  0  0  0  0
 21 26  1  0  0  0  0
 22  7  1  0  0  0  0
 22  5  1  0  0  0  0
 24 13  1  0  0  0  0
 24 14  2  0  0  0  0
 25 10  2  0  0  0  0
 25 27  1  0  0  0  0
 26 13  1  0  0  0  0
 27 18  2  0  0  0  0
 27  4  1  0  0  0  0
 28 16  1  0  0  0  0
 28  9  2  0  0  0  0
 29  8  1  0  0  0  0
 30  4  1  0  0  0  0
 30 23  1  0  0  0  0
 32 31  1  0  0  0  0
 32 34  1  0  0  0  0
 34 33  1  6  0  0  0
 34 35  1  0  0  0  0
 35 36  1  0  0  0  0
 36 40  1  0  0  0  0
 37 40  1  0  0  0  0
 40 38  1  0  0  0  0
 40 39  1  0  0  0  0
 41 42  1  0  0  0  0
 42 43  1  0  0  0  0
 44 43  1  0  0  0  0
 44 45  2  0  0  0  0
 46 48  1  0  0  0  0
 46 47  1  0  0  0  0
 47 44  1  0  0  0  0
 48 47  1  0  0  0  0
M  END
>  <MODEL>
1

>  <REMARK>
 VINA RESULT:      -7.5      0.000      0.000
  Name = 
  11 active torsions:
  status: ('A' for Active; 'I' for Inactive)
    1  A    between atoms: C_3  and  C_16
    2  A    between atoms: C_3  and  S_39
    3  A    between atoms: N_4  and  C_14
    4  A    between atoms: N_4  and  C_41
    5  A    between atoms: C_14  and  C_29
    6  A    between atoms: C_18  and  C_24
    7  A    between atoms: C_18  and  C_38
    8  A    between atoms: C_22  and  C_24
    9  A    between atoms: C_22  and  S_39
   10  A    between atoms: C_23  and  C_32
   11  A    between atoms: C_32  and  C_41
                            x       y       z     vdW  Elec       q    Type
                         _______ _______ _______ _____ _____    ______ ____

>  <TORSDO>
F 11

$$$$
=
 OpenBabel11042417433D

 48 53  0  0  1  0  0  0  0  0999 V2000
  195.4560  173.9310  143.5400 N   0  0  0  0  0  2  0  0  0  0  0  0
  191.6540  175.7180  143.5790 N   0  0  0  0  0  0  0  0  0  0  0  0
  190.4560  175.6760  142.9350 C   0  0  0  0  0  0  0  0  0  0  0  0
  193.4120  176.9190  144.7520 N   0  0  0  0  0  2  0  0  0  0  0  0
  192.3790  172.2800  141.0910 C   0  0  0  0  0  0  0  0  0  0  0  0
  193.3680  172.7530  141.9660 O   0  0  0  0  0  0  0  0  0  0  0  0
  194.0400  171.4280  139.4480 N   0  0  0  0  0  1  0  0  0  0  0  0
  190.2650  178.0450  143.2020 N   0  0  0  0  0  0  0  0  0  0  0  0
  190.0260  172.0340  140.5960 N   0  0  0  0  0  0  0  0  0  0  0  0
  194.2690  175.5580  142.3630 O   0  0  0  0  0  0  0  0  0  0  0  0
  195.7270  173.1250  142.3580 C   0  0  2  0  0  3  0  0  0  0  0  0
  191.6620  170.3850  137.6060 S   0  0  0  0  0  0  0  0  0  0  0  0
  189.9200  174.4570  142.4830 C   0  0  0  0  0  0  0  0  0  0  0  0
  187.9660  175.6370  141.6530 C   0  0  0  0  0  3  0  0  0  0  0  0
  188.4970  176.8560  142.0820 C   0  0  0  0  0  0  0  0  0  0  0  0
  191.6420  171.1840  139.0790 C   0  0  0  0  0  0  0  0  0  0  0  0
  194.6210  172.1050  142.1450 C   0  0  0  0  0  2  0  0  0  0  0  0
  195.1020  175.6700  145.7350 O   0  0  0  0  0  0  0  0  0  0  0  0
  189.9710  170.3340  137.4930 C   0  0  0  0  0  3  0  0  0  0  0  0
  189.3990  170.9260  138.5740 N   0  0  0  0  0  0  0  0  0  0  0  0
  191.0170  172.4920  141.4210 C   0  0  0  0  0  0  0  0  0  0  0  0
  192.6960  171.6170  139.8790 C   0  0  0  0  0  0  0  0  0  0  0  0
  191.4590  178.0750  143.8490 C   0  0  0  0  0  3  0  0  0  0  0  0
  188.6650  174.4490  141.8590 C   0  0  0  0  0  3  0  0  0  0  0  0
  194.6820  175.1310  143.4770 C   0  0  0  0  0  0  0  0  0  0  0  0
  190.6410  173.1610  142.7090 C   0  0  0  0  0  2  0  0  0  0  0  0
  194.4080  175.8900  144.7070 C   0  0  0  0  0  0  0  0  0  0  0  0
  190.3320  171.3940  139.4420 C   0  0  0  0  0  0  0  0  0  0  0  0
  189.7390  176.8780  142.7400 C   0  0  0  0  0  0  0  0  0  0  0  0
  192.1760  176.8920  144.0320 C   0  0  0  0  0  0  0  0  0  0  0  0
  197.0390  172.3860  142.5330 C   0  0  0  0  0  2  0  0  0  0  0  0
  197.8250  172.8570  144.1030 S   0  0  0  0  0  0  0  0  0  0  0  0
  196.9840  170.3930  143.8640 F   0  0  0  0  0  0  0  0  0  0  0  0
  197.6400  171.1860  144.7860 C   0  0  2  0  0  3  0  0  0  0  0  0
  196.8320  171.2470  146.0700 C   0  0  0  0  0  2  0  0  0  0  0  0
  196.5540  169.8520  146.6190 C   0  0  0  0  0  2  0  0  0  0  0  0
  194.3200  170.5450  146.1350 F   0  0  0  0  0  0  0  0  0  0  0  0
  194.9330  168.4430  145.6280 F   0  0  0  0  0  0  0  0  0  0  0  0
  194.6360  169.0270  147.7810 F   0  0  0  0  0  0  0  0  0  0  0  0
  195.0810  169.4650  146.5460 C   0  0  0  0  0  0  0  0  0  0  0  0
  187.7410  178.1130  141.7860 C   0  0  0  0  0  2  0  0  0  0  0  0
  186.6370  178.3570  142.8100 C   0  0  0  0  0  2  0  0  0  0  0  0
  187.1460  178.1960  144.1680 N   0  0  0  0  0  2  0  0  0  0  0  0
  186.3110  177.9100  145.2970 C   0  0  0  0  0  0  0  0  0  0  0  0
  186.4150  176.7540  145.9490 C   0  0  0  0  0  2  0  0  0  0  0  0
  184.0570  178.9390  145.1940 C   0  0  0  0  0  2  0  0  0  0  0  0
  185.4240  178.9780  145.8550 C   0  0  0  0  0  3  0  0  0  0  0  0
  184.2420  178.3450  146.5710 C   0  0  0  0  0  2  0  0  0  0  0  0
  2 30  2  0  0  0  0
  3  2  1  0  0  0  0
  5 21  2  0  0  0  0
  5  6  1  0  0  0  0
  6 17  1  0  0  0  0
  7 22  1  0  0  0  0
  8 23  2  0  0  0  0
  9 21  1  0  0  0  0
 10 25  2  0  0  0  0
 11 31  1  1  0  0  0
 11  1  1  0  0  0  0
 12 16  1  0  0  0  0
 13 26  1  0  0  0  0
 13  3  2  0  0  0  0
 14 24  2  0  0  0  0
 14 15  1  0  0  0  0
 15 29  2  0  0  0  0
 16 28  1  0  0  0  0
 16 22  2  0  0  0  0
 17 11  1  0  0  0  0
 19 12  1  0  0  0  0
 19 20  2  0  0  0  0
 20 28  1  0  0  0  0
 21 26  1  0  0  0  0
 22  5  1  0  0  0  0
 23 30  1  0  0  0  0
 24 13  1  0  0  0  0
 25  1  1  0  0  0  0
 25 27  1  0  0  0  0
 27  4  1  0  0  0  0
 27 18  2  0  0  0  0
 28  9  2  0  0  0  0
 29  3  1  0  0  0  0
 29  8  1  0  0  0  0
 30  4  1  0  0  0  0
 31 32  1  0  0  0  0
 32 34  1  0  0  0  0
 34 33  1  6  0  0  0
 34 35  1  0  0  0  0
 35 36  1  0  0  0  0
 37 40  1  0  0  0  0
 38 40  1  0  0  0  0
 40 36  1  0  0  0  0
 40 39  1  0  0  0  0
 41 15  1  0  0  0  0
 41 42  1  0  0  0  0
 42 43  1  0  0  0  0
 43 44  1  0  0  0  0
 44 47  1  0  0  0  0
 44 45  2  0  0  0  0
 46 47  1  0  0  0  0
 46 48  1  0  0  0  0
 47 48  1  0  0  0  0
M  END
>  <MODEL>
2

>  <REMARK>
 VINA RESULT:      -7.3      4.493      8.628
  Name = 
  11 active torsions:
  status: ('A' for Active; 'I' for Inactive)
    1  A    between atoms: C_3  and  C_16
    2  A    between atoms: C_3  and  S_39
    3  A    between atoms: N_4  and  C_14
    4  A    between atoms: N_4  and  C_41
    5  A    between atoms: C_14  and  C_29
    6  A    between atoms: C_18  and  C_24
    7  A    between atoms: C_18  and  C_38
    8  A    between atoms: C_22  and  C_24
    9  A    between atoms: C_22  and  S_39
   10  A    between atoms: C_23  and  C_32
   11  A    between atoms: C_32  and  C_41
                            x       y       z     vdW  Elec       q    Type
                         _______ _______ _______ _____ _____    ______ ____

>  <TORSDO>
F 11

$$$$
=
 OpenBabel11042417433D

 48 53  0  0  1  0  0  0  0  0999 V2000
  191.6930  176.4330  145.6800 N   0  0  0  0  0  2  0  0  0  0  0  0
  194.9380  174.4300  143.9150 N   0  0  0  0  0  0  0  0  0  0  0  0
  195.2400  173.6250  142.8600 C   0  0  0  0  0  0  0  0  0  0  0  0
  195.2500  175.1520  146.2140 N   0  0  0  0  0  2  0  0  0  0  0  0
  191.1570  174.6060  141.8630 C   0  0  0  0  0  0  0  0  0  0  0  0
  191.3490  175.2940  143.0700 O   0  0  0  0  0  0  0  0  0  0  0  0
  188.7330  174.2480  142.2920 N   0  0  0  0  0  1  0  0  0  0  0  0
  196.8030  172.4550  144.2430 N   0  0  0  0  0  0  0  0  0  0  0  0
  192.1190  173.7170  139.8320 N   0  0  0  0  0  0  0  0  0  0  0  0
  192.5820  174.2780  145.5780 O   0  0  0  0  0  0  0  0  0  0  0  0
  190.3910  176.0330  145.1660 C   0  0  2  0  0  3  0  0  0  0  0  0
  188.4750  172.7450  139.4970 S   0  0  0  0  0  0  0  0  0  0  0  0
  194.6240  173.8080  141.6100 C   0  0  0  0  0  0  0  0  0  0  0  0
  195.9280  171.9670  140.7090 C   0  0  0  0  0  3  0  0  0  0  0  0
  196.5330  171.7650  141.9520 C   0  0  0  0  0  0  0  0  0  0  0  0
  189.7990  173.4450  140.2510 C   0  0  0  0  0  0  0  0  0  0  0  0
  190.3630  176.1370  143.6510 C   0  0  0  0  0  2  0  0  0  0  0  0
  194.1560  177.0800  146.8990 O   0  0  0  0  0  0  0  0  0  0  0  0
  189.3800  172.2270  138.1600 C   0  0  0  0  0  3  0  0  0  0  0  0
  190.6830  172.5860  138.2930 N   0  0  0  0  0  0  0  0  0  0  0  0
  192.2730  174.3760  141.0210 C   0  0  0  0  0  0  0  0  0  0  0  0
  189.8870  174.1140  141.4670 C   0  0  0  0  0  0  0  0  0  0  0  0
  196.4980  173.2680  145.2870 C   0  0  0  0  0  3  0  0  0  0  0  0
  194.9900  172.9840  140.5370 C   0  0  0  0  0  3  0  0  0  0  0  0
  192.7670  175.5010  145.8290 C   0  0  0  0  0  0  0  0  0  0  0  0
  193.6260  174.9070  141.3900 C   0  0  0  0  0  2  0  0  0  0  0  0
  194.0750  175.9640  146.3200 C   0  0  0  0  0  0  0  0  0  0  0  0
  190.9040  173.2560  139.4530 C   0  0  0  0  0  0  0  0  0  0  0  0
  196.2030  172.6040  143.0310 C   0  0  0  0  0  0  0  0  0  0  0  0
  195.5380  174.2690  145.1270 C   0  0  0  0  0  0  0  0  0  0  0  0
  189.3170  176.9400  145.7330 C   0  0  0  0  0  2  0  0  0  0  0  0
  188.2130  176.0020  146.8310 S   0  0  0  0  0  0  0  0  0  0  0  0
  185.6890  176.6430  147.0750 F   0  0  0  0  0  0  0  0  0  0  0  0
  186.8720  177.2110  146.6420 C   0  0  2  0  0  3  0  0  0  0  0  0
  186.7430  177.6030  145.1810 C   0  0  0  0  0  2  0  0  0  0  0  0
  185.2860  177.5900  144.7300 C   0  0  0  0  0  2  0  0  0  0  0  0
  183.8510  178.9600  146.0600 F   0  0  0  0  0  0  0  0  0  0  0  0
  185.5640  179.9270  144.9740 F   0  0  0  0  0  0  0  0  0  0  0  0
  183.7780  179.2010  143.8130 F   0  0  0  0  0  0  0  0  0  0  0  0
  184.5990  178.9410  144.8960 C   0  0  0  0  0  0  0  0  0  0  0  0
  197.4890  170.6240  142.1090 C   0  0  0  0  0  2  0  0  0  0  0  0
  196.7960  169.2800  141.9000 C   0  0  0  0  0  2  0  0  0  0  0  0
  196.7620  168.5170  143.1430 N   0  0  0  0  0  2  0  0  0  0  0  0
  195.9070  168.8410  144.2470 C   0  0  0  0  0  0  0  0  0  0  0  0
  194.6740  169.2990  144.0450 C   0  0  0  0  0  2  0  0  0  0  0  0
  197.4250  169.4650  146.1060 C   0  0  0  0  0  2  0  0  0  0  0  0
  196.3370  168.5120  145.6410 C   0  0  0  0  0  3  0  0  0  0  0  0
  196.0020  169.6660  146.5710 C   0  0  0  0  0  2  0  0  0  0  0  0
  1 25  1  0  0  0  0
  2 30  2  0  0  0  0
  3 29  1  0  0  0  0
  3  2  1  0  0  0  0
  4 27  1  0  0  0  0
  5  6  1  0  0  0  0
  6 17  1  0  0  0  0
  8 23  2  0  0  0  0
  9 21  1  0  0  0  0
 10 25  2  0  0  0  0
 11  1  1  0  0  0  0
 11 31  1  1  0  0  0
 12 16  1  0  0  0  0
 13  3  2  0  0  0  0
 14 15  1  0  0  0  0
 15 41  1  0  0  0  0
 15 29  2  0  0  0  0
 16 22  2  0  0  0  0
 17 11  1  0  0  0  0
 19 20  2  0  0  0  0
 19 12  1  0  0  0  0
 20 28  1  0  0  0  0
 21 26  1  0  0  0  0
 21  5  2  0  0  0  0
 22  5  1  0  0  0  0
 22  7  1  0  0  0  0
 24 14  2  0  0  0  0
 24 13  1  0  0  0  0
 25 27  1  0  0  0  0
 26 13  1  0  0  0  0
 27 18  2  0  0  0  0
 28  9  2  0  0  0  0
 28 16  1  0  0  0  0
 29  8  1  0  0  0  0
 30 23  1  0  0  0  0
 30  4  1  0  0  0  0
 31 32  1  0  0  0  0
 34 32  1  0  0  0  0
 34 33  1  6  0  0  0
 35 34  1  0  0  0  0
 36 40  1  0  0  0  0
 36 35  1  0  0  0  0
 39 40  1  0  0  0  0
 40 38  1  0  0  0  0
 40 37  1  0  0  0  0
 42 41  1  0  0  0  0
 42 43  1  0  0  0  0
 43 44  1  0  0  0  0
 44 47  1  0  0  0  0
 45 44  2  0  0  0  0
 46 48  1  0  0  0  0
 47 46  1  0  0  0  0
 47 48  1  0  0  0  0
M  END
>  <MODEL>
3

>  <REMARK>
 VINA RESULT:      -7.0      2.011      3.044
  Name = 
  11 active torsions:
  status: ('A' for Active; 'I' for Inactive)
    1  A    between atoms: C_3  and  C_16
    2  A    between atoms: C_3  and  S_39
    3  A    between atoms: N_4  and  C_14
    4  A    between atoms: N_4  and  C_41
    5  A    between atoms: C_14  and  C_29
    6  A    between atoms: C_18  and  C_24
    7  A    between atoms: C_18  and  C_38
    8  A    between atoms: C_22  and  C_24
    9  A    between atoms: C_22  and  S_39
   10  A    between atoms: C_23  and  C_32
   11  A    between atoms: C_32  and  C_41
                            x       y       z     vdW  Elec       q    Type
                         _______ _______ _______ _____ _____    ______ ____

>  <TORSDO>
F 11

$$$$
=
 OpenBabel11042417433D

 48 53  0  0  1  0  0  0  0  0999 V2000
  189.1210  175.6640  144.1940 N   0  0  0  0  0  2  0  0  0  0  0  0
  190.2320  173.1040  141.0540 N   0  0  0  0  0  0  0  0  0  0  0  0
  191.2750  172.3410  140.6270 C   0  0  0  0  0  0  0  0  0  0  0  0
  188.3210  174.5440  140.6330 N   0  0  0  0  0  2  0  0  0  0  0  0
  192.7610  173.4660  144.5200 C   0  0  0  0  0  0  0  0  0  0  0  0
  191.5200  174.1160  144.4680 O   0  0  0  0  0  0  0  0  0  0  0  0
  193.7750  175.2130  145.9700 N   0  0  0  0  0  1  0  0  0  0  0  0
  190.7420  172.9330  138.3710 N   0  0  0  0  0  0  0  0  0  0  0  0
  194.1300  171.5980  143.8240 N   0  0  0  0  0  0  0  0  0  0  0  0
  190.3940  175.7320  142.2400 O   0  0  0  0  0  0  0  0  0  0  0  0
  190.2240  176.0750  145.0520 C   0  0  2  0  0  3  0  0  0  0  0  0
  196.5070  173.5780  146.0070 S   0  0  0  0  0  0  0  0  0  0  0  0
  192.0740  171.6300  141.5390 C   0  0  0  0  0  0  0  0  0  0  0  0
  193.3840  170.7510  139.6930 C   0  0  0  0  0  3  0  0  0  0  0  0
  192.6080  171.4670  138.7780 C   0  0  0  0  0  0  0  0  0  0  0  0
  195.0440  173.2580  145.2530 C   0  0  0  0  0  0  0  0  0  0  0  0
  190.9860  174.8610  145.5550 C   0  0  0  0  0  2  0  0  0  0  0  0
  186.9800  175.1150  142.4390 O   0  0  0  0  0  0  0  0  0  0  0  0
  197.2480  172.1840  145.3900 C   0  0  0  0  0  3  0  0  0  0  0  0
  196.3820  171.4830  144.6120 N   0  0  0  0  0  0  0  0  0  0  0  0
  192.9360  172.2650  143.7870 C   0  0  0  0  0  0  0  0  0  0  0  0
  193.8540  173.9790  145.2640 C   0  0  0  0  0  0  0  0  0  0  0  0
  189.7000  173.6870  138.8090 C   0  0  0  0  0  3  0  0  0  0  0  0
  193.1140  170.8240  141.0580 C   0  0  0  0  0  3  0  0  0  0  0  0
  189.2860  175.4750  142.7870 C   0  0  0  0  0  0  0  0  0  0  0  0
  191.7950  171.6740  143.0130 C   0  0  0  0  0  2  0  0  0  0  0  0
  188.1460  175.0250  141.9710 C   0  0  0  0  0  0  0  0  0  0  0  0
  195.1690  172.0870  144.5420 C   0  0  0  0  0  0  0  0  0  0  0  0
  191.5390  172.2540  139.2410 C   0  0  0  0  0  0  0  0  0  0  0  0
  189.4450  173.7860  140.1770 C   0  0  0  0  0  0  0  0  0  0  0  0
  189.6870  176.8390  146.2460 C   0  0  0  0  0  2  0  0  0  0  0  0
  188.2690  175.9620  146.9700 S   0  0  0  0  0  0  0  0  0  0  0  0
  186.9070  178.0370  147.7930 F   0  0  0  0  0  0  0  0  0  0  0  0
  187.1410  177.3400  146.6230 C   0  0  2  0  0  3  0  0  0  0  0  0
  185.8290  176.8010  146.0820 C   0  0  0  0  0  2  0  0  0  0  0  0
  185.4060  177.5370  144.8150 C   0  0  0  0  0  2  0  0  0  0  0  0
  184.1220  178.8360  146.3530 F   0  0  0  0  0  0  0  0  0  0  0  0
  185.6460  179.8760  145.0710 F   0  0  0  0  0  0  0  0  0  0  0  0
  183.7430  179.1150  144.1420 F   0  0  0  0  0  0  0  0  0  0  0  0
  184.7070  178.8620  145.1010 C   0  0  0  0  0  0  0  0  0  0  0  0
  192.9700  171.4080  137.3270 C   0  0  0  0  0  2  0  0  0  0  0  0
  194.2680  172.1570  137.0430 C   0  0  0  0  0  2  0  0  0  0  0  0
  194.0540  173.5990  137.0880 N   0  0  0  0  0  2  0  0  0  0  0  0
  194.7590  174.4770  137.9750 C   0  0  0  0  0  0  0  0  0  0  0  0
  195.9100  175.0370  137.6110 C   0  0  0  0  0  2  0  0  0  0  0  0
  194.7000  174.1200  140.4290 C   0  0  0  0  0  2  0  0  0  0  0  0
  194.1220  174.9020  139.2610 C   0  0  0  0  0  3  0  0  0  0  0  0
  195.1640  175.5340  140.1680 C   0  0  0  0  0  2  0  0  0  0  0  0
  1 11  1  0  0  0  0
  3  2  1  0  0  0  0
  3 13  1  0  0  0  0
  4 27  1  0  0  0  0
  5 22  1  0  0  0  0
  6  5  1  0  0  0  0
  6 17  1  0  0  0  0
  8 23  2  0  0  0  0
  8 29  1  0  0  0  0
  9 28  2  0  0  0  0
 10 25  2  0  0  0  0
 11 17  1  0  0  0  0
 11 31  1  1  0  0  0
 13 26  1  0  0  0  0
 14 24  1  0  0  0  0
 15 29  1  0  0  0  0
 15 14  2  0  0  0  0
 16 22  2  0  0  0  0
 16 12  1  0  0  0  0
 19 12  1  0  0  0  0
 20 19  2  0  0  0  0
 21  9  1  0  0  0  0
 21  5  2  0  0  0  0
 22  7  1  0  0  0  0
 23 30  1  0  0  0  0
 24 13  2  0  0  0  0
 25  1  1  0  0  0  0
 26 21  1  0  0  0  0
 27 18  2  0  0  0  0
 27 25  1  0  0  0  0
 28 20  1  0  0  0  0
 28 16  1  0  0  0  0
 29  3  2  0  0  0  0
 30  4  1  0  0  0  0
 30  2  2  0  0  0  0
 31 32  1  0  0  0  0
 34 32  1  0  0  0  0
 34 33  1  1  0  0  0
 35 34  1  0  0  0  0
 36 40  1  0  0  0  0
 36 35  1  0  0  0  0
 38 40  1  0  0  0  0
 39 40  1  0  0  0  0
 40 37  1  0  0  0  0
 41 15  1  0  0  0  0
 42 43  1  0  0  0  0
 42 41  1  0  0  0  0
 43 44  1  0  0  0  0
 44 47  1  0  0  0  0
 45 44  2  0  0  0  0
 47 48  1  0  0  0  0
 47 46  1  0  0  0  0
 48 46  1  0  0  0  0
M  END
>  <MODEL>
4

>  <REMARK>
 VINA RESULT:      -6.9      2.471      5.970
  Name = 
  11 active torsions:
  status: ('A' for Active; 'I' for Inactive)
    1  A    between atoms: C_3  and  C_16
    2  A    between atoms: C_3  and  S_39
    3  A    between atoms: N_4  and  C_14
    4  A    between atoms: N_4  and  C_41
    5  A    between atoms: C_14  and  C_29
    6  A    between atoms: C_18  and  C_24
    7  A    between atoms: C_18  and  C_38
    8  A    between atoms: C_22  and  C_24
    9  A    between atoms: C_22  and  S_39
   10  A    between atoms: C_23  and  C_32
   11  A    between atoms: C_32  and  C_41
                            x       y       z     vdW  Elec       q    Type
                         _______ _______ _______ _____ _____    ______ ____

>  <TORSDO>
F 11

$$$$
=
 OpenBabel11042417433D

 48 53  0  0  1  0  0  0  0  0999 V2000
  187.7760  174.9840  140.8350 N   0  0  0  0  0  2  0  0  0  0  0  0
  190.9370  172.3840  141.7810 N   0  0  0  0  0  0  0  0  0  0  0  0
  191.8790  172.1640  142.7380 C   0  0  0  0  0  0  0  0  0  0  0  0
  190.1900  172.3610  139.4690 N   0  0  0  0  0  2  0  0  0  0  0  0
  189.5950  175.2680  144.6820 C   0  0  0  0  0  0  0  0  0  0  0  0
  188.9250  175.1170  143.4590 O   0  0  0  0  0  0  0  0  0  0  0  0
  189.0320  177.6840  144.8530 N   0  0  0  0  0  1  0  0  0  0  0  0
  193.4130  171.4940  141.0290 N   0  0  0  0  0  0  0  0  0  0  0  0
  190.9290  174.2610  146.4290 N   0  0  0  0  0  0  0  0  0  0  0  0
  190.1070  174.9440  140.7360 O   0  0  0  0  0  0  0  0  0  0  0  0
  187.7270  176.1900  141.6510 C   0  0  2  0  0  3  0  0  0  0  0  0
  190.5660  177.8300  147.6390 S   0  0  0  0  0  0  0  0  0  0  0  0
  191.5910  172.3700  144.0990 C   0  0  0  0  0  0  0  0  0  0  0  0
  193.8420  171.6590  144.6730 C   0  0  0  0  0  3  0  0  0  0  0  0
  194.1450  171.4690  143.3220 C   0  0  0  0  0  0  0  0  0  0  0  0
  190.3240  176.5510  146.5830 C   0  0  0  0  0  0  0  0  0  0  0  0
  187.7430  175.8330  143.1270 C   0  0  0  0  0  2  0  0  0  0  0  0
  187.9500  172.8020  139.0540 O   0  0  0  0  0  0  0  0  0  0  0  0
  191.4780  176.8980  148.7230 C   0  0  0  0  0  3  0  0  0  0  0  0
  191.5970  175.6210  148.2760 N   0  0  0  0  0  0  0  0  0  0  0  0
  190.2750  174.1520  145.2320 C   0  0  0  0  0  0  0  0  0  0  0  0
  189.6340  176.5040  145.3760 C   0  0  0  0  0  0  0  0  0  0  0  0
  192.4630  171.7100  140.0830 C   0  0  0  0  0  3  0  0  0  0  0  0
  192.5750  172.0960  145.0580 C   0  0  0  0  0  3  0  0  0  0  0  0
  189.0140  174.3880  140.4390 C   0  0  0  0  0  0  0  0  0  0  0  0
  190.2310  172.8200  144.5440 C   0  0  0  0  0  2  0  0  0  0  0  0
  189.0070  173.1500  139.6430 C   0  0  0  0  0  0  0  0  0  0  0  0
  190.9570  175.4410  147.0930 C   0  0  0  0  0  0  0  0  0  0  0  0
  193.1590  171.7060  142.3490 C   0  0  0  0  0  0  0  0  0  0  0  0
  191.2030  172.1750  140.4610 C   0  0  0  0  0  0  0  0  0  0  0  0
  186.4550  176.9580  141.3520 C   0  0  0  0  0  2  0  0  0  0  0  0
  185.4350  177.1000  142.8500 S   0  0  0  0  0  0  0  0  0  0  0  0
  186.8720  179.2320  142.3770 F   0  0  0  0  0  0  0  0  0  0  0  0
  185.6420  178.9020  142.9140 C   0  0  2  0  0  3  0  0  0  0  0  0
  185.5740  179.3720  144.3560 C   0  0  0  0  0  2  0  0  0  0  0  0
  184.4660  178.6550  145.1200 C   0  0  0  0  0  2  0  0  0  0  0  0
  186.3000  178.2710  146.6010 F   0  0  0  0  0  0  0  0  0  0  0  0
  184.2560  178.5960  147.4760 F   0  0  0  0  0  0  0  0  0  0  0  0
  184.7200  176.6650  146.4180 F   0  0  0  0  0  0  0  0  0  0  0  0
  184.9500  178.0290  146.4240 C   0  0  0  0  0  0  0  0  0  0  0  0
  195.5350  171.0570  142.9490 C   0  0  0  0  0  2  0  0  0  0  0  0
  196.5380  171.4160  144.0410 C   0  0  0  0  0  2  0  0  0  0  0  0
  196.9370  172.8150  143.9370 N   0  0  0  0  0  2  0  0  0  0  0  0
  196.6600  173.7940  144.9480 C   0  0  0  0  0  0  0  0  0  0  0  0
  196.9830  173.5730  146.2190 C   0  0  0  0  0  2  0  0  0  0  0  0
  194.6860  175.0740  144.1640 C   0  0  0  0  0  2  0  0  0  0  0  0
  196.1530  175.1460  144.5540 C   0  0  0  0  0  3  0  0  0  0  0  0
  195.0770  175.5960  145.5270 C   0  0  0  0  0  2  0  0  0  0  0  0
  1 11  1  0  0  0  0
  2  3  1  0  0  0  0
  3 13  1  0  0  0  0
  4 27  1  0  0  0  0
  4 30  1  0  0  0  0
  5 21  2  0  0  0  0
  5 22  1  0  0  0  0
  6  5  1  0  0  0  0
  7 22  1  0  0  0  0
  8 29  1  0  0  0  0
  9 28  2  0  0  0  0
 11 31  1  1  0  0  0
 11 17  1  0  0  0  0
 12 19  1  0  0  0  0
 13 26  1  0  0  0  0
 13 24  2  0  0  0  0
 14 24  1  0  0  0  0
 15 14  2  0  0  0  0
 16 28  1  0  0  0  0
 16 12  1  0  0  0  0
 17  6  1  0  0  0  0
 18 27  2  0  0  0  0
 20 19  2  0  0  0  0
 21  9  1  0  0  0  0
 22 16  2  0  0  0  0
 23 30  1  0  0  0  0
 23  8  2  0  0  0  0
 25 10  2  0  0  0  0
 25  1  1  0  0  0  0
 26 21  1  0  0  0  0
 27 25  1  0  0  0  0
 28 20  1  0  0  0  0
 29  3  2  0  0  0  0
 29 15  1  0  0  0  0
 30  2  2  0  0  0  0
 31 32  1  0  0  0  0
 32 34  1  0  0  0  0
 34 33  1  1  0  0  0
 34 35  1  0  0  0  0
 35 36  1  0  0  0  0
 36 40  1  0  0  0  0
 39 40  1  0  0  0  0
 40 37  1  0  0  0  0
 40 38  1  0  0  0  0
 41 15  1  0  0  0  0
 41 42  1  0  0  0  0
 43 42  1  0  0  0  0
 43 44  1  0  0  0  0
 44 45  2  0  0  0  0
 46 47  1  0  0  0  0
 46 48  1  0  0  0  0
 47 44  1  0  0  0  0
 47 48  1  0  0  0  0
M  END
>  <MODEL>
5

>  <REMARK>
 VINA RESULT:      -6.9      2.396      5.549
  Name = 
  11 active torsions:
  status: ('A' for Active; 'I' for Inactive)
    1  A    between atoms: C_3  and  C_16
    2  A    between atoms: C_3  and  S_39
    3  A    between atoms: N_4  and  C_14
    4  A    between atoms: N_4  and  C_41
    5  A    between atoms: C_14  and  C_29
    6  A    between atoms: C_18  and  C_24
    7  A    between atoms: C_18  and  C_38
    8  A    between atoms: C_22  and  C_24
    9  A    between atoms: C_22  and  S_39
   10  A    between atoms: C_23  and  C_32
   11  A    between atoms: C_32  and  C_41
                            x       y       z     vdW  Elec       q    Type
                         _______ _______ _______ _____ _____    ______ ____

>  <TORSDO>
F 11

$$$$
=
 OpenBabel11042417433D

 48 53  0  0  1  0  0  0  0  0999 V2000
  189.0650  176.0810  144.0080 N   0  0  0  0  0  2  0  0  0  0  0  0
  189.0970  173.2630  140.8920 N   0  0  0  0  0  0  0  0  0  0  0  0
  189.7910  172.1790  140.4500 C   0  0  0  0  0  0  0  0  0  0  0  0
  187.7960  175.2770  140.4980 N   0  0  0  0  0  2  0  0  0  0  0  0
  191.7170  172.7510  144.2700 C   0  0  0  0  0  0  0  0  0  0  0  0
  190.7800  173.7950  144.2420 O   0  0  0  0  0  0  0  0  0  0  0  0
  193.3290  174.0480  145.6510 N   0  0  0  0  0  1  0  0  0  0  0  0
  189.4180  172.8980  138.1990 N   0  0  0  0  0  0  0  0  0  0  0  0
  192.3210  170.5170  143.5740 N   0  0  0  0  0  0  0  0  0  0  0  0
  190.2100  175.6800  142.0150 O   0  0  0  0  0  0  0  0  0  0  0  0
  190.2730  176.0890  144.8220 C   0  0  2  0  0  3  0  0  0  0  0  0
  195.3170  171.5610  145.6400 S   0  0  0  0  0  0  0  0  0  0  0  0
  190.3240  171.2430  141.3530 C   0  0  0  0  0  0  0  0  0  0  0  0
  191.1770  169.9430  139.4870 C   0  0  0  0  0  3  0  0  0  0  0  0
  190.6670  170.8760  138.5810 C   0  0  0  0  0  0  0  0  0  0  0  0
  193.8080  171.7660  144.9380 C   0  0  0  0  0  0  0  0  0  0  0  0
  190.5800  174.6900  145.3280 C   0  0  0  0  0  2  0  0  0  0  0  0
  186.8050  176.2980  142.3300 O   0  0  0  0  0  0  0  0  0  0  0  0
  195.5010  169.9890  145.0310 C   0  0  0  0  0  3  0  0  0  0  0  0
  194.4180  169.6290  144.2960 N   0  0  0  0  0  0  0  0  0  0  0  0
  191.4340  171.5580  143.5590 C   0  0  0  0  0  0  0  0  0  0  0  0
  192.9460  172.8570  144.9690 C   0  0  0  0  0  0  0  0  0  0  0  0
  188.7220  173.9740  138.6520 C   0  0  0  0  0  3  0  0  0  0  0  0
  190.9990  170.1190  140.8590 C   0  0  0  0  0  3  0  0  0  0  0  0
  189.1020  175.8330  142.6000 C   0  0  0  0  0  0  0  0  0  0  0  0
  190.1310  171.3960  142.8340 C   0  0  0  0  0  2  0  0  0  0  0  0
  187.8490  175.8020  141.8300 C   0  0  0  0  0  0  0  0  0  0  0  0
  193.4900  170.6180  144.2490 C   0  0  0  0  0  0  0  0  0  0  0  0
  189.9580  171.9920  139.0590 C   0  0  0  0  0  0  0  0  0  0  0  0
  188.5660  174.1690  140.0250 C   0  0  0  0  0  0  0  0  0  0  0  0
  190.0790  177.0040  146.0150 C   0  0  0  0  0  2  0  0  0  0  0  0
  188.9390  176.2490  147.2120 S   0  0  0  0  0  0  0  0  0  0  0  0
  187.6490  178.4330  147.8470 F   0  0  0  0  0  0  0  0  0  0  0  0
  187.6400  177.4670  146.8600 C   0  0  2  0  0  3  0  0  0  0  0  0
  186.2880  176.7760  146.8360 C   0  0  0  0  0  2  0  0  0  0  0  0
  185.3720  177.3880  145.7820 C   0  0  0  0  0  2  0  0  0  0  0  0
  185.4680  179.7700  145.9150 F   0  0  0  0  0  0  0  0  0  0  0  0
  183.4690  178.7850  145.6260 F   0  0  0  0  0  0  0  0  0  0  0  0
  184.5030  178.6430  147.6200 F   0  0  0  0  0  0  0  0  0  0  0  0
  184.6970  178.6720  146.2510 C   0  0  0  0  0  0  0  0  0  0  0  0
  190.9330  170.6800  137.1210 C   0  0  0  0  0  2  0  0  0  0  0  0
  192.4250  170.5350  136.8380 C   0  0  0  0  0  2  0  0  0  0  0  0
  193.1420  171.7500  137.2080 N   0  0  0  0  0  2  0  0  0  0  0  0
  194.0710  171.8190  138.2980 C   0  0  0  0  0  0  0  0  0  0  0  0
  194.8820  170.8000  138.5720 C   0  0  0  0  0  2  0  0  0  0  0  0
  192.9150  173.7960  139.2490 C   0  0  0  0  0  2  0  0  0  0  0  0
  194.2520  173.1070  139.0390 C   0  0  0  0  0  3  0  0  0  0  0  0
  193.5520  173.0300  140.3850 C   0  0  0  0  0  2  0  0  0  0  0  0
  1 11  1  0  0  0  0
  3  2  1  0  0  0  0
  3 13  1  0  0  0  0
  4 27  1  0  0  0  0
  5 22  1  0  0  0  0
  6  5  1  0  0  0  0
  6 17  1  0  0  0  0
  8 23  2  0  0  0  0
  8 29  1  0  0  0  0
  9 28  2  0  0  0  0
 10 25  2  0  0  0  0
 11 17  1  0  0  0  0
 11 31  1  1  0  0  0
 13 26  1  0  0  0  0
 14 24  1  0  0  0  0
 15 29  1  0  0  0  0
 15 14  2  0  0  0  0
 16 22  2  0  0  0  0
 16 12  1  0  0  0  0
 19 12  1  0  0  0  0
 20 19  2  0  0  0  0
 21  9  1  0  0  0  0
 21  5  2  0  0  0  0
 22  7  1  0  0  0  0
 23 30  1  0  0  0  0
 24 13  2  0  0  0  0
 25  1  1  0  0  0  0
 26 21  1  0  0  0  0
 27 18  2  0  0  0  0
 27 25  1  0  0  0  0
 28 20  1  0  0  0  0
 28 16  1  0  0  0  0
 29  3  2  0  0  0  0
 30  4  1  0  0  0  0
 30  2  2  0  0  0  0
 31 32  1  0  0  0  0
 34 32  1  0  0  0  0
 34 33  1  1  0  0  0
 35 34  1  0  0  0  0
 36 40  1  0  0  0  0
 36 35  1  0  0  0  0
 37 40  1  0  0  0  0
 38 40  1  0  0  0  0
 40 39  1  0  0  0  0
 41 15  1  0  0  0  0
 42 41  1  0  0  0  0
 42 43  1  0  0  0  0
 43 44  1  0  0  0  0
 44 45  2  0  0  0  0
 44 47  1  0  0  0  0
 46 48  1  0  0  0  0
 47 46  1  0  0  0  0
 47 48  1  0  0  0  0
M  END
>  <MODEL>
6

>  <REMARK>
 VINA RESULT:      -6.9      2.575      6.023
  Name = 
  11 active torsions:
  status: ('A' for Active; 'I' for Inactive)
    1  A    between atoms: C_3  and  C_16
    2  A    between atoms: C_3  and  S_39
    3  A    between atoms: N_4  and  C_14
    4  A    between atoms: N_4  and  C_41
    5  A    between atoms: C_14  and  C_29
    6  A    between atoms: C_18  and  C_24
    7  A    between atoms: C_18  and  C_38
    8  A    between atoms: C_22  and  C_24
    9  A    between atoms: C_22  and  S_39
   10  A    between atoms: C_23  and  C_32
   11  A    between atoms: C_32  and  C_41
                            x       y       z     vdW  Elec       q    Type
                         _______ _______ _______ _____ _____    ______ ____

>  <TORSDO>
F 11

$$$$
=
 OpenBabel11042417433D

 48 53  0  0  1  0  0  0  0  0999 V2000
  185.9440  177.9160  141.3230 N   0  0  0  0  0  2  0  0  0  0  0  0
  187.8160  174.8150  139.1940 N   0  0  0  0  0  0  0  0  0  0  0  0
  188.8610  173.9480  139.2830 C   0  0  0  0  0  0  0  0  0  0  0  0
  186.3230  176.2420  137.9130 N   0  0  0  0  0  2  0  0  0  0  0  0
  189.0080  175.6560  143.2440 C   0  0  0  0  0  0  0  0  0  0  0  0
  187.9330  176.3390  142.6580 O   0  0  0  0  0  0  0  0  0  0  0  0
  189.6230  177.5810  144.6940 N   0  0  0  0  0  1  0  0  0  0  0  0
  189.2050  174.1700  136.9260 N   0  0  0  0  0  0  0  0  0  0  0  0
  190.3410  173.6420  143.3620 N   0  0  0  0  0  0  0  0  0  0  0  0
  187.8160  177.5980  139.9670 O   0  0  0  0  0  0  0  0  0  0  0  0
  186.7170  178.4210  142.4490 C   0  0  2  0  0  3  0  0  0  0  0  0
  191.9960  175.8630  145.9430 S   0  0  0  0  0  0  0  0  0  0  0  0
  189.2190  173.3700  140.5130 C   0  0  0  0  0  0  0  0  0  0  0  0
  190.9940  172.1360  139.4070 C   0  0  0  0  0  3  0  0  0  0  0  0
  190.6590  172.7180  138.1810 C   0  0  0  0  0  0  0  0  0  0  0  0
  190.8620  175.4810  144.7690 C   0  0  0  0  0  0  0  0  0  0  0  0
  187.1320  177.2800  143.3620 C   0  0  0  0  0  2  0  0  0  0  0  0
  184.5020  177.1660  139.0150 O   0  0  0  0  0  0  0  0  0  0  0  0
  192.7630  174.3550  145.8400 C   0  0  0  0  0  3  0  0  0  0  0  0
  192.1560  173.5690  144.9130 N   0  0  0  0  0  0  0  0  0  0  0  0
  189.3060  174.3420  142.8040 C   0  0  0  0  0  0  0  0  0  0  0  0
  189.8200  176.2420  144.2480 C   0  0  0  0  0  0  0  0  0  0  0  0
  188.1570  175.0300  136.8480 C   0  0  0  0  0  3  0  0  0  0  0  0
  190.2760  172.4520  140.5590 C   0  0  0  0  0  3  0  0  0  0  0  0
  186.5670  177.4840  140.1100 C   0  0  0  0  0  0  0  0  0  0  0  0
  188.4510  173.6750  141.7670 C   0  0  0  0  0  2  0  0  0  0  0  0
  185.7430  176.9500  139.0150 C   0  0  0  0  0  0  0  0  0  0  0  0
  191.1090  174.2020  144.3260 C   0  0  0  0  0  0  0  0  0  0  0  0
  189.5790  173.6160  138.1120 C   0  0  0  0  0  0  0  0  0  0  0  0
  187.4530  175.3710  138.0040 C   0  0  0  0  0  0  0  0  0  0  0  0
  185.8770  179.3970  143.2480 C   0  0  0  0  0  2  0  0  0  0  0  0
  184.3590  178.5900  143.8390 S   0  0  0  0  0  0  0  0  0  0  0  0
  185.8410  179.7900  145.6290 F   0  0  0  0  0  0  0  0  0  0  0  0
  184.5810  179.2320  145.5220 C   0  0  2  0  0  3  0  0  0  0  0  0
  184.4410  178.0980  146.5220 C   0  0  0  0  0  2  0  0  0  0  0  0
  185.3460  176.9260  146.1610 C   0  0  0  0  0  2  0  0  0  0  0  0
  187.2050  178.0210  147.1860 F   0  0  0  0  0  0  0  0  0  0  0  0
  186.1300  176.4160  148.3340 F   0  0  0  0  0  0  0  0  0  0  0  0
  187.4380  175.8530  146.5910 F   0  0  0  0  0  0  0  0  0  0  0  0
  186.5580  176.8030  147.0780 C   0  0  0  0  0  0  0  0  0  0  0  0
  191.4940  172.3990  136.9810 C   0  0  0  0  0  2  0  0  0  0  0  0
  192.6040  173.4260  136.7820 C   0  0  0  0  0  2  0  0  0  0  0  0
  193.9060  172.8480  137.1010 N   0  0  0  0  0  2  0  0  0  0  0  0
  194.4280  172.7620  138.4340 C   0  0  0  0  0  0  0  0  0  0  0  0
  194.6830  171.5810  138.9920 C   0  0  0  0  0  2  0  0  0  0  0  0
  193.7060  174.5450  139.9990 C   0  0  0  0  0  2  0  0  0  0  0  0
  194.8460  174.0070  139.1500 C   0  0  0  0  0  3  0  0  0  0  0  0
  194.8270  173.7690  140.6510 C   0  0  0  0  0  2  0  0  0  0  0  0
  1 11  1  0  0  0  0
  2  3  1  0  0  0  0
  3 13  1  0  0  0  0
  4 30  1  0  0  0  0
  4 27  1  0  0  0  0
  5 22  1  0  0  0  0
  6  5  1  0  0  0  0
  6 17  1  0  0  0  0
  8 29  1  0  0  0  0
  9 28  2  0  0  0  0
 10 25  2  0  0  0  0
 11 31  1  1  0  0  0
 11 17  1  0  0  0  0
 13 24  2  0  0  0  0
 13 26  1  0  0  0  0
 14 24  1  0  0  0  0
 15 14  2  0  0  0  0
 16 12  1  0  0  0  0
 18 27  2  0  0  0  0
 19 12  1  0  0  0  0
 20 19  2  0  0  0  0
 21  5  2  0  0  0  0
 21  9  1  0  0  0  0
 22  7  1  0  0  0  0
 22 16  2  0  0  0  0
 23  8  2  0  0  0  0
 23 30  1  0  0  0  0
 25  1  1  0  0  0  0
 26 21  1  0  0  0  0
 27 25  1  0  0  0  0
 28 16  1  0  0  0  0
 28 20  1  0  0  0  0
 29 15  1  0  0  0  0
 29  3  2  0  0  0  0
 30  2  2  0  0  0  0
 31 32  1  0  0  0  0
 32 34  1  0  0  0  0
 34 33  1  6  0  0  0
 34 35  1  0  0  0  0
 36 35  1  0  0  0  0
 36 40  1  0  0  0  0
 39 40  1  0  0  0  0
 40 37  1  0  0  0  0
 40 38  1  0  0  0  0
 41 15  1  0  0  0  0
 42 41  1  0  0  0  0
 42 43  1  0  0  0  0
 43 44  1  0  0  0  0
 44 45  2  0  0  0  0
 44 47  1  0  0  0  0
 46 48  1  0  0  0  0
 47 46  1  0  0  0  0
 47 48  1  0  0  0  0
M  END
>  <MODEL>
7

>  <REMARK>
 VINA RESULT:      -6.8      3.183      6.656
  Name = 
  11 active torsions:
  status: ('A' for Active; 'I' for Inactive)
    1  A    between atoms: C_3  and  C_16
    2  A    between atoms: C_3  and  S_39
    3  A    between atoms: N_4  and  C_14
    4  A    between atoms: N_4  and  C_41
    5  A    between atoms: C_14  and  C_29
    6  A    between atoms: C_18  and  C_24
    7  A    between atoms: C_18  and  C_38
    8  A    between atoms: C_22  and  C_24
    9  A    between atoms: C_22  and  S_39
   10  A    between atoms: C_23  and  C_32
   11  A    between atoms: C_32  and  C_41
                            x       y       z     vdW  Elec       q    Type
                         _______ _______ _______ _____ _____    ______ ____

>  <TORSDO>
F 11

$$$$
=
 OpenBabel11042417433D

 48 53  0  0  1  0  0  0  0  0999 V2000
  190.9550  170.9760  140.0950 N   0  0  0  0  0  2  0  0  0  0  0  0
  189.9260  174.6880  141.7720 N   0  0  0  0  0  0  0  0  0  0  0  0
  190.3450  175.5800  142.7110 C   0  0  0  0  0  0  0  0  0  0  0  0
  188.1720  173.5530  140.5310 N   0  0  0  0  0  2  0  0  0  0  0  0
  193.6980  172.8620  142.7600 C   0  0  0  0  0  0  0  0  0  0  0  0
  192.8500  172.2820  141.8070 O   0  0  0  0  0  0  0  0  0  0  0  0
  194.6300  170.6690  143.4730 N   0  0  0  0  0  1  0  0  0  0  0  0
  188.0600  176.0470  143.2410 N   0  0  0  0  0  0  0  0  0  0  0  0
  194.4800  174.8680  143.8610 N   0  0  0  0  0  0  0  0  0  0  0  0
  189.9210  171.8100  142.0120 O   0  0  0  0  0  0  0  0  0  0  0  0
  191.9740  170.2450  140.8350 C   0  0  2  0  0  3  0  0  0  0  0  0
  196.5160  172.1640  145.5580 S   0  0  0  0  0  0  0  0  0  0  0  0
  191.7140  175.8230  142.9190 C   0  0  0  0  0  0  0  0  0  0  0  0
  191.1550  177.4570  144.6270 C   0  0  0  0  0  3  0  0  0  0  0  0
  189.7920  177.2100  144.4420 C   0  0  0  0  0  0  0  0  0  0  0  0
  195.3840  172.7610  144.4740 C   0  0  0  0  0  0  0  0  0  0  0  0
  193.1950  171.1200  141.0630 C   0  0  0  0  0  2  0  0  0  0  0  0
  188.8060  172.2140  138.7460 O   0  0  0  0  0  0  0  0  0  0  0  0
  196.8960  173.7000  146.1670 C   0  0  0  0  0  3  0  0  0  0  0  0
  196.1600  174.6590  145.5460 N   0  0  0  0  0  0  0  0  0  0  0  0
  193.6570  174.2670  142.9480 C   0  0  0  0  0  0  0  0  0  0  0  0
  194.5810  172.0910  143.5570 C   0  0  0  0  0  0  0  0  0  0  0  0
  187.6530  175.1590  142.2970 C   0  0  0  0  0  3  0  0  0  0  0  0
  192.1060  176.7770  143.8670 C   0  0  0  0  0  3  0  0  0  0  0  0
  189.9690  171.7770  140.7520 C   0  0  0  0  0  0  0  0  0  0  0  0
  192.7600  175.1210  142.1020 C   0  0  0  0  0  2  0  0  0  0  0  0
  188.9830  172.5230  139.9540 C   0  0  0  0  0  0  0  0  0  0  0  0
  195.3270  174.1280  144.6160 C   0  0  0  0  0  0  0  0  0  0  0  0
  189.3810  176.2800  143.4700 C   0  0  0  0  0  0  0  0  0  0  0  0
  188.6020  174.4550  141.5550 C   0  0  0  0  0  0  0  0  0  0  0  0
  192.3970  169.0200  140.0490 C   0  0  0  0  0  2  0  0  0  0  0  0
  191.0870  168.5310  138.8880 S   0  0  0  0  0  0  0  0  0  0  0  0
  193.0990  169.6650  137.6630 F   0  0  0  0  0  0  0  0  0  0  0  0
  192.2070  168.6290  137.4630 C   0  0  2  0  0  3  0  0  0  0  0  0
  191.4030  168.8870  136.2010 C   0  0  0  0  0  2  0  0  0  0  0  0
  190.3200  169.9330  136.4370 C   0  0  0  0  0  2  0  0  0  0  0  0
  191.3710  172.0170  136.9450 F   0  0  0  0  0  0  0  0  0  0  0  0
  191.5670  171.1860  134.8660 F   0  0  0  0  0  0  0  0  0  0  0  0
  189.5950  172.0280  135.5460 F   0  0  0  0  0  0  0  0  0  0  0  0
  190.7150  171.3210  135.9450 C   0  0  0  0  0  0  0  0  0  0  0  0
  188.8080  177.9170  145.3200 C   0  0  0  0  0  2  0  0  0  0  0  0
  188.5380  177.1340  146.6010 C   0  0  0  0  0  2  0  0  0  0  0  0
  187.2800  177.5540  147.2080 N   0  0  0  0  0  2  0  0  0  0  0  0
  186.0650  177.7340  146.4680 C   0  0  0  0  0  0  0  0  0  0  0  0
  185.2670  176.7030  146.2020 C   0  0  0  0  0  2  0  0  0  0  0  0
  185.6430  179.3390  144.6250 C   0  0  0  0  0  2  0  0  0  0  0  0
  185.6010  179.1150  146.1270 C   0  0  0  0  0  3  0  0  0  0  0  0
  184.3260  179.0420  145.3040 C   0  0  0  0  0  2  0  0  0  0  0  0
  1 25  1  0  0  0  0
  1 11  1  0  0  0  0
  2  3  1  0  0  0  0
  3 13  2  0  0  0  0
  3 29  1  0  0  0  0
  4 30  1  0  0  0  0
  5 21  2  0  0  0  0
  5 22  1  0  0  0  0
  6  5  1  0  0  0  0
  7 22  1  0  0  0  0
  8 29  1  0  0  0  0
  9 28  2  0  0  0  0
 11 31  1  6  0  0  0
 11 17  1  0  0  0  0
 12 19  1  0  0  0  0
 13 24  1  0  0  0  0
 15 14  1  0  0  0  0
 15 41  1  0  0  0  0
 16 28  1  0  0  0  0
 16 12  1  0  0  0  0
 17  6  1  0  0  0  0
 18 27  2  0  0  0  0
 20 19  2  0  0  0  0
 21  9  1  0  0  0  0
 22 16  2  0  0  0  0
 23  8  2  0  0  0  0
 24 14  2  0  0  0  0
 25 10  2  0  0  0  0
 26 13  1  0  0  0  0
 26 21  1  0  0  0  0
 27  4  1  0  0  0  0
 27 25  1  0  0  0  0
 28 20  1  0  0  0  0
 29 15  2  0  0  0  0
 30  2  2  0  0  0  0
 30 23  1  0  0  0  0
 32 31  1  0  0  0  0
 34 33  1  1  0  0  0
 34 32  1  0  0  0  0
 35 36  1  0  0  0  0
 35 34  1  0  0  0  0
 38 40  1  0  0  0  0
 39 40  1  0  0  0  0
 40 36  1  0  0  0  0
 40 37  1  0  0  0  0
 41 42  1  0  0  0  0
 42 43  1  0  0  0  0
 44 43  1  0  0  0  0
 45 44  2  0  0  0  0
 46 48  1  0  0  0  0
 46 47  1  0  0  0  0
 47 44  1  0  0  0  0
 48 47  1  0  0  0  0
M  END
>  <MODEL>
8

>  <REMARK>
 VINA RESULT:      -6.7      4.574      8.998
  Name = 
  11 active torsions:
  status: ('A' for Active; 'I' for Inactive)
    1  A    between atoms: C_3  and  C_16
    2  A    between atoms: C_3  and  S_39
    3  A    between atoms: N_4  and  C_14
    4  A    between atoms: N_4  and  C_41
    5  A    between atoms: C_14  and  C_29
    6  A    between atoms: C_18  and  C_24
    7  A    between atoms: C_18  and  C_38
    8  A    between atoms: C_22  and  C_24
    9  A    between atoms: C_22  and  S_39
   10  A    between atoms: C_23  and  C_32
   11  A    between atoms: C_32  and  C_41
                            x       y       z     vdW  Elec       q    Type
                         _______ _______ _______ _____ _____    ______ ____

>  <TORSDO>
F 11

$$$$
=
 OpenBabel11042417433D

 48 53  0  0  1  0  0  0  0  0999 V2000
  189.5490  172.2100  138.8240 N   0  0  0  0  0  2  0  0  0  0  0  0
  189.3040  175.3180  141.6400 N   0  0  0  0  0  0  0  0  0  0  0  0
  189.7470  175.6630  142.8790 C   0  0  0  0  0  0  0  0  0  0  0  0
  187.6130  175.3220  139.8940 N   0  0  0  0  0  2  0  0  0  0  0  0
  192.0660  172.0750  142.2640 C   0  0  0  0  0  0  0  0  0  0  0  0
  191.3160  172.1590  141.0820 O   0  0  0  0  0  0  0  0  0  0  0  0
  192.1370  169.5900  142.2080 N   0  0  0  0  0  1  0  0  0  0  0  0
  187.6390  176.7100  143.3070 N   0  0  0  0  0  0  0  0  0  0  0  0
  193.1350  173.2240  144.1020 N   0  0  0  0  0  0  0  0  0  0  0  0
  188.4070  172.7060  140.7970 O   0  0  0  0  0  0  0  0  0  0  0  0
  190.1210  170.9750  139.3430 C   0  0  2  0  0  3  0  0  0  0  0  0
  193.8700  169.5920  144.8790 S   0  0  0  0  0  0  0  0  0  0  0  0
  191.0470  175.3320  143.3020 C   0  0  0  0  0  0  0  0  0  0  0  0
  190.6270  176.4340  145.4250 C   0  0  0  0  0  3  0  0  0  0  0  0
  189.3270  176.7520  145.0230 C   0  0  0  0  0  0  0  0  0  0  0  0
  193.2290  170.8560  143.9830 C   0  0  0  0  0  0  0  0  0  0  0  0
  191.4620  171.2470  140.0010 C   0  0  0  0  0  2  0  0  0  0  0  0
  188.2050  174.4780  137.8160 O   0  0  0  0  0  0  0  0  0  0  0  0
  194.5370  170.6230  146.0480 C   0  0  0  0  0  3  0  0  0  0  0  0
  194.2680  171.9220  145.7540 N   0  0  0  0  0  0  0  0  0  0  0  0
  192.3950  173.2700  142.9520 C   0  0  0  0  0  0  0  0  0  0  0  0
  192.4870  170.8340  142.8060 C   0  0  0  0  0  0  0  0  0  0  0  0
  187.2090  176.3650  142.0650 C   0  0  0  0  0  3  0  0  0  0  0  0
  191.4810  175.7390  144.5700 C   0  0  0  0  0  3  0  0  0  0  0  0
  188.7200  173.0550  139.6260 C   0  0  0  0  0  0  0  0  0  0  0  0
  191.9950  174.6030  142.3950 C   0  0  0  0  0  2  0  0  0  0  0  0
  188.1940  174.3100  139.0640 C   0  0  0  0  0  0  0  0  0  0  0  0
  193.5430  172.0380  144.6130 C   0  0  0  0  0  0  0  0  0  0  0  0
  188.8870  176.3810  143.7400 C   0  0  0  0  0  0  0  0  0  0  0  0
  188.0510  175.6450  141.2170 C   0  0  0  0  0  0  0  0  0  0  0  0
  190.3300  169.9930  138.2070 C   0  0  0  0  0  2  0  0  0  0  0  0
  189.7510  170.7060  136.6390 S   0  0  0  0  0  0  0  0  0  0  0  0
  192.3290  170.3900  136.9440 F   0  0  0  0  0  0  0  0  0  0  0  0
  191.4440  170.8950  136.0110 C   0  0  2  0  0  3  0  0  0  0  0  0
  191.7380  172.3660  135.7760 C   0  0  0  0  0  2  0  0  0  0  0  0
  192.7200  172.9080  136.8080 C   0  0  0  0  0  2  0  0  0  0  0  0
  193.2770  175.2120  137.1020 F   0  0  0  0  0  0  0  0  0  0  0  0
  191.1260  174.6550  136.7680 F   0  0  0  0  0  0  0  0  0  0  0  0
  192.1060  174.1780  138.7370 F   0  0  0  0  0  0  0  0  0  0  0  0
  192.3060  174.2640  137.3710 C   0  0  0  0  0  0  0  0  0  0  0  0
  188.4230  177.4450  145.9950 C   0  0  0  0  0  2  0  0  0  0  0  0
  187.6830  176.4470  146.8800 C   0  0  0  0  0  2  0  0  0  0  0  0
  186.2670  176.7850  146.9670 N   0  0  0  0  0  2  0  0  0  0  0  0
  185.7820  178.1210  147.1540 C   0  0  0  0  0  0  0  0  0  0  0  0
  186.3470  178.9350  148.0430 C   0  0  0  0  0  2  0  0  0  0  0  0
  185.3830  179.3970  145.0660 C   0  0  0  0  0  2  0  0  0  0  0  0
  184.7380  178.6690  146.2330 C   0  0  0  0  0  3  0  0  0  0  0  0
  184.8470  177.9980  144.8740 C   0  0  0  0  0  2  0  0  0  0  0  0
  1 11  1  0  0  0  0
  1 25  1  0  0  0  0
  2  3  1  0  0  0  0
  3 13  2  0  0  0  0
  3 29  1  0  0  0  0
  4 30  1  0  0  0  0
  5 22  1  0  0  0  0
  5 21  2  0  0  0  0
  6  5  1  0  0  0  0
  7 22  1  0  0  0  0
  8 29  1  0  0  0  0
  9 28  2  0  0  0  0
 11 31  1  6  0  0  0
 11 17  1  0  0  0  0
 12 19  1  0  0  0  0
 13 24  1  0  0  0  0
 15 14  1  0  0  0  0
 15 41  1  0  0  0  0
 16 28  1  0  0  0  0
 16 12  1  0  0  0  0
 17  6  1  0  0  0  0
 18 27  2  0  0  0  0
 20 19  2  0  0  0  0
 21  9  1  0  0  0  0
 22 16  2  0  0  0  0
 23  8  2  0  0  0  0
 24 14  2  0  0  0  0
 25 10  2  0  0  0  0
 26 21  1  0  0  0  0
 26 13  1  0  0  0  0
 27 25  1  0  0  0  0
 27  4  1  0  0  0  0
 28 20  1  0  0  0  0
 29 15  2  0  0  0  0
 30  2  2  0  0  0  0
 30 23  1  0  0  0  0
 32 31  1  0  0  0  0
 34 32  1  0  0  0  0
 34 33  1  1  0  0  0
 35 34  1  0  0  0  0
 35 36  1  0  0  0  0
 36 40  1  0  0  0  0
 37 40  1  0  0  0  0
 38 40  1  0  0  0  0
 40 39  1  0  0  0  0
 41 42  1  0  0  0  0
 42 43  1  0  0  0  0
 43 44  1  0  0  0  0
 44 45  2  0  0  0  0
 46 47  1  0  0  0  0
 47 44  1  0  0  0  0
 48 46  1  0  0  0  0
 48 47  1  0  0  0  0
M  END
>  <MODEL>
9

>  <REMARK>
 VINA RESULT:      -6.7      4.335      8.544
  Name = 
  11 active torsions:
  status: ('A' for Active; 'I' for Inactive)
    1  A    between atoms: C_3  and  C_16
    2  A    between atoms: C_3  and  S_39
    3  A    between atoms: N_4  and  C_14
    4  A    between atoms: N_4  and  C_41
    5  A    between atoms: C_14  and  C_29
    6  A    between atoms: C_18  and  C_24
    7  A    between atoms: C_18  and  C_38
    8  A    between atoms: C_22  and  C_24
    9  A    between atoms: C_22  and  S_39
   10  A    between atoms: C_23  and  C_32
   11  A    between atoms: C_32  and  C_41
                            x       y       z     vdW  Elec       q    Type
                         _______ _______ _______ _____ _____    ______ ____

>  <TORSDO>
F 11

$$$$
