=
 OpenBabel11042414173D

 45 50  0  0  1  0  0  0  0  0999 V2000
  194.0530  175.7520  146.0020 C   0  0  0  0  0  2  0  0  0  0  0  0
  193.7300  176.1970  143.5640 C   0  0  0  0  0  2  0  0  0  0  0  0
  194.6440  176.4330  144.7640 C   0  0  2  0  0  3  0  0  0  0  0  0
  190.3210  177.7270  143.1680 C   0  0  0  0  0  0  0  0  0  0  0  0
  189.7680  177.6900  144.4850 N   0  0  0  0  0  2  0  0  0  0  0  0
  192.3470  176.6820  143.8730 C   0  0  0  0  0  0  0  0  0  0  0  0
  192.6410  176.2020  146.2560 C   0  0  0  0  0  3  0  0  0  0  0  0
  191.6250  177.1920  142.9240 N   0  0  0  0  0  0  0  0  0  0  0  0
  189.6720  178.2510  142.2280 O   0  0  0  0  0  0  0  0  0  0  0  0
  190.3970  176.9370  145.5700 C   0  0  2  0  0  3  0  0  0  0  0  0
  191.8320  176.5920  145.2640 C   0  0  0  0  0  0  0  0  0  0  0  0
  196.0290  175.8860  144.4590 C   0  0  0  0  0  2  0  0  0  0  0  0
  195.9810  171.6630  143.4520 C   0  0  0  0  0  2  0  0  0  0  0  0
  195.2190  170.3550  143.6340 C   0  0  0  0  0  2  0  0  0  0  0  0
  196.5130  172.0940  144.7410 N   0  0  0  0  0  0  0  0  0  0  0  0
  195.9680  174.4540  144.2040 N   0  0  0  0  0  2  0  0  0  0  0  0
  196.5610  173.4860  145.0760 C   0  0  0  0  0  0  0  0  0  0  0  0
  197.1880  168.8100  146.3240 N   0  0  0  0  0  1  0  0  0  0  0  0
  195.3180  168.2400  144.4030 O   0  0  0  0  0  1  0  0  0  0  0  0
  197.1110  173.8590  146.1490 O   0  0  0  0  0  0  0  0  0  0  0  0
  196.4030  169.8200  145.6290 C   0  0  1  0  0  3  0  0  0  0  0  0
  197.2140  171.1130  145.5630 C   0  0  0  0  0  2  0  0  0  0  0  0
  196.0740  169.3570  144.2750 N   0  0  0  0  0  0  0  0  0  0  0  0
  189.5790  175.6890  145.9340 C   0  0  1  0  0  3  0  0  0  0  0  0
  190.4150  174.5810  146.1060 O   0  0  0  0  0  0  0  0  0  0  0  0
  189.7510  173.5290  145.4700 C   0  0  0  0  0  2  0  0  0  0  0  0
  190.4300  173.2080  144.1510 C   0  0  2  0  0  3  0  0  0  0  0  0
  189.5550  174.0120  142.7840 S   0  0  0  0  0  0  0  0  0  0  0  0
  190.5500  171.5700  142.5490 N   0  0  0  0  0  2  0  0  0  0  0  0
  190.4030  171.7720  143.9310 N   0  0  0  0  0  2  0  0  0  0  0  0
  189.5840  172.4380  141.8980 C   0  0  0  0  0  2  0  0  0  0  0  0
  188.6590  175.8790  147.1440 C   0  0  0  0  0  2  0  0  0  0  0  0
  185.8230  179.0840  147.2810 N   0  0  0  0  0  2  0  0  0  0  0  0
  184.5960  178.4790  146.7890 C   0  0  2  0  0  3  0  0  0  0  0  0
  187.2590  175.8620  146.7460 N   0  0  0  0  0  2  0  0  0  0  0  0
  184.9910  177.0320  146.4740 C   0  0  0  0  0  2  0  0  0  0  0  0
  186.8570  178.1500  147.2890 N   0  0  0  0  0  0  0  0  0  0  0  0
  186.4300  177.0190  146.8510 C   0  0  0  0  0  0  0  0  0  0  0  0
  184.1520  179.1900  145.5200 C   0  0  0  0  0  2  0  0  0  0  0  0
  185.5430  177.6210  142.0510 N   0  0  0  0  0  2  0  0  0  0  0  0
  184.6650  178.4980  144.3490 N   0  0  0  0  0  0  0  0  0  0  0  0
  184.1170  177.9490  142.0000 C   0  0  0  0  0  2  0  0  0  0  0  0
  183.6250  178.5640  143.3200 C   0  0  0  0  0  2  0  0  0  0  0  0
  185.8320  179.2540  143.8890 C   0  0  0  0  0  2  0  0  0  0  0  0
  186.2900  178.7980  142.4940 C   0  0  0  0  0  2  0  0  0  0  0  0
  1  7  1  0  0  0  0
  2  6  1  0  0  0  0
  2  3  1  0  0  0  0
  3 12  1  6  0  0  0
  3  1  1  0  0  0  0
  4  5  1  0  0  0  0
  5 10  1  0  0  0  0
  6 11  1  0  0  0  0
  8  4  1  0  0  0  0
  8  6  2  0  0  0  0
  9  4  2  0  0  0  0
 10 24  1  6  0  0  0
 11 10  1  0  0  0  0
 11  7  2  0  0  0  0
 13 14  1  0  0  0  0
 13 15  1  0  0  0  0
 14 23  1  0  0  0  0
 15 17  1  0  0  0  0
 15 22  1  0  0  0  0
 16 12  1  0  0  0  0
 16 17  1  0  0  0  0
 17 20  2  0  0  0  0
 21 18  1  6  0  0  0
 22 21  1  0  0  0  0
 23 19  1  0  0  0  0
 23 21  1  0  0  0  0
 24 25  1  0  0  0  0
 24 32  1  1  0  0  0
 26 25  1  0  0  0  0
 27 26  1  1  0  0  0
 28 27  1  0  0  0  0
 29 30  1  0  0  0  0
 30 27  1  0  0  0  0
 31 29  1  0  0  0  0
 31 28  1  0  0  0  0
 33 37  1  0  0  0  0
 34 39  1  6  0  0  0
 34 33  1  0  0  0  0
 35 38  1  0  0  0  0
 35 32  1  0  0  0  0
 36 34  1  0  0  0  0
 36 38  1  0  0  0  0
 38 37  2  0  0  0  0
 40 45  1  0  0  0  0
 41 39  1  0  0  0  0
 42 40  1  0  0  0  0
 42 43  1  0  0  0  0
 43 41  1  0  0  0  0
 44 41  1  0  0  0  0
 45 44  1  0  0  0  0
M  END
>  <MODEL>
1

>  <REMARK>
 VINA RESULT:      -8.2      0.000      0.000
  Name = 
  10 active torsions:
  status: ('A' for Active; 'I' for Inactive)
    1  A    between atoms: C_5  and  C_40
    2  A    between atoms: C_7  and  C_21
    3  A    between atoms: N_10  and  C_21
    4  A    between atoms: C_13  and  N_17
    5  A    between atoms: C_13  and  C_26
    6  A    between atoms: C_22  and  C_44
    7  A    between atoms: O_25  and  C_40
    8  A    between atoms: O_25  and  C_44
    9  A    between atoms: N_27  and  C_32
   10  A    between atoms: C_32  and  C_44
                            x       y       z     vdW  Elec       q    Type
                         _______ _______ _______ _____ _____    ______ ____

>  <TORSDO>
F 10

$$$$
=
 OpenBabel11042414173D

 45 50  0  0  1  0  0  0  0  0999 V2000
  194.0460  175.8610  146.0540 C   0  0  0  0  0  2  0  0  0  0  0  0
  193.8070  176.3780  143.6210 C   0  0  0  0  0  2  0  0  0  0  0  0
  194.6510  176.6190  144.8700 C   0  0  2  0  0  3  0  0  0  0  0  0
  190.3380  177.7320  143.1210 C   0  0  0  0  0  0  0  0  0  0  0  0
  189.7290  177.6150  144.4090 N   0  0  0  0  0  2  0  0  0  0  0  0
  192.3860  176.7740  143.8820 C   0  0  0  0  0  0  0  0  0  0  0  0
  192.6000  176.2220  146.2580 C   0  0  0  0  0  3  0  0  0  0  0  0
  191.6790  177.2790  142.9190 N   0  0  0  0  0  0  0  0  0  0  0  0
  189.7020  178.2550  142.1700 O   0  0  0  0  0  0  0  0  0  0  0  0
  190.3510  176.8580  145.4950 C   0  0  2  0  0  3  0  0  0  0  0  0
  191.8150  176.6040  145.2440 C   0  0  0  0  0  0  0  0  0  0  0  0
  196.0770  176.1610  144.6100 C   0  0  0  0  0  2  0  0  0  0  0  0
  196.8540  175.6300  140.3710 C   0  0  0  0  0  2  0  0  0  0  0  0
  196.2780  175.0950  139.0640 C   0  0  0  0  0  2  0  0  0  0  0  0
  197.0720  174.5190  141.2920 N   0  0  0  0  0  0  0  0  0  0  0  0
  196.2810  175.9060  143.1910 N   0  0  0  0  0  2  0  0  0  0  0  0
  196.8470  174.6880  142.6970 C   0  0  0  0  0  0  0  0  0  0  0  0
  197.9400  171.8230  138.9010 N   0  0  0  0  0  1  0  0  0  0  0  0
  196.5560  173.6310  137.3760 O   0  0  0  0  0  1  0  0  0  0  0  0
  197.1310  173.7550  143.4980 O   0  0  0  0  0  0  0  0  0  0  0  0
  197.1500  172.9140  139.4510 C   0  0  1  0  0  3  0  0  0  0  0  0
  197.7540  173.3300  140.7910 C   0  0  0  0  0  2  0  0  0  0  0  0
  197.1450  174.0490  138.5220 N   0  0  0  0  0  0  0  0  0  0  0  0
  189.5890  175.5540  145.7760 C   0  0  1  0  0  3  0  0  0  0  0  0
  190.4620  174.4610  145.7780 O   0  0  0  0  0  0  0  0  0  0  0  0
  189.6680  173.3680  145.4200 C   0  0  0  0  0  2  0  0  0  0  0  0
  190.1910  172.7430  144.1390 C   0  0  2  0  0  3  0  0  0  0  0  0
  191.9760  173.0150  143.9920 S   0  0  0  0  0  0  0  0  0  0  0  0
  190.3730  173.1500  141.8900 N   0  0  0  0  0  2  0  0  0  0  0  0
  189.5370  173.3600  142.9980 N   0  0  0  0  0  2  0  0  0  0  0  0
  191.7070  173.5630  142.2910 C   0  0  0  0  0  2  0  0  0  0  0  0
  188.7470  175.5880  147.0550 C   0  0  0  0  0  2  0  0  0  0  0  0
  186.2590  179.0640  147.3100 N   0  0  0  0  0  2  0  0  0  0  0  0
  184.9490  178.5790  146.9070 C   0  0  2  0  0  3  0  0  0  0  0  0
  187.3290  175.7080  146.7470 N   0  0  0  0  0  2  0  0  0  0  0  0
  185.1770  177.0960  146.5960 C   0  0  0  0  0  2  0  0  0  0  0  0
  187.1940  178.0320  147.2700 N   0  0  0  0  0  0  0  0  0  0  0  0
  186.6290  176.9440  146.8820 C   0  0  0  0  0  0  0  0  0  0  0  0
  184.4970  179.3160  145.6570 C   0  0  0  0  0  2  0  0  0  0  0  0
  185.5020  177.5790  142.1340 N   0  0  0  0  0  2  0  0  0  0  0  0
  184.8680  178.5650  144.4680 N   0  0  0  0  0  0  0  0  0  0  0  0
  184.1020  178.0080  142.1830 C   0  0  0  0  0  2  0  0  0  0  0  0
  183.7590  178.6840  143.5190 C   0  0  0  0  0  2  0  0  0  0  0  0
  186.0450  179.2250  143.9010 C   0  0  0  0  0  2  0  0  0  0  0  0
  186.3610  178.7090  142.4880 C   0  0  0  0  0  2  0  0  0  0  0  0
  1  7  1  0  0  0  0
  2  6  1  0  0  0  0
  2  3  1  0  0  0  0
  3 12  1  6  0  0  0
  3  1  1  0  0  0  0
  4  5  1  0  0  0  0
  5 10  1  0  0  0  0
  6 11  1  0  0  0  0
  8  4  1  0  0  0  0
  8  6  2  0  0  0  0
  9  4  2  0  0  0  0
 10 24  1  6  0  0  0
 11 10  1  0  0  0  0
 11  7  2  0  0  0  0
 13 15  1  0  0  0  0
 14 13  1  0  0  0  0
 15 17  1  0  0  0  0
 16 12  1  0  0  0  0
 17 16  1  0  0  0  0
 17 20  2  0  0  0  0
 19 23  1  0  0  0  0
 21 18  1  6  0  0  0
 21 22  1  0  0  0  0
 22 15  1  0  0  0  0
 23 14  1  0  0  0  0
 23 21  1  0  0  0  0
 24 25  1  0  0  0  0
 24 32  1  1  0  0  0
 26 25  1  0  0  0  0
 27 26  1  1  0  0  0
 28 27  1  0  0  0  0
 29 31  1  0  0  0  0
 29 30  1  0  0  0  0
 30 27  1  0  0  0  0
 31 28  1  0  0  0  0
 34 39  1  6  0  0  0
 34 33  1  0  0  0  0
 35 38  1  0  0  0  0
 35 32  1  0  0  0  0
 36 38  1  0  0  0  0
 36 34  1  0  0  0  0
 37 33  1  0  0  0  0
 38 37  2  0  0  0  0
 40 42  1  0  0  0  0
 40 45  1  0  0  0  0
 41 39  1  0  0  0  0
 42 43  1  0  0  0  0
 43 41  1  0  0  0  0
 44 41  1  0  0  0  0
 45 44  1  0  0  0  0
M  END
>  <MODEL>
2

>  <REMARK>
 VINA RESULT:      -7.7      2.461      3.005
  Name = 
  10 active torsions:
  status: ('A' for Active; 'I' for Inactive)
    1  A    between atoms: C_5  and  C_40
    2  A    between atoms: C_7  and  C_21
    3  A    between atoms: N_10  and  C_21
    4  A    between atoms: C_13  and  N_17
    5  A    between atoms: C_13  and  C_26
    6  A    between atoms: C_22  and  C_44
    7  A    between atoms: O_25  and  C_40
    8  A    between atoms: O_25  and  C_44
    9  A    between atoms: N_27  and  C_32
   10  A    between atoms: C_32  and  C_44
                            x       y       z     vdW  Elec       q    Type
                         _______ _______ _______ _____ _____    ______ ____

>  <TORSDO>
F 10

$$$$
=
 OpenBabel11042414173D

 45 50  0  0  1  0  0  0  0  0999 V2000
  190.2760  172.3680  143.1100 C   0  0  0  0  0  2  0  0  0  0  0  0
  192.0030  172.8460  141.3690 C   0  0  0  0  0  2  0  0  0  0  0  0
  191.2110  171.7450  142.0720 C   0  0  2  0  0  3  0  0  0  0  0  0
  194.6820  174.9030  143.0140 C   0  0  0  0  0  0  0  0  0  0  0  0
  194.1830  175.1350  144.3330 N   0  0  0  0  0  2  0  0  0  0  0  0
  192.7430  173.6670  142.3800 C   0  0  0  0  0  0  0  0  0  0  0  0
  191.0280  173.2430  144.0760 C   0  0  0  0  0  3  0  0  0  0  0  0
  193.9010  174.1620  142.0730 N   0  0  0  0  0  0  0  0  0  0  0  0
  195.8190  175.3300  142.6880 O   0  0  0  0  0  0  0  0  0  0  0  0
  192.8040  174.8210  144.7070 C   0  0  2  0  0  3  0  0  0  0  0  0
  192.1500  173.8820  143.7260 C   0  0  0  0  0  0  0  0  0  0  0  0
  190.4220  170.9550  141.0410 C   0  0  0  0  0  2  0  0  0  0  0  0
  190.2030  172.8990  137.1640 C   0  0  0  0  0  2  0  0  0  0  0  0
  190.5070  174.1860  136.4060 C   0  0  0  0  0  2  0  0  0  0  0  0
  189.1740  173.1610  138.1650 N   0  0  0  0  0  0  0  0  0  0  0  0
  190.3410  171.6900  139.7860 N   0  0  0  0  0  2  0  0  0  0  0  0
  189.2170  172.5060  139.4380 C   0  0  0  0  0  0  0  0  0  0  0  0
  187.1890  175.7640  136.4250 N   0  0  0  0  0  1  0  0  0  0  0  0
  189.6390  175.8800  135.2010 O   0  0  0  0  0  1  0  0  0  0  0  0
  188.2730  172.6610  140.2610 O   0  0  0  0  0  0  0  0  0  0  0  0
  188.3900  175.1300  136.9480 C   0  0  1  0  0  3  0  0  0  0  0  0
  187.9830  173.8990  137.7550 C   0  0  0  0  0  2  0  0  0  0  0  0
  189.2770  174.7440  135.8450 N   0  0  0  0  0  0  0  0  0  0  0  0
  191.9740  176.0980  144.9090 C   0  0  1  0  0  3  0  0  0  0  0  0
  192.3480  176.7490  146.0890 O   0  0  0  0  0  0  0  0  0  0  0  0
  191.9980  175.8650  147.1120 C   0  0  0  0  0  2  0  0  0  0  0  0
  190.6000  176.1800  147.6160 C   0  0  2  0  0  3  0  0  0  0  0  0
  189.4630  174.8360  147.1900 S   0  0  0  0  0  0  0  0  0  0  0  0
  188.7230  177.3750  147.0610 N   0  0  0  0  0  2  0  0  0  0  0  0
  190.1240  177.4010  146.9870 N   0  0  0  0  0  2  0  0  0  0  0  0
  188.3050  176.0750  146.5650 C   0  0  0  0  0  2  0  0  0  0  0  0
  192.0070  177.0570  143.7160 C   0  0  0  0  0  2  0  0  0  0  0  0
  188.4470  175.7770  141.7090 N   0  0  0  0  0  2  0  0  0  0  0  0
  187.5360  176.8970  141.8790 C   0  0  2  0  0  3  0  0  0  0  0  0
  190.7440  177.7670  143.5770 N   0  0  0  0  0  2  0  0  0  0  0  0
  188.3390  177.9150  142.6960 C   0  0  0  0  0  2  0  0  0  0  0  0
  189.6680  176.0460  142.3250 N   0  0  0  0  0  0  0  0  0  0  0  0
  189.6360  177.2080  142.8730 C   0  0  0  0  0  0  0  0  0  0  0  0
  186.3130  176.4430  142.6600 C   0  0  0  0  0  2  0  0  0  0  0  0
  184.5630  179.2430  145.0120 N   0  0  0  0  0  2  0  0  0  0  0  0
  185.8030  177.5340  143.4760 N   0  0  0  0  0  0  0  0  0  0  0  0
  183.8580  179.0390  143.7440 C   0  0  0  0  0  2  0  0  0  0  0  0
  184.5310  177.9550  142.8870 C   0  0  0  0  0  2  0  0  0  0  0  0
  185.5460  176.9800  144.8070 C   0  0  0  0  0  2  0  0  0  0  0  0
  184.7340  177.9520  145.6790 C   0  0  0  0  0  2  0  0  0  0  0  0
  1  7  1  0  0  0  0
  2  3  1  0  0  0  0
  2  6  1  0  0  0  0
  3 12  1  6  0  0  0
  3  1  1  0  0  0  0
  4  5  1  0  0  0  0
  5 10  1  0  0  0  0
  6 11  1  0  0  0  0
  8  6  2  0  0  0  0
  8  4  1  0  0  0  0
  9  4  2  0  0  0  0
 10 24  1  6  0  0  0
 11  7  2  0  0  0  0
 11 10  1  0  0  0  0
 13 15  1  0  0  0  0
 14 13  1  0  0  0  0
 15 17  1  0  0  0  0
 16 12  1  0  0  0  0
 17 16  1  0  0  0  0
 17 20  2  0  0  0  0
 19 23  1  0  0  0  0
 21 18  1  6  0  0  0
 21 22  1  0  0  0  0
 22 15  1  0  0  0  0
 23 14  1  0  0  0  0
 23 21  1  0  0  0  0
 24 32  1  6  0  0  0
 24 25  1  0  0  0  0
 25 26  1  0  0  0  0
 27 26  1  6  0  0  0
 28 27  1  0  0  0  0
 30 29  1  0  0  0  0
 30 27  1  0  0  0  0
 31 29  1  0  0  0  0
 31 28  1  0  0  0  0
 33 34  1  0  0  0  0
 33 37  1  0  0  0  0
 34 39  1  1  0  0  0
 34 36  1  0  0  0  0
 35 32  1  0  0  0  0
 36 38  1  0  0  0  0
 37 38  2  0  0  0  0
 38 35  1  0  0  0  0
 39 41  1  0  0  0  0
 40 45  1  0  0  0  0
 41 44  1  0  0  0  0
 42 40  1  0  0  0  0
 43 41  1  0  0  0  0
 43 42  1  0  0  0  0
 44 45  1  0  0  0  0
M  END
>  <MODEL>
3

>  <REMARK>
 VINA RESULT:      -7.5      3.296      7.032
  Name = 
  10 active torsions:
  status: ('A' for Active; 'I' for Inactive)
    1  A    between atoms: C_5  and  C_40
    2  A    between atoms: C_7  and  C_21
    3  A    between atoms: N_10  and  C_21
    4  A    between atoms: C_13  and  N_17
    5  A    between atoms: C_13  and  C_26
    6  A    between atoms: C_22  and  C_44
    7  A    between atoms: O_25  and  C_40
    8  A    between atoms: O_25  and  C_44
    9  A    between atoms: N_27  and  C_32
   10  A    between atoms: C_32  and  C_44
                            x       y       z     vdW  Elec       q    Type
                         _______ _______ _______ _____ _____    ______ ____

>  <TORSDO>
F 10

$$$$
=
 OpenBabel11042414173D

 45 50  0  0  1  0  0  0  0  0999 V2000
  191.6560  172.1980  144.1560 C   0  0  0  0  0  2  0  0  0  0  0  0
  193.5370  173.6230  143.3320 C   0  0  0  0  0  2  0  0  0  0  0  0
  193.1390  172.2160  143.7740 C   0  0  2  0  0  3  0  0  0  0  0  0
  193.7700  176.5780  145.6400 C   0  0  0  0  0  0  0  0  0  0  0  0
  192.6650  176.4130  146.5300 N   0  0  0  0  0  2  0  0  0  0  0  0
  193.2170  174.6070  144.4140 C   0  0  0  0  0  0  0  0  0  0  0  0
  191.3430  173.2390  145.1960 C   0  0  0  0  0  3  0  0  0  0  0  0
  193.9880  175.6360  144.5860 N   0  0  0  0  0  0  0  0  0  0  0  0
  194.5660  177.5390  145.7970 O   0  0  0  0  0  0  0  0  0  0  0  0
  191.6130  175.4260  146.2870 C   0  0  2  0  0  3  0  0  0  0  0  0
  192.0380  174.3790  145.2890 C   0  0  0  0  0  0  0  0  0  0  0  0
  193.4160  171.2350  142.6460 C   0  0  0  0  0  2  0  0  0  0  0  0
  192.9030  172.9960  138.7110 C   0  0  0  0  0  2  0  0  0  0  0  0
  192.2290  174.1250  137.9370 C   0  0  0  0  0  2  0  0  0  0  0  0
  191.8810  172.0990  139.2410 N   0  0  0  0  0  0  0  0  0  0  0  0
  193.1580  171.8570  141.3540 N   0  0  0  0  0  2  0  0  0  0  0  0
  192.0500  171.4890  140.5260 C   0  0  0  0  0  0  0  0  0  0  0  0
  189.3160  172.3460  136.5760 N   0  0  0  0  0  1  0  0  0  0  0  0
  190.7880  174.6400  136.2840 O   0  0  0  0  0  1  0  0  0  0  0  0
  191.2120  170.6390  140.9360 O   0  0  0  0  0  0  0  0  0  0  0  0
  190.2600  172.8380  137.5690 C   0  0  1  0  0  3  0  0  0  0  0  0
  190.8230  171.6480  138.3430 C   0  0  0  0  0  2  0  0  0  0  0  0
  191.3450  173.5740  136.9090 N   0  0  0  0  0  0  0  0  0  0  0  0
  190.2960  176.1000  145.8750 C   0  0  1  0  0  3  0  0  0  0  0  0
  189.7890  175.5240  144.7060 O   0  0  0  0  0  0  0  0  0  0  0  0
  189.9100  176.5200  143.7340 C   0  0  0  0  0  2  0  0  0  0  0  0
  189.4980  175.9770  142.3780 C   0  0  2  0  0  3  0  0  0  0  0  0
  187.8320  175.2700  142.4660 S   0  0  0  0  0  0  0  0  0  0  0  0
  189.7480  174.1350  141.0340 N   0  0  0  0  0  2  0  0  0  0  0  0
  190.4210  174.9280  141.9760 N   0  0  0  0  0  2  0  0  0  0  0  0
  188.4580  173.8040  141.6140 C   0  0  0  0  0  2  0  0  0  0  0  0
  189.2370  176.1250  146.9810 C   0  0  0  0  0  2  0  0  0  0  0  0
  185.8690  178.7260  147.4560 N   0  0  0  0  0  2  0  0  0  0  0  0
  184.8130  178.0610  146.7090 C   0  0  2  0  0  3  0  0  0  0  0  0
  187.8980  175.9770  146.4300 N   0  0  0  0  0  2  0  0  0  0  0  0
  185.4860  176.8030  146.1480 C   0  0  0  0  0  2  0  0  0  0  0  0
  187.0510  177.9910  147.3880 N   0  0  0  0  0  0  0  0  0  0  0  0
  186.8690  176.9350  146.6780 C   0  0  0  0  0  0  0  0  0  0  0  0
  184.3490  178.9600  145.5750 C   0  0  0  0  0  2  0  0  0  0  0  0
  185.4230  177.7800  141.8490 N   0  0  0  0  0  2  0  0  0  0  0  0
  184.7430  178.3990  144.2930 N   0  0  0  0  0  0  0  0  0  0  0  0
  184.0230  178.2000  141.9350 C   0  0  0  0  0  2  0  0  0  0  0  0
  183.6530  178.6660  143.3520 C   0  0  0  0  0  2  0  0  0  0  0  0
  185.9320  179.1340  143.8580 C   0  0  0  0  0  2  0  0  0  0  0  0
  186.2760  178.8390  142.3880 C   0  0  0  0  0  2  0  0  0  0  0  0
  1  7  1  0  0  0  0
  2  3  1  0  0  0  0
  2  6  1  0  0  0  0
  3 12  1  6  0  0  0
  3  1  1  0  0  0  0
  4  9  2  0  0  0  0
  4  5  1  0  0  0  0
  6  8  2  0  0  0  0
  6 11  1  0  0  0  0
  7 11  2  0  0  0  0
  8  4  1  0  0  0  0
 10 24  1  6  0  0  0
 10  5  1  0  0  0  0
 11 10  1  0  0  0  0
 13 15  1  0  0  0  0
 14 13  1  0  0  0  0
 15 17  1  0  0  0  0
 16 12  1  0  0  0  0
 17 20  2  0  0  0  0
 17 16  1  0  0  0  0
 19 23  1  0  0  0  0
 21 18  1  6  0  0  0
 21 22  1  0  0  0  0
 22 15  1  0  0  0  0
 23 21  1  0  0  0  0
 23 14  1  0  0  0  0
 24 32  1  1  0  0  0
 25 24  1  0  0  0  0
 26 25  1  0  0  0  0
 27 28  1  0  0  0  0
 27 26  1  1  0  0  0
 29 31  1  0  0  0  0
 29 30  1  0  0  0  0
 30 27  1  0  0  0  0
 31 28  1  0  0  0  0
 34 39  1  6  0  0  0
 34 33  1  0  0  0  0
 35 38  1  0  0  0  0
 35 32  1  0  0  0  0
 36 38  1  0  0  0  0
 36 34  1  0  0  0  0
 37 33  1  0  0  0  0
 38 37  2  0  0  0  0
 40 42  1  0  0  0  0
 40 45  1  0  0  0  0
 41 39  1  0  0  0  0
 42 43  1  0  0  0  0
 43 41  1  0  0  0  0
 44 41  1  0  0  0  0
 45 44  1  0  0  0  0
M  END
>  <MODEL>
4

>  <REMARK>
 VINA RESULT:      -7.5      2.913      5.006
  Name = 
  10 active torsions:
  status: ('A' for Active; 'I' for Inactive)
    1  A    between atoms: C_5  and  C_40
    2  A    between atoms: C_7  and  C_21
    3  A    between atoms: N_10  and  C_21
    4  A    between atoms: C_13  and  N_17
    5  A    between atoms: C_13  and  C_26
    6  A    between atoms: C_22  and  C_44
    7  A    between atoms: O_25  and  C_40
    8  A    between atoms: O_25  and  C_44
    9  A    between atoms: N_27  and  C_32
   10  A    between atoms: C_32  and  C_44
                            x       y       z     vdW  Elec       q    Type
                         _______ _______ _______ _____ _____    ______ ____

>  <TORSDO>
F 10

$$$$
=
 OpenBabel11042414173D

 45 50  0  0  1  0  0  0  0  0999 V2000
  190.3370  172.2600  141.4000 C   0  0  0  0  0  2  0  0  0  0  0  0
  191.0390  171.8760  143.7670 C   0  0  0  0  0  2  0  0  0  0  0  0
  190.4180  171.2310  142.5310 C   0  0  2  0  0  3  0  0  0  0  0  0
  189.3540  174.5080  145.8530 C   0  0  0  0  0  0  0  0  0  0  0  0
  188.6820  175.3320  144.8990 N   0  0  0  0  0  2  0  0  0  0  0  0
  190.2540  173.0900  144.1580 C   0  0  0  0  0  0  0  0  0  0  0  0
  189.6030  173.4990  141.8330 C   0  0  0  0  0  3  0  0  0  0  0  0
  190.1390  173.3970  145.4130 N   0  0  0  0  0  0  0  0  0  0  0  0
  189.2350  174.7450  147.0820 O   0  0  0  0  0  0  0  0  0  0  0  0
  188.9290  175.2140  143.4610 C   0  0  2  0  0  3  0  0  0  0  0  0
  189.6000  173.9120  143.1060 C   0  0  0  0  0  0  0  0  0  0  0  0
  191.2550  170.0340  142.1110 C   0  0  0  0  0  2  0  0  0  0  0  0
  193.9090  168.6330  145.2490 C   0  0  0  0  0  2  0  0  0  0  0  0
  194.5940  169.0190  146.5560 C   0  0  0  0  0  2  0  0  0  0  0  0
  194.4390  169.4560  144.1670 N   0  0  0  0  0  0  0  0  0  0  0  0
  192.1730  169.6550  143.1760 N   0  0  0  0  0  2  0  0  0  0  0  0
  193.5810  169.9030  143.1090 C   0  0  0  0  0  0  0  0  0  0  0  0
  197.9340  169.9120  145.3150 N   0  0  0  0  0  1  0  0  0  0  0  0
  196.5660  169.2930  147.6080 O   0  0  0  0  0  1  0  0  0  0  0  0
  194.0640  170.5300  142.1270 O   0  0  0  0  0  0  0  0  0  0  0  0
  196.4830  169.9210  145.4230 C   0  0  1  0  0  3  0  0  0  0  0  0
  195.8870  169.6010  144.0530 C   0  0  0  0  0  2  0  0  0  0  0  0
  196.0460  168.9280  146.4110 N   0  0  0  0  0  0  0  0  0  0  0  0
  189.7150  176.4210  142.9270 C   0  0  1  0  0  3  0  0  0  0  0  0
  190.9690  176.0240  142.4520 O   0  0  0  0  0  0  0  0  0  0  0  0
  191.8830  176.8220  143.1440 C   0  0  0  0  0  2  0  0  0  0  0  0
  192.7610  175.9580  144.0320 C   0  0  2  0  0  3  0  0  0  0  0  0
  192.4830  176.3650  145.7750 S   0  0  0  0  0  0  0  0  0  0  0  0
  194.9000  175.8180  144.8450 N   0  0  0  0  0  2  0  0  0  0  0  0
  194.1580  176.2070  143.7190 N   0  0  0  0  0  2  0  0  0  0  0  0
  194.2740  176.4490  145.9940 C   0  0  0  0  0  2  0  0  0  0  0  0
  188.9600  177.2380  141.8750 C   0  0  0  0  0  2  0  0  0  0  0  0
  184.8200  177.4040  142.9570 N   0  0  0  0  0  2  0  0  0  0  0  0
  184.6600  178.7440  143.4970 C   0  0  2  0  0  3  0  0  0  0  0  0
  188.2310  178.3390  142.4880 N   0  0  0  0  0  2  0  0  0  0  0  0
  186.0610  179.3580  143.4000 C   0  0  0  0  0  2  0  0  0  0  0  0
  186.1390  177.1940  142.5600 N   0  0  0  0  0  0  0  0  0  0  0  0
  186.8400  178.2460  142.7930 C   0  0  0  0  0  0  0  0  0  0  0  0
  184.2230  178.6570  144.9510 C   0  0  0  0  0  2  0  0  0  0  0  0
  187.1760  177.9580  147.6390 N   0  0  0  0  0  2  0  0  0  0  0  0
  185.3780  178.4560  145.8120 N   0  0  0  0  0  0  0  0  0  0  0  0
  186.3100  179.0770  148.0180 C   0  0  0  0  0  2  0  0  0  0  0  0
  185.1870  179.3010  146.9930 C   0  0  0  0  0  2  0  0  0  0  0  0
  185.3530  177.0520  146.2290 C   0  0  0  0  0  2  0  0  0  0  0  0
  186.3480  176.7820  147.3700 C   0  0  0  0  0  2  0  0  0  0  0  0
  1  7  1  0  0  0  0
  1  3  1  0  0  0  0
  2  6  1  0  0  0  0
  3 12  1  6  0  0  0
  3  2  1  0  0  0  0
  4  9  2  0  0  0  0
  5  4  1  0  0  0  0
  6  8  2  0  0  0  0
  7 11  2  0  0  0  0
  8  4  1  0  0  0  0
 10 24  1  1  0  0  0
 10  5  1  0  0  0  0
 11 10  1  0  0  0  0
 11  6  1  0  0  0  0
 12 16  1  0  0  0  0
 13 14  1  0  0  0  0
 15 13  1  0  0  0  0
 17 16  1  0  0  0  0
 17 15  1  0  0  0  0
 20 17  2  0  0  0  0
 21 18  1  6  0  0  0
 21 23  1  0  0  0  0
 22 15  1  0  0  0  0
 22 21  1  0  0  0  0
 23 14  1  0  0  0  0
 23 19  1  0  0  0  0
 24 32  1  6  0  0  0
 25 24  1  0  0  0  0
 25 26  1  0  0  0  0
 27 26  1  6  0  0  0
 27 28  1  0  0  0  0
 28 31  1  0  0  0  0
 29 31  1  0  0  0  0
 30 27  1  0  0  0  0
 30 29  1  0  0  0  0
 32 35  1  0  0  0  0
 33 34  1  0  0  0  0
 34 39  1  1  0  0  0
 35 38  1  0  0  0  0
 36 34  1  0  0  0  0
 37 38  2  0  0  0  0
 37 33  1  0  0  0  0
 38 36  1  0  0  0  0
 39 41  1  0  0  0  0
 40 42  1  0  0  0  0
 41 44  1  0  0  0  0
 41 43  1  0  0  0  0
 43 42  1  0  0  0  0
 44 45  1  0  0  0  0
 45 40  1  0  0  0  0
M  END
>  <MODEL>
5

>  <REMARK>
 VINA RESULT:      -7.5      2.002      4.738
  Name = 
  10 active torsions:
  status: ('A' for Active; 'I' for Inactive)
    1  A    between atoms: C_5  and  C_40
    2  A    between atoms: C_7  and  C_21
    3  A    between atoms: N_10  and  C_21
    4  A    between atoms: C_13  and  N_17
    5  A    between atoms: C_13  and  C_26
    6  A    between atoms: C_22  and  C_44
    7  A    between atoms: O_25  and  C_40
    8  A    between atoms: O_25  and  C_44
    9  A    between atoms: N_27  and  C_32
   10  A    between atoms: C_32  and  C_44
                            x       y       z     vdW  Elec       q    Type
                         _______ _______ _______ _____ _____    ______ ____

>  <TORSDO>
F 10

$$$$
=
 OpenBabel11042414173D

 45 50  0  0  1  0  0  0  0  0999 V2000
  192.7680  171.6860  144.2230 C   0  0  0  0  0  2  0  0  0  0  0  0
  194.2400  172.5640  142.4040 C   0  0  0  0  0  2  0  0  0  0  0  0
  193.8340  171.3180  143.1880 C   0  0  2  0  0  3  0  0  0  0  0  0
  196.1860  175.4330  143.8540 C   0  0  0  0  0  0  0  0  0  0  0  0
  195.6590  175.5790  145.1740 N   0  0  0  0  0  2  0  0  0  0  0  0
  194.7080  173.6290  143.3480 C   0  0  0  0  0  0  0  0  0  0  0  0
  193.2310  172.8030  145.1170 C   0  0  0  0  0  3  0  0  0  0  0  0
  195.6550  174.4350  142.9780 N   0  0  0  0  0  0  0  0  0  0  0  0
  197.1320  176.1660  143.4700 O   0  0  0  0  0  0  0  0  0  0  0  0
  194.4480  174.8820  145.6080 C   0  0  2  0  0  3  0  0  0  0  0  0
  194.0980  173.7330  144.6990 C   0  0  0  0  0  0  0  0  0  0  0  0
  193.3090  170.2650  142.2250 C   0  0  0  0  0  2  0  0  0  0  0  0
  192.0570  171.8840  138.3950 C   0  0  0  0  0  2  0  0  0  0  0  0
  191.8290  173.1710  137.6100 C   0  0  0  0  0  2  0  0  0  0  0  0
  191.1050  171.8180  139.4990 N   0  0  0  0  0  0  0  0  0  0  0  0
  192.8580  170.8860  140.9870 N   0  0  0  0  0  2  0  0  0  0  0  0
  191.4960  171.2610  140.7600 C   0  0  0  0  0  0  0  0  0  0  0  0
  188.1920  173.5360  137.9810 N   0  0  0  0  0  1  0  0  0  0  0  0
  190.3220  174.4290  136.5050 O   0  0  0  0  0  1  0  0  0  0  0  0
  190.6420  171.1170  141.6780 O   0  0  0  0  0  0  0  0  0  0  0  0
  189.5830  173.3630  138.3740 C   0  0  1  0  0  3  0  0  0  0  0  0
  189.7000  172.0960  139.2190 C   0  0  0  0  0  2  0  0  0  0  0  0
  190.4330  173.2600  137.1820 N   0  0  0  0  0  0  0  0  0  0  0  0
  193.2710  175.8550  145.7720 C   0  0  1  0  0  3  0  0  0  0  0  0
  192.2920  175.6160  144.8010 O   0  0  0  0  0  0  0  0  0  0  0  0
  192.3160  176.7480  143.9830 C   0  0  0  0  0  2  0  0  0  0  0  0
  191.4320  176.5300  142.7680 C   0  0  2  0  0  3  0  0  0  0  0  0
  189.8080  177.2880  143.0300 S   0  0  0  0  0  0  0  0  0  0  0  0
  190.0700  174.9570  141.8020 N   0  0  0  0  0  2  0  0  0  0  0  0
  191.2440  175.1040  142.5570 N   0  0  0  0  0  2  0  0  0  0  0  0
  189.0480  175.7490  142.4650 C   0  0  0  0  0  2  0  0  0  0  0  0
  192.6620  175.8650  147.1770 C   0  0  0  0  0  2  0  0  0  0  0  0
  188.7670  177.6000  146.7810 N   0  0  0  0  0  2  0  0  0  0  0  0
  187.8700  176.4620  146.8990 C   0  0  2  0  0  3  0  0  0  0  0  0
  191.3690  175.1950  147.1940 N   0  0  0  0  0  2  0  0  0  0  0  0
  188.8070  175.2630  147.0840 C   0  0  0  0  0  2  0  0  0  0  0  0
  190.0940  177.1870  146.8850 N   0  0  0  0  0  0  0  0  0  0  0  0
  190.1450  175.9130  147.0500 C   0  0  0  0  0  0  0  0  0  0  0  0
  187.0690  176.3110  145.6160 C   0  0  0  0  0  2  0  0  0  0  0  0
  184.3610  179.2740  145.0500 N   0  0  0  0  0  2  0  0  0  0  0  0
  186.2120  177.4690  145.4180 N   0  0  0  0  0  0  0  0  0  0  0  0
  184.5410  178.4290  143.8680 C   0  0  0  0  0  2  0  0  0  0  0  0
  185.5540  177.3010  144.1210 C   0  0  0  0  0  2  0  0  0  0  0  0
  185.1960  177.4270  146.4710 C   0  0  0  0  0  2  0  0  0  0  0  0
  184.0590  178.4270  146.2040 C   0  0  0  0  0  2  0  0  0  0  0  0
  1  7  1  0  0  0  0
  2  3  1  0  0  0  0
  2  6  1  0  0  0  0
  3 12  1  6  0  0  0
  3  1  1  0  0  0  0
  4  5  1  0  0  0  0
  5 10  1  0  0  0  0
  6 11  1  0  0  0  0
  8  6  2  0  0  0  0
  8  4  1  0  0  0  0
  9  4  2  0  0  0  0
 10 24  1  6  0  0  0
 11  7  2  0  0  0  0
 11 10  1  0  0  0  0
 13 15  1  0  0  0  0
 14 13  1  0  0  0  0
 15 17  1  0  0  0  0
 16 12  1  0  0  0  0
 17 16  1  0  0  0  0
 17 20  2  0  0  0  0
 19 23  1  0  0  0  0
 21 18  1  6  0  0  0
 21 22  1  0  0  0  0
 22 15  1  0  0  0  0
 23 14  1  0  0  0  0
 23 21  1  0  0  0  0
 24 32  1  1  0  0  0
 25 24  1  0  0  0  0
 26 25  1  0  0  0  0
 27 28  1  0  0  0  0
 27 26  1  1  0  0  0
 29 31  1  0  0  0  0
 29 30  1  0  0  0  0
 30 27  1  0  0  0  0
 31 28  1  0  0  0  0
 32 35  1  0  0  0  0
 33 37  1  0  0  0  0
 33 34  1  0  0  0  0
 34 39  1  6  0  0  0
 34 36  1  0  0  0  0
 37 38  2  0  0  0  0
 38 36  1  0  0  0  0
 38 35  1  0  0  0  0
 40 45  1  0  0  0  0
 41 39  1  0  0  0  0
 41 44  1  0  0  0  0
 42 43  1  0  0  0  0
 42 40  1  0  0  0  0
 43 41  1  0  0  0  0
 45 44  1  0  0  0  0
M  END
>  <MODEL>
6

>  <REMARK>
 VINA RESULT:      -7.5      2.876      5.824
  Name = 
  10 active torsions:
  status: ('A' for Active; 'I' for Inactive)
    1  A    between atoms: C_5  and  C_40
    2  A    between atoms: C_7  and  C_21
    3  A    between atoms: N_10  and  C_21
    4  A    between atoms: C_13  and  N_17
    5  A    between atoms: C_13  and  C_26
    6  A    between atoms: C_22  and  C_44
    7  A    between atoms: O_25  and  C_40
    8  A    between atoms: O_25  and  C_44
    9  A    between atoms: N_27  and  C_32
   10  A    between atoms: C_32  and  C_44
                            x       y       z     vdW  Elec       q    Type
                         _______ _______ _______ _____ _____    ______ ____

>  <TORSDO>
F 10

$$$$
=
 OpenBabel11042414173D

 45 50  0  0  1  0  0  0  0  0999 V2000
  190.3510  175.2030  145.8820 C   0  0  0  0  0  2  0  0  0  0  0  0
  189.9830  177.3680  147.0750 C   0  0  0  0  0  2  0  0  0  0  0  0
  190.5520  175.9560  147.1990 C   0  0  2  0  0  3  0  0  0  0  0  0
  186.3190  178.1560  146.8160 C   0  0  0  0  0  0  0  0  0  0  0  0
  185.7970  177.1170  145.9850 N   0  0  0  0  0  2  0  0  0  0  0  0
  188.5420  177.3030  146.6710 C   0  0  0  0  0  0  0  0  0  0  0  0
  188.9080  175.2070  145.4590 C   0  0  0  0  0  3  0  0  0  0  0  0
  187.7160  178.1980  147.1160 N   0  0  0  0  0  0  0  0  0  0  0  0
  185.5460  179.0200  147.3020 O   0  0  0  0  0  0  0  0  0  0  0  0
  186.6680  176.1990  145.2510 C   0  0  2  0  0  3  0  0  0  0  0  0
  188.0760  176.2030  145.7870 C   0  0  0  0  0  0  0  0  0  0  0  0
  192.0280  176.0360  147.5540 C   0  0  0  0  0  2  0  0  0  0  0  0
  194.2170  174.3260  144.2170 C   0  0  0  0  0  2  0  0  0  0  0  0
  195.4110  173.4580  143.8330 C   0  0  0  0  0  2  0  0  0  0  0  0
  194.6960  175.5540  144.8440 N   0  0  0  0  0  0  0  0  0  0  0  0
  192.8410  175.4660  146.4890 N   0  0  0  0  0  2  0  0  0  0  0  0
  193.9690  176.1450  145.9280 C   0  0  0  0  0  0  0  0  0  0  0  0
  197.8770  176.0530  143.0070 N   0  0  0  0  0  1  0  0  0  0  0  0
  197.3630  173.3770  142.7120 O   0  0  0  0  0  1  0  0  0  0  0  0
  194.3330  177.2570  146.4000 O   0  0  0  0  0  0  0  0  0  0  0  0
  196.8870  175.3250  143.7870 C   0  0  1  0  0  3  0  0  0  0  0  0
  195.7730  176.2900  144.1900 C   0  0  0  0  0  2  0  0  0  0  0  0
  196.3390  174.2180  142.9950 N   0  0  0  0  0  0  0  0  0  0  0  0
  186.6340  176.4810  143.7420 C   0  0  1  0  0  3  0  0  0  0  0  0
  187.4850  177.5430  143.4180 O   0  0  0  0  0  0  0  0  0  0  0  0
  186.6500  178.5110  142.8540 C   0  0  0  0  0  2  0  0  0  0  0  0
  185.4050  177.8550  142.2830 C   0  0  2  0  0  3  0  0  0  0  0  0
  185.4350  177.9240  140.4730 S   0  0  0  0  0  0  0  0  0  0  0  0
  183.1970  178.2850  141.8390 N   0  0  0  0  0  2  0  0  0  0  0  0
  184.2270  178.5660  142.7500 N   0  0  0  0  0  2  0  0  0  0  0  0
  183.7340  178.5330  140.5130 C   0  0  0  0  0  2  0  0  0  0  0  0
  186.9280  175.2550  142.8730 C   0  0  0  0  0  2  0  0  0  0  0  0
  189.8140  172.1300  142.3840 N   0  0  0  0  0  2  0  0  0  0  0  0
  190.9450  172.8000  141.7630 C   0  0  2  0  0  3  0  0  0  0  0  0
  188.2550  175.3370  142.2810 N   0  0  0  0  0  2  0  0  0  0  0  0
  190.4810  174.2520  141.6070 C   0  0  0  0  0  2  0  0  0  0  0  0
  188.7740  173.0310  142.6040 N   0  0  0  0  0  0  0  0  0  0  0  0
  189.1120  174.1990  142.1870 C   0  0  0  0  0  0  0  0  0  0  0  0
  191.2130  172.1850  140.3990 C   0  0  0  0  0  2  0  0  0  0  0  0
  189.6080  174.1300  137.2260 N   0  0  0  0  0  2  0  0  0  0  0  0
  190.6130  172.9970  139.3530 N   0  0  0  0  0  0  0  0  0  0  0  0
  191.0580  173.9530  137.1150 C   0  0  0  0  0  2  0  0  0  0  0  0
  191.6330  173.1910  138.3200 C   0  0  0  0  0  2  0  0  0  0  0  0
  189.5140  172.2110  138.7880 C   0  0  0  0  0  2  0  0  0  0  0  0
  188.9850  172.8310  137.4840 C   0  0  0  0  0  2  0  0  0  0  0  0
  1  3  1  0  0  0  0
  2  3  1  0  0  0  0
  3 12  1  6  0  0  0
  4  8  1  0  0  0  0
  4  9  2  0  0  0  0
  5  4  1  0  0  0  0
  6  2  1  0  0  0  0
  6  8  2  0  0  0  0
  7 11  2  0  0  0  0
  7  1  1  0  0  0  0
 10 24  1  6  0  0  0
 10 11  1  0  0  0  0
 10  5  1  0  0  0  0
 11  6  1  0  0  0  0
 13 15  1  0  0  0  0
 14 13  1  0  0  0  0
 15 17  1  0  0  0  0
 16 12  1  0  0  0  0
 17 20  2  0  0  0  0
 17 16  1  0  0  0  0
 19 23  1  0  0  0  0
 21 18  1  6  0  0  0
 21 22  1  0  0  0  0
 22 15  1  0  0  0  0
 23 21  1  0  0  0  0
 23 14  1  0  0  0  0
 24 32  1  6  0  0  0
 25 24  1  0  0  0  0
 26 25  1  0  0  0  0
 27 30  1  0  0  0  0
 27 26  1  1  0  0  0
 28 31  1  0  0  0  0
 28 27  1  0  0  0  0
 29 30  1  0  0  0  0
 31 29  1  0  0  0  0
 33 37  1  0  0  0  0
 34 39  1  6  0  0  0
 34 33  1  0  0  0  0
 35 32  1  0  0  0  0
 36 34  1  0  0  0  0
 36 38  1  0  0  0  0
 38 35  1  0  0  0  0
 38 37  2  0  0  0  0
 40 45  1  0  0  0  0
 41 39  1  0  0  0  0
 42 40  1  0  0  0  0
 42 43  1  0  0  0  0
 43 41  1  0  0  0  0
 44 41  1  0  0  0  0
 45 44  1  0  0  0  0
M  END
>  <MODEL>
7

>  <REMARK>
 VINA RESULT:      -7.4      2.864      6.654
  Name = 
  10 active torsions:
  status: ('A' for Active; 'I' for Inactive)
    1  A    between atoms: C_5  and  C_40
    2  A    between atoms: C_7  and  C_21
    3  A    between atoms: N_10  and  C_21
    4  A    between atoms: C_13  and  N_17
    5  A    between atoms: C_13  and  C_26
    6  A    between atoms: C_22  and  C_44
    7  A    between atoms: O_25  and  C_40
    8  A    between atoms: O_25  and  C_44
    9  A    between atoms: N_27  and  C_32
   10  A    between atoms: C_32  and  C_44
                            x       y       z     vdW  Elec       q    Type
                         _______ _______ _______ _____ _____    ______ ____

>  <TORSDO>
F 10

$$$$
=
 OpenBabel11042414173D

 45 50  0  0  1  0  0  0  0  0999 V2000
  193.9380  175.7690  146.5130 C   0  0  0  0  0  2  0  0  0  0  0  0
  193.5160  175.4730  144.0670 C   0  0  0  0  0  2  0  0  0  0  0  0
  194.5320  175.9310  145.1110 C   0  0  2  0  0  3  0  0  0  0  0  0
  190.3320  177.3010  143.2720 C   0  0  0  0  0  0  0  0  0  0  0  0
  189.8680  177.7620  144.5430 N   0  0  0  0  0  2  0  0  0  0  0  0
  192.2370  176.2340  144.2330 C   0  0  0  0  0  0  0  0  0  0  0  0
  192.6210  176.4850  146.6380 C   0  0  0  0  0  3  0  0  0  0  0  0
  191.5300  176.5260  143.1850 N   0  0  0  0  0  0  0  0  0  0  0  0
  189.6980  177.5970  142.2270 O   0  0  0  0  0  0  0  0  0  0  0  0
  190.4590  177.3000  145.7990 C   0  0  2  0  0  3  0  0  0  0  0  0
  191.8090  176.6630  145.5900 C   0  0  0  0  0  0  0  0  0  0  0  0
  195.8060  175.1130  144.9690 C   0  0  0  0  0  2  0  0  0  0  0  0
  195.8920  173.5140  140.9320 C   0  0  0  0  0  2  0  0  0  0  0  0
  196.7520  172.7800  139.9090 C   0  0  0  0  0  2  0  0  0  0  0  0
  196.4790  174.8210  141.2060 N   0  0  0  0  0  0  0  0  0  0  0  0
  195.9290  174.5920  143.6140 N   0  0  0  0  0  2  0  0  0  0  0  0
  196.4330  175.3740  142.5270 C   0  0  0  0  0  0  0  0  0  0  0  0
  197.9410  175.6110  137.8920 N   0  0  0  0  0  1  0  0  0  0  0  0
  197.7030  172.8800  137.8700 O   0  0  0  0  0  1  0  0  0  0  0  0
  196.8550  176.5450  142.7360 O   0  0  0  0  0  0  0  0  0  0  0  0
  197.6800  174.8080  139.0770 C   0  0  1  0  0  3  0  0  0  0  0  0
  196.8830  175.6490  140.0730 C   0  0  0  0  0  2  0  0  0  0  0  0
  196.9260  173.6030  138.7130 N   0  0  0  0  0  0  0  0  0  0  0  0
  189.5030  176.3680  146.5580 C   0  0  1  0  0  3  0  0  0  0  0  0
  188.5340  177.1060  147.2460 O   0  0  0  0  0  0  0  0  0  0  0  0
  187.3220  176.7480  146.6510 C   0  0  0  0  0  2  0  0  0  0  0  0
  186.6040  177.9870  146.1470 C   0  0  2  0  0  3  0  0  0  0  0  0
  185.3020  178.4730  147.3080 S   0  0  0  0  0  0  0  0  0  0  0  0
  184.9560  178.6340  144.6890 N   0  0  0  0  0  2  0  0  0  0  0  0
  185.9880  177.6990  144.8620 N   0  0  0  0  0  2  0  0  0  0  0  0
  184.1680  178.6140  145.9090 C   0  0  0  0  0  2  0  0  0  0  0  0
  188.8560  175.2920  145.6800 C   0  0  0  0  0  2  0  0  0  0  0  0
  189.3070  172.6070  142.3760 N   0  0  0  0  0  2  0  0  0  0  0  0
  190.2550  171.6180  142.8630 C   0  0  2  0  0  3  0  0  0  0  0  0
  189.7040  174.1120  145.5850 N   0  0  0  0  0  2  0  0  0  0  0  0
  190.5870  172.0850  144.2840 C   0  0  0  0  0  2  0  0  0  0  0  0
  189.0600  173.5680  143.3530 N   0  0  0  0  0  0  0  0  0  0  0  0
  189.7490  173.3080  144.4080 C   0  0  0  0  0  0  0  0  0  0  0  0
  191.5040  171.6410  141.9960 C   0  0  0  0  0  2  0  0  0  0  0  0
  190.9740  172.7830  138.1430 N   0  0  0  0  0  2  0  0  0  0  0  0
  191.1780  172.0960  140.6540 N   0  0  0  0  0  0  0  0  0  0  0  0
  191.9450  173.6140  138.8580 C   0  0  0  0  0  2  0  0  0  0  0  0
  192.1430  173.1410  140.3070 C   0  0  0  0  0  2  0  0  0  0  0  0
  191.3790  170.9540  139.7610 C   0  0  0  0  0  2  0  0  0  0  0  0
  191.3510  171.3770  138.2830 C   0  0  0  0  0  2  0  0  0  0  0  0
  1  7  1  0  0  0  0
  2  6  1  0  0  0  0
  2  3  1  0  0  0  0
  3 12  1  1  0  0  0
  3  1  1  0  0  0  0
  4  5  1  0  0  0  0
  5 10  1  0  0  0  0
  6 11  1  0  0  0  0
  8  4  1  0  0  0  0
  8  6  2  0  0  0  0
  9  4  2  0  0  0  0
 10 24  1  6  0  0  0
 11 10  1  0  0  0  0
 11  7  2  0  0  0  0
 13 15  1  0  0  0  0
 14 13  1  0  0  0  0
 15 17  1  0  0  0  0
 16 12  1  0  0  0  0
 17 20  2  0  0  0  0
 17 16  1  0  0  0  0
 19 23  1  0  0  0  0
 21 18  1  6  0  0  0
 21 22  1  0  0  0  0
 22 15  1  0  0  0  0
 23 21  1  0  0  0  0
 23 14  1  0  0  0  0
 24 32  1  6  0  0  0
 24 25  1  0  0  0  0
 26 25  1  0  0  0  0
 27 26  1  1  0  0  0
 27 28  1  0  0  0  0
 29 30  1  0  0  0  0
 29 31  1  0  0  0  0
 30 27  1  0  0  0  0
 31 28  1  0  0  0  0
 33 34  1  0  0  0  0
 33 37  1  0  0  0  0
 34 39  1  6  0  0  0
 34 36  1  0  0  0  0
 35 32  1  0  0  0  0
 36 38  1  0  0  0  0
 37 38  2  0  0  0  0
 38 35  1  0  0  0  0
 40 45  1  0  0  0  0
 40 42  1  0  0  0  0
 41 39  1  0  0  0  0
 42 43  1  0  0  0  0
 43 41  1  0  0  0  0
 44 41  1  0  0  0  0
 45 44  1  0  0  0  0
M  END
>  <MODEL>
8

>  <REMARK>
 VINA RESULT:      -7.4      3.128      6.361
  Name = 
  10 active torsions:
  status: ('A' for Active; 'I' for Inactive)
    1  A    between atoms: C_5  and  C_40
    2  A    between atoms: C_7  and  C_21
    3  A    between atoms: N_10  and  C_21
    4  A    between atoms: C_13  and  N_17
    5  A    between atoms: C_13  and  C_26
    6  A    between atoms: C_22  and  C_44
    7  A    between atoms: O_25  and  C_40
    8  A    between atoms: O_25  and  C_44
    9  A    between atoms: N_27  and  C_32
   10  A    between atoms: C_32  and  C_44
                            x       y       z     vdW  Elec       q    Type
                         _______ _______ _______ _____ _____    ______ ____

>  <TORSDO>
F 10

$$$$
=
 OpenBabel11042414173D

 45 50  0  0  1  0  0  0  0  0999 V2000
  189.1850  173.2450  141.7230 C   0  0  0  0  0  2  0  0  0  0  0  0
  190.6740  172.6440  143.6380 C   0  0  0  0  0  2  0  0  0  0  0  0
  189.6920  172.1000  142.6030 C   0  0  2  0  0  3  0  0  0  0  0  0
  189.7020  174.8500  146.5200 C   0  0  0  0  0  0  0  0  0  0  0  0
  188.7100  175.7210  145.9730 N   0  0  0  0  0  2  0  0  0  0  0  0
  190.0220  173.7300  144.4380 C   0  0  0  0  0  0  0  0  0  0  0  0
  188.5950  174.3550  142.5490 C   0  0  0  0  0  3  0  0  0  0  0  0
  190.3340  173.8730  145.6890 N   0  0  0  0  0  0  0  0  0  0  0  0
  190.0030  174.9270  147.7380 O   0  0  0  0  0  0  0  0  0  0  0  0
  188.4520  175.7970  144.5350 C   0  0  2  0  0  3  0  0  0  0  0  0
  189.0130  174.6110  143.7940 C   0  0  0  0  0  0  0  0  0  0  0  0
  190.3830  171.0390  141.7610 C   0  0  0  0  0  2  0  0  0  0  0  0
  190.7970  172.6820  137.7630 C   0  0  0  0  0  2  0  0  0  0  0  0
  191.0300  172.3300  136.2980 C   0  0  0  0  0  2  0  0  0  0  0  0
  191.9890  172.3450  138.5340 N   0  0  0  0  0  0  0  0  0  0  0  0
  190.5780  171.5160  140.3990 N   0  0  0  0  0  2  0  0  0  0  0  0
  191.8690  171.8280  139.8660 C   0  0  0  0  0  0  0  0  0  0  0  0
  194.6300  173.0070  136.0190 N   0  0  0  0  0  1  0  0  0  0  0  0
  192.3750  172.6090  134.5130 O   0  0  0  0  0  1  0  0  0  0  0  0
  192.9020  171.6310  140.5620 O   0  0  0  0  0  0  0  0  0  0  0  0
  193.3960  172.4370  136.5390 C   0  0  1  0  0  3  0  0  0  0  0  0
  193.2880  172.7740  138.0250 C   0  0  0  0  0  2  0  0  0  0  0  0
  192.2450  172.9810  135.8090 N   0  0  0  0  0  0  0  0  0  0  0  0
  188.9560  177.1230  143.9450 C   0  0  1  0  0  3  0  0  0  0  0  0
  187.9140  178.0530  143.8570 O   0  0  0  0  0  0  0  0  0  0  0  0
  187.5330  178.0370  142.5130 C   0  0  0  0  0  2  0  0  0  0  0  0
  186.1600  178.6650  142.3540 C   0  0  2  0  0  3  0  0  0  0  0  0
  185.6680  179.4920  143.8890 S   0  0  0  0  0  0  0  0  0  0  0  0
  183.9290  178.1360  142.4230 N   0  0  0  0  0  2  0  0  0  0  0  0
  185.1860  177.6270  142.0590 N   0  0  0  0  0  2  0  0  0  0  0  0
  184.0680  178.6610  143.7710 C   0  0  0  0  0  2  0  0  0  0  0  0
  190.1610  177.7140  144.6830 C   0  0  0  0  0  2  0  0  0  0  0  0
  193.7250  176.3360  146.6150 N   0  0  0  0  0  2  0  0  0  0  0  0
  194.6370  176.0800  145.5130 C   0  0  2  0  0  3  0  0  0  0  0  0
  191.4110  177.2870  144.0720 N   0  0  0  0  0  2  0  0  0  0  0  0
  193.8210  176.4270  144.2620 C   0  0  0  0  0  2  0  0  0  0  0  0
  192.4980  176.7920  146.1370 N   0  0  0  0  0  0  0  0  0  0  0  0
  192.5230  176.8500  144.8530 C   0  0  0  0  0  0  0  0  0  0  0  0
  195.0190  174.6080  145.5000 C   0  0  0  0  0  2  0  0  0  0  0  0
  196.9060  173.2950  142.1610 N   0  0  0  0  0  2  0  0  0  0  0  0
  195.6500  174.2620  144.2360 N   0  0  0  0  0  0  0  0  0  0  0  0
  197.8320  173.6750  143.2300 C   0  0  0  0  0  2  0  0  0  0  0  0
  197.0870  174.1440  144.4900 C   0  0  0  0  0  2  0  0  0  0  0  0
  195.1300  172.9490  143.8510 C   0  0  0  0  0  2  0  0  0  0  0  0
  195.9310  172.3400  142.6880 C   0  0  0  0  0  2  0  0  0  0  0  0
  1  7  1  0  0  0  0
  1  3  1  0  0  0  0
  2  6  1  0  0  0  0
  3 12  1  6  0  0  0
  3  2  1  0  0  0  0
  4  9  2  0  0  0  0
  5  4  1  0  0  0  0
  6  8  2  0  0  0  0
  7 11  2  0  0  0  0
  8  4  1  0  0  0  0
 10 24  1  6  0  0  0
 10  5  1  0  0  0  0
 11  6  1  0  0  0  0
 11 10  1  0  0  0  0
 13 15  1  0  0  0  0
 14 13  1  0  0  0  0
 15 17  1  0  0  0  0
 16 12  1  0  0  0  0
 17 16  1  0  0  0  0
 17 20  2  0  0  0  0
 19 23  1  0  0  0  0
 21 18  1  6  0  0  0
 21 22  1  0  0  0  0
 22 15  1  0  0  0  0
 23 14  1  0  0  0  0
 23 21  1  0  0  0  0
 24 32  1  1  0  0  0
 25 24  1  0  0  0  0
 26 25  1  0  0  0  0
 27 26  1  1  0  0  0
 27 28  1  0  0  0  0
 29 31  1  0  0  0  0
 30 27  1  0  0  0  0
 30 29  1  0  0  0  0
 31 28  1  0  0  0  0
 34 39  1  6  0  0  0
 34 33  1  0  0  0  0
 35 32  1  0  0  0  0
 35 38  1  0  0  0  0
 36 38  1  0  0  0  0
 36 34  1  0  0  0  0
 37 33  1  0  0  0  0
 38 37  2  0  0  0  0
 40 45  1  0  0  0  0
 40 42  1  0  0  0  0
 41 43  1  0  0  0  0
 41 39  1  0  0  0  0
 42 43  1  0  0  0  0
 44 41  1  0  0  0  0
 45 44  1  0  0  0  0
M  END
>  <MODEL>
9

>  <REMARK>
 VINA RESULT:      -7.2      3.468      8.270
  Name = 
  10 active torsions:
  status: ('A' for Active; 'I' for Inactive)
    1  A    between atoms: C_5  and  C_40
    2  A    between atoms: C_7  and  C_21
    3  A    between atoms: N_10  and  C_21
    4  A    between atoms: C_13  and  N_17
    5  A    between atoms: C_13  and  C_26
    6  A    between atoms: C_22  and  C_44
    7  A    between atoms: O_25  and  C_40
    8  A    between atoms: O_25  and  C_44
    9  A    between atoms: N_27  and  C_32
   10  A    between atoms: C_32  and  C_44
                            x       y       z     vdW  Elec       q    Type
                         _______ _______ _______ _____ _____    ______ ____

>  <TORSDO>
F 10

$$$$
