=
 OpenBabel11042419543D

 41 44  0  0  1  0  0  0  0  0999 V2000
  190.1270  171.0000  142.4300 N   0  0  0  0  0  0  0  0  0  0  0  0
  191.7570  177.3710  144.4560 C   0  0  0  0  0  3  0  0  0  0  0  0
  191.0100  175.3070  143.3930 C   0  0  0  0  0  0  0  0  0  0  0  0
  187.7720  173.7260  142.1520 C   0  0  0  0  0  3  0  0  0  0  0  0
  192.2980  174.7250  143.6800 C   0  0  0  0  0  0  0  0  0  0  0  0
  191.3860  171.2570  142.8010 N   0  0  0  0  0  0  0  0  0  0  0  0
  193.2910  175.5140  144.2810 C   0  0  0  0  0  3  0  0  0  0  0  0
  188.6530  174.8250  142.4110 C   0  0  0  0  0  0  0  0  0  0  0  0
  192.5490  173.3490  143.4270 C   0  0  0  0  0  0  0  0  0  0  0  0
  188.1880  176.0740  142.1650 C   0  0  1  0  0  3  0  0  0  0  0  0
  193.0250  176.8290  144.6570 C   0  0  0  0  0  3  0  0  0  0  0  0
  191.4860  172.6030  142.9310 C   0  0  0  0  0  0  0  0  0  0  0  0
  188.2020  172.4280  142.1350 N   0  0  0  0  0  2  0  0  0  0  0  0
  189.5160  172.1990  142.3470 C   0  0  0  0  0  0  0  0  0  0  0  0
  190.3350  173.1920  142.6420 N   0  0  0  0  0  0  0  0  0  0  0  0
  190.0050  174.4920  142.7800 C   0  0  0  0  0  0  0  0  0  0  0  0
  190.7600  176.6100  143.8440 C   0  0  0  0  0  3  0  0  0  0  0  0
  188.6290  178.4490  141.6060 C   0  0  0  0  0  1  0  0  0  0  0  0
  189.0680  177.1350  141.9240 O   0  0  0  0  0  0  0  0  0  0  0  0
  194.0150  172.2490  145.1240 C   0  0  0  0  0  1  0  0  0  0  0  0
  193.7940  172.7240  143.7650 N   0  0  0  0  0  0  0  0  0  0  0  0
  194.8270  172.5730  142.7390 C   0  0  1  0  0  3  0  0  0  0  0  0
  194.4440  173.1920  141.5440 O   0  0  0  0  0  0  0  0  0  0  0  0
  194.5070  172.1820  140.5820 C   0  0  0  0  0  1  0  0  0  0  0  0
  196.1880  173.0890  143.2120 C   0  0  0  0  0  2  0  0  0  0  0  0
  196.4170  174.4910  142.8360 C   0  0  0  0  0  0  0  0  0  0  0  0
  196.6060  175.6390  142.5250 C   0  0  0  0  0  3  0  0  0  0  0  0
  186.7030  176.3180  142.0320 C   0  0  0  0  0  2  0  0  0  0  0  0
  185.6620  177.6460  143.9300 C   0  0  0  0  0  0  0  0  0  0  0  0
  185.7910  178.7330  143.3050 O   0  0  0  0  0  0  0  0  0  0  0  0
  186.0790  176.4100  143.3440 N   0  0  0  0  0  2  0  0  0  0  0  0
  185.0750  177.6530  145.2990 C   0  0  0  0  0  2  0  0  0  0  0  0
  185.5530  176.5040  146.0530 N   0  0  0  0  0  2  0  0  0  0  0  0
  186.7050  176.9360  146.8360 C   0  0  2  0  0  3  0  0  0  0  0  0
  186.8990  178.6460  148.3030 O   0  0  0  0  0  1  0  0  0  0  0  0
  186.6870  178.3850  146.9910 N   0  0  0  0  0  2  0  0  0  0  0  0
  188.0020  176.4790  146.1740 C   0  0  0  0  0  2  0  0  0  0  0  0
  189.3090  174.3960  146.4650 C   0  0  0  0  0  1  0  0  0  0  0  0
  188.8870  175.6930  147.1290 C   0  0  1  0  0  3  0  0  0  0  0  0
  191.2950  175.6290  147.7750 C   0  0  0  0  0  1  0  0  0  0  0  0
  190.1090  176.5250  147.4750 C   0  0  0  0  0  2  0  0  0  0  0  0
  1  6  1  0  0  0  0
  2 11  1  0  0  0  0
  3  5  1  0  0  0  0
  3 17  1  0  0  0  0
  4  8  2  0  0  0  0
  5  7  1  0  0  0  0
  6 12  2  0  0  0  0
  7 11  2  0  0  0  0
  8 16  1  0  0  0  0
  9  5  2  0  0  0  0
  9 21  1  0  0  0  0
 10 28  1  6  0  0  0
 10  8  1  0  0  0  0
 12  9  1  0  0  0  0
 13  4  1  0  0  0  0
 13 14  1  0  0  0  0
 14  1  2  0  0  0  0
 14 15  1  0  0  0  0
 15 16  1  0  0  0  0
 15 12  1  0  0  0  0
 16  3  2  0  0  0  0
 17  2  2  0  0  0  0
 18 19  1  0  0  0  0
 19 10  1  0  0  0  0
 21 20  1  0  0  0  0
 22 25  1  1  0  0  0
 22 21  1  0  0  0  0
 23 22  1  0  0  0  0
 24 23  1  0  0  0  0
 26 25  1  0  0  0  0
 27 26  3  0  0  0  0
 28 31  1  0  0  0  0
 29 32  1  0  0  0  0
 30 29  2  0  0  0  0
 31 29  1  0  0  0  0
 32 33  1  0  0  0  0
 33 34  1  0  0  0  0
 34 37  1  6  0  0  0
 34 36  1  0  0  0  0
 36 35  1  0  0  0  0
 37 39  1  0  0  0  0
 39 38  1  6  0  0  0
 39 41  1  0  0  0  0
 41 40  1  0  0  0  0
M  END
>  <MODEL>
1

>  <REMARK>
 VINA RESULT:      -5.9      0.000      0.000
  Name = 
  15 active torsions:
  status: ('A' for Active; 'I' for Inactive)
    1  A    between atoms: C_6  and  C_11
    2  A    between atoms: C_6  and  C_25
    3  A    between atoms: C_11  and  N_13
    4  A    between atoms: C_11  and  N_31
    5  A    between atoms: C_14  and  N_39
    6  A    between atoms: O_15  and  C_18
    7  A    between atoms: C_16  and  O_24
    8  A    between atoms: C_16  and  C_34
    9  A    between atoms: C_16  and  N_39
   10  A    between atoms: C_17  and  C_40
   11  A    between atoms: C_18  and  C_37
   12  A    between atoms: C_23  and  C_25
   13  A    between atoms: N_31  and  C_40
   14  A    between atoms: C_34  and  C_38
   15  A    between atoms: N_35  and  C_37
                            x       y       z     vdW  Elec       q    Type
                         _______ _______ _______ _____ _____    ______ ____

>  <TORSDO>
F 15

$$$$
=
 OpenBabel11042419543D

 41 44  0  0  1  0  0  0  0  0999 V2000
  193.4240  173.1270  139.7080 N   0  0  0  0  0  0  0  0  0  0  0  0
  192.1540  176.5040  145.5680 C   0  0  0  0  0  3  0  0  0  0  0  0
  192.3060  175.5680  143.3220 C   0  0  0  0  0  0  0  0  0  0  0  0
  190.0490  173.8830  140.7550 C   0  0  0  0  0  3  0  0  0  0  0  0
  193.7440  175.6270  143.4240 C   0  0  0  0  0  0  0  0  0  0  0  0
  194.4530  173.6350  140.3970 N   0  0  0  0  0  0  0  0  0  0  0  0
  194.3300  176.1890  144.5680 C   0  0  0  0  0  3  0  0  0  0  0  0
  190.3320  174.8020  141.8160 C   0  0  0  0  0  0  0  0  0  0  0  0
  194.5700  175.0600  142.4160 C   0  0  0  0  0  0  0  0  0  0  0  0
  189.2950  175.5100  142.3270 C   0  0  1  0  0  3  0  0  0  0  0  0
  193.5410  176.6330  145.6270 C   0  0  0  0  0  3  0  0  0  0  0  0
  193.9220  174.4240  141.3630 C   0  0  0  0  0  0  0  0  0  0  0  0
  191.0340  173.2970  140.0080 N   0  0  0  0  0  2  0  0  0  0  0  0
  192.3120  173.6320  140.2820 C   0  0  0  0  0  0  0  0  0  0  0  0
  192.6000  174.4350  141.2910 N   0  0  0  0  0  0  0  0  0  0  0  0
  191.7210  174.9910  142.1500 C   0  0  0  0  0  0  0  0  0  0  0  0
  191.5500  175.9640  144.4330 C   0  0  0  0  0  3  0  0  0  0  0  0
  189.5100  177.9790  142.3250 C   0  0  0  0  0  1  0  0  0  0  0  0
  189.5090  176.7230  142.9900 O   0  0  0  0  0  0  0  0  0  0  0  0
  196.7660  176.2190  142.1400 C   0  0  0  0  0  1  0  0  0  0  0  0
  195.9990  175.0400  142.5210 N   0  0  0  0  0  0  0  0  0  0  0  0
  196.6710  173.8330  143.0080 C   0  0  1  0  0  3  0  0  0  0  0  0
  197.9410  173.7000  142.4380 O   0  0  0  0  0  0  0  0  0  0  0  0
  197.7860  172.7350  141.4410 C   0  0  0  0  0  1  0  0  0  0  0  0
  196.7480  173.7950  144.5360 C   0  0  0  0  0  2  0  0  0  0  0  0
  195.7380  172.9070  145.1260 C   0  0  0  0  0  0  0  0  0  0  0  0
  194.9070  172.1800  145.6080 C   0  0  0  0  0  3  0  0  0  0  0  0
  187.8750  175.0540  142.0890 C   0  0  0  0  0  2  0  0  0  0  0  0
  186.1060  176.7930  142.6330 C   0  0  0  0  0  0  0  0  0  0  0  0
  186.0810  177.2100  141.4440 O   0  0  0  0  0  0  0  0  0  0  0  0
  186.9620  175.7130  143.0120 N   0  0  0  0  0  2  0  0  0  0  0  0
  185.2380  177.4410  143.6550 C   0  0  0  0  0  2  0  0  0  0  0  0
  186.0220  177.7780  144.8340 N   0  0  0  0  0  2  0  0  0  0  0  0
  185.5400  176.9550  145.9370 C   0  0  2  0  0  3  0  0  0  0  0  0
  184.8620  178.8410  146.9840 O   0  0  0  0  0  1  0  0  0  0  0  0
  184.4260  177.6160  146.6020 N   0  0  0  0  0  2  0  0  0  0  0  0
  186.6700  176.6740  146.9250 C   0  0  0  0  0  2  0  0  0  0  0  0
  188.9770  177.5590  147.0850 C   0  0  0  0  0  1  0  0  0  0  0  0
  188.0360  176.7050  146.2570 C   0  0  1  0  0  3  0  0  0  0  0  0
  189.3930  174.9380  147.3770 C   0  0  0  0  0  1  0  0  0  0  0  0
  188.5720  175.2890  146.1510 C   0  0  0  0  0  2  0  0  0  0  0  0
  1 14  2  0  0  0  0
  1  6  1  0  0  0  0
  2 11  1  0  0  0  0
  3  5  1  0  0  0  0
  3 17  1  0  0  0  0
  4  8  2  0  0  0  0
  5  7  1  0  0  0  0
  6 12  2  0  0  0  0
  7 11  2  0  0  0  0
  8 16  1  0  0  0  0
  8 10  1  0  0  0  0
  9 21  1  0  0  0  0
  9  5  2  0  0  0  0
 10 28  1  6  0  0  0
 10 19  1  0  0  0  0
 12  9  1  0  0  0  0
 13 14  1  0  0  0  0
 13  4  1  0  0  0  0
 14 15  1  0  0  0  0
 15 12  1  0  0  0  0
 15 16  1  0  0  0  0
 16  3  2  0  0  0  0
 17  2  2  0  0  0  0
 18 19  1  0  0  0  0
 20 21  1  0  0  0  0
 21 22  1  0  0  0  0
 22 25  1  1  0  0  0
 23 22  1  0  0  0  0
 24 23  1  0  0  0  0
 25 26  1  0  0  0  0
 26 27  3  0  0  0  0
 28 31  1  0  0  0  0
 29 31  1  0  0  0  0
 29 32  1  0  0  0  0
 30 29  2  0  0  0  0
 32 33  1  0  0  0  0
 33 34  1  0  0  0  0
 34 36  1  0  0  0  0
 34 37  1  1  0  0  0
 36 35  1  0  0  0  0
 39 37  1  0  0  0  0
 39 38  1  1  0  0  0
 41 39  1  0  0  0  0
 41 40  1  0  0  0  0
M  END
>  <MODEL>
2

>  <REMARK>
 VINA RESULT:      -5.7      1.900      2.689
  Name = 
  15 active torsions:
  status: ('A' for Active; 'I' for Inactive)
    1  A    between atoms: C_6  and  C_11
    2  A    between atoms: C_6  and  C_25
    3  A    between atoms: C_11  and  N_13
    4  A    between atoms: C_11  and  N_31
    5  A    between atoms: C_14  and  N_39
    6  A    between atoms: O_15  and  C_18
    7  A    between atoms: C_16  and  O_24
    8  A    between atoms: C_16  and  C_34
    9  A    between atoms: C_16  and  N_39
   10  A    between atoms: C_17  and  C_40
   11  A    between atoms: C_18  and  C_37
   12  A    between atoms: C_23  and  C_25
   13  A    between atoms: N_31  and  C_40
   14  A    between atoms: C_34  and  C_38
   15  A    between atoms: N_35  and  C_37
                            x       y       z     vdW  Elec       q    Type
                         _______ _______ _______ _____ _____    ______ ____

>  <TORSDO>
F 15

$$$$
=
 OpenBabel11042419543D

 41 44  0  0  1  0  0  0  0  0999 V2000
  191.6800  170.3060  141.1160 N   0  0  0  0  0  0  0  0  0  0  0  0
  192.0520  175.3330  145.8010 C   0  0  0  0  0  3  0  0  0  0  0  0
  191.8840  173.8720  143.8550 C   0  0  0  0  0  0  0  0  0  0  0  0
  189.4560  173.1520  141.0080 C   0  0  0  0  0  3  0  0  0  0  0  0
  192.9980  173.1100  144.3650 C   0  0  0  0  0  0  0  0  0  0  0  0
  192.6870  170.2950  141.9960 N   0  0  0  0  0  0  0  0  0  0  0  0
  193.6410  173.5330  145.5380 C   0  0  0  0  0  3  0  0  0  0  0  0
  190.1090  173.9970  141.9620 C   0  0  0  0  0  0  0  0  0  0  0  0
  193.4030  171.9020  143.7350 C   0  0  0  0  0  0  0  0  0  0  0  0
  189.7010  175.2870  142.0410 C   0  0  1  0  0  3  0  0  0  0  0  0
  193.1780  174.6410  146.2440 C   0  0  0  0  0  3  0  0  0  0  0  0
  192.6530  171.4870  142.6410 C   0  0  0  0  0  0  0  0  0  0  0  0
  189.9330  171.9150  140.6740 N   0  0  0  0  0  2  0  0  0  0  0  0
  191.0780  171.5050  141.2600 C   0  0  0  0  0  0  0  0  0  0  0  0
  191.6670  172.2440  142.1840 N   0  0  0  0  0  0  0  0  0  0  0  0
  191.2360  173.4300  142.6580 C   0  0  0  0  0  0  0  0  0  0  0  0
  191.4080  174.9410  144.6270 C   0  0  0  0  0  3  0  0  0  0  0  0
  190.1760  177.6480  142.6300 C   0  0  0  0  0  1  0  0  0  0  0  0
  190.5440  176.2780  142.5560 O   0  0  0  0  0  0  0  0  0  0  0  0
  194.1620  170.0820  145.2680 C   0  0  0  0  0  1  0  0  0  0  0  0
  194.4600  171.0860  144.2560 N   0  0  0  0  0  0  0  0  0  0  0  0
  195.8270  171.2740  143.7650 C   0  0  1  0  0  3  0  0  0  0  0  0
  195.9580  172.4980  143.0990 O   0  0  0  0  0  0  0  0  0  0  0  0
  196.7220  172.2090  141.9670 C   0  0  0  0  0  1  0  0  0  0  0  0
  196.8630  171.1440  144.8830 C   0  0  0  0  0  2  0  0  0  0  0  0
  197.0130  172.3840  145.6550 C   0  0  0  0  0  0  0  0  0  0  0  0
  197.1320  173.4020  146.2890 C   0  0  0  0  0  3  0  0  0  0  0  0
  188.3670  175.6980  141.4640 C   0  0  0  0  0  2  0  0  0  0  0  0
  186.4230  176.8540  142.6210 C   0  0  0  0  0  0  0  0  0  0  0  0
  186.4120  177.7880  141.7760 O   0  0  0  0  0  0  0  0  0  0  0  0
  187.3580  175.7770  142.5110 N   0  0  0  0  0  2  0  0  0  0  0  0
  185.4550  176.8780  143.7530 C   0  0  0  0  0  2  0  0  0  0  0  0
  185.9390  177.7580  144.8050 N   0  0  0  0  0  2  0  0  0  0  0  0
  185.6820  177.1050  146.0830 C   0  0  2  0  0  3  0  0  0  0  0  0
  184.8910  178.5990  147.5840 O   0  0  0  0  0  1  0  0  0  0  0  0
  184.4830  177.6630  146.6950 N   0  0  0  0  0  2  0  0  0  0  0  0
  186.8840  177.2590  147.0120 C   0  0  0  0  0  2  0  0  0  0  0  0
  189.3390  177.5630  147.1140 C   0  0  0  0  0  1  0  0  0  0  0  0
  188.1980  176.9870  146.2970 C   0  0  1  0  0  3  0  0  0  0  0  0
  188.9210  174.8750  147.4090 C   0  0  0  0  0  1  0  0  0  0  0  0
  188.3770  175.4880  146.1330 C   0  0  0  0  0  2  0  0  0  0  0  0
  1 14  2  0  0  0  0
  1  6  1  0  0  0  0
  2 11  1  0  0  0  0
  3  5  1  0  0  0  0
  3 17  1  0  0  0  0
  4  8  2  0  0  0  0
  5  7  1  0  0  0  0
  6 12  2  0  0  0  0
  7 11  2  0  0  0  0
  8 10  1  0  0  0  0
  8 16  1  0  0  0  0
  9 21  1  0  0  0  0
  9  5  2  0  0  0  0
 10 28  1  6  0  0  0
 10 19  1  0  0  0  0
 12  9  1  0  0  0  0
 13  4  1  0  0  0  0
 13 14  1  0  0  0  0
 14 15  1  0  0  0  0
 15 12  1  0  0  0  0
 15 16  1  0  0  0  0
 16  3  2  0  0  0  0
 17  2  2  0  0  0  0
 19 18  1  0  0  0  0
 21 20  1  0  0  0  0
 22 21  1  0  0  0  0
 22 25  1  1  0  0  0
 23 22  1  0  0  0  0
 24 23  1  0  0  0  0
 25 26  1  0  0  0  0
 26 27  3  0  0  0  0
 28 31  1  0  0  0  0
 29 32  1  0  0  0  0
 30 29  2  0  0  0  0
 31 29  1  0  0  0  0
 32 33  1  0  0  0  0
 33 34  1  0  0  0  0
 34 36  1  0  0  0  0
 34 37  1  1  0  0  0
 36 35  1  0  0  0  0
 39 37  1  0  0  0  0
 39 38  1  1  0  0  0
 41 39  1  0  0  0  0
 41 40  1  0  0  0  0
M  END
>  <MODEL>
3

>  <REMARK>
 VINA RESULT:      -5.5      1.748      2.196
  Name = 
  15 active torsions:
  status: ('A' for Active; 'I' for Inactive)
    1  A    between atoms: C_6  and  C_11
    2  A    between atoms: C_6  and  C_25
    3  A    between atoms: C_11  and  N_13
    4  A    between atoms: C_11  and  N_31
    5  A    between atoms: C_14  and  N_39
    6  A    between atoms: O_15  and  C_18
    7  A    between atoms: C_16  and  O_24
    8  A    between atoms: C_16  and  C_34
    9  A    between atoms: C_16  and  N_39
   10  A    between atoms: C_17  and  C_40
   11  A    between atoms: C_18  and  C_37
   12  A    between atoms: C_23  and  C_25
   13  A    between atoms: N_31  and  C_40
   14  A    between atoms: C_34  and  C_38
   15  A    between atoms: N_35  and  C_37
                            x       y       z     vdW  Elec       q    Type
                         _______ _______ _______ _____ _____    ______ ____

>  <TORSDO>
F 15

$$$$
=
 OpenBabel11042419543D

 41 44  0  0  1  0  0  0  0  0999 V2000
  196.2100  174.5930  145.9910 N   0  0  0  0  0  0  0  0  0  0  0  0
  190.3610  172.1190  143.3420 C   0  0  0  0  0  3  0  0  0  0  0  0
  192.1830  173.1390  144.6010 C   0  0  0  0  0  0  0  0  0  0  0  0
  193.1810  176.5630  145.9440 C   0  0  0  0  0  3  0  0  0  0  0  0
  192.9580  171.9390  144.3980 C   0  0  0  0  0  0  0  0  0  0  0  0
  196.1620  173.3090  145.6170 N   0  0  0  0  0  0  0  0  0  0  0  0
  192.3760  170.8480  143.7360 C   0  0  0  0  0  3  0  0  0  0  0  0
  192.2430  175.5420  145.5880 C   0  0  0  0  0  0  0  0  0  0  0  0
  194.3210  171.8760  144.7970 C   0  0  0  0  0  0  0  0  0  0  0  0
  190.9240  175.8360  145.6950 C   0  0  1  0  0  3  0  0  0  0  0  0
  191.0840  170.9340  143.2210 C   0  0  0  0  0  3  0  0  0  0  0  0
  194.8630  173.0300  145.3500 C   0  0  0  0  0  0  0  0  0  0  0  0
  194.5160  176.3100  146.1030 N   0  0  0  0  0  2  0  0  0  0  0  0
  194.9380  175.0380  145.9390 C   0  0  0  0  0  0  0  0  0  0  0  0
  194.1000  174.0920  145.5560 N   0  0  0  0  0  0  0  0  0  0  0  0
  192.7890  174.2450  145.2780 C   0  0  0  0  0  0  0  0  0  0  0  0
  190.9130  173.2100  144.0130 C   0  0  0  0  0  3  0  0  0  0  0  0
  189.3130  174.5460  147.0670 C   0  0  0  0  0  1  0  0  0  0  0  0
  189.9690  174.8230  145.8380 O   0  0  0  0  0  0  0  0  0  0  0  0
  195.8280  170.5950  143.2710 C   0  0  0  0  0  1  0  0  0  0  0  0
  195.1370  170.7240  144.5470 N   0  0  0  0  0  0  0  0  0  0  0  0
  195.2660  169.6930  145.5790 C   0  0  1  0  0  3  0  0  0  0  0  0
  194.7730  168.4640  145.1250 O   0  0  0  0  0  0  0  0  0  0  0  0
  193.7130  168.1660  145.9830 C   0  0  0  0  0  1  0  0  0  0  0  0
  196.7050  169.5560  146.0800 C   0  0  0  0  0  2  0  0  0  0  0  0
  196.7910  168.8010  147.3370 C   0  0  0  0  0  0  0  0  0  0  0  0
  196.8620  168.1780  148.3660 C   0  0  0  0  0  3  0  0  0  0  0  0
  190.4720  177.2760  145.7760 C   0  0  0  0  0  2  0  0  0  0  0  0
  189.7310  177.8060  143.4050 C   0  0  0  0  0  0  0  0  0  0  0  0
  190.9160  177.7760  142.9770 O   0  0  0  0  0  0  0  0  0  0  0  0
  189.4440  177.5480  144.7820 N   0  0  0  0  0  2  0  0  0  0  0  0
  188.6200  178.1230  142.4660 C   0  0  0  0  0  2  0  0  0  0  0  0
  187.7410  176.9710  142.3250 N   0  0  0  0  0  2  0  0  0  0  0  0
  186.3670  177.4460  142.4320 C   0  0  2  0  0  3  0  0  0  0  0  0
  186.2430  177.5330  140.1760 O   0  0  0  0  0  1  0  0  0  0  0  0
  186.0390  178.2830  141.2850 N   0  0  0  0  0  2  0  0  0  0  0  0
  186.1680  178.2140  143.7370 C   0  0  0  0  0  2  0  0  0  0  0  0
  186.1370  176.8180  145.7810 C   0  0  0  0  0  1  0  0  0  0  0  0
  185.2750  177.4640  144.7130 C   0  0  1  0  0  3  0  0  0  0  0  0
  184.6200  178.6320  146.8160 C   0  0  0  0  0  1  0  0  0  0  0  0
  184.2990  178.4380  145.3470 C   0  0  0  0  0  2  0  0  0  0  0  0
  2 17  2  0  0  0  0
  3 16  2  0  0  0  0
  4 13  1  0  0  0  0
  5  3  1  0  0  0  0
  5  9  2  0  0  0  0
  6  1  1  0  0  0  0
  7  5  1  0  0  0  0
  8 10  1  0  0  0  0
  8  4  2  0  0  0  0
  9 12  1  0  0  0  0
 10 28  1  1  0  0  0
 10 19  1  0  0  0  0
 11  2  1  0  0  0  0
 11  7  2  0  0  0  0
 12 15  1  0  0  0  0
 12  6  2  0  0  0  0
 14  1  2  0  0  0  0
 14 13  1  0  0  0  0
 15 14  1  0  0  0  0
 16 15  1  0  0  0  0
 16  8  1  0  0  0  0
 17  3  1  0  0  0  0
 19 18  1  0  0  0  0
 20 21  1  0  0  0  0
 21  9  1  0  0  0  0
 21 22  1  0  0  0  0
 22 25  1  6  0  0  0
 23 22  1  0  0  0  0
 23 24  1  0  0  0  0
 25 26  1  0  0  0  0
 26 27  3  0  0  0  0
 29 31  1  0  0  0  0
 30 29  2  0  0  0  0
 31 28  1  0  0  0  0
 32 29  1  0  0  0  0
 33 34  1  0  0  0  0
 33 32  1  0  0  0  0
 34 37  1  1  0  0  0
 35 36  1  0  0  0  0
 36 34  1  0  0  0  0
 37 39  1  0  0  0  0
 39 41  1  0  0  0  0
 39 38  1  1  0  0  0
 41 40  1  0  0  0  0
M  END
>  <MODEL>
4

>  <REMARK>
 VINA RESULT:      -5.5      2.843      5.494
  Name = 
  15 active torsions:
  status: ('A' for Active; 'I' for Inactive)
    1  A    between atoms: C_6  and  C_11
    2  A    between atoms: C_6  and  C_25
    3  A    between atoms: C_11  and  N_13
    4  A    between atoms: C_11  and  N_31
    5  A    between atoms: C_14  and  N_39
    6  A    between atoms: O_15  and  C_18
    7  A    between atoms: C_16  and  O_24
    8  A    between atoms: C_16  and  C_34
    9  A    between atoms: C_16  and  N_39
   10  A    between atoms: C_17  and  C_40
   11  A    between atoms: C_18  and  C_37
   12  A    between atoms: C_23  and  C_25
   13  A    between atoms: N_31  and  C_40
   14  A    between atoms: C_34  and  C_38
   15  A    between atoms: N_35  and  C_37
                            x       y       z     vdW  Elec       q    Type
                         _______ _______ _______ _____ _____    ______ ____

>  <TORSDO>
F 15

$$$$
=
 OpenBabel11042419543D

 41 44  0  0  1  0  0  0  0  0999 V2000
  194.8040  176.8340  146.1350 N   0  0  0  0  0  0  0  0  0  0  0  0
  190.7880  174.1930  141.2120 C   0  0  0  0  0  3  0  0  0  0  0  0
  192.0090  174.8510  143.2170 C   0  0  0  0  0  0  0  0  0  0  0  0
  191.2870  176.2250  146.6970 C   0  0  0  0  0  3  0  0  0  0  0  0
  193.2330  174.7990  142.4550 C   0  0  0  0  0  0  0  0  0  0  0  0
  195.3690  176.4090  145.0000 N   0  0  0  0  0  0  0  0  0  0  0  0
  193.1940  174.3750  141.1180 C   0  0  0  0  0  3  0  0  0  0  0  0
  190.9970  175.4390  145.5360 C   0  0  0  0  0  0  0  0  0  0  0  0
  194.4620  175.2360  143.0190 C   0  0  0  0  0  0  0  0  0  0  0  0
  189.8000  174.8030  145.4920 C   0  0  1  0  0  3  0  0  0  0  0  0
  191.9820  174.0650  140.5040 C   0  0  0  0  0  3  0  0  0  0  0  0
  194.4090  175.7440  144.3120 C   0  0  0  0  0  0  0  0  0  0  0  0
  192.5380  176.7120  146.9600 N   0  0  0  0  0  2  0  0  0  0  0  0
  193.5250  176.4070  146.0920 C   0  0  0  0  0  0  0  0  0  0  0  0
  193.2690  175.7310  144.9870 N   0  0  0  0  0  0  0  0  0  0  0  0
  192.0630  175.2850  144.5800 C   0  0  0  0  0  0  0  0  0  0  0  0
  190.8050  174.5950  142.5470 C   0  0  0  0  0  3  0  0  0  0  0  0
  189.6950  172.3460  145.1750 C   0  0  0  0  0  1  0  0  0  0  0  0
  189.6140  173.6760  144.6830 O   0  0  0  0  0  0  0  0  0  0  0  0
  196.0060  176.4320  141.4610 C   0  0  0  0  0  1  0  0  0  0  0  0
  195.6820  175.2620  142.2680 N   0  0  0  0  0  0  0  0  0  0  0  0
  196.5870  174.1120  142.3200 C   0  0  1  0  0  3  0  0  0  0  0  0
  197.8680  174.4980  142.7290 O   0  0  0  0  0  0  0  0  0  0  0  0
  197.9400  174.1280  144.0730 C   0  0  0  0  0  1  0  0  0  0  0  0
  196.0420  172.9910  143.2070 C   0  0  0  0  0  2  0  0  0  0  0  0
  195.5550  171.8460  142.4260 C   0  0  0  0  0  0  0  0  0  0  0  0
  195.1590  170.9070  141.7830 C   0  0  0  0  0  3  0  0  0  0  0  0
  188.6780  175.2330  146.4070 C   0  0  0  0  0  2  0  0  0  0  0  0
  186.6640  176.7800  146.3530 C   0  0  0  0  0  0  0  0  0  0  0  0
  186.4560  176.6320  147.5870 O   0  0  0  0  0  0  0  0  0  0  0  0
  187.7630  176.1270  145.7110 N   0  0  0  0  0  2  0  0  0  0  0  0
  185.7490  177.6410  145.5530 C   0  0  0  0  0  2  0  0  0  0  0  0
  185.7440  177.2090  144.1640 N   0  0  0  0  0  2  0  0  0  0  0  0
  185.6320  178.4000  143.3300 C   0  0  2  0  0  3  0  0  0  0  0  0
  183.9120  177.9380  141.9370 O   0  0  0  0  0  1  0  0  0  0  0  0
  184.2310  178.6690  143.0320 N   0  0  0  0  0  2  0  0  0  0  0  0
  186.4350  178.2280  142.0430 C   0  0  0  0  0  2  0  0  0  0  0  0
  187.6030  176.2020  141.2310 C   0  0  0  0  0  1  0  0  0  0  0  0
  187.6490  177.3330  142.2410 C   0  0  1  0  0  3  0  0  0  0  0  0
  189.8330  178.0000  143.2430 C   0  0  0  0  0  1  0  0  0  0  0  0
  188.9110  178.1550  142.0490 C   0  0  0  0  0  2  0  0  0  0  0  0
  2 17  2  0  0  0  0
  3 16  2  0  0  0  0
  4 13  1  0  0  0  0
  5  9  2  0  0  0  0
  5  3  1  0  0  0  0
  6  1  1  0  0  0  0
  7  5  1  0  0  0  0
  8  4  2  0  0  0  0
  9 12  1  0  0  0  0
 10  8  1  0  0  0  0
 10 28  1  1  0  0  0
 11  7  2  0  0  0  0
 11  2  1  0  0  0  0
 12 15  1  0  0  0  0
 12  6  2  0  0  0  0
 14  1  2  0  0  0  0
 14 13  1  0  0  0  0
 15 14  1  0  0  0  0
 16 15  1  0  0  0  0
 16  8  1  0  0  0  0
 17  3  1  0  0  0  0
 19 18  1  0  0  0  0
 19 10  1  0  0  0  0
 20 21  1  0  0  0  0
 21 22  1  0  0  0  0
 21  9  1  0  0  0  0
 22 23  1  0  0  0  0
 22 25  1  1  0  0  0
 23 24  1  0  0  0  0
 26 25  1  0  0  0  0
 27 26  3  0  0  0  0
 29 30  2  0  0  0  0
 31 29  1  0  0  0  0
 31 28  1  0  0  0  0
 32 29  1  0  0  0  0
 33 32  1  0  0  0  0
 34 37  1  6  0  0  0
 34 33  1  0  0  0  0
 35 36  1  0  0  0  0
 36 34  1  0  0  0  0
 37 39  1  0  0  0  0
 39 38  1  6  0  0  0
 41 39  1  0  0  0  0
 41 40  1  0  0  0  0
M  END
>  <MODEL>
5

>  <REMARK>
 VINA RESULT:      -5.4      2.474      4.739
  Name = 
  15 active torsions:
  status: ('A' for Active; 'I' for Inactive)
    1  A    between atoms: C_6  and  C_11
    2  A    between atoms: C_6  and  C_25
    3  A    between atoms: C_11  and  N_13
    4  A    between atoms: C_11  and  N_31
    5  A    between atoms: C_14  and  N_39
    6  A    between atoms: O_15  and  C_18
    7  A    between atoms: C_16  and  O_24
    8  A    between atoms: C_16  and  C_34
    9  A    between atoms: C_16  and  N_39
   10  A    between atoms: C_17  and  C_40
   11  A    between atoms: C_18  and  C_37
   12  A    between atoms: C_23  and  C_25
   13  A    between atoms: N_31  and  C_40
   14  A    between atoms: C_34  and  C_38
   15  A    between atoms: N_35  and  C_37
                            x       y       z     vdW  Elec       q    Type
                         _______ _______ _______ _____ _____    ______ ____

>  <TORSDO>
F 15

$$$$
=
 OpenBabel11042419543D

 41 44  0  0  1  0  0  0  0  0999 V2000
  193.2860  177.4720  144.7390 N   0  0  0  0  0  0  0  0  0  0  0  0
  191.9790  171.8510  140.9910 C   0  0  0  0  0  3  0  0  0  0  0  0
  192.0390  173.7930  142.4650 C   0  0  0  0  0  0  0  0  0  0  0  0
  190.1550  177.0650  142.9810 C   0  0  0  0  0  3  0  0  0  0  0  0
  193.3330  173.3610  142.9350 C   0  0  0  0  0  0  0  0  0  0  0  0
  194.1510  176.4520  144.7800 N   0  0  0  0  0  0  0  0  0  0  0  0
  193.8670  172.1510  142.4670 C   0  0  0  0  0  3  0  0  0  0  0  0
  190.2620  175.6810  142.6290 C   0  0  0  0  0  0  0  0  0  0  0  0
  194.1000  174.1780  143.8100 C   0  0  0  0  0  0  0  0  0  0  0  0
  189.1530  175.0690  142.1450 C   0  0  1  0  0  3  0  0  0  0  0  0
  193.1900  171.3970  141.5100 C   0  0  0  0  0  3  0  0  0  0  0  0
  193.5560  175.4110  144.1490 C   0  0  0  0  0  0  0  0  0  0  0  0
  191.1240  177.7190  143.6920 N   0  0  0  0  0  2  0  0  0  0  0  0
  192.2000  177.0070  144.0870 C   0  0  0  0  0  0  0  0  0  0  0  0
  192.3460  175.7450  143.7260 N   0  0  0  0  0  0  0  0  0  0  0  0
  191.5060  175.0300  142.9500 C   0  0  0  0  0  0  0  0  0  0  0  0
  191.4210  173.0420  141.4560 C   0  0  0  0  0  3  0  0  0  0  0  0
  187.9190  172.9810  141.6340 C   0  0  0  0  0  1  0  0  0  0  0  0
  189.0060  173.6800  142.2230 O   0  0  0  0  0  0  0  0  0  0  0  0
  195.5880  173.0830  145.4910 C   0  0  0  0  0  1  0  0  0  0  0  0
  195.4160  173.8100  144.2410 N   0  0  0  0  0  0  0  0  0  0  0  0
  196.5730  174.1720  143.4170 C   0  0  1  0  0  3  0  0  0  0  0  0
  197.2990  175.2140  144.0020 O   0  0  0  0  0  0  0  0  0  0  0  0
  197.3130  176.2250  143.0390 C   0  0  0  0  0  1  0  0  0  0  0  0
  197.4730  172.9680  143.1300 C   0  0  0  0  0  2  0  0  0  0  0  0
  197.4050  172.5410  141.7270 C   0  0  0  0  0  0  0  0  0  0  0  0
  197.3470  172.1900  140.5760 C   0  0  0  0  0  3  0  0  0  0  0  0
  188.0030  175.8920  141.6150 C   0  0  0  0  0  2  0  0  0  0  0  0
  186.4860  177.4680  142.9070 C   0  0  0  0  0  0  0  0  0  0  0  0
  186.7900  178.4430  142.1690 O   0  0  0  0  0  0  0  0  0  0  0  0
  187.0410  176.1710  142.6720 N   0  0  0  0  0  2  0  0  0  0  0  0
  185.5450  177.6730  144.0430 C   0  0  0  0  0  2  0  0  0  0  0  0
  185.7580  176.6530  145.0580 N   0  0  0  0  0  2  0  0  0  0  0  0
  185.7250  177.3090  146.3600 C   0  0  2  0  0  3  0  0  0  0  0  0
  185.7150  179.3050  147.4210 O   0  0  0  0  0  1  0  0  0  0  0  0
  185.8660  178.7490  146.1950 N   0  0  0  0  0  2  0  0  0  0  0  0
  186.8250  176.7570  147.2630 C   0  0  0  0  0  2  0  0  0  0  0  0
  189.0870  177.4950  146.5780 C   0  0  0  0  0  1  0  0  0  0  0  0
  188.0710  176.3740  146.4780 C   0  0  1  0  0  3  0  0  0  0  0  0
  189.9060  174.6930  146.3060 C   0  0  0  0  0  1  0  0  0  0  0  0
  188.6480  175.0930  147.0540 C   0  0  0  0  0  2  0  0  0  0  0  0
  1  6  1  0  0  0  0
  2 17  2  0  0  0  0
  2 11  1  0  0  0  0
  3  5  1  0  0  0  0
  3 16  2  0  0  0  0
  4 13  1  0  0  0  0
  5  9  2  0  0  0  0
  7  5  1  0  0  0  0
  8 16  1  0  0  0  0
  8  4  2  0  0  0  0
  9 12  1  0  0  0  0
  9 21  1  0  0  0  0
 10 28  1  1  0  0  0
 10 19  1  0  0  0  0
 10  8  1  0  0  0  0
 11  7  2  0  0  0  0
 12  6  2  0  0  0  0
 13 14  1  0  0  0  0
 14  1  2  0  0  0  0
 15 14  1  0  0  0  0
 15 12  1  0  0  0  0
 16 15  1  0  0  0  0
 17  3  1  0  0  0  0
 18 19  1  0  0  0  0
 21 20  1  0  0  0  0
 22 25  1  1  0  0  0
 22 23  1  0  0  0  0
 22 21  1  0  0  0  0
 24 23  1  0  0  0  0
 26 25  1  0  0  0  0
 27 26  3  0  0  0  0
 28 31  1  0  0  0  0
 29 32  1  0  0  0  0
 30 29  2  0  0  0  0
 31 29  1  0  0  0  0
 32 33  1  0  0  0  0
 33 34  1  0  0  0  0
 34 37  1  1  0  0  0
 36 34  1  0  0  0  0
 36 35  1  0  0  0  0
 39 38  1  1  0  0  0
 39 41  1  0  0  0  0
 39 37  1  0  0  0  0
 40 41  1  0  0  0  0
M  END
>  <MODEL>
6

>  <REMARK>
 VINA RESULT:      -5.4      1.990      3.537
  Name = 
  15 active torsions:
  status: ('A' for Active; 'I' for Inactive)
    1  A    between atoms: C_6  and  C_11
    2  A    between atoms: C_6  and  C_25
    3  A    between atoms: C_11  and  N_13
    4  A    between atoms: C_11  and  N_31
    5  A    between atoms: C_14  and  N_39
    6  A    between atoms: O_15  and  C_18
    7  A    between atoms: C_16  and  O_24
    8  A    between atoms: C_16  and  C_34
    9  A    between atoms: C_16  and  N_39
   10  A    between atoms: C_17  and  C_40
   11  A    between atoms: C_18  and  C_37
   12  A    between atoms: C_23  and  C_25
   13  A    between atoms: N_31  and  C_40
   14  A    between atoms: C_34  and  C_38
   15  A    between atoms: N_35  and  C_37
                            x       y       z     vdW  Elec       q    Type
                         _______ _______ _______ _____ _____    ______ ____

>  <TORSDO>
F 15

$$$$
=
 OpenBabel11042419543D

 41 44  0  0  1  0  0  0  0  0999 V2000
  193.7470  172.6530  140.7500 N   0  0  0  0  0  0  0  0  0  0  0  0
  190.9240  175.4160  146.3840 C   0  0  0  0  0  3  0  0  0  0  0  0
  191.7380  174.7660  144.1800 C   0  0  0  0  0  0  0  0  0  0  0  0
  190.3370  173.8480  140.7570 C   0  0  0  0  0  3  0  0  0  0  0  0
  193.0450  174.5580  144.7540 C   0  0  0  0  0  0  0  0  0  0  0  0
  194.5220  172.8790  141.8160 N   0  0  0  0  0  0  0  0  0  0  0  0
  193.2570  174.8570  146.1080 C   0  0  0  0  0  3  0  0  0  0  0  0
  190.3400  174.5590  142.0000 C   0  0  0  0  0  0  0  0  0  0  0  0
  194.0970  173.9900  143.9850 C   0  0  0  0  0  0  0  0  0  0  0  0
  189.2820  175.3650  142.2650 C   0  0  1  0  0  3  0  0  0  0  0  0
  192.2060  175.2920  146.9140 C   0  0  0  0  0  3  0  0  0  0  0  0
  193.7870  173.6180  142.6820 C   0  0  0  0  0  0  0  0  0  0  0  0
  191.4420  173.1990  140.2790 N   0  0  0  0  0  2  0  0  0  0  0  0
  192.5740  173.2670  141.0110 C   0  0  0  0  0  0  0  0  0  0  0  0
  192.5850  173.8700  142.1860 N   0  0  0  0  0  0  0  0  0  0  0  0
  191.5350  174.4560  142.7970 C   0  0  0  0  0  0  0  0  0  0  0  0
  190.6940  175.1420  145.0360 C   0  0  0  0  0  3  0  0  0  0  0  0
  189.7980  177.7340  142.7830 C   0  0  0  0  0  1  0  0  0  0  0  0
  189.3960  176.4270  143.1690 O   0  0  0  0  0  0  0  0  0  0  0  0
  196.3110  174.7990  144.8120 C   0  0  0  0  0  1  0  0  0  0  0  0
  195.3860  173.7060  144.5450 N   0  0  0  0  0  0  0  0  0  0  0  0
  195.7550  172.3200  144.8400 C   0  0  1  0  0  3  0  0  0  0  0  0
  197.0120  172.2540  145.4510 O   0  0  0  0  0  0  0  0  0  0  0  0
  197.1520  170.9200  145.8390 C   0  0  0  0  0  1  0  0  0  0  0  0
  194.6960  171.6100  145.6860 C   0  0  0  0  0  2  0  0  0  0  0  0
  193.8480  170.7170  144.8860 C   0  0  0  0  0  0  0  0  0  0  0  0
  193.1550  169.9830  144.2280 C   0  0  0  0  0  3  0  0  0  0  0  0
  187.9910  175.2000  141.4970 C   0  0  0  0  0  2  0  0  0  0  0  0
  186.3500  177.1390  141.5040 C   0  0  0  0  0  0  0  0  0  0  0  0
  186.7290  177.5250  140.3660 O   0  0  0  0  0  0  0  0  0  0  0  0
  186.9260  175.9790  142.1120 N   0  0  0  0  0  2  0  0  0  0  0  0
  185.2970  177.9040  142.2260 C   0  0  0  0  0  2  0  0  0  0  0  0
  184.9730  177.2450  143.4820 N   0  0  0  0  0  2  0  0  0  0  0  0
  184.8480  178.2770  144.5050 C   0  0  2  0  0  3  0  0  0  0  0  0
  185.5680  180.4140  144.3370 O   0  0  0  0  0  1  0  0  0  0  0  0
  184.6110  179.5710  143.8800 N   0  0  0  0  0  2  0  0  0  0  0  0
  186.1020  178.3190  145.3750 C   0  0  0  0  0  2  0  0  0  0  0  0
  187.4090  176.4480  146.3350 C   0  0  0  0  0  1  0  0  0  0  0  0
  186.1060  177.2200  146.4270 C   0  0  1  0  0  3  0  0  0  0  0  0
  186.0250  179.3570  147.7090 C   0  0  0  0  0  1  0  0  0  0  0  0
  185.9650  177.8450  147.8030 C   0  0  0  0  0  2  0  0  0  0  0  0
  1 14  2  0  0  0  0
  1  6  1  0  0  0  0
  2 11  1  0  0  0  0
  3  5  1  0  0  0  0
  3 17  1  0  0  0  0
  4  8  2  0  0  0  0
  5  7  1  0  0  0  0
  6 12  2  0  0  0  0
  7 11  2  0  0  0  0
  8 10  1  0  0  0  0
  8 16  1  0  0  0  0
  9 21  1  0  0  0  0
  9  5  2  0  0  0  0
 10 28  1  6  0  0  0
 10 19  1  0  0  0  0
 12  9  1  0  0  0  0
 13  4  1  0  0  0  0
 13 14  1  0  0  0  0
 14 15  1  0  0  0  0
 15 12  1  0  0  0  0
 15 16  1  0  0  0  0
 16  3  2  0  0  0  0
 17  2  2  0  0  0  0
 18 19  1  0  0  0  0
 21 20  1  0  0  0  0
 21 22  1  0  0  0  0
 22 23  1  0  0  0  0
 22 25  1  1  0  0  0
 23 24  1  0  0  0  0
 26 25  1  0  0  0  0
 27 26  3  0  0  0  0
 28 31  1  0  0  0  0
 29 31  1  0  0  0  0
 29 32  1  0  0  0  0
 30 29  2  0  0  0  0
 32 33  1  0  0  0  0
 33 34  1  0  0  0  0
 34 37  1  6  0  0  0
 36 35  1  0  0  0  0
 36 34  1  0  0  0  0
 37 39  1  0  0  0  0
 39 38  1  1  0  0  0
 39 41  1  0  0  0  0
 40 41  1  0  0  0  0
M  END
>  <MODEL>
7

>  <REMARK>
 VINA RESULT:      -5.4      2.179      3.344
  Name = 
  15 active torsions:
  status: ('A' for Active; 'I' for Inactive)
    1  A    between atoms: C_6  and  C_11
    2  A    between atoms: C_6  and  C_25
    3  A    between atoms: C_11  and  N_13
    4  A    between atoms: C_11  and  N_31
    5  A    between atoms: C_14  and  N_39
    6  A    between atoms: O_15  and  C_18
    7  A    between atoms: C_16  and  O_24
    8  A    between atoms: C_16  and  C_34
    9  A    between atoms: C_16  and  N_39
   10  A    between atoms: C_17  and  C_40
   11  A    between atoms: C_18  and  C_37
   12  A    between atoms: C_23  and  C_25
   13  A    between atoms: N_31  and  C_40
   14  A    between atoms: C_34  and  C_38
   15  A    between atoms: N_35  and  C_37
                            x       y       z     vdW  Elec       q    Type
                         _______ _______ _______ _____ _____    ______ ____

>  <TORSDO>
F 15

$$$$
=
 OpenBabel11042419543D

 41 44  0  0  1  0  0  0  0  0999 V2000
  191.2660  171.4430  143.4250 N   0  0  0  0  0  0  0  0  0  0  0  0
  194.1260  177.1640  145.9630 C   0  0  0  0  0  3  0  0  0  0  0  0
  192.7600  175.3800  145.0160 C   0  0  0  0  0  0  0  0  0  0  0  0
  189.4990  173.5550  145.7640 C   0  0  0  0  0  3  0  0  0  0  0  0
  193.8610  175.0350  144.1500 C   0  0  0  0  0  0  0  0  0  0  0  0
  192.4410  171.8510  142.9330 N   0  0  0  0  0  0  0  0  0  0  0  0
  195.0260  175.8150  144.1740 C   0  0  0  0  0  3  0  0  0  0  0  0
  190.3610  174.6980  145.7460 C   0  0  0  0  0  0  0  0  0  0  0  0
  193.8040  173.8770  143.3270 C   0  0  0  0  0  0  0  0  0  0  0  0
  189.9120  175.8330  146.3350 C   0  0  1  0  0  3  0  0  0  0  0  0
  195.1540  176.8770  145.0670 C   0  0  0  0  0  3  0  0  0  0  0  0
  192.6630  173.0910  143.4320 C   0  0  0  0  0  0  0  0  0  0  0  0
  189.7390  172.4420  145.0070 N   0  0  0  0  0  2  0  0  0  0  0  0
  190.8220  172.4530  144.2010 C   0  0  0  0  0  0  0  0  0  0  0  0
  191.6600  173.4740  144.2090 N   0  0  0  0  0  0  0  0  0  0  0  0
  191.5760  174.5760  144.9820 C   0  0  0  0  0  0  0  0  0  0  0  0
  192.9500  176.4130  145.9440 C   0  0  0  0  0  3  0  0  0  0  0  0
  189.9010  177.8580  144.9050 C   0  0  0  0  0  1  0  0  0  0  0  0
  190.4260  177.0840  145.9740 O   0  0  0  0  0  0  0  0  0  0  0  0
  195.0940  174.0750  141.1960 C   0  0  0  0  0  1  0  0  0  0  0  0
  194.9070  173.4680  142.5070 N   0  0  0  0  0  0  0  0  0  0  0  0
  195.8310  172.4440  142.9990 C   0  0  1  0  0  3  0  0  0  0  0  0
  196.0610  171.4650  142.0270 O   0  0  0  0  0  0  0  0  0  0  0  0
  195.6910  170.2630  142.6340 C   0  0  0  0  0  1  0  0  0  0  0  0
  197.1480  173.0460  143.4940 C   0  0  0  0  0  2  0  0  0  0  0  0
  197.1590  173.2510  144.9480 C   0  0  0  0  0  0  0  0  0  0  0  0
  197.1680  173.4160  146.1410 C   0  0  0  0  0  3  0  0  0  0  0  0
  188.7610  175.7760  147.3130 C   0  0  0  0  0  2  0  0  0  0  0  0
  186.8730  177.4440  146.9840 C   0  0  0  0  0  0  0  0  0  0  0  0
  187.3720  178.2460  147.8170 O   0  0  0  0  0  0  0  0  0  0  0  0
  187.5250  176.2080  146.6760 N   0  0  0  0  0  2  0  0  0  0  0  0
  185.5850  177.7840  146.3180 C   0  0  0  0  0  2  0  0  0  0  0  0
  185.3650  176.9060  145.1780 N   0  0  0  0  0  2  0  0  0  0  0  0
  185.8600  177.5910  143.9900 C   0  0  2  0  0  3  0  0  0  0  0  0
  185.6550  179.7900  143.5090 O   0  0  0  0  0  1  0  0  0  0  0  0
  184.9340  178.6470  143.6020 N   0  0  0  0  0  2  0  0  0  0  0  0
  186.0560  176.5980  142.8460 C   0  0  0  0  0  2  0  0  0  0  0  0
  188.1890  175.3450  142.7340 C   0  0  0  0  0  1  0  0  0  0  0  0
  187.4800  176.6170  142.3100 C   0  0  1  0  0  3  0  0  0  0  0  0
  186.2500  177.5370  140.3450 C   0  0  0  0  0  1  0  0  0  0  0  0
  187.4420  176.7140  140.7960 C   0  0  0  0  0  2  0  0  0  0  0  0
  1 14  2  0  0  0  0
  3 17  1  0  0  0  0
  5  7  1  0  0  0  0
  5  3  1  0  0  0  0
  6  1  1  0  0  0  0
  6 12  2  0  0  0  0
  7 11  2  0  0  0  0
  8  4  2  0  0  0  0
  8 10  1  0  0  0  0
  9 12  1  0  0  0  0
  9  5  2  0  0  0  0
 10 28  1  6  0  0  0
 11  2  1  0  0  0  0
 12 15  1  0  0  0  0
 13  4  1  0  0  0  0
 14 15  1  0  0  0  0
 14 13  1  0  0  0  0
 15 16  1  0  0  0  0
 16  3  2  0  0  0  0
 16  8  1  0  0  0  0
 17  2  2  0  0  0  0
 18 19  1  0  0  0  0
 19 10  1  0  0  0  0
 20 21  1  0  0  0  0
 21 22  1  0  0  0  0
 21  9  1  0  0  0  0
 22 25  1  6  0  0  0
 23 24  1  0  0  0  0
 23 22  1  0  0  0  0
 25 26  1  0  0  0  0
 26 27  3  0  0  0  0
 29 30  2  0  0  0  0
 31 29  1  0  0  0  0
 31 28  1  0  0  0  0
 32 29  1  0  0  0  0
 33 32  1  0  0  0  0
 34 37  1  6  0  0  0
 34 33  1  0  0  0  0
 35 36  1  0  0  0  0
 36 34  1  0  0  0  0
 39 38  1  6  0  0  0
 39 37  1  0  0  0  0
 40 41  1  0  0  0  0
 41 39  1  0  0  0  0
M  END
>  <MODEL>
8

>  <REMARK>
 VINA RESULT:      -5.3      1.749      3.630
  Name = 
  15 active torsions:
  status: ('A' for Active; 'I' for Inactive)
    1  A    between atoms: C_6  and  C_11
    2  A    between atoms: C_6  and  C_25
    3  A    between atoms: C_11  and  N_13
    4  A    between atoms: C_11  and  N_31
    5  A    between atoms: C_14  and  N_39
    6  A    between atoms: O_15  and  C_18
    7  A    between atoms: C_16  and  O_24
    8  A    between atoms: C_16  and  C_34
    9  A    between atoms: C_16  and  N_39
   10  A    between atoms: C_17  and  C_40
   11  A    between atoms: C_18  and  C_37
   12  A    between atoms: C_23  and  C_25
   13  A    between atoms: N_31  and  C_40
   14  A    between atoms: C_34  and  C_38
   15  A    between atoms: N_35  and  C_37
                            x       y       z     vdW  Elec       q    Type
                         _______ _______ _______ _____ _____    ______ ____

>  <TORSDO>
F 15

$$$$
=
 OpenBabel11042419543D

 41 44  0  0  1  0  0  0  0  0999 V2000
  195.6010  174.9650  146.0180 N   0  0  0  0  0  0  0  0  0  0  0  0
  189.6950  172.5750  143.4180 C   0  0  0  0  0  3  0  0  0  0  0  0
  191.5550  173.5030  144.6930 C   0  0  0  0  0  0  0  0  0  0  0  0
  192.4890  176.7490  146.4580 C   0  0  0  0  0  3  0  0  0  0  0  0
  192.3670  172.3910  144.2650 C   0  0  0  0  0  0  0  0  0  0  0  0
  195.5850  173.7480  145.4630 N   0  0  0  0  0  0  0  0  0  0  0  0
  191.7900  171.3750  143.4890 C   0  0  0  0  0  3  0  0  0  0  0  0
  191.5750  175.7390  146.0170 C   0  0  0  0  0  0  0  0  0  0  0  0
  193.7570  172.3470  144.5610 C   0  0  0  0  0  0  0  0  0  0  0  0
  190.2550  175.9410  146.2510 C   0  0  1  0  0  3  0  0  0  0  0  0
  190.4610  171.4620  143.0770 C   0  0  0  0  0  3  0  0  0  0  0  0
  194.2850  173.4380  145.2420 C   0  0  0  0  0  0  0  0  0  0  0  0
  193.8420  176.5510  146.4910 N   0  0  0  0  0  2  0  0  0  0  0  0
  194.3090  175.3420  146.1140 C   0  0  0  0  0  0  0  0  0  0  0  0
  193.4900  174.4160  145.6510 N   0  0  0  0  0  0  0  0  0  0  0  0
  192.1570  174.5330  145.4850 C   0  0  0  0  0  0  0  0  0  0  0  0
  190.2440  173.5880  144.2050 C   0  0  0  0  0  3  0  0  0  0  0  0
  188.8410  174.3520  147.5230 C   0  0  0  0  0  1  0  0  0  0  0  0
  189.3620  174.8660  146.3050 O   0  0  0  0  0  0  0  0  0  0  0  0
  195.2460  171.4080  142.7890 C   0  0  0  0  0  1  0  0  0  0  0  0
  194.6050  171.2910  144.0920 N   0  0  0  0  0  0  0  0  0  0  0  0
  194.8160  170.1080  144.9300 C   0  0  1  0  0  3  0  0  0  0  0  0
  194.3110  168.9590  144.3120 O   0  0  0  0  0  0  0  0  0  0  0  0
  193.3310  168.4840  145.1860 C   0  0  0  0  0  1  0  0  0  0  0  0
  196.2870  169.9260  145.3090 C   0  0  0  0  0  2  0  0  0  0  0  0
  196.4520  169.3420  146.6470 C   0  0  0  0  0  0  0  0  0  0  0  0
  196.5830  168.8630  147.7450 C   0  0  0  0  0  3  0  0  0  0  0  0
  189.7450  177.3260  146.5730 C   0  0  0  0  0  2  0  0  0  0  0  0
  187.2220  177.6200  146.5390 C   0  0  0  0  0  0  0  0  0  0  0  0
  187.1380  177.4550  147.7850 O   0  0  0  0  0  0  0  0  0  0  0  0
  188.4910  177.5850  145.8800 N   0  0  0  0  0  2  0  0  0  0  0  0
  185.9840  177.8440  145.7430 C   0  0  0  0  0  2  0  0  0  0  0  0
  185.9490  179.2120  145.2470 N   0  0  0  0  0  2  0  0  0  0  0  0
  185.4960  179.1700  143.8620 C   0  0  2  0  0  3  0  0  0  0  0  0
  183.7150  178.1710  142.8910 O   0  0  0  0  0  1  0  0  0  0  0  0
  184.0410  179.1050  143.8160 N   0  0  0  0  0  2  0  0  0  0  0  0
  186.1130  177.9770  143.1350 C   0  0  0  0  0  2  0  0  0  0  0  0
  188.4440  177.9160  142.3010 C   0  0  0  0  0  1  0  0  0  0  0  0
  187.0400  178.4100  142.0090 C   0  0  1  0  0  3  0  0  0  0  0  0
  187.2740  176.5350  140.3810 C   0  0  0  0  0  1  0  0  0  0  0  0
  186.5410  177.8240  140.7000 C   0  0  0  0  0  2  0  0  0  0  0  0
  1 14  2  0  0  0  0
  2 17  2  0  0  0  0
  3 16  2  0  0  0  0
  4 13  1  0  0  0  0
  5  9  2  0  0  0  0
  5  3  1  0  0  0  0
  6  1  1  0  0  0  0
  7  5  1  0  0  0  0
  8 10  1  0  0  0  0
  8  4  2  0  0  0  0
  9 12  1  0  0  0  0
 10 19  1  0  0  0  0
 10 28  1  1  0  0  0
 11  2  1  0  0  0  0
 11  7  2  0  0  0  0
 12  6  2  0  0  0  0
 12 15  1  0  0  0  0
 14 13  1  0  0  0  0
 15 14  1  0  0  0  0
 16 15  1  0  0  0  0
 16  8  1  0  0  0  0
 17  3  1  0  0  0  0
 19 18  1  0  0  0  0
 20 21  1  0  0  0  0
 21  9  1  0  0  0  0
 21 22  1  0  0  0  0
 22 25  1  6  0  0  0
 23 22  1  0  0  0  0
 23 24  1  0  0  0  0
 25 26  1  0  0  0  0
 26 27  3  0  0  0  0
 29 30  2  0  0  0  0
 31 29  1  0  0  0  0
 31 28  1  0  0  0  0
 32 29  1  0  0  0  0
 33 32  1  0  0  0  0
 34 37  1  1  0  0  0
 34 33  1  0  0  0  0
 35 36  1  0  0  0  0
 36 34  1  0  0  0  0
 39 38  1  1  0  0  0
 39 37  1  0  0  0  0
 40 41  1  0  0  0  0
 41 39  1  0  0  0  0
M  END
>  <MODEL>
9

>  <REMARK>
 VINA RESULT:      -5.2      2.647      5.217
  Name = 
  15 active torsions:
  status: ('A' for Active; 'I' for Inactive)
    1  A    between atoms: C_6  and  C_11
    2  A    between atoms: C_6  and  C_25
    3  A    between atoms: C_11  and  N_13
    4  A    between atoms: C_11  and  N_31
    5  A    between atoms: C_14  and  N_39
    6  A    between atoms: O_15  and  C_18
    7  A    between atoms: C_16  and  O_24
    8  A    between atoms: C_16  and  C_34
    9  A    between atoms: C_16  and  N_39
   10  A    between atoms: C_17  and  C_40
   11  A    between atoms: C_18  and  C_37
   12  A    between atoms: C_23  and  C_25
   13  A    between atoms: N_31  and  C_40
   14  A    between atoms: C_34  and  C_38
   15  A    between atoms: N_35  and  C_37
                            x       y       z     vdW  Elec       q    Type
                         _______ _______ _______ _____ _____    ______ ____

>  <TORSDO>
F 15

$$$$
