=
 OpenBabel11042414073D

 49 54  0  0  1  0  0  0  0  0999 V2000
  192.0180  174.2780  141.8220 C   0  0  0  0  0  0  0  0  0  0  0  0
  192.7630  175.4540  142.0100 C   0  0  0  0  0  3  0  0  0  0  0  0
  190.9580  176.4310  143.2970 C   0  0  0  0  0  0  0  0  0  0  0  0
  190.2070  175.2660  143.1160 C   0  0  0  0  0  3  0  0  0  0  0  0
  192.2400  176.5250  142.7330 C   0  0  0  0  0  3  0  0  0  0  0  0
  190.7190  174.1810  142.3850 C   0  0  0  0  0  0  0  0  0  0  0  0
  189.6460  171.9820  143.1250 N   0  0  0  0  0  2  0  0  0  0  0  0
  189.8540  173.0020  142.1390 C   0  0  0  0  0  0  0  0  0  0  0  0
  189.2550  172.8940  141.0350 O   0  0  0  0  0  0  0  0  0  0  0  0
  190.4900  171.7710  144.2950 C   0  0  0  0  0  2  0  0  0  0  0  0
  191.7280  170.9690  143.9140 C   0  0  0  0  0  2  0  0  0  0  0  0
  194.2990  173.1740  145.2030 C   0  0  0  0  0  0  0  0  0  0  0  0
  196.3870  172.0390  145.6900 C   0  0  0  0  0  3  0  0  0  0  0  0
  194.5170  169.7800  144.5730 O   0  0  0  0  0  0  0  0  0  0  0  0
  196.1340  174.4340  146.1030 C   0  0  0  0  0  3  0  0  0  0  0  0
  194.2250  170.9940  144.7220 C   0  0  0  0  0  0  0  0  0  0  0  0
  192.9470  171.6510  144.4290 C   0  0  0  0  0  0  0  0  0  0  0  0
  192.9820  172.9170  144.7080 N   0  0  0  0  0  0  0  0  0  0  0  0
  194.8050  174.3990  145.6360 C   0  0  0  0  0  3  0  0  0  0  0  0
  195.0730  172.0400  145.2300 C   0  0  0  0  0  0  0  0  0  0  0  0
  196.9190  173.2620  146.1330 C   0  0  0  0  0  3  0  0  0  0  0  0
  190.3740  177.5790  144.0600 C   0  0  2  0  0  3  0  0  0  0  0  0
  191.1550  178.7230  143.8540 O   0  0  0  0  0  1  0  0  0  0  0  0
  190.2610  177.2290  145.5520 C   0  0  2  0  0  3  0  0  0  0  0  0
  191.6700  176.4880  147.5720 C   0  0  0  0  0  2  0  0  0  0  0  0
  191.2680  175.2420  146.7970 C   0  0  0  0  0  2  0  0  0  0  0  0
  191.5520  176.5410  146.0580 C   0  0  0  0  0  3  0  0  0  0  0  0
  187.8540  177.3080  146.0010 N   0  0  0  0  0  0  0  0  0  0  0  0
  188.9370  176.6070  145.9410 C   0  0  0  0  0  3  0  0  0  0  0  0
  186.3240  177.0810  147.8790 C   0  0  0  0  0  1  0  0  0  0  0  0
  186.6100  176.7120  146.4240 C   0  0  1  0  0  3  0  0  0  0  0  0
  185.2180  179.1910  144.6320 C   0  0  0  0  0  0  0  0  0  0  0  0
  185.3590  180.2420  143.9520 O   0  0  0  0  0  0  0  0  0  0  0  0
  184.4580  177.7490  146.2550 C   0  0  0  0  0  3  0  0  0  0  0  0
  184.3090  179.0850  145.6990 N   0  0  0  0  0  0  0  0  0  0  0  0
  185.9710  177.9450  144.4220 C   0  0  1  0  0  3  0  0  0  0  0  0
  185.5140  177.0450  145.4960 N   0  0  0  0  0  0  0  0  0  0  0  0
  186.5380  176.1010  142.7710 C   0  0  0  0  0  1  0  0  0  0  0  0
  185.6950  177.3300  143.0470 C   0  0  0  0  0  2  0  0  0  0  0  0
  192.5980  173.1570  141.1330 N   0  0  0  0  0  2  0  0  0  0  0  0
  192.3800  173.8100  138.4430 S   0  0  0  0  0  0  0  0  0  0  0  0
  191.9280  172.6390  137.3240 C   0  0  0  0  0  0  0  0  0  0  0  0
  191.7710  172.9140  135.8700 C   0  0  0  0  0  1  0  0  0  0  0  0
  192.3610  172.7790  139.7740 C   0  0  0  0  0  0  0  0  0  0  0  0
  191.9840  171.5030  139.3760 C   0  0  0  0  0  3  0  0  0  0  0  0
  191.7450  171.4150  137.9940 C   0  0  0  0  0  0  0  0  0  0  0  0
  191.3710  170.1740  137.3600 N   0  0  0  0  0  0  0  0  0  0  0  0
  190.0030  169.6790  137.3560 C   0  0  0  0  0  1  0  0  0  0  0  0
  192.3770  169.3520  136.6960 C   0  0  0  0  0  1  0  0  0  0  0  0
  1  2  2  0  0  0  0
  1  6  1  0  0  0  0
  2  5  1  0  0  0  0
  3 22  1  0  0  0  0
  4  3  1  0  0  0  0
  5  3  2  0  0  0  0
  6  4  2  0  0  0  0
  7 10  1  0  0  0  0
  8  6  1  0  0  0  0
  8  7  1  0  0  0  0
  9  8  2  0  0  0  0
 11 10  1  0  0  0  0
 11 17  1  0  0  0  0
 12 20  2  0  0  0  0
 12 19  1  0  0  0  0
 13 21  2  0  0  0  0
 14 16  2  0  0  0  0
 15 21  1  0  0  0  0
 16 20  1  0  0  0  0
 17 18  2  0  0  0  0
 17 16  1  0  0  0  0
 18 12  1  0  0  0  0
 19 15  2  0  0  0  0
 20 13  1  0  0  0  0
 22 23  1  1  0  0  0
 22 24  1  0  0  0  0
 24 29  1  6  0  0  0
 24 27  1  0  0  0  0
 26 25  1  0  0  0  0
 27 26  1  0  0  0  0
 27 25  1  0  0  0  0
 28 31  1  0  0  0  0
 29 28  2  0  0  0  0
 31 30  1  1  0  0  0
 32 35  1  0  0  0  0
 33 32  2  0  0  0  0
 35 34  2  0  0  0  0
 36 39  1  6  0  0  0
 36 32  1  0  0  0  0
 36 37  1  0  0  0  0
 37 34  1  0  0  0  0
 37 31  1  0  0  0  0
 38 39  1  0  0  0  0
 40  1  1  0  0  0  0
 41 44  1  0  0  0  0
 42 46  2  0  0  0  0
 42 41  1  0  0  0  0
 43 42  1  0  0  0  0
 44 40  1  0  0  0  0
 45 44  2  0  0  0  0
 46 45  1  0  0  0  0
 47 46  1  0  0  0  0
 48 47  1  0  0  0  0
 49 47  1  0  0  0  0
M  END
>  <MODEL>
1

>  <REMARK>
 VINA RESULT:      -7.4      0.000      0.000
  Name = 
  14 active torsions:
  status: ('A' for Active; 'I' for Inactive)
    1  A    between atoms: N_1  and  C_26
    2  A    between atoms: C_3  and  C_20
    3  A    between atoms: N_5  and  C_41
    4  A    between atoms: C_7  and  C_12
    5  A    between atoms: C_7  and  C_29
    6  A    between atoms: C_8  and  N_11
    7  A    between atoms: N_11  and  C_28
    8  A    between atoms: C_12  and  N_38
    9  A    between atoms: C_15  and  C_20
   10  A    between atoms: C_15  and  C_22
   11  A    between atoms: C_20  and  C_45
   12  A    between atoms: C_26  and  N_44
   13  A    between atoms: C_35  and  C_40
   14  A    between atoms: C_46  and  C_47
                            x       y       z     vdW  Elec       q    Type
                         _______ _______ _______ _____ _____    ______ ____

>  <TORSDO>
F 14

$$$$
=
 OpenBabel11042414073D

 49 54  0  0  1  0  0  0  0  0999 V2000
  188.7690  174.1960  141.1820 C   0  0  0  0  0  0  0  0  0  0  0  0
  188.1720  175.4660  141.1230 C   0  0  0  0  0  3  0  0  0  0  0  0
  189.7160  176.3060  142.7910 C   0  0  0  0  0  0  0  0  0  0  0  0
  190.3180  175.0460  142.8580 C   0  0  0  0  0  3  0  0  0  0  0  0
  188.6320  176.5120  141.9220 C   0  0  0  0  0  3  0  0  0  0  0  0
  189.8610  173.9820  142.0620 C   0  0  0  0  0  0  0  0  0  0  0  0
  191.6920  172.2630  141.5900 N   0  0  0  0  0  2  0  0  0  0  0  0
  190.4680  172.6400  142.2340 C   0  0  0  0  0  0  0  0  0  0  0  0
  189.9080  171.7990  142.9870 O   0  0  0  0  0  0  0  0  0  0  0  0
  192.2860  172.9590  140.4550 C   0  0  0  0  0  2  0  0  0  0  0  0
  193.8000  173.0260  140.6120 C   0  0  0  0  0  2  0  0  0  0  0  0
  194.4950  175.1930  143.4330 C   0  0  0  0  0  0  0  0  0  0  0  0
  194.9930  173.9850  145.4770 C   0  0  0  0  0  3  0  0  0  0  0  0
  194.5160  171.7360  143.3420 O   0  0  0  0  0  0  0  0  0  0  0  0
  194.9520  176.4280  145.4410 C   0  0  0  0  0  3  0  0  0  0  0  0
  194.4590  172.9780  143.1530 C   0  0  0  0  0  0  0  0  0  0  0  0
  194.1430  173.6800  141.9050 C   0  0  0  0  0  0  0  0  0  0  0  0
  194.1610  174.9680  142.0610 N   0  0  0  0  0  0  0  0  0  0  0  0
  194.6280  176.4260  144.0690 C   0  0  0  0  0  3  0  0  0  0  0  0
  194.6780  174.0180  144.1220 C   0  0  0  0  0  0  0  0  0  0  0  0
  195.1300  175.2160  146.1410 C   0  0  0  0  0  3  0  0  0  0  0  0
  190.2100  177.4120  143.6700 C   0  0  2  0  0  3  0  0  0  0  0  0
  191.5260  177.7370  143.3190 O   0  0  0  0  0  1  0  0  0  0  0  0
  190.0980  177.0110  145.1490 C   0  0  2  0  0  3  0  0  0  0  0  0
  191.6280  176.3670  147.1150 C   0  0  0  0  0  2  0  0  0  0  0  0
  191.0630  175.0860  146.5190 C   0  0  0  0  0  2  0  0  0  0  0  0
  191.3750  176.2730  145.6190 C   0  0  0  0  0  3  0  0  0  0  0  0
  187.7100  177.1430  145.6790 N   0  0  0  0  0  0  0  0  0  0  0  0
  188.7610  176.4100  145.5260 C   0  0  0  0  0  3  0  0  0  0  0  0
  186.2910  176.6940  147.6030 C   0  0  0  0  0  1  0  0  0  0  0  0
  186.4560  176.5610  146.0900 C   0  0  1  0  0  3  0  0  0  0  0  0
  185.2560  179.3450  144.6390 C   0  0  0  0  0  0  0  0  0  0  0  0
  185.4750  180.4210  144.0220 O   0  0  0  0  0  0  0  0  0  0  0  0
  184.4660  177.8880  146.2340 C   0  0  0  0  0  3  0  0  0  0  0  0
  184.4540  179.2740  145.7910 N   0  0  0  0  0  0  0  0  0  0  0  0
  185.7990  178.0320  144.2620 C   0  0  1  0  0  3  0  0  0  0  0  0
  185.3300  177.1150  145.3150 N   0  0  0  0  0  0  0  0  0  0  0  0
  185.8220  178.4400  141.7550 C   0  0  0  0  0  1  0  0  0  0  0  0
  185.3020  177.5770  142.8870 C   0  0  0  0  0  2  0  0  0  0  0  0
  188.3280  173.1480  140.3020 N   0  0  0  0  0  2  0  0  0  0  0  0
  189.3890  171.3040  138.5170 S   0  0  0  0  0  0  0  0  0  0  0  0
  189.9550  171.8110  137.0170 C   0  0  0  0  0  0  0  0  0  0  0  0
  190.5540  170.8890  136.0140 C   0  0  0  0  0  1  0  0  0  0  0  0
  188.8780  172.8270  139.0210 C   0  0  0  0  0  0  0  0  0  0  0  0
  189.1560  173.7670  138.0360 C   0  0  0  0  0  3  0  0  0  0  0  0
  189.7570  173.2000  136.9000 C   0  0  0  0  0  0  0  0  0  0  0  0
  190.1030  173.9890  135.7420 N   0  0  0  0  0  0  0  0  0  0  0  0
  191.2720  174.8540  135.7080 C   0  0  0  0  0  1  0  0  0  0  0  0
  189.2670  173.9520  134.5470 C   0  0  0  0  0  1  0  0  0  0  0  0
  1  6  1  0  0  0  0
  2  1  2  0  0  0  0
  2  5  1  0  0  0  0
  3  4  1  0  0  0  0
  3 22  1  0  0  0  0
  5  3  2  0  0  0  0
  6  8  1  0  0  0  0
  6  4  2  0  0  0  0
  7  8  1  0  0  0  0
  8  9  2  0  0  0  0
 10 11  1  0  0  0  0
 10  7  1  0  0  0  0
 11 17  1  0  0  0  0
 12 19  2  0  0  0  0
 12 20  1  0  0  0  0
 13 21  1  0  0  0  0
 15 21  2  0  0  0  0
 16 14  2  0  0  0  0
 16 20  1  0  0  0  0
 17 18  2  0  0  0  0
 17 16  1  0  0  0  0
 18 12  1  0  0  0  0
 19 15  1  0  0  0  0
 20 13  2  0  0  0  0
 22 23  1  6  0  0  0
 22 24  1  0  0  0  0
 24 29  1  6  0  0  0
 24 27  1  0  0  0  0
 26 25  1  0  0  0  0
 27 26  1  0  0  0  0
 27 25  1  0  0  0  0
 28 31  1  0  0  0  0
 29 28  2  0  0  0  0
 31 30  1  1  0  0  0
 32 35  1  0  0  0  0
 33 32  2  0  0  0  0
 35 34  2  0  0  0  0
 36 39  1  6  0  0  0
 36 32  1  0  0  0  0
 36 37  1  0  0  0  0
 37 31  1  0  0  0  0
 37 34  1  0  0  0  0
 38 39  1  0  0  0  0
 40  1  1  0  0  0  0
 41 44  1  0  0  0  0
 42 41  1  0  0  0  0
 43 42  1  0  0  0  0
 44 40  1  0  0  0  0
 45 44  2  0  0  0  0
 46 42  2  0  0  0  0
 46 45  1  0  0  0  0
 47 46  1  0  0  0  0
 48 47  1  0  0  0  0
 49 47  1  0  0  0  0
M  END
>  <MODEL>
2

>  <REMARK>
 VINA RESULT:      -7.3      1.844      2.678
  Name = 
  14 active torsions:
  status: ('A' for Active; 'I' for Inactive)
    1  A    between atoms: N_1  and  C_26
    2  A    between atoms: C_3  and  C_20
    3  A    between atoms: N_5  and  C_41
    4  A    between atoms: C_7  and  C_12
    5  A    between atoms: C_7  and  C_29
    6  A    between atoms: C_8  and  N_11
    7  A    between atoms: N_11  and  C_28
    8  A    between atoms: C_12  and  N_38
    9  A    between atoms: C_15  and  C_20
   10  A    between atoms: C_15  and  C_22
   11  A    between atoms: C_20  and  C_45
   12  A    between atoms: C_26  and  N_44
   13  A    between atoms: C_35  and  C_40
   14  A    between atoms: C_46  and  C_47
                            x       y       z     vdW  Elec       q    Type
                         _______ _______ _______ _____ _____    ______ ____

>  <TORSDO>
F 14

$$$$
=
 OpenBabel11042414073D

 49 54  0  0  1  0  0  0  0  0999 V2000
  190.3880  175.9900  144.4110 C   0  0  0  0  0  0  0  0  0  0  0  0
  191.2970  176.9940  144.0390 C   0  0  0  0  0  3  0  0  0  0  0  0
  193.0360  175.9620  145.3740 C   0  0  0  0  0  0  0  0  0  0  0  0
  192.1390  174.9570  145.7520 C   0  0  0  0  0  3  0  0  0  0  0  0
  192.6060  176.9890  144.5180 C   0  0  0  0  0  3  0  0  0  0  0  0
  190.8160  174.9540  145.2810 C   0  0  0  0  0  0  0  0  0  0  0  0
  189.7270  172.6450  145.1450 N   0  0  0  0  0  2  0  0  0  0  0  0
  189.8750  173.9220  145.7800 C   0  0  0  0  0  0  0  0  0  0  0  0
  189.1900  174.1570  146.8120 O   0  0  0  0  0  0  0  0  0  0  0  0
  190.1700  172.3300  143.7930 C   0  0  0  0  0  2  0  0  0  0  0  0
  189.0090  172.4570  142.8150 C   0  0  0  0  0  2  0  0  0  0  0  0
  190.5600  172.0290  139.5680 C   0  0  0  0  0  0  0  0  0  0  0  0
  189.9610  173.7600  137.9770 C   0  0  0  0  0  3  0  0  0  0  0  0
  188.4500  174.5640  140.6070 O   0  0  0  0  0  0  0  0  0  0  0  0
  191.4440  171.9260  137.3370 C   0  0  0  0  0  3  0  0  0  0  0  0
  189.1950  173.5650  140.4420 C   0  0  0  0  0  0  0  0  0  0  0  0
  189.5290  172.5260  141.4220 C   0  0  0  0  0  0  0  0  0  0  0  0
  190.3210  171.6290  140.9200 N   0  0  0  0  0  0  0  0  0  0  0  0
  191.3510  171.3690  138.6290 C   0  0  0  0  0  3  0  0  0  0  0  0
  189.8950  173.1870  139.2440 C   0  0  0  0  0  0  0  0  0  0  0  0
  190.7510  173.1120  137.0130 C   0  0  0  0  0  3  0  0  0  0  0  0
  194.4310  175.9520  145.9140 C   0  0  2  0  0  3  0  0  0  0  0  0
  194.9880  177.2320  145.7970 O   0  0  0  0  0  1  0  0  0  0  0  0
  195.2790  174.8960  145.1880 C   0  0  2  0  0  3  0  0  0  0  0  0
  196.4820  172.6990  145.7750 C   0  0  0  0  0  2  0  0  0  0  0  0
  197.5370  173.7780  145.5870 C   0  0  0  0  0  2  0  0  0  0  0  0
  196.1840  174.1320  146.1840 C   0  0  0  0  0  3  0  0  0  0  0  0
  195.5110  174.9640  142.7500 N   0  0  0  0  0  0  0  0  0  0  0  0
  195.9090  175.3880  143.9030 C   0  0  0  0  0  3  0  0  0  0  0  0
  197.6370  175.6720  141.8030 C   0  0  0  0  0  1  0  0  0  0  0  0
  196.1570  175.4030  141.5370 C   0  0  1  0  0  3  0  0  0  0  0  0
  194.1630  174.7560  138.9100 C   0  0  0  0  0  0  0  0  0  0  0  0
  193.4580  175.1850  137.9580 O   0  0  0  0  0  0  0  0  0  0  0  0
  194.7730  173.5930  140.7990 C   0  0  0  0  0  3  0  0  0  0  0  0
  193.7000  173.8100  139.8400 N   0  0  0  0  0  0  0  0  0  0  0  0
  195.5440  175.1750  139.1900 C   0  0  1  0  0  3  0  0  0  0  0  0
  195.9100  174.4640  140.4280 N   0  0  0  0  0  0  0  0  0  0  0  0
  197.9390  174.6710  138.5100 C   0  0  0  0  0  1  0  0  0  0  0  0
  196.5010  174.8050  138.0520 C   0  0  0  0  0  2  0  0  0  0  0  0
  189.0630  175.9710  143.8530 N   0  0  0  0  0  2  0  0  0  0  0  0
  187.3210  178.0020  143.1100 S   0  0  0  0  0  0  0  0  0  0  0  0
  186.2740  178.6710  144.2420 C   0  0  0  0  0  0  0  0  0  0  0  0
  185.3240  179.7740  143.9270 C   0  0  0  0  0  1  0  0  0  0  0  0
  187.9980  176.8750  144.1620 C   0  0  0  0  0  0  0  0  0  0  0  0
  187.4340  177.0110  145.4240 C   0  0  0  0  0  3  0  0  0  0  0  0
  186.4550  178.0170  145.4750 C   0  0  0  0  0  0  0  0  0  0  0  0
  185.7180  178.3080  146.6820 N   0  0  0  0  0  0  0  0  0  0  0  0
  186.3650  178.7670  147.9010 C   0  0  0  0  0  1  0  0  0  0  0  0
  184.2700  178.1370  146.7210 C   0  0  0  0  0  1  0  0  0  0  0  0
  1  6  1  0  0  0  0
  2  1  2  0  0  0  0
  2  5  1  0  0  0  0
  3  4  1  0  0  0  0
  3 22  1  0  0  0  0
  5  3  2  0  0  0  0
  6  4  2  0  0  0  0
  6  8  1  0  0  0  0
  7  8  1  0  0  0  0
  8  9  2  0  0  0  0
 10  7  1  0  0  0  0
 11 10  1  0  0  0  0
 12 18  1  0  0  0  0
 13 20  2  0  0  0  0
 15 19  1  0  0  0  0
 16 14  2  0  0  0  0
 16 17  1  0  0  0  0
 17 11  1  0  0  0  0
 18 17  2  0  0  0  0
 19 12  2  0  0  0  0
 20 12  1  0  0  0  0
 20 16  1  0  0  0  0
 21 15  2  0  0  0  0
 21 13  1  0  0  0  0
 22 23  1  6  0  0  0
 24 29  1  6  0  0  0
 24 22  1  0  0  0  0
 24 27  1  0  0  0  0
 25 27  1  0  0  0  0
 26 25  1  0  0  0  0
 26 27  1  0  0  0  0
 28 29  2  0  0  0  0
 31 30  1  1  0  0  0
 31 28  1  0  0  0  0
 32 36  1  0  0  0  0
 32 35  1  0  0  0  0
 33 32  2  0  0  0  0
 35 34  2  0  0  0  0
 36 39  1  6  0  0  0
 36 37  1  0  0  0  0
 37 34  1  0  0  0  0
 37 31  1  0  0  0  0
 39 38  1  0  0  0  0
 40 44  1  0  0  0  0
 40  1  1  0  0  0  0
 41 44  1  0  0  0  0
 41 42  1  0  0  0  0
 42 46  2  0  0  0  0
 43 42  1  0  0  0  0
 44 45  2  0  0  0  0
 45 46  1  0  0  0  0
 46 47  1  0  0  0  0
 47 49  1  0  0  0  0
 47 48  1  0  0  0  0
M  END
>  <MODEL>
3

>  <REMARK>
 VINA RESULT:      -7.3      2.847      8.799
  Name = 
  14 active torsions:
  status: ('A' for Active; 'I' for Inactive)
    1  A    between atoms: N_1  and  C_26
    2  A    between atoms: C_3  and  C_20
    3  A    between atoms: N_5  and  C_41
    4  A    between atoms: C_7  and  C_12
    5  A    between atoms: C_7  and  C_29
    6  A    between atoms: C_8  and  N_11
    7  A    between atoms: N_11  and  C_28
    8  A    between atoms: C_12  and  N_38
    9  A    between atoms: C_15  and  C_20
   10  A    between atoms: C_15  and  C_22
   11  A    between atoms: C_20  and  C_45
   12  A    between atoms: C_26  and  N_44
   13  A    between atoms: C_35  and  C_40
   14  A    between atoms: C_46  and  C_47
                            x       y       z     vdW  Elec       q    Type
                         _______ _______ _______ _____ _____    ______ ____

>  <TORSDO>
F 14

$$$$
=
 OpenBabel11042414073D

 49 54  0  0  1  0  0  0  0  0999 V2000
  191.5340  172.0410  141.9300 C   0  0  0  0  0  0  0  0  0  0  0  0
  190.5520  172.1300  142.9300 C   0  0  0  0  0  3  0  0  0  0  0  0
  189.6280  174.1150  141.8930 C   0  0  0  0  0  0  0  0  0  0  0  0
  190.6010  174.0370  140.8920 C   0  0  0  0  0  3  0  0  0  0  0  0
  189.6110  173.1580  142.9200 C   0  0  0  0  0  3  0  0  0  0  0  0
  191.5590  173.0090  140.8930 C   0  0  0  0  0  0  0  0  0  0  0  0
  193.8610  173.7260  140.0460 N   0  0  0  0  0  2  0  0  0  0  0  0
  192.6280  173.0180  139.8650 C   0  0  0  0  0  0  0  0  0  0  0  0
  192.4670  172.3650  138.7990 O   0  0  0  0  0  0  0  0  0  0  0  0
  194.0820  174.7760  141.0330 C   0  0  0  0  0  2  0  0  0  0  0  0
  194.8680  174.2280  142.2180 C   0  0  0  0  0  2  0  0  0  0  0  0
  192.9860  174.8350  145.2550 C   0  0  0  0  0  0  0  0  0  0  0  0
  193.8050  176.7270  146.5350 C   0  0  0  0  0  3  0  0  0  0  0  0
  195.6760  176.6220  144.0180 O   0  0  0  0  0  0  0  0  0  0  0  0
  191.9110  175.4010  147.3270 C   0  0  0  0  0  3  0  0  0  0  0  0
  194.7210  175.8470  144.2790 C   0  0  0  0  0  0  0  0  0  0  0  0
  194.2560  174.7020  143.4900 C   0  0  0  0  0  0  0  0  0  0  0  0
  193.2490  174.1080  144.0520 N   0  0  0  0  0  0  0  0  0  0  0  0
  191.9930  174.5640  146.1950 C   0  0  0  0  0  3  0  0  0  0  0  0
  193.8550  175.8860  145.4270 C   0  0  0  0  0  0  0  0  0  0  0  0
  192.8130  176.4730  147.4970 C   0  0  0  0  0  3  0  0  0  0  0  0
  188.6370  175.2370  141.8780 C   0  0  2  0  0  3  0  0  0  0  0  0
  187.9670  175.2540  140.6490 O   0  0  0  0  0  1  0  0  0  0  0  0
  189.3380  176.5740  142.1620 C   0  0  2  0  0  3  0  0  0  0  0  0
  191.6650  177.3580  142.9300 C   0  0  0  0  0  2  0  0  0  0  0  0
  190.6940  177.5670  144.0820 C   0  0  0  0  0  2  0  0  0  0  0  0
  190.5200  176.3820  143.1440 C   0  0  0  0  0  3  0  0  0  0  0  0
  187.2180  177.5340  142.9260 N   0  0  0  0  0  0  0  0  0  0  0  0
  188.3900  177.7250  142.4210 C   0  0  0  0  0  3  0  0  0  0  0  0
  184.9910  178.3560  142.3930 C   0  0  0  0  0  1  0  0  0  0  0  0
  186.3060  178.6350  143.1180 C   0  0  1  0  0  3  0  0  0  0  0  0
  184.8030  177.6740  145.9660 C   0  0  0  0  0  0  0  0  0  0  0  0
  184.3780  176.7430  146.7020 O   0  0  0  0  0  0  0  0  0  0  0  0
  184.8340  179.6160  144.7340 C   0  0  0  0  0  3  0  0  0  0  0  0
  184.0220  178.7860  145.6110 N   0  0  0  0  0  0  0  0  0  0  0  0
  186.1480  177.7320  145.3760 C   0  0  1  0  0  3  0  0  0  0  0  0
  186.1430  178.9520  144.5490 N   0  0  0  0  0  0  0  0  0  0  0  0
  188.2430  176.6720  146.3440 C   0  0  0  0  0  1  0  0  0  0  0  0
  187.2440  177.8060  146.4440 C   0  0  0  0  0  2  0  0  0  0  0  0
  192.4530  170.9360  141.9160 N   0  0  0  0  0  2  0  0  0  0  0  0
  193.1870  170.1560  144.4770 S   0  0  0  0  0  0  0  0  0  0  0  0
  194.8070  170.1570  144.9280 C   0  0  0  0  0  0  0  0  0  0  0  0
  195.2790  169.7710  146.2860 C   0  0  0  0  0  1  0  0  0  0  0  0
  193.4600  170.6550  142.8930 C   0  0  0  0  0  0  0  0  0  0  0  0
  194.8190  170.8500  142.6880 C   0  0  0  0  0  3  0  0  0  0  0  0
  195.5860  170.5640  143.8290 C   0  0  0  0  0  0  0  0  0  0  0  0
  197.0260  170.6710  143.8310 N   0  0  0  0  0  0  0  0  0  0  0  0
  197.8950  169.5100  143.7250 C   0  0  0  0  0  1  0  0  0  0  0  0
  197.6690  171.9740  143.9550 C   0  0  0  0  0  1  0  0  0  0  0  0
  1  2  1  0  0  0  0
  3  5  1  0  0  0  0
  4  6  1  0  0  0  0
  4  3  2  0  0  0  0
  5  2  2  0  0  0  0
  6  1  2  0  0  0  0
  7 10  1  0  0  0  0
  8  7  1  0  0  0  0
  8  6  1  0  0  0  0
  9  8  2  0  0  0  0
 10 11  1  0  0  0  0
 11 17  1  0  0  0  0
 12 20  2  0  0  0  0
 12 19  1  0  0  0  0
 13 21  2  0  0  0  0
 14 16  2  0  0  0  0
 15 21  1  0  0  0  0
 16 20  1  0  0  0  0
 17 18  2  0  0  0  0
 17 16  1  0  0  0  0
 18 12  1  0  0  0  0
 19 15  2  0  0  0  0
 20 13  1  0  0  0  0
 22 23  1  6  0  0  0
 22  3  1  0  0  0  0
 22 24  1  0  0  0  0
 24 29  1  1  0  0  0
 24 27  1  0  0  0  0
 25 27  1  0  0  0  0
 25 26  1  0  0  0  0
 27 26  1  0  0  0  0
 28 31  1  0  0  0  0
 29 28  2  0  0  0  0
 31 30  1  1  0  0  0
 31 37  1  0  0  0  0
 32 33  2  0  0  0  0
 34 35  2  0  0  0  0
 35 32  1  0  0  0  0
 36 32  1  0  0  0  0
 36 39  1  1  0  0  0
 37 34  1  0  0  0  0
 37 36  1  0  0  0  0
 38 39  1  0  0  0  0
 40  1  1  0  0  0  0
 40 44  1  0  0  0  0
 41 42  1  0  0  0  0
 42 43  1  0  0  0  0
 44 41  1  0  0  0  0
 45 44  2  0  0  0  0
 45 46  1  0  0  0  0
 46 47  1  0  0  0  0
 46 42  2  0  0  0  0
 47 49  1  0  0  0  0
 48 47  1  0  0  0  0
M  END
>  <MODEL>
4

>  <REMARK>
 VINA RESULT:      -7.3      2.688      4.989
  Name = 
  14 active torsions:
  status: ('A' for Active; 'I' for Inactive)
    1  A    between atoms: N_1  and  C_26
    2  A    between atoms: C_3  and  C_20
    3  A    between atoms: N_5  and  C_41
    4  A    between atoms: C_7  and  C_12
    5  A    between atoms: C_7  and  C_29
    6  A    between atoms: C_8  and  N_11
    7  A    between atoms: N_11  and  C_28
    8  A    between atoms: C_12  and  N_38
    9  A    between atoms: C_15  and  C_20
   10  A    between atoms: C_15  and  C_22
   11  A    between atoms: C_20  and  C_45
   12  A    between atoms: C_26  and  N_44
   13  A    between atoms: C_35  and  C_40
   14  A    between atoms: C_46  and  C_47
                            x       y       z     vdW  Elec       q    Type
                         _______ _______ _______ _____ _____    ______ ____

>  <TORSDO>
F 14

$$$$
=
 OpenBabel11042414073D

 49 54  0  0  1  0  0  0  0  0999 V2000
  191.7330  173.7910  143.7680 C   0  0  0  0  0  0  0  0  0  0  0  0
  190.6900  173.0680  144.3680 C   0  0  0  0  0  3  0  0  0  0  0  0
  190.1780  174.9420  145.8150 C   0  0  0  0  0  0  0  0  0  0  0  0
  191.2140  175.6720  145.2250 C   0  0  0  0  0  3  0  0  0  0  0  0
  189.9220  173.6300  145.3860 C   0  0  0  0  0  3  0  0  0  0  0  0
  192.0000  175.1150  144.2010 C   0  0  0  0  0  0  0  0  0  0  0  0
  194.4240  175.9160  144.3200 N   0  0  0  0  0  2  0  0  0  0  0  0
  193.1470  175.8900  143.6690 C   0  0  0  0  0  0  0  0  0  0  0  0
  193.0120  176.5350  142.5950 O   0  0  0  0  0  0  0  0  0  0  0  0
  194.6640  175.5190  145.7020 C   0  0  0  0  0  2  0  0  0  0  0  0
  195.8420  174.5560  145.7760 C   0  0  0  0  0  2  0  0  0  0  0  0
  194.4420  171.3510  144.8280 C   0  0  0  0  0  0  0  0  0  0  0  0
  195.3940  170.4480  142.7870 C   0  0  0  0  0  3  0  0  0  0  0  0
  196.9200  173.1540  143.2260 O   0  0  0  0  0  0  0  0  0  0  0  0
  193.6370  169.2490  143.9900 C   0  0  0  0  0  3  0  0  0  0  0  0
  196.0220  172.6680  143.9600 C   0  0  0  0  0  0  0  0  0  0  0  0
  195.4580  173.2450  145.1850 C   0  0  0  0  0  0  0  0  0  0  0  0
  194.5380  172.4850  145.6930 N   0  0  0  0  0  0  0  0  0  0  0  0
  193.5810  170.2630  144.9680 C   0  0  0  0  0  3  0  0  0  0  0  0
  195.3180  171.4290  143.7720 C   0  0  0  0  0  0  0  0  0  0  0  0
  194.5350  169.3430  142.9050 C   0  0  0  0  0  3  0  0  0  0  0  0
  189.3760  175.5540  146.9210 C   0  0  2  0  0  3  0  0  0  0  0  0
  188.8300  174.5410  147.7190 O   0  0  0  0  0  1  0  0  0  0  0  0
  188.2870  176.4730  146.3470 C   0  0  2  0  0  3  0  0  0  0  0  0
  186.3860  177.8640  147.3820 C   0  0  0  0  0  2  0  0  0  0  0  0
  185.7600  176.7920  146.5030 C   0  0  0  0  0  2  0  0  0  0  0  0
  187.0420  176.4990  147.2670 C   0  0  0  0  0  3  0  0  0  0  0  0
  188.1920  177.2920  144.0400 N   0  0  0  0  0  0  0  0  0  0  0  0
  188.0570  176.3040  144.8600 C   0  0  0  0  0  3  0  0  0  0  0  0
  187.3410  175.7350  142.3740 C   0  0  0  0  0  1  0  0  0  0  0  0
  187.9190  177.1260  142.6330 C   0  0  1  0  0  3  0  0  0  0  0  0
  184.7690  178.0350  141.8920 C   0  0  0  0  0  0  0  0  0  0  0  0
  183.5380  177.9720  142.1520 O   0  0  0  0  0  0  0  0  0  0  0  0
  186.7390  177.9300  140.7090 C   0  0  0  0  0  3  0  0  0  0  0  0
  185.2930  177.8050  140.6080 N   0  0  0  0  0  0  0  0  0  0  0  0
  185.8210  178.3430  142.8710 C   0  0  1  0  0  3  0  0  0  0  0  0
  187.0820  178.2260  142.1170 N   0  0  0  0  0  0  0  0  0  0  0  0
  184.7920  179.7870  144.6890 C   0  0  0  0  0  1  0  0  0  0  0  0
  185.6700  179.7510  143.4550 C   0  0  0  0  0  2  0  0  0  0  0  0
  192.4700  173.2230  142.6720 N   0  0  0  0  0  2  0  0  0  0  0  0
  192.9360  173.9080  140.0220 S   0  0  0  0  0  0  0  0  0  0  0  0
  191.7870  173.5580  138.8450 C   0  0  0  0  0  0  0  0  0  0  0  0
  191.9530  173.9090  137.4080 C   0  0  0  0  0  1  0  0  0  0  0  0
  192.0790  173.2180  141.2960 C   0  0  0  0  0  0  0  0  0  0  0  0
  190.8700  172.7160  140.8330 C   0  0  0  0  0  3  0  0  0  0  0  0
  190.7010  172.8970  139.4500 C   0  0  0  0  0  0  0  0  0  0  0  0
  189.5290  172.4240  138.7520 N   0  0  0  0  0  0  0  0  0  0  0  0
  189.4730  171.1170  138.1170 C   0  0  0  0  0  1  0  0  0  0  0  0
  188.3420  173.2650  138.6500 C   0  0  0  0  0  1  0  0  0  0  0  0
  1  6  2  0  0  0  0
  1  2  1  0  0  0  0
  2  5  2  0  0  0  0
  3 22  1  0  0  0  0
  4  3  2  0  0  0  0
  5  3  1  0  0  0  0
  6  4  1  0  0  0  0
  7 10  1  0  0  0  0
  8  6  1  0  0  0  0
  8  7  1  0  0  0  0
  9  8  2  0  0  0  0
 10 11  1  0  0  0  0
 12 19  1  0  0  0  0
 12 18  1  0  0  0  0
 13 21  2  0  0  0  0
 13 20  1  0  0  0  0
 14 16  2  0  0  0  0
 15 19  2  0  0  0  0
 16 17  1  0  0  0  0
 17 18  2  0  0  0  0
 17 11  1  0  0  0  0
 20 16  1  0  0  0  0
 20 12  2  0  0  0  0
 21 15  1  0  0  0  0
 22 23  1  6  0  0  0
 24 29  1  6  0  0  0
 24 22  1  0  0  0  0
 24 27  1  0  0  0  0
 26 27  1  0  0  0  0
 26 25  1  0  0  0  0
 27 25  1  0  0  0  0
 28 29  2  0  0  0  0
 31 30  1  1  0  0  0
 31 28  1  0  0  0  0
 32 33  2  0  0  0  0
 32 36  1  0  0  0  0
 34 37  1  0  0  0  0
 35 34  2  0  0  0  0
 35 32  1  0  0  0  0
 36 39  1  6  0  0  0
 37 31  1  0  0  0  0
 37 36  1  0  0  0  0
 39 38  1  0  0  0  0
 40  1  1  0  0  0  0
 41 44  1  0  0  0  0
 42 46  2  0  0  0  0
 42 41  1  0  0  0  0
 43 42  1  0  0  0  0
 44 40  1  0  0  0  0
 45 44  2  0  0  0  0
 46 45  1  0  0  0  0
 47 46  1  0  0  0  0
 48 47  1  0  0  0  0
 49 47  1  0  0  0  0
M  END
>  <MODEL>
5

>  <REMARK>
 VINA RESULT:      -7.2      2.254      3.945
  Name = 
  14 active torsions:
  status: ('A' for Active; 'I' for Inactive)
    1  A    between atoms: N_1  and  C_26
    2  A    between atoms: C_3  and  C_20
    3  A    between atoms: N_5  and  C_41
    4  A    between atoms: C_7  and  C_12
    5  A    between atoms: C_7  and  C_29
    6  A    between atoms: C_8  and  N_11
    7  A    between atoms: N_11  and  C_28
    8  A    between atoms: C_12  and  N_38
    9  A    between atoms: C_15  and  C_20
   10  A    between atoms: C_15  and  C_22
   11  A    between atoms: C_20  and  C_45
   12  A    between atoms: C_26  and  N_44
   13  A    between atoms: C_35  and  C_40
   14  A    between atoms: C_46  and  C_47
                            x       y       z     vdW  Elec       q    Type
                         _______ _______ _______ _____ _____    ______ ____

>  <TORSDO>
F 14

$$$$
=
 OpenBabel11042414073D

 49 54  0  0  1  0  0  0  0  0999 V2000
  189.5100  173.7280  142.4090 C   0  0  0  0  0  0  0  0  0  0  0  0
  189.3340  175.0000  141.8410 C   0  0  0  0  0  3  0  0  0  0  0  0
  190.3670  176.0420  143.7690 C   0  0  0  0  0  0  0  0  0  0  0  0
  190.5480  174.7800  144.3450 C   0  0  0  0  0  3  0  0  0  0  0  0
  189.7490  176.1490  142.5130 C   0  0  0  0  0  3  0  0  0  0  0  0
  190.1290  173.6150  143.6810 C   0  0  0  0  0  0  0  0  0  0  0  0
  191.4270  171.4880  144.2510 N   0  0  0  0  0  2  0  0  0  0  0  0
  190.2560  172.3070  144.3680 C   0  0  0  0  0  0  0  0  0  0  0  0
  189.3160  171.9000  145.1020 O   0  0  0  0  0  0  0  0  0  0  0  0
  192.4430  171.6300  143.2150 C   0  0  0  0  0  2  0  0  0  0  0  0
  193.8310  171.4290  143.8090 C   0  0  0  0  0  2  0  0  0  0  0  0
  196.0440  174.1570  142.9150 C   0  0  0  0  0  0  0  0  0  0  0  0
  195.7160  176.1470  144.2640 C   0  0  0  0  0  3  0  0  0  0  0  0
  193.6540  174.0790  145.4140 O   0  0  0  0  0  0  0  0  0  0  0  0
  197.3780  176.1050  142.4740 C   0  0  0  0  0  3  0  0  0  0  0  0
  194.4600  173.8920  144.4670 C   0  0  0  0  0  0  0  0  0  0  0  0
  194.6280  172.6790  143.6610 C   0  0  0  0  0  0  0  0  0  0  0  0
  195.5450  172.8270  142.7550 N   0  0  0  0  0  0  0  0  0  0  0  0
  197.0420  174.7720  142.1600 C   0  0  0  0  0  3  0  0  0  0  0  0
  195.4120  174.8290  143.9330 C   0  0  0  0  0  0  0  0  0  0  0  0
  196.7170  176.7880  143.5160 C   0  0  0  0  0  3  0  0  0  0  0  0
  190.8010  177.2650  144.5130 C   0  0  2  0  0  3  0  0  0  0  0  0
  192.1740  177.4640  144.3270 O   0  0  0  0  0  1  0  0  0  0  0  0
  190.4410  177.1430  146.0020 C   0  0  2  0  0  3  0  0  0  0  0  0
  191.5740  176.8670  148.2960 C   0  0  0  0  0  2  0  0  0  0  0  0
  191.1770  175.4860  147.7970 C   0  0  0  0  0  2  0  0  0  0  0  0
  191.6230  176.5530  146.8100 C   0  0  0  0  0  3  0  0  0  0  0  0
  188.0130  177.3250  146.2710 N   0  0  0  0  0  0  0  0  0  0  0  0
  189.0630  176.5730  146.2590 C   0  0  0  0  0  3  0  0  0  0  0  0
  186.2920  177.1710  147.9840 C   0  0  0  0  0  1  0  0  0  0  0  0
  186.7130  176.7750  146.5700 C   0  0  1  0  0  3  0  0  0  0  0  0
  185.4030  179.3300  144.8240 C   0  0  0  0  0  0  0  0  0  0  0  0
  185.5610  180.4480  144.2640 O   0  0  0  0  0  0  0  0  0  0  0  0
  184.5360  177.7000  146.1940 C   0  0  0  0  0  3  0  0  0  0  0  0
  184.3700  179.0720  145.7410 N   0  0  0  0  0  0  0  0  0  0  0  0
  186.2620  178.1560  144.6130 C   0  0  1  0  0  3  0  0  0  0  0  0
  185.7300  177.1320  145.5310 N   0  0  0  0  0  0  0  0  0  0  0  0
  186.2980  176.1510  143.0550 C   0  0  0  0  0  1  0  0  0  0  0  0
  186.2150  177.6600  143.1650 C   0  0  0  0  0  2  0  0  0  0  0  0
  189.1400  172.5500  141.6730 N   0  0  0  0  0  2  0  0  0  0  0  0
  188.6630  172.6740  138.9400 S   0  0  0  0  0  0  0  0  0  0  0  0
  189.6760  171.8640  137.8690 C   0  0  0  0  0  0  0  0  0  0  0  0
  189.4770  171.8660  136.3940 C   0  0  0  0  0  1  0  0  0  0  0  0
  189.5110  172.2370  140.3270 C   0  0  0  0  0  0  0  0  0  0  0  0
  190.5920  171.4340  139.9850 C   0  0  0  0  0  3  0  0  0  0  0  0
  190.6960  171.2250  138.6000 C   0  0  0  0  0  0  0  0  0  0  0  0
  191.7630  170.4460  138.0210 N   0  0  0  0  0  0  0  0  0  0  0  0
  191.6840  169.0020  137.8720 C   0  0  0  0  0  1  0  0  0  0  0  0
  192.9880  171.0960  137.5670 C   0  0  0  0  0  1  0  0  0  0  0  0
  1  6  1  0  0  0  0
  2  1  2  0  0  0  0
  2  5  1  0  0  0  0
  3  4  1  0  0  0  0
  3 22  1  0  0  0  0
  5  3  2  0  0  0  0
  6  4  2  0  0  0  0
  6  8  1  0  0  0  0
  7  8  1  0  0  0  0
  8  9  2  0  0  0  0
 10 11  1  0  0  0  0
 10  7  1  0  0  0  0
 12 20  1  0  0  0  0
 15 21  2  0  0  0  0
 16 14  2  0  0  0  0
 17 11  1  0  0  0  0
 17 16  1  0  0  0  0
 18 12  1  0  0  0  0
 18 17  2  0  0  0  0
 19 15  1  0  0  0  0
 19 12  2  0  0  0  0
 20 13  2  0  0  0  0
 20 16  1  0  0  0  0
 21 13  1  0  0  0  0
 22 23  1  1  0  0  0
 22 24  1  0  0  0  0
 24 29  1  6  0  0  0
 24 27  1  0  0  0  0
 26 25  1  0  0  0  0
 27 26  1  0  0  0  0
 27 25  1  0  0  0  0
 28 31  1  0  0  0  0
 29 28  2  0  0  0  0
 31 30  1  1  0  0  0
 32 35  1  0  0  0  0
 33 32  2  0  0  0  0
 35 34  2  0  0  0  0
 36 39  1  6  0  0  0
 36 32  1  0  0  0  0
 36 37  1  0  0  0  0
 37 34  1  0  0  0  0
 37 31  1  0  0  0  0
 38 39  1  0  0  0  0
 40  1  1  0  0  0  0
 41 44  1  0  0  0  0
 42 46  2  0  0  0  0
 42 41  1  0  0  0  0
 43 42  1  0  0  0  0
 44 40  1  0  0  0  0
 45 44  2  0  0  0  0
 46 45  1  0  0  0  0
 47 46  1  0  0  0  0
 48 47  1  0  0  0  0
 49 47  1  0  0  0  0
M  END
>  <MODEL>
6

>  <REMARK>
 VINA RESULT:      -7.1      1.925      2.356
  Name = 
  14 active torsions:
  status: ('A' for Active; 'I' for Inactive)
    1  A    between atoms: N_1  and  C_26
    2  A    between atoms: C_3  and  C_20
    3  A    between atoms: N_5  and  C_41
    4  A    between atoms: C_7  and  C_12
    5  A    between atoms: C_7  and  C_29
    6  A    between atoms: C_8  and  N_11
    7  A    between atoms: N_11  and  C_28
    8  A    between atoms: C_12  and  N_38
    9  A    between atoms: C_15  and  C_20
   10  A    between atoms: C_15  and  C_22
   11  A    between atoms: C_20  and  C_45
   12  A    between atoms: C_26  and  N_44
   13  A    between atoms: C_35  and  C_40
   14  A    between atoms: C_46  and  C_47
                            x       y       z     vdW  Elec       q    Type
                         _______ _______ _______ _____ _____    ______ ____

>  <TORSDO>
F 14

$$$$
=
 OpenBabel11042414073D

 49 54  0  0  1  0  0  0  0  0999 V2000
  194.0450  175.7060  143.4140 C   0  0  0  0  0  0  0  0  0  0  0  0
  192.8700  176.4720  143.3510 C   0  0  0  0  0  3  0  0  0  0  0  0
  191.8110  175.0450  144.9970 C   0  0  0  0  0  0  0  0  0  0  0  0
  192.9760  174.2740  145.0680 C   0  0  0  0  0  3  0  0  0  0  0  0
  191.7590  176.1450  144.1260 C   0  0  0  0  0  3  0  0  0  0  0  0
  194.1010  174.5900  144.2870 C   0  0  0  0  0  0  0  0  0  0  0  0
  195.2940  172.4130  143.6780 N   0  0  0  0  0  2  0  0  0  0  0  0
  195.2800  173.6920  144.3260 C   0  0  0  0  0  0  0  0  0  0  0  0
  196.3230  174.0660  144.9280 O   0  0  0  0  0  0  0  0  0  0  0  0
  194.1080  171.6910  143.2350 C   0  0  0  0  0  2  0  0  0  0  0  0
  193.6900  172.1660  141.8490 C   0  0  0  0  0  2  0  0  0  0  0  0
  190.4280  173.7240  141.5930 C   0  0  0  0  0  0  0  0  0  0  0  0
  188.6140  172.2910  142.3290 C   0  0  0  0  0  3  0  0  0  0  0  0
  191.1970  170.5660  142.7730 O   0  0  0  0  0  0  0  0  0  0  0  0
  188.1710  174.5380  141.4770 C   0  0  0  0  0  3  0  0  0  0  0  0
  191.1420  171.7360  142.3170 C   0  0  0  0  0  0  0  0  0  0  0  0
  192.2590  172.5750  141.8680 C   0  0  0  0  0  0  0  0  0  0  0  0
  191.8500  173.7310  141.4450 N   0  0  0  0  0  0  0  0  0  0  0  0
  189.5480  174.7540  141.2640 C   0  0  0  0  0  3  0  0  0  0  0  0
  189.9670  172.5390  142.1110 C   0  0  0  0  0  0  0  0  0  0  0  0
  187.7080  173.3140  142.0030 C   0  0  0  0  0  3  0  0  0  0  0  0
  190.6200  174.6670  145.8210 C   0  0  2  0  0  3  0  0  0  0  0  0
  189.5580  174.3200  144.9780 O   0  0  0  0  0  1  0  0  0  0  0  0
  190.2410  175.8150  146.7710 C   0  0  2  0  0  3  0  0  0  0  0  0
  192.3850  176.7720  147.8220 C   0  0  0  0  0  2  0  0  0  0  0  0
  191.2050  177.2170  148.6720 C   0  0  0  0  0  2  0  0  0  0  0  0
  191.1860  175.8550  147.9960 C   0  0  0  0  0  3  0  0  0  0  0  0
  188.1150  177.0310  146.7790 N   0  0  0  0  0  0  0  0  0  0  0  0
  188.7550  175.9380  147.0270 C   0  0  0  0  0  3  0  0  0  0  0  0
  186.4700  178.3420  148.0020 C   0  0  0  0  0  1  0  0  0  0  0  0
  186.7080  177.1490  147.0780 C   0  0  1  0  0  3  0  0  0  0  0  0
  185.4470  179.1540  144.6940 C   0  0  0  0  0  0  0  0  0  0  0  0
  185.5700  180.1760  143.9660 O   0  0  0  0  0  0  0  0  0  0  0  0
  184.5430  177.6580  146.1880 C   0  0  0  0  0  3  0  0  0  0  0  0
  184.3010  178.8960  145.4640 N   0  0  0  0  0  0  0  0  0  0  0  0
  186.4660  178.1050  144.8500 C   0  0  1  0  0  3  0  0  0  0  0  0
  185.8990  177.1770  145.8450 N   0  0  0  0  0  0  0  0  0  0  0  0
  185.5030  177.1600  142.6980 C   0  0  0  0  0  1  0  0  0  0  0  0
  186.7490  177.3770  143.5330 C   0  0  0  0  0  2  0  0  0  0  0  0
  195.2050  176.0980  142.6600 N   0  0  0  0  0  2  0  0  0  0  0  0
  197.0400  175.7180  140.6110 S   0  0  0  0  0  0  0  0  0  0  0  0
  196.5120  175.2740  139.0770 C   0  0  0  0  0  0  0  0  0  0  0  0
  197.4290  175.0700  137.9220 C   0  0  0  0  0  1  0  0  0  0  0  0
  195.5100  175.7230  141.3130 C   0  0  0  0  0  0  0  0  0  0  0  0
  194.5530  175.3960  140.3610 C   0  0  0  0  0  3  0  0  0  0  0  0
  195.1110  175.1350  139.0990 C   0  0  0  0  0  0  0  0  0  0  0  0
  194.3010  174.7470  137.9690 N   0  0  0  0  0  0  0  0  0  0  0  0
  193.9850  175.6610  136.8830 C   0  0  0  0  0  1  0  0  0  0  0  0
  193.7520  173.3970  137.8840 C   0  0  0  0  0  1  0  0  0  0  0  0
  1  6  1  0  0  0  0
  2  1  2  0  0  0  0
  2  5  1  0  0  0  0
  3  4  1  0  0  0  0
  3 22  1  0  0  0  0
  5  3  2  0  0  0  0
  6  8  1  0  0  0  0
  6  4  2  0  0  0  0
  7  8  1  0  0  0  0
  8  9  2  0  0  0  0
 10  7  1  0  0  0  0
 11 17  1  0  0  0  0
 11 10  1  0  0  0  0
 12 20  1  0  0  0  0
 15 21  2  0  0  0  0
 16 14  2  0  0  0  0
 17 16  1  0  0  0  0
 18 12  1  0  0  0  0
 18 17  2  0  0  0  0
 19 15  1  0  0  0  0
 19 12  2  0  0  0  0
 20 16  1  0  0  0  0
 20 13  2  0  0  0  0
 21 13  1  0  0  0  0
 22 23  1  6  0  0  0
 22 24  1  0  0  0  0
 24 29  1  1  0  0  0
 24 27  1  0  0  0  0
 25 27  1  0  0  0  0
 25 26  1  0  0  0  0
 27 26  1  0  0  0  0
 28 29  2  0  0  0  0
 28 31  1  0  0  0  0
 31 30  1  6  0  0  0
 32 36  1  0  0  0  0
 32 35  1  0  0  0  0
 33 32  2  0  0  0  0
 35 34  2  0  0  0  0
 36 39  1  6  0  0  0
 36 37  1  0  0  0  0
 37 34  1  0  0  0  0
 37 31  1  0  0  0  0
 38 39  1  0  0  0  0
 40  1  1  0  0  0  0
 41 44  1  0  0  0  0
 42 46  2  0  0  0  0
 42 41  1  0  0  0  0
 43 42  1  0  0  0  0
 44 40  1  0  0  0  0
 45 44  2  0  0  0  0
 46 45  1  0  0  0  0
 47 46  1  0  0  0  0
 48 47  1  0  0  0  0
 49 47  1  0  0  0  0
M  END
>  <MODEL>
7

>  <REMARK>
 VINA RESULT:      -7.1      2.421      4.464
  Name = 
  14 active torsions:
  status: ('A' for Active; 'I' for Inactive)
    1  A    between atoms: N_1  and  C_26
    2  A    between atoms: C_3  and  C_20
    3  A    between atoms: N_5  and  C_41
    4  A    between atoms: C_7  and  C_12
    5  A    between atoms: C_7  and  C_29
    6  A    between atoms: C_8  and  N_11
    7  A    between atoms: N_11  and  C_28
    8  A    between atoms: C_12  and  N_38
    9  A    between atoms: C_15  and  C_20
   10  A    between atoms: C_15  and  C_22
   11  A    between atoms: C_20  and  C_45
   12  A    between atoms: C_26  and  N_44
   13  A    between atoms: C_35  and  C_40
   14  A    between atoms: C_46  and  C_47
                            x       y       z     vdW  Elec       q    Type
                         _______ _______ _______ _____ _____    ______ ____

>  <TORSDO>
F 14

$$$$
=
 OpenBabel11042414073D

 49 54  0  0  1  0  0  0  0  0999 V2000
  188.5390  174.9460  143.1550 C   0  0  0  0  0  0  0  0  0  0  0  0
  188.4560  173.5440  143.1310 C   0  0  0  0  0  3  0  0  0  0  0  0
  188.8400  173.5290  140.7380 C   0  0  0  0  0  0  0  0  0  0  0  0
  188.9250  174.9250  140.7510 C   0  0  0  0  0  3  0  0  0  0  0  0
  188.5970  172.8390  141.9360 C   0  0  0  0  0  3  0  0  0  0  0  0
  188.7790  175.6490  141.9460 C   0  0  0  0  0  0  0  0  0  0  0  0
  187.5830  177.8980  141.7430 N   0  0  0  0  0  2  0  0  0  0  0  0
  188.7840  177.1310  141.8980 C   0  0  0  0  0  0  0  0  0  0  0  0
  189.8750  177.7500  142.0180 O   0  0  0  0  0  0  0  0  0  0  0  0
  186.3110  177.3690  141.2680 C   0  0  0  0  0  2  0  0  0  0  0  0
  185.1540  178.1100  141.9250 C   0  0  0  0  0  2  0  0  0  0  0  0
  185.5520  177.3920  145.4550 C   0  0  0  0  0  0  0  0  0  0  0  0
  185.8920  179.3760  146.8100 C   0  0  0  0  0  3  0  0  0  0  0  0
  185.5550  180.4760  143.8910 O   0  0  0  0  0  0  0  0  0  0  0  0
  185.8760  177.1510  147.8220 C   0  0  0  0  0  3  0  0  0  0  0  0
  185.5150  179.2720  144.2510 C   0  0  0  0  0  0  0  0  0  0  0  0
  185.3190  178.0910  143.4040 C   0  0  0  0  0  0  0  0  0  0  0  0
  185.3410  176.9950  144.0980 N   0  0  0  0  0  0  0  0  0  0  0  0
  185.6520  176.5550  146.5650 C   0  0  0  0  0  3  0  0  0  0  0  0
  185.6650  178.7550  145.5840 C   0  0  0  0  0  0  0  0  0  0  0  0
  185.9980  178.5520  147.9430 C   0  0  0  0  0  3  0  0  0  0  0  0
  188.9740  172.7890  139.4450 C   0  0  2  0  0  3  0  0  0  0  0  0
  189.6810  171.5990  139.6570 O   0  0  0  0  0  1  0  0  0  0  0  0
  189.6560  173.6740  138.3900 C   0  0  2  0  0  3  0  0  0  0  0  0
  187.9630  175.0370  137.0130 C   0  0  0  0  0  2  0  0  0  0  0  0
  189.2370  174.9010  136.1920 C   0  0  0  0  0  2  0  0  0  0  0  0
  188.7950  173.7690  137.1070 C   0  0  0  0  0  3  0  0  0  0  0  0
  192.0150  173.9730  138.9810 N   0  0  0  0  0  0  0  0  0  0  0  0
  191.1360  173.4060  138.2230 C   0  0  0  0  0  3  0  0  0  0  0  0
  193.9290  174.6180  137.6260 C   0  0  0  0  0  1  0  0  0  0  0  0
  193.4250  173.7470  138.7750 C   0  0  1  0  0  3  0  0  0  0  0  0
  193.7660  175.6610  141.5160 C   0  0  0  0  0  0  0  0  0  0  0  0
  193.2350  176.3860  142.3990 O   0  0  0  0  0  0  0  0  0  0  0  0
  195.1800  174.9880  139.8320 C   0  0  0  0  0  3  0  0  0  0  0  0
  194.8830  176.0640  140.7650 N   0  0  0  0  0  0  0  0  0  0  0  0
  193.3030  174.3170  141.1400 C   0  0  1  0  0  3  0  0  0  0  0  0
  194.1820  173.9130  140.0290 N   0  0  0  0  0  0  0  0  0  0  0  0
  192.0610  172.9010  142.8440 C   0  0  0  0  0  1  0  0  0  0  0  0
  193.4110  173.3250  142.3020 C   0  0  0  0  0  2  0  0  0  0  0  0
  188.4610  175.6530  144.4040 N   0  0  0  0  0  2  0  0  0  0  0  0
  189.4040  176.5370  146.8620 S   0  0  0  0  0  0  0  0  0  0  0  0
  191.0580  176.5960  147.1590 C   0  0  0  0  0  0  0  0  0  0  0  0
  191.6430  177.0740  148.4420 C   0  0  0  0  0  1  0  0  0  0  0  0
  189.5410  175.9040  145.3080 C   0  0  0  0  0  0  0  0  0  0  0  0
  190.8820  175.7430  144.9820 C   0  0  0  0  0  3  0  0  0  0  0  0
  191.7430  176.1240  146.0240 C   0  0  0  0  0  0  0  0  0  0  0  0
  193.1780  176.0110  145.9120 N   0  0  0  0  0  0  0  0  0  0  0  0
  194.0430  177.1700  145.7610 C   0  0  0  0  0  1  0  0  0  0  0  0
  193.8180  174.7010  145.9350 C   0  0  0  0  0  1  0  0  0  0  0  0
  1 40  1  0  0  0  0
  2  1  1  0  0  0  0
  3  4  2  0  0  0  0
  3  5  1  0  0  0  0
  4  6  1  0  0  0  0
  5  2  2  0  0  0  0
  6  1  2  0  0  0  0
  7  8  1  0  0  0  0
  8  6  1  0  0  0  0
  8  9  2  0  0  0  0
 10  7  1  0  0  0  0
 10 11  1  0  0  0  0
 11 17  1  0  0  0  0
 12 20  2  0  0  0  0
 12 19  1  0  0  0  0
 13 21  2  0  0  0  0
 14 16  2  0  0  0  0
 15 21  1  0  0  0  0
 16 20  1  0  0  0  0
 17 18  2  0  0  0  0
 17 16  1  0  0  0  0
 18 12  1  0  0  0  0
 19 15  2  0  0  0  0
 20 13  1  0  0  0  0
 22 23  1  1  0  0  0
 22  3  1  0  0  0  0
 24 29  1  6  0  0  0
 24 22  1  0  0  0  0
 25 27  1  0  0  0  0
 26 25  1  0  0  0  0
 26 27  1  0  0  0  0
 27 24  1  0  0  0  0
 29 28  2  0  0  0  0
 31 30  1  6  0  0  0
 31 28  1  0  0  0  0
 31 37  1  0  0  0  0
 32 33  2  0  0  0  0
 34 37  1  0  0  0  0
 34 35  2  0  0  0  0
 35 32  1  0  0  0  0
 36 32  1  0  0  0  0
 36 39  1  1  0  0  0
 37 36  1  0  0  0  0
 39 38  1  0  0  0  0
 40 44  1  0  0  0  0
 41 42  1  0  0  0  0
 42 43  1  0  0  0  0
 44 41  1  0  0  0  0
 45 44  2  0  0  0  0
 45 46  1  0  0  0  0
 46 42  2  0  0  0  0
 47 49  1  0  0  0  0
 47 46  1  0  0  0  0
 48 47  1  0  0  0  0
M  END
>  <MODEL>
8

>  <REMARK>
 VINA RESULT:      -7.1      2.785      9.386
  Name = 
  14 active torsions:
  status: ('A' for Active; 'I' for Inactive)
    1  A    between atoms: N_1  and  C_26
    2  A    between atoms: C_3  and  C_20
    3  A    between atoms: N_5  and  C_41
    4  A    between atoms: C_7  and  C_12
    5  A    between atoms: C_7  and  C_29
    6  A    between atoms: C_8  and  N_11
    7  A    between atoms: N_11  and  C_28
    8  A    between atoms: C_12  and  N_38
    9  A    between atoms: C_15  and  C_20
   10  A    between atoms: C_15  and  C_22
   11  A    between atoms: C_20  and  C_45
   12  A    between atoms: C_26  and  N_44
   13  A    between atoms: C_35  and  C_40
   14  A    between atoms: C_46  and  C_47
                            x       y       z     vdW  Elec       q    Type
                         _______ _______ _______ _____ _____    ______ ____

>  <TORSDO>
F 14

$$$$
=
 OpenBabel11042414073D

 49 54  0  0  1  0  0  0  0  0999 V2000
  190.0330  172.5900  140.9550 C   0  0  0  0  0  0  0  0  0  0  0  0
  189.2730  173.7150  141.3170 C   0  0  0  0  0  3  0  0  0  0  0  0
  190.4010  173.8290  143.4580 C   0  0  0  0  0  0  0  0  0  0  0  0
  191.1630  172.7100  143.1080 C   0  0  0  0  0  3  0  0  0  0  0  0
  189.4470  174.3270  142.5570 C   0  0  0  0  0  3  0  0  0  0  0  0
  190.9950  172.0800  141.8640 C   0  0  0  0  0  0  0  0  0  0  0  0
  193.1520  170.8590  141.2380 N   0  0  0  0  0  2  0  0  0  0  0  0
  191.7580  170.8420  141.5730 C   0  0  0  0  0  0  0  0  0  0  0  0
  191.1750  169.7260  141.6400 O   0  0  0  0  0  0  0  0  0  0  0  0
  193.8890  172.0370  140.7980 C   0  0  0  0  0  2  0  0  0  0  0  0
  195.1860  172.1710  141.5850 C   0  0  0  0  0  2  0  0  0  0  0  0
  194.5910  174.2530  144.4920 C   0  0  0  0  0  0  0  0  0  0  0  0
  195.3680  176.5350  144.2180 C   0  0  0  0  0  3  0  0  0  0  0  0
  196.0390  175.1530  141.4830 O   0  0  0  0  0  0  0  0  0  0  0  0
  194.3330  175.8030  146.3080 C   0  0  0  0  0  3  0  0  0  0  0  0
  195.4880  174.6210  142.4800 C   0  0  0  0  0  0  0  0  0  0  0  0
  195.0400  173.2320  142.6200 C   0  0  0  0  0  0  0  0  0  0  0  0
  194.5190  173.0110  143.7870 N   0  0  0  0  0  0  0  0  0  0  0  0
  194.1550  174.5030  145.7920 C   0  0  0  0  0  3  0  0  0  0  0  0
  195.1720  175.2430  143.7380 C   0  0  0  0  0  0  0  0  0  0  0  0
  194.9380  176.8110  145.5270 C   0  0  0  0  0  3  0  0  0  0  0  0
  190.5860  174.4620  144.8020 C   0  0  2  0  0  3  0  0  0  0  0  0
  189.9370  173.6920  145.7750 O   0  0  0  0  0  1  0  0  0  0  0  0
  190.0720  175.9100  144.7860 C   0  0  2  0  0  3  0  0  0  0  0  0
  191.8440  177.1750  143.4160 C   0  0  0  0  0  2  0  0  0  0  0  0
  190.9180  178.2020  144.0500 C   0  0  0  0  0  2  0  0  0  0  0  0
  191.2490  176.9150  144.7900 C   0  0  0  0  0  3  0  0  0  0  0  0
  187.7510  176.4890  145.3140 N   0  0  0  0  0  0  0  0  0  0  0  0
  188.9260  176.1680  145.7410 C   0  0  0  0  0  3  0  0  0  0  0  0
  187.1170  177.8870  147.2020 C   0  0  0  0  0  1  0  0  0  0  0  0
  186.6830  176.7820  146.2390 C   0  0  1  0  0  3  0  0  0  0  0  0
  184.8260  179.2260  144.8700 C   0  0  0  0  0  0  0  0  0  0  0  0
  184.7700  180.3200  144.2480 O   0  0  0  0  0  0  0  0  0  0  0  0
  184.4620  177.6410  146.4970 C   0  0  0  0  0  3  0  0  0  0  0  0
  184.1220  178.9870  146.0630 N   0  0  0  0  0  0  0  0  0  0  0  0
  185.6230  178.0620  144.4570 C   0  0  1  0  0  3  0  0  0  0  0  0
  185.4240  177.0700  145.5290 N   0  0  0  0  0  0  0  0  0  0  0  0
  186.2580  176.7400  142.3840 C   0  0  0  0  0  1  0  0  0  0  0  0
  185.1650  177.4990  143.1080 C   0  0  0  0  0  2  0  0  0  0  0  0
  189.8920  172.0130  139.6460 N   0  0  0  0  0  2  0  0  0  0  0  0
  189.6750  172.2580  136.8880 S   0  0  0  0  0  0  0  0  0  0  0  0
  190.7440  173.2420  136.0410 C   0  0  0  0  0  0  0  0  0  0  0  0
  190.7050  173.4110  134.5630 C   0  0  0  0  0  1  0  0  0  0  0  0
  190.3110  172.5980  138.4090 C   0  0  0  0  0  0  0  0  0  0  0  0
  191.3830  173.4730  138.2860 C   0  0  0  0  0  3  0  0  0  0  0  0
  191.6290  173.8460  136.9550 C   0  0  0  0  0  0  0  0  0  0  0  0
  192.6770  174.7720  136.5990 N   0  0  0  0  0  0  0  0  0  0  0  0
  192.4070  176.0570  135.9740 C   0  0  0  0  0  1  0  0  0  0  0  0
  194.0750  174.4360  136.8510 C   0  0  0  0  0  1  0  0  0  0  0  0
  1  2  2  0  0  0  0
  1  6  1  0  0  0  0
  2  5  1  0  0  0  0
  3 22  1  0  0  0  0
  4  3  1  0  0  0  0
  5  3  2  0  0  0  0
  6  4  2  0  0  0  0
  7  8  1  0  0  0  0
  8  9  2  0  0  0  0
  8  6  1  0  0  0  0
 10  7  1  0  0  0  0
 10 11  1  0  0  0  0
 11 17  1  0  0  0  0
 12 19  1  0  0  0  0
 13 21  2  0  0  0  0
 14 16  2  0  0  0  0
 16 17  1  0  0  0  0
 16 20  1  0  0  0  0
 17 18  2  0  0  0  0
 18 12  1  0  0  0  0
 19 15  2  0  0  0  0
 20 13  1  0  0  0  0
 20 12  2  0  0  0  0
 21 15  1  0  0  0  0
 22 23  1  1  0  0  0
 24 27  1  0  0  0  0
 24 22  1  0  0  0  0
 24 29  1  1  0  0  0
 25 26  1  0  0  0  0
 25 27  1  0  0  0  0
 26 27  1  0  0  0  0
 28 29  2  0  0  0  0
 28 31  1  0  0  0  0
 31 30  1  6  0  0  0
 32 35  1  0  0  0  0
 33 32  2  0  0  0  0
 35 34  2  0  0  0  0
 36 39  1  6  0  0  0
 36 32  1  0  0  0  0
 36 37  1  0  0  0  0
 37 31  1  0  0  0  0
 37 34  1  0  0  0  0
 38 39  1  0  0  0  0
 40  1  1  0  0  0  0
 41 44  1  0  0  0  0
 42 41  1  0  0  0  0
 42 46  2  0  0  0  0
 43 42  1  0  0  0  0
 44 40  1  0  0  0  0
 45 44  2  0  0  0  0
 46 45  1  0  0  0  0
 47 49  1  0  0  0  0
 47 46  1  0  0  0  0
 48 47  1  0  0  0  0
M  END
>  <MODEL>
9

>  <REMARK>
 VINA RESULT:      -7.0      2.245      3.209
  Name = 
  14 active torsions:
  status: ('A' for Active; 'I' for Inactive)
    1  A    between atoms: N_1  and  C_26
    2  A    between atoms: C_3  and  C_20
    3  A    between atoms: N_5  and  C_41
    4  A    between atoms: C_7  and  C_12
    5  A    between atoms: C_7  and  C_29
    6  A    between atoms: C_8  and  N_11
    7  A    between atoms: N_11  and  C_28
    8  A    between atoms: C_12  and  N_38
    9  A    between atoms: C_15  and  C_20
   10  A    between atoms: C_15  and  C_22
   11  A    between atoms: C_20  and  C_45
   12  A    between atoms: C_26  and  N_44
   13  A    between atoms: C_35  and  C_40
   14  A    between atoms: C_46  and  C_47
                            x       y       z     vdW  Elec       q    Type
                         _______ _______ _______ _____ _____    ______ ____

>  <TORSDO>
F 14

$$$$
