=
 OpenBabel11042413573D

 30 35  0  0  1  0  0  0  0  0999 V2000
  184.8270  177.6380  144.2870 C   0  0  0  0  0  2  0  0  0  0  0  0
  185.7280  178.4710  146.5750 C   0  0  0  0  0  3  0  0  0  0  0  0
  188.6620  175.8820  143.7430 C   0  0  0  0  0  0  0  0  0  0  0  0
  188.2840  175.0460  141.7120 C   0  0  0  0  0  3  0  0  0  0  0  0
  183.5900  179.0410  145.7620 O   0  0  0  0  0  0  0  0  0  0  0  0
  187.7240  175.7690  142.7630 C   0  0  0  0  0  0  0  0  0  0  0  0
  186.1950  177.0370  144.1120 C   0  0  0  0  0  0  0  0  0  0  0  0
  186.4640  176.3390  142.9140 C   0  0  0  0  0  3  0  0  0  0  0  0
  189.5820  176.6010  145.9630 C   0  0  1  0  0  3  0  0  0  0  0  0
  184.6670  178.4250  145.5560 C   0  0  0  0  0  0  0  0  0  0  0  0
  190.7530  177.4330  145.4300 C   0  0  0  0  0  2  0  0  0  0  0  0
  188.4650  176.5530  144.9350 C   0  0  0  0  0  0  0  0  0  0  0  0
  187.1950  177.1440  145.1320 C   0  0  0  0  0  0  0  0  0  0  0  0
  189.5870  174.7710  142.1590 C   0  0  0  0  0  0  0  0  0  0  0  0
  190.8960  175.9290  145.5070 C   0  0  2  0  0  0  0  0  0  0  0  0
  190.9340  175.2750  144.1910 N   0  0  0  0  0  2  0  0  0  0  0  0
  189.7870  175.2890  143.3870 N   0  0  0  0  0  0  0  0  0  0  0  0
  186.9000  177.8730  146.3790 C   0  0  0  0  0  3  0  0  0  0  0  0
  191.4170  173.4390  140.7950 C   0  0  0  0  0  3  0  0  0  0  0  0
  190.5810  174.0450  141.4150 C   0  0  0  0  0  0  0  0  0  0  0  0
  191.8780  175.4580  146.5610 C   0  0  0  0  0  2  0  0  0  0  0  0
  193.0520  176.4150  146.6460 C   0  0  0  0  0  2  0  0  0  0  0  0
  195.0820  175.2170  146.3190 O   0  0  0  0  0  0  0  0  0  0  0  0
  194.2130  176.2700  144.4130 N   0  0  0  0  0  2  0  0  0  0  0  0
  194.1720  175.9200  145.8020 C   0  0  0  0  0  0  0  0  0  0  0  0
  196.9900  176.7910  142.2530 C   0  0  0  0  0  2  0  0  0  0  0  0
  195.2720  175.8700  143.4930 C   0  0  1  0  0  3  0  0  0  0  0  0
  194.7780  175.8670  142.0600 C   0  0  0  0  0  2  0  0  0  0  0  0
  195.8800  176.5200  141.2600 C   0  0  0  0  0  2  0  0  0  0  0  0
  196.4050  176.7810  143.5840 N   0  0  0  0  0  2  0  0  0  0  0  0
  1 10  1  0  0  0  0
  3 12  1  0  0  0  0
  4 14  2  0  0  0  0
  4  6  1  0  0  0  0
  6  8  1  0  0  0  0
  6  3  2  0  0  0  0
  7  1  1  0  0  0  0
  7 13  1  0  0  0  0
  8  7  2  0  0  0  0
  9 11  1  6  0  0  0
 10  5  2  0  0  0  0
 10  2  1  0  0  0  0
 11 15  1  0  0  0  0
 12 13  2  0  0  0  0
 12  9  1  0  0  0  0
 13 18  1  0  0  0  0
 14 17  1  0  0  0  0
 15  9  1  0  0  0  0
 15 21  1  1  0  0  0
 16 15  1  0  0  0  0
 17  3  1  0  0  0  0
 17 16  1  0  0  0  0
 18  2  2  0  0  0  0
 19 20  3  0  0  0  0
 20 14  1  0  0  0  0
 21 22  1  0  0  0  0
 24 25  1  0  0  0  0
 25 23  2  0  0  0  0
 25 22  1  0  0  0  0
 26 30  1  0  0  0  0
 27 30  1  0  0  0  0
 27 24  1  1  0  0  0
 28 27  1  0  0  0  0
 29 28  1  0  0  0  0
 29 26  1  0  0  0  0
M  END
>  <MODEL>
1

>  <REMARK>
 VINA RESULT:      -7.8      0.000      0.000
  Name = 
  5 active torsions:
  status: ('A' for Active; 'I' for Inactive)
    1  A    between atoms: C_7  and  C_13
    2  A    between atoms: C_7  and  C_24
    3  A    between atoms: C_13  and  C_17
    4  A    between atoms: C_15  and  N_16
    5  A    between atoms: C_23  and  C_29
                            x       y       z     vdW  Elec       q    Type
                         _______ _______ _______ _____ _____    ______ ____

>  <TORSDO>
F 5

$$$$
=
 OpenBabel11042413573D

 30 35  0  0  1  0  0  0  0  0999 V2000
  184.9050  177.6120  144.2750 C   0  0  0  0  0  2  0  0  0  0  0  0
  185.8300  178.3990  146.5690 C   0  0  0  0  0  3  0  0  0  0  0  0
  188.7160  175.8220  143.6780 C   0  0  0  0  0  0  0  0  0  0  0  0
  188.3160  175.0220  141.6370 C   0  0  0  0  0  3  0  0  0  0  0  0
  183.6940  179.0060  145.7800 O   0  0  0  0  0  0  0  0  0  0  0  0
  187.7710  175.7350  142.7030 C   0  0  0  0  0  0  0  0  0  0  0  0
  186.2650  176.9990  144.0810 C   0  0  0  0  0  0  0  0  0  0  0  0
  186.5190  176.3170  142.8710 C   0  0  0  0  0  3  0  0  0  0  0  0
  189.6590  176.4950  145.9030 C   0  0  1  0  0  3  0  0  0  0  0  0
  184.7630  178.3810  145.5570 C   0  0  0  0  0  0  0  0  0  0  0  0
  190.8360  177.3210  145.3760 C   0  0  0  0  0  2  0  0  0  0  0  0
  188.5350  176.4760  144.8820 C   0  0  0  0  0  0  0  0  0  0  0  0
  187.2720  177.0780  145.0960 C   0  0  0  0  0  0  0  0  0  0  0  0
  189.6180  174.7250  142.0720 C   0  0  0  0  0  0  0  0  0  0  0  0
  190.9620  175.8150  145.4280 C   0  0  2  0  0  0  0  0  0  0  0  0
  190.9840  175.1810  144.1020 N   0  0  0  0  0  2  0  0  0  0  0  0
  189.8330  175.2210  143.3060 N   0  0  0  0  0  0  0  0  0  0  0  0
  186.9940  177.7900  146.3570 C   0  0  0  0  0  3  0  0  0  0  0  0
  191.4250  173.3930  140.6750 C   0  0  0  0  0  3  0  0  0  0  0  0
  190.5990  173.9990  141.3100 C   0  0  0  0  0  0  0  0  0  0  0  0
  191.9440  175.3160  146.4690 C   0  0  0  0  0  2  0  0  0  0  0  0
  192.9310  176.4130  146.8230 C   0  0  0  0  0  2  0  0  0  0  0  0
  194.6940  177.1650  145.4130 O   0  0  0  0  0  0  0  0  0  0  0  0
  194.8380  174.9300  146.1040 N   0  0  0  0  0  2  0  0  0  0  0  0
  194.2020  176.2130  146.0770 C   0  0  0  0  0  0  0  0  0  0  0  0
  196.8480  173.1680  143.7580 C   0  0  0  0  0  2  0  0  0  0  0  0
  196.0690  174.6040  145.3910 C   0  0  1  0  0  3  0  0  0  0  0  0
  196.8660  173.5490  146.1320 C   0  0  0  0  0  2  0  0  0  0  0  0
  197.3280  172.5820  145.0690 C   0  0  0  0  0  2  0  0  0  0  0  0
  195.7730  174.1000  144.0570 N   0  0  0  0  0  2  0  0  0  0  0  0
  1 10  1  0  0  0  0
  3 12  1  0  0  0  0
  4 14  2  0  0  0  0
  4  6  1  0  0  0  0
  6  8  1  0  0  0  0
  6  3  2  0  0  0  0
  7  1  1  0  0  0  0
  7 13  1  0  0  0  0
  8  7  2  0  0  0  0
  9 11  1  6  0  0  0
 10  5  2  0  0  0  0
 10  2  1  0  0  0  0
 11 15  1  0  0  0  0
 12 13  2  0  0  0  0
 12  9  1  0  0  0  0
 13 18  1  0  0  0  0
 14 17  1  0  0  0  0
 15  9  1  0  0  0  0
 15 21  1  1  0  0  0
 16 15  1  0  0  0  0
 17  3  1  0  0  0  0
 17 16  1  0  0  0  0
 18  2  2  0  0  0  0
 19 20  3  0  0  0  0
 20 14  1  0  0  0  0
 21 22  1  0  0  0  0
 23 25  2  0  0  0  0
 25 24  1  0  0  0  0
 25 22  1  0  0  0  0
 26 30  1  0  0  0  0
 26 29  1  0  0  0  0
 27 24  1  1  0  0  0
 27 28  1  0  0  0  0
 29 28  1  0  0  0  0
 30 27  1  0  0  0  0
M  END
>  <MODEL>
2

>  <REMARK>
 VINA RESULT:      -7.8      1.551      1.806
  Name = 
  5 active torsions:
  status: ('A' for Active; 'I' for Inactive)
    1  A    between atoms: C_7  and  C_13
    2  A    between atoms: C_7  and  C_24
    3  A    between atoms: C_13  and  C_17
    4  A    between atoms: C_15  and  N_16
    5  A    between atoms: C_23  and  C_29
                            x       y       z     vdW  Elec       q    Type
                         _______ _______ _______ _____ _____    ______ ____

>  <TORSDO>
F 5

$$$$
=
 OpenBabel11042413573D

 30 35  0  0  1  0  0  0  0  0999 V2000
  190.7240  172.8630  144.5220 C   0  0  0  0  0  2  0  0  0  0  0  0
  190.4830  173.0690  141.9450 C   0  0  0  0  0  3  0  0  0  0  0  0
  188.0700  176.1790  144.7430 C   0  0  0  0  0  0  0  0  0  0  0  0
  188.0600  176.3620  146.9640 C   0  0  0  0  0  3  0  0  0  0  0  0
  191.9360  171.5210  142.9710 O   0  0  0  0  0  0  0  0  0  0  0  0
  188.5710  175.6400  145.8880 C   0  0  0  0  0  0  0  0  0  0  0  0
  189.7950  174.0450  144.5740 C   0  0  0  0  0  0  0  0  0  0  0  0
  189.4450  174.5580  145.8420 C   0  0  0  0  0  3  0  0  0  0  0  0
  187.7400  176.4010  142.2660 C   0  0  1  0  0  3  0  0  0  0  0  0
  191.0960  172.4450  143.1280 C   0  0  0  0  0  0  0  0  0  0  0  0
  188.2660  177.8320  142.1260 C   0  0  0  0  0  2  0  0  0  0  0  0
  188.3730  175.7280  143.4720 C   0  0  0  0  0  0  0  0  0  0  0  0
  189.2550  174.6260  143.3810 C   0  0  0  0  0  0  0  0  0  0  0  0
  187.2540  177.3370  146.3530 C   0  0  0  0  0  0  0  0  0  0  0  0
  186.8500  177.6150  142.6090 C   0  0  2  0  0  0  0  0  0  0  0  0
  186.6500  177.9670  144.0220 N   0  0  0  0  0  2  0  0  0  0  0  0
  187.2800  177.2030  145.0120 N   0  0  0  0  0  0  0  0  0  0  0  0
  189.6260  174.0790  142.0630 C   0  0  0  0  0  3  0  0  0  0  0  0
  185.8750  179.1920  147.6350 C   0  0  0  0  0  3  0  0  0  0  0  0
  186.5070  178.3480  147.0510 C   0  0  0  0  0  0  0  0  0  0  0  0
  185.7890  178.0430  141.6150 C   0  0  0  0  0  2  0  0  0  0  0  0
  184.4580  178.2270  142.3200 C   0  0  0  0  0  2  0  0  0  0  0  0
  183.6040  177.9920  140.1110 O   0  0  0  0  0  0  0  0  0  0  0  0
  182.0110  178.4670  141.7640 N   0  0  0  0  0  2  0  0  0  0  0  0
  183.3510  178.2100  141.3270 C   0  0  0  0  0  0  0  0  0  0  0  0
  179.0750  179.8830  140.3410 C   0  0  0  0  0  2  0  0  0  0  0  0
  180.8490  178.5050  140.8830 C   0  0  1  0  0  3  0  0  0  0  0  0
  179.6390  177.8800  141.5470 C   0  0  0  0  0  2  0  0  0  0  0  0
  178.4910  178.8120  141.2380 C   0  0  0  0  0  2  0  0  0  0  0  0
  180.5170  179.8780  140.5270 N   0  0  0  0  0  2  0  0  0  0  0  0
  1  7  1  0  0  0  0
  2 18  2  0  0  0  0
  2 10  1  0  0  0  0
  3 17  1  0  0  0  0
  3  6  1  0  0  0  0
  5 10  2  0  0  0  0
  6  4  1  0  0  0  0
  7  8  1  0  0  0  0
  8  6  2  0  0  0  0
  9 11  1  6  0  0  0
  9 15  1  0  0  0  0
  9 12  1  0  0  0  0
 10  1  1  0  0  0  0
 11 15  1  0  0  0  0
 12  3  2  0  0  0  0
 13 12  1  0  0  0  0
 13  7  2  0  0  0  0
 14  4  2  0  0  0  0
 14 20  1  0  0  0  0
 15 21  1  6  0  0  0
 15 16  1  0  0  0  0
 16 17  1  0  0  0  0
 17 14  1  0  0  0  0
 18 13  1  0  0  0  0
 20 19  3  0  0  0  0
 21 22  1  0  0  0  0
 23 25  2  0  0  0  0
 25 24  1  0  0  0  0
 25 22  1  0  0  0  0
 26 30  1  0  0  0  0
 26 29  1  0  0  0  0
 27 28  1  0  0  0  0
 27 24  1  1  0  0  0
 29 28  1  0  0  0  0
 30 27  1  0  0  0  0
M  END
>  <MODEL>
3

>  <REMARK>
 VINA RESULT:      -7.7      4.159      9.678
  Name = 
  5 active torsions:
  status: ('A' for Active; 'I' for Inactive)
    1  A    between atoms: C_7  and  C_13
    2  A    between atoms: C_7  and  C_24
    3  A    between atoms: C_13  and  C_17
    4  A    between atoms: C_15  and  N_16
    5  A    between atoms: C_23  and  C_29
                            x       y       z     vdW  Elec       q    Type
                         _______ _______ _______ _____ _____    ______ ____

>  <TORSDO>
F 5

$$$$
=
 OpenBabel11042413573D

 30 35  0  0  1  0  0  0  0  0999 V2000
  196.2570  175.6370  144.2720 C   0  0  0  0  0  2  0  0  0  0  0  0
  195.7410  176.4690  141.8680 C   0  0  0  0  0  3  0  0  0  0  0  0
  192.0420  175.5680  144.8410 C   0  0  0  0  0  0  0  0  0  0  0  0
  192.0730  174.9030  146.9680 C   0  0  0  0  0  3  0  0  0  0  0  0
  197.9360  176.2680  142.7040 O   0  0  0  0  0  0  0  0  0  0  0  0
  192.8660  175.2240  145.8680 C   0  0  0  0  0  0  0  0  0  0  0  0
  194.7630  175.6340  144.4540 C   0  0  0  0  0  0  0  0  0  0  0  0
  194.2490  175.2430  145.7090 C   0  0  0  0  0  3  0  0  0  0  0  0
  191.4650  176.3110  142.5160 C   0  0  1  0  0  3  0  0  0  0  0  0
  196.7040  176.1430  142.9310 C   0  0  0  0  0  0  0  0  0  0  0  0
  190.7080  177.5860  142.8990 C   0  0  0  0  0  2  0  0  0  0  0  0
  192.4800  175.9630  143.5900 C   0  0  0  0  0  0  0  0  0  0  0  0
  193.8790  175.9920  143.3850 C   0  0  0  0  0  0  0  0  0  0  0  0
  190.7640  175.0980  146.4970 C   0  0  0  0  0  0  0  0  0  0  0  0
  189.9950  176.2560  142.9860 C   0  0  2  0  0  0  0  0  0  0  0  0
  189.7110  175.8300  144.3640 N   0  0  0  0  0  2  0  0  0  0  0  0
  190.7760  175.5010  145.2110 N   0  0  0  0  0  0  0  0  0  0  0  0
  194.4300  176.3950  142.0780 C   0  0  0  0  0  3  0  0  0  0  0  0
  188.5650  174.7410  147.9200 C   0  0  0  0  0  3  0  0  0  0  0  0
  189.5690  174.9050  147.2740 C   0  0  0  0  0  0  0  0  0  0  0  0
  188.9050  176.0740  141.9490 C   0  0  0  0  0  2  0  0  0  0  0  0
  187.9950  177.2870  141.9300 C   0  0  0  0  0  2  0  0  0  0  0  0
  186.0310  176.2590  142.7960 O   0  0  0  0  0  0  0  0  0  0  0  0
  186.9110  178.0060  144.0900 N   0  0  0  0  0  2  0  0  0  0  0  0
  186.9250  177.1350  142.9510 C   0  0  0  0  0  0  0  0  0  0  0  0
  185.4890  178.8500  147.2380 C   0  0  0  0  0  2  0  0  0  0  0  0
  185.9000  177.9730  145.1410 C   0  0  1  0  0  3  0  0  0  0  0  0
  186.1540  176.8340  146.1080 C   0  0  0  0  0  2  0  0  0  0  0  0
  185.9390  177.4250  147.4810 C   0  0  0  0  0  2  0  0  0  0  0  0
  185.8980  179.2200  145.8930 N   0  0  0  0  0  2  0  0  0  0  0  0
  1  7  1  0  0  0  0
  2 18  2  0  0  0  0
  2 10  1  0  0  0  0
  3 17  1  0  0  0  0
  3  6  1  0  0  0  0
  5 10  2  0  0  0  0
  6  4  1  0  0  0  0
  7  8  1  0  0  0  0
  8  6  2  0  0  0  0
  9 11  1  1  0  0  0
  9 15  1  0  0  0  0
  9 12  1  0  0  0  0
 10  1  1  0  0  0  0
 11 15  1  0  0  0  0
 12  3  2  0  0  0  0
 13 12  1  0  0  0  0
 13  7  2  0  0  0  0
 14  4  2  0  0  0  0
 14 20  1  0  0  0  0
 15 21  1  6  0  0  0
 15 16  1  0  0  0  0
 16 17  1  0  0  0  0
 17 14  1  0  0  0  0
 18 13  1  0  0  0  0
 20 19  3  0  0  0  0
 22 21  1  0  0  0  0
 22 25  1  0  0  0  0
 23 25  2  0  0  0  0
 25 24  1  0  0  0  0
 26 29  1  0  0  0  0
 27 24  1  6  0  0  0
 27 30  1  0  0  0  0
 27 28  1  0  0  0  0
 28 29  1  0  0  0  0
 30 26  1  0  0  0  0
M  END
>  <MODEL>
4

>  <REMARK>
 VINA RESULT:      -7.4      2.296      8.317
  Name = 
  5 active torsions:
  status: ('A' for Active; 'I' for Inactive)
    1  A    between atoms: C_7  and  C_13
    2  A    between atoms: C_7  and  C_24
    3  A    between atoms: C_13  and  C_17
    4  A    between atoms: C_15  and  N_16
    5  A    between atoms: C_23  and  C_29
                            x       y       z     vdW  Elec       q    Type
                         _______ _______ _______ _____ _____    ______ ____

>  <TORSDO>
F 5

$$$$
=
 OpenBabel11042413573D

 30 35  0  0  1  0  0  0  0  0999 V2000
  195.0700  174.5670  145.7730 C   0  0  0  0  0  2  0  0  0  0  0  0
  195.5270  175.6890  143.4760 C   0  0  0  0  0  3  0  0  0  0  0  0
  191.1090  176.0700  145.3910 C   0  0  0  0  0  0  0  0  0  0  0  0
  190.3470  175.3050  147.3410 C   0  0  0  0  0  3  0  0  0  0  0  0
  197.2110  174.6140  144.7280 O   0  0  0  0  0  0  0  0  0  0  0  0
  191.4600  175.3710  146.5050 C   0  0  0  0  0  0  0  0  0  0  0  0
  193.6790  175.1210  145.6210 C   0  0  0  0  0  0  0  0  0  0  0  0
  192.7510  174.8730  146.6560 C   0  0  0  0  0  3  0  0  0  0  0  0
  191.4590  177.1270  143.1430 C   0  0  1  0  0  3  0  0  0  0  0  0
  196.0010  174.9520  144.6580 C   0  0  0  0  0  0  0  0  0  0  0  0
  191.1280  178.5660  143.5500 C   0  0  0  0  0  2  0  0  0  0  0  0
  191.9680  176.3490  144.3450 C   0  0  0  0  0  0  0  0  0  0  0  0
  193.2900  175.8570  144.4560 C   0  0  0  0  0  0  0  0  0  0  0  0
  189.3620  176.0130  146.6330 C   0  0  0  0  0  0  0  0  0  0  0  0
  189.9960  177.6040  143.2680 C   0  0  2  0  0  0  0  0  0  0  0  0
  189.2310  177.2290  144.4650 N   0  0  0  0  0  2  0  0  0  0  0  0
  189.8510  176.4640  145.4610 N   0  0  0  0  0  0  0  0  0  0  0  0
  194.2680  176.1050  143.3810 C   0  0  0  0  0  3  0  0  0  0  0  0
  186.8910  176.4230  147.4760 C   0  0  0  0  0  3  0  0  0  0  0  0
  188.0170  176.2390  147.0900 C   0  0  0  0  0  0  0  0  0  0  0  0
  189.2230  177.9190  142.0020 C   0  0  0  0  0  2  0  0  0  0  0  0
  187.9410  177.1090  141.9590 C   0  0  0  0  0  2  0  0  0  0  0  0
  186.8310  179.1180  142.5880 O   0  0  0  0  0  0  0  0  0  0  0  0
  185.5600  177.6210  141.3080 N   0  0  0  0  0  2  0  0  0  0  0  0
  186.7650  178.0190  141.9740 C   0  0  0  0  0  0  0  0  0  0  0  0
  182.2000  178.4170  142.1620 C   0  0  0  0  0  2  0  0  0  0  0  0
  184.3350  178.4120  141.2770 C   0  0  1  0  0  3  0  0  0  0  0  0
  183.4300  177.9740  140.1430 C   0  0  0  0  0  2  0  0  0  0  0  0
  182.0430  177.9240  140.7390 C   0  0  0  0  0  2  0  0  0  0  0  0
  183.6000  178.2730  142.5280 N   0  0  0  0  0  2  0  0  0  0  0  0
  2 10  1  0  0  0  0
  3 17  1  0  0  0  0
  3  6  1  0  0  0  0
  6  8  2  0  0  0  0
  6  4  1  0  0  0  0
  7  1  1  0  0  0  0
  7  8  1  0  0  0  0
  9 15  1  0  0  0  0
  9 11  1  1  0  0  0
  9 12  1  0  0  0  0
 10  5  2  0  0  0  0
 10  1  1  0  0  0  0
 12 13  1  0  0  0  0
 12  3  2  0  0  0  0
 13  7  2  0  0  0  0
 14 20  1  0  0  0  0
 14  4  2  0  0  0  0
 15 21  1  6  0  0  0
 15 11  1  0  0  0  0
 15 16  1  0  0  0  0
 16 17  1  0  0  0  0
 17 14  1  0  0  0  0
 18  2  2  0  0  0  0
 18 13  1  0  0  0  0
 20 19  3  0  0  0  0
 22 25  1  0  0  0  0
 22 21  1  0  0  0  0
 24 25  1  0  0  0  0
 25 23  2  0  0  0  0
 26 30  1  0  0  0  0
 27 24  1  1  0  0  0
 27 30  1  0  0  0  0
 28 29  1  0  0  0  0
 28 27  1  0  0  0  0
 29 26  1  0  0  0  0
M  END
>  <MODEL>
5

>  <REMARK>
 VINA RESULT:      -7.3      2.764      8.667
  Name = 
  5 active torsions:
  status: ('A' for Active; 'I' for Inactive)
    1  A    between atoms: C_7  and  C_13
    2  A    between atoms: C_7  and  C_24
    3  A    between atoms: C_13  and  C_17
    4  A    between atoms: C_15  and  N_16
    5  A    between atoms: C_23  and  C_29
                            x       y       z     vdW  Elec       q    Type
                         _______ _______ _______ _____ _____    ______ ____

>  <TORSDO>
F 5

$$$$
=
 OpenBabel11042413573D

 30 35  0  0  1  0  0  0  0  0999 V2000
  184.7110  177.9160  143.8090 C   0  0  0  0  0  2  0  0  0  0  0  0
  185.6260  178.1750  141.3930 C   0  0  0  0  0  3  0  0  0  0  0  0
  188.6650  176.7630  144.8720 C   0  0  0  0  0  0  0  0  0  0  0  0
  188.2570  176.3770  147.0280 C   0  0  0  0  0  3  0  0  0  0  0  0
  183.3500  178.4640  141.9330 O   0  0  0  0  0  0  0  0  0  0  0  0
  187.6900  176.7800  145.8210 C   0  0  0  0  0  0  0  0  0  0  0  0
  186.1140  177.4980  144.1580 C   0  0  0  0  0  0  0  0  0  0  0  0
  186.3870  177.1480  145.4980 C   0  0  0  0  0  3  0  0  0  0  0  0
  189.6340  177.0490  142.5760 C   0  0  1  0  0  3  0  0  0  0  0  0
  184.5060  178.1910  142.3460 C   0  0  0  0  0  0  0  0  0  0  0  0
  190.1050  175.6050  142.3810 C   0  0  0  0  0  2  0  0  0  0  0  0
  188.4640  177.0900  143.5440 C   0  0  0  0  0  0  0  0  0  0  0  0
  187.1540  177.4750  143.1730 C   0  0  0  0  0  0  0  0  0  0  0  0
  189.5980  176.1270  146.6950 C   0  0  0  0  0  0  0  0  0  0  0  0
  190.9570  176.5500  143.1970 C   0  0  2  0  0  0  0  0  0  0  0  0
  190.9850  176.2270  144.6310 N   0  0  0  0  0  2  0  0  0  0  0  0
  189.8150  176.3670  145.3860 N   0  0  0  0  0  0  0  0  0  0  0  0
  186.8560  177.8470  141.7780 C   0  0  0  0  0  3  0  0  0  0  0  0
  191.4500  175.2910  148.3850 C   0  0  0  0  0  3  0  0  0  0  0  0
  190.6070  175.6700  147.6120 C   0  0  0  0  0  0  0  0  0  0  0  0
  192.2640  176.9320  142.5300 C   0  0  0  0  0  2  0  0  0  0  0  0
  193.0230  175.6850  142.1190 C   0  0  0  0  0  2  0  0  0  0  0  0
  195.2880  176.4160  142.1230 O   0  0  0  0  0  0  0  0  0  0  0  0
  194.7010  174.9380  143.8450 N   0  0  0  0  0  2  0  0  0  0  0  0
  194.3990  175.7190  142.6830 C   0  0  0  0  0  0  0  0  0  0  0  0
  197.7410  173.3690  144.8190 C   0  0  0  0  0  2  0  0  0  0  0  0
  196.0170  174.8670  144.4720 C   0  0  1  0  0  3  0  0  0  0  0  0
  195.9070  174.4610  145.9280 C   0  0  0  0  0  2  0  0  0  0  0  0
  197.0000  173.4400  146.1380 C   0  0  0  0  0  2  0  0  0  0  0  0
  196.8610  173.8970  143.7880 N   0  0  0  0  0  2  0  0  0  0  0  0
  1  7  1  0  0  0  0
  2 18  2  0  0  0  0
  2 10  1  0  0  0  0
  3 17  1  0  0  0  0
  3  6  1  0  0  0  0
  5 10  2  0  0  0  0
  6  4  1  0  0  0  0
  7  8  1  0  0  0  0
  8  6  2  0  0  0  0
  9 11  1  6  0  0  0
  9 15  1  0  0  0  0
  9 12  1  0  0  0  0
 10  1  1  0  0  0  0
 11 15  1  0  0  0  0
 12  3  2  0  0  0  0
 13 12  1  0  0  0  0
 13  7  2  0  0  0  0
 14  4  2  0  0  0  0
 14 20  1  0  0  0  0
 15 21  1  6  0  0  0
 15 16  1  0  0  0  0
 16 17  1  0  0  0  0
 17 14  1  0  0  0  0
 18 13  1  0  0  0  0
 20 19  3  0  0  0  0
 22 21  1  0  0  0  0
 22 25  1  0  0  0  0
 23 25  2  0  0  0  0
 25 24  1  0  0  0  0
 26 29  1  0  0  0  0
 27 24  1  6  0  0  0
 27 28  1  0  0  0  0
 28 29  1  0  0  0  0
 30 27  1  0  0  0  0
 30 26  1  0  0  0  0
M  END
>  <MODEL>
6

>  <REMARK>
 VINA RESULT:      -7.3      2.143      3.851
  Name = 
  5 active torsions:
  status: ('A' for Active; 'I' for Inactive)
    1  A    between atoms: C_7  and  C_13
    2  A    between atoms: C_7  and  C_24
    3  A    between atoms: C_13  and  C_17
    4  A    between atoms: C_15  and  N_16
    5  A    between atoms: C_23  and  C_29
                            x       y       z     vdW  Elec       q    Type
                         _______ _______ _______ _____ _____    ______ ____

>  <TORSDO>
F 5

$$$$
=
 OpenBabel11042413573D

 30 35  0  0  1  0  0  0  0  0999 V2000
  194.5150  174.5220  145.8610 C   0  0  0  0  0  2  0  0  0  0  0  0
  195.1010  175.6380  143.5910 C   0  0  0  0  0  3  0  0  0  0  0  0
  190.6440  176.2130  145.3620 C   0  0  0  0  0  0  0  0  0  0  0  0
  189.7820  175.4710  147.2790 C   0  0  0  0  0  3  0  0  0  0  0  0
  196.6890  174.4750  144.8880 O   0  0  0  0  0  0  0  0  0  0  0  0
  190.9250  175.4910  146.4810 C   0  0  0  0  0  0  0  0  0  0  0  0
  193.1580  175.1420  145.6690 C   0  0  0  0  0  0  0  0  0  0  0  0
  192.1850  174.9320  146.6710 C   0  0  0  0  0  3  0  0  0  0  0  0
  191.1180  177.2690  143.1370 C   0  0  1  0  0  3  0  0  0  0  0  0
  195.5000  174.8710  144.7810 C   0  0  0  0  0  0  0  0  0  0  0  0
  190.8410  178.7190  143.5450 C   0  0  0  0  0  2  0  0  0  0  0  0
  191.5500  176.4590  144.3470 C   0  0  0  0  0  0  0  0  0  0  0  0
  192.8430  175.9050  144.4980 C   0  0  0  0  0  0  0  0  0  0  0  0
  188.8560  176.2300  146.5450 C   0  0  0  0  0  0  0  0  0  0  0  0
  189.6760  177.8140  143.2170 C   0  0  2  0  0  0  0  0  0  0  0  0
  188.8540  177.4670  144.3850 N   0  0  0  0  0  2  0  0  0  0  0  0
  189.4040  176.6670  145.3940 N   0  0  0  0  0  0  0  0  0  0  0  0
  193.8660  176.1140  143.4580 C   0  0  0  0  0  3  0  0  0  0  0  0
  186.3820  176.7590  147.3110 C   0  0  0  0  0  3  0  0  0  0  0  0
  187.5090  176.5160  146.9600 C   0  0  0  0  0  0  0  0  0  0  0  0
  188.9610  178.1740  141.9300 C   0  0  0  0  0  2  0  0  0  0  0  0
  187.6520  177.4150  141.8300 C   0  0  0  0  0  2  0  0  0  0  0  0
  187.5040  175.9350  139.9720 O   0  0  0  0  0  0  0  0  0  0  0  0
  188.4890  175.0380  141.9010 N   0  0  0  0  0  2  0  0  0  0  0  0
  187.8750  176.1030  141.1650 C   0  0  0  0  0  0  0  0  0  0  0  0
  189.7190  171.7010  141.9740 C   0  0  0  0  0  2  0  0  0  0  0  0
  188.7340  173.7020  141.3690 C   0  0  1  0  0  3  0  0  0  0  0  0
  190.0410  173.6500  140.6020 C   0  0  0  0  0  2  0  0  0  0  0  0
  190.7080  172.3690  141.0420 C   0  0  0  0  0  2  0  0  0  0  0  0
  188.7960  172.7220  142.4450 N   0  0  0  0  0  2  0  0  0  0  0  0
  2 10  1  0  0  0  0
  3 17  1  0  0  0  0
  3  6  1  0  0  0  0
  6  8  2  0  0  0  0
  6  4  1  0  0  0  0
  7  1  1  0  0  0  0
  7  8  1  0  0  0  0
  9 15  1  0  0  0  0
  9 11  1  1  0  0  0
  9 12  1  0  0  0  0
 10  5  2  0  0  0  0
 10  1  1  0  0  0  0
 12 13  1  0  0  0  0
 12  3  2  0  0  0  0
 13  7  2  0  0  0  0
 14 20  1  0  0  0  0
 14  4  2  0  0  0  0
 15 21  1  6  0  0  0
 15 11  1  0  0  0  0
 15 16  1  0  0  0  0
 16 17  1  0  0  0  0
 17 14  1  0  0  0  0
 18  2  2  0  0  0  0
 18 13  1  0  0  0  0
 20 19  3  0  0  0  0
 22 21  1  0  0  0  0
 23 25  2  0  0  0  0
 25 22  1  0  0  0  0
 25 24  1  0  0  0  0
 26 30  1  0  0  0  0
 27 24  1  1  0  0  0
 27 30  1  0  0  0  0
 28 29  1  0  0  0  0
 28 27  1  0  0  0  0
 29 26  1  0  0  0  0
M  END
>  <MODEL>
7

>  <REMARK>
 VINA RESULT:      -7.3      2.788      7.223
  Name = 
  5 active torsions:
  status: ('A' for Active; 'I' for Inactive)
    1  A    between atoms: C_7  and  C_13
    2  A    between atoms: C_7  and  C_24
    3  A    between atoms: C_13  and  C_17
    4  A    between atoms: C_15  and  N_16
    5  A    between atoms: C_23  and  C_29
                            x       y       z     vdW  Elec       q    Type
                         _______ _______ _______ _____ _____    ______ ____

>  <TORSDO>
F 5

$$$$
=
 OpenBabel11042413573D

 30 35  0  0  1  0  0  0  0  0999 V2000
  185.1460  177.4910  144.7930 C   0  0  0  0  0  2  0  0  0  0  0  0
  186.2270  177.9660  147.1060 C   0  0  0  0  0  3  0  0  0  0  0  0
  188.8290  175.6190  143.7820 C   0  0  0  0  0  0  0  0  0  0  0  0
  188.2850  175.0790  141.6890 C   0  0  0  0  0  3  0  0  0  0  0  0
  184.0850  178.7520  146.5130 O   0  0  0  0  0  0  0  0  0  0  0  0
  187.8320  175.6870  142.8580 C   0  0  0  0  0  0  0  0  0  0  0  0
  186.4630  176.8470  144.4540 C   0  0  0  0  0  0  0  0  0  0  0  0
  186.6200  176.2990  143.1620 C   0  0  0  0  0  3  0  0  0  0  0  0
  189.9170  175.9880  146.0110 C   0  0  1  0  0  3  0  0  0  0  0  0
  185.1090  178.1120  146.1610 C   0  0  0  0  0  0  0  0  0  0  0  0
  191.1050  176.8190  145.5150 C   0  0  0  0  0  2  0  0  0  0  0  0
  188.7420  176.1370  145.0600 C   0  0  0  0  0  0  0  0  0  0  0  0
  187.5240  176.7640  145.4130 C   0  0  0  0  0  0  0  0  0  0  0  0
  189.5910  174.6780  142.0120 C   0  0  0  0  0  0  0  0  0  0  0  0
  191.1590  175.3130  145.3890 C   0  0  2  0  0  0  0  0  0  0  0  0
  191.0810  174.8360  144.0010 N   0  0  0  0  0  2  0  0  0  0  0  0
  189.8930  175.0180  143.2810 N   0  0  0  0  0  0  0  0  0  0  0  0
  187.3460  177.3370  146.7600 C   0  0  0  0  0  3  0  0  0  0  0  0
  191.2490  173.4340  140.3720 C   0  0  0  0  0  3  0  0  0  0  0  0
  190.4940  174.0040  141.1180 C   0  0  0  0  0  0  0  0  0  0  0  0
  192.1680  174.6550  146.3090 C   0  0  0  0  0  2  0  0  0  0  0  0
  193.5770  174.9370  145.8240 C   0  0  0  0  0  2  0  0  0  0  0  0
  194.7480  173.8810  144.0410 O   0  0  0  0  0  0  0  0  0  0  0  0
  193.9090  172.4410  145.6900 N   0  0  0  0  0  2  0  0  0  0  0  0
  194.1230  173.7420  145.1270 C   0  0  0  0  0  0  0  0  0  0  0  0
  193.5660  169.1200  144.4660 C   0  0  0  0  0  2  0  0  0  0  0  0
  194.3690  171.1950  145.0870 C   0  0  1  0  0  3  0  0  0  0  0  0
  194.8830  170.2350  146.1410 C   0  0  0  0  0  2  0  0  0  0  0  0
  194.3110  168.8900  145.7640 C   0  0  0  0  0  2  0  0  0  0  0  0
  193.2860  170.5430  144.3630 N   0  0  0  0  0  2  0  0  0  0  0  0
  1 10  1  0  0  0  0
  3 12  1  0  0  0  0
  4 14  2  0  0  0  0
  4  6  1  0  0  0  0
  6  8  1  0  0  0  0
  6  3  2  0  0  0  0
  7  1  1  0  0  0  0
  7 13  1  0  0  0  0
  8  7  2  0  0  0  0
  9 11  1  6  0  0  0
 10  5  2  0  0  0  0
 10  2  1  0  0  0  0
 12 13  2  0  0  0  0
 12  9  1  0  0  0  0
 13 18  1  0  0  0  0
 14 17  1  0  0  0  0
 15 11  1  0  0  0  0
 15  9  1  0  0  0  0
 15 21  1  1  0  0  0
 16 15  1  0  0  0  0
 17  3  1  0  0  0  0
 17 16  1  0  0  0  0
 18  2  2  0  0  0  0
 19 20  3  0  0  0  0
 20 14  1  0  0  0  0
 22 21  1  0  0  0  0
 23 25  2  0  0  0  0
 25 24  1  0  0  0  0
 25 22  1  0  0  0  0
 26 29  1  0  0  0  0
 27 24  1  1  0  0  0
 27 28  1  0  0  0  0
 29 28  1  0  0  0  0
 30 26  1  0  0  0  0
 30 27  1  0  0  0  0
M  END
>  <MODEL>
8

>  <REMARK>
 VINA RESULT:      -7.2      2.629      3.258
  Name = 
  5 active torsions:
  status: ('A' for Active; 'I' for Inactive)
    1  A    between atoms: C_7  and  C_13
    2  A    between atoms: C_7  and  C_24
    3  A    between atoms: C_13  and  C_17
    4  A    between atoms: C_15  and  N_16
    5  A    between atoms: C_23  and  C_29
                            x       y       z     vdW  Elec       q    Type
                         _______ _______ _______ _____ _____    ______ ____

>  <TORSDO>
F 5

$$$$
=
 OpenBabel11042413573D

 30 35  0  0  1  0  0  0  0  0999 V2000
  188.1830  174.8330  140.1870 C   0  0  0  0  0  2  0  0  0  0  0  0
  190.2570  173.3380  140.6410 C   0  0  0  0  0  3  0  0  0  0  0  0
  188.4360  175.9280  144.2890 C   0  0  0  0  0  0  0  0  0  0  0  0
  186.6560  177.2690  144.3150 C   0  0  0  0  0  3  0  0  0  0  0  0
  189.1430  173.3780  138.5640 O   0  0  0  0  0  0  0  0  0  0  0  0
  187.4380  176.4360  143.5160 C   0  0  0  0  0  0  0  0  0  0  0  0
  188.2840  175.1940  141.6440 C   0  0  0  0  0  0  0  0  0  0  0  0
  187.3300  176.0900  142.1730 C   0  0  0  0  0  3  0  0  0  0  0  0
  190.4750  174.5550  144.7880 C   0  0  1  0  0  3  0  0  0  0  0  0
  189.1940  173.8150  139.7420 C   0  0  0  0  0  0  0  0  0  0  0  0
  189.8540  173.6690  145.8730 C   0  0  0  0  0  2  0  0  0  0  0  0
  189.3990  175.0460  143.8350 C   0  0  0  0  0  0  0  0  0  0  0  0
  189.3280  174.6700  142.4730 C   0  0  0  0  0  0  0  0  0  0  0  0
  187.2700  177.1860  145.5750 C   0  0  0  0  0  0  0  0  0  0  0  0
  190.3190  175.0600  146.2400 C   0  0  2  0  0  0  0  0  0  0  0  0
  189.2190  175.9840  146.5500 N   0  0  0  0  0  2  0  0  0  0  0  0
  188.3410  176.3690  145.5300 N   0  0  0  0  0  0  0  0  0  0  0  0
  190.3210  173.7390  141.9080 C   0  0  0  0  0  3  0  0  0  0  0  0
  186.4420  178.4410  147.7500 C   0  0  0  0  0  3  0  0  0  0  0  0
  186.8220  177.8690  146.7590 C   0  0  0  0  0  0  0  0  0  0  0  0
  191.5400  175.0830  147.1370 C   0  0  0  0  0  2  0  0  0  0  0  0
  192.1950  176.4510  147.0920 C   0  0  0  0  0  2  0  0  0  0  0  0
  194.4050  177.2620  146.7460 O   0  0  0  0  0  0  0  0  0  0  0  0
  193.9310  175.1800  145.7780 N   0  0  0  0  0  2  0  0  0  0  0  0
  193.5730  176.3360  146.5460 C   0  0  0  0  0  0  0  0  0  0  0  0
  196.3600  173.4290  143.8600 C   0  0  0  0  0  2  0  0  0  0  0  0
  195.2390  174.9680  145.1690 C   0  0  1  0  0  3  0  0  0  0  0  0
  196.1710  174.2390  146.1160 C   0  0  0  0  0  2  0  0  0  0  0  0
  196.8620  173.1970  145.2690 C   0  0  0  0  0  2  0  0  0  0  0  0
  195.1180  174.1790  143.9500 N   0  0  0  0  0  2  0  0  0  0  0  0
  1  7  1  0  0  0  0
  2 18  2  0  0  0  0
  3 17  1  0  0  0  0
  4 14  2  0  0  0  0
  5 10  2  0  0  0  0
  6  3  2  0  0  0  0
  6  4  1  0  0  0  0
  7  8  2  0  0  0  0
  7 13  1  0  0  0  0
  8  6  1  0  0  0  0
  9 11  1  1  0  0  0
  9 15  1  0  0  0  0
 10  1  1  0  0  0  0
 10  2  1  0  0  0  0
 11 15  1  0  0  0  0
 12  3  1  0  0  0  0
 12  9  1  0  0  0  0
 13 12  2  0  0  0  0
 14 20  1  0  0  0  0
 15 16  1  0  0  0  0
 15 21  1  1  0  0  0
 17 14  1  0  0  0  0
 17 16  1  0  0  0  0
 18 13  1  0  0  0  0
 20 19  3  0  0  0  0
 22 21  1  0  0  0  0
 24 25  1  0  0  0  0
 25 23  2  0  0  0  0
 25 22  1  0  0  0  0
 26 30  1  0  0  0  0
 26 29  1  0  0  0  0
 27 24  1  1  0  0  0
 27 28  1  0  0  0  0
 29 28  1  0  0  0  0
 30 27  1  0  0  0  0
M  END
>  <MODEL>
9

>  <REMARK>
 VINA RESULT:      -7.1      2.726      4.881
  Name = 
  5 active torsions:
  status: ('A' for Active; 'I' for Inactive)
    1  A    between atoms: C_7  and  C_13
    2  A    between atoms: C_7  and  C_24
    3  A    between atoms: C_13  and  C_17
    4  A    between atoms: C_15  and  N_16
    5  A    between atoms: C_23  and  C_29
                            x       y       z     vdW  Elec       q    Type
                         _______ _______ _______ _____ _____    ______ ____

>  <TORSDO>
F 5

$$$$
