=
 OpenBabel11042419183D

 43 43  0  0  1  0  0  0  0  0999 V2000
  190.9340  172.7250  142.7700 C   0  0  1  0  0  3  0  0  0  0  0  0
  190.3980  171.4230  140.8360 O   0  0  0  0  0  0  0  0  0  0  0  0
  190.2750  172.5230  141.4410 C   0  0  0  0  0  0  0  0  0  0  0  0
  189.5040  173.6120  140.8260 C   0  0  0  0  0  0  0  0  0  0  0  0
  189.3350  173.6410  139.5780 O   0  0  0  0  0  0  0  0  0  0  0  0
  188.9430  174.6370  141.6460 N   0  0  0  0  0  2  0  0  0  0  0  0
  185.6030  177.7910  142.1280 O   0  0  0  0  0  0  0  0  0  0  0  0
  187.2590  176.2730  141.7590 C   0  0  0  0  0  0  0  0  0  0  0  0
  186.5010  177.2940  141.2590 O   0  0  0  0  0  0  0  0  0  0  0  0
  185.6740  176.9370  143.2680 C   0  0  1  0  0  3  0  0  0  0  0  0
  186.8520  175.9670  143.1230 C   0  0  0  0  0  2  0  0  0  0  0  0
  188.1940  175.6830  141.0880 N   0  0  0  0  0  0  0  0  0  0  0  0
  185.8110  177.7660  144.5420 C   0  0  2  0  0  3  0  0  0  0  0  0
  187.1090  178.2720  144.6450 O   0  0  0  0  0  1  0  0  0  0  0  0
  185.5110  176.9080  145.7610 C   0  0  0  0  0  2  0  0  0  0  0  0
  184.0770  178.5730  145.9520 C   0  0  0  0  0  1  0  0  0  0  0  0
  184.8060  177.6540  146.7050 O   0  0  0  0  0  0  0  0  0  0  0  0
  190.1350  172.0320  143.8680 C   0  0  0  0  0  2  0  0  0  0  0  0
  189.8400  172.9650  144.9580 C   0  0  0  0  0  0  0  0  0  0  0  0
  189.6000  173.7340  145.8560 C   0  0  0  0  0  0  0  0  0  0  0  0
  189.3160  174.6670  146.9510 C   0  0  0  0  0  2  0  0  0  0  0  0
  191.6420  175.4520  146.9300 C   0  0  0  0  0  3  0  0  0  0  0  0
  189.8650  177.1750  147.0860 C   0  0  0  0  0  1  0  0  0  0  0  0
  190.3380  175.7580  147.0010 C   0  0  0  0  0  0  0  0  0  0  0  0
  192.7380  176.4770  146.9380 C   0  0  0  0  0  2  0  0  0  0  0  0
  194.4040  177.5010  145.5790 O   0  0  0  0  0  1  0  0  0  0  0  0
  193.5900  176.3700  145.6790 C   0  0  2  0  0  3  0  0  0  0  0  0
  192.7010  176.2510  144.4430 C   0  0  1  0  0  3  0  0  0  0  0  0
  192.0880  177.5390  144.1460 N   0  0  0  0  0  2  0  0  0  0  0  0
  190.9030  177.2710  143.3490 C   0  0  0  0  0  1  0  0  0  0  0  0
  193.5300  175.8030  143.2460 C   0  0  0  0  0  2  0  0  0  0  0  0
  194.6600  174.8940  143.6950 C   0  0  0  0  0  2  0  0  0  0  0  0
  195.8570  175.0310  142.7620 C   0  0  0  0  0  2  0  0  0  0  0  0
  197.7510  176.4820  143.0550 O   0  0  0  0  0  1  0  0  0  0  0  0
  196.4000  176.4570  142.7070 C   0  0  0  0  0  3  0  0  0  0  0  0
  196.2290  177.0060  141.4360 O   0  0  0  0  0  1  0  0  0  0  0  0
  192.3690  172.2090  142.7140 C   0  0  0  0  0  2  0  0  0  0  0  0
  192.6080  171.1010  143.7320 C   0  0  0  0  0  2  0  0  0  0  0  0
  193.7630  171.4380  144.6620 C   0  0  0  0  0  2  0  0  0  0  0  0
  195.0880  171.3550  143.9210 C   0  0  0  0  0  2  0  0  0  0  0  0
  196.2460  171.4880  144.8960 C   0  0  0  0  0  2  0  0  0  0  0  0
  196.6670  169.2020  145.7430 C   0  0  0  0  0  1  0  0  0  0  0  0
  196.0570  170.5490  146.0730 C   0  0  0  0  0  2  0  0  0  0  0  0
  1 37  1  6  0  0  0
  1 18  1  0  0  0  0
  2  3  2  0  0  0  0
  3  1  1  0  0  0  0
  4  3  1  0  0  0  0
  4  6  1  0  0  0  0
  5  4  2  0  0  0  0
  7 10  1  0  0  0  0
  8 11  1  0  0  0  0
  9  8  1  0  0  0  0
  9  7  1  0  0  0  0
 10 13  1  1  0  0  0
 11 10  1  0  0  0  0
 12  6  1  0  0  0  0
 12  8  2  0  0  0  0
 13 14  1  1  0  0  0
 13 15  1  0  0  0  0
 15 17  1  0  0  0  0
 16 17  1  0  0  0  0
 18 19  1  0  0  0  0
 19 20  3  0  0  0  0
 20 21  1  0  0  0  0
 21 24  1  0  0  0  0
 22 25  1  0  0  0  0
 22 24  2  0  0  0  0
 24 23  1  0  0  0  0
 27 26  1  6  0  0  0
 27 25  1  0  0  0  0
 28 31  1  6  0  0  0
 28 27  1  0  0  0  0
 29 28  1  0  0  0  0
 30 29  1  0  0  0  0
 31 32  1  0  0  0  0
 33 32  1  0  0  0  0
 35 33  1  0  0  0  0
 35 34  1  0  0  0  0
 36 35  1  0  0  0  0
 37 38  1  0  0  0  0
 38 39  1  0  0  0  0
 40 39  1  0  0  0  0
 40 41  1  0  0  0  0
 41 43  1  0  0  0  0
 42 43  1  0  0  0  0
M  END
>  <MODEL>
1

>  <REMARK>
 VINA RESULT:      -5.6      0.000      0.000
  Name = 
  24 active torsions:
  status: ('A' for Active; 'I' for Inactive)
    1  A    between atoms: C_1  and  N_12
    2  A    between atoms: C_1  and  C_21
    3  A    between atoms: C_1  and  C_40
    4  A    between atoms: C_4  and  C_13
    5  A    between atoms: C_4  and  C_36
    6  A    between atoms: C_5  and  C_16
    7  A    between atoms: C_5  and  C_27
    8  A    between atoms: C_6  and  C_21
    9  A    between atoms: C_6  and  C_24
   10  A    between atoms: C_7  and  C_15
   11  A    between atoms: C_7  and  C_22
   12  A    between atoms: C_11  and  C_32
   13  A    between atoms: C_13  and  C_22
   14  A    between atoms: C_14  and  C_15
   15  A    between atoms: C_14  and  C_32
   16  A    between atoms: C_14  and  C_41
   17  A    between atoms: C_17  and  C_37
   18  A    between atoms: C_17  and  C_39
   19  A    between atoms: C_18  and  C_24
   20  A    between atoms: O_19  and  C_27
   21  A    between atoms: C_26  and  C_29
   22  A    between atoms: C_29  and  C_40
   23  A    between atoms: C_30  and  C_41
   24  A    between atoms: N_38  and  N_43
                            x       y       z     vdW  Elec       q    Type
                         _______ _______ _______ _____ _____    ______ ____

>  <TORSDO>
F 24

$$$$
=
 OpenBabel11042419183D

 43 43  0  0  1  0  0  0  0  0999 V2000
  190.3190  172.8210  142.4940 C   0  0  1  0  0  3  0  0  0  0  0  0
  187.9960  172.3450  142.1830 O   0  0  0  0  0  0  0  0  0  0  0  0
  188.9150  173.2080  142.1480 C   0  0  0  0  0  0  0  0  0  0  0  0
  188.6080  174.5860  141.7410 C   0  0  0  0  0  0  0  0  0  0  0  0
  188.3480  174.8460  140.5350 O   0  0  0  0  0  0  0  0  0  0  0  0
  188.6010  175.6300  142.7150 N   0  0  0  0  0  2  0  0  0  0  0  0
  185.6110  179.1490  142.7730 O   0  0  0  0  0  0  0  0  0  0  0  0
  187.1650  177.4900  142.6630 C   0  0  0  0  0  0  0  0  0  0  0  0
  186.8250  178.7730  142.3350 O   0  0  0  0  0  0  0  0  0  0  0  0
  185.0310  177.9720  143.3270 C   0  0  1  0  0  3  0  0  0  0  0  0
  186.0760  176.8510  143.3850 C   0  0  0  0  0  2  0  0  0  0  0  0
  188.3020  176.9520  142.3560 N   0  0  0  0  0  0  0  0  0  0  0  0
  184.4720  178.2610  144.7180 C   0  0  2  0  0  3  0  0  0  0  0  0
  184.7130  179.5940  145.0620 O   0  0  0  0  0  1  0  0  0  0  0  0
  185.1270  177.3530  145.7460 C   0  0  0  0  0  2  0  0  0  0  0  0
  186.0930  177.6760  147.7030 C   0  0  0  0  0  1  0  0  0  0  0  0
  184.8820  177.8370  147.0310 O   0  0  0  0  0  0  0  0  0  0  0  0
  190.3560  172.1170  143.8440 C   0  0  0  0  0  2  0  0  0  0  0  0
  189.9810  173.0400  144.9190 C   0  0  0  0  0  0  0  0  0  0  0  0
  189.6760  173.7990  145.8050 C   0  0  0  0  0  0  0  0  0  0  0  0
  189.3100  174.7190  146.8860 C   0  0  0  0  0  2  0  0  0  0  0  0
  191.6060  175.5360  147.1780 C   0  0  0  0  0  3  0  0  0  0  0  0
  189.8270  177.2370  146.8840 C   0  0  0  0  0  1  0  0  0  0  0  0
  190.3080  175.8260  147.0060 C   0  0  0  0  0  0  0  0  0  0  0  0
  192.6850  176.5750  147.2740 C   0  0  0  0  0  2  0  0  0  0  0  0
  194.4590  177.3090  145.8650 O   0  0  0  0  0  1  0  0  0  0  0  0
  193.9030  176.1700  146.4530 C   0  0  2  0  0  3  0  0  0  0  0  0
  193.5070  175.1630  145.3750 C   0  0  1  0  0  3  0  0  0  0  0  0
  193.5810  175.7860  144.0600 N   0  0  0  0  0  2  0  0  0  0  0  0
  192.2270  175.8300  143.5350 C   0  0  0  0  0  1  0  0  0  0  0  0
  194.4440  173.9630  145.4150 C   0  0  0  0  0  2  0  0  0  0  0  0
  193.6490  172.6690  145.4330 C   0  0  0  0  0  2  0  0  0  0  0  0
  194.0650  171.7720  144.2740 C   0  0  0  0  0  2  0  0  0  0  0  0
  196.2920  170.9180  144.5770 O   0  0  0  0  0  1  0  0  0  0  0  0
  194.9400  170.6030  144.7190 C   0  0  0  0  0  3  0  0  0  0  0  0
  194.6720  170.2570  146.0440 O   0  0  0  0  0  1  0  0  0  0  0  0
  190.8970  171.9410  141.3880 C   0  0  0  0  0  2  0  0  0  0  0  0
  190.8270  170.4630  141.7520 C   0  0  0  0  0  2  0  0  0  0  0  0
  190.9080  169.5810  140.5170 C   0  0  0  0  0  2  0  0  0  0  0  0
  190.9050  170.4270  139.2540 C   0  0  0  0  0  2  0  0  0  0  0  0
  189.7040  170.0790  138.3910 C   0  0  0  0  0  2  0  0  0  0  0  0
  191.2230  169.2210  136.6360 C   0  0  0  0  0  1  0  0  0  0  0  0
  190.0700  170.1600  136.9200 C   0  0  0  0  0  2  0  0  0  0  0  0
  1 37  1  6  0  0  0
  1 18  1  0  0  0  0
  3  2  2  0  0  0  0
  3  1  1  0  0  0  0
  4  3  1  0  0  0  0
  4  6  1  0  0  0  0
  5  4  2  0  0  0  0
  7 10  1  0  0  0  0
  8 11  1  0  0  0  0
  9  8  1  0  0  0  0
  9  7  1  0  0  0  0
 10 11  1  0  0  0  0
 10 13  1  1  0  0  0
 12  8  2  0  0  0  0
 12  6  1  0  0  0  0
 13 14  1  1  0  0  0
 13 15  1  0  0  0  0
 15 17  1  0  0  0  0
 17 16  1  0  0  0  0
 18 19  1  0  0  0  0
 19 20  3  0  0  0  0
 20 21  1  0  0  0  0
 21 24  1  0  0  0  0
 22 25  1  0  0  0  0
 23 24  1  0  0  0  0
 24 22  2  0  0  0  0
 27 26  1  6  0  0  0
 27 25  1  0  0  0  0
 28 31  1  6  0  0  0
 28 27  1  0  0  0  0
 29 28  1  0  0  0  0
 30 29  1  0  0  0  0
 31 32  1  0  0  0  0
 33 35  1  0  0  0  0
 33 32  1  0  0  0  0
 34 35  1  0  0  0  0
 35 36  1  0  0  0  0
 37 38  1  0  0  0  0
 39 38  1  0  0  0  0
 40 39  1  0  0  0  0
 41 40  1  0  0  0  0
 42 43  1  0  0  0  0
 43 41  1  0  0  0  0
M  END
>  <MODEL>
2

>  <REMARK>
 VINA RESULT:      -5.6      2.388      3.871
  Name = 
  24 active torsions:
  status: ('A' for Active; 'I' for Inactive)
    1  A    between atoms: C_1  and  N_12
    2  A    between atoms: C_1  and  C_21
    3  A    between atoms: C_1  and  C_40
    4  A    between atoms: C_4  and  C_13
    5  A    between atoms: C_4  and  C_36
    6  A    between atoms: C_5  and  C_16
    7  A    between atoms: C_5  and  C_27
    8  A    between atoms: C_6  and  C_21
    9  A    between atoms: C_6  and  C_24
   10  A    between atoms: C_7  and  C_15
   11  A    between atoms: C_7  and  C_22
   12  A    between atoms: C_11  and  C_32
   13  A    between atoms: C_13  and  C_22
   14  A    between atoms: C_14  and  C_15
   15  A    between atoms: C_14  and  C_32
   16  A    between atoms: C_14  and  C_41
   17  A    between atoms: C_17  and  C_37
   18  A    between atoms: C_17  and  C_39
   19  A    between atoms: C_18  and  C_24
   20  A    between atoms: O_19  and  C_27
   21  A    between atoms: C_26  and  C_29
   22  A    between atoms: C_29  and  C_40
   23  A    between atoms: C_30  and  C_41
   24  A    between atoms: N_38  and  N_43
                            x       y       z     vdW  Elec       q    Type
                         _______ _______ _______ _____ _____    ______ ____

>  <TORSDO>
F 24

$$$$
=
 OpenBabel11042419183D

 43 43  0  0  1  0  0  0  0  0999 V2000
  190.2020  175.3980  144.7670 C   0  0  1  0  0  3  0  0  0  0  0  0
  190.7420  177.7240  144.9010 O   0  0  0  0  0  0  0  0  0  0  0  0
  191.0880  176.5390  145.1590 C   0  0  0  0  0  0  0  0  0  0  0  0
  192.3730  176.2810  145.8220 C   0  0  0  0  0  0  0  0  0  0  0  0
  192.4450  176.2720  147.0810 O   0  0  0  0  0  0  0  0  0  0  0  0
  193.5420  176.0380  145.0380 N   0  0  0  0  0  2  0  0  0  0  0  0
  196.7850  172.9730  146.2270 O   0  0  0  0  0  0  0  0  0  0  0  0
  195.2570  174.5790  145.7100 C   0  0  0  0  0  0  0  0  0  0  0  0
  196.4560  174.2750  146.2910 O   0  0  0  0  0  0  0  0  0  0  0  0
  195.6440  172.3250  145.6720 C   0  0  1  0  0  3  0  0  0  0  0  0
  194.6280  173.3710  145.1970 C   0  0  0  0  0  2  0  0  0  0  0  0
  194.7790  175.7790  145.6440 N   0  0  0  0  0  0  0  0  0  0  0  0
  196.0590  171.4150  144.5200 C   0  0  2  0  0  3  0  0  0  0  0  0
  197.3810  170.9970  144.6950 O   0  0  0  0  0  1  0  0  0  0  0  0
  195.9400  172.1540  143.1980 C   0  0  0  0  0  2  0  0  0  0  0  0
  196.9760  173.1390  141.5180 C   0  0  0  0  0  1  0  0  0  0  0  0
  197.2080  172.3760  142.6610 O   0  0  0  0  0  0  0  0  0  0  0  0
  189.5620  174.7770  146.0030 C   0  0  0  0  0  2  0  0  0  0  0  0
  188.4300  175.5870  146.4610 C   0  0  0  0  0  0  0  0  0  0  0  0
  187.5000  176.2540  146.8420 C   0  0  0  0  0  0  0  0  0  0  0  0
  186.3690  177.0600  147.3100 C   0  0  0  0  0  2  0  0  0  0  0  0
  185.7980  177.0710  144.9230 C   0  0  0  0  0  3  0  0  0  0  0  0
  184.2740  178.2820  146.4580 C   0  0  0  0  0  1  0  0  0  0  0  0
  185.4960  177.4690  146.1670 C   0  0  0  0  0  0  0  0  0  0  0  0
  184.9660  177.4010  143.7190 C   0  0  0  0  0  2  0  0  0  0  0  0
  185.7880  179.6210  143.4540 O   0  0  0  0  0  1  0  0  0  0  0  0
  185.6920  178.3840  142.8100 C   0  0  2  0  0  3  0  0  0  0  0  0
  184.9440  178.5390  141.4870 C   0  0  1  0  0  3  0  0  0  0  0  0
  185.5370  177.6730  140.4760 N   0  0  0  0  0  2  0  0  0  0  0  0
  186.9690  177.6560  140.7190 C   0  0  0  0  0  1  0  0  0  0  0  0
  183.4790  178.1660  141.6710 C   0  0  0  0  0  2  0  0  0  0  0  0
  182.7960  178.0190  140.3220 C   0  0  0  0  0  2  0  0  0  0  0  0
  181.2840  178.1230  140.4770 C   0  0  0  0  0  2  0  0  0  0  0  0
  180.3230  180.3230  140.6080 O   0  0  0  0  0  1  0  0  0  0  0  0
  180.8630  179.2870  141.3710 C   0  0  0  0  0  3  0  0  0  0  0  0
  179.9360  178.8710  142.3270 O   0  0  0  0  0  1  0  0  0  0  0  0
  189.1480  175.8840  143.7760 C   0  0  0  0  0  2  0  0  0  0  0  0
  189.3000  175.2100  142.4180 C   0  0  0  0  0  2  0  0  0  0  0  0
  188.4110  173.9810  142.3040 C   0  0  0  0  0  2  0  0  0  0  0  0
  189.0310  172.9580  141.3670 C   0  0  0  0  0  2  0  0  0  0  0  0
  189.5490  171.7670  142.1560 C   0  0  0  0  0  2  0  0  0  0  0  0
  191.9270  172.3000  142.5820 C   0  0  0  0  0  1  0  0  0  0  0  0
  190.5480  172.2220  143.2040 C   0  0  0  0  0  2  0  0  0  0  0  0
  1 37  1  6  0  0  0
  1  3  1  0  0  0  0
  1 18  1  0  0  0  0
  2  3  2  0  0  0  0
  3  4  1  0  0  0  0
  4  5  2  0  0  0  0
  6 12  1  0  0  0  0
  6  4  1  0  0  0  0
  7  9  1  0  0  0  0
  8  9  1  0  0  0  0
 10 13  1  6  0  0  0
 10  7  1  0  0  0  0
 11 10  1  0  0  0  0
 11  8  1  0  0  0  0
 12  8  2  0  0  0  0
 13 14  1  1  0  0  0
 15 13  1  0  0  0  0
 16 17  1  0  0  0  0
 17 15  1  0  0  0  0
 18 19  1  0  0  0  0
 19 20  3  0  0  0  0
 20 21  1  0  0  0  0
 22 24  2  0  0  0  0
 24 23  1  0  0  0  0
 24 21  1  0  0  0  0
 25 22  1  0  0  0  0
 27 26  1  1  0  0  0
 27 25  1  0  0  0  0
 28 31  1  1  0  0  0
 28 27  1  0  0  0  0
 29 30  1  0  0  0  0
 29 28  1  0  0  0  0
 32 33  1  0  0  0  0
 32 31  1  0  0  0  0
 33 35  1  0  0  0  0
 34 35  1  0  0  0  0
 35 36  1  0  0  0  0
 38 37  1  0  0  0  0
 39 38  1  0  0  0  0
 40 41  1  0  0  0  0
 40 39  1  0  0  0  0
 41 43  1  0  0  0  0
 42 43  1  0  0  0  0
M  END
>  <MODEL>
3

>  <REMARK>
 VINA RESULT:      -5.4      2.942      9.522
  Name = 
  24 active torsions:
  status: ('A' for Active; 'I' for Inactive)
    1  A    between atoms: C_1  and  N_12
    2  A    between atoms: C_1  and  C_21
    3  A    between atoms: C_1  and  C_40
    4  A    between atoms: C_4  and  C_13
    5  A    between atoms: C_4  and  C_36
    6  A    between atoms: C_5  and  C_16
    7  A    between atoms: C_5  and  C_27
    8  A    between atoms: C_6  and  C_21
    9  A    between atoms: C_6  and  C_24
   10  A    between atoms: C_7  and  C_15
   11  A    between atoms: C_7  and  C_22
   12  A    between atoms: C_11  and  C_32
   13  A    between atoms: C_13  and  C_22
   14  A    between atoms: C_14  and  C_15
   15  A    between atoms: C_14  and  C_32
   16  A    between atoms: C_14  and  C_41
   17  A    between atoms: C_17  and  C_37
   18  A    between atoms: C_17  and  C_39
   19  A    between atoms: C_18  and  C_24
   20  A    between atoms: O_19  and  C_27
   21  A    between atoms: C_26  and  C_29
   22  A    between atoms: C_29  and  C_40
   23  A    between atoms: C_30  and  C_41
   24  A    between atoms: N_38  and  N_43
                            x       y       z     vdW  Elec       q    Type
                         _______ _______ _______ _____ _____    ______ ____

>  <TORSDO>
F 24

$$$$
=
 OpenBabel11042419183D

 43 43  0  0  1  0  0  0  0  0999 V2000
  190.5430  175.7580  146.3250 C   0  0  1  0  0  3  0  0  0  0  0  0
  191.5060  175.2790  148.4610 O   0  0  0  0  0  0  0  0  0  0  0  0
  191.6950  175.6650  147.2760 C   0  0  0  0  0  0  0  0  0  0  0  0
  193.0450  176.0480  146.8400 C   0  0  0  0  0  0  0  0  0  0  0  0
  193.5520  177.1340  147.2310 O   0  0  0  0  0  0  0  0  0  0  0  0
  193.7840  175.1860  145.9740 N   0  0  0  0  0  2  0  0  0  0  0  0
  197.0090  175.0520  142.6710 O   0  0  0  0  0  0  0  0  0  0  0  0
  195.5120  175.1750  144.3810 C   0  0  0  0  0  0  0  0  0  0  0  0
  196.7640  175.4750  143.9230 O   0  0  0  0  0  0  0  0  0  0  0  0
  195.8670  174.2820  142.3060 C   0  0  1  0  0  3  0  0  0  0  0  0
  194.7760  174.4250  143.3740 C   0  0  0  0  0  2  0  0  0  0  0  0
  195.0770  175.5210  145.5500 N   0  0  0  0  0  0  0  0  0  0  0  0
  195.3450  174.7220  140.9410 C   0  0  2  0  0  3  0  0  0  0  0  0
  195.4420  176.1100  140.8180 O   0  0  0  0  0  1  0  0  0  0  0  0
  193.8930  174.3060  140.7740 C   0  0  0  0  0  2  0  0  0  0  0  0
  193.0680  173.5510  138.8730 C   0  0  0  0  0  1  0  0  0  0  0  0
  193.4170  174.7280  139.5330 O   0  0  0  0  0  0  0  0  0  0  0  0
  189.6130  174.5640  146.5020 C   0  0  0  0  0  2  0  0  0  0  0  0
  189.9650  173.4920  145.5670 C   0  0  0  0  0  0  0  0  0  0  0  0
  190.2520  172.6080  144.7990 C   0  0  0  0  0  0  0  0  0  0  0  0
  190.5970  171.5290  143.8680 C   0  0  0  0  0  2  0  0  0  0  0  0
  188.7620  172.3830  142.4790 C   0  0  0  0  0  3  0  0  0  0  0  0
  190.6300  171.2440  141.3130 C   0  0  0  0  0  1  0  0  0  0  0  0
  189.9340  171.7350  142.5430 C   0  0  0  0  0  0  0  0  0  0  0  0
  188.0390  172.6680  141.1960 C   0  0  0  0  0  2  0  0  0  0  0  0
  189.2230  174.2800  139.9030 O   0  0  0  0  0  1  0  0  0  0  0  0
  188.1710  174.1360  140.8120 C   0  0  2  0  0  3  0  0  0  0  0  0
  188.4300  174.9890  142.0530 C   0  0  1  0  0  3  0  0  0  0  0  0
  189.4790  175.9610  141.7780 N   0  0  0  0  0  2  0  0  0  0  0  0
  190.5930  175.6430  142.6550 C   0  0  0  0  0  1  0  0  0  0  0  0
  187.1580  175.7230  142.4550 C   0  0  0  0  0  2  0  0  0  0  0  0
  186.8950  176.8840  141.5110 C   0  0  0  0  0  2  0  0  0  0  0  0
  186.4260  178.1070  142.2890 C   0  0  0  0  0  2  0  0  0  0  0  0
  184.8840  178.5170  140.4910 O   0  0  0  0  0  1  0  0  0  0  0  0
  185.0300  178.5660  141.8780 C   0  0  0  0  0  3  0  0  0  0  0  0
  184.0490  177.7820  142.4850 O   0  0  0  0  0  1  0  0  0  0  0  0
  189.8050  177.0780  146.5400 C   0  0  0  0  0  2  0  0  0  0  0  0
  188.8580  177.3860  145.3870 C   0  0  0  0  0  2  0  0  0  0  0  0
  187.4040  177.2490  145.8100 C   0  0  0  0  0  2  0  0  0  0  0  0
  187.1790  177.8890  147.1700 C   0  0  0  0  0  2  0  0  0  0  0  0
  185.7510  178.3940  147.2850 C   0  0  0  0  0  2  0  0  0  0  0  0
  183.8590  178.8300  145.7510 C   0  0  0  0  0  1  0  0  0  0  0  0
  185.3300  179.0870  146.0010 C   0  0  0  0  0  2  0  0  0  0  0  0
  1 18  1  1  0  0  0
  1 37  1  0  0  0  0
  1  3  1  0  0  0  0
  3  2  2  0  0  0  0
  4  5  2  0  0  0  0
  4  3  1  0  0  0  0
  6  4  1  0  0  0  0
  7  9  1  0  0  0  0
  8 12  2  0  0  0  0
  9  8  1  0  0  0  0
 10 13  1  6  0  0  0
 10  7  1  0  0  0  0
 10 11  1  0  0  0  0
 11  8  1  0  0  0  0
 12  6  1  0  0  0  0
 13 14  1  1  0  0  0
 15 13  1  0  0  0  0
 16 17  1  0  0  0  0
 17 15  1  0  0  0  0
 19 18  1  0  0  0  0
 20 19  3  0  0  0  0
 21 20  1  0  0  0  0
 22 24  2  0  0  0  0
 23 24  1  0  0  0  0
 24 21  1  0  0  0  0
 25 22  1  0  0  0  0
 27 26  1  6  0  0  0
 27 25  1  0  0  0  0
 27 28  1  0  0  0  0
 28 31  1  6  0  0  0
 29 28  1  0  0  0  0
 29 30  1  0  0  0  0
 32 33  1  0  0  0  0
 32 31  1  0  0  0  0
 34 35  1  0  0  0  0
 35 33  1  0  0  0  0
 35 36  1  0  0  0  0
 38 39  1  0  0  0  0
 38 37  1  0  0  0  0
 39 40  1  0  0  0  0
 40 41  1  0  0  0  0
 42 43  1  0  0  0  0
 43 41  1  0  0  0  0
M  END
>  <MODEL>
4

>  <REMARK>
 VINA RESULT:      -5.4      2.259      9.007
  Name = 
  24 active torsions:
  status: ('A' for Active; 'I' for Inactive)
    1  A    between atoms: C_1  and  N_12
    2  A    between atoms: C_1  and  C_21
    3  A    between atoms: C_1  and  C_40
    4  A    between atoms: C_4  and  C_13
    5  A    between atoms: C_4  and  C_36
    6  A    between atoms: C_5  and  C_16
    7  A    between atoms: C_5  and  C_27
    8  A    between atoms: C_6  and  C_21
    9  A    between atoms: C_6  and  C_24
   10  A    between atoms: C_7  and  C_15
   11  A    between atoms: C_7  and  C_22
   12  A    between atoms: C_11  and  C_32
   13  A    between atoms: C_13  and  C_22
   14  A    between atoms: C_14  and  C_15
   15  A    between atoms: C_14  and  C_32
   16  A    between atoms: C_14  and  C_41
   17  A    between atoms: C_17  and  C_37
   18  A    between atoms: C_17  and  C_39
   19  A    between atoms: C_18  and  C_24
   20  A    between atoms: O_19  and  C_27
   21  A    between atoms: C_26  and  C_29
   22  A    between atoms: C_29  and  C_40
   23  A    between atoms: C_30  and  C_41
   24  A    between atoms: N_38  and  N_43
                            x       y       z     vdW  Elec       q    Type
                         _______ _______ _______ _____ _____    ______ ____

>  <TORSDO>
F 24

$$$$
=
 OpenBabel11042419183D

 43 43  0  0  1  0  0  0  0  0999 V2000
  191.3950  176.1890  145.7400 C   0  0  1  0  0  3  0  0  0  0  0  0
  190.8670  173.8570  145.6670 O   0  0  0  0  0  0  0  0  0  0  0  0
  190.5130  175.0130  146.0250 C   0  0  0  0  0  0  0  0  0  0  0  0
  189.2220  175.2050  146.6990 C   0  0  0  0  0  0  0  0  0  0  0  0
  188.8950  174.4630  147.6640 O   0  0  0  0  0  0  0  0  0  0  0  0
  188.3370  176.2360  146.2610 N   0  0  0  0  0  2  0  0  0  0  0  0
  184.4570  178.7180  146.5980 O   0  0  0  0  0  0  0  0  0  0  0  0
  186.3290  177.4250  146.5430 C   0  0  0  0  0  0  0  0  0  0  0  0
  185.1200  177.6750  147.1280 O   0  0  0  0  0  0  0  0  0  0  0  0
  185.3610  179.3020  145.6640 C   0  0  1  0  0  3  0  0  0  0  0  0
  186.5940  178.4050  145.5000 C   0  0  0  0  0  2  0  0  0  0  0  0
  187.1040  176.4490  146.8920 N   0  0  0  0  0  0  0  0  0  0  0  0
  184.6700  179.5180  144.3210 C   0  0  2  0  0  3  0  0  0  0  0  0
  183.4400  178.8550  144.3050 O   0  0  0  0  0  1  0  0  0  0  0  0
  185.5380  178.9880  143.1920 C   0  0  0  0  0  2  0  0  0  0  0  0
  185.6270  178.1770  141.1430 C   0  0  0  0  0  1  0  0  0  0  0  0
  184.7320  178.5050  142.1600 O   0  0  0  0  0  0  0  0  0  0  0  0
  192.4220  176.3610  146.8510 C   0  0  0  0  0  2  0  0  0  0  0  0
  193.6890  175.7210  146.4870 C   0  0  0  0  0  0  0  0  0  0  0  0
  194.7300  175.1920  146.1860 C   0  0  0  0  0  0  0  0  0  0  0  0
  195.9930  174.5420  145.8220 C   0  0  0  0  0  2  0  0  0  0  0  0
  195.3600  175.1030  143.5170 C   0  0  0  0  0  3  0  0  0  0  0  0
  196.9970  173.2670  143.8280 C   0  0  0  0  0  1  0  0  0  0  0  0
  196.0750  174.3260  144.3440 C   0  0  0  0  0  0  0  0  0  0  0  0
  195.4030  174.9860  142.0220 C   0  0  0  0  0  2  0  0  0  0  0  0
  195.0780  172.9040  140.9110 O   0  0  0  0  0  1  0  0  0  0  0  0
  194.3950  173.9550  141.5300 C   0  0  2  0  0  3  0  0  0  0  0  0
  193.4160  174.5960  140.5470 C   0  0  1  0  0  3  0  0  0  0  0  0
  193.6200  174.0470  139.2130 N   0  0  0  0  0  2  0  0  0  0  0  0
  194.1070  175.1300  138.3780 C   0  0  0  0  0  1  0  0  0  0  0  0
  191.9840  174.3250  140.9870 C   0  0  0  0  0  2  0  0  0  0  0  0
  191.9510  173.2350  142.0440 C   0  0  0  0  0  2  0  0  0  0  0  0
  190.5170  172.7910  142.3070 C   0  0  0  0  0  2  0  0  0  0  0  0
  190.3560  170.4130  141.9990 O   0  0  0  0  0  1  0  0  0  0  0  0
  190.4380  171.4160  142.9650 C   0  0  0  0  0  3  0  0  0  0  0  0
  191.5440  171.1930  143.7860 O   0  0  0  0  0  1  0  0  0  0  0  0
  192.0660  176.0090  144.3810 C   0  0  0  0  0  2  0  0  0  0  0  0
  191.7380  177.1580  143.4350 C   0  0  0  0  0  2  0  0  0  0  0  0
  190.7000  178.0930  144.0350 C   0  0  0  0  0  2  0  0  0  0  0  0
  189.3010  177.6870  143.6030 C   0  0  0  0  0  2  0  0  0  0  0  0
  189.2360  177.5520  142.0910 C   0  0  0  0  0  2  0  0  0  0  0  0
  188.1270  175.5160  142.9540 C   0  0  0  0  0  1  0  0  0  0  0  0
  188.6050  176.2260  141.7050 C   0  0  0  0  0  2  0  0  0  0  0  0
  1 37  1  6  0  0  0
  1  3  1  0  0  0  0
  1 18  1  0  0  0  0
  2  3  2  0  0  0  0
  3  4  1  0  0  0  0
  4  5  2  0  0  0  0
  6  4  1  0  0  0  0
  6 12  1  0  0  0  0
  7  9  1  0  0  0  0
  8 12  2  0  0  0  0
  8  9  1  0  0  0  0
 10 13  1  6  0  0  0
 10  7  1  0  0  0  0
 11 10  1  0  0  0  0
 11  8  1  0  0  0  0
 13 14  1  1  0  0  0
 15 13  1  0  0  0  0
 16 17  1  0  0  0  0
 17 15  1  0  0  0  0
 19 18  1  0  0  0  0
 20 19  3  0  0  0  0
 21 20  1  0  0  0  0
 22 24  2  0  0  0  0
 23 24  1  0  0  0  0
 24 21  1  0  0  0  0
 25 22  1  0  0  0  0
 27 26  1  6  0  0  0
 27 25  1  0  0  0  0
 28 31  1  1  0  0  0
 28 27  1  0  0  0  0
 29 28  1  0  0  0  0
 30 29  1  0  0  0  0
 31 32  1  0  0  0  0
 32 33  1  0  0  0  0
 33 35  1  0  0  0  0
 34 35  1  0  0  0  0
 35 36  1  0  0  0  0
 38 39  1  0  0  0  0
 38 37  1  0  0  0  0
 40 39  1  0  0  0  0
 41 40  1  0  0  0  0
 43 41  1  0  0  0  0
 43 42  1  0  0  0  0
M  END
>  <MODEL>
5

>  <REMARK>
 VINA RESULT:      -5.4      2.600      6.237
  Name = 
  24 active torsions:
  status: ('A' for Active; 'I' for Inactive)
    1  A    between atoms: C_1  and  N_12
    2  A    between atoms: C_1  and  C_21
    3  A    between atoms: C_1  and  C_40
    4  A    between atoms: C_4  and  C_13
    5  A    between atoms: C_4  and  C_36
    6  A    between atoms: C_5  and  C_16
    7  A    between atoms: C_5  and  C_27
    8  A    between atoms: C_6  and  C_21
    9  A    between atoms: C_6  and  C_24
   10  A    between atoms: C_7  and  C_15
   11  A    between atoms: C_7  and  C_22
   12  A    between atoms: C_11  and  C_32
   13  A    between atoms: C_13  and  C_22
   14  A    between atoms: C_14  and  C_15
   15  A    between atoms: C_14  and  C_32
   16  A    between atoms: C_14  and  C_41
   17  A    between atoms: C_17  and  C_37
   18  A    between atoms: C_17  and  C_39
   19  A    between atoms: C_18  and  C_24
   20  A    between atoms: O_19  and  C_27
   21  A    between atoms: C_26  and  C_29
   22  A    between atoms: C_29  and  C_40
   23  A    between atoms: C_30  and  C_41
   24  A    between atoms: N_38  and  N_43
                            x       y       z     vdW  Elec       q    Type
                         _______ _______ _______ _____ _____    ______ ____

>  <TORSDO>
F 24

$$$$
=
 OpenBabel11042419183D

 43 43  0  0  1  0  0  0  0  0999 V2000
  187.1360  176.6470  143.1440 C   0  0  1  0  0  3  0  0  0  0  0  0
  187.6110  176.7580  140.8020 O   0  0  0  0  0  0  0  0  0  0  0  0
  187.8890  176.2370  141.9160 C   0  0  0  0  0  0  0  0  0  0  0  0
  188.9340  175.2080  142.0010 C   0  0  0  0  0  0  0  0  0  0  0  0
  190.1170  175.5310  142.2930 O   0  0  0  0  0  0  0  0  0  0  0  0
  188.6070  173.8400  141.7560 N   0  0  0  0  0  2  0  0  0  0  0  0
  190.9990  170.4820  139.6740 O   0  0  0  0  0  0  0  0  0  0  0  0
  189.8790  172.1000  140.8180 C   0  0  0  0  0  0  0  0  0  0  0  0
  190.8190  171.1090  140.8500 O   0  0  0  0  0  0  0  0  0  0  0  0
  189.9940  171.0090  138.8110 C   0  0  1  0  0  3  0  0  0  0  0  0
  189.2850  172.1850  139.4920 C   0  0  0  0  0  2  0  0  0  0  0  0
  189.5830  172.8360  141.8400 N   0  0  0  0  0  0  0  0  0  0  0  0
  190.6110  171.4450  137.4850 C   0  0  2  0  0  3  0  0  0  0  0  0
  190.4610  170.4330  136.5330 O   0  0  0  0  0  1  0  0  0  0  0  0
  192.0900  171.7450  137.6670 C   0  0  0  0  0  2  0  0  0  0  0  0
  193.6320  173.1830  138.3130 C   0  0  0  0  0  1  0  0  0  0  0  0
  192.2580  173.0550  138.1150 O   0  0  0  0  0  0  0  0  0  0  0  0
  187.7610  177.8950  143.7550 C   0  0  0  0  0  2  0  0  0  0  0  0
  188.7580  177.5310  144.7660 C   0  0  0  0  0  0  0  0  0  0  0  0
  189.5810  177.2310  145.5950 C   0  0  0  0  0  0  0  0  0  0  0  0
  190.5850  176.8620  146.5980 C   0  0  0  0  0  2  0  0  0  0  0  0
  191.9280  174.8420  146.2220 C   0  0  0  0  0  3  0  0  0  0  0  0
  192.6130  176.8990  145.0200 C   0  0  0  0  0  1  0  0  0  0  0  0
  191.7330  176.1440  145.9650 C   0  0  0  0  0  0  0  0  0  0  0  0
  193.0290  174.0290  145.6080 C   0  0  0  0  0  2  0  0  0  0  0  0
  192.0140  172.1190  144.6120 O   0  0  0  0  0  1  0  0  0  0  0  0
  192.5630  173.3700  144.3170 C   0  0  2  0  0  3  0  0  0  0  0  0
  193.7320  173.2140  143.3460 C   0  0  1  0  0  3  0  0  0  0  0  0
  193.9990  171.8020  143.1120 N   0  0  0  0  0  2  0  0  0  0  0  0
  194.1740  171.6350  141.6800 C   0  0  0  0  0  1  0  0  0  0  0  0
  193.4020  173.8890  142.0210 C   0  0  0  0  0  2  0  0  0  0  0  0
  193.9320  175.3120  142.0030 C   0  0  0  0  0  2  0  0  0  0  0  0
  195.4360  175.3220  142.2430 C   0  0  0  0  0  2  0  0  0  0  0  0
  196.0080  175.6520  144.5550 O   0  0  0  0  0  1  0  0  0  0  0  0
  195.8520  176.3070  143.3330 C   0  0  0  0  0  3  0  0  0  0  0  0
  197.0370  176.9580  142.9900 O   0  0  0  0  0  1  0  0  0  0  0  0
  185.6670  176.8720  142.7930 C   0  0  0  0  0  2  0  0  0  0  0  0
  185.3320  178.3560  142.7040 C   0  0  0  0  0  2  0  0  0  0  0  0
  184.1030  178.7000  143.5310 C   0  0  0  0  0  2  0  0  0  0  0  0
  184.4990  179.4560  144.7880 C   0  0  0  0  0  2  0  0  0  0  0  0
  184.1610  178.6390  146.0230 C   0  0  0  0  0  2  0  0  0  0  0  0
  185.6120  176.7130  146.5820 C   0  0  0  0  0  1  0  0  0  0  0  0
  185.4310  178.2090  146.7360 C   0  0  0  0  0  2  0  0  0  0  0  0
  1 37  1  6  0  0  0
  1 18  1  0  0  0  0
  2  3  2  0  0  0  0
  3  4  1  0  0  0  0
  3  1  1  0  0  0  0
  4  5  2  0  0  0  0
  6 12  1  0  0  0  0
  6  4  1  0  0  0  0
  7  9  1  0  0  0  0
  8  9  1  0  0  0  0
  8 12  2  0  0  0  0
 10 13  1  6  0  0  0
 10 11  1  0  0  0  0
 10  7  1  0  0  0  0
 11  8  1  0  0  0  0
 13 14  1  6  0  0  0
 13 15  1  0  0  0  0
 15 17  1  0  0  0  0
 17 16  1  0  0  0  0
 18 19  1  0  0  0  0
 19 20  3  0  0  0  0
 20 21  1  0  0  0  0
 23 24  1  0  0  0  0
 24 22  2  0  0  0  0
 24 21  1  0  0  0  0
 25 22  1  0  0  0  0
 27 26  1  1  0  0  0
 27 25  1  0  0  0  0
 28 31  1  6  0  0  0
 28 27  1  0  0  0  0
 29 28  1  0  0  0  0
 30 29  1  0  0  0  0
 32 31  1  0  0  0  0
 32 33  1  0  0  0  0
 33 35  1  0  0  0  0
 35 34  1  0  0  0  0
 36 35  1  0  0  0  0
 38 37  1  0  0  0  0
 38 39  1  0  0  0  0
 39 40  1  0  0  0  0
 40 41  1  0  0  0  0
 41 43  1  0  0  0  0
 42 43  1  0  0  0  0
M  END
>  <MODEL>
6

>  <REMARK>
 VINA RESULT:      -5.4      2.505      7.504
  Name = 
  24 active torsions:
  status: ('A' for Active; 'I' for Inactive)
    1  A    between atoms: C_1  and  N_12
    2  A    between atoms: C_1  and  C_21
    3  A    between atoms: C_1  and  C_40
    4  A    between atoms: C_4  and  C_13
    5  A    between atoms: C_4  and  C_36
    6  A    between atoms: C_5  and  C_16
    7  A    between atoms: C_5  and  C_27
    8  A    between atoms: C_6  and  C_21
    9  A    between atoms: C_6  and  C_24
   10  A    between atoms: C_7  and  C_15
   11  A    between atoms: C_7  and  C_22
   12  A    between atoms: C_11  and  C_32
   13  A    between atoms: C_13  and  C_22
   14  A    between atoms: C_14  and  C_15
   15  A    between atoms: C_14  and  C_32
   16  A    between atoms: C_14  and  C_41
   17  A    between atoms: C_17  and  C_37
   18  A    between atoms: C_17  and  C_39
   19  A    between atoms: C_18  and  C_24
   20  A    between atoms: O_19  and  C_27
   21  A    between atoms: C_26  and  C_29
   22  A    between atoms: C_29  and  C_40
   23  A    between atoms: C_30  and  C_41
   24  A    between atoms: N_38  and  N_43
                            x       y       z     vdW  Elec       q    Type
                         _______ _______ _______ _____ _____    ______ ____

>  <TORSDO>
F 24

$$$$
=
 OpenBabel11042419183D

 43 43  0  0  1  0  0  0  0  0999 V2000
  194.9440  175.6150  143.4020 C   0  0  1  0  0  3  0  0  0  0  0  0
  197.2330  176.2850  143.2220 O   0  0  0  0  0  0  0  0  0  0  0  0
  196.4170  175.3600  143.4840 C   0  0  0  0  0  0  0  0  0  0  0  0
  196.9160  174.0260  143.8440 C   0  0  0  0  0  0  0  0  0  0  0  0
  197.4270  173.2820  142.9630 O   0  0  0  0  0  0  0  0  0  0  0  0
  196.8260  173.5740  145.1950 N   0  0  0  0  0  2  0  0  0  0  0  0
  195.9210  169.1650  146.2320 O   0  0  0  0  0  0  0  0  0  0  0  0
  196.4970  171.3150  145.7550 C   0  0  0  0  0  0  0  0  0  0  0  0
  196.9130  170.0650  146.1210 O   0  0  0  0  0  0  0  0  0  0  0  0
  194.7180  169.9090  146.0550 C   0  0  1  0  0  3  0  0  0  0  0  0
  195.0490  171.3400  145.6150 C   0  0  0  0  0  2  0  0  0  0  0  0
  197.3030  172.3100  145.5690 N   0  0  0  0  0  0  0  0  0  0  0  0
  193.8180  169.2250  145.0300 C   0  0  2  0  0  3  0  0  0  0  0  0
  194.5020  168.1680  144.4240 O   0  0  0  0  0  1  0  0  0  0  0  0
  193.3870  170.2180  143.9630 C   0  0  0  0  0  2  0  0  0  0  0  0
  191.6650  170.3410  142.5900 C   0  0  0  0  0  1  0  0  0  0  0  0
  191.9960  170.3220  143.9440 O   0  0  0  0  0  0  0  0  0  0  0  0
  194.2460  174.4610  142.6930 C   0  0  0  0  0  2  0  0  0  0  0  0
  192.7930  174.5570  142.8570 C   0  0  0  0  0  0  0  0  0  0  0  0
  191.5980  174.6350  142.9950 C   0  0  0  0  0  0  0  0  0  0  0  0
  190.1440  174.7250  143.1690 C   0  0  0  0  0  2  0  0  0  0  0  0
  189.0250  176.2840  144.7000 C   0  0  0  0  0  3  0  0  0  0  0  0
  190.1930  177.2600  142.7430 C   0  0  0  0  0  1  0  0  0  0  0  0
  189.7410  176.1060  143.5800 C   0  0  0  0  0  0  0  0  0  0  0  0
  188.6030  177.6300  145.2110 C   0  0  0  0  0  2  0  0  0  0  0  0
  187.1770  176.1450  146.4080 O   0  0  0  0  0  1  0  0  0  0  0  0
  187.4420  177.5000  146.1890 C   0  0  2  0  0  3  0  0  0  0  0  0
  186.2000  178.1950  145.6350 C   0  0  1  0  0  3  0  0  0  0  0  0
  185.6130  179.0530  146.6550 N   0  0  0  0  0  2  0  0  0  0  0  0
  184.4640  178.3480  147.1940 C   0  0  0  0  0  1  0  0  0  0  0  0
  186.5720  179.0390  144.4230 C   0  0  0  0  0  2  0  0  0  0  0  0
  185.7640  178.6110  143.2100 C   0  0  0  0  0  2  0  0  0  0  0  0
  186.6860  178.2940  142.0400 C   0  0  0  0  0  2  0  0  0  0  0  0
  187.5110  176.5490  140.6080 O   0  0  0  0  0  1  0  0  0  0  0  0
  186.5010  176.8730  141.5140 C   0  0  0  0  0  3  0  0  0  0  0  0
  186.4910  175.9510  142.5610 O   0  0  0  0  0  1  0  0  0  0  0  0
  194.3820  175.8300  144.8050 C   0  0  0  0  0  2  0  0  0  0  0  0
  193.5510  177.1050  144.8870 C   0  0  0  0  0  2  0  0  0  0  0  0
  192.4050  176.9590  145.8770 C   0  0  0  0  0  2  0  0  0  0  0  0
  192.3640  175.5490  146.4430 C   0  0  0  0  0  2  0  0  0  0  0  0
  191.5920  175.5290  147.7510 C   0  0  0  0  0  2  0  0  0  0  0  0
  191.5160  177.5250  149.2120 C   0  0  0  0  0  1  0  0  0  0  0  0
  190.9160  176.8670  147.9860 C   0  0  0  0  0  2  0  0  0  0  0  0
  1 18  1  1  0  0  0
  1  3  1  0  0  0  0
  1 37  1  0  0  0  0
  2  3  2  0  0  0  0
  3  4  1  0  0  0  0
  4  6  1  0  0  0  0
  5  4  2  0  0  0  0
  6 12  1  0  0  0  0
  8  9  1  0  0  0  0
  9  7  1  0  0  0  0
 10 13  1  6  0  0  0
 10  7  1  0  0  0  0
 11  8  1  0  0  0  0
 11 10  1  0  0  0  0
 12  8  2  0  0  0  0
 13 14  1  6  0  0  0
 15 13  1  0  0  0  0
 16 17  1  0  0  0  0
 17 15  1  0  0  0  0
 18 19  1  0  0  0  0
 19 20  3  0  0  0  0
 20 21  1  0  0  0  0
 21 24  1  0  0  0  0
 22 25  1  0  0  0  0
 23 24  1  0  0  0  0
 24 22  2  0  0  0  0
 25 27  1  0  0  0  0
 27 26  1  6  0  0  0
 28 31  1  6  0  0  0
 28 27  1  0  0  0  0
 28 29  1  0  0  0  0
 29 30  1  0  0  0  0
 32 31  1  0  0  0  0
 33 32  1  0  0  0  0
 34 35  1  0  0  0  0
 35 33  1  0  0  0  0
 35 36  1  0  0  0  0
 37 38  1  0  0  0  0
 38 39  1  0  0  0  0
 39 40  1  0  0  0  0
 40 41  1  0  0  0  0
 41 43  1  0  0  0  0
 43 42  1  0  0  0  0
M  END
>  <MODEL>
7

>  <REMARK>
 VINA RESULT:      -5.2      3.118      8.580
  Name = 
  24 active torsions:
  status: ('A' for Active; 'I' for Inactive)
    1  A    between atoms: C_1  and  N_12
    2  A    between atoms: C_1  and  C_21
    3  A    between atoms: C_1  and  C_40
    4  A    between atoms: C_4  and  C_13
    5  A    between atoms: C_4  and  C_36
    6  A    between atoms: C_5  and  C_16
    7  A    between atoms: C_5  and  C_27
    8  A    between atoms: C_6  and  C_21
    9  A    between atoms: C_6  and  C_24
   10  A    between atoms: C_7  and  C_15
   11  A    between atoms: C_7  and  C_22
   12  A    between atoms: C_11  and  C_32
   13  A    between atoms: C_13  and  C_22
   14  A    between atoms: C_14  and  C_15
   15  A    between atoms: C_14  and  C_32
   16  A    between atoms: C_14  and  C_41
   17  A    between atoms: C_17  and  C_37
   18  A    between atoms: C_17  and  C_39
   19  A    between atoms: C_18  and  C_24
   20  A    between atoms: O_19  and  C_27
   21  A    between atoms: C_26  and  C_29
   22  A    between atoms: C_29  and  C_40
   23  A    between atoms: C_30  and  C_41
   24  A    between atoms: N_38  and  N_43
                            x       y       z     vdW  Elec       q    Type
                         _______ _______ _______ _____ _____    ______ ____

>  <TORSDO>
F 24

$$$$
=
 OpenBabel11042419183D

 43 43  0  0  1  0  0  0  0  0999 V2000
  186.6440  177.9010  142.0390 C   0  0  1  0  0  3  0  0  0  0  0  0
  185.2530  178.4510  140.1730 O   0  0  0  0  0  0  0  0  0  0  0  0
  186.1870  177.7330  140.6240 C   0  0  0  0  0  0  0  0  0  0  0  0
  186.8050  176.7150  139.7640 C   0  0  0  0  0  0  0  0  0  0  0  0
  186.6490  176.7630  138.5140 O   0  0  0  0  0  0  0  0  0  0  0  0
  187.5870  175.6720  140.3470 N   0  0  0  0  0  2  0  0  0  0  0  0
  190.3560  171.9870  140.0570 O   0  0  0  0  0  0  0  0  0  0  0  0
  188.9850  173.8040  140.0630 C   0  0  0  0  0  0  0  0  0  0  0  0
  189.6040  172.8320  139.3290 O   0  0  0  0  0  0  0  0  0  0  0  0
  190.3470  172.5210  141.3780 C   0  0  1  0  0  3  0  0  0  0  0  0
  189.3460  173.6790  141.4670 C   0  0  0  0  0  2  0  0  0  0  0  0
  188.1980  174.6930  139.5500 N   0  0  0  0  0  0  0  0  0  0  0  0
  190.0010  171.4310  142.3880 C   0  0  2  0  0  3  0  0  0  0  0  0
  189.0550  171.9070  143.3000 O   0  0  0  0  0  1  0  0  0  0  0  0
  191.2480  170.9990  143.1420 C   0  0  0  0  0  2  0  0  0  0  0  0
  192.2890  169.3080  142.1820 C   0  0  0  0  0  1  0  0  0  0  0  0
  192.2700  170.7000  142.2400 O   0  0  0  0  0  0  0  0  0  0  0  0
  188.1220  178.2710  142.0770 C   0  0  0  0  0  2  0  0  0  0  0  0
  188.7800  177.6520  143.2310 C   0  0  0  0  0  0  0  0  0  0  0  0
  189.3240  177.1420  144.1790 C   0  0  0  0  0  0  0  0  0  0  0  0
  189.9880  176.5170  145.3270 C   0  0  0  0  0  2  0  0  0  0  0  0
  192.2610  176.1330  146.1720 C   0  0  0  0  0  3  0  0  0  0  0  0
  192.0250  177.5610  144.1580 C   0  0  0  0  0  1  0  0  0  0  0  0
  191.4680  176.7250  145.2660 C   0  0  0  0  0  0  0  0  0  0  0  0
  193.7560  176.2540  146.1710 C   0  0  0  0  0  2  0  0  0  0  0  0
  195.7450  174.9440  146.2200 O   0  0  0  0  0  1  0  0  0  0  0  0
  194.4080  174.9250  145.8110 C   0  0  2  0  0  3  0  0  0  0  0  0
  194.3230  174.6810  144.3060 C   0  0  1  0  0  3  0  0  0  0  0  0
  195.5940  175.0110  143.6750 N   0  0  0  0  0  2  0  0  0  0  0  0
  195.3590  176.1670  142.8270 C   0  0  0  0  0  1  0  0  0  0  0  0
  193.9920  173.2200  144.0330 C   0  0  0  0  0  2  0  0  0  0  0  0
  193.6400  172.5050  145.3260 C   0  0  0  0  0  2  0  0  0  0  0  0
  194.4090  171.1950  145.4370 C   0  0  0  0  0  2  0  0  0  0  0  0
  196.6430  171.8320  146.0520 O   0  0  0  0  0  1  0  0  0  0  0  0
  195.8670  171.3300  145.0070 C   0  0  0  0  0  3  0  0  0  0  0  0
  196.3780  170.1010  144.5860 O   0  0  0  0  0  1  0  0  0  0  0  0
  185.7870  178.9560  142.7340 C   0  0  0  0  0  2  0  0  0  0  0  0
  184.8410  178.3310  143.7510 C   0  0  0  0  0  2  0  0  0  0  0  0
  185.0290  178.9370  145.1330 C   0  0  0  0  0  2  0  0  0  0  0  0
  184.3880  178.0580  146.1940 C   0  0  0  0  0  2  0  0  0  0  0  0
  185.3330  176.9360  146.5910 C   0  0  0  0  0  2  0  0  0  0  0  0
  186.7650  178.3770  148.0030 C   0  0  0  0  0  1  0  0  0  0  0  0
  186.7390  177.4750  146.7870 C   0  0  0  0  0  2  0  0  0  0  0  0
  1 18  1  6  0  0  0
  1 37  1  0  0  0  0
  2  3  2  0  0  0  0
  3  1  1  0  0  0  0
  4  6  1  0  0  0  0
  4  3  1  0  0  0  0
  5  4  2  0  0  0  0
  7 10  1  0  0  0  0
  8 11  1  0  0  0  0
  9  7  1  0  0  0  0
  9  8  1  0  0  0  0
 10 11  1  0  0  0  0
 10 13  1  1  0  0  0
 12  8  2  0  0  0  0
 12  6  1  0  0  0  0
 13 15  1  0  0  0  0
 13 14  1  1  0  0  0
 16 17  1  0  0  0  0
 17 15  1  0  0  0  0
 18 19  1  0  0  0  0
 19 20  3  0  0  0  0
 20 21  1  0  0  0  0
 23 24  1  0  0  0  0
 24 21  1  0  0  0  0
 24 22  2  0  0  0  0
 25 22  1  0  0  0  0
 27 25  1  0  0  0  0
 27 26  1  6  0  0  0
 28 31  1  1  0  0  0
 28 27  1  0  0  0  0
 29 28  1  0  0  0  0
 30 29  1  0  0  0  0
 31 32  1  0  0  0  0
 32 33  1  0  0  0  0
 35 33  1  0  0  0  0
 35 34  1  0  0  0  0
 36 35  1  0  0  0  0
 37 38  1  0  0  0  0
 38 39  1  0  0  0  0
 39 40  1  0  0  0  0
 40 41  1  0  0  0  0
 41 43  1  0  0  0  0
 43 42  1  0  0  0  0
M  END
>  <MODEL>
8

>  <REMARK>
 VINA RESULT:      -5.1      2.327      7.083
  Name = 
  24 active torsions:
  status: ('A' for Active; 'I' for Inactive)
    1  A    between atoms: C_1  and  N_12
    2  A    between atoms: C_1  and  C_21
    3  A    between atoms: C_1  and  C_40
    4  A    between atoms: C_4  and  C_13
    5  A    between atoms: C_4  and  C_36
    6  A    between atoms: C_5  and  C_16
    7  A    between atoms: C_5  and  C_27
    8  A    between atoms: C_6  and  C_21
    9  A    between atoms: C_6  and  C_24
   10  A    between atoms: C_7  and  C_15
   11  A    between atoms: C_7  and  C_22
   12  A    between atoms: C_11  and  C_32
   13  A    between atoms: C_13  and  C_22
   14  A    between atoms: C_14  and  C_15
   15  A    between atoms: C_14  and  C_32
   16  A    between atoms: C_14  and  C_41
   17  A    between atoms: C_17  and  C_37
   18  A    between atoms: C_17  and  C_39
   19  A    between atoms: C_18  and  C_24
   20  A    between atoms: O_19  and  C_27
   21  A    between atoms: C_26  and  C_29
   22  A    between atoms: C_29  and  C_40
   23  A    between atoms: C_30  and  C_41
   24  A    between atoms: N_38  and  N_43
                            x       y       z     vdW  Elec       q    Type
                         _______ _______ _______ _____ _____    ______ ____

>  <TORSDO>
F 24

$$$$
=
 OpenBabel11042419183D

 43 43  0  0  1  0  0  0  0  0999 V2000
  188.0660  177.1400  145.9650 C   0  0  1  0  0  3  0  0  0  0  0  0
  188.9880  175.3130  147.2040 O   0  0  0  0  0  0  0  0  0  0  0  0
  189.2000  176.2710  146.4110 C   0  0  0  0  0  0  0  0  0  0  0  0
  190.5670  176.5460  145.9480 C   0  0  0  0  0  0  0  0  0  0  0  0
  190.7570  177.1050  144.8340 O   0  0  0  0  0  0  0  0  0  0  0  0
  191.6810  176.1820  146.7630 N   0  0  0  0  0  2  0  0  0  0  0  0
  195.7070  174.5690  145.1750 O   0  0  0  0  0  0  0  0  0  0  0  0
  193.7810  175.4870  145.9690 C   0  0  0  0  0  0  0  0  0  0  0  0
  195.0700  175.6890  145.5610 O   0  0  0  0  0  0  0  0  0  0  0  0
  194.8100  173.5040  145.4780 C   0  0  1  0  0  3  0  0  0  0  0  0
  193.4510  174.0710  145.9080 C   0  0  0  0  0  2  0  0  0  0  0  0
  192.9960  176.4420  146.3510 N   0  0  0  0  0  0  0  0  0  0  0  0
  194.6520  172.5840  144.2710 C   0  0  2  0  0  3  0  0  0  0  0  0
  195.0270  173.2570  143.1050 O   0  0  0  0  0  1  0  0  0  0  0  0
  193.2080  172.1290  144.1420 C   0  0  0  0  0  2  0  0  0  0  0  0
  191.8070  170.7960  143.0820 C   0  0  0  0  0  1  0  0  0  0  0  0
  193.0290  171.4510  142.9360 O   0  0  0  0  0  0  0  0  0  0  0  0
  187.0640  176.3260  145.1540 C   0  0  0  0  0  2  0  0  0  0  0  0
  187.5420  176.1370  143.7820 C   0  0  0  0  0  0  0  0  0  0  0  0
  187.9380  175.9790  142.6540 C   0  0  0  0  0  0  0  0  0  0  0  0
  188.4270  175.7890  141.2850 C   0  0  0  0  0  2  0  0  0  0  0  0
  188.4970  174.0040  139.6010 C   0  0  0  0  0  3  0  0  0  0  0  0
  188.1960  173.3220  141.9660 C   0  0  0  0  0  1  0  0  0  0  0  0
  188.3630  174.3480  140.8910 C   0  0  0  0  0  0  0  0  0  0  0  0
  188.4820  172.5850  139.1140 C   0  0  0  0  0  2  0  0  0  0  0  0
  189.6600  171.1930  137.5820 O   0  0  0  0  0  1  0  0  0  0  0  0
  189.8390  172.1930  138.5430 C   0  0  2  0  0  3  0  0  0  0  0  0
  190.7610  171.6950  139.6540 C   0  0  1  0  0  3  0  0  0  0  0  0
  191.0310  170.2750  139.4770 N   0  0  0  0  0  2  0  0  0  0  0  0
  192.4750  170.1150  139.4720 C   0  0  0  0  0  1  0  0  0  0  0  0
  192.0760  172.4640  139.6230 C   0  0  0  0  0  2  0  0  0  0  0  0
  192.0030  173.6760  140.5340 C   0  0  0  0  0  2  0  0  0  0  0  0
  193.2440  174.5440  140.3660 C   0  0  0  0  0  2  0  0  0  0  0  0
  194.2640  175.3360  138.3390 O   0  0  0  0  0  1  0  0  0  0  0  0
  194.0400  174.1950  139.1100 C   0  0  0  0  0  3  0  0  0  0  0  0
  195.2590  173.6020  139.4420 O   0  0  0  0  0  1  0  0  0  0  0  0
  187.4070  177.7880  147.1800 C   0  0  0  0  0  2  0  0  0  0  0  0
  185.9410  177.3920  147.3020 C   0  0  0  0  0  2  0  0  0  0  0  0
  185.0330  178.6120  147.3010 C   0  0  0  0  0  2  0  0  0  0  0  0
  184.0810  178.5690  146.1170 C   0  0  0  0  0  2  0  0  0  0  0  0
  184.7520  179.1420  144.8800 C   0  0  0  0  0  2  0  0  0  0  0  0
  185.2950  178.7080  142.5060 C   0  0  0  0  0  1  0  0  0  0  0  0
  184.3830  178.3280  143.6540 C   0  0  0  0  0  2  0  0  0  0  0  0
  1 18  1  1  0  0  0
  1  3  1  0  0  0  0
  1 37  1  0  0  0  0
  3  2  2  0  0  0  0
  4  3  1  0  0  0  0
  4  6  1  0  0  0  0
  5  4  2  0  0  0  0
  7 10  1  0  0  0  0
  7  9  1  0  0  0  0
  8 12  2  0  0  0  0
  9  8  1  0  0  0  0
 10 13  1  6  0  0  0
 10 11  1  0  0  0  0
 11  8  1  0  0  0  0
 12  6  1  0  0  0  0
 13 14  1  6  0  0  0
 15 13  1  0  0  0  0
 17 16  1  0  0  0  0
 17 15  1  0  0  0  0
 19 18  1  0  0  0  0
 20 19  3  0  0  0  0
 21 20  1  0  0  0  0
 22 24  2  0  0  0  0
 24 21  1  0  0  0  0
 24 23  1  0  0  0  0
 25 22  1  0  0  0  0
 27 26  1  6  0  0  0
 27 25  1  0  0  0  0
 27 28  1  0  0  0  0
 28 31  1  6  0  0  0
 29 28  1  0  0  0  0
 30 29  1  0  0  0  0
 31 32  1  0  0  0  0
 33 32  1  0  0  0  0
 34 35  1  0  0  0  0
 35 36  1  0  0  0  0
 35 33  1  0  0  0  0
 37 38  1  0  0  0  0
 39 38  1  0  0  0  0
 40 39  1  0  0  0  0
 41 40  1  0  0  0  0
 42 43  1  0  0  0  0
 43 41  1  0  0  0  0
M  END
>  <MODEL>
9

>  <REMARK>
 VINA RESULT:      -5.1      2.978      8.694
  Name = 
  24 active torsions:
  status: ('A' for Active; 'I' for Inactive)
    1  A    between atoms: C_1  and  N_12
    2  A    between atoms: C_1  and  C_21
    3  A    between atoms: C_1  and  C_40
    4  A    between atoms: C_4  and  C_13
    5  A    between atoms: C_4  and  C_36
    6  A    between atoms: C_5  and  C_16
    7  A    between atoms: C_5  and  C_27
    8  A    between atoms: C_6  and  C_21
    9  A    between atoms: C_6  and  C_24
   10  A    between atoms: C_7  and  C_15
   11  A    between atoms: C_7  and  C_22
   12  A    between atoms: C_11  and  C_32
   13  A    between atoms: C_13  and  C_22
   14  A    between atoms: C_14  and  C_15
   15  A    between atoms: C_14  and  C_32
   16  A    between atoms: C_14  and  C_41
   17  A    between atoms: C_17  and  C_37
   18  A    between atoms: C_17  and  C_39
   19  A    between atoms: C_18  and  C_24
   20  A    between atoms: O_19  and  C_27
   21  A    between atoms: C_26  and  C_29
   22  A    between atoms: C_29  and  C_40
   23  A    between atoms: C_30  and  C_41
   24  A    between atoms: N_38  and  N_43
                            x       y       z     vdW  Elec       q    Type
                         _______ _______ _______ _____ _____    ______ ____

>  <TORSDO>
F 24

$$$$
