=
 OpenBabel11042416273D

 38 40  0  0  1  0  0  0  0  0999 V2000
  192.4760  175.5800  142.7900 C   0  0  0  0  0  3  0  0  0  0  0  0
  191.5230  174.6990  142.0010 C   0  0  0  0  0  2  0  0  0  0  0  0
  192.0640  176.4980  143.6790 C   0  0  0  0  0  0  0  0  0  0  0  0
  188.4170  176.5120  143.1590 N   0  0  0  0  0  0  0  0  0  0  0  0
  189.7110  176.1400  142.9740 C   0  0  0  0  0  0  0  0  0  0  0  0
  189.8120  177.8020  144.8190 S   0  0  0  0  0  0  0  0  0  0  0  0
  188.2960  177.4270  144.1540 C   0  0  0  0  0  0  0  0  0  0  0  0
  190.1460  175.2140  141.9710 N   0  0  0  0  0  0  0  0  0  0  0  0
  190.6260  176.7450  143.8010 C   0  0  0  0  0  0  0  0  0  0  0  0
  184.4920  179.1400  145.1840 C   0  0  0  0  0  3  0  0  0  0  0  0
  186.2990  178.7850  143.6210 C   0  0  0  0  0  3  0  0  0  0  0  0
  184.5920  178.1620  147.3470 F   0  0  0  0  0  0  0  0  0  0  0  0
  187.0300  177.0160  146.7990 O   0  0  0  0  0  1  0  0  0  0  0  0
  186.4010  177.7860  145.8270 C   0  0  0  0  0  0  0  0  0  0  0  0
  185.0620  179.3530  143.9290 C   0  0  0  0  0  3  0  0  0  0  0  0
  186.9860  177.9970  144.5570 C   0  0  0  0  0  0  0  0  0  0  0  0
  185.1580  178.3600  146.1300 C   0  0  0  0  0  0  0  0  0  0  0  0
  192.9820  177.3000  144.4380 N   0  0  0  0  0  2  0  0  0  0  0  0
  194.7390  177.7060  145.9010 O   0  0  0  0  0  0  0  0  0  0  0  0
  193.9360  176.8660  145.4190 C   0  0  0  0  0  0  0  0  0  0  0  0
  193.9760  175.4610  145.9340 C   0  0  0  0  0  2  0  0  0  0  0  0
  195.3430  174.8370  145.7040 C   0  0  0  0  0  2  0  0  0  0  0  0
  195.2170  173.6290  144.8930 N   0  0  0  0  0  2  0  0  0  0  0  0
  196.9780  172.9310  146.2860 O   0  0  0  0  0  1  0  0  0  0  0  0
  195.8540  172.5040  145.5780 C   0  0  0  0  0  3  0  0  0  0  0  0
  196.2100  171.5080  144.6660 O   0  0  0  0  0  1  0  0  0  0  0  0
  189.1920  174.5960  141.0620 C   0  0  0  0  0  2  0  0  0  0  0  0
  188.6490  173.3140  141.6720 C   0  0  0  0  0  2  0  0  0  0  0  0
  189.5590  172.1370  141.3530 C   0  0  0  0  0  2  0  0  0  0  0  0
  191.3280  171.3930  142.7740 O   0  0  0  0  0  1  0  0  0  0  0  0
  189.9420  171.3740  142.6150 C   0  0  1  0  0  3  0  0  0  0  0  0
  189.2940  172.0210  143.8280 C   0  0  0  0  0  2  0  0  0  0  0  0
  190.3370  172.6470  144.7400 C   0  0  0  0  0  2  0  0  0  0  0  0
  189.6900  173.6780  145.6460 C   0  0  0  0  0  2  0  0  0  0  0  0
  190.6760  174.4860  146.2110 O   0  0  0  0  0  0  0  0  0  0  0  0
  190.0780  175.0120  147.3570 C   0  0  0  0  0  2  0  0  0  0  0  0
  191.3030  176.7110  148.0480 C   0  0  0  0  0  1  0  0  0  0  0  0
  191.0650  175.3570  148.2800 O   0  0  0  0  0  0  0  0  0  0  0  0
  1  3  2  0  0  0  0
  2  1  1  0  0  0  0
  3  9  1  0  0  0  0
  3 18  1  0  0  0  0
  4  7  2  0  0  0  0
  5  4  1  0  0  0  0
  5  9  2  0  0  0  0
  7 16  1  0  0  0  0
  7  6  1  0  0  0  0
  8  2  1  0  0  0  0
  8  5  1  0  0  0  0
  9  6  1  0  0  0  0
 10 17  1  0  0  0  0
 11 15  1  0  0  0  0
 11 16  2  0  0  0  0
 14 17  2  0  0  0  0
 14 13  1  0  0  0  0
 15 10  2  0  0  0  0
 16 14  1  0  0  0  0
 17 12  1  0  0  0  0
 18 20  1  0  0  0  0
 20 19  2  0  0  0  0
 20 21  1  0  0  0  0
 22 21  1  0  0  0  0
 23 25  1  0  0  0  0
 23 22  1  0  0  0  0
 25 24  1  0  0  0  0
 26 25  1  0  0  0  0
 27 28  1  0  0  0  0
 27  8  1  0  0  0  0
 29 28  1  0  0  0  0
 29 31  1  0  0  0  0
 31 30  1  1  0  0  0
 31 32  1  0  0  0  0
 32 33  1  0  0  0  0
 33 34  1  0  0  0  0
 34 35  1  0  0  0  0
 35 36  1  0  0  0  0
 36 38  1  0  0  0  0
 37 38  1  0  0  0  0
M  END
>  <MODEL>
1

>  <REMARK>
 VINA RESULT:      -6.2      0.000      0.000
  Name = 
  16 active torsions:
  status: ('A' for Active; 'I' for Inactive)
    1  A    between atoms: C_3  and  C_11
    2  A    between atoms: C_3  and  C_27
    3  A    between atoms: C_4  and  C_11
    4  A    between atoms: C_4  and  C_34
    5  A    between atoms: C_5  and  O_35
    6  A    between atoms: C_5  and  O_38
    7  A    between atoms: C_9  and  N_10
    8  A    between atoms: C_17  and  C_25
    9  A    between atoms: C_17  and  C_30
   10  A    between atoms: C_18  and  C_34
   11  A    between atoms: C_18  and  O_35
   12  A    between atoms: C_20  and  N_32
   13  A    between atoms: C_21  and  C_27
   14  A    between atoms: C_21  and  N_36
   15  A    between atoms: C_28  and  C_33
   16  A    between atoms: C_30  and  N_32
                            x       y       z     vdW  Elec       q    Type
                         _______ _______ _______ _____ _____    ______ ____

>  <TORSDO>
F 16

$$$$
=
 OpenBabel11042416273D

 38 40  0  0  1  0  0  0  0  0999 V2000
  187.0870  176.7650  140.9450 C   0  0  0  0  0  3  0  0  0  0  0  0
  187.7730  175.5410  140.3600 C   0  0  0  0  0  2  0  0  0  0  0  0
  187.6310  177.5200  141.9130 C   0  0  0  0  0  0  0  0  0  0  0  0
  190.5920  175.5510  142.8760 N   0  0  0  0  0  0  0  0  0  0  0  0
  189.4620  175.8670  142.1900 C   0  0  0  0  0  0  0  0  0  0  0  0
  189.8060  177.7970  143.7190 S   0  0  0  0  0  0  0  0  0  0  0  0
  190.9270  176.5230  143.7640 C   0  0  0  0  0  0  0  0  0  0  0  0
  188.8510  175.0170  141.2110 N   0  0  0  0  0  0  0  0  0  0  0  0
  188.8860  177.0710  142.5170 C   0  0  0  0  0  0  0  0  0  0  0  0
  194.2930  176.2320  146.4180 C   0  0  0  0  0  3  0  0  0  0  0  0
  191.9150  176.3690  146.0260 C   0  0  0  0  0  3  0  0  0  0  0  0
  195.7960  176.2430  144.5780 F   0  0  0  0  0  0  0  0  0  0  0  0
  193.7190  176.4300  142.7860 O   0  0  0  0  0  1  0  0  0  0  0  0
  193.4470  176.3790  144.1480 C   0  0  0  0  0  0  0  0  0  0  0  0
  192.9900  176.2740  146.9110 C   0  0  0  0  0  3  0  0  0  0  0  0
  192.1210  176.4230  144.6390 C   0  0  0  0  0  0  0  0  0  0  0  0
  194.5220  176.2840  145.0430 C   0  0  0  0  0  0  0  0  0  0  0  0
  186.9790  178.6900  142.4320 N   0  0  0  0  0  2  0  0  0  0  0  0
  185.6090  179.8970  143.8660 O   0  0  0  0  0  0  0  0  0  0  0  0
  185.9840  178.7650  143.4640 C   0  0  0  0  0  0  0  0  0  0  0  0
  185.3340  177.5490  144.0440 C   0  0  0  0  0  2  0  0  0  0  0  0
  186.1390  177.0080  145.2140 C   0  0  0  0  0  2  0  0  0  0  0  0
  185.3060  176.9330  146.4100 N   0  0  0  0  0  2  0  0  0  0  0  0
  185.4060  179.0060  147.5160 O   0  0  0  0  0  1  0  0  0  0  0  0
  185.9180  177.7080  147.4900 C   0  0  0  0  0  3  0  0  0  0  0  0
  187.3070  177.7410  147.3490 O   0  0  0  0  0  1  0  0  0  0  0  0
  189.4280  173.7220  140.8850 C   0  0  0  0  0  2  0  0  0  0  0  0
  188.6620  172.6190  141.5970 C   0  0  0  0  0  2  0  0  0  0  0  0
  189.1970  172.4130  143.0060 C   0  0  0  0  0  2  0  0  0  0  0  0
  190.3420  170.6750  141.8340 O   0  0  0  0  0  1  0  0  0  0  0  0
  190.3380  171.4040  143.0240 C   0  0  1  0  0  3  0  0  0  0  0  0
  191.6680  172.1280  143.1670 C   0  0  0  0  0  2  0  0  0  0  0  0
  191.8260  172.7200  144.5580 C   0  0  0  0  0  2  0  0  0  0  0  0
  193.2860  172.7090  144.9700 C   0  0  0  0  0  2  0  0  0  0  0  0
  194.0900  172.8590  143.8410 O   0  0  0  0  0  0  0  0  0  0  0  0
  195.3900  172.6910  144.3160 C   0  0  0  0  0  2  0  0  0  0  0  0
  196.7840  173.1640  145.9580 C   0  0  0  0  0  1  0  0  0  0  0  0
  195.4300  172.9830  145.6790 O   0  0  0  0  0  0  0  0  0  0  0  0
  1  3  2  0  0  0  0
  2  1  1  0  0  0  0
  2  8  1  0  0  0  0
  3 18  1  0  0  0  0
  3  9  1  0  0  0  0
  4  7  2  0  0  0  0
  5  9  2  0  0  0  0
  5  4  1  0  0  0  0
  6  7  1  0  0  0  0
  7 16  1  0  0  0  0
  8  5  1  0  0  0  0
  9  6  1  0  0  0  0
 10 15  1  0  0  0  0
 11 15  2  0  0  0  0
 12 17  1  0  0  0  0
 13 14  1  0  0  0  0
 14 16  2  0  0  0  0
 14 17  1  0  0  0  0
 16 11  1  0  0  0  0
 17 10  2  0  0  0  0
 18 20  1  0  0  0  0
 20 19  2  0  0  0  0
 20 21  1  0  0  0  0
 21 22  1  0  0  0  0
 22 23  1  0  0  0  0
 23 25  1  0  0  0  0
 25 24  1  0  0  0  0
 26 25  1  0  0  0  0
 27  8  1  0  0  0  0
 27 28  1  0  0  0  0
 28 29  1  0  0  0  0
 29 31  1  0  0  0  0
 31 30  1  6  0  0  0
 31 32  1  0  0  0  0
 32 33  1  0  0  0  0
 33 34  1  0  0  0  0
 35 36  1  0  0  0  0
 35 34  1  0  0  0  0
 36 38  1  0  0  0  0
 38 37  1  0  0  0  0
M  END
>  <MODEL>
2

>  <REMARK>
 VINA RESULT:      -6.1      2.831      6.862
  Name = 
  16 active torsions:
  status: ('A' for Active; 'I' for Inactive)
    1  A    between atoms: C_3  and  C_11
    2  A    between atoms: C_3  and  C_27
    3  A    between atoms: C_4  and  C_11
    4  A    between atoms: C_4  and  C_34
    5  A    between atoms: C_5  and  O_35
    6  A    between atoms: C_5  and  O_38
    7  A    between atoms: C_9  and  N_10
    8  A    between atoms: C_17  and  C_25
    9  A    between atoms: C_17  and  C_30
   10  A    between atoms: C_18  and  C_34
   11  A    between atoms: C_18  and  O_35
   12  A    between atoms: C_20  and  N_32
   13  A    between atoms: C_21  and  C_27
   14  A    between atoms: C_21  and  N_36
   15  A    between atoms: C_28  and  C_33
   16  A    between atoms: C_30  and  N_32
                            x       y       z     vdW  Elec       q    Type
                         _______ _______ _______ _____ _____    ______ ____

>  <TORSDO>
F 16

$$$$
=
 OpenBabel11042416273D

 38 40  0  0  1  0  0  0  0  0999 V2000
  187.6510  173.8720  142.0320 C   0  0  0  0  0  3  0  0  0  0  0  0
  187.1770  175.2680  142.4010 C   0  0  0  0  0  2  0  0  0  0  0  0
  188.8490  173.3820  142.3910 C   0  0  0  0  0  0  0  0  0  0  0  0
  190.5090  176.3420  143.8250 N   0  0  0  0  0  0  0  0  0  0  0  0
  189.5180  175.6150  143.2440 C   0  0  0  0  0  0  0  0  0  0  0  0
  191.3340  173.9640  143.6380 S   0  0  0  0  0  0  0  0  0  0  0  0
  191.5900  175.5730  144.1150 C   0  0  0  0  0  0  0  0  0  0  0  0
  188.2720  176.1660  142.8000 N   0  0  0  0  0  0  0  0  0  0  0  0
  189.7900  174.2810  143.0620 C   0  0  0  0  0  0  0  0  0  0  0  0
  195.0510  177.1690  146.1000 C   0  0  0  0  0  3  0  0  0  0  0  0
  192.7680  176.3830  146.1330 C   0  0  0  0  0  3  0  0  0  0  0  0
  196.2650  177.1840  144.0570 F   0  0  0  0  0  0  0  0  0  0  0  0
  194.1130  176.1640  142.6830 O   0  0  0  0  0  1  0  0  0  0  0  0
  194.0050  176.3980  144.0490 C   0  0  0  0  0  0  0  0  0  0  0  0
  193.8770  176.9010  146.8030 C   0  0  0  0  0  3  0  0  0  0  0  0
  192.8100  176.1240  144.7550 C   0  0  0  0  0  0  0  0  0  0  0  0
  195.1160  176.9180  144.7290 C   0  0  0  0  0  0  0  0  0  0  0  0
  189.2650  172.0490  142.0570 N   0  0  0  0  0  2  0  0  0  0  0  0
  190.5060  170.4260  140.9520 O   0  0  0  0  0  0  0  0  0  0  0  0
  190.1720  171.6370  141.0220 C   0  0  0  0  0  0  0  0  0  0  0  0
  190.6930  172.5830  139.9870 C   0  0  0  0  0  2  0  0  0  0  0  0
  190.1070  172.2710  138.6200 C   0  0  0  0  0  2  0  0  0  0  0  0
  188.6630  172.4860  138.6270 N   0  0  0  0  0  2  0  0  0  0  0  0
  189.4240  174.0690  137.0640 O   0  0  0  0  0  1  0  0  0  0  0  0
  188.3350  173.6760  137.8440 C   0  0  0  0  0  3  0  0  0  0  0  0
  187.9380  174.7240  138.6780 O   0  0  0  0  0  1  0  0  0  0  0  0
  187.9870  177.5840  142.9500 C   0  0  0  0  0  2  0  0  0  0  0  0
  187.0290  178.0400  141.8610 C   0  0  0  0  0  2  0  0  0  0  0  0
  185.6860  178.4350  142.4550 C   0  0  0  0  0  2  0  0  0  0  0  0
  185.6390  180.1960  144.0670 O   0  0  0  0  0  1  0  0  0  0  0  0
  185.8190  178.8190  143.9230 C   0  0  1  0  0  3  0  0  0  0  0  0
  184.7670  178.0930  144.7460 C   0  0  0  0  0  2  0  0  0  0  0  0
  185.3850  176.9680  145.5610 C   0  0  0  0  0  2  0  0  0  0  0  0
  186.6190  177.4660  146.2890 C   0  0  0  0  0  2  0  0  0  0  0  0
  187.5460  176.4300  146.3970 O   0  0  0  0  0  0  0  0  0  0  0  0
  188.7320  177.0630  146.7700 C   0  0  0  0  0  2  0  0  0  0  0  0
  189.0410  174.8870  146.9490 C   0  0  0  0  0  1  0  0  0  0  0  0
  189.6400  176.1130  147.2360 O   0  0  0  0  0  0  0  0  0  0  0  0
  1  3  2  0  0  0  0
  1  2  1  0  0  0  0
  2  8  1  0  0  0  0
  3  9  1  0  0  0  0
  4  7  2  0  0  0  0
  5  4  1  0  0  0  0
  6  7  1  0  0  0  0
  7 16  1  0  0  0  0
  8 27  1  0  0  0  0
  8  5  1  0  0  0  0
  9  5  2  0  0  0  0
  9  6  1  0  0  0  0
 10 15  1  0  0  0  0
 11 15  2  0  0  0  0
 12 17  1  0  0  0  0
 13 14  1  0  0  0  0
 14 17  1  0  0  0  0
 14 16  2  0  0  0  0
 16 11  1  0  0  0  0
 17 10  2  0  0  0  0
 18  3  1  0  0  0  0
 19 20  2  0  0  0  0
 20 18  1  0  0  0  0
 21 20  1  0  0  0  0
 22 23  1  0  0  0  0
 22 21  1  0  0  0  0
 24 25  1  0  0  0  0
 25 23  1  0  0  0  0
 25 26  1  0  0  0  0
 28 29  1  0  0  0  0
 28 27  1  0  0  0  0
 29 31  1  0  0  0  0
 31 30  1  6  0  0  0
 31 32  1  0  0  0  0
 32 33  1  0  0  0  0
 33 34  1  0  0  0  0
 34 35  1  0  0  0  0
 35 36  1  0  0  0  0
 36 38  1  0  0  0  0
 37 38  1  0  0  0  0
M  END
>  <MODEL>
3

>  <REMARK>
 VINA RESULT:      -6.0      3.228      7.329
  Name = 
  16 active torsions:
  status: ('A' for Active; 'I' for Inactive)
    1  A    between atoms: C_3  and  C_11
    2  A    between atoms: C_3  and  C_27
    3  A    between atoms: C_4  and  C_11
    4  A    between atoms: C_4  and  C_34
    5  A    between atoms: C_5  and  O_35
    6  A    between atoms: C_5  and  O_38
    7  A    between atoms: C_9  and  N_10
    8  A    between atoms: C_17  and  C_25
    9  A    between atoms: C_17  and  C_30
   10  A    between atoms: C_18  and  C_34
   11  A    between atoms: C_18  and  O_35
   12  A    between atoms: C_20  and  N_32
   13  A    between atoms: C_21  and  C_27
   14  A    between atoms: C_21  and  N_36
   15  A    between atoms: C_28  and  C_33
   16  A    between atoms: C_30  and  N_32
                            x       y       z     vdW  Elec       q    Type
                         _______ _______ _______ _____ _____    ______ ____

>  <TORSDO>
F 16

$$$$
=
 OpenBabel11042416273D

 38 40  0  0  1  0  0  0  0  0999 V2000
  191.4650  175.9490  147.0720 C   0  0  0  0  0  3  0  0  0  0  0  0
  190.0700  176.5390  146.9530 C   0  0  0  0  0  2  0  0  0  0  0  0
  192.0520  175.2440  146.0910 C   0  0  0  0  0  0  0  0  0  0  0  0
  189.3060  174.8290  143.6720 N   0  0  0  0  0  0  0  0  0  0  0  0
  189.9280  175.2420  144.8070 C   0  0  0  0  0  0  0  0  0  0  0  0
  191.7130  174.0870  143.5200 S   0  0  0  0  0  0  0  0  0  0  0  0
  190.1590  174.1740  142.8420 C   0  0  0  0  0  0  0  0  0  0  0  0
  189.2720  175.9290  145.8790 N   0  0  0  0  0  0  0  0  0  0  0  0
  191.2620  174.9260  144.9010 C   0  0  0  0  0  0  0  0  0  0  0  0
  188.8440  172.7010  139.0260 C   0  0  0  0  0  3  0  0  0  0  0  0
  188.9320  174.4290  140.7100 C   0  0  0  0  0  3  0  0  0  0  0  0
  189.9730  170.6410  139.3870 F   0  0  0  0  0  0  0  0  0  0  0  0
  190.8710  171.4780  141.8480 O   0  0  0  0  0  1  0  0  0  0  0  0
  190.0830  172.3290  141.0800 C   0  0  0  0  0  0  0  0  0  0  0  0
  188.4910  173.9760  139.4660 C   0  0  0  0  0  3  0  0  0  0  0  0
  189.7300  173.6210  141.5340 C   0  0  0  0  0  0  0  0  0  0  0  0
  189.6370  171.8800  139.8280 C   0  0  0  0  0  0  0  0  0  0  0  0
  193.3840  174.7200  146.2130 N   0  0  0  0  0  2  0  0  0  0  0  0
  195.7050  174.7910  146.1740 O   0  0  0  0  0  0  0  0  0  0  0  0
  194.6240  175.3710  145.8940 C   0  0  0  0  0  0  0  0  0  0  0  0
  194.6820  176.6900  145.1910 C   0  0  0  0  0  2  0  0  0  0  0  0
  195.5910  176.6180  143.9750 C   0  0  0  0  0  2  0  0  0  0  0  0
  194.8930  175.9900  142.8570 N   0  0  0  0  0  2  0  0  0  0  0  0
  196.2410  177.0580  141.2520 O   0  0  0  0  0  1  0  0  0  0  0  0
  195.8120  175.8190  141.7320 C   0  0  0  0  0  3  0  0  0  0  0  0
  195.2070  175.0890  140.7050 O   0  0  0  0  0  1  0  0  0  0  0  0
  187.8510  176.2350  145.8100 C   0  0  0  0  0  2  0  0  0  0  0  0
  187.5480  177.4830  146.6250 C   0  0  0  0  0  2  0  0  0  0  0  0
  186.1080  177.4720  147.1130 C   0  0  0  0  0  2  0  0  0  0  0  0
  183.8910  178.1930  146.5930 O   0  0  0  0  0  1  0  0  0  0  0  0
  185.1540  177.9770  146.0380 C   0  0  1  0  0  3  0  0  0  0  0  0
  185.6710  179.2840  145.4590 C   0  0  0  0  0  2  0  0  0  0  0  0
  185.6880  179.2450  143.9400 C   0  0  0  0  0  2  0  0  0  0  0  0
  184.6350  178.2790  143.4290 C   0  0  0  0  0  2  0  0  0  0  0  0
  185.2160  177.3930  142.5230 O   0  0  0  0  0  0  0  0  0  0  0  0
  185.9320  178.2090  141.6480 C   0  0  0  0  0  2  0  0  0  0  0  0
  186.5430  177.3880  139.6950 C   0  0  0  0  0  1  0  0  0  0  0  0
  185.4770  178.0090  140.3450 O   0  0  0  0  0  0  0  0  0  0  0  0
  2  1  1  0  0  0  0
  3 18  1  0  0  0  0
  3  1  2  0  0  0  0
  4  5  1  0  0  0  0
  5  9  2  0  0  0  0
  5  8  1  0  0  0  0
  6  9  1  0  0  0  0
  7  6  1  0  0  0  0
  7  4  2  0  0  0  0
  8  2  1  0  0  0  0
  9  3  1  0  0  0  0
 10 15  2  0  0  0  0
 10 17  1  0  0  0  0
 11 16  2  0  0  0  0
 12 17  1  0  0  0  0
 14 16  1  0  0  0  0
 14 13  1  0  0  0  0
 15 11  1  0  0  0  0
 16  7  1  0  0  0  0
 17 14  2  0  0  0  0
 20 19  2  0  0  0  0
 20 18  1  0  0  0  0
 21 20  1  0  0  0  0
 22 21  1  0  0  0  0
 23 22  1  0  0  0  0
 24 25  1  0  0  0  0
 25 23  1  0  0  0  0
 26 25  1  0  0  0  0
 27  8  1  0  0  0  0
 27 28  1  0  0  0  0
 28 29  1  0  0  0  0
 31 30  1  1  0  0  0
 31 29  1  0  0  0  0
 32 31  1  0  0  0  0
 33 32  1  0  0  0  0
 34 33  1  0  0  0  0
 35 34  1  0  0  0  0
 36 35  1  0  0  0  0
 37 38  1  0  0  0  0
 38 36  1  0  0  0  0
M  END
>  <MODEL>
4

>  <REMARK>
 VINA RESULT:      -5.9      3.308      6.701
  Name = 
  16 active torsions:
  status: ('A' for Active; 'I' for Inactive)
    1  A    between atoms: C_3  and  C_11
    2  A    between atoms: C_3  and  C_27
    3  A    between atoms: C_4  and  C_11
    4  A    between atoms: C_4  and  C_34
    5  A    between atoms: C_5  and  O_35
    6  A    between atoms: C_5  and  O_38
    7  A    between atoms: C_9  and  N_10
    8  A    between atoms: C_17  and  C_25
    9  A    between atoms: C_17  and  C_30
   10  A    between atoms: C_18  and  C_34
   11  A    between atoms: C_18  and  O_35
   12  A    between atoms: C_20  and  N_32
   13  A    between atoms: C_21  and  C_27
   14  A    between atoms: C_21  and  N_36
   15  A    between atoms: C_28  and  C_33
   16  A    between atoms: C_30  and  N_32
                            x       y       z     vdW  Elec       q    Type
                         _______ _______ _______ _____ _____    ______ ____

>  <TORSDO>
F 16

$$$$
=
 OpenBabel11042416273D

 38 40  0  0  1  0  0  0  0  0999 V2000
  186.6560  177.3180  140.8600 C   0  0  0  0  0  3  0  0  0  0  0  0
  187.3900  176.1830  140.1650 C   0  0  0  0  0  2  0  0  0  0  0  0
  187.1020  177.9040  141.9830 C   0  0  0  0  0  0  0  0  0  0  0  0
  189.9340  175.7430  142.9250 N   0  0  0  0  0  0  0  0  0  0  0  0
  188.8830  176.1860  142.1850 C   0  0  0  0  0  0  0  0  0  0  0  0
  189.0810  177.8510  144.0200 S   0  0  0  0  0  0  0  0  0  0  0  0
  190.1820  176.5600  143.9810 C   0  0  0  0  0  0  0  0  0  0  0  0
  188.3710  175.5100  141.0300 N   0  0  0  0  0  0  0  0  0  0  0  0
  188.2860  177.3390  142.6340 C   0  0  0  0  0  0  0  0  0  0  0  0
  193.4540  175.8720  146.6800 C   0  0  0  0  0  3  0  0  0  0  0  0
  192.5770  176.6920  144.5850 C   0  0  0  0  0  3  0  0  0  0  0  0
  191.9880  174.8850  148.2690 F   0  0  0  0  0  0  0  0  0  0  0  0
  189.8200  175.2740  146.6230 O   0  0  0  0  0  1  0  0  0  0  0  0
  191.0810  175.6850  146.2050 C   0  0  0  0  0  0  0  0  0  0  0  0
  193.6580  176.4800  145.4420 C   0  0  0  0  0  3  0  0  0  0  0  0
  191.2790  176.3010  144.9470 C   0  0  0  0  0  0  0  0  0  0  0  0
  192.1720  175.4760  147.0610 C   0  0  0  0  0  0  0  0  0  0  0  0
  186.4090  178.9960  142.6070 N   0  0  0  0  0  2  0  0  0  0  0  0
  185.0040  180.0140  144.1510 O   0  0  0  0  0  0  0  0  0  0  0  0
  185.4220  178.9380  143.6480 C   0  0  0  0  0  0  0  0  0  0  0  0
  184.8260  177.6500  144.1210 C   0  0  0  0  0  2  0  0  0  0  0  0
  185.6390  177.0620  145.2630 C   0  0  0  0  0  2  0  0  0  0  0  0
  184.9550  177.2770  146.5340 N   0  0  0  0  0  2  0  0  0  0  0  0
  185.7120  179.3390  147.3760 O   0  0  0  0  0  1  0  0  0  0  0  0
  185.8520  177.9530  147.4720 C   0  0  0  0  0  3  0  0  0  0  0  0
  187.1800  177.5880  147.2370 O   0  0  0  0  0  1  0  0  0  0  0  0
  188.9690  174.2670  140.5680 C   0  0  0  0  0  2  0  0  0  0  0  0
  188.1400  173.0840  141.0430 C   0  0  0  0  0  2  0  0  0  0  0  0
  188.5930  172.6270  142.4210 C   0  0  0  0  0  2  0  0  0  0  0  0
  190.0060  171.3140  141.0130 O   0  0  0  0  0  1  0  0  0  0  0  0
  189.8200  171.7290  142.3320 C   0  0  1  0  0  3  0  0  0  0  0  0
  191.0540  172.4900  142.7910 C   0  0  0  0  0  2  0  0  0  0  0  0
  191.3030  172.2910  144.2770 C   0  0  0  0  0  2  0  0  0  0  0  0
  192.7280  171.8260  144.5120 C   0  0  0  0  0  2  0  0  0  0  0  0
  193.4750  172.8710  145.0540 O   0  0  0  0  0  0  0  0  0  0  0  0
  194.5570  173.0110  144.1850 C   0  0  0  0  0  2  0  0  0  0  0  0
  196.7610  173.0370  144.2220 C   0  0  0  0  0  1  0  0  0  0  0  0
  195.6420  173.5530  144.8740 O   0  0  0  0  0  0  0  0  0  0  0  0
  1  3  2  0  0  0  0
  2  1  1  0  0  0  0
  2  8  1  0  0  0  0
  3 18  1  0  0  0  0
  3  9  1  0  0  0  0
  4  7  2  0  0  0  0
  5  9  2  0  0  0  0
  5  4  1  0  0  0  0
  7  6  1  0  0  0  0
  7 16  1  0  0  0  0
  8  5  1  0  0  0  0
  9  6  1  0  0  0  0
 10 17  1  0  0  0  0
 11 16  2  0  0  0  0
 11 15  1  0  0  0  0
 14 13  1  0  0  0  0
 14 17  2  0  0  0  0
 15 10  2  0  0  0  0
 16 14  1  0  0  0  0
 17 12  1  0  0  0  0
 18 20  1  0  0  0  0
 20 21  1  0  0  0  0
 20 19  2  0  0  0  0
 21 22  1  0  0  0  0
 22 23  1  0  0  0  0
 23 25  1  0  0  0  0
 24 25  1  0  0  0  0
 26 25  1  0  0  0  0
 27  8  1  0  0  0  0
 27 28  1  0  0  0  0
 28 29  1  0  0  0  0
 31 30  1  6  0  0  0
 31 29  1  0  0  0  0
 31 32  1  0  0  0  0
 32 33  1  0  0  0  0
 33 34  1  0  0  0  0
 34 35  1  0  0  0  0
 36 38  1  0  0  0  0
 36 35  1  0  0  0  0
 37 38  1  0  0  0  0
M  END
>  <MODEL>
5

>  <REMARK>
 VINA RESULT:      -5.9      2.389      6.609
  Name = 
  16 active torsions:
  status: ('A' for Active; 'I' for Inactive)
    1  A    between atoms: C_3  and  C_11
    2  A    between atoms: C_3  and  C_27
    3  A    between atoms: C_4  and  C_11
    4  A    between atoms: C_4  and  C_34
    5  A    between atoms: C_5  and  O_35
    6  A    between atoms: C_5  and  O_38
    7  A    between atoms: C_9  and  N_10
    8  A    between atoms: C_17  and  C_25
    9  A    between atoms: C_17  and  C_30
   10  A    between atoms: C_18  and  C_34
   11  A    between atoms: C_18  and  O_35
   12  A    between atoms: C_20  and  N_32
   13  A    between atoms: C_21  and  C_27
   14  A    between atoms: C_21  and  N_36
   15  A    between atoms: C_28  and  C_33
   16  A    between atoms: C_30  and  N_32
                            x       y       z     vdW  Elec       q    Type
                         _______ _______ _______ _____ _____    ______ ____

>  <TORSDO>
F 16

$$$$
=
 OpenBabel11042416273D

 38 40  0  0  1  0  0  0  0  0999 V2000
  192.2580  175.4540  142.4110 C   0  0  0  0  0  3  0  0  0  0  0  0
  191.2680  174.5640  141.6780 C   0  0  0  0  0  2  0  0  0  0  0  0
  191.8880  176.3900  143.3000 C   0  0  0  0  0  0  0  0  0  0  0  0
  188.2230  176.4160  142.9320 N   0  0  0  0  0  0  0  0  0  0  0  0
  189.5060  176.0330  142.6990 C   0  0  0  0  0  0  0  0  0  0  0  0
  189.6930  177.7270  144.5090 S   0  0  0  0  0  0  0  0  0  0  0  0
  188.1480  177.3500  143.9150 C   0  0  0  0  0  0  0  0  0  0  0  0
  189.8940  175.0860  141.6960 N   0  0  0  0  0  0  0  0  0  0  0  0
  190.4580  176.6470  143.4770 C   0  0  0  0  0  0  0  0  0  0  0  0
  184.4240  179.1400  145.0930 C   0  0  0  0  0  3  0  0  0  0  0  0
  186.3380  179.0100  143.6270 C   0  0  0  0  0  3  0  0  0  0  0  0
  184.2250  177.6240  146.9130 F   0  0  0  0  0  0  0  0  0  0  0  0
  186.5980  176.4020  146.2520 O   0  0  0  0  0  1  0  0  0  0  0  0
  186.1360  177.4630  145.4820 C   0  0  0  0  0  0  0  0  0  0  0  0
  185.1310  179.6100  143.9870 C   0  0  0  0  0  3  0  0  0  0  0  0
  186.8600  177.9340  144.3610 C   0  0  0  0  0  0  0  0  0  0  0  0
  184.9240  178.0710  145.8380 C   0  0  0  0  0  0  0  0  0  0  0  0
  192.8420  177.2000  144.0050 N   0  0  0  0  0  2  0  0  0  0  0  0
  194.5720  177.6330  145.4920 O   0  0  0  0  0  0  0  0  0  0  0  0
  193.7200  176.8080  145.0710 C   0  0  0  0  0  0  0  0  0  0  0  0
  193.6250  175.4740  145.7420 C   0  0  0  0  0  2  0  0  0  0  0  0
  192.6990  175.5360  146.9470 C   0  0  0  0  0  2  0  0  0  0  0  0
  191.4220  174.9020  146.6360 N   0  0  0  0  0  2  0  0  0  0  0  0
  189.1560  174.8330  147.2610 O   0  0  0  0  0  1  0  0  0  0  0  0
  190.4230  175.2860  147.6330 C   0  0  0  0  0  3  0  0  0  0  0  0
  190.4050  176.6720  147.8070 O   0  0  0  0  0  1  0  0  0  0  0  0
  188.9000  174.4590  140.8390 C   0  0  0  0  0  2  0  0  0  0  0  0
  188.9020  172.9540  141.0580 C   0  0  0  0  0  2  0  0  0  0  0  0
  188.5150  172.6160  142.4890 C   0  0  0  0  0  2  0  0  0  0  0  0
  190.2490  171.0270  142.0720 O   0  0  0  0  0  1  0  0  0  0  0  0
  189.4360  171.5540  143.0770 C   0  0  1  0  0  3  0  0  0  0  0  0
  190.3160  172.1700  144.1530 C   0  0  0  0  0  2  0  0  0  0  0  0
  191.6450  171.4390  144.2630 C   0  0  0  0  0  2  0  0  0  0  0  0
  192.7570  172.4190  144.5820 C   0  0  0  0  0  2  0  0  0  0  0  0
  193.9910  171.7860  144.4430 O   0  0  0  0  0  0  0  0  0  0  0  0
  193.6870  170.4250  144.4680 C   0  0  0  0  0  2  0  0  0  0  0  0
  194.6360  168.5980  145.2580 C   0  0  0  0  0  1  0  0  0  0  0  0
  194.1810  169.8580  145.6430 O   0  0  0  0  0  0  0  0  0  0  0  0
  1  3  2  0  0  0  0
  2  8  1  0  0  0  0
  2  1  1  0  0  0  0
  3  9  1  0  0  0  0
  3 18  1  0  0  0  0
  4  7  2  0  0  0  0
  5  4  1  0  0  0  0
  5  9  2  0  0  0  0
  7 16  1  0  0  0  0
  7  6  1  0  0  0  0
  8  5  1  0  0  0  0
  9  6  1  0  0  0  0
 10 17  1  0  0  0  0
 11 15  1  0  0  0  0
 11 16  2  0  0  0  0
 14 17  2  0  0  0  0
 14 13  1  0  0  0  0
 15 10  2  0  0  0  0
 16 14  1  0  0  0  0
 17 12  1  0  0  0  0
 18 20  1  0  0  0  0
 20 19  2  0  0  0  0
 20 21  1  0  0  0  0
 21 22  1  0  0  0  0
 23 22  1  0  0  0  0
 23 25  1  0  0  0  0
 24 25  1  0  0  0  0
 25 26  1  0  0  0  0
 27 28  1  0  0  0  0
 27  8  1  0  0  0  0
 28 29  1  0  0  0  0
 29 31  1  0  0  0  0
 31 30  1  6  0  0  0
 31 32  1  0  0  0  0
 32 33  1  0  0  0  0
 33 34  1  0  0  0  0
 35 36  1  0  0  0  0
 35 34  1  0  0  0  0
 36 38  1  0  0  0  0
 37 38  1  0  0  0  0
M  END
>  <MODEL>
6

>  <REMARK>
 VINA RESULT:      -5.8      1.452      3.354
  Name = 
  16 active torsions:
  status: ('A' for Active; 'I' for Inactive)
    1  A    between atoms: C_3  and  C_11
    2  A    between atoms: C_3  and  C_27
    3  A    between atoms: C_4  and  C_11
    4  A    between atoms: C_4  and  C_34
    5  A    between atoms: C_5  and  O_35
    6  A    between atoms: C_5  and  O_38
    7  A    between atoms: C_9  and  N_10
    8  A    between atoms: C_17  and  C_25
    9  A    between atoms: C_17  and  C_30
   10  A    between atoms: C_18  and  C_34
   11  A    between atoms: C_18  and  O_35
   12  A    between atoms: C_20  and  N_32
   13  A    between atoms: C_21  and  C_27
   14  A    between atoms: C_21  and  N_36
   15  A    between atoms: C_28  and  C_33
   16  A    between atoms: C_30  and  N_32
                            x       y       z     vdW  Elec       q    Type
                         _______ _______ _______ _____ _____    ______ ____

>  <TORSDO>
F 16

$$$$
=
 OpenBabel11042416273D

 38 40  0  0  1  0  0  0  0  0999 V2000
  192.5620  173.6790  145.3680 C   0  0  0  0  0  3  0  0  0  0  0  0
  191.5610  172.7290  144.7330 C   0  0  0  0  0  2  0  0  0  0  0  0
  192.2160  174.8510  145.9230 C   0  0  0  0  0  0  0  0  0  0  0  0
  188.6670  175.1480  144.9770 N   0  0  0  0  0  0  0  0  0  0  0  0
  189.9040  174.5890  145.0570 C   0  0  0  0  0  0  0  0  0  0  0  0
  190.0920  176.6790  146.3900 S   0  0  0  0  0  0  0  0  0  0  0  0
  188.5980  176.3140  145.6700 C   0  0  0  0  0  0  0  0  0  0  0  0
  190.2810  173.3730  144.3990 N   0  0  0  0  0  0  0  0  0  0  0  0
  190.8250  175.2900  145.7980 C   0  0  0  0  0  0  0  0  0  0  0  0
  184.9600  178.5750  145.9980 C   0  0  0  0  0  3  0  0  0  0  0  0
  186.4130  176.7890  146.7260 C   0  0  0  0  0  3  0  0  0  0  0  0
  185.6150  179.9680  144.1880 F   0  0  0  0  0  0  0  0  0  0  0  0
  187.9760  178.5920  143.8850 O   0  0  0  0  0  1  0  0  0  0  0  0
  187.0820  178.2100  144.8790 C   0  0  0  0  0  0  0  0  0  0  0  0
  185.2230  177.5070  146.8550 C   0  0  0  0  0  3  0  0  0  0  0  0
  187.3580  177.1240  145.7430 C   0  0  0  0  0  0  0  0  0  0  0  0
  185.8850  178.9260  145.0140 C   0  0  0  0  0  0  0  0  0  0  0  0
  193.1750  175.7200  146.5460 N   0  0  0  0  0  2  0  0  0  0  0  0
  194.7690  177.4060  146.6330 O   0  0  0  0  0  0  0  0  0  0  0  0
  194.0760  176.6420  145.9130 C   0  0  0  0  0  0  0  0  0  0  0  0
  194.2660  176.6910  144.4300 C   0  0  0  0  0  2  0  0  0  0  0  0
  195.6470  176.1890  144.0410 C   0  0  0  0  0  2  0  0  0  0  0  0
  195.8030  174.7890  144.4260 N   0  0  0  0  0  2  0  0  0  0  0  0
  197.9160  173.9390  143.8390 O   0  0  0  0  0  1  0  0  0  0  0  0
  197.1790  174.5450  144.8580 C   0  0  0  0  0  3  0  0  0  0  0  0
  197.2030  173.7490  146.0060 O   0  0  0  0  0  1  0  0  0  0  0  0
  189.3280  172.6420  143.5790 C   0  0  0  0  0  2  0  0  0  0  0  0
  189.4930  173.0320  142.1190 C   0  0  0  0  0  2  0  0  0  0  0  0
  188.1890  173.5740  141.5540 C   0  0  0  0  0  2  0  0  0  0  0  0
  188.0640  174.9170  139.5840 O   0  0  0  0  0  1  0  0  0  0  0  0
  188.3810  174.9560  140.9420 C   0  0  1  0  0  3  0  0  0  0  0  0
  187.4740  175.9600  141.6350 C   0  0  0  0  0  2  0  0  0  0  0  0
  186.7700  176.8530  140.6270 C   0  0  0  0  0  2  0  0  0  0  0  0
  186.3660  178.1620  141.2780 C   0  0  0  0  0  2  0  0  0  0  0  0
  184.9820  178.1940  141.4420 O   0  0  0  0  0  0  0  0  0  0  0  0
  184.4790  178.2180  140.1410 C   0  0  0  0  0  2  0  0  0  0  0  0
  182.4300  178.2890  140.9520 C   0  0  0  0  0  1  0  0  0  0  0  0
  183.2540  177.5520  140.1020 O   0  0  0  0  0  0  0  0  0  0  0  0
  1  3  2  0  0  0  0
  2  1  1  0  0  0  0
  3 18  1  0  0  0  0
  4  5  1  0  0  0  0
  4  7  2  0  0  0  0
  5  9  2  0  0  0  0
  7 16  1  0  0  0  0
  7  6  1  0  0  0  0
  8  2  1  0  0  0  0
  8  5  1  0  0  0  0
  9  3  1  0  0  0  0
  9  6  1  0  0  0  0
 10 15  1  0  0  0  0
 11 15  2  0  0  0  0
 12 17  1  0  0  0  0
 13 14  1  0  0  0  0
 14 17  1  0  0  0  0
 14 16  2  0  0  0  0
 16 11  1  0  0  0  0
 17 10  2  0  0  0  0
 20 18  1  0  0  0  0
 20 19  2  0  0  0  0
 21 20  1  0  0  0  0
 22 23  1  0  0  0  0
 22 21  1  0  0  0  0
 23 25  1  0  0  0  0
 24 25  1  0  0  0  0
 25 26  1  0  0  0  0
 27  8  1  0  0  0  0
 28 27  1  0  0  0  0
 29 28  1  0  0  0  0
 31 30  1  6  0  0  0
 31 29  1  0  0  0  0
 31 32  1  0  0  0  0
 33 34  1  0  0  0  0
 33 32  1  0  0  0  0
 34 35  1  0  0  0  0
 36 35  1  0  0  0  0
 38 36  1  0  0  0  0
 38 37  1  0  0  0  0
M  END
>  <MODEL>
7

>  <REMARK>
 VINA RESULT:      -5.8      2.726      4.526
  Name = 
  16 active torsions:
  status: ('A' for Active; 'I' for Inactive)
    1  A    between atoms: C_3  and  C_11
    2  A    between atoms: C_3  and  C_27
    3  A    between atoms: C_4  and  C_11
    4  A    between atoms: C_4  and  C_34
    5  A    between atoms: C_5  and  O_35
    6  A    between atoms: C_5  and  O_38
    7  A    between atoms: C_9  and  N_10
    8  A    between atoms: C_17  and  C_25
    9  A    between atoms: C_17  and  C_30
   10  A    between atoms: C_18  and  C_34
   11  A    between atoms: C_18  and  O_35
   12  A    between atoms: C_20  and  N_32
   13  A    between atoms: C_21  and  C_27
   14  A    between atoms: C_21  and  N_36
   15  A    between atoms: C_28  and  C_33
   16  A    between atoms: C_30  and  N_32
                            x       y       z     vdW  Elec       q    Type
                         _______ _______ _______ _____ _____    ______ ____

>  <TORSDO>
F 16

$$$$
=
 OpenBabel11042416273D

 38 40  0  0  1  0  0  0  0  0999 V2000
  190.9890  174.1420  142.0260 C   0  0  0  0  0  3  0  0  0  0  0  0
  191.7310  175.1710  142.8630 C   0  0  0  0  0  2  0  0  0  0  0  0
  189.6520  174.1190  141.9050 C   0  0  0  0  0  0  0  0  0  0  0  0
  188.5940  176.6380  144.3760 N   0  0  0  0  0  0  0  0  0  0  0  0
  189.4510  175.8700  143.6520 C   0  0  0  0  0  0  0  0  0  0  0  0
  187.2050  175.2710  142.7730 S   0  0  0  0  0  0  0  0  0  0  0  0
  187.3040  176.4320  144.0070 C   0  0  0  0  0  0  0  0  0  0  0  0
  190.8710  175.8510  143.8430 N   0  0  0  0  0  0  0  0  0  0  0  0
  188.8680  175.0520  142.7150 C   0  0  0  0  0  0  0  0  0  0  0  0
  184.0590  178.4410  145.9810 C   0  0  0  0  0  3  0  0  0  0  0  0
  185.9480  176.9380  146.0130 C   0  0  0  0  0  3  0  0  0  0  0  0
  183.4340  179.5090  143.9520 F   0  0  0  0  0  0  0  0  0  0  0  0
  185.4770  178.2780  142.5860 O   0  0  0  0  0  1  0  0  0  0  0  0
  185.3110  178.0270  143.9430 C   0  0  0  0  0  0  0  0  0  0  0  0
  184.9020  177.5770  146.6790 C   0  0  0  0  0  3  0  0  0  0  0  0
  186.1710  177.1480  144.6440 C   0  0  0  0  0  0  0  0  0  0  0  0
  184.2620  178.6660  144.6190 C   0  0  0  0  0  0  0  0  0  0  0  0
  188.9710  173.1560  141.0840 N   0  0  0  0  0  2  0  0  0  0  0  0
  188.0110  172.3230  139.1410 O   0  0  0  0  0  0  0  0  0  0  0  0
  188.4850  173.3210  139.7440 C   0  0  0  0  0  0  0  0  0  0  0  0
  188.4670  174.6480  139.0530 C   0  0  0  0  0  2  0  0  0  0  0  0
  187.8160  174.5400  137.6830 C   0  0  0  0  0  2  0  0  0  0  0  0
  186.9600  175.6960  137.4370 N   0  0  0  0  0  2  0  0  0  0  0  0
  187.6900  177.2190  135.8000 O   0  0  0  0  0  1  0  0  0  0  0  0
  186.9820  176.0350  136.0140 C   0  0  0  0  0  3  0  0  0  0  0  0
  185.6830  176.1550  135.5140 O   0  0  0  0  0  1  0  0  0  0  0  0
  191.4980  176.6830  144.8590 C   0  0  0  0  0  2  0  0  0  0  0  0
  191.9320  175.8260  146.0370 C   0  0  0  0  0  2  0  0  0  0  0  0
  193.3550  176.1630  146.4540 C   0  0  0  0  0  2  0  0  0  0  0  0
  194.9350  177.8140  145.7600 O   0  0  0  0  0  1  0  0  0  0  0  0
  194.1470  176.7590  145.2970 C   0  0  1  0  0  3  0  0  0  0  0  0
  195.0480  175.6990  144.6850 C   0  0  0  0  0  2  0  0  0  0  0  0
  195.4630  174.6650  145.7190 C   0  0  0  0  0  2  0  0  0  0  0  0
  196.8670  174.1680  145.4290 C   0  0  0  0  0  2  0  0  0  0  0  0
  197.1600  173.0880  146.2600 O   0  0  0  0  0  0  0  0  0  0  0  0
  197.0420  171.9710  145.4330 C   0  0  0  0  0  2  0  0  0  0  0  0
  197.3470  169.7870  145.4570 C   0  0  0  0  0  1  0  0  0  0  0  0
  196.8220  170.8360  146.2120 O   0  0  0  0  0  0  0  0  0  0  0  0
  1  2  1  0  0  0  0
  2  8  1  0  0  0  0
  3  1  2  0  0  0  0
  3  9  1  0  0  0  0
  5  8  1  0  0  0  0
  5  4  1  0  0  0  0
  6  7  1  0  0  0  0
  7  4  2  0  0  0  0
  7 16  1  0  0  0  0
  8 27  1  0  0  0  0
  9  6  1  0  0  0  0
  9  5  2  0  0  0  0
 10 15  1  0  0  0  0
 11 15  2  0  0  0  0
 12 17  1  0  0  0  0
 13 14  1  0  0  0  0
 14 17  1  0  0  0  0
 14 16  2  0  0  0  0
 16 11  1  0  0  0  0
 17 10  2  0  0  0  0
 18  3  1  0  0  0  0
 19 20  2  0  0  0  0
 20 18  1  0  0  0  0
 21 20  1  0  0  0  0
 22 21  1  0  0  0  0
 23 22  1  0  0  0  0
 24 25  1  0  0  0  0
 25 23  1  0  0  0  0
 26 25  1  0  0  0  0
 27 28  1  0  0  0  0
 28 29  1  0  0  0  0
 31 30  1  1  0  0  0
 31 29  1  0  0  0  0
 32 31  1  0  0  0  0
 32 33  1  0  0  0  0
 34 33  1  0  0  0  0
 34 35  1  0  0  0  0
 36 38  1  0  0  0  0
 36 35  1  0  0  0  0
 37 38  1  0  0  0  0
M  END
>  <MODEL>
8

>  <REMARK>
 VINA RESULT:      -5.8      3.324      7.107
  Name = 
  16 active torsions:
  status: ('A' for Active; 'I' for Inactive)
    1  A    between atoms: C_3  and  C_11
    2  A    between atoms: C_3  and  C_27
    3  A    between atoms: C_4  and  C_11
    4  A    between atoms: C_4  and  C_34
    5  A    between atoms: C_5  and  O_35
    6  A    between atoms: C_5  and  O_38
    7  A    between atoms: C_9  and  N_10
    8  A    between atoms: C_17  and  C_25
    9  A    between atoms: C_17  and  C_30
   10  A    between atoms: C_18  and  C_34
   11  A    between atoms: C_18  and  O_35
   12  A    between atoms: C_20  and  N_32
   13  A    between atoms: C_21  and  C_27
   14  A    between atoms: C_21  and  N_36
   15  A    between atoms: C_28  and  C_33
   16  A    between atoms: C_30  and  N_32
                            x       y       z     vdW  Elec       q    Type
                         _______ _______ _______ _____ _____    ______ ____

>  <TORSDO>
F 16

$$$$
=
 OpenBabel11042416273D

 38 40  0  0  1  0  0  0  0  0999 V2000
  192.6880  176.4230  146.3770 C   0  0  0  0  0  3  0  0  0  0  0  0
  191.2580  176.3090  146.8760 C   0  0  0  0  0  2  0  0  0  0  0  0
  193.0570  176.1100  145.1240 C   0  0  0  0  0  0  0  0  0  0  0  0
  189.9940  174.5840  143.7610 N   0  0  0  0  0  0  0  0  0  0  0  0
  190.7970  175.1870  144.6770 C   0  0  0  0  0  0  0  0  0  0  0  0
  192.2060  175.0400  142.6350 S   0  0  0  0  0  0  0  0  0  0  0  0
  190.6220  174.4320  142.5670 C   0  0  0  0  0  0  0  0  0  0  0  0
  190.4150  175.4480  146.0340 N   0  0  0  0  0  0  0  0  0  0  0  0
  192.0560  175.5160  144.2370 C   0  0  0  0  0  0  0  0  0  0  0  0
  188.6290  172.7250  139.1650 C   0  0  0  0  0  3  0  0  0  0  0  0
  188.9270  174.5060  140.7680 C   0  0  0  0  0  3  0  0  0  0  0  0
  190.0030  170.7900  139.2800 F   0  0  0  0  0  0  0  0  0  0  0  0
  191.3480  171.7830  141.4630 O   0  0  0  0  0  1  0  0  0  0  0  0
  190.3300  172.5330  140.8860 C   0  0  0  0  0  0  0  0  0  0  0  0
  188.2630  173.9750  139.6610 C   0  0  0  0  0  3  0  0  0  0  0  0
  189.9640  173.8000  141.3970 C   0  0  0  0  0  0  0  0  0  0  0  0
  189.6580  172.0050  139.7740 C   0  0  0  0  0  0  0  0  0  0  0  0
  194.4100  176.2530  144.6630 N   0  0  0  0  0  2  0  0  0  0  0  0
  196.5670  175.5550  144.1630 O   0  0  0  0  0  0  0  0  0  0  0  0
  195.4720  175.2890  144.7230 C   0  0  0  0  0  0  0  0  0  0  0  0
  195.3480  174.0010  145.4740 C   0  0  0  0  0  2  0  0  0  0  0  0
  195.1890  172.8290  144.5200 C   0  0  0  0  0  2  0  0  0  0  0  0
  195.7660  171.6210  145.1020 N   0  0  0  0  0  2  0  0  0  0  0  0
  193.5180  171.0350  144.7360 O   0  0  0  0  0  1  0  0  0  0  0  0
  194.7750  170.5450  145.0960 C   0  0  0  0  0  3  0  0  0  0  0  0
  194.7090  169.9250  146.3460 O   0  0  0  0  0  1  0  0  0  0  0  0
  189.0990  175.0690  146.5240 C   0  0  0  0  0  2  0  0  0  0  0  0
  188.3130  176.3100  146.9150 C   0  0  0  0  0  2  0  0  0  0  0  0
  187.3390  176.7010  145.8140 C   0  0  0  0  0  2  0  0  0  0  0  0
  186.0250  177.0330  147.7800 O   0  0  0  0  0  1  0  0  0  0  0  0
  185.9940  177.1270  146.3880 C   0  0  1  0  0  3  0  0  0  0  0  0
  185.6950  178.5650  145.9950 C   0  0  0  0  0  2  0  0  0  0  0  0
  184.3360  178.6800  145.3220 C   0  0  0  0  0  2  0  0  0  0  0  0
  184.5050  179.0510  143.8600 C   0  0  0  0  0  2  0  0  0  0  0  0
  185.8500  179.3000  143.5950 O   0  0  0  0  0  0  0  0  0  0  0  0
  186.0880  178.6610  142.3780 C   0  0  0  0  0  2  0  0  0  0  0  0
  188.0720  178.0110  141.6680 C   0  0  0  0  0  1  0  0  0  0  0  0
  187.0510  177.6680  142.5530 O   0  0  0  0  0  0  0  0  0  0  0  0
  1  2  1  0  0  0  0
  3  1  2  0  0  0  0
  4  5  1  0  0  0  0
  5  8  1  0  0  0  0
  6  9  1  0  0  0  0
  7  6  1  0  0  0  0
  7  4  2  0  0  0  0
  8 27  1  0  0  0  0
  8  2  1  0  0  0  0
  9  5  2  0  0  0  0
  9  3  1  0  0  0  0
 10 15  2  0  0  0  0
 10 17  1  0  0  0  0
 11 16  2  0  0  0  0
 12 17  1  0  0  0  0
 14 16  1  0  0  0  0
 14 13  1  0  0  0  0
 15 11  1  0  0  0  0
 16  7  1  0  0  0  0
 17 14  2  0  0  0  0
 18 20  1  0  0  0  0
 18  3  1  0  0  0  0
 19 20  2  0  0  0  0
 20 21  1  0  0  0  0
 22 23  1  0  0  0  0
 22 21  1  0  0  0  0
 24 25  1  0  0  0  0
 25 23  1  0  0  0  0
 25 26  1  0  0  0  0
 27 28  1  0  0  0  0
 29 31  1  0  0  0  0
 29 28  1  0  0  0  0
 31 30  1  1  0  0  0
 32 31  1  0  0  0  0
 33 32  1  0  0  0  0
 34 33  1  0  0  0  0
 35 34  1  0  0  0  0
 36 38  1  0  0  0  0
 36 35  1  0  0  0  0
 37 38  1  0  0  0  0
M  END
>  <MODEL>
9

>  <REMARK>
 VINA RESULT:      -5.7      2.936      6.187
  Name = 
  16 active torsions:
  status: ('A' for Active; 'I' for Inactive)
    1  A    between atoms: C_3  and  C_11
    2  A    between atoms: C_3  and  C_27
    3  A    between atoms: C_4  and  C_11
    4  A    between atoms: C_4  and  C_34
    5  A    between atoms: C_5  and  O_35
    6  A    between atoms: C_5  and  O_38
    7  A    between atoms: C_9  and  N_10
    8  A    between atoms: C_17  and  C_25
    9  A    between atoms: C_17  and  C_30
   10  A    between atoms: C_18  and  C_34
   11  A    between atoms: C_18  and  O_35
   12  A    between atoms: C_20  and  N_32
   13  A    between atoms: C_21  and  C_27
   14  A    between atoms: C_21  and  N_36
   15  A    between atoms: C_28  and  C_33
   16  A    between atoms: C_30  and  N_32
                            x       y       z     vdW  Elec       q    Type
                         _______ _______ _______ _____ _____    ______ ____

>  <TORSDO>
F 16

$$$$
