=
 OpenBabel11042419323D

 32 36  0  0  1  0  0  0  0  0999 V2000
  186.8790  177.2670  144.0010 N   0  0  0  0  0  0  0  0  0  0  0  0
  186.5160  177.1300  146.3240 C   0  0  2  0  0  3  0  0  0  0  0  0
  189.0320  176.1770  144.1580 N   0  0  0  0  0  0  0  0  0  0  0  0
  187.6090  176.1130  144.5080 C   0  0  1  0  0  3  0  0  0  0  0  0
  185.0190  178.4090  144.7610 C   0  0  0  0  0  0  0  0  0  0  0  0
  189.9740  175.7920  144.9760 C   0  0  0  0  0  0  0  0  0  0  0  0
  187.4330  176.2220  145.9990 C   0  0  1  0  0  3  0  0  0  0  0  0
  188.4440  175.6560  146.8940 C   0  0  0  0  0  3  0  0  0  0  0  0
  183.9260  178.7100  145.7280 C   0  0  0  0  0  1  0  0  0  0  0  0
  189.6580  175.4280  146.3860 C   0  0  0  0  0  3  0  0  0  0  0  0
  186.1830  177.3570  142.7280 C   0  0  1  0  0  3  0  0  0  0  0  0
  186.1270  177.7660  145.0760 C   0  0  0  0  0  0  0  0  0  0  0  0
  184.7840  178.5220  142.9870 S   0  0  0  0  0  0  0  0  0  0  0  0
  193.1700  174.8970  145.6630 O   0  0  0  0  0  0  0  0  0  0  0  0
  193.1900  176.7010  147.2420 C   0  0  0  0  0  1  0  0  0  0  0  0
  192.1040  174.5710  144.8830 C   0  0  0  0  0  0  0  0  0  0  0  0
  193.2240  176.3040  145.7790 C   0  0  2  0  0  3  0  0  0  0  0  0
  192.5370  172.2810  144.9350 F   0  0  0  0  0  0  0  0  0  0  0  0
  191.3940  175.7990  144.4970 C   0  0  2  0  0  3  0  0  0  0  0  0
  191.7890  173.3330  144.5190 C   0  0  0  0  0  3  0  0  0  0  0  0
  192.1050  176.8660  145.1020 O   0  0  0  0  0  0  0  0  0  0  0  0
  187.1070  177.9160  141.6620 C   0  0  0  0  0  2  0  0  0  0  0  0
  187.2110  176.9500  140.4960 C   0  0  0  0  0  2  0  0  0  0  0  0
  188.9170  172.7590  139.0580 C   0  0  0  0  0  3  0  0  0  0  0  0
  188.2010  174.6720  140.0110 C   0  0  0  0  0  0  0  0  0  0  0  0
  188.9130  173.4260  140.3940 C   0  0  0  0  0  2  0  0  0  0  0  0
  188.3310  173.5020  138.1750 N   0  0  0  0  0  0  0  0  0  0  0  0
  187.8860  174.6870  138.7620 N   0  0  0  0  0  0  0  0  0  0  0  0
  187.8920  175.7330  140.9160 N   0  0  0  0  0  2  0  0  0  0  0  0
  186.2280  177.6420  147.7010 C   0  0  0  0  0  2  0  0  0  0  0  0
  187.0240  178.8270  147.9780 N   0  0  0  0  0  2  0  0  0  0  0  0
  186.1720  179.8790  148.0140 O   0  0  0  0  0  1  0  0  0  0  0  0
  1  4  1  0  0  0  0
  1 12  1  0  0  0  0
  2 30  1  1  0  0  0
  3  6  2  0  0  0  0
  4  3  1  1  0  0  0
  4  7  1  0  0  0  0
  5 12  2  0  0  0  0
  5  9  1  0  0  0  0
  6 10  1  0  0  0  0
  7  2  1  0  0  0  0
  7  8  1  1  0  0  0
 10  8  2  0  0  0  0
 11 22  1  6  0  0  0
 11 13  1  0  0  0  0
 11  1  1  0  0  0  0
 12  2  1  0  0  0  0
 13  5  1  0  0  0  0
 14 17  1  0  0  0  0
 16 14  1  0  0  0  0
 17 15  1  1  0  0  0
 19 16  1  0  0  0  0
 19  6  1  1  0  0  0
 19 21  1  0  0  0  0
 20 16  2  0  0  0  0
 20 18  1  0  0  0  0
 21 17  1  0  0  0  0
 23 29  1  0  0  0  0
 23 22  1  0  0  0  0
 24 26  1  0  0  0  0
 25 26  1  0  0  0  0
 25 29  1  0  0  0  0
 27 28  1  0  0  0  0
 27 24  2  0  0  0  0
 28 25  2  0  0  0  0
 30 31  1  0  0  0  0
 31 32  1  0  0  0  0
M  END
>  <MODEL>
1

>  <REMARK>
 VINA RESULT:      -7.4      0.000      0.000
  Name = 
  6 active torsions:
  status: ('A' for Active; 'I' for Inactive)
    1  A    between atoms: C_2  and  C_17
    2  A    between atoms: N_7  and  C_17
    3  A    between atoms: C_9  and  C_27
    4  A    between atoms: C_9  and  C_30
    5  A    between atoms: C_15  and  C_19
    6  A    between atoms: N_28  and  C_30
                            x       y       z     vdW  Elec       q    Type
                         _______ _______ _______ _____ _____    ______ ____

>  <TORSDO>
F 6

$$$$
=
 OpenBabel11042419323D

 32 36  0  0  1  0  0  0  0  0999 V2000
  190.1700  174.2560  143.7490 N   0  0  0  0  0  0  0  0  0  0  0  0
  191.0660  175.9060  145.1690 C   0  0  2  0  0  3  0  0  0  0  0  0
  188.2300  175.6000  143.2220 N   0  0  0  0  0  0  0  0  0  0  0  0
  189.6940  175.5550  143.2940 C   0  0  1  0  0  3  0  0  0  0  0  0
  192.0300  173.5940  144.9500 C   0  0  0  0  0  0  0  0  0  0  0  0
  187.5430  176.6580  143.5610 C   0  0  0  0  0  0  0  0  0  0  0  0
  190.1940  176.4960  144.3550 C   0  0  1  0  0  3  0  0  0  0  0  0
  189.4770  177.7460  144.6170 C   0  0  0  0  0  3  0  0  0  0  0  0
  193.2800  173.8210  145.7290 C   0  0  0  0  0  1  0  0  0  0  0  0
  188.2070  177.8240  144.2080 C   0  0  0  0  0  3  0  0  0  0  0  0
  190.5440  173.1300  142.9080 C   0  0  1  0  0  3  0  0  0  0  0  0
  191.0940  174.5070  144.7750 C   0  0  0  0  0  0  0  0  0  0  0  0
  191.8410  172.2080  143.8290 S   0  0  0  0  0  0  0  0  0  0  0  0
  184.7920  178.5210  142.8900 O   0  0  0  0  0  0  0  0  0  0  0  0
  184.9670  179.3390  145.1370 C   0  0  0  0  0  1  0  0  0  0  0  0
  185.6420  177.6140  142.3350 C   0  0  0  0  0  0  0  0  0  0  0  0
  184.5910  178.1720  144.2440 C   0  0  2  0  0  3  0  0  0  0  0  0
  185.5350  178.5520  140.2030 F   0  0  0  0  0  0  0  0  0  0  0  0
  186.0580  176.6490  143.3620 C   0  0  2  0  0  3  0  0  0  0  0  0
  186.0020  177.6080  141.0570 C   0  0  0  0  0  3  0  0  0  0  0  0
  185.4050  177.0460  144.5560 O   0  0  0  0  0  0  0  0  0  0  0  0
  189.3490  172.2210  142.6850 C   0  0  0  0  0  2  0  0  0  0  0  0
  188.6610  172.5680  141.3770 C   0  0  0  0  0  2  0  0  0  0  0  0
  189.4850  174.1210  136.9680 C   0  0  0  0  0  3  0  0  0  0  0  0
  189.3680  173.2730  139.0530 C   0  0  0  0  0  0  0  0  0  0  0  0
  190.3450  173.3800  137.9390 C   0  0  0  0  0  2  0  0  0  0  0  0
  188.3160  174.3450  137.4720 N   0  0  0  0  0  0  0  0  0  0  0  0
  188.2390  173.8220  138.7640 N   0  0  0  0  0  0  0  0  0  0  0  0
  189.6380  172.6330  140.3010 N   0  0  0  0  0  2  0  0  0  0  0  0
  191.6090  176.4720  146.4450 C   0  0  0  0  0  2  0  0  0  0  0  0
  190.7170  176.1690  147.5540 N   0  0  0  0  0  2  0  0  0  0  0  0
  191.3180  175.2080  148.2950 O   0  0  0  0  0  1  0  0  0  0  0  0
  1 12  1  0  0  0  0
  2 30  1  1  0  0  0
  3  6  2  0  0  0  0
  4  3  1  1  0  0  0
  4  1  1  0  0  0  0
  4  7  1  0  0  0  0
  5  9  1  0  0  0  0
  6 10  1  0  0  0  0
  7  8  1  1  0  0  0
  7  2  1  0  0  0  0
 10  8  2  0  0  0  0
 11 22  1  1  0  0  0
 11  1  1  0  0  0  0
 11 13  1  0  0  0  0
 12  5  2  0  0  0  0
 12  2  1  0  0  0  0
 13  5  1  0  0  0  0
 14 17  1  0  0  0  0
 16 14  1  0  0  0  0
 16 19  1  0  0  0  0
 17 21  1  0  0  0  0
 17 15  1  1  0  0  0
 18 20  1  0  0  0  0
 19  6  1  1  0  0  0
 19 21  1  0  0  0  0
 20 16  2  0  0  0  0
 23 22  1  0  0  0  0
 24 27  2  0  0  0  0
 24 26  1  0  0  0  0
 25 29  1  0  0  0  0
 26 25  1  0  0  0  0
 27 28  1  0  0  0  0
 28 25  2  0  0  0  0
 29 23  1  0  0  0  0
 30 31  1  0  0  0  0
 31 32  1  0  0  0  0
M  END
>  <MODEL>
2

>  <REMARK>
 VINA RESULT:      -7.3      3.287      6.109
  Name = 
  6 active torsions:
  status: ('A' for Active; 'I' for Inactive)
    1  A    between atoms: C_2  and  C_17
    2  A    between atoms: N_7  and  C_17
    3  A    between atoms: C_9  and  C_27
    4  A    between atoms: C_9  and  C_30
    5  A    between atoms: C_15  and  C_19
    6  A    between atoms: N_28  and  C_30
                            x       y       z     vdW  Elec       q    Type
                         _______ _______ _______ _____ _____    ______ ____

>  <TORSDO>
F 6

$$$$
=
 OpenBabel11042419323D

 32 36  0  0  1  0  0  0  0  0999 V2000
  187.3540  177.0050  143.7040 N   0  0  0  0  0  0  0  0  0  0  0  0
  186.6440  177.7790  145.8110 C   0  0  2  0  0  3  0  0  0  0  0  0
  188.9270  175.4490  144.6780 N   0  0  0  0  0  0  0  0  0  0  0  0
  187.5430  175.9320  144.6700 C   0  0  1  0  0  3  0  0  0  0  0  0
  185.9420  178.8330  143.6390 C   0  0  0  0  0  0  0  0  0  0  0  0
  189.5440  175.1050  145.7780 C   0  0  0  0  0  0  0  0  0  0  0  0
  187.2100  176.5870  145.9830 C   0  0  1  0  0  3  0  0  0  0  0  0
  187.8140  176.0870  147.2200 C   0  0  0  0  0  3  0  0  0  0  0  0
  184.9050  179.7540  144.1870 C   0  0  0  0  0  1  0  0  0  0  0  0
  188.9240  175.3520  147.1090 C   0  0  0  0  0  3  0  0  0  0  0  0
  186.9230  176.8590  142.3240 C   0  0  1  0  0  3  0  0  0  0  0  0
  186.6880  178.0390  144.3820 C   0  0  0  0  0  0  0  0  0  0  0  0
  186.0140  178.4010  141.9010 S   0  0  0  0  0  0  0  0  0  0  0  0
  192.7750  175.6890  144.9360 O   0  0  0  0  0  0  0  0  0  0  0  0
  192.0540  175.5860  142.6520 C   0  0  0  0  0  1  0  0  0  0  0  0
  191.9530  175.5250  146.0090 C   0  0  0  0  0  0  0  0  0  0  0  0
  192.3570  174.8050  143.9160 C   0  0  2  0  0  3  0  0  0  0  0  0
  193.0990  177.0520  147.3470 F   0  0  0  0  0  0  0  0  0  0  0  0
  190.9240  174.5280  145.6810 C   0  0  2  0  0  3  0  0  0  0  0  0
  192.0950  176.1590  147.1670 C   0  0  0  0  0  3  0  0  0  0  0  0
  191.1880  174.1190  144.3500 O   0  0  0  0  0  0  0  0  0  0  0  0
  188.1270  176.7230  141.4080 C   0  0  0  0  0  2  0  0  0  0  0  0
  188.0780  175.3970  140.6700 C   0  0  0  0  0  2  0  0  0  0  0  0
  190.1310  171.4430  142.3090 C   0  0  0  0  0  3  0  0  0  0  0  0
  188.9400  173.2660  141.7260 C   0  0  0  0  0  0  0  0  0  0  0  0
  188.8690  172.1430  142.6960 C   0  0  0  0  0  2  0  0  0  0  0  0
  190.7230  172.0690  141.3450 N   0  0  0  0  0  0  0  0  0  0  0  0
  189.9890  173.1990  140.9810 N   0  0  0  0  0  0  0  0  0  0  0  0
  187.9610  174.3010  141.6200 N   0  0  0  0  0  2  0  0  0  0  0  0
  186.3680  178.7900  146.8820 C   0  0  0  0  0  2  0  0  0  0  0  0
  185.2550  178.3570  147.7120 N   0  0  0  0  0  2  0  0  0  0  0  0
  184.2190  178.0910  146.8800 O   0  0  0  0  0  1  0  0  0  0  0  0
  1 12  1  0  0  0  0
  1  4  1  0  0  0  0
  2  7  1  0  0  0  0
  2 30  1  1  0  0  0
  3  6  2  0  0  0  0
  4  3  1  1  0  0  0
  4  7  1  0  0  0  0
  5  9  1  0  0  0  0
  5 12  2  0  0  0  0
  6 10  1  0  0  0  0
  7  8  1  1  0  0  0
 10  8  2  0  0  0  0
 11 22  1  6  0  0  0
 11  1  1  0  0  0  0
 12  2  1  0  0  0  0
 13 11  1  0  0  0  0
 13  5  1  0  0  0  0
 14 16  1  0  0  0  0
 16 20  2  0  0  0  0
 17 15  1  6  0  0  0
 17 21  1  0  0  0  0
 17 14  1  0  0  0  0
 19  6  1  6  0  0  0
 19 16  1  0  0  0  0
 20 18  1  0  0  0  0
 21 19  1  0  0  0  0
 23 22  1  0  0  0  0
 23 29  1  0  0  0  0
 24 26  1  0  0  0  0
 25 26  1  0  0  0  0
 27 24  2  0  0  0  0
 28 27  1  0  0  0  0
 28 25  2  0  0  0  0
 29 25  1  0  0  0  0
 30 31  1  0  0  0  0
 32 31  1  0  0  0  0
M  END
>  <MODEL>
3

>  <REMARK>
 VINA RESULT:      -7.3      1.978      2.396
  Name = 
  6 active torsions:
  status: ('A' for Active; 'I' for Inactive)
    1  A    between atoms: C_2  and  C_17
    2  A    between atoms: N_7  and  C_17
    3  A    between atoms: C_9  and  C_27
    4  A    between atoms: C_9  and  C_30
    5  A    between atoms: C_15  and  C_19
    6  A    between atoms: N_28  and  C_30
                            x       y       z     vdW  Elec       q    Type
                         _______ _______ _______ _____ _____    ______ ____

>  <TORSDO>
F 6

$$$$
=
 OpenBabel11042419323D

 32 36  0  0  1  0  0  0  0  0999 V2000
  187.4970  176.4150  145.0300 N   0  0  0  0  0  0  0  0  0  0  0  0
  186.0650  177.2730  143.3690 C   0  0  2  0  0  3  0  0  0  0  0  0
  188.8190  175.1890  143.4170 N   0  0  0  0  0  0  0  0  0  0  0  0
  188.2420  176.4870  143.7790 C   0  0  1  0  0  3  0  0  0  0  0  0
  185.6580  177.5600  145.8340 C   0  0  0  0  0  0  0  0  0  0  0  0
  188.8680  174.7630  142.1830 C   0  0  0  0  0  0  0  0  0  0  0  0
  187.1950  176.8920  142.7780 C   0  0  1  0  0  3  0  0  0  0  0  0
  187.3490  176.5160  141.3710 C   0  0  0  0  0  3  0  0  0  0  0  0
  184.5290  178.5280  145.7420 C   0  0  0  0  0  1  0  0  0  0  0  0
  188.1770  175.5050  141.0920 C   0  0  0  0  0  3  0  0  0  0  0  0
  188.0150  176.6870  146.3600 C   0  0  1  0  0  3  0  0  0  0  0  0
  186.2540  177.0200  144.7880 C   0  0  0  0  0  0  0  0  0  0  0  0
  186.5990  177.3300  147.3430 S   0  0  0  0  0  0  0  0  0  0  0  0
  190.6560  172.9850  139.9180 O   0  0  0  0  0  0  0  0  0  0  0  0
  188.5960  172.6970  138.7250 C   0  0  0  0  0  1  0  0  0  0  0  0
  190.7760  173.6710  141.0880 C   0  0  0  0  0  0  0  0  0  0  0  0
  189.4230  172.2950  139.9310 C   0  0  2  0  0  3  0  0  0  0  0  0
  192.9060  174.4830  140.6010 F   0  0  0  0  0  0  0  0  0  0  0  0
  189.5640  173.4680  141.8940 C   0  0  2  0  0  3  0  0  0  0  0  0
  191.8410  174.3840  141.4340 C   0  0  0  0  0  3  0  0  0  0  0  0
  188.7220  172.6250  141.1260 O   0  0  0  0  0  0  0  0  0  0  0  0
  188.5250  175.4080  146.9980 C   0  0  0  0  0  2  0  0  0  0  0  0
  190.0080  175.5240  147.2980 C   0  0  0  0  0  2  0  0  0  0  0  0
  193.5190  176.1480  144.1630 C   0  0  0  0  0  3  0  0  0  0  0  0
  191.7770  176.1320  145.5930 C   0  0  0  0  0  0  0  0  0  0  0  0
  192.4270  177.0550  144.6280 C   0  0  0  0  0  2  0  0  0  0  0  0
  193.4470  175.0040  144.7620 N   0  0  0  0  0  0  0  0  0  0  0  0
  192.3700  174.9900  145.6480 N   0  0  0  0  0  0  0  0  0  0  0  0
  190.6300  176.4650  146.3780 N   0  0  0  0  0  2  0  0  0  0  0  0
  184.7590  177.5460  142.6890 C   0  0  0  0  0  2  0  0  0  0  0  0
  184.8540  178.7460  141.8720 N   0  0  0  0  0  2  0  0  0  0  0  0
  184.3530  178.4360  140.6520 O   0  0  0  0  0  1  0  0  0  0  0  0
  1 11  1  0  0  0  0
  2 30  1  6  0  0  0
  2 12  1  0  0  0  0
  4  3  1  6  0  0  0
  4  1  1  0  0  0  0
  5 13  1  0  0  0  0
  6  3  2  0  0  0  0
  7  8  1  6  0  0  0
  7  2  1  0  0  0  0
  7  4  1  0  0  0  0
  9  5  1  0  0  0  0
 10  8  2  0  0  0  0
 10  6  1  0  0  0  0
 11 22  1  1  0  0  0
 11 13  1  0  0  0  0
 12  1  1  0  0  0  0
 12  5  2  0  0  0  0
 14 17  1  0  0  0  0
 14 16  1  0  0  0  0
 16 20  2  0  0  0  0
 16 19  1  0  0  0  0
 17 15  1  6  0  0  0
 17 21  1  0  0  0  0
 18 20  1  0  0  0  0
 19  6  1  6  0  0  0
 21 19  1  0  0  0  0
 22 23  1  0  0  0  0
 24 26  1  0  0  0  0
 24 27  2  0  0  0  0
 25 28  2  0  0  0  0
 25 29  1  0  0  0  0
 26 25  1  0  0  0  0
 27 28  1  0  0  0  0
 29 23  1  0  0  0  0
 31 30  1  0  0  0  0
 32 31  1  0  0  0  0
M  END
>  <MODEL>
4

>  <REMARK>
 VINA RESULT:      -7.3      3.138      5.641
  Name = 
  6 active torsions:
  status: ('A' for Active; 'I' for Inactive)
    1  A    between atoms: C_2  and  C_17
    2  A    between atoms: N_7  and  C_17
    3  A    between atoms: C_9  and  C_27
    4  A    between atoms: C_9  and  C_30
    5  A    between atoms: C_15  and  C_19
    6  A    between atoms: N_28  and  C_30
                            x       y       z     vdW  Elec       q    Type
                         _______ _______ _______ _____ _____    ______ ____

>  <TORSDO>
F 6

$$$$
=
 OpenBabel11042419323D

 32 36  0  0  1  0  0  0  0  0999 V2000
  190.3560  173.9870  144.1000 N   0  0  0  0  0  0  0  0  0  0  0  0
  191.7610  175.1270  145.6070 C   0  0  2  0  0  3  0  0  0  0  0  0
  188.5800  175.6090  144.3510 N   0  0  0  0  0  0  0  0  0  0  0  0
  190.0040  175.4010  144.0700 C   0  0  1  0  0  3  0  0  0  0  0  0
  192.2950  172.8600  144.6590 C   0  0  0  0  0  0  0  0  0  0  0  0
  188.1460  176.6120  145.0680 C   0  0  0  0  0  0  0  0  0  0  0  0
  190.8460  175.9890  145.1700 C   0  0  1  0  0  3  0  0  0  0  0  0
  190.3960  177.1980  145.8630 C   0  0  0  0  0  3  0  0  0  0  0  0
  193.6950  172.7560  145.1590 C   0  0  0  0  0  1  0  0  0  0  0  0
  189.0980  177.5040  145.7870 C   0  0  0  0  0  3  0  0  0  0  0  0
  190.3760  173.0780  142.9670 C   0  0  1  0  0  3  0  0  0  0  0  0
  191.4940  173.8770  144.9140 C   0  0  0  0  0  0  0  0  0  0  0  0
  191.6740  171.8270  143.3320 S   0  0  0  0  0  0  0  0  0  0  0  0
  185.6570  178.8160  145.7290 O   0  0  0  0  0  0  0  0  0  0  0  0
  186.3650  178.7180  148.0170 C   0  0  0  0  0  1  0  0  0  0  0  0
  186.2340  178.1130  144.7150 C   0  0  0  0  0  0  0  0  0  0  0  0
  185.6500  178.0040  146.8850 C   0  0  2  0  0  3  0  0  0  0  0  0
  185.8980  179.7850  143.1250 F   0  0  0  0  0  0  0  0  0  0  0  0
  186.6680  176.8030  145.2210 C   0  0  2  0  0  3  0  0  0  0  0  0
  186.3520  178.5540  143.4680 C   0  0  0  0  0  3  0  0  0  0  0  0
  186.3140  176.7790  146.5940 O   0  0  0  0  0  0  0  0  0  0  0  0
  189.0350  172.3790  142.8290 C   0  0  0  0  0  2  0  0  0  0  0  0
  188.4290  172.6690  141.4670 C   0  0  0  0  0  2  0  0  0  0  0  0
  189.5500  174.1580  137.1010 C   0  0  0  0  0  3  0  0  0  0  0  0
  189.2910  173.3370  139.1840 C   0  0  0  0  0  0  0  0  0  0  0  0
  190.3370  173.4190  138.1330 C   0  0  0  0  0  2  0  0  0  0  0  0
  188.3540  174.4020  137.5280 N   0  0  0  0  0  0  0  0  0  0  0  0
  188.1890  173.8960  138.8180 N   0  0  0  0  0  0  0  0  0  0  0  0
  189.4730  172.7090  140.4540 N   0  0  0  0  0  2  0  0  0  0  0  0
  192.6290  175.2960  146.8150 C   0  0  0  0  0  2  0  0  0  0  0  0
  193.5980  176.3600  146.5980 N   0  0  0  0  0  2  0  0  0  0  0  0
  194.7660  175.7690  146.2520 O   0  0  0  0  0  1  0  0  0  0  0  0
  1 12  1  0  0  0  0
  2 30  1  1  0  0  0
  3  6  2  0  0  0  0
  4  1  1  0  0  0  0
  4  3  1  1  0  0  0
  4  7  1  0  0  0  0
  5 12  2  0  0  0  0
  5  9  1  0  0  0  0
  6 10  1  0  0  0  0
  7  2  1  0  0  0  0
  7  8  1  1  0  0  0
 10  8  2  0  0  0  0
 11 22  1  1  0  0  0
 11 13  1  0  0  0  0
 11  1  1  0  0  0  0
 12  2  1  0  0  0  0
 13  5  1  0  0  0  0
 14 17  1  0  0  0  0
 16 19  1  0  0  0  0
 16 14  1  0  0  0  0
 17 15  1  1  0  0  0
 18 20  1  0  0  0  0
 19  6  1  1  0  0  0
 19 21  1  0  0  0  0
 20 16  2  0  0  0  0
 21 17  1  0  0  0  0
 23 22  1  0  0  0  0
 24 27  2  0  0  0  0
 24 26  1  0  0  0  0
 25 29  1  0  0  0  0
 26 25  1  0  0  0  0
 27 28  1  0  0  0  0
 28 25  2  0  0  0  0
 29 23  1  0  0  0  0
 31 30  1  0  0  0  0
 32 31  1  0  0  0  0
M  END
>  <MODEL>
5

>  <REMARK>
 VINA RESULT:      -7.1      3.107      6.150
  Name = 
  6 active torsions:
  status: ('A' for Active; 'I' for Inactive)
    1  A    between atoms: C_2  and  C_17
    2  A    between atoms: N_7  and  C_17
    3  A    between atoms: C_9  and  C_27
    4  A    between atoms: C_9  and  C_30
    5  A    between atoms: C_15  and  C_19
    6  A    between atoms: N_28  and  C_30
                            x       y       z     vdW  Elec       q    Type
                         _______ _______ _______ _____ _____    ______ ____

>  <TORSDO>
F 6

$$$$
=
 OpenBabel11042419323D

 32 36  0  0  1  0  0  0  0  0999 V2000
  189.5090  173.0610  142.4270 N   0  0  0  0  0  0  0  0  0  0  0  0
  189.1790  173.6650  140.1750 C   0  0  2  0  0  3  0  0  0  0  0  0
  188.5540  175.1290  143.2400 N   0  0  0  0  0  0  0  0  0  0  0  0
  188.3710  173.9700  142.3610 C   0  0  1  0  0  3  0  0  0  0  0  0
  190.4680  171.6270  140.8900 C   0  0  0  0  0  0  0  0  0  0  0  0
  188.1730  176.3330  142.9020 C   0  0  0  0  0  0  0  0  0  0  0  0
  188.3590  174.4020  140.9200 C   0  0  1  0  0  3  0  0  0  0  0  0
  187.7970  175.7050  140.5560 C   0  0  0  0  0  3  0  0  0  0  0  0
  190.6250  171.0050  139.5450 C   0  0  0  0  0  1  0  0  0  0  0  0
  187.6880  176.6200  141.5230 C   0  0  0  0  0  3  0  0  0  0  0  0
  189.6450  171.9110  143.3050 C   0  0  1  0  0  3  0  0  0  0  0  0
  189.8780  172.7880  141.1010 C   0  0  0  0  0  0  0  0  0  0  0  0
  190.6940  170.6970  142.4060 S   0  0  0  0  0  0  0  0  0  0  0  0
  189.8270  177.4520  145.6400 O   0  0  0  0  0  0  0  0  0  0  0  0
  188.5740  175.8330  146.8880 C   0  0  0  0  0  1  0  0  0  0  0  0
  189.7090  177.6460  144.2980 C   0  0  0  0  0  0  0  0  0  0  0  0
  188.5460  177.1650  146.1630 C   0  0  2  0  0  3  0  0  0  0  0  0
  191.9620  178.1630  143.9940 F   0  0  0  0  0  0  0  0  0  0  0  0
  188.3090  177.4400  143.9010 C   0  0  2  0  0  3  0  0  0  0  0  0
  190.7110  177.9910  143.4990 C   0  0  0  0  0  3  0  0  0  0  0  0
  187.6120  177.1090  145.0910 O   0  0  0  0  0  0  0  0  0  0  0  0
  190.3400  172.3130  144.5940 C   0  0  0  0  0  2  0  0  0  0  0  0
  191.5000  173.2460  144.2960 C   0  0  0  0  0  2  0  0  0  0  0  0
  194.1890  176.7680  146.0010 C   0  0  0  0  0  3  0  0  0  0  0  0
  192.7440  175.1330  145.4330 C   0  0  0  0  0  0  0  0  0  0  0  0
  192.9350  176.1370  146.5110 C   0  0  0  0  0  2  0  0  0  0  0  0
  194.5650  176.2080  144.8970 N   0  0  0  0  0  0  0  0  0  0  0  0
  193.6730  175.1950  144.5420 N   0  0  0  0  0  0  0  0  0  0  0  0
  191.6640  174.2000  145.3830 N   0  0  0  0  0  2  0  0  0  0  0  0
  189.5690  173.9370  138.7550 C   0  0  0  0  0  2  0  0  0  0  0  0
  188.5280  173.4810  137.8470 N   0  0  0  0  0  2  0  0  0  0  0  0
  188.1310  174.5570  137.1260 O   0  0  0  0  0  1  0  0  0  0  0  0
  1 11  1  0  0  0  0
  2 30  1  1  0  0  0
  2  7  1  0  0  0  0
  2 12  1  0  0  0  0
  4  1  1  0  0  0  0
  4  3  1  1  0  0  0
  5 12  2  0  0  0  0
  5 13  1  0  0  0  0
  6  3  2  0  0  0  0
  7  8  1  1  0  0  0
  7  4  1  0  0  0  0
  8 10  2  0  0  0  0
  9  5  1  0  0  0  0
 10  6  1  0  0  0  0
 11 22  1  1  0  0  0
 12  1  1  0  0  0  0
 13 11  1  0  0  0  0
 14 17  1  0  0  0  0
 16 14  1  0  0  0  0
 17 15  1  6  0  0  0
 19  6  1  6  0  0  0
 19 16  1  0  0  0  0
 19 21  1  0  0  0  0
 20 18  1  0  0  0  0
 20 16  2  0  0  0  0
 21 17  1  0  0  0  0
 23 22  1  0  0  0  0
 23 29  1  0  0  0  0
 24 26  1  0  0  0  0
 25 26  1  0  0  0  0
 27 24  2  0  0  0  0
 28 27  1  0  0  0  0
 28 25  2  0  0  0  0
 29 25  1  0  0  0  0
 31 30  1  0  0  0  0
 32 31  1  0  0  0  0
M  END
>  <MODEL>
6

>  <REMARK>
 VINA RESULT:      -7.0      3.438      7.256
  Name = 
  6 active torsions:
  status: ('A' for Active; 'I' for Inactive)
    1  A    between atoms: C_2  and  C_17
    2  A    between atoms: N_7  and  C_17
    3  A    between atoms: C_9  and  C_27
    4  A    between atoms: C_9  and  C_30
    5  A    between atoms: C_15  and  C_19
    6  A    between atoms: N_28  and  C_30
                            x       y       z     vdW  Elec       q    Type
                         _______ _______ _______ _____ _____    ______ ____

>  <TORSDO>
F 6

$$$$
=
 OpenBabel11042419323D

 32 36  0  0  1  0  0  0  0  0999 V2000
  187.8390  176.9690  145.2310 N   0  0  0  0  0  0  0  0  0  0  0  0
  186.6230  178.2750  143.6950 C   0  0  2  0  0  3  0  0  0  0  0  0
  189.0460  175.8240  143.4760 N   0  0  0  0  0  0  0  0  0  0  0  0
  188.6440  177.1220  144.0260 C   0  0  1  0  0  3  0  0  0  0  0  0
  186.1460  178.2360  146.1630 C   0  0  0  0  0  0  0  0  0  0  0  0
  189.0910  175.5900  142.1910 C   0  0  0  0  0  0  0  0  0  0  0  0
  187.7130  177.8270  143.0770 C   0  0  1  0  0  3  0  0  0  0  0  0
  187.8780  177.6530  141.6330 C   0  0  0  0  0  3  0  0  0  0  0  0
  185.1720  179.3630  146.2000 C   0  0  0  0  0  1  0  0  0  0  0  0
  188.5650  176.5860  141.2160 C   0  0  0  0  0  3  0  0  0  0  0  0
  188.3270  176.9530  146.6000 C   0  0  1  0  0  3  0  0  0  0  0  0
  186.7070  177.7810  145.0590 C   0  0  0  0  0  0  0  0  0  0  0  0
  186.9730  177.6390  147.6380 S   0  0  0  0  0  0  0  0  0  0  0  0
  189.3330  172.2740  142.8490 O   0  0  0  0  0  0  0  0  0  0  0  0
  190.9700  172.8620  144.4990 C   0  0  0  0  0  1  0  0  0  0  0  0
  188.6880  173.1710  142.0540 C   0  0  0  0  0  0  0  0  0  0  0  0
  190.6660  172.7090  143.0210 C   0  0  2  0  0  3  0  0  0  0  0  0
  186.6900  171.9710  142.0140 F   0  0  0  0  0  0  0  0  0  0  0  0
  189.6080  174.2660  141.7160 C   0  0  2  0  0  3  0  0  0  0  0  0
  187.4330  173.0410  141.6400 C   0  0  0  0  0  3  0  0  0  0  0  0
  190.8310  173.9620  142.3650 O   0  0  0  0  0  0  0  0  0  0  0  0
  188.6190  175.5300  147.0380 C   0  0  0  0  0  2  0  0  0  0  0  0
  190.1030  175.3560  147.3060 C   0  0  0  0  0  2  0  0  0  0  0  0
  194.3590  176.1130  145.3440 C   0  0  0  0  0  3  0  0  0  0  0  0
  192.2510  176.0000  146.1350 C   0  0  0  0  0  0  0  0  0  0  0  0
  193.0660  176.8530  145.2320 C   0  0  0  0  0  2  0  0  0  0  0  0
  194.2380  175.0980  146.1360 N   0  0  0  0  0  0  0  0  0  0  0  0
  192.9330  175.0240  146.6280 N   0  0  0  0  0  0  0  0  0  0  0  0
  190.8730  176.2290  146.4330 N   0  0  0  0  0  2  0  0  0  0  0  0
  185.4020  178.8400  143.0360 C   0  0  0  0  0  2  0  0  0  0  0  0
  184.4210  177.7910  142.8030 N   0  0  0  0  0  2  0  0  0  0  0  0
  184.0000  177.9190  141.5220 O   0  0  0  0  0  1  0  0  0  0  0  0
  1 11  1  0  0  0  0
  2 30  1  6  0  0  0
  2 12  1  0  0  0  0
  4  3  1  6  0  0  0
  4  1  1  0  0  0  0
  5  9  1  0  0  0  0
  5 13  1  0  0  0  0
  6  3  2  0  0  0  0
  7  8  1  6  0  0  0
  7  2  1  0  0  0  0
  7  4  1  0  0  0  0
 10  8  2  0  0  0  0
 10  6  1  0  0  0  0
 11 22  1  1  0  0  0
 11 13  1  0  0  0  0
 12  1  1  0  0  0  0
 12  5  2  0  0  0  0
 14 17  1  0  0  0  0
 16 14  1  0  0  0  0
 17 15  1  1  0  0  0
 19 16  1  0  0  0  0
 19  6  1  1  0  0  0
 19 21  1  0  0  0  0
 20 18  1  0  0  0  0
 20 16  2  0  0  0  0
 21 17  1  0  0  0  0
 22 23  1  0  0  0  0
 24 27  2  0  0  0  0
 25 29  1  0  0  0  0
 25 28  2  0  0  0  0
 26 24  1  0  0  0  0
 26 25  1  0  0  0  0
 27 28  1  0  0  0  0
 29 23  1  0  0  0  0
 31 30  1  0  0  0  0
 32 31  1  0  0  0  0
M  END
>  <MODEL>
7

>  <REMARK>
 VINA RESULT:      -7.0      3.006      5.516
  Name = 
  6 active torsions:
  status: ('A' for Active; 'I' for Inactive)
    1  A    between atoms: C_2  and  C_17
    2  A    between atoms: N_7  and  C_17
    3  A    between atoms: C_9  and  C_27
    4  A    between atoms: C_9  and  C_30
    5  A    between atoms: C_15  and  C_19
    6  A    between atoms: N_28  and  C_30
                            x       y       z     vdW  Elec       q    Type
                         _______ _______ _______ _____ _____    ______ ____

>  <TORSDO>
F 6

$$$$
=
 OpenBabel11042419323D

 32 36  0  0  1  0  0  0  0  0999 V2000
  190.7730  175.3900  145.6230 N   0  0  0  0  0  0  0  0  0  0  0  0
  192.6710  175.4380  144.2300 C   0  0  2  0  0  3  0  0  0  0  0  0
  189.3360  174.6350  143.8310 N   0  0  0  0  0  0  0  0  0  0  0  0
  190.5850  174.4080  144.5640 C   0  0  1  0  0  3  0  0  0  0  0  0
  192.6540  176.3300  146.5810 C   0  0  0  0  0  0  0  0  0  0  0  0
  189.2410  174.4710  142.5380 C   0  0  0  0  0  0  0  0  0  0  0  0
  191.7690  174.6400  143.6650 C   0  0  1  0  0  3  0  0  0  0  0  0
  191.6750  174.3150  142.2400 C   0  0  0  0  0  3  0  0  0  0  0  0
  194.1190  176.5700  146.7170 C   0  0  0  0  0  1  0  0  0  0  0  0
  190.4530  174.2100  141.7120 C   0  0  0  0  0  3  0  0  0  0  0  0
  190.3640  175.2530  147.0110 C   0  0  1  0  0  3  0  0  0  0  0  0
  192.0790  175.8840  145.4810 C   0  0  0  0  0  0  0  0  0  0  0  0
  191.5660  176.2300  148.0020 S   0  0  0  0  0  0  0  0  0  0  0  0
  187.4410  176.1300  140.1930 O   0  0  0  0  0  0  0  0  0  0  0  0
  187.4660  177.9980  141.6960 C   0  0  0  0  0  1  0  0  0  0  0  0
  188.0260  174.9280  140.4530 C   0  0  0  0  0  0  0  0  0  0  0  0
  186.8920  176.6260  141.3960 C   0  0  2  0  0  3  0  0  0  0  0  0
  188.6310  174.5410  138.2350 F   0  0  0  0  0  0  0  0  0  0  0  0
  187.9010  174.6290  141.8870 C   0  0  2  0  0  3  0  0  0  0  0  0
  188.5910  174.1540  139.5340 C   0  0  0  0  0  3  0  0  0  0  0  0
  187.2120  175.7300  142.4550 O   0  0  0  0  0  0  0  0  0  0  0  0
  188.9720  175.8260  147.2080 C   0  0  0  0  0  2  0  0  0  0  0  0
  188.9050  177.2410  146.6630 C   0  0  0  0  0  2  0  0  0  0  0  0
  184.4010  178.5490  145.9240 C   0  0  0  0  0  3  0  0  0  0  0  0
  186.5440  177.8520  145.9880 C   0  0  0  0  0  0  0  0  0  0  0  0
  185.4400  177.9940  145.0050 C   0  0  0  0  0  2  0  0  0  0  0  0
  184.8690  178.6660  147.1240 N   0  0  0  0  0  0  0  0  0  0  0  0
  186.1960  178.2350  147.1680 N   0  0  0  0  0  0  0  0  0  0  0  0
  187.8420  177.3450  145.6740 N   0  0  0  0  0  2  0  0  0  0  0  0
  193.8650  176.0410  143.5570 C   0  0  0  0  0  2  0  0  0  0  0  0
  194.9800  175.1050  143.5690 N   0  0  0  0  0  2  0  0  0  0  0  0
  196.0970  175.8220  143.8410 O   0  0  0  0  0  1  0  0  0  0  0  0
  1 11  1  0  0  0  0
  2 30  1  6  0  0  0
  2 12  1  0  0  0  0
  4  3  1  6  0  0  0
  4  1  1  0  0  0  0
  5  9  1  0  0  0  0
  5 13  1  0  0  0  0
  6  3  2  0  0  0  0
  7  8  1  6  0  0  0
  7  2  1  0  0  0  0
  7  4  1  0  0  0  0
 10  8  2  0  0  0  0
 10  6  1  0  0  0  0
 11 22  1  6  0  0  0
 11 13  1  0  0  0  0
 12  1  1  0  0  0  0
 12  5  2  0  0  0  0
 14 16  1  0  0  0  0
 14 17  1  0  0  0  0
 16 19  1  0  0  0  0
 17 15  1  1  0  0  0
 17 21  1  0  0  0  0
 18 20  1  0  0  0  0
 19 21  1  0  0  0  0
 19  6  1  1  0  0  0
 20 16  2  0  0  0  0
 23 22  1  0  0  0  0
 24 27  2  0  0  0  0
 25 28  2  0  0  0  0
 26 24  1  0  0  0  0
 26 25  1  0  0  0  0
 27 28  1  0  0  0  0
 29 25  1  0  0  0  0
 29 23  1  0  0  0  0
 30 31  1  0  0  0  0
 31 32  1  0  0  0  0
M  END
>  <MODEL>
8

>  <REMARK>
 VINA RESULT:      -6.8      3.249      7.298
  Name = 
  6 active torsions:
  status: ('A' for Active; 'I' for Inactive)
    1  A    between atoms: C_2  and  C_17
    2  A    between atoms: N_7  and  C_17
    3  A    between atoms: C_9  and  C_27
    4  A    between atoms: C_9  and  C_30
    5  A    between atoms: C_15  and  C_19
    6  A    between atoms: N_28  and  C_30
                            x       y       z     vdW  Elec       q    Type
                         _______ _______ _______ _____ _____    ______ ____

>  <TORSDO>
F 6

$$$$
=
 OpenBabel11042419323D

 32 36  0  0  1  0  0  0  0  0999 V2000
  191.5850  175.0240  142.7660 N   0  0  0  0  0  0  0  0  0  0  0  0
  190.5550  173.7570  141.0690 C   0  0  2  0  0  3  0  0  0  0  0  0
  189.5130  176.1170  143.3660 N   0  0  0  0  0  0  0  0  0  0  0  0
  190.1860  174.8370  143.1240 C   0  0  1  0  0  3  0  0  0  0  0  0
  193.0420  173.8240  141.4330 C   0  0  0  0  0  0  0  0  0  0  0  0
  188.2810  176.3440  142.9930 C   0  0  0  0  0  0  0  0  0  0  0  0
  189.6070  174.1630  141.9100 C   0  0  1  0  0  3  0  0  0  0  0  0
  188.1850  174.3250  141.5950 C   0  0  0  0  0  3  0  0  0  0  0  0
  193.4150  172.7340  140.4870 C   0  0  0  0  0  1  0  0  0  0  0  0
  187.5490  175.3640  142.1430 C   0  0  0  0  0  3  0  0  0  0  0  0
  192.7170  175.0270  143.6780 C   0  0  1  0  0  3  0  0  0  0  0  0
  191.8080  174.2540  141.6140 C   0  0  0  0  0  0  0  0  0  0  0  0
  194.1540  174.3960  142.7180 S   0  0  0  0  0  0  0  0  0  0  0  0
  185.3710  178.0570  143.2860 O   0  0  0  0  0  0  0  0  0  0  0  0
  185.3770  178.2020  140.8930 C   0  0  0  0  0  1  0  0  0  0  0  0
  186.3390  177.4420  144.0200 C   0  0  0  0  0  0  0  0  0  0  0  0
  185.9870  178.7010  142.1890 C   0  0  2  0  0  3  0  0  0  0  0  0
  184.8650  176.6840  145.6590 F   0  0  0  0  0  0  0  0  0  0  0  0
  187.6410  177.6450  143.3700 C   0  0  2  0  0  3  0  0  0  0  0  0
  186.1190  176.7900  145.1560 C   0  0  0  0  0  3  0  0  0  0  0  0
  187.3800  178.4130  142.2070 O   0  0  0  0  0  0  0  0  0  0  0  0
  193.0120  176.4410  144.1460 C   0  0  0  0  0  2  0  0  0  0  0  0
  193.0910  176.4870  145.6610 C   0  0  0  0  0  2  0  0  0  0  0  0
  188.6940  175.8220  147.3220 C   0  0  0  0  0  3  0  0  0  0  0  0
  190.8290  175.8530  146.5990 C   0  0  0  0  0  0  0  0  0  0  0  0
  189.8520  174.8910  147.1700 C   0  0  0  0  0  2  0  0  0  0  0  0
  189.0080  177.0100  146.9180 N   0  0  0  0  0  0  0  0  0  0  0  0
  190.3290  177.0330  146.4700 N   0  0  0  0  0  0  0  0  0  0  0  0
  192.1700  175.5200  146.2390 N   0  0  0  0  0  2  0  0  0  0  0  0
  190.3440  173.2360  139.6810 C   0  0  0  0  0  2  0  0  0  0  0  0
  189.9700  171.8310  139.7200 N   0  0  0  0  0  2  0  0  0  0  0  0
  188.9950  171.6530  138.7960 O   0  0  0  0  0  1  0  0  0  0  0  0
  1  4  1  0  0  0  0
  1 11  1  0  0  0  0
  2 30  1  6  0  0  0
  2 12  1  0  0  0  0
  2  7  1  0  0  0  0
  4  3  1  6  0  0  0
  5 12  2  0  0  0  0
  5 13  1  0  0  0  0
  6  3  2  0  0  0  0
  7  8  1  6  0  0  0
  7  4  1  0  0  0  0
  8 10  2  0  0  0  0
  9  5  1  0  0  0  0
 10  6  1  0  0  0  0
 11 22  1  6  0  0  0
 12  1  1  0  0  0  0
 13 11  1  0  0  0  0
 14 16  1  0  0  0  0
 16 20  2  0  0  0  0
 17 15  1  6  0  0  0
 17 21  1  0  0  0  0
 17 14  1  0  0  0  0
 19  6  1  6  0  0  0
 19 16  1  0  0  0  0
 20 18  1  0  0  0  0
 21 19  1  0  0  0  0
 22 23  1  0  0  0  0
 23 29  1  0  0  0  0
 25 26  1  0  0  0  0
 26 24  1  0  0  0  0
 27 24  2  0  0  0  0
 28 25  2  0  0  0  0
 28 27  1  0  0  0  0
 29 25  1  0  0  0  0
 30 31  1  0  0  0  0
 32 31  1  0  0  0  0
M  END
>  <MODEL>
9

>  <REMARK>
 VINA RESULT:      -6.5      3.749      7.878
  Name = 
  6 active torsions:
  status: ('A' for Active; 'I' for Inactive)
    1  A    between atoms: C_2  and  C_17
    2  A    between atoms: N_7  and  C_17
    3  A    between atoms: C_9  and  C_27
    4  A    between atoms: C_9  and  C_30
    5  A    between atoms: C_15  and  C_19
    6  A    between atoms: N_28  and  C_30
                            x       y       z     vdW  Elec       q    Type
                         _______ _______ _______ _____ _____    ______ ____

>  <TORSDO>
F 6

$$$$
