=
 OpenBabel11042416503D

 29 30  0  0  1  0  0  0  0  0999 V2000
  191.5420  177.0370  145.0130 C   0  0  0  0  0  0  0  0  0  0  0  0
  190.7170  175.0980  147.0080 C   0  0  0  0  0  2  0  0  0  0  0  0
  189.1450  177.3720  144.2730 C   0  0  2  0  0  3  0  0  0  0  0  0
  191.9390  177.8080  144.0970 O   0  0  0  0  0  0  0  0  0  0  0  0
  187.6060  177.1490  146.3970 C   0  0  1  0  0  3  0  0  0  0  0  0
  189.7540  176.0610  146.3880 C   0  0  0  0  0  0  0  0  0  0  0  0
  192.5270  176.4390  145.9390 C   0  0  0  0  0  0  0  0  0  0  0  0
  190.1350  176.7730  145.1900 N   0  0  0  0  0  0  0  0  0  0  0  0
  188.5830  176.2130  146.9250 N   0  0  0  0  0  0  0  0  0  0  0  0
  192.1360  175.5760  146.8800 C   0  0  0  0  0  3  0  0  0  0  0  0
  187.4220  176.8530  144.6240 S   0  0  0  0  0  0  0  0  0  0  0  0
  186.2650  176.9500  147.0850 C   0  0  0  0  0  2  0  0  0  0  0  0
  185.1150  177.0650  146.0950 C   0  0  0  0  0  2  0  0  0  0  0  0
  184.2430  178.2720  146.4010 C   0  0  0  0  0  3  0  0  0  0  0  0
  184.6130  179.3360  145.5980 F   0  0  0  0  0  0  0  0  0  0  0  0
  184.3990  178.6250  147.7270 F   0  0  0  0  0  0  0  0  0  0  0  0
  193.9690  176.8060  145.8550 C   0  0  0  0  0  2  0  0  0  0  0  0
  194.9920  175.2990  145.8090 S   0  0  0  0  0  0  0  0  0  0  0  0
  195.6520  175.5640  144.1210 C   0  0  1  0  0  3  0  0  0  0  0  0
  197.2950  174.2340  144.9230 O   0  0  0  0  0  1  0  0  0  0  0  0
  197.0690  175.2300  144.0350 N   0  0  0  0  0  2  0  0  0  0  0  0
  194.8250  174.8380  143.0580 C   0  0  1  0  0  3  0  0  0  0  0  0
  193.9750  173.7620  143.7090 C   0  0  0  0  0  1  0  0  0  0  0  0
  193.9730  175.7610  142.3230 N   0  0  0  0  0  2  0  0  0  0  0  0
  194.7750  176.3170  141.2480 C   0  0  0  0  0  1  0  0  0  0  0  0
  189.4650  177.0070  142.8250 C   0  0  0  0  0  2  0  0  0  0  0  0
  189.0530  175.5770  142.5140 C   0  0  0  0  0  2  0  0  0  0  0  0
  190.1980  173.6270  143.5200 C   0  0  0  0  0  1  0  0  0  0  0  0
  190.2750  174.6820  142.4360 C   0  0  0  0  0  2  0  0  0  0  0  0
  1  8  1  0  0  0  0
  1  7  1  0  0  0  0
  3 26  1  6  0  0  0
  3 11  1  0  0  0  0
  3  8  1  0  0  0  0
  4  1  2  0  0  0  0
  5  9  1  0  0  0  0
  5 12  1  1  0  0  0
  6  9  2  0  0  0  0
  6  2  1  0  0  0  0
  7 10  2  0  0  0  0
  8  6  1  0  0  0  0
 10  2  1  0  0  0  0
 11  5  1  0  0  0  0
 13 14  1  0  0  0  0
 13 12  1  0  0  0  0
 14 16  1  0  0  0  0
 15 14  1  0  0  0  0
 17  7  1  0  0  0  0
 18 17  1  0  0  0  0
 19 21  1  1  0  0  0
 19 18  1  0  0  0  0
 21 20  1  0  0  0  0
 22 23  1  1  0  0  0
 22 19  1  0  0  0  0
 24 22  1  0  0  0  0
 25 24  1  0  0  0  0
 27 26  1  0  0  0  0
 29 27  1  0  0  0  0
 29 28  1  0  0  0  0
M  END
>  <MODEL>
1

>  <REMARK>
 VINA RESULT:      -5.9      0.000      0.000
  Name = 
  12 active torsions:
  status: ('A' for Active; 'I' for Inactive)
    1  A    between atoms: C_4  and  C_13
    2  A    between atoms: C_5  and  C_24
    3  A    between atoms: N_7  and  C_21
    4  A    between atoms: C_8  and  C_11
    5  A    between atoms: C_11  and  C_13
    6  A    between atoms: C_14  and  C_21
    7  A    between atoms: C_14  and  S_26
    8  A    between atoms: C_14  and  N_29
    9  A    between atoms: C_15  and  C_19
   10  A    between atoms: C_16  and  C_25
   11  A    between atoms: C_19  and  S_26
   12  A    between atoms: C_24  and  C_25
                            x       y       z     vdW  Elec       q    Type
                         _______ _______ _______ _____ _____    ______ ____

>  <TORSDO>
F 12

$$$$
=
 OpenBabel11042416503D

 29 30  0  0  1  0  0  0  0  0999 V2000
  191.3610  177.1180  144.8010 C   0  0  0  0  0  0  0  0  0  0  0  0
  190.6900  175.0390  146.7100 C   0  0  0  0  0  2  0  0  0  0  0  0
  188.9140  177.4920  144.2690 C   0  0  2  0  0  3  0  0  0  0  0  0
  191.6870  177.9540  143.9140 O   0  0  0  0  0  0  0  0  0  0  0  0
  187.5410  177.1110  146.4830 C   0  0  1  0  0  3  0  0  0  0  0  0
  189.6820  176.0390  146.2350 C   0  0  0  0  0  0  0  0  0  0  0  0
  192.4140  176.4620  145.6050 C   0  0  0  0  0  0  0  0  0  0  0  0
  189.9720  176.8340  145.0640 N   0  0  0  0  0  0  0  0  0  0  0  0
  188.5560  176.1450  146.8670 N   0  0  0  0  0  0  0  0  0  0  0  0
  192.0950  175.5320  146.5090 C   0  0  0  0  0  3  0  0  0  0  0  0
  187.2230  176.9400  144.7120 S   0  0  0  0  0  0  0  0  0  0  0  0
  186.2570  176.8570  147.2550 C   0  0  0  0  0  2  0  0  0  0  0  0
  185.0320  177.1330  146.3940 C   0  0  0  0  0  2  0  0  0  0  0  0
  184.4020  178.4710  146.7440 C   0  0  0  0  0  3  0  0  0  0  0  0
  183.4520  178.8070  145.7980 F   0  0  0  0  0  0  0  0  0  0  0  0
  185.3820  179.4440  146.7740 F   0  0  0  0  0  0  0  0  0  0  0  0
  193.8450  176.8420  145.4380 C   0  0  0  0  0  2  0  0  0  0  0  0
  194.9190  175.4690  145.9700 S   0  0  0  0  0  0  0  0  0  0  0  0
  195.6240  175.1220  144.3150 C   0  0  1  0  0  3  0  0  0  0  0  0
  196.7930  176.9000  143.5490 O   0  0  0  0  0  1  0  0  0  0  0  0
  195.5850  176.2970  143.4530 N   0  0  0  0  0  2  0  0  0  0  0  0
  197.0270  174.5190  144.4020 C   0  0  1  0  0  3  0  0  0  0  0  0
  197.2160  173.8380  145.7450 C   0  0  0  0  0  1  0  0  0  0  0  0
  197.2660  173.5650  143.3290 N   0  0  0  0  0  2  0  0  0  0  0  0
  197.4080  172.2580  143.9430 C   0  0  0  0  0  1  0  0  0  0  0  0
  189.1240  177.2310  142.7790 C   0  0  0  0  0  2  0  0  0  0  0  0
  188.2820  178.1730  141.9320 C   0  0  0  0  0  2  0  0  0  0  0  0
  187.8270  175.9240  141.0050 C   0  0  0  0  0  1  0  0  0  0  0  0
  187.4290  177.3840  140.9560 C   0  0  0  0  0  2  0  0  0  0  0  0
  1  8  1  0  0  0  0
  1  7  1  0  0  0  0
  3 26  1  6  0  0  0
  3 11  1  0  0  0  0
  3  8  1  0  0  0  0
  4  1  2  0  0  0  0
  5  9  1  0  0  0  0
  5 12  1  1  0  0  0
  6  2  1  0  0  0  0
  6  9  2  0  0  0  0
  7 10  2  0  0  0  0
  8  6  1  0  0  0  0
 10  2  1  0  0  0  0
 11  5  1  0  0  0  0
 13 14  1  0  0  0  0
 13 12  1  0  0  0  0
 14 16  1  0  0  0  0
 15 14  1  0  0  0  0
 17  7  1  0  0  0  0
 17 18  1  0  0  0  0
 19 21  1  6  0  0  0
 19 22  1  0  0  0  0
 19 18  1  0  0  0  0
 21 20  1  0  0  0  0
 22 23  1  1  0  0  0
 24 25  1  0  0  0  0
 24 22  1  0  0  0  0
 27 26  1  0  0  0  0
 29 28  1  0  0  0  0
 29 27  1  0  0  0  0
M  END
>  <MODEL>
2

>  <REMARK>
 VINA RESULT:      -5.8      1.493      2.119
  Name = 
  12 active torsions:
  status: ('A' for Active; 'I' for Inactive)
    1  A    between atoms: C_4  and  C_13
    2  A    between atoms: C_5  and  C_24
    3  A    between atoms: N_7  and  C_21
    4  A    between atoms: C_8  and  C_11
    5  A    between atoms: C_11  and  C_13
    6  A    between atoms: C_14  and  C_21
    7  A    between atoms: C_14  and  S_26
    8  A    between atoms: C_14  and  N_29
    9  A    between atoms: C_15  and  C_19
   10  A    between atoms: C_16  and  C_25
   11  A    between atoms: C_19  and  S_26
   12  A    between atoms: C_24  and  C_25
                            x       y       z     vdW  Elec       q    Type
                         _______ _______ _______ _____ _____    ______ ____

>  <TORSDO>
F 12

$$$$
=
 OpenBabel11042416503D

 29 30  0  0  1  0  0  0  0  0999 V2000
  190.7790  175.5200  144.6000 C   0  0  0  0  0  0  0  0  0  0  0  0
  188.9180  175.3410  146.8190 C   0  0  0  0  0  2  0  0  0  0  0  0
  188.9660  176.4320  143.0860 C   0  0  2  0  0  3  0  0  0  0  0  0
  191.5860  175.5040  143.6310 O   0  0  0  0  0  0  0  0  0  0  0  0
  187.3740  177.9340  144.5490 C   0  0  1  0  0  3  0  0  0  0  0  0
  188.6430  176.1880  145.6160 C   0  0  0  0  0  0  0  0  0  0  0  0
  191.2370  175.0920  145.9380 C   0  0  0  0  0  0  0  0  0  0  0  0
  189.4290  175.9960  144.4190 N   0  0  0  0  0  0  0  0  0  0  0  0
  187.6820  177.0570  145.6660 N   0  0  0  0  0  0  0  0  0  0  0  0
  190.3840  175.0470  146.9650 C   0  0  0  0  0  3  0  0  0  0  0  0
  187.2010  176.9300  143.0570 S   0  0  0  0  0  0  0  0  0  0  0  0
  186.0750  178.6780  144.8120 C   0  0  0  0  0  2  0  0  0  0  0  0
  185.8140  178.8220  146.3040 C   0  0  0  0  0  2  0  0  0  0  0  0
  184.4440  178.2810  146.6800 C   0  0  0  0  0  3  0  0  0  0  0  0
  184.4230  176.9060  146.5320 F   0  0  0  0  0  0  0  0  0  0  0  0
  183.4890  178.8440  145.8570 F   0  0  0  0  0  0  0  0  0  0  0  0
  192.6620  174.7250  146.1710 C   0  0  0  0  0  2  0  0  0  0  0  0
  193.6650  176.2300  146.3910 S   0  0  0  0  0  0  0  0  0  0  0  0
  195.1300  175.6240  145.4730 C   0  0  1  0  0  3  0  0  0  0  0  0
  196.5720  174.0310  146.1770 O   0  0  0  0  0  1  0  0  0  0  0  0
  195.3310  174.1920  145.6610 N   0  0  0  0  0  2  0  0  0  0  0  0
  195.0820  176.0100  143.9940 C   0  0  1  0  0  3  0  0  0  0  0  0
  196.3740  176.7000  143.5960 C   0  0  0  0  0  1  0  0  0  0  0  0
  194.8630  174.8480  143.1460 N   0  0  0  0  0  2  0  0  0  0  0  0
  194.8080  175.3240  141.7750 C   0  0  0  0  0  1  0  0  0  0  0  0
  189.1620  175.3190  142.0600 C   0  0  0  0  0  2  0  0  0  0  0  0
  188.3880  174.0690  142.4490 C   0  0  0  0  0  2  0  0  0  0  0  0
  189.3690  172.2230  143.7720 C   0  0  0  0  0  1  0  0  0  0  0  0
  189.2930  172.8520  142.3970 C   0  0  0  0  0  2  0  0  0  0  0  0
  1  7  1  0  0  0  0
  2 10  1  0  0  0  0
  3 26  1  6  0  0  0
  3  8  1  0  0  0  0
  4  1  2  0  0  0  0
  5 12  1  1  0  0  0
  5  9  1  0  0  0  0
  6  9  2  0  0  0  0
  6  2  1  0  0  0  0
  7 17  1  0  0  0  0
  7 10  2  0  0  0  0
  8  1  1  0  0  0  0
  8  6  1  0  0  0  0
 11  3  1  0  0  0  0
 11  5  1  0  0  0  0
 12 13  1  0  0  0  0
 13 14  1  0  0  0  0
 15 14  1  0  0  0  0
 16 14  1  0  0  0  0
 17 18  1  0  0  0  0
 19 21  1  6  0  0  0
 19 18  1  0  0  0  0
 21 20  1  0  0  0  0
 22 23  1  6  0  0  0
 22 19  1  0  0  0  0
 24 22  1  0  0  0  0
 25 24  1  0  0  0  0
 26 27  1  0  0  0  0
 29 27  1  0  0  0  0
 29 28  1  0  0  0  0
M  END
>  <MODEL>
3

>  <REMARK>
 VINA RESULT:      -5.8      1.567      1.958
  Name = 
  12 active torsions:
  status: ('A' for Active; 'I' for Inactive)
    1  A    between atoms: C_4  and  C_13
    2  A    between atoms: C_5  and  C_24
    3  A    between atoms: N_7  and  C_21
    4  A    between atoms: C_8  and  C_11
    5  A    between atoms: C_11  and  C_13
    6  A    between atoms: C_14  and  C_21
    7  A    between atoms: C_14  and  S_26
    8  A    between atoms: C_14  and  N_29
    9  A    between atoms: C_15  and  C_19
   10  A    between atoms: C_16  and  C_25
   11  A    between atoms: C_19  and  S_26
   12  A    between atoms: C_24  and  C_25
                            x       y       z     vdW  Elec       q    Type
                         _______ _______ _______ _____ _____    ______ ____

>  <TORSDO>
F 12

$$$$
=
 OpenBabel11042416503D

 29 30  0  0  1  0  0  0  0  0999 V2000
  190.9620  176.4700  143.6740 C   0  0  0  0  0  0  0  0  0  0  0  0
  189.6360  176.7130  146.2430 C   0  0  0  0  0  2  0  0  0  0  0  0
  188.7360  176.4580  142.4680 C   0  0  2  0  0  3  0  0  0  0  0  0
  191.5610  176.2750  142.5810 O   0  0  0  0  0  0  0  0  0  0  0  0
  187.0980  178.0440  143.7830 C   0  0  1  0  0  3  0  0  0  0  0  0
  188.9430  177.0340  144.9560 C   0  0  0  0  0  0  0  0  0  0  0  0
  191.7460  176.6160  144.9180 C   0  0  0  0  0  0  0  0  0  0  0  0
  189.5250  176.5960  143.7090 N   0  0  0  0  0  0  0  0  0  0  0  0
  187.8150  177.6720  144.9910 N   0  0  0  0  0  0  0  0  0  0  0  0
  191.1300  176.7660  146.0940 C   0  0  0  0  0  3  0  0  0  0  0  0
  186.9270  176.5780  142.7400 S   0  0  0  0  0  0  0  0  0  0  0  0
  185.7190  178.5770  144.1360 C   0  0  0  0  0  2  0  0  0  0  0  0
  185.5980  178.8440  145.6300 C   0  0  0  0  0  2  0  0  0  0  0  0
  184.4550  178.0500  146.2410 C   0  0  0  0  0  3  0  0  0  0  0  0
  184.1940  178.5060  147.5200 F   0  0  0  0  0  0  0  0  0  0  0  0
  184.8030  176.7140  146.2940 F   0  0  0  0  0  0  0  0  0  0  0  0
  193.2360  176.6220  144.8820 C   0  0  0  0  0  2  0  0  0  0  0  0
  193.8980  175.8500  146.3930 S   0  0  0  0  0  0  0  0  0  0  0  0
  194.7090  174.4390  145.5510 C   0  0  1  0  0  3  0  0  0  0  0  0
  193.3430  173.2350  144.2100 O   0  0  0  0  0  1  0  0  0  0  0  0
  194.2170  174.2680  144.1890 N   0  0  0  0  0  2  0  0  0  0  0  0
  196.2350  174.5360  145.6040 C   0  0  1  0  0  3  0  0  0  0  0  0
  196.8240  173.2080  146.0440 C   0  0  0  0  0  1  0  0  0  0  0  0
  196.7910  174.9190  144.3150 N   0  0  0  0  0  2  0  0  0  0  0  0
  197.9360  174.0600  144.0720 C   0  0  0  0  0  1  0  0  0  0  0  0
  189.0270  175.1190  141.7930 C   0  0  0  0  0  2  0  0  0  0  0  0
  188.5450  173.9560  142.6470 C   0  0  0  0  0  2  0  0  0  0  0  0
  189.7970  173.0550  144.5820 C   0  0  0  0  0  1  0  0  0  0  0  0
  189.7170  173.0920  143.0710 C   0  0  0  0  0  2  0  0  0  0  0  0
  1  8  1  0  0  0  0
  1  7  1  0  0  0  0
  3 26  1  1  0  0  0
  3 11  1  0  0  0  0
  3  8  1  0  0  0  0
  4  1  2  0  0  0  0
  5 12  1  1  0  0  0
  5  9  1  0  0  0  0
  6  9  2  0  0  0  0
  6  2  1  0  0  0  0
  7 10  2  0  0  0  0
  8  6  1  0  0  0  0
 10  2  1  0  0  0  0
 11  5  1  0  0  0  0
 12 13  1  0  0  0  0
 13 14  1  0  0  0  0
 14 16  1  0  0  0  0
 14 15  1  0  0  0  0
 17  7  1  0  0  0  0
 17 18  1  0  0  0  0
 19 21  1  6  0  0  0
 19 22  1  0  0  0  0
 19 18  1  0  0  0  0
 21 20  1  0  0  0  0
 22 23  1  6  0  0  0
 24 22  1  0  0  0  0
 25 24  1  0  0  0  0
 26 27  1  0  0  0  0
 27 29  1  0  0  0  0
 29 28  1  0  0  0  0
M  END
>  <MODEL>
4

>  <REMARK>
 VINA RESULT:      -5.6      1.893      2.459
  Name = 
  12 active torsions:
  status: ('A' for Active; 'I' for Inactive)
    1  A    between atoms: C_4  and  C_13
    2  A    between atoms: C_5  and  C_24
    3  A    between atoms: N_7  and  C_21
    4  A    between atoms: C_8  and  C_11
    5  A    between atoms: C_11  and  C_13
    6  A    between atoms: C_14  and  C_21
    7  A    between atoms: C_14  and  S_26
    8  A    between atoms: C_14  and  N_29
    9  A    between atoms: C_15  and  C_19
   10  A    between atoms: C_16  and  C_25
   11  A    between atoms: C_19  and  S_26
   12  A    between atoms: C_24  and  C_25
                            x       y       z     vdW  Elec       q    Type
                         _______ _______ _______ _____ _____    ______ ____

>  <TORSDO>
F 12

$$$$
=
 OpenBabel11042416503D

 29 30  0  0  1  0  0  0  0  0999 V2000
  191.0720  175.1730  143.7540 C   0  0  0  0  0  0  0  0  0  0  0  0
  191.1570  178.0710  143.8760 C   0  0  0  0  0  2  0  0  0  0  0  0
  188.9730  175.1230  145.1670 C   0  0  2  0  0  3  0  0  0  0  0  0
  191.1120  173.9130  143.7580 O   0  0  0  0  0  0  0  0  0  0  0  0
  187.5350  177.2400  144.5510 C   0  0  1  0  0  3  0  0  0  0  0  0
  189.9150  177.2970  144.1910 C   0  0  0  0  0  0  0  0  0  0  0  0
  192.1010  175.9320  143.0110 C   0  0  0  0  0  0  0  0  0  0  0  0
  190.0080  175.8750  144.4290 N   0  0  0  0  0  0  0  0  0  0  0  0
  188.7850  177.9270  144.2760 N   0  0  0  0  0  0  0  0  0  0  0  0
  192.1120  177.2670  143.0410 C   0  0  0  0  0  3  0  0  0  0  0  0
  187.7560  176.2020  146.0130 S   0  0  0  0  0  0  0  0  0  0  0  0
  186.4290  178.2510  144.8090 C   0  0  0  0  0  2  0  0  0  0  0  0
  185.0970  177.5570  145.0610 C   0  0  0  0  0  2  0  0  0  0  0  0
  184.3660  178.1800  146.2390 C   0  0  0  0  0  3  0  0  0  0  0  0
  183.8460  179.4100  145.8750 F   0  0  0  0  0  0  0  0  0  0  0  0
  185.2480  178.3490  147.2880 F   0  0  0  0  0  0  0  0  0  0  0  0
  193.1290  175.2220  142.1990 C   0  0  0  0  0  2  0  0  0  0  0  0
  194.7630  175.9860  142.4590 S   0  0  0  0  0  0  0  0  0  0  0  0
  195.3240  174.8100  143.7470 C   0  0  1  0  0  3  0  0  0  0  0  0
  197.1430  176.1150  143.4290 O   0  0  0  0  0  1  0  0  0  0  0  0
  196.7310  175.0020  144.0780 N   0  0  0  0  0  2  0  0  0  0  0  0
  194.4310  174.8450  144.9880 C   0  0  1  0  0  3  0  0  0  0  0  0
  194.1180  173.4310  145.4420 C   0  0  0  0  0  1  0  0  0  0  0  0
  195.0560  175.5850  146.0750 N   0  0  0  0  0  2  0  0  0  0  0  0
  194.4290  176.8940  146.1150 C   0  0  0  0  0  1  0  0  0  0  0  0
  189.6130  174.2170  146.2160 C   0  0  0  0  0  2  0  0  0  0  0  0
  189.7480  174.9310  147.5520 C   0  0  0  0  0  2  0  0  0  0  0  0
  191.2240  176.8750  147.9620 C   0  0  0  0  0  1  0  0  0  0  0  0
  191.1830  175.3740  147.7710 C   0  0  0  0  0  2  0  0  0  0  0  0
  1  4  2  0  0  0  0
  1  8  1  0  0  0  0
  2  6  1  0  0  0  0
  3 11  1  0  0  0  0
  3 26  1  1  0  0  0
  5 12  1  1  0  0  0
  5 11  1  0  0  0  0
  6  9  2  0  0  0  0
  6  8  1  0  0  0  0
  7 10  2  0  0  0  0
  7  1  1  0  0  0  0
  8  3  1  0  0  0  0
  9  5  1  0  0  0  0
 10  2  1  0  0  0  0
 12 13  1  0  0  0  0
 13 14  1  0  0  0  0
 14 16  1  0  0  0  0
 15 14  1  0  0  0  0
 17 18  1  0  0  0  0
 17  7  1  0  0  0  0
 19 18  1  6  0  0  0
 19 21  1  0  0  0  0
 19 22  1  0  0  0  0
 20 21  1  0  0  0  0
 22 23  1  1  0  0  0
 22 24  1  0  0  0  0
 24 25  1  0  0  0  0
 26 27  1  0  0  0  0
 27 29  1  0  0  0  0
 29 28  1  0  0  0  0
M  END
>  <MODEL>
5

>  <REMARK>
 VINA RESULT:      -5.6      1.903      3.186
  Name = 
  12 active torsions:
  status: ('A' for Active; 'I' for Inactive)
    1  A    between atoms: C_4  and  C_13
    2  A    between atoms: C_5  and  C_24
    3  A    between atoms: N_7  and  C_21
    4  A    between atoms: C_8  and  C_11
    5  A    between atoms: C_11  and  C_13
    6  A    between atoms: C_14  and  C_21
    7  A    between atoms: C_14  and  S_26
    8  A    between atoms: C_14  and  N_29
    9  A    between atoms: C_15  and  C_19
   10  A    between atoms: C_16  and  C_25
   11  A    between atoms: C_19  and  S_26
   12  A    between atoms: C_24  and  C_25
                            x       y       z     vdW  Elec       q    Type
                         _______ _______ _______ _____ _____    ______ ____

>  <TORSDO>
F 12

$$$$
=
 OpenBabel11042416503D

 29 30  0  0  1  0  0  0  0  0999 V2000
  190.4390  174.7330  144.3370 C   0  0  0  0  0  0  0  0  0  0  0  0
  190.7070  177.4500  143.3540 C   0  0  0  0  0  2  0  0  0  0  0  0
  188.7350  175.4680  146.0590 C   0  0  2  0  0  3  0  0  0  0  0  0
  190.4100  173.5600  144.8000 O   0  0  0  0  0  0  0  0  0  0  0  0
  187.3090  177.4120  145.0030 C   0  0  1  0  0  3  0  0  0  0  0  0
  189.5350  177.0130  144.1780 C   0  0  0  0  0  0  0  0  0  0  0  0
  191.3020  175.0360  143.1750 C   0  0  0  0  0  0  0  0  0  0  0  0
  189.6050  175.7650  144.9020 N   0  0  0  0  0  0  0  0  0  0  0  0
  188.4940  177.7820  144.2480 N   0  0  0  0  0  0  0  0  0  0  0  0
  191.3920  176.2820  142.7040 C   0  0  0  0  0  3  0  0  0  0  0  0
  187.8140  176.9300  146.6700 S   0  0  0  0  0  0  0  0  0  0  0  0
  186.3530  178.5910  145.0850 C   0  0  0  0  0  2  0  0  0  0  0  0
  185.8120  178.7650  146.4970 C   0  0  0  0  0  2  0  0  0  0  0  0
  184.3610  178.3230  146.5910 C   0  0  0  0  0  3  0  0  0  0  0  0
  184.2830  176.9430  146.5310 F   0  0  0  0  0  0  0  0  0  0  0  0
  183.6480  178.8670  145.5400 F   0  0  0  0  0  0  0  0  0  0  0  0
  192.0680  173.9530  142.4950 C   0  0  0  0  0  2  0  0  0  0  0  0
  191.6630  173.9250  140.7190 S   0  0  0  0  0  0  0  0  0  0  0  0
  189.9530  173.2980  140.9190 C   0  0  1  0  0  3  0  0  0  0  0  0
  188.1550  174.4460  141.6670 O   0  0  0  0  0  1  0  0  0  0  0  0
  188.9620  174.3150  140.5890 N   0  0  0  0  0  2  0  0  0  0  0  0
  189.7230  171.9970  140.1480 C   0  0  1  0  0  3  0  0  0  0  0  0
  188.9320  172.2780  138.8830 C   0  0  0  0  0  1  0  0  0  0  0  0
  190.9810  171.3480  139.8080 N   0  0  0  0  0  2  0  0  0  0  0  0
  190.7990  169.9250  140.0300 C   0  0  0  0  0  1  0  0  0  0  0  0
  189.5570  174.9060  147.2170 C   0  0  0  0  0  2  0  0  0  0  0  0
  190.6080  175.9030  147.6810 C   0  0  0  0  0  2  0  0  0  0  0  0
  192.8370  176.2700  146.6710 C   0  0  0  0  0  1  0  0  0  0  0  0
  191.9980  175.3230  147.5040 C   0  0  0  0  0  2  0  0  0  0  0  0
  1  4  2  0  0  0  0
  1  8  1  0  0  0  0
  2  6  1  0  0  0  0
  3 11  1  0  0  0  0
  3 26  1  1  0  0  0
  5 12  1  1  0  0  0
  5 11  1  0  0  0  0
  6  9  2  0  0  0  0
  6  8  1  0  0  0  0
  7  1  1  0  0  0  0
  8  3  1  0  0  0  0
  9  5  1  0  0  0  0
 10  7  2  0  0  0  0
 10  2  1  0  0  0  0
 12 13  1  0  0  0  0
 13 14  1  0  0  0  0
 15 14  1  0  0  0  0
 16 14  1  0  0  0  0
 17  7  1  0  0  0  0
 18 19  1  0  0  0  0
 18 17  1  0  0  0  0
 19 21  1  6  0  0  0
 21 20  1  0  0  0  0
 22 23  1  6  0  0  0
 22 19  1  0  0  0  0
 24 25  1  0  0  0  0
 24 22  1  0  0  0  0
 26 27  1  0  0  0  0
 28 29  1  0  0  0  0
 29 27  1  0  0  0  0
M  END
>  <MODEL>
6

>  <REMARK>
 VINA RESULT:      -5.5      3.095      4.926
  Name = 
  12 active torsions:
  status: ('A' for Active; 'I' for Inactive)
    1  A    between atoms: C_4  and  C_13
    2  A    between atoms: C_5  and  C_24
    3  A    between atoms: N_7  and  C_21
    4  A    between atoms: C_8  and  C_11
    5  A    between atoms: C_11  and  C_13
    6  A    between atoms: C_14  and  C_21
    7  A    between atoms: C_14  and  S_26
    8  A    between atoms: C_14  and  N_29
    9  A    between atoms: C_15  and  C_19
   10  A    between atoms: C_16  and  C_25
   11  A    between atoms: C_19  and  S_26
   12  A    between atoms: C_24  and  C_25
                            x       y       z     vdW  Elec       q    Type
                         _______ _______ _______ _____ _____    ______ ____

>  <TORSDO>
F 12

$$$$
=
 OpenBabel11042416503D

 29 30  0  0  1  0  0  0  0  0999 V2000
  190.7630  175.8960  143.7990 C   0  0  0  0  0  0  0  0  0  0  0  0
  189.6070  174.2400  145.8810 C   0  0  0  0  0  2  0  0  0  0  0  0
  188.7270  177.4000  143.7920 C   0  0  2  0  0  3  0  0  0  0  0  0
  191.2520  176.5440  142.8330 O   0  0  0  0  0  0  0  0  0  0  0  0
  187.8260  177.5480  146.2610 C   0  0  1  0  0  3  0  0  0  0  0  0
  189.1110  175.6230  145.5980 C   0  0  0  0  0  0  0  0  0  0  0  0
  191.5260  174.7710  144.3810 C   0  0  0  0  0  0  0  0  0  0  0  0
  189.4910  176.2730  144.3650 N   0  0  0  0  0  0  0  0  0  0  0  0
  188.3240  176.1970  146.4530 N   0  0  0  0  0  0  0  0  0  0  0  0
  191.0030  174.0360  145.3660 C   0  0  0  0  0  3  0  0  0  0  0  0
  187.1070  177.6680  144.6070 S   0  0  0  0  0  0  0  0  0  0  0  0
  186.7630  177.8670  147.3000 C   0  0  0  0  0  2  0  0  0  0  0  0
  185.7560  178.8760  146.7660 C   0  0  0  0  0  2  0  0  0  0  0  0
  184.3530  178.2920  146.7360 C   0  0  0  0  0  3  0  0  0  0  0  0
  184.4170  176.9180  146.5870 F   0  0  0  0  0  0  0  0  0  0  0  0
  183.6540  178.8350  145.6760 F   0  0  0  0  0  0  0  0  0  0  0  0
  192.8990  174.4530  143.8970 C   0  0  0  0  0  2  0  0  0  0  0  0
  194.1140  174.7760  145.2150 S   0  0  0  0  0  0  0  0  0  0  0  0
  194.5850  176.4500  144.6390 C   0  0  1  0  0  3  0  0  0  0  0  0
  194.1700  176.8060  146.8330 O   0  0  0  0  0  1  0  0  0  0  0  0
  194.7460  177.3790  145.7510 N   0  0  0  0  0  2  0  0  0  0  0  0
  195.8150  176.4220  143.7300 C   0  0  1  0  0  3  0  0  0  0  0  0
  196.6680  175.2080  144.0490 C   0  0  0  0  0  1  0  0  0  0  0  0
  195.4390  176.4030  142.3240 N   0  0  0  0  0  2  0  0  0  0  0  0
  196.6500  176.6300  141.5560 C   0  0  0  0  0  1  0  0  0  0  0  0
  188.4770  177.1760  142.3020 C   0  0  0  0  0  2  0  0  0  0  0  0
  186.9930  177.0130  142.0110 C   0  0  0  0  0  2  0  0  0  0  0  0
  185.1140  178.2190  140.9460 C   0  0  0  0  0  1  0  0  0  0  0  0
  186.5870  177.8850  140.8390 C   0  0  0  0  0  2  0  0  0  0  0  0
  1  8  1  0  0  0  0
  1  7  1  0  0  0  0
  3 26  1  6  0  0  0
  3  8  1  0  0  0  0
  3 11  1  0  0  0  0
  4  1  2  0  0  0  0
  5  9  1  0  0  0  0
  5 12  1  1  0  0  0
  6  2  1  0  0  0  0
  6  9  2  0  0  0  0
  7 10  2  0  0  0  0
  8  6  1  0  0  0  0
 10  2  1  0  0  0  0
 11  5  1  0  0  0  0
 13 12  1  0  0  0  0
 14 13  1  0  0  0  0
 15 14  1  0  0  0  0
 16 14  1  0  0  0  0
 17  7  1  0  0  0  0
 17 18  1  0  0  0  0
 19 18  1  1  0  0  0
 19 21  1  0  0  0  0
 21 20  1  0  0  0  0
 22 23  1  1  0  0  0
 22 19  1  0  0  0  0
 24 22  1  0  0  0  0
 25 24  1  0  0  0  0
 27 26  1  0  0  0  0
 29 28  1  0  0  0  0
 29 27  1  0  0  0  0
M  END
>  <MODEL>
7

>  <REMARK>
 VINA RESULT:      -5.5      2.003      2.615
  Name = 
  12 active torsions:
  status: ('A' for Active; 'I' for Inactive)
    1  A    between atoms: C_4  and  C_13
    2  A    between atoms: C_5  and  C_24
    3  A    between atoms: N_7  and  C_21
    4  A    between atoms: C_8  and  C_11
    5  A    between atoms: C_11  and  C_13
    6  A    between atoms: C_14  and  C_21
    7  A    between atoms: C_14  and  S_26
    8  A    between atoms: C_14  and  N_29
    9  A    between atoms: C_15  and  C_19
   10  A    between atoms: C_16  and  C_25
   11  A    between atoms: C_19  and  S_26
   12  A    between atoms: C_24  and  C_25
                            x       y       z     vdW  Elec       q    Type
                         _______ _______ _______ _____ _____    ______ ____

>  <TORSDO>
F 12

$$$$
=
 OpenBabel11042416503D

 29 30  0  0  1  0  0  0  0  0999 V2000
  189.6920  174.8860  144.2710 C   0  0  0  0  0  0  0  0  0  0  0  0
  189.7920  177.6460  143.3810 C   0  0  0  0  0  2  0  0  0  0  0  0
  188.3870  175.5460  146.3370 C   0  0  2  0  0  3  0  0  0  0  0  0
  189.7420  173.6930  144.6760 O   0  0  0  0  0  0  0  0  0  0  0  0
  186.8030  177.5450  145.6870 C   0  0  1  0  0  3  0  0  0  0  0  0
  188.8080  177.1750  144.4060 C   0  0  0  0  0  0  0  0  0  0  0  0
  190.3030  175.2400  142.9720 C   0  0  0  0  0  0  0  0  0  0  0  0
  189.0060  175.8940  145.0420 N   0  0  0  0  0  0  0  0  0  0  0  0
  187.8140  177.9450  144.7230 N   0  0  0  0  0  0  0  0  0  0  0  0
  190.3130  176.5070  142.5500 C   0  0  0  0  0  3  0  0  0  0  0  0
  187.6320  176.9810  147.1910 S   0  0  0  0  0  0  0  0  0  0  0  0
  185.9010  178.7230  146.0170 C   0  0  0  0  0  2  0  0  0  0  0  0
  184.4680  178.4590  145.5760 C   0  0  0  0  0  2  0  0  0  0  0  0
  184.2130  178.9980  144.1780 C   0  0  0  0  0  3  0  0  0  0  0  0
  184.2720  177.9670  143.2570 F   0  0  0  0  0  0  0  0  0  0  0  0
  185.1730  179.9420  143.8690 F   0  0  0  0  0  0  0  0  0  0  0  0
  190.8980  174.1880  142.1000 C   0  0  0  0  0  2  0  0  0  0  0  0
  192.6020  174.6470  141.6460 S   0  0  0  0  0  0  0  0  0  0  0  0
  193.3290  174.3580  143.3030 C   0  0  1  0  0  3  0  0  0  0  0  0
  193.3220  173.0220  145.1270 O   0  0  0  0  0  1  0  0  0  0  0  0
  193.0060  173.0300  143.8110 N   0  0  0  0  0  2  0  0  0  0  0  0
  194.8340  174.6340  143.3270 C   0  0  1  0  0  3  0  0  0  0  0  0
  195.4010  174.5400  141.9220 C   0  0  0  0  0  1  0  0  0  0  0  0
  195.1280  175.9430  143.8910 N   0  0  0  0  0  2  0  0  0  0  0  0
  196.3440  176.4170  143.2560 C   0  0  0  0  0  1  0  0  0  0  0  0
  189.4200  174.9250  147.2760 C   0  0  0  0  0  2  0  0  0  0  0  0
  190.4870  175.9360  147.6660 C   0  0  0  0  0  2  0  0  0  0  0  0
  192.4540  176.4070  146.2410 C   0  0  0  0  0  1  0  0  0  0  0  0
  191.8590  175.4440  147.2460 C   0  0  0  0  0  2  0  0  0  0  0  0
  1  4  2  0  0  0  0
  1  8  1  0  0  0  0
  2  6  1  0  0  0  0
  3 11  1  0  0  0  0
  3 26  1  1  0  0  0
  5 12  1  1  0  0  0
  5 11  1  0  0  0  0
  6  9  2  0  0  0  0
  6  8  1  0  0  0  0
  7  1  1  0  0  0  0
  8  3  1  0  0  0  0
  9  5  1  0  0  0  0
 10  7  2  0  0  0  0
 10  2  1  0  0  0  0
 13 12  1  0  0  0  0
 14 13  1  0  0  0  0
 15 14  1  0  0  0  0
 16 14  1  0  0  0  0
 17  7  1  0  0  0  0
 18 17  1  0  0  0  0
 19 18  1  6  0  0  0
 19 22  1  0  0  0  0
 19 21  1  0  0  0  0
 21 20  1  0  0  0  0
 22 23  1  6  0  0  0
 22 24  1  0  0  0  0
 25 24  1  0  0  0  0
 26 27  1  0  0  0  0
 28 29  1  0  0  0  0
 29 27  1  0  0  0  0
M  END
>  <MODEL>
8

>  <REMARK>
 VINA RESULT:      -5.5      2.146      3.596
  Name = 
  12 active torsions:
  status: ('A' for Active; 'I' for Inactive)
    1  A    between atoms: C_4  and  C_13
    2  A    between atoms: C_5  and  C_24
    3  A    between atoms: N_7  and  C_21
    4  A    between atoms: C_8  and  C_11
    5  A    between atoms: C_11  and  C_13
    6  A    between atoms: C_14  and  C_21
    7  A    between atoms: C_14  and  S_26
    8  A    between atoms: C_14  and  N_29
    9  A    between atoms: C_15  and  C_19
   10  A    between atoms: C_16  and  C_25
   11  A    between atoms: C_19  and  S_26
   12  A    between atoms: C_24  and  C_25
                            x       y       z     vdW  Elec       q    Type
                         _______ _______ _______ _____ _____    ______ ____

>  <TORSDO>
F 12

$$$$
=
 OpenBabel11042416503D

 29 30  0  0  1  0  0  0  0  0999 V2000
  190.4610  176.8740  144.0290 C   0  0  0  0  0  0  0  0  0  0  0  0
  190.9330  174.3350  142.7070 C   0  0  0  0  0  2  0  0  0  0  0  0
  192.4350  176.4990  145.5680 C   0  0  2  0  0  3  0  0  0  0  0  0
  190.1780  177.9380  144.6430 O   0  0  0  0  0  0  0  0  0  0  0  0
  194.2860  175.2130  144.2070 C   0  0  1  0  0  3  0  0  0  0  0  0
  191.9830  175.0100  143.5330 C   0  0  0  0  0  0  0  0  0  0  0  0
  189.6380  176.4580  142.8730 C   0  0  0  0  0  0  0  0  0  0  0  0
  191.6050  176.0860  144.4190 N   0  0  0  0  0  0  0  0  0  0  0  0
  193.2080  174.5900  143.4580 N   0  0  0  0  0  0  0  0  0  0  0  0
  189.8840  175.3060  142.2450 C   0  0  0  0  0  3  0  0  0  0  0  0
  193.7930  175.3250  145.9420 S   0  0  0  0  0  0  0  0  0  0  0  0
  195.5520  174.3800  144.0930 C   0  0  0  0  0  2  0  0  0  0  0  0
  196.7330  175.2300  143.6460 C   0  0  0  0  0  2  0  0  0  0  0  0
  196.2780  176.6010  143.1730 C   0  0  0  0  0  3  0  0  0  0  0  0
  196.1100  176.5950  141.8000 F   0  0  0  0  0  0  0  0  0  0  0  0
  197.2300  177.5410  143.5130 F   0  0  0  0  0  0  0  0  0  0  0  0
  188.5350  177.3270  142.3750 C   0  0  0  0  0  2  0  0  0  0  0  0
  186.9240  176.6140  142.8370 S   0  0  0  0  0  0  0  0  0  0  0  0
  186.5530  177.8170  144.1680 C   0  0  1  0  0  3  0  0  0  0  0  0
  185.3260  178.6650  142.4690 O   0  0  0  0  0  1  0  0  0  0  0  0
  185.8880  179.0070  143.6510 N   0  0  0  0  0  2  0  0  0  0  0  0
  185.7760  177.1790  145.3210 C   0  0  1  0  0  3  0  0  0  0  0  0
  186.6980  176.9570  146.5060 C   0  0  0  0  0  1  0  0  0  0  0  0
  184.6460  178.0030  145.7240 N   0  0  0  0  0  2  0  0  0  0  0  0
  184.8130  178.2950  147.1370 C   0  0  0  0  0  1  0  0  0  0  0  0
  191.5780  176.6480  146.8230 C   0  0  0  0  0  2  0  0  0  0  0  0
  191.1940  175.2910  147.3920 C   0  0  0  0  0  2  0  0  0  0  0  0
  189.4310  174.0470  146.1820 C   0  0  0  0  0  1  0  0  0  0  0  0
  189.6990  175.0700  147.2660 C   0  0  0  0  0  2  0  0  0  0  0  0
  1  8  1  0  0  0  0
  1  4  2  0  0  0  0
  2  6  1  0  0  0  0
  3 11  1  0  0  0  0
  3 26  1  1  0  0  0
  5 12  1  1  0  0  0
  5 11  1  0  0  0  0
  6  8  1  0  0  0  0
  7  1  1  0  0  0  0
  8  3  1  0  0  0  0
  9  6  2  0  0  0  0
  9  5  1  0  0  0  0
 10  2  1  0  0  0  0
 10  7  2  0  0  0  0
 13 12  1  0  0  0  0
 14 16  1  0  0  0  0
 14 13  1  0  0  0  0
 15 14  1  0  0  0  0
 17 18  1  0  0  0  0
 17  7  1  0  0  0  0
 19 18  1  6  0  0  0
 19 22  1  0  0  0  0
 20 21  1  0  0  0  0
 21 19  1  0  0  0  0
 22 24  1  0  0  0  0
 22 23  1  1  0  0  0
 24 25  1  0  0  0  0
 26 27  1  0  0  0  0
 28 29  1  0  0  0  0
 29 27  1  0  0  0  0
M  END
>  <MODEL>
9

>  <REMARK>
 VINA RESULT:      -5.5      4.021      8.252
  Name = 
  12 active torsions:
  status: ('A' for Active; 'I' for Inactive)
    1  A    between atoms: C_4  and  C_13
    2  A    between atoms: C_5  and  C_24
    3  A    between atoms: N_7  and  C_21
    4  A    between atoms: C_8  and  C_11
    5  A    between atoms: C_11  and  C_13
    6  A    between atoms: C_14  and  C_21
    7  A    between atoms: C_14  and  S_26
    8  A    between atoms: C_14  and  N_29
    9  A    between atoms: C_15  and  C_19
   10  A    between atoms: C_16  and  C_25
   11  A    between atoms: C_19  and  S_26
   12  A    between atoms: C_24  and  C_25
                            x       y       z     vdW  Elec       q    Type
                         _______ _______ _______ _____ _____    ______ ____

>  <TORSDO>
F 12

$$$$
