=
 OpenBabel11042419063D

 57 62  0  0  1  0  0  0  0  0999 V2000
  189.0620  174.0460  139.9440 C   0  0  0  0  0  0  0  0  0  0  0  0
  191.5000  174.1260  136.8220 S   0  0  0  0  0  0  0  0  0  0  0  0
  192.9890  173.8430  137.7690 C   0  0  0  0  0  0  0  0  0  0  0  0
  188.8920  173.8910  143.1670 C   0  0  0  0  0  1  0  0  0  0  0  0
  190.6300  173.4420  138.1930 N   0  0  0  0  0  0  0  0  0  0  0  0
  191.3960  172.2990  144.0600 C   0  0  0  0  0  0  0  0  0  0  0  0
  190.7340  172.7630  145.0290 O   0  0  0  0  0  0  0  0  0  0  0  0
  189.9500  173.3180  142.2800 C   0  0  0  0  0  0  0  0  0  0  0  0
  192.8580  173.1090  138.8280 N   0  0  0  0  0  0  0  0  0  0  0  0
  189.4140  174.0680  138.6510 C   0  0  0  0  0  3  0  0  0  0  0  0
  191.1270  172.7790  140.4950 C   0  0  0  0  0  0  0  0  0  0  0  0
  194.2230  174.4910  137.4300 N   0  0  0  0  0  2  0  0  0  0  0  0
  189.9840  173.4140  140.9030 C   0  0  0  0  0  0  0  0  0  0  0  0
  191.0410  172.6310  142.7060 N   0  0  0  0  0  0  0  0  0  0  0  0
  191.5060  172.6320  139.0530 C   0  0  1  0  0  3  0  0  0  0  0  0
  191.7670  172.2830  141.6150 C   0  0  0  0  0  3  0  0  0  0  0  0
  196.1080  175.1740  138.7100 C   0  0  0  0  0  3  0  0  0  0  0  0
  195.4650  174.2640  138.0530 N   0  0  0  0  0  0  0  0  0  0  0  0
  197.4200  174.8790  139.3420 C   0  0  0  0  0  2  0  0  0  0  0  0
  197.3470  175.0720  140.8500 C   0  0  0  0  0  2  0  0  0  0  0  0
  196.2280  174.2350  141.4600 C   0  0  0  0  0  2  0  0  0  0  0  0
  195.4740  171.5580  140.7520 C   0  0  0  0  0  1  0  0  0  0  0  0
  196.7700  173.0160  142.1540 C   0  0  0  0  0  0  0  0  0  0  0  0
  196.4150  171.8240  141.8140 N   0  0  0  0  0  0  0  0  0  0  0  0
  197.9410  173.2170  143.4480 Cl  0  0  0  0  0  0  0  0  0  0  0  0
  192.5880  171.4290  144.3340 C   0  0  0  0  0  2  0  0  0  0  0  0
  193.8560  172.2400  144.5650 C   0  0  2  0  0  3  0  0  0  0  0  0
  194.9520  171.3110  145.0490 C   0  0  0  0  0  1  0  0  0  0  0  0
  193.6080  173.3400  145.6020 C   0  0  0  0  0  2  0  0  0  0  0  0
  195.4850  174.9790  145.4740 C   0  0  0  0  0  1  0  0  0  0  0  0
  194.0260  174.7360  145.1220 C   0  0  1  0  0  0  0  0  0  0  0  0
  193.8720  174.8320  143.7360 O   0  0  0  0  0  1  0  0  0  0  0  0
  193.1660  175.8000  145.8250 C   0  0  1  0  0  3  0  0  0  0  0  0
  193.8640  177.0030  146.0000 O   0  0  0  0  0  1  0  0  0  0  0  0
  191.7790  176.0220  145.1970 C   0  0  1  0  0  3  0  0  0  0  0  0
  190.8060  175.8150  146.1750 O   0  0  0  0  0  1  0  0  0  0  0  0
  189.6790  177.7210  143.2910 C   0  0  0  0  0  2  0  0  0  0  0  0
  191.8110  177.3490  143.1660 O   0  0  0  0  0  0  0  0  0  0  0  0
  190.6580  176.9880  142.6160 O   0  0  0  0  0  0  0  0  0  0  0  0
  190.1550  177.8420  144.7000 C   0  0  0  0  0  2  0  0  0  0  0  0
  191.5780  177.4010  144.5500 C   0  0  1  0  0  3  0  0  0  0  0  0
  187.7800  174.6690  140.3830 C   0  0  0  0  0  2  0  0  0  0  0  0
  187.9690  176.0820  140.6580 N   0  0  0  0  0  2  0  0  0  0  0  0
  187.0910  176.8030  139.7480 C   0  0  0  0  0  2  0  0  0  0  0  0
  185.2460  178.4310  142.7130 C   0  0  1  0  0  3  0  0  0  0  0  0
  183.9400  178.5370  140.7330 C   0  0  0  0  0  2  0  0  0  0  0  0
  184.7760  177.5490  140.0520 N   0  0  0  0  0  2  0  0  0  0  0  0
  186.1540  177.7320  140.5070 C   0  0  1  0  0  3  0  0  0  0  0  0
  186.2520  177.5150  142.0150 C   0  0  0  0  0  2  0  0  0  0  0  0
  183.9010  178.2460  142.1640 N   0  0  0  0  0  2  0  0  0  0  0  0
  187.2910  176.4010  146.8260 C   0  0  0  0  0  1  0  0  0  0  0  0
  185.2120  177.7790  146.9580 C   0  0  0  0  0  3  0  0  0  0  0  0
  186.2470  177.4240  144.7990 C   0  0  0  0  0  3  0  0  0  0  0  0
  184.2140  178.5490  146.3540 C   0  0  0  0  0  3  0  0  0  0  0  0
  185.2450  178.1940  144.1890 C   0  0  0  0  0  0  0  0  0  0  0  0
  186.2290  177.2150  146.1820 C   0  0  0  0  0  0  0  0  0  0  0  0
  184.2330  178.7590  144.9700 C   0  0  0  0  0  3  0  0  0  0  0  0
  1 42  1  0  0  0  0
  1 13  1  0  0  0  0
  2  3  1  0  0  0  0
  2  5  1  0  0  0  0
  3  9  2  0  0  0  0
  5 10  1  0  0  0  0
  5 15  1  0  0  0  0
  6 26  1  0  0  0  0
  6  7  2  0  0  0  0
  8 14  1  0  0  0  0
  8  4  1  0  0  0  0
 10  1  2  0  0  0  0
 11 13  1  0  0  0  0
 11 16  2  0  0  0  0
 12  3  1  0  0  0  0
 12 18  1  0  0  0  0
 13  8  2  0  0  0  0
 14  6  1  0  0  0  0
 15  9  1  1  0  0  0
 15 11  1  0  0  0  0
 16 14  1  0  0  0  0
 17 19  1  0  0  0  0
 18 17  2  0  0  0  0
 19 20  1  0  0  0  0
 20 21  1  0  0  0  0
 21 23  1  0  0  0  0
 22 24  1  0  0  0  0
 23 25  1  0  0  0  0
 24 23  2  0  0  0  0
 26 27  1  0  0  0  0
 27 28  1  1  0  0  0
 27 29  1  0  0  0  0
 31 30  1  1  0  0  0
 31 29  1  0  0  0  0
 31 33  1  0  0  0  0
 32 31  1  0  0  0  0
 33 34  1  6  0  0  0
 35 33  1  0  0  0  0
 35 36  1  1  0  0  0
 37 40  1  0  0  0  0
 38 41  1  0  0  0  0
 39 38  1  0  0  0  0
 39 37  1  0  0  0  0
 41 40  1  0  0  0  0
 41 35  1  6  0  0  0
 42 43  1  0  0  0  0
 44 43  1  0  0  0  0
 45 55  1  1  0  0  0
 46 50  1  0  0  0  0
 47 48  1  0  0  0  0
 47 46  1  0  0  0  0
 48 44  1  6  0  0  0
 48 49  1  0  0  0  0
 49 45  1  0  0  0  0
 50 45  1  0  0  0  0
 53 56  1  0  0  0  0
 54 52  1  0  0  0  0
 55 53  2  0  0  0  0
 55 57  1  0  0  0  0
 56 51  1  0  0  0  0
 56 52  2  0  0  0  0
 57 54  2  0  0  0  0
M  END
>  <MODEL>
1

>  <REMARK>
 VINA RESULT:      -7.1      0.000      0.000
  Name = 
  17 active torsions:
  status: ('A' for Active; 'I' for Inactive)
    1  A    between atoms: C_1  and  C_22
    2  A    between atoms: C_1  and  C_24
    3  A    between atoms: C_2  and  C_40
    4  A    between atoms: C_4  and  C_44
    5  A    between atoms: N_7  and  N_46
    6  A    between atoms: C_12  and  C_37
    7  A    between atoms: C_14  and  C_54
    8  A    between atoms: C_16  and  C_24
    9  A    between atoms: C_16  and  C_28
   10  A    between atoms: C_17  and  C_39
   11  A    between atoms: C_22  and  C_39
   12  A    between atoms: N_23  and  C_26
   13  A    between atoms: N_23  and  C_40
   14  A    between atoms: C_26  and  C_31
   15  A    between atoms: C_28  and  C_56
   16  A    between atoms: C_44  and  C_45
   17  A    between atoms: C_45  and  C_54
                            x       y       z     vdW  Elec       q    Type
                         _______ _______ _______ _____ _____    ______ ____

>  <TORSDO>
F 17

$$$$
=
 OpenBabel11042419063D

 57 62  0  0  1  0  0  0  0  0999 V2000
  196.3860  174.7700  144.1810 C   0  0  0  0  0  0  0  0  0  0  0  0
  197.6600  175.0580  140.4400 S   0  0  0  0  0  0  0  0  0  0  0  0
  196.0460  175.3790  139.7420 C   0  0  0  0  0  0  0  0  0  0  0  0
  193.7820  174.7010  146.0930 C   0  0  0  0  0  1  0  0  0  0  0  0
  196.9780  175.5910  141.9750 N   0  0  0  0  0  0  0  0  0  0  0  0
  191.6330  176.3970  144.6390 C   0  0  0  0  0  0  0  0  0  0  0  0
  191.1950  175.8270  145.6760 O   0  0  0  0  0  0  0  0  0  0  0  0
  193.9330  175.4010  144.7800 C   0  0  0  0  0  0  0  0  0  0  0  0
  195.2190  176.0310  140.4950 N   0  0  0  0  0  0  0  0  0  0  0  0
  197.2740  174.8560  143.1800 C   0  0  0  0  0  3  0  0  0  0  0  0
  194.7690  176.1340  142.8760 C   0  0  0  0  0  0  0  0  0  0  0  0
  195.6640  174.8390  138.4680 N   0  0  0  0  0  2  0  0  0  0  0  0
  195.0670  175.3980  143.9930 C   0  0  0  0  0  0  0  0  0  0  0  0
  192.9660  176.1310  144.1670 N   0  0  0  0  0  0  0  0  0  0  0  0
  195.7650  176.4010  141.7880 C   0  0  1  0  0  3  0  0  0  0  0  0
  193.4730  176.5970  142.9990 C   0  0  0  0  0  3  0  0  0  0  0  0
  194.1210  174.5360  136.6840 C   0  0  0  0  0  3  0  0  0  0  0  0
  194.4580  175.1090  137.7930 N   0  0  0  0  0  0  0  0  0  0  0  0
  192.8370  174.8650  136.0110 C   0  0  0  0  0  2  0  0  0  0  0  0
  191.6550  174.5010  136.8980 C   0  0  0  0  0  2  0  0  0  0  0  0
  191.5610  172.9930  137.1000 C   0  0  0  0  0  2  0  0  0  0  0  0
  193.5100  171.5280  138.6130 C   0  0  0  0  0  1  0  0  0  0  0  0
  191.3840  172.6440  138.5520 C   0  0  0  0  0  0  0  0  0  0  0  0
  192.2770  171.9860  139.2080 N   0  0  0  0  0  0  0  0  0  0  0  0
  189.9310  173.1700  139.3890 Cl  0  0  0  0  0  0  0  0  0  0  0  0
  190.7350  177.3250  143.8750 C   0  0  0  0  0  2  0  0  0  0  0  0
  189.5220  176.6110  143.2960 C   0  0  2  0  0  3  0  0  0  0  0  0
  189.9900  175.6110  142.2580 C   0  0  0  0  0  1  0  0  0  0  0  0
  188.5610  177.6170  142.6560 C   0  0  0  0  0  2  0  0  0  0  0  0
  187.0210  176.8710  140.8400 C   0  0  0  0  0  1  0  0  0  0  0  0
  187.1790  177.0270  142.3440 C   0  0  1  0  0  0  0  0  0  0  0  0
  187.0460  175.7720  142.9460 O   0  0  0  0  0  1  0  0  0  0  0  0
  186.0860  177.9800  142.8580 C   0  0  1  0  0  3  0  0  0  0  0  0
  184.8000  177.4940  142.5850 O   0  0  0  0  0  1  0  0  0  0  0  0
  186.2440  178.4030  144.3290 C   0  0  1  0  0  3  0  0  0  0  0  0
  185.8590  179.7390  144.4550 O   0  0  0  0  0  1  0  0  0  0  0  0
  185.4620  178.2120  147.5360 C   0  0  0  0  0  2  0  0  0  0  0  0
  186.3330  176.7960  146.1440 O   0  0  0  0  0  0  0  0  0  0  0  0
  186.6550  177.5860  147.1600 O   0  0  0  0  0  0  0  0  0  0  0  0
  184.6910  178.4160  146.2750 C   0  0  0  0  0  2  0  0  0  0  0  0
  185.4620  177.5430  145.3340 C   0  0  1  0  0  3  0  0  0  0  0  0
  196.7330  174.0340  145.4300 C   0  0  0  0  0  2  0  0  0  0  0  0
  197.3040  172.7360  145.1160 N   0  0  0  0  0  2  0  0  0  0  0  0
  196.6530  171.7740  145.9930 C   0  0  0  0  0  2  0  0  0  0  0  0
  193.7530  170.2200  143.9890 C   0  0  1  0  0  3  0  0  0  0  0  0
  194.9910  168.5480  145.1330 C   0  0  0  0  0  2  0  0  0  0  0  0
  195.6590  169.5340  145.9830 N   0  0  0  0  0  2  0  0  0  0  0  0
  195.8620  170.7480  145.1940 C   0  0  1  0  0  3  0  0  0  0  0  0
  194.5220  171.3140  144.7300 C   0  0  0  0  0  2  0  0  0  0  0  0
  193.6440  169.0100  144.8080 N   0  0  0  0  0  2  0  0  0  0  0  0
  189.6810  173.0400  144.8190 C   0  0  0  0  0  1  0  0  0  0  0  0
  189.8590  171.5850  142.7960 C   0  0  0  0  0  3  0  0  0  0  0  0
  191.6910  171.6230  144.3770 C   0  0  0  0  0  3  0  0  0  0  0  0
  190.5590  170.6700  142.0050 C   0  0  0  0  0  3  0  0  0  0  0  0
  192.3960  170.7020  143.5870 C   0  0  0  0  0  0  0  0  0  0  0  0
  190.4240  172.0630  143.9820 C   0  0  0  0  0  0  0  0  0  0  0  0
  191.8290  170.2310  142.4000 C   0  0  0  0  0  3  0  0  0  0  0  0
  1 42  1  0  0  0  0
  2  5  1  0  0  0  0
  3  2  1  0  0  0  0
  3  9  2  0  0  0  0
  5 10  1  0  0  0  0
  6  7  2  0  0  0  0
  8  4  1  0  0  0  0
 10  1  2  0  0  0  0
 11 16  2  0  0  0  0
 11 13  1  0  0  0  0
 12  3  1  0  0  0  0
 13  1  1  0  0  0  0
 13  8  2  0  0  0  0
 14  6  1  0  0  0  0
 14  8  1  0  0  0  0
 15  9  1  6  0  0  0
 15  5  1  0  0  0  0
 15 11  1  0  0  0  0
 16 14  1  0  0  0  0
 17 18  2  0  0  0  0
 18 12  1  0  0  0  0
 19 17  1  0  0  0  0
 19 20  1  0  0  0  0
 20 21  1  0  0  0  0
 21 23  1  0  0  0  0
 22 24  1  0  0  0  0
 23 24  2  0  0  0  0
 23 25  1  0  0  0  0
 26  6  1  0  0  0  0
 27 28  1  6  0  0  0
 27 26  1  0  0  0  0
 29 27  1  0  0  0  0
 31 30  1  6  0  0  0
 31 29  1  0  0  0  0
 31 33  1  0  0  0  0
 31 32  1  0  0  0  0
 33 34  1  1  0  0  0
 33 35  1  0  0  0  0
 35 36  1  6  0  0  0
 38 39  1  0  0  0  0
 39 37  1  0  0  0  0
 40 37  1  0  0  0  0
 41 35  1  6  0  0  0
 41 38  1  0  0  0  0
 41 40  1  0  0  0  0
 43 42  1  0  0  0  0
 43 44  1  0  0  0  0
 45 55  1  1  0  0  0
 45 49  1  0  0  0  0
 45 50  1  0  0  0  0
 46 47  1  0  0  0  0
 48 47  1  0  0  0  0
 48 44  1  1  0  0  0
 49 48  1  0  0  0  0
 50 46  1  0  0  0  0
 52 56  1  0  0  0  0
 54 57  1  0  0  0  0
 54 52  2  0  0  0  0
 55 53  1  0  0  0  0
 56 53  2  0  0  0  0
 56 51  1  0  0  0  0
 57 55  2  0  0  0  0
M  END
>  <MODEL>
2

>  <REMARK>
 VINA RESULT:      -6.8      3.088      8.011
  Name = 
  17 active torsions:
  status: ('A' for Active; 'I' for Inactive)
    1  A    between atoms: C_1  and  C_22
    2  A    between atoms: C_1  and  C_24
    3  A    between atoms: C_2  and  C_40
    4  A    between atoms: C_4  and  C_44
    5  A    between atoms: N_7  and  N_46
    6  A    between atoms: C_12  and  C_37
    7  A    between atoms: C_14  and  C_54
    8  A    between atoms: C_16  and  C_24
    9  A    between atoms: C_16  and  C_28
   10  A    between atoms: C_17  and  C_39
   11  A    between atoms: C_22  and  C_39
   12  A    between atoms: N_23  and  C_26
   13  A    between atoms: N_23  and  C_40
   14  A    between atoms: C_26  and  C_31
   15  A    between atoms: C_28  and  C_56
   16  A    between atoms: C_44  and  C_45
   17  A    between atoms: C_45  and  C_54
                            x       y       z     vdW  Elec       q    Type
                         _______ _______ _______ _____ _____    ______ ____

>  <TORSDO>
F 17

$$$$
=
 OpenBabel11042419063D

 57 62  0  0  1  0  0  0  0  0999 V2000
  190.9670  170.7070  140.1430 C   0  0  0  0  0  0  0  0  0  0  0  0
  194.3260  168.7970  141.0180 S   0  0  0  0  0  0  0  0  0  0  0  0
  194.7020  169.7810  142.4620 C   0  0  0  0  0  0  0  0  0  0  0  0
  189.0690  173.2100  140.9020 C   0  0  0  0  0  1  0  0  0  0  0  0
  192.6630  169.3430  141.2170 N   0  0  0  0  0  0  0  0  0  0  0  0
  189.5120  173.7060  143.9280 C   0  0  0  0  0  0  0  0  0  0  0  0
  188.7800  174.5790  143.3860 O   0  0  0  0  0  0  0  0  0  0  0  0
  189.9750  172.4420  141.8100 C   0  0  0  0  0  0  0  0  0  0  0  0
  193.6850  170.2250  143.1280 N   0  0  0  0  0  0  0  0  0  0  0  0
  191.9030  169.7500  140.0610 C   0  0  0  0  0  3  0  0  0  0  0  0
  191.4530  170.9900  142.5630 C   0  0  0  0  0  0  0  0  0  0  0  0
  196.0520  170.1450  142.7860 N   0  0  0  0  0  2  0  0  0  0  0  0
  190.7740  171.3780  141.4390 C   0  0  0  0  0  0  0  0  0  0  0  0
  190.1520  172.6920  143.1330 N   0  0  0  0  0  0  0  0  0  0  0  0
  192.4010  169.8290  142.5800 C   0  0  1  0  0  3  0  0  0  0  0  0
  191.0500  171.7960  143.6100 C   0  0  0  0  0  3  0  0  0  0  0  0
  196.8170  172.0770  143.9430 C   0  0  0  0  0  3  0  0  0  0  0  0
  196.4590  170.8340  143.9440 N   0  0  0  0  0  0  0  0  0  0  0  0
  197.2440  172.7520  145.1960 C   0  0  0  0  0  2  0  0  0  0  0  0
  196.9260  174.2390  145.1410 C   0  0  0  0  0  2  0  0  0  0  0  0
  195.5480  174.5320  145.7230 C   0  0  0  0  0  2  0  0  0  0  0  0
  194.7240  177.2810  145.6640 C   0  0  0  0  0  1  0  0  0  0  0  0
  194.6200  175.0920  144.6800 C   0  0  0  0  0  0  0  0  0  0  0  0
  194.2680  176.3320  144.6760 N   0  0  0  0  0  0  0  0  0  0  0  0
  194.0180  174.0340  143.4120 Cl  0  0  0  0  0  0  0  0  0  0  0  0
  189.7460  173.7600  145.4100 C   0  0  0  0  0  2  0  0  0  0  0  0
  190.0990  175.1610  145.8900 C   0  0  2  0  0  3  0  0  0  0  0  0
  191.4630  175.1260  146.5500 C   0  0  0  0  0  1  0  0  0  0  0  0
  189.0510  175.6680  146.8840 C   0  0  0  0  0  2  0  0  0  0  0  0
  189.5370  178.0120  147.5870 C   0  0  0  0  0  1  0  0  0  0  0  0
  188.6800  177.1430  146.6810 C   0  0  1  0  0  0  0  0  0  0  0  0
  188.9040  177.5150  145.3520 O   0  0  0  0  0  1  0  0  0  0  0  0
  187.2010  177.3570  147.0480 C   0  0  1  0  0  3  0  0  0  0  0  0
  187.0280  178.4640  147.8890 O   0  0  0  0  0  1  0  0  0  0  0  0
  186.2400  177.3860  145.8470 C   0  0  1  0  0  3  0  0  0  0  0  0
  185.1310  176.5910  146.1410 O   0  0  0  0  0  1  0  0  0  0  0  0
  183.9780  178.9340  143.9970 C   0  0  0  0  0  2  0  0  0  0  0  0
  186.1400  179.0690  144.1040 O   0  0  0  0  0  0  0  0  0  0  0  0
  185.1640  178.5840  143.3450 O   0  0  0  0  0  0  0  0  0  0  0  0
  184.2780  178.8690  145.4580 C   0  0  0  0  0  2  0  0  0  0  0  0
  185.7730  178.7900  145.4300 C   0  0  1  0  0  3  0  0  0  0  0  0
  190.1710  171.0820  138.9390 C   0  0  0  0  0  2  0  0  0  0  0  0
  191.0460  171.3460  137.8110 N   0  0  0  0  0  2  0  0  0  0  0  0
  190.7540  172.7010  137.3670 C   0  0  0  0  0  2  0  0  0  0  0  0
  194.2440  174.2540  137.8690 C   0  0  1  0  0  3  0  0  0  0  0  0
  192.9720  175.5020  136.2990 C   0  0  0  0  0  2  0  0  0  0  0  0
  191.7240  174.8480  136.6940 N   0  0  0  0  0  2  0  0  0  0  0  0
  192.0320  173.4650  137.0530 C   0  0  1  0  0  3  0  0  0  0  0  0
  193.0120  173.4210  138.2230 C   0  0  0  0  0  2  0  0  0  0  0  0
  193.8600  175.6060  137.4540 N   0  0  0  0  0  2  0  0  0  0  0  0
  196.3020  176.7100  141.7350 C   0  0  0  0  0  1  0  0  0  0  0  0
  196.9900  174.3770  141.1690 C   0  0  0  0  0  3  0  0  0  0  0  0
  195.3000  175.4610  139.8180 C   0  0  0  0  0  3  0  0  0  0  0  0
  196.8890  173.2290  140.3770 C   0  0  0  0  0  3  0  0  0  0  0  0
  195.1970  174.3120  139.0190 C   0  0  0  0  0  0  0  0  0  0  0  0
  196.1970  175.4930  140.8900 C   0  0  0  0  0  0  0  0  0  0  0  0
  195.9900  173.1960  139.3040 C   0  0  0  0  0  3  0  0  0  0  0  0
  1 13  1  0  0  0  0
  2  5  1  0  0  0  0
  2  3  1  0  0  0  0
  3 12  1  0  0  0  0
  3  9  2  0  0  0  0
  4  8  1  0  0  0  0
  5 15  1  0  0  0  0
  6 26  1  0  0  0  0
  7  6  2  0  0  0  0
  8 14  1  0  0  0  0
 10  1  2  0  0  0  0
 10  5  1  0  0  0  0
 11 16  2  0  0  0  0
 12 18  1  0  0  0  0
 13  8  2  0  0  0  0
 13 11  1  0  0  0  0
 14 16  1  0  0  0  0
 14  6  1  0  0  0  0
 15 11  1  6  0  0  0
 15  9  1  0  0  0  0
 17 18  2  0  0  0  0
 17 19  1  0  0  0  0
 20 19  1  0  0  0  0
 20 21  1  0  0  0  0
 23 21  1  0  0  0  0
 24 23  2  0  0  0  0
 24 22  1  0  0  0  0
 25 23  1  0  0  0  0
 26 27  1  0  0  0  0
 27 28  1  1  0  0  0
 27 29  1  0  0  0  0
 31 29  1  0  0  0  0
 31 33  1  0  0  0  0
 31 30  1  1  0  0  0
 32 31  1  0  0  0  0
 33 34  1  6  0  0  0
 35 36  1  1  0  0  0
 35 33  1  0  0  0  0
 37 40  1  0  0  0  0
 38 41  1  0  0  0  0
 39 37  1  0  0  0  0
 39 38  1  0  0  0  0
 41 40  1  0  0  0  0
 41 35  1  6  0  0  0
 42  1  1  0  0  0  0
 43 42  1  0  0  0  0
 44 43  1  0  0  0  0
 45 49  1  0  0  0  0
 45 55  1  1  0  0  0
 46 47  1  0  0  0  0
 46 50  1  0  0  0  0
 47 48  1  0  0  0  0
 48 44  1  1  0  0  0
 48 49  1  0  0  0  0
 50 45  1  0  0  0  0
 53 56  2  0  0  0  0
 54 52  2  0  0  0  0
 55 57  2  0  0  0  0
 55 53  1  0  0  0  0
 56 52  1  0  0  0  0
 56 51  1  0  0  0  0
 57 54  1  0  0  0  0
M  END
>  <MODEL>
3

>  <REMARK>
 VINA RESULT:      -6.6      2.978      7.139
  Name = 
  17 active torsions:
  status: ('A' for Active; 'I' for Inactive)
    1  A    between atoms: C_1  and  C_22
    2  A    between atoms: C_1  and  C_24
    3  A    between atoms: C_2  and  C_40
    4  A    between atoms: C_4  and  C_44
    5  A    between atoms: N_7  and  N_46
    6  A    between atoms: C_12  and  C_37
    7  A    between atoms: C_14  and  C_54
    8  A    between atoms: C_16  and  C_24
    9  A    between atoms: C_16  and  C_28
   10  A    between atoms: C_17  and  C_39
   11  A    between atoms: C_22  and  C_39
   12  A    between atoms: N_23  and  C_26
   13  A    between atoms: N_23  and  C_40
   14  A    between atoms: C_26  and  C_31
   15  A    between atoms: C_28  and  C_56
   16  A    between atoms: C_44  and  C_45
   17  A    between atoms: C_45  and  C_54
                            x       y       z     vdW  Elec       q    Type
                         _______ _______ _______ _____ _____    ______ ____

>  <TORSDO>
F 17

$$$$
=
 OpenBabel11042419063D

 57 62  0  0  1  0  0  0  0  0999 V2000
  188.7570  174.4960  140.5460 C   0  0  0  0  0  0  0  0  0  0  0  0
  189.3910  172.7850  137.0290 S   0  0  0  0  0  0  0  0  0  0  0  0
  190.8770  171.9260  137.5310 C   0  0  0  0  0  0  0  0  0  0  0  0
  189.9520  174.9800  143.5090 C   0  0  0  0  0  1  0  0  0  0  0  0
  189.0060  172.8880  138.7450 N   0  0  0  0  0  0  0  0  0  0  0  0
  191.6850  172.4870  144.1280 C   0  0  0  0  0  0  0  0  0  0  0  0
  191.7670  173.3790  145.0170 O   0  0  0  0  0  0  0  0  0  0  0  0
  190.1780  173.8050  142.6140 C   0  0  0  0  0  0  0  0  0  0  0  0
  190.9270  171.5520  138.7690 N   0  0  0  0  0  0  0  0  0  0  0  0
  188.4890  174.1200  139.2870 C   0  0  0  0  0  3  0  0  0  0  0  0
  190.1260  172.4490  140.8760 C   0  0  0  0  0  0  0  0  0  0  0  0
  191.9870  171.7710  136.6340 N   0  0  0  0  0  2  0  0  0  0  0  0
  189.6490  173.6430  141.3490 C   0  0  0  0  0  0  0  0  0  0  0  0
  190.9530  172.7300  142.9140 N   0  0  0  0  0  0  0  0  0  0  0  0
  189.7440  171.8930  139.5370 C   0  0  1  0  0  3  0  0  0  0  0  0
  190.9180  171.8830  141.8560 C   0  0  0  0  0  3  0  0  0  0  0  0
  194.3480  171.4880  136.6780 C   0  0  0  0  0  3  0  0  0  0  0  0
  193.1570  171.0350  136.9010 N   0  0  0  0  0  0  0  0  0  0  0  0
  195.5490  170.6630  136.9730 C   0  0  0  0  0  2  0  0  0  0  0  0
  196.2420  171.1540  138.2350 C   0  0  0  0  0  2  0  0  0  0  0  0
  195.9080  170.2670  139.4290 C   0  0  0  0  0  2  0  0  0  0  0  0
  193.6860  168.4890  139.8050 C   0  0  0  0  0  1  0  0  0  0  0  0
  194.6170  170.6860  140.0790 C   0  0  0  0  0  0  0  0  0  0  0  0
  193.6360  169.8660  140.2370 N   0  0  0  0  0  0  0  0  0  0  0  0
  194.4490  172.3340  140.6650 Cl  0  0  0  0  0  0  0  0  0  0  0  0
  192.3990  171.1820  144.3280 C   0  0  0  0  0  2  0  0  0  0  0  0
  193.8900  171.2870  144.0400 C   0  0  2  0  0  3  0  0  0  0  0  0
  194.4340  169.9020  143.7510 C   0  0  0  0  0  1  0  0  0  0  0  0
  194.6260  171.8970  145.2370 C   0  0  0  0  0  2  0  0  0  0  0  0
  196.7300  173.0430  145.9360 C   0  0  0  0  0  1  0  0  0  0  0  0
  195.6840  172.9340  144.8380 C   0  0  1  0  0  0  0  0  0  0  0  0
  196.3130  172.5460  143.6510 O   0  0  0  0  0  1  0  0  0  0  0  0
  195.0150  174.3080  144.6570 C   0  0  1  0  0  3  0  0  0  0  0  0
  195.5630  175.2720  145.5150 O   0  0  0  0  0  1  0  0  0  0  0  0
  194.9450  174.8020  143.2020 C   0  0  1  0  0  3  0  0  0  0  0  0
  193.6270  175.1540  142.9110 O   0  0  0  0  0  1  0  0  0  0  0  0
  196.7710  176.0730  140.7560 C   0  0  0  0  0  2  0  0  0  0  0  0
  197.2180  175.5570  142.8150 O   0  0  0  0  0  0  0  0  0  0  0  0
  197.4110  175.1350  141.5710 O   0  0  0  0  0  0  0  0  0  0  0  0
  195.5690  176.5250  141.5160 C   0  0  0  0  0  2  0  0  0  0  0  0
  195.8790  175.9780  142.8750 C   0  0  1  0  0  3  0  0  0  0  0  0
  188.1790  175.7580  141.0920 C   0  0  0  0  0  2  0  0  0  0  0  0
  187.0710  176.2090  140.2680 N   0  0  0  0  0  2  0  0  0  0  0  0
  187.1300  177.6630  140.2530 C   0  0  0  0  0  2  0  0  0  0  0  0
  185.3440  178.5420  143.5520 C   0  0  1  0  0  3  0  0  0  0  0  0
  183.8090  178.4720  141.7420 C   0  0  0  0  0  2  0  0  0  0  0  0
  184.7630  177.7810  140.8750 N   0  0  0  0  0  2  0  0  0  0  0  0
  186.1030  178.2660  141.2010 C   0  0  1  0  0  3  0  0  0  0  0  0
  186.4420  177.9640  142.6590 C   0  0  0  0  0  2  0  0  0  0  0  0
  184.0230  178.0690  143.1300 N   0  0  0  0  0  2  0  0  0  0  0  0
  187.9150  176.0720  147.0890 C   0  0  0  0  0  1  0  0  0  0  0  0
  186.0180  177.5840  147.6840 C   0  0  0  0  0  3  0  0  0  0  0  0
  186.6140  177.3140  145.3540 C   0  0  0  0  0  3  0  0  0  0  0  0
  184.9980  178.4680  147.3220 C   0  0  0  0  0  3  0  0  0  0  0  0
  185.5890  178.1980  144.9860 C   0  0  0  0  0  0  0  0  0  0  0  0
  186.8280  177.0060  146.7020 C   0  0  0  0  0  0  0  0  0  0  0  0
  184.7850  178.7760  145.9730 C   0  0  0  0  0  3  0  0  0  0  0  0
  1 42  1  0  0  0  0
  1 13  1  0  0  0  0
  2  3  1  0  0  0  0
  2  5  1  0  0  0  0
  3  9  2  0  0  0  0
  5 10  1  0  0  0  0
  5 15  1  0  0  0  0
  6 26  1  0  0  0  0
  6  7  2  0  0  0  0
  8 14  1  0  0  0  0
  8  4  1  0  0  0  0
 10  1  2  0  0  0  0
 11 13  1  0  0  0  0
 11 16  2  0  0  0  0
 12 18  1  0  0  0  0
 12  3  1  0  0  0  0
 13  8  2  0  0  0  0
 14  6  1  0  0  0  0
 15  9  1  6  0  0  0
 15 11  1  0  0  0  0
 16 14  1  0  0  0  0
 17 18  2  0  0  0  0
 17 19  1  0  0  0  0
 19 20  1  0  0  0  0
 20 21  1  0  0  0  0
 21 23  1  0  0  0  0
 22 24  1  0  0  0  0
 23 24  2  0  0  0  0
 23 25  1  0  0  0  0
 27 28  1  1  0  0  0
 27 26  1  0  0  0  0
 27 29  1  0  0  0  0
 31 29  1  0  0  0  0
 31 30  1  1  0  0  0
 32 31  1  0  0  0  0
 33 31  1  0  0  0  0
 33 34  1  1  0  0  0
 35 36  1  1  0  0  0
 35 33  1  0  0  0  0
 37 40  1  0  0  0  0
 37 39  1  0  0  0  0
 38 41  1  0  0  0  0
 39 38  1  0  0  0  0
 40 41  1  0  0  0  0
 41 35  1  6  0  0  0
 43 42  1  0  0  0  0
 44 43  1  0  0  0  0
 45 55  1  1  0  0  0
 46 50  1  0  0  0  0
 47 48  1  0  0  0  0
 47 46  1  0  0  0  0
 48 44  1  6  0  0  0
 48 49  1  0  0  0  0
 49 45  1  0  0  0  0
 50 45  1  0  0  0  0
 53 56  1  0  0  0  0
 54 52  1  0  0  0  0
 55 53  2  0  0  0  0
 55 57  1  0  0  0  0
 56 51  1  0  0  0  0
 56 52  2  0  0  0  0
 57 54  2  0  0  0  0
M  END
>  <MODEL>
4

>  <REMARK>
 VINA RESULT:      -6.3      1.973      3.024
  Name = 
  17 active torsions:
  status: ('A' for Active; 'I' for Inactive)
    1  A    between atoms: C_1  and  C_22
    2  A    between atoms: C_1  and  C_24
    3  A    between atoms: C_2  and  C_40
    4  A    between atoms: C_4  and  C_44
    5  A    between atoms: N_7  and  N_46
    6  A    between atoms: C_12  and  C_37
    7  A    between atoms: C_14  and  C_54
    8  A    between atoms: C_16  and  C_24
    9  A    between atoms: C_16  and  C_28
   10  A    between atoms: C_17  and  C_39
   11  A    between atoms: C_22  and  C_39
   12  A    between atoms: N_23  and  C_26
   13  A    between atoms: N_23  and  C_40
   14  A    between atoms: C_26  and  C_31
   15  A    between atoms: C_28  and  C_56
   16  A    between atoms: C_44  and  C_45
   17  A    between atoms: C_45  and  C_54
                            x       y       z     vdW  Elec       q    Type
                         _______ _______ _______ _____ _____    ______ ____

>  <TORSDO>
F 17

$$$$
=
 OpenBabel11042419063D

 57 62  0  0  1  0  0  0  0  0999 V2000
  187.3930  176.7070  140.5130 C   0  0  0  0  0  0  0  0  0  0  0  0
  187.1250  176.0830  136.6100 S   0  0  0  0  0  0  0  0  0  0  0  0
  188.4930  174.9350  136.5330 C   0  0  0  0  0  0  0  0  0  0  0  0
  189.1240  176.1140  143.1770 C   0  0  0  0  0  1  0  0  0  0  0  0
  187.0500  175.7060  138.3290 N   0  0  0  0  0  0  0  0  0  0  0  0
  190.4570  173.3550  142.7090 C   0  0  0  0  0  0  0  0  0  0  0  0
  190.8420  173.9170  143.7720 O   0  0  0  0  0  0  0  0  0  0  0  0
  188.9850  175.2480  141.9660 C   0  0  0  0  0  0  0  0  0  0  0  0
  188.6770  174.1990  137.5820 N   0  0  0  0  0  0  0  0  0  0  0  0
  186.8590  176.7690  139.2850 C   0  0  0  0  0  3  0  0  0  0  0  0
  188.4060  174.5040  139.9730 C   0  0  0  0  0  0  0  0  0  0  0  0
  189.3950  174.9240  135.4170 N   0  0  0  0  0  2  0  0  0  0  0  0
  188.2360  175.5460  140.8450 C   0  0  0  0  0  0  0  0  0  0  0  0
  189.5910  174.0450  141.7900 N   0  0  0  0  0  0  0  0  0  0  0  0
  187.7160  174.4330  138.6440 C   0  0  1  0  0  3  0  0  0  0  0  0
  189.2320  173.5720  140.5720 C   0  0  0  0  0  3  0  0  0  0  0  0
  190.2980  172.7240  135.3600 C   0  0  0  0  0  3  0  0  0  0  0  0
  190.4410  174.0020  135.2200 N   0  0  0  0  0  0  0  0  0  0  0  0
  191.4400  171.7970  135.1470 C   0  0  0  0  0  2  0  0  0  0  0  0
  192.1380  171.4900  136.4630 C   0  0  0  0  0  2  0  0  0  0  0  0
  193.5130  172.1460  136.5250 C   0  0  0  0  0  2  0  0  0  0  0  0
  195.9930  173.1090  137.6040 C   0  0  0  0  0  1  0  0  0  0  0  0
  193.5920  173.1520  137.6410 C   0  0  0  0  0  0  0  0  0  0  0  0
  194.7190  173.5690  138.1050 N   0  0  0  0  0  0  0  0  0  0  0  0
  192.1040  173.8010  138.3150 Cl  0  0  0  0  0  0  0  0  0  0  0  0
  190.9460  171.9740  142.3890 C   0  0  0  0  0  2  0  0  0  0  0  0
  192.4620  171.9130  142.2500 C   0  0  2  0  0  3  0  0  0  0  0  0
  192.8080  171.3360  140.8920 C   0  0  0  0  0  1  0  0  0  0  0  0
  193.0680  171.0460  143.3570 C   0  0  0  0  0  2  0  0  0  0  0  0
  194.5120  171.1100  145.3900 C   0  0  0  0  0  1  0  0  0  0  0  0
  194.3340  171.6470  143.9790 C   0  0  1  0  0  0  0  0  0  0  0  0
  195.4550  171.3000  143.2180 O   0  0  0  0  0  1  0  0  0  0  0  0
  194.1960  173.1780  144.0490 C   0  0  1  0  0  3  0  0  0  0  0  0
  193.9660  173.6220  145.3580 O   0  0  0  0  0  1  0  0  0  0  0  0
  195.3330  173.9570  143.3650 C   0  0  1  0  0  3  0  0  0  0  0  0
  194.8510  174.5020  142.1750 O   0  0  0  0  0  1  0  0  0  0  0  0
  197.2180  176.6650  143.1490 C   0  0  0  0  0  2  0  0  0  0  0  0
  197.3470  174.8720  144.3620 O   0  0  0  0  0  0  0  0  0  0  0  0
  197.9020  175.4570  143.3080 O   0  0  0  0  0  0  0  0  0  0  0  0
  195.8070  176.3940  143.5530 C   0  0  0  0  0  2  0  0  0  0  0  0
  195.9620  175.0650  144.2250 C   0  0  1  0  0  3  0  0  0  0  0  0
  187.1490  177.8040  141.4930 C   0  0  0  0  0  2  0  0  0  0  0  0
  186.0450  177.4650  142.3740 N   0  0  0  0  0  2  0  0  0  0  0  0
  185.5750  178.7160  142.9500 C   0  0  0  0  0  2  0  0  0  0  0  0
  187.3500  177.9560  146.2840 C   0  0  1  0  0  3  0  0  0  0  0  0
  185.1560  178.7850  146.6550 C   0  0  0  0  0  2  0  0  0  0  0  0
  184.7700  178.5710  145.2600 N   0  0  0  0  0  2  0  0  0  0  0  0
  185.9430  178.8160  144.4230 C   0  0  1  0  0  3  0  0  0  0  0  0
  187.0700  177.8510  144.7850 C   0  0  0  0  0  2  0  0  0  0  0  0
  186.1220  177.7670  147.0610 N   0  0  0  0  0  2  0  0  0  0  0  0
  192.1200  176.7940  147.3360 C   0  0  0  0  0  1  0  0  0  0  0  0
  190.3060  175.0850  147.4950 C   0  0  0  0  0  3  0  0  0  0  0  0
  189.7380  177.3380  146.8180 C   0  0  0  0  0  3  0  0  0  0  0  0
  188.9640  174.7120  147.3840 C   0  0  0  0  0  3  0  0  0  0  0  0
  188.3890  176.9660  146.7020 C   0  0  0  0  0  0  0  0  0  0  0  0
  190.6950  176.3980  147.2120 C   0  0  0  0  0  0  0  0  0  0  0  0
  188.0050  175.6540  146.9900 C   0  0  0  0  0  3  0  0  0  0  0  0
  1 13  1  0  0  0  0
  1 42  1  0  0  0  0
  2  5  1  0  0  0  0
  3  2  1  0  0  0  0
  3  9  2  0  0  0  0
  5 15  1  0  0  0  0
  5 10  1  0  0  0  0
  6  7  2  0  0  0  0
  8  4  1  0  0  0  0
 10  1  2  0  0  0  0
 11 16  2  0  0  0  0
 11 13  1  0  0  0  0
 12  3  1  0  0  0  0
 13  8  2  0  0  0  0
 14  8  1  0  0  0  0
 14  6  1  0  0  0  0
 15  9  1  6  0  0  0
 15 11  1  0  0  0  0
 16 14  1  0  0  0  0
 18 17  2  0  0  0  0
 18 12  1  0  0  0  0
 19 17  1  0  0  0  0
 19 20  1  0  0  0  0
 20 21  1  0  0  0  0
 21 23  1  0  0  0  0
 22 24  1  0  0  0  0
 23 24  2  0  0  0  0
 23 25  1  0  0  0  0
 26  6  1  0  0  0  0
 27 28  1  6  0  0  0
 27 26  1  0  0  0  0
 27 29  1  0  0  0  0
 29 31  1  0  0  0  0
 31 33  1  0  0  0  0
 31 30  1  1  0  0  0
 32 31  1  0  0  0  0
 33 34  1  1  0  0  0
 35 36  1  6  0  0  0
 35 33  1  0  0  0  0
 37 39  1  0  0  0  0
 37 40  1  0  0  0  0
 39 38  1  0  0  0  0
 40 41  1  0  0  0  0
 41 35  1  6  0  0  0
 41 38  1  0  0  0  0
 42 43  1  0  0  0  0
 43 44  1  0  0  0  0
 45 55  1  1  0  0  0
 45 50  1  0  0  0  0
 46 50  1  0  0  0  0
 47 46  1  0  0  0  0
 48 44  1  6  0  0  0
 48 49  1  0  0  0  0
 48 47  1  0  0  0  0
 49 45  1  0  0  0  0
 53 56  1  0  0  0  0
 54 52  1  0  0  0  0
 55 53  2  0  0  0  0
 55 57  1  0  0  0  0
 56 51  1  0  0  0  0
 56 52  2  0  0  0  0
 57 54  2  0  0  0  0
M  END
>  <MODEL>
5

>  <REMARK>
 VINA RESULT:      -6.2      2.488      4.772
  Name = 
  17 active torsions:
  status: ('A' for Active; 'I' for Inactive)
    1  A    between atoms: C_1  and  C_22
    2  A    between atoms: C_1  and  C_24
    3  A    between atoms: C_2  and  C_40
    4  A    between atoms: C_4  and  C_44
    5  A    between atoms: N_7  and  N_46
    6  A    between atoms: C_12  and  C_37
    7  A    between atoms: C_14  and  C_54
    8  A    between atoms: C_16  and  C_24
    9  A    between atoms: C_16  and  C_28
   10  A    between atoms: C_17  and  C_39
   11  A    between atoms: C_22  and  C_39
   12  A    between atoms: N_23  and  C_26
   13  A    between atoms: N_23  and  C_40
   14  A    between atoms: C_26  and  C_31
   15  A    between atoms: C_28  and  C_56
   16  A    between atoms: C_44  and  C_45
   17  A    between atoms: C_45  and  C_54
                            x       y       z     vdW  Elec       q    Type
                         _______ _______ _______ _____ _____    ______ ____

>  <TORSDO>
F 17

$$$$
=
 OpenBabel11042419063D

 57 62  0  0  1  0  0  0  0  0999 V2000
  192.2760  175.8990  144.2800 C   0  0  0  0  0  0  0  0  0  0  0  0
  196.2380  175.9320  144.3370 S   0  0  0  0  0  0  0  0  0  0  0  0
  196.4200  174.1740  144.0710 C   0  0  0  0  0  0  0  0  0  0  0  0
  189.6460  174.0270  144.1610 C   0  0  0  0  0  1  0  0  0  0  0  0
  194.6190  175.7530  143.6640 N   0  0  0  0  0  0  0  0  0  0  0  0
  190.4940  171.4930  142.5910 C   0  0  0  0  0  0  0  0  0  0  0  0
  189.3270  171.4140  143.0630 O   0  0  0  0  0  0  0  0  0  0  0  0
  190.9950  173.7440  143.5830 C   0  0  0  0  0  0  0  0  0  0  0  0
  195.5050  173.6100  143.3490 N   0  0  0  0  0  0  0  0  0  0  0  0
  193.5090  176.4280  144.2890 C   0  0  0  0  0  3  0  0  0  0  0  0
  193.1220  173.9250  143.0300 C   0  0  0  0  0  0  0  0  0  0  0  0
  197.4580  173.4250  144.7220 N   0  0  0  0  0  2  0  0  0  0  0  0
  192.0950  174.5740  143.6630 C   0  0  0  0  0  0  0  0  0  0  0  0
  191.3360  172.6160  142.9060 N   0  0  0  0  0  0  0  0  0  0  0  0
  194.4860  174.5230  142.8670 C   0  0  1  0  0  3  0  0  0  0  0  0
  192.6390  172.7220  142.5500 C   0  0  0  0  0  3  0  0  0  0  0  0
  197.4050  171.1280  145.3360 C   0  0  0  0  0  3  0  0  0  0  0  0
  197.7410  172.0620  144.5070 N   0  0  0  0  0  0  0  0  0  0  0  0
  197.7360  169.7050  145.0620 C   0  0  0  0  0  2  0  0  0  0  0  0
  197.4070  169.3440  143.6210 C   0  0  0  0  0  2  0  0  0  0  0  0
  196.1190  168.5330  143.5350 C   0  0  0  0  0  2  0  0  0  0  0  0
  194.0110  169.2270  145.3560 C   0  0  0  0  0  1  0  0  0  0  0  0
  194.9500  169.3990  143.1510 C   0  0  0  0  0  0  0  0  0  0  0  0
  194.0180  169.6970  143.9900 N   0  0  0  0  0  0  0  0  0  0  0  0
  194.8640  170.0480  141.5200 Cl  0  0  0  0  0  0  0  0  0  0  0  0
  191.0160  170.3800  141.7300 C   0  0  0  0  0  2  0  0  0  0  0  0
  190.4400  170.4180  140.3210 C   0  0  2  0  0  3  0  0  0  0  0  0
  190.5910  169.0480  139.6910 C   0  0  0  0  0  1  0  0  0  0  0  0
  191.1650  171.4660  139.4730 C   0  0  0  0  0  2  0  0  0  0  0  0
  188.8220  172.3230  139.4100 C   0  0  0  0  0  1  0  0  0  0  0  0
  190.2650  172.6310  139.0410 C   0  0  1  0  0  0  0  0  0  0  0  0
  190.6570  173.8060  139.6900 O   0  0  0  0  0  1  0  0  0  0  0  0
  190.3550  172.8140  137.5160 C   0  0  1  0  0  3  0  0  0  0  0  0
  190.4440  174.1650  137.1570 O   0  0  0  0  0  1  0  0  0  0  0  0
  191.4350  171.9600  136.8310 C   0  0  1  0  0  3  0  0  0  0  0  0
  190.8570  171.2830  135.7570 O   0  0  0  0  0  1  0  0  0  0  0  0
  194.6820  171.6400  136.2940 C   0  0  0  0  0  2  0  0  0  0  0  0
  193.5080  173.0750  137.4190 O   0  0  0  0  0  0  0  0  0  0  0  0
  194.3130  172.0320  137.5840 O   0  0  0  0  0  0  0  0  0  0  0  0
  193.4930  171.8980  135.4300 C   0  0  0  0  0  2  0  0  0  0  0  0
  192.6640  172.7450  136.3460 C   0  0  1  0  0  3  0  0  0  0  0  0
  191.1390  176.6370  144.9020 C   0  0  0  0  0  2  0  0  0  0  0  0
  190.8240  177.8290  144.1350 N   0  0  0  0  0  2  0  0  0  0  0  0
  190.5740  177.3900  142.7700 C   0  0  0  0  0  2  0  0  0  0  0  0
  186.8000  178.0650  143.1470 C   0  0  1  0  0  3  0  0  0  0  0  0
  187.2450  176.7590  141.2140 C   0  0  0  0  0  2  0  0  0  0  0  0
  188.6030  176.4500  141.6580 N   0  0  0  0  0  2  0  0  0  0  0  0
  189.1200  177.6120  142.3790 C   0  0  1  0  0  3  0  0  0  0  0  0
  188.2530  177.9140  143.5980 C   0  0  0  0  0  2  0  0  0  0  0  0
  186.3670  176.8980  142.3740 N   0  0  0  0  0  2  0  0  0  0  0  0
  185.9250  177.9050  148.0890 C   0  0  0  0  0  1  0  0  0  0  0  0
  184.1780  178.6990  146.4900 C   0  0  0  0  0  3  0  0  0  0  0  0
  186.3260  177.9950  145.6250 C   0  0  0  0  0  3  0  0  0  0  0  0
  183.7480  178.9850  145.1910 C   0  0  0  0  0  3  0  0  0  0  0  0
  185.8970  178.2790  144.3190 C   0  0  0  0  0  0  0  0  0  0  0  0
  185.4670  178.2040  146.7080 C   0  0  0  0  0  0  0  0  0  0  0  0
  184.6090  178.7780  144.1070 C   0  0  0  0  0  3  0  0  0  0  0  0
  1 10  2  0  0  0  0
  1 42  1  0  0  0  0
  3  2  1  0  0  0  0
  3 12  1  0  0  0  0
  5 10  1  0  0  0  0
  5  2  1  0  0  0  0
  6 14  1  0  0  0  0
  6  7  2  0  0  0  0
  8 13  2  0  0  0  0
  8  4  1  0  0  0  0
  9  3  2  0  0  0  0
 11 13  1  0  0  0  0
 13  1  1  0  0  0  0
 14  8  1  0  0  0  0
 15 11  1  1  0  0  0
 15  9  1  0  0  0  0
 15  5  1  0  0  0  0
 16 14  1  0  0  0  0
 16 11  2  0  0  0  0
 18 12  1  0  0  0  0
 18 17  2  0  0  0  0
 19 17  1  0  0  0  0
 20 19  1  0  0  0  0
 21 20  1  0  0  0  0
 23 21  1  0  0  0  0
 23 24  2  0  0  0  0
 24 22  1  0  0  0  0
 25 23  1  0  0  0  0
 26  6  1  0  0  0  0
 27 28  1  6  0  0  0
 27 26  1  0  0  0  0
 29 27  1  0  0  0  0
 31 30  1  1  0  0  0
 31 29  1  0  0  0  0
 31 32  1  0  0  0  0
 33 34  1  1  0  0  0
 33 31  1  0  0  0  0
 35 36  1  6  0  0  0
 35 33  1  0  0  0  0
 37 39  1  0  0  0  0
 38 39  1  0  0  0  0
 40 37  1  0  0  0  0
 40 41  1  0  0  0  0
 41 35  1  1  0  0  0
 41 38  1  0  0  0  0
 43 42  1  0  0  0  0
 44 43  1  0  0  0  0
 45 49  1  0  0  0  0
 45 55  1  1  0  0  0
 46 47  1  0  0  0  0
 46 50  1  0  0  0  0
 47 48  1  0  0  0  0
 48 44  1  1  0  0  0
 48 49  1  0  0  0  0
 50 45  1  0  0  0  0
 52 56  1  0  0  0  0
 53 56  2  0  0  0  0
 54 52  2  0  0  0  0
 55 53  1  0  0  0  0
 56 51  1  0  0  0  0
 57 55  2  0  0  0  0
 57 54  1  0  0  0  0
M  END
>  <MODEL>
6

>  <REMARK>
 VINA RESULT:      -6.0      3.231      6.057
  Name = 
  17 active torsions:
  status: ('A' for Active; 'I' for Inactive)
    1  A    between atoms: C_1  and  C_22
    2  A    between atoms: C_1  and  C_24
    3  A    between atoms: C_2  and  C_40
    4  A    between atoms: C_4  and  C_44
    5  A    between atoms: N_7  and  N_46
    6  A    between atoms: C_12  and  C_37
    7  A    between atoms: C_14  and  C_54
    8  A    between atoms: C_16  and  C_24
    9  A    between atoms: C_16  and  C_28
   10  A    between atoms: C_17  and  C_39
   11  A    between atoms: C_22  and  C_39
   12  A    between atoms: N_23  and  C_26
   13  A    between atoms: N_23  and  C_40
   14  A    between atoms: C_26  and  C_31
   15  A    between atoms: C_28  and  C_56
   16  A    between atoms: C_44  and  C_45
   17  A    between atoms: C_45  and  C_54
                            x       y       z     vdW  Elec       q    Type
                         _______ _______ _______ _____ _____    ______ ____

>  <TORSDO>
F 17

$$$$
=
 OpenBabel11042419063D

 57 62  0  0  1  0  0  0  0  0999 V2000
  195.8980  174.9240  144.0380 C   0  0  0  0  0  0  0  0  0  0  0  0
  197.7100  175.4870  140.5590 S   0  0  0  0  0  0  0  0  0  0  0  0
  196.3930  174.7870  139.5740 C   0  0  0  0  0  0  0  0  0  0  0  0
  193.3320  173.6210  145.5060 C   0  0  0  0  0  1  0  0  0  0  0  0
  196.4990  175.7060  141.8200 N   0  0  0  0  0  0  0  0  0  0  0  0
  191.0490  173.6840  143.4110 C   0  0  0  0  0  0  0  0  0  0  0  0
  190.7310  173.0760  144.4690 O   0  0  0  0  0  0  0  0  0  0  0  0
  193.4150  174.1490  144.1100 C   0  0  0  0  0  0  0  0  0  0  0  0
  195.1930  174.9450  140.0330 N   0  0  0  0  0  0  0  0  0  0  0  0
  196.8260  175.3850  143.1870 C   0  0  0  0  0  3  0  0  0  0  0  0
  194.1870  175.0230  142.2390 C   0  0  0  0  0  0  0  0  0  0  0  0
  196.6730  173.9990  138.4070 N   0  0  0  0  0  2  0  0  0  0  0  0
  194.5380  174.6940  143.5210 C   0  0  0  0  0  0  0  0  0  0  0  0
  192.3940  174.1540  143.2130 N   0  0  0  0  0  0  0  0  0  0  0  0
  195.1310  175.6840  141.2800 C   0  0  1  0  0  3  0  0  0  0  0  0
  192.8550  174.7010  142.0620 C   0  0  0  0  0  3  0  0  0  0  0  0
  195.4320  172.2260  137.4210 C   0  0  0  0  0  3  0  0  0  0  0  0
  195.7100  173.4850  137.5170 N   0  0  0  0  0  0  0  0  0  0  0  0
  194.4110  171.7380  136.4570 C   0  0  0  0  0  2  0  0  0  0  0  0
  193.1140  171.3960  137.1750 C   0  0  0  0  0  2  0  0  0  0  0  0
  191.9350  172.1580  136.5790 C   0  0  0  0  0  2  0  0  0  0  0  0
  190.0020  172.2910  138.6970 C   0  0  0  0  0  1  0  0  0  0  0  0
  191.6460  173.4150  137.3540 C   0  0  0  0  0  0  0  0  0  0  0  0
  190.7740  173.4460  138.3020 N   0  0  0  0  0  0  0  0  0  0  0  0
  192.5430  174.8790  136.9760 Cl  0  0  0  0  0  0  0  0  0  0  0  0
  190.0200  173.8760  142.3360 C   0  0  0  0  0  2  0  0  0  0  0  0
  188.9910  174.9380  142.7020 C   0  0  2  0  0  3  0  0  0  0  0  0
  187.9470  175.0090  141.6060 C   0  0  0  0  0  1  0  0  0  0  0  0
  189.6650  176.3030  142.8710 C   0  0  0  0  0  2  0  0  0  0  0  0
  190.6620  176.8550  145.0910 C   0  0  0  0  0  1  0  0  0  0  0  0
  189.4050  176.9460  144.2390 C   0  0  1  0  0  0  0  0  0  0  0  0
  189.0640  178.2920  144.0800 O   0  0  0  0  0  1  0  0  0  0  0  0
  188.2700  176.1930  144.9550 C   0  0  1  0  0  3  0  0  0  0  0  0
  188.6980  175.6340  146.1660 O   0  0  0  0  0  1  0  0  0  0  0  0
  186.9690  176.9970  145.1160 C   0  0  1  0  0  3  0  0  0  0  0  0
  186.0110  176.4790  144.2430 O   0  0  0  0  0  1  0  0  0  0  0  0
  184.5260  178.3040  146.9200 C   0  0  0  0  0  2  0  0  0  0  0  0
  186.6790  178.2570  147.1690 O   0  0  0  0  0  0  0  0  0  0  0  0
  185.6900  179.0710  146.8240 O   0  0  0  0  0  0  0  0  0  0  0  0
  184.9110  176.9210  146.5150 C   0  0  0  0  0  2  0  0  0  0  0  0
  186.4040  177.0290  146.5450 C   0  0  1  0  0  3  0  0  0  0  0  0
  196.2570  174.6350  145.4560 C   0  0  0  0  0  2  0  0  0  0  0  0
  197.3390  173.6690  145.5210 N   0  0  0  0  0  2  0  0  0  0  0  0
  196.7690  172.4440  146.0630 C   0  0  0  0  0  2  0  0  0  0  0  0
  195.9830  170.0340  143.1610 C   0  0  1  0  0  3  0  0  0  0  0  0
  197.2640  168.9550  144.8430 C   0  0  0  0  0  2  0  0  0  0  0  0
  197.0030  170.0170  145.8140 N   0  0  0  0  0  2  0  0  0  0  0  0
  196.9300  171.2850  145.0890 C   0  0  1  0  0  3  0  0  0  0  0  0
  195.7970  171.2520  144.0670 C   0  0  0  0  0  2  0  0  0  0  0  0
  196.1160  168.8090  143.9520 N   0  0  0  0  0  2  0  0  0  0  0  0
  191.0870  170.3420  142.0870 C   0  0  0  0  0  1  0  0  0  0  0  0
  192.7540  169.6760  140.3510 C   0  0  0  0  0  3  0  0  0  0  0  0
  193.5290  170.1770  142.5880 C   0  0  0  0  0  3  0  0  0  0  0  0
  194.0680  169.4130  139.9530 C   0  0  0  0  0  3  0  0  0  0  0  0
  194.8500  169.9110  142.1940 C   0  0  0  0  0  0  0  0  0  0  0  0
  192.4830  170.0580  141.6680 C   0  0  0  0  0  0  0  0  0  0  0  0
  195.1160  169.5340  140.8750 C   0  0  0  0  0  3  0  0  0  0  0  0
  1 42  1  0  0  0  0
  2  5  1  0  0  0  0
  3  9  2  0  0  0  0
  3  2  1  0  0  0  0
  5 10  1  0  0  0  0
  6  7  2  0  0  0  0
  8  4  1  0  0  0  0
 10  1  2  0  0  0  0
 11 13  1  0  0  0  0
 12  3  1  0  0  0  0
 13  1  1  0  0  0  0
 13  8  2  0  0  0  0
 14  6  1  0  0  0  0
 14  8  1  0  0  0  0
 15  9  1  6  0  0  0
 15  5  1  0  0  0  0
 15 11  1  0  0  0  0
 16 11  2  0  0  0  0
 16 14  1  0  0  0  0
 17 18  2  0  0  0  0
 18 12  1  0  0  0  0
 19 20  1  0  0  0  0
 19 17  1  0  0  0  0
 21 20  1  0  0  0  0
 21 23  1  0  0  0  0
 23 24  2  0  0  0  0
 24 22  1  0  0  0  0
 25 23  1  0  0  0  0
 26 27  1  0  0  0  0
 26  6  1  0  0  0  0
 27 28  1  6  0  0  0
 27 29  1  0  0  0  0
 29 31  1  0  0  0  0
 31 33  1  0  0  0  0
 31 30  1  1  0  0  0
 32 31  1  0  0  0  0
 33 35  1  0  0  0  0
 33 34  1  1  0  0  0
 35 36  1  6  0  0  0
 39 37  1  0  0  0  0
 39 38  1  0  0  0  0
 40 41  1  0  0  0  0
 40 37  1  0  0  0  0
 41 35  1  6  0  0  0
 41 38  1  0  0  0  0
 42 43  1  0  0  0  0
 43 44  1  0  0  0  0
 45 55  1  6  0  0  0
 45 50  1  0  0  0  0
 45 49  1  0  0  0  0
 46 47  1  0  0  0  0
 48 47  1  0  0  0  0
 48 44  1  1  0  0  0
 49 48  1  0  0  0  0
 50 46  1  0  0  0  0
 52 56  1  0  0  0  0
 54 52  2  0  0  0  0
 54 57  1  0  0  0  0
 55 53  1  0  0  0  0
 56 51  1  0  0  0  0
 56 53  2  0  0  0  0
 57 55  2  0  0  0  0
M  END
>  <MODEL>
7

>  <REMARK>
 VINA RESULT:      -6.0      3.058      8.369
  Name = 
  17 active torsions:
  status: ('A' for Active; 'I' for Inactive)
    1  A    between atoms: C_1  and  C_22
    2  A    between atoms: C_1  and  C_24
    3  A    between atoms: C_2  and  C_40
    4  A    between atoms: C_4  and  C_44
    5  A    between atoms: N_7  and  N_46
    6  A    between atoms: C_12  and  C_37
    7  A    between atoms: C_14  and  C_54
    8  A    between atoms: C_16  and  C_24
    9  A    between atoms: C_16  and  C_28
   10  A    between atoms: C_17  and  C_39
   11  A    between atoms: C_22  and  C_39
   12  A    between atoms: N_23  and  C_26
   13  A    between atoms: N_23  and  C_40
   14  A    between atoms: C_26  and  C_31
   15  A    between atoms: C_28  and  C_56
   16  A    between atoms: C_44  and  C_45
   17  A    between atoms: C_45  and  C_54
                            x       y       z     vdW  Elec       q    Type
                         _______ _______ _______ _____ _____    ______ ____

>  <TORSDO>
F 17

$$$$
=
 OpenBabel11042419063D

 57 62  0  0  1  0  0  0  0  0999 V2000
  192.8290  170.7980  142.9520 C   0  0  0  0  0  0  0  0  0  0  0  0
  189.9820  172.9920  144.6200 S   0  0  0  0  0  0  0  0  0  0  0  0
  189.3130  173.5940  143.0750 C   0  0  0  0  0  0  0  0  0  0  0  0
  194.2840  170.0170  140.1740 C   0  0  0  0  0  1  0  0  0  0  0  0
  190.6880  171.6830  143.6750 N   0  0  0  0  0  0  0  0  0  0  0  0
  192.1180  170.3290  137.9800 C   0  0  0  0  0  0  0  0  0  0  0  0
  193.2620  170.0710  137.5130 O   0  0  0  0  0  0  0  0  0  0  0  0
  192.8650  170.4410  140.3740 C   0  0  0  0  0  0  0  0  0  0  0  0
  189.3940  172.7860  142.0670 N   0  0  0  0  0  0  0  0  0  0  0  0
  192.0450  171.2690  143.9320 C   0  0  0  0  0  3  0  0  0  0  0  0
  190.9900  171.1220  141.3130 C   0  0  0  0  0  0  0  0  0  0  0  0
  188.8250  174.9380  142.9470 N   0  0  0  0  0  2  0  0  0  0  0  0
  192.2860  170.7710  141.5830 C   0  0  0  0  0  0  0  0  0  0  0  0
  191.9420  170.5750  139.3860 N   0  0  0  0  0  0  0  0  0  0  0  0
  190.0120  171.5110  142.3800 C   0  0  1  0  0  3  0  0  0  0  0  0
  190.7800  170.9820  139.9540 C   0  0  0  0  0  3  0  0  0  0  0  0
  187.6470  176.6450  141.7840 C   0  0  0  0  0  3  0  0  0  0  0  0
  188.1980  175.4750  141.8070 N   0  0  0  0  0  0  0  0  0  0  0  0
  186.9920  177.1600  140.5540 C   0  0  0  0  0  2  0  0  0  0  0  0
  186.0330  178.2930  140.8870 C   0  0  0  0  0  2  0  0  0  0  0  0
  184.5860  177.8160  140.8690 C   0  0  0  0  0  2  0  0  0  0  0  0
  181.7600  178.3220  140.8890 C   0  0  0  0  0  1  0  0  0  0  0  0
  183.8400  178.2770  142.0910 C   0  0  0  0  0  0  0  0  0  0  0  0
  182.5700  178.4950  142.0730 N   0  0  0  0  0  0  0  0  0  0  0  0
  184.7190  178.4990  143.5970 Cl  0  0  0  0  0  0  0  0  0  0  0  0
  190.9470  170.4210  137.0470 C   0  0  0  0  0  2  0  0  0  0  0  0
  190.5880  171.8620  136.7080 C   0  0  2  0  0  3  0  0  0  0  0  0
  189.4190  171.8640  135.7440 C   0  0  0  0  0  1  0  0  0  0  0  0
  191.7850  172.5790  136.0780 C   0  0  0  0  0  2  0  0  0  0  0  0
  191.5940  175.0670  136.0650 C   0  0  0  0  0  1  0  0  0  0  0  0
  192.1740  173.8730  136.8060 C   0  0  1  0  0  0  0  0  0  0  0  0
  191.6690  173.8600  138.1090 O   0  0  0  0  0  1  0  0  0  0  0  0
  193.7060  174.0080  136.8330 C   0  0  1  0  0  3  0  0  0  0  0  0
  194.1420  175.1530  136.1530 O   0  0  0  0  0  1  0  0  0  0  0  0
  194.3350  173.8910  138.2320 C   0  0  1  0  0  3  0  0  0  0  0  0
  195.2740  172.8590  138.2170 O   0  0  0  0  0  1  0  0  0  0  0  0
  196.3660  175.0090  140.5900 C   0  0  0  0  0  2  0  0  0  0  0  0
  194.3850  175.6100  139.9440 O   0  0  0  0  0  0  0  0  0  0  0  0
  195.0100  174.9670  140.9230 O   0  0  0  0  0  0  0  0  0  0  0  0
  196.4260  174.9280  139.1010 C   0  0  0  0  0  2  0  0  0  0  0  0
  194.9920  175.1800  138.7520 C   0  0  1  0  0  3  0  0  0  0  0  0
  194.2160  170.3430  143.2540 C   0  0  0  0  0  2  0  0  0  0  0  0
  195.1210  171.4770  143.3260 N   0  0  0  0  0  2  0  0  0  0  0  0
  195.4550  171.6520  144.7310 C   0  0  0  0  0  2  0  0  0  0  0  0
  194.0870  175.1070  145.7490 C   0  0  1  0  0  3  0  0  0  0  0  0
  196.1140  175.3170  144.5310 C   0  0  0  0  0  2  0  0  0  0  0  0
  196.0500  173.9330  144.0610 N   0  0  0  0  0  2  0  0  0  0  0  0
  195.4470  173.1240  145.1190 C   0  0  1  0  0  3  0  0  0  0  0  0
  194.0340  173.6130  145.4270 C   0  0  0  0  0  2  0  0  0  0  0  0
  194.7610  175.8490  144.6810 N   0  0  0  0  0  2  0  0  0  0  0  0
  190.1930  177.9210  144.2880 C   0  0  0  0  0  1  0  0  0  0  0  0
  190.1350  176.6460  146.4340 C   0  0  0  0  0  3  0  0  0  0  0  0
  192.1130  176.5140  145.0450 C   0  0  0  0  0  3  0  0  0  0  0  0
  190.7280  175.7850  147.3620 C   0  0  0  0  0  3  0  0  0  0  0  0
  192.7130  175.6520  145.9760 C   0  0  0  0  0  0  0  0  0  0  0  0
  190.8260  177.0110  145.2750 C   0  0  0  0  0  0  0  0  0  0  0  0
  192.0160  175.2860  147.1310 C   0  0  0  0  0  3  0  0  0  0  0  0
  1 42  1  0  0  0  0
  1 10  2  0  0  0  0
  3  2  1  0  0  0  0
  4  8  1  0  0  0  0
  5 10  1  0  0  0  0
  5  2  1  0  0  0  0
  6 14  1  0  0  0  0
  7  6  2  0  0  0  0
  8 13  2  0  0  0  0
  9 15  1  0  0  0  0
  9  3  2  0  0  0  0
 11 13  1  0  0  0  0
 12  3  1  0  0  0  0
 13  1  1  0  0  0  0
 14 16  1  0  0  0  0
 14  8  1  0  0  0  0
 15 11  1  6  0  0  0
 15  5  1  0  0  0  0
 16 11  2  0  0  0  0
 17 18  2  0  0  0  0
 18 12  1  0  0  0  0
 19 20  1  0  0  0  0
 19 17  1  0  0  0  0
 21 20  1  0  0  0  0
 21 23  1  0  0  0  0
 22 24  1  0  0  0  0
 23 25  1  0  0  0  0
 24 23  2  0  0  0  0
 26  6  1  0  0  0  0
 27 28  1  6  0  0  0
 27 26  1  0  0  0  0
 29 27  1  0  0  0  0
 29 31  1  0  0  0  0
 31 30  1  6  0  0  0
 31 33  1  0  0  0  0
 31 32  1  0  0  0  0
 33 34  1  1  0  0  0
 33 35  1  0  0  0  0
 35 36  1  6  0  0  0
 37 39  1  0  0  0  0
 38 39  1  0  0  0  0
 40 37  1  0  0  0  0
 41 35  1  1  0  0  0
 41 40  1  0  0  0  0
 41 38  1  0  0  0  0
 42 43  1  0  0  0  0
 43 44  1  0  0  0  0
 45 55  1  6  0  0  0
 46 50  1  0  0  0  0
 47 46  1  0  0  0  0
 47 48  1  0  0  0  0
 48 44  1  6  0  0  0
 48 49  1  0  0  0  0
 49 45  1  0  0  0  0
 50 45  1  0  0  0  0
 51 56  1  0  0  0  0
 52 54  1  0  0  0  0
 53 56  1  0  0  0  0
 53 55  2  0  0  0  0
 55 57  1  0  0  0  0
 56 52  2  0  0  0  0
 57 54  2  0  0  0  0
M  END
>  <MODEL>
8

>  <REMARK>
 VINA RESULT:      -6.0      3.497      8.807
  Name = 
  17 active torsions:
  status: ('A' for Active; 'I' for Inactive)
    1  A    between atoms: C_1  and  C_22
    2  A    between atoms: C_1  and  C_24
    3  A    between atoms: C_2  and  C_40
    4  A    between atoms: C_4  and  C_44
    5  A    between atoms: N_7  and  N_46
    6  A    between atoms: C_12  and  C_37
    7  A    between atoms: C_14  and  C_54
    8  A    between atoms: C_16  and  C_24
    9  A    between atoms: C_16  and  C_28
   10  A    between atoms: C_17  and  C_39
   11  A    between atoms: C_22  and  C_39
   12  A    between atoms: N_23  and  C_26
   13  A    between atoms: N_23  and  C_40
   14  A    between atoms: C_26  and  C_31
   15  A    between atoms: C_28  and  C_56
   16  A    between atoms: C_44  and  C_45
   17  A    between atoms: C_45  and  C_54
                            x       y       z     vdW  Elec       q    Type
                         _______ _______ _______ _____ _____    ______ ____

>  <TORSDO>
F 17

$$$$
=
 OpenBabel11042419063D

 57 62  0  0  1  0  0  0  0  0999 V2000
  188.1980  174.5470  138.5830 C   0  0  0  0  0  0  0  0  0  0  0  0
  190.6560  174.8750  135.4930 S   0  0  0  0  0  0  0  0  0  0  0  0
  192.0740  174.1880  136.3380 C   0  0  0  0  0  0  0  0  0  0  0  0
  187.9690  173.7840  141.7140 C   0  0  0  0  0  1  0  0  0  0  0  0
  189.6770  174.0720  136.7180 N   0  0  0  0  0  0  0  0  0  0  0  0
  190.1920  171.6860  142.2280 C   0  0  0  0  0  0  0  0  0  0  0  0
  189.5970  172.0440  143.2820 O   0  0  0  0  0  0  0  0  0  0  0  0
  188.9380  173.2460  140.7120 C   0  0  0  0  0  0  0  0  0  0  0  0
  191.8210  173.2870  137.2330 N   0  0  0  0  0  0  0  0  0  0  0  0
  188.5650  174.7710  137.3130 C   0  0  0  0  0  3  0  0  0  0  0  0
  190.0410  172.8990  138.8340 C   0  0  0  0  0  0  0  0  0  0  0  0
  193.3970  174.6960  136.1100 N   0  0  0  0  0  2  0  0  0  0  0  0
  189.0020  173.6060  139.3800 C   0  0  0  0  0  0  0  0  0  0  0  0
  189.9070  172.3300  140.9730 N   0  0  0  0  0  0  0  0  0  0  0  0
  190.4100  172.9840  137.3840 C   0  0  1  0  0  3  0  0  0  0  0  0
  190.5840  172.1000  139.8220 C   0  0  0  0  0  3  0  0  0  0  0  0
  195.2980  174.7810  137.5360 C   0  0  0  0  0  3  0  0  0  0  0  0
  194.5820  174.1650  136.6520 N   0  0  0  0  0  0  0  0  0  0  0  0
  196.5460  174.1750  138.0690 C   0  0  0  0  0  2  0  0  0  0  0  0
  197.0290  174.9310  139.2980 C   0  0  0  0  0  2  0  0  0  0  0  0
  196.2990  174.4680  140.5540 C   0  0  0  0  0  2  0  0  0  0  0  0
  193.4520  174.7790  140.3730 C   0  0  0  0  0  1  0  0  0  0  0  0
  195.5510  175.6010  141.2020 C   0  0  0  0  0  0  0  0  0  0  0  0
  194.2710  175.7150  141.1060 N   0  0  0  0  0  0  0  0  0  0  0  0
  196.4420  176.7900  142.1400 Cl  0  0  0  0  0  0  0  0  0  0  0  0
  191.2340  170.6100  142.3020 C   0  0  0  0  0  2  0  0  0  0  0  0
  192.5290  171.1000  142.9370 C   0  0  2  0  0  3  0  0  0  0  0  0
  193.5070  169.9440  143.0130 C   0  0  0  0  0  1  0  0  0  0  0  0
  192.2630  171.6510  144.3410 C   0  0  0  0  0  2  0  0  0  0  0  0
  194.2250  172.6080  145.5500 C   0  0  0  0  0  1  0  0  0  0  0  0
  193.0430  172.9350  144.6500 C   0  0  1  0  0  0  0  0  0  0  0  0
  193.5210  173.5030  143.4650 O   0  0  0  0  0  1  0  0  0  0  0  0
  192.1270  173.9310  145.3820 C   0  0  1  0  0  3  0  0  0  0  0  0
  192.7780  174.5410  146.4630 O   0  0  0  0  0  1  0  0  0  0  0  0
  191.4350  174.9570  144.4690 C   0  0  1  0  0  3  0  0  0  0  0  0
  190.0530  174.8120  144.5990 O   0  0  0  0  0  1  0  0  0  0  0  0
  190.6970  178.0510  143.5670 C   0  0  0  0  0  2  0  0  0  0  0  0
  192.5600  176.9450  143.6520 O   0  0  0  0  0  0  0  0  0  0  0  0
  191.6600  177.4030  142.7900 O   0  0  0  0  0  0  0  0  0  0  0  0
  190.6050  177.2750  144.8380 C   0  0  0  0  0  2  0  0  0  0  0  0
  191.8290  176.4200  144.7300 C   0  0  1  0  0  3  0  0  0  0  0  0
  187.0210  175.2570  139.1600 C   0  0  0  0  0  2  0  0  0  0  0  0
  187.4440  176.4540  139.8670 N   0  0  0  0  0  2  0  0  0  0  0  0
  186.6060  177.5400  139.3800 C   0  0  0  0  0  2  0  0  0  0  0  0
  185.4870  178.4030  142.9640 C   0  0  1  0  0  3  0  0  0  0  0  0
  183.6470  178.4340  141.4650 C   0  0  0  0  0  2  0  0  0  0  0  0
  184.3980  177.7300  140.4260 N   0  0  0  0  0  2  0  0  0  0  0  0
  185.7940  178.1580  140.5100 C   0  0  1  0  0  3  0  0  0  0  0  0
  186.3800  177.8070  141.8760 C   0  0  0  0  0  2  0  0  0  0  0  0
  184.0930  177.9900  142.7830 N   0  0  0  0  0  2  0  0  0  0  0  0
  185.9480  179.3200  147.8800 C   0  0  0  0  0  1  0  0  0  0  0  0
  186.8970  177.2500  146.8540 C   0  0  0  0  0  3  0  0  0  0  0  0
  185.7380  178.8340  145.4380 C   0  0  0  0  0  3  0  0  0  0  0  0
  187.1310  176.4300  145.7470 C   0  0  0  0  0  3  0  0  0  0  0  0
  185.9740  178.0150  144.3230 C   0  0  0  0  0  0  0  0  0  0  0  0
  186.2010  178.4520  146.7020 C   0  0  0  0  0  0  0  0  0  0  0  0
  186.6670  176.8120  144.4820 C   0  0  0  0  0  3  0  0  0  0  0  0
  1 42  1  0  0  0  0
  1 13  1  0  0  0  0
  2  3  1  0  0  0  0
  2  5  1  0  0  0  0
  3  9  2  0  0  0  0
  5 10  1  0  0  0  0
  5 15  1  0  0  0  0
  6 26  1  0  0  0  0
  6  7  2  0  0  0  0
  8 14  1  0  0  0  0
  8  4  1  0  0  0  0
 10  1  2  0  0  0  0
 11 13  1  0  0  0  0
 11 16  2  0  0  0  0
 12  3  1  0  0  0  0
 12 18  1  0  0  0  0
 13  8  2  0  0  0  0
 14  6  1  0  0  0  0
 15  9  1  1  0  0  0
 15 11  1  0  0  0  0
 16 14  1  0  0  0  0
 17 19  1  0  0  0  0
 18 17  2  0  0  0  0
 19 20  1  0  0  0  0
 20 21  1  0  0  0  0
 21 23  1  0  0  0  0
 22 24  1  0  0  0  0
 23 25  1  0  0  0  0
 24 23  2  0  0  0  0
 26 27  1  0  0  0  0
 27 28  1  1  0  0  0
 27 29  1  0  0  0  0
 29 31  1  0  0  0  0
 31 33  1  0  0  0  0
 31 30  1  1  0  0  0
 32 31  1  0  0  0  0
 33 34  1  1  0  0  0
 35 36  1  1  0  0  0
 35 33  1  0  0  0  0
 37 40  1  0  0  0  0
 38 41  1  0  0  0  0
 39 37  1  0  0  0  0
 39 38  1  0  0  0  0
 41 35  1  6  0  0  0
 41 40  1  0  0  0  0
 42 43  1  0  0  0  0
 44 43  1  0  0  0  0
 45 55  1  1  0  0  0
 46 50  1  0  0  0  0
 47 48  1  0  0  0  0
 47 46  1  0  0  0  0
 48 44  1  6  0  0  0
 48 49  1  0  0  0  0
 49 45  1  0  0  0  0
 50 45  1  0  0  0  0
 53 56  2  0  0  0  0
 54 52  2  0  0  0  0
 55 57  2  0  0  0  0
 55 53  1  0  0  0  0
 56 52  1  0  0  0  0
 56 51  1  0  0  0  0
 57 54  1  0  0  0  0
M  END
>  <MODEL>
9

>  <REMARK>
 VINA RESULT:      -6.0      1.619      2.065
  Name = 
  17 active torsions:
  status: ('A' for Active; 'I' for Inactive)
    1  A    between atoms: C_1  and  C_22
    2  A    between atoms: C_1  and  C_24
    3  A    between atoms: C_2  and  C_40
    4  A    between atoms: C_4  and  C_44
    5  A    between atoms: N_7  and  N_46
    6  A    between atoms: C_12  and  C_37
    7  A    between atoms: C_14  and  C_54
    8  A    between atoms: C_16  and  C_24
    9  A    between atoms: C_16  and  C_28
   10  A    between atoms: C_17  and  C_39
   11  A    between atoms: C_22  and  C_39
   12  A    between atoms: N_23  and  C_26
   13  A    between atoms: N_23  and  C_40
   14  A    between atoms: C_26  and  C_31
   15  A    between atoms: C_28  and  C_56
   16  A    between atoms: C_44  and  C_45
   17  A    between atoms: C_45  and  C_54
                            x       y       z     vdW  Elec       q    Type
                         _______ _______ _______ _____ _____    ______ ____

>  <TORSDO>
F 17

$$$$
