=
 OpenBabel11042417283D

 29 31  0  0  0  0  0  0  0  0999 V2000
  189.9540  176.4270  142.6530 N   0  0  0  0  0  0  0  0  0  0  0  0
  190.7470  176.7200  143.6460 C   0  0  0  0  0  0  0  0  0  0  0  0
  197.5650  175.1760  141.5990 C   0  0  0  0  0  1  0  0  0  0  0  0
  195.5070  176.3170  144.5140 C   0  0  0  0  0  3  0  0  0  0  0  0
  194.2400  176.3240  143.9440 C   0  0  0  0  0  0  0  0  0  0  0  0
  192.1910  176.4770  143.4970 C   0  0  0  0  0  0  0  0  0  0  0  0
  194.0510  175.9690  142.6480 C   0  0  0  0  0  0  0  0  0  0  0  0
  196.5570  175.9400  143.7240 N   0  0  0  0  0  0  0  0  0  0  0  0
  192.7520  176.0550  142.3310 N   0  0  0  0  0  0  0  0  0  0  0  0
  196.3870  175.5770  142.4120 C   0  0  0  0  0  0  0  0  0  0  0  0
  195.1060  175.5830  141.8300 C   0  0  0  0  0  3  0  0  0  0  0  0
  193.0750  176.6540  144.5170 N   0  0  0  0  0  2  0  0  0  0  0  0
  187.7590  177.9590  142.0350 S   0  0  0  0  0  0  0  0  0  0  0  0
  187.5650  175.6380  142.9670 C   0  0  0  0  0  3  0  0  0  0  0  0
  188.5260  176.5710  142.5870 C   0  0  0  0  0  0  0  0  0  0  0  0
  186.2250  177.3180  142.2950 C   0  0  0  0  0  0  0  0  0  0  0  0
  186.2840  176.0650  142.7980 N   0  0  0  0  0  0  0  0  0  0  0  0
  184.0400  178.0180  142.8640 O   0  0  0  0  0  0  0  0  0  0  0  0
  184.9700  178.0210  142.0160 C   0  0  0  0  0  0  0  0  0  0  0  0
  184.8050  178.6780  140.8420 F   0  0  0  0  0  0  0  0  0  0  0  0
  190.2370  177.2440  144.9520 C   0  0  0  0  0  2  0  0  0  0  0  0
  188.5740  175.0160  147.3220 O   0  0  0  0  0  0  0  0  0  0  0  0
  187.6920  176.9460  146.3460 N   0  0  0  0  0  2  0  0  0  0  0  0
  188.7420  175.9920  146.5450 C   0  0  0  0  0  0  0  0  0  0  0  0
  189.9840  176.1350  145.8600 N   0  0  0  0  0  2  0  0  0  0  0  0
  186.4150  176.8620  147.0370 C   0  0  0  0  0  2  0  0  0  0  0  0
  185.2900  177.2860  146.1060 C   0  0  0  0  0  2  0  0  0  0  0  0
  185.6830  179.4920  145.2860 O   0  0  0  0  0  1  0  0  0  0  0  0
  185.0050  178.7670  146.2670 C   0  0  0  0  0  2  0  0  0  0  0  0
  1  2  2  0  0  0  0
  2 21  1  0  0  0  0
  3 10  1  0  0  0  0
  5  4  1  0  0  0  0
  5 12  1  0  0  0  0
  6  2  1  0  0  0  0
  6 12  1  0  0  0  0
  7  5  2  0  0  0  0
  8  4  2  0  0  0  0
  9  7  1  0  0  0  0
  9  6  2  0  0  0  0
 10  8  1  0  0  0  0
 11 10  2  0  0  0  0
 11  7  1  0  0  0  0
 13 16  1  0  0  0  0
 13 15  1  0  0  0  0
 15  1  1  0  0  0  0
 15 14  2  0  0  0  0
 16 17  2  0  0  0  0
 17 14  1  0  0  0  0
 19 16  1  0  0  0  0
 19 18  2  0  0  0  0
 20 19  1  0  0  0  0
 21 25  1  0  0  0  0
 23 24  1  0  0  0  0
 23 26  1  0  0  0  0
 24 22  2  0  0  0  0
 25 24  1  0  0  0  0
 27 29  1  0  0  0  0
 27 26  1  0  0  0  0
 28 29  1  0  0  0  0
M  END
>  <MODEL>
1

>  <REMARK>
 VINA RESULT:      -6.4      0.000      0.000
  Name = 
  8 active torsions:
  status: ('A' for Active; 'I' for Inactive)
    1  A    between atoms: C_6  and  C_17
    2  A    between atoms: N_7  and  C_12
    3  A    between atoms: N_8  and  C_22
    4  A    between atoms: C_10  and  C_17
    5  A    between atoms: C_10  and  N_18
    6  A    between atoms: C_12  and  C_20
    7  A    between atoms: C_20  and  C_23
    8  A    between atoms: C_21  and  C_26
                            x       y       z     vdW  Elec       q    Type
                         _______ _______ _______ _____ _____    ______ ____

>  <TORSDO>
F 8

$$$$
=
 OpenBabel11042417283D

 29 31  0  0  0  0  0  0  0  0999 V2000
  191.6360  176.4090  145.8440 N   0  0  0  0  0  0  0  0  0  0  0  0
  190.7050  176.3910  144.9320 C   0  0  0  0  0  0  0  0  0  0  0  0
  183.9340  178.9630  145.7110 C   0  0  0  0  0  1  0  0  0  0  0  0
  186.4370  176.6310  147.2370 C   0  0  0  0  0  3  0  0  0  0  0  0
  187.5050  176.7970  146.3640 C   0  0  0  0  0  0  0  0  0  0  0  0
  189.3280  176.7430  145.3160 C   0  0  0  0  0  0  0  0  0  0  0  0
  187.4230  177.6420  145.3060 C   0  0  0  0  0  0  0  0  0  0  0  0
  185.3010  177.3480  146.9930 N   0  0  0  0  0  0  0  0  0  0  0  0
  188.5710  177.6310  144.6150 N   0  0  0  0  0  0  0  0  0  0  0  0
  185.1960  178.2080  145.9290 C   0  0  0  0  0  0  0  0  0  0  0  0
  186.2750  178.3800  145.0410 C   0  0  0  0  0  3  0  0  0  0  0  0
  188.7070  176.2060  146.4020 N   0  0  0  0  0  2  0  0  0  0  0  0
  193.6570  174.5500  145.9000 S   0  0  0  0  0  0  0  0  0  0  0  0
  194.0660  176.9710  145.3870 C   0  0  0  0  0  3  0  0  0  0  0  0
  193.0300  176.0940  145.6950 C   0  0  0  0  0  0  0  0  0  0  0  0
  195.2310  175.0540  145.5820 C   0  0  0  0  0  0  0  0  0  0  0  0
  195.2900  176.3800  145.3240 N   0  0  0  0  0  0  0  0  0  0  0  0
  196.9130  173.7970  144.4940 O   0  0  0  0  0  0  0  0  0  0  0  0
  196.4040  174.1760  145.5810 C   0  0  0  0  0  0  0  0  0  0  0  0
  196.9460  173.7650  146.7540 F   0  0  0  0  0  0  0  0  0  0  0  0
  190.9730  175.9720  143.5200 C   0  0  0  0  0  2  0  0  0  0  0  0
  188.3620  173.8630  142.0770 O   0  0  0  0  0  0  0  0  0  0  0  0
  188.6670  176.1550  141.7430 N   0  0  0  0  0  2  0  0  0  0  0  0
  189.0330  174.8990  142.3260 C   0  0  0  0  0  0  0  0  0  0  0  0
  190.1630  174.8090  143.1920 N   0  0  0  0  0  2  0  0  0  0  0  0
  187.5120  176.3100  140.8730 C   0  0  0  0  0  2  0  0  0  0  0  0
  187.0070  177.7420  140.9270 C   0  0  0  0  0  2  0  0  0  0  0  0
  184.7480  178.1830  140.3000 O   0  0  0  0  0  1  0  0  0  0  0  0
  185.5540  177.7720  141.3610 C   0  0  0  0  0  2  0  0  0  0  0  0
  2  6  1  0  0  0  0
  2  1  2  0  0  0  0
  3 10  1  0  0  0  0
  5 12  1  0  0  0  0
  5  4  2  0  0  0  0
  6 12  1  0  0  0  0
  7  5  1  0  0  0  0
  8  4  1  0  0  0  0
  9  7  1  0  0  0  0
  9  6  2  0  0  0  0
 10  8  2  0  0  0  0
 11  7  2  0  0  0  0
 11 10  1  0  0  0  0
 14 15  2  0  0  0  0
 15  1  1  0  0  0  0
 15 13  1  0  0  0  0
 16 13  1  0  0  0  0
 17 14  1  0  0  0  0
 17 16  2  0  0  0  0
 18 19  2  0  0  0  0
 19 16  1  0  0  0  0
 19 20  1  0  0  0  0
 21  2  1  0  0  0  0
 22 24  2  0  0  0  0
 23 24  1  0  0  0  0
 24 25  1  0  0  0  0
 25 21  1  0  0  0  0
 26 27  1  0  0  0  0
 26 23  1  0  0  0  0
 27 29  1  0  0  0  0
 28 29  1  0  0  0  0
M  END
>  <MODEL>
2

>  <REMARK>
 VINA RESULT:      -6.4      3.935      8.199
  Name = 
  8 active torsions:
  status: ('A' for Active; 'I' for Inactive)
    1  A    between atoms: C_6  and  C_17
    2  A    between atoms: N_7  and  C_12
    3  A    between atoms: N_8  and  C_22
    4  A    between atoms: C_10  and  C_17
    5  A    between atoms: C_10  and  N_18
    6  A    between atoms: C_12  and  C_20
    7  A    between atoms: C_20  and  C_23
    8  A    between atoms: C_21  and  C_26
                            x       y       z     vdW  Elec       q    Type
                         _______ _______ _______ _____ _____    ______ ____

>  <TORSDO>
F 8

$$$$
=
 OpenBabel11042417283D

 29 31  0  0  0  0  0  0  0  0999 V2000
  189.7650  177.0910  145.3210 N   0  0  0  0  0  0  0  0  0  0  0  0
  190.2090  175.9220  144.9540 C   0  0  0  0  0  0  0  0  0  0  0  0
  197.0820  173.6830  145.8550 C   0  0  0  0  0  1  0  0  0  0  0  0
  194.9750  176.2210  144.0780 C   0  0  0  0  0  3  0  0  0  0  0  0
  193.7120  175.8670  144.5340 C   0  0  0  0  0  0  0  0  0  0  0  0
  191.6600  175.6790  144.9580 C   0  0  0  0  0  0  0  0  0  0  0  0
  193.5390  174.8330  145.3950 C   0  0  0  0  0  0  0  0  0  0  0  0
  196.0400  175.4920  144.5280 N   0  0  0  0  0  0  0  0  0  0  0  0
  192.2400  174.6860  145.6870 N   0  0  0  0  0  0  0  0  0  0  0  0
  195.8880  174.4430  145.3990 C   0  0  0  0  0  0  0  0  0  0  0  0
  194.6100  174.0790  145.8630 C   0  0  0  0  0  3  0  0  0  0  0  0
  192.5340  176.4300  144.2330 N   0  0  0  0  0  2  0  0  0  0  0  0
  187.4680  177.4880  146.7740 S   0  0  0  0  0  0  0  0  0  0  0  0
  187.6420  178.0710  144.3400 C   0  0  0  0  0  3  0  0  0  0  0  0
  188.4030  177.5450  145.3800 C   0  0  0  0  0  0  0  0  0  0  0  0
  186.1240  178.1430  146.0020 C   0  0  0  0  0  0  0  0  0  0  0  0
  186.3720  178.4030  144.6990 N   0  0  0  0  0  0  0  0  0  0  0  0
  183.8270  178.7020  145.9580 O   0  0  0  0  0  0  0  0  0  0  0  0
  184.8360  178.4040  146.6490 C   0  0  0  0  0  0  0  0  0  0  0  0
  184.7240  178.3260  147.9980 F   0  0  0  0  0  0  0  0  0  0  0  0
  189.2990  174.8330  144.4760 C   0  0  0  0  0  2  0  0  0  0  0  0
  189.6960  174.2130  140.8980 O   0  0  0  0  0  0  0  0  0  0  0  0
  188.1730  175.6620  141.9160 N   0  0  0  0  0  2  0  0  0  0  0  0
  189.2370  174.7040  141.9620 C   0  0  0  0  0  0  0  0  0  0  0  0
  189.7900  174.3030  143.2140 N   0  0  0  0  0  2  0  0  0  0  0  0
  187.5550  176.0890  140.6700 C   0  0  0  0  0  2  0  0  0  0  0  0
  187.1840  177.5600  140.7500 C   0  0  0  0  0  2  0  0  0  0  0  0
  185.0470  178.5070  140.2720 O   0  0  0  0  0  1  0  0  0  0  0  0
  185.7390  177.7140  141.1880 C   0  0  0  0  0  2  0  0  0  0  0  0
  1 15  1  0  0  0  0
  2  6  1  0  0  0  0
  2  1  2  0  0  0  0
  4  8  2  0  0  0  0
  4  5  1  0  0  0  0
  5  7  2  0  0  0  0
  6  9  2  0  0  0  0
  7  9  1  0  0  0  0
  7 11  1  0  0  0  0
  8 10  1  0  0  0  0
 10  3  1  0  0  0  0
 10 11  2  0  0  0  0
 12  5  1  0  0  0  0
 12  6  1  0  0  0  0
 14 17  1  0  0  0  0
 14 15  2  0  0  0  0
 15 13  1  0  0  0  0
 16 19  1  0  0  0  0
 16 13  1  0  0  0  0
 17 16  2  0  0  0  0
 18 19  2  0  0  0  0
 19 20  1  0  0  0  0
 21  2  1  0  0  0  0
 22 24  2  0  0  0  0
 23 24  1  0  0  0  0
 24 25  1  0  0  0  0
 25 21  1  0  0  0  0
 26 27  1  0  0  0  0
 26 23  1  0  0  0  0
 27 29  1  0  0  0  0
 28 29  1  0  0  0  0
M  END
>  <MODEL>
3

>  <REMARK>
 VINA RESULT:      -6.2      2.753      4.017
  Name = 
  8 active torsions:
  status: ('A' for Active; 'I' for Inactive)
    1  A    between atoms: C_6  and  C_17
    2  A    between atoms: N_7  and  C_12
    3  A    between atoms: N_8  and  C_22
    4  A    between atoms: C_10  and  C_17
    5  A    between atoms: C_10  and  N_18
    6  A    between atoms: C_12  and  C_20
    7  A    between atoms: C_20  and  C_23
    8  A    between atoms: C_21  and  C_26
                            x       y       z     vdW  Elec       q    Type
                         _______ _______ _______ _____ _____    ______ ____

>  <TORSDO>
F 8

$$$$
=
 OpenBabel11042417283D

 29 31  0  0  0  0  0  0  0  0999 V2000
  190.6560  175.1760  143.4820 N   0  0  0  0  0  0  0  0  0  0  0  0
  190.9450  174.7700  144.6870 C   0  0  0  0  0  0  0  0  0  0  0  0
  197.0000  170.8780  145.8000 C   0  0  0  0  0  1  0  0  0  0  0  0
  195.6750  174.3800  145.7140 C   0  0  0  0  0  3  0  0  0  0  0  0
  194.3420  174.1400  145.4040 C   0  0  0  0  0  0  0  0  0  0  0  0
  192.2890  174.2350  144.9540 C   0  0  0  0  0  0  0  0  0  0  0  0
  193.8780  172.8780  145.2270 C   0  0  0  0  0  0  0  0  0  0  0  0
  196.5030  173.3000  145.8330 N   0  0  0  0  0  0  0  0  0  0  0  0
  192.5700  172.9030  144.9380 N   0  0  0  0  0  0  0  0  0  0  0  0
  196.0540  172.0160  145.6580 C   0  0  0  0  0  0  0  0  0  0  0  0
  194.7050  171.7670  145.3440 C   0  0  0  0  0  3  0  0  0  0  0  0
  193.3560  175.0320  145.2380 N   0  0  0  0  0  2  0  0  0  0  0  0
  189.1360  177.3610  142.8040 S   0  0  0  0  0  0  0  0  0  0  0  0
  188.2670  175.0130  142.6480 C   0  0  0  0  0  3  0  0  0  0  0  0
  189.4150  175.7170  143.0020 C   0  0  0  0  0  0  0  0  0  0  0  0
  187.5600  177.1160  142.2680 C   0  0  0  0  0  0  0  0  0  0  0  0
  187.2390  175.8030  142.2380 N   0  0  0  0  0  0  0  0  0  0  0  0
  186.2540  179.0330  142.7260 O   0  0  0  0  0  0  0  0  0  0  0  0
  186.6370  178.1850  141.8780 C   0  0  0  0  0  0  0  0  0  0  0  0
  186.1890  178.2650  140.6010 F   0  0  0  0  0  0  0  0  0  0  0  0
  189.9410  174.7780  145.7980 C   0  0  0  0  0  2  0  0  0  0  0  0
  189.3580  177.9610  147.4930 O   0  0  0  0  0  0  0  0  0  0  0  0
  187.8840  176.8280  146.0790 N   0  0  0  0  0  2  0  0  0  0  0  0
  189.1360  176.9590  146.7630 C   0  0  0  0  0  0  0  0  0  0  0  0
  190.1390  175.9550  146.6300 N   0  0  0  0  0  2  0  0  0  0  0  0
  186.8360  177.8330  146.1590 C   0  0  0  0  0  2  0  0  0  0  0  0
  185.4980  177.2220  145.7780 C   0  0  0  0  0  2  0  0  0  0  0  0
  183.7550  178.8430  145.6190 O   0  0  0  0  0  1  0  0  0  0  0  0
  184.3690  177.9430  146.4900 C   0  0  0  0  0  2  0  0  0  0  0  0
  1  2  2  0  0  0  0
  2  6  1  0  0  0  0
  2 21  1  0  0  0  0
  4  8  1  0  0  0  0
  5  4  2  0  0  0  0
  6 12  1  0  0  0  0
  7 11  2  0  0  0  0
  7  5  1  0  0  0  0
  9  6  2  0  0  0  0
  9  7  1  0  0  0  0
 10  3  1  0  0  0  0
 10  8  2  0  0  0  0
 11 10  1  0  0  0  0
 12  5  1  0  0  0  0
 13 15  1  0  0  0  0
 14 15  2  0  0  0  0
 15  1  1  0  0  0  0
 16 13  1  0  0  0  0
 17 16  2  0  0  0  0
 17 14  1  0  0  0  0
 19 16  1  0  0  0  0
 19 18  2  0  0  0  0
 20 19  1  0  0  0  0
 21 25  1  0  0  0  0
 23 26  1  0  0  0  0
 23 24  1  0  0  0  0
 24 22  2  0  0  0  0
 25 24  1  0  0  0  0
 27 26  1  0  0  0  0
 27 29  1  0  0  0  0
 28 29  1  0  0  0  0
M  END
>  <MODEL>
4

>  <REMARK>
 VINA RESULT:      -6.2      2.524      2.669
  Name = 
  8 active torsions:
  status: ('A' for Active; 'I' for Inactive)
    1  A    between atoms: C_6  and  C_17
    2  A    between atoms: N_7  and  C_12
    3  A    between atoms: N_8  and  C_22
    4  A    between atoms: C_10  and  C_17
    5  A    between atoms: C_10  and  N_18
    6  A    between atoms: C_12  and  C_20
    7  A    between atoms: C_20  and  C_23
    8  A    between atoms: C_21  and  C_26
                            x       y       z     vdW  Elec       q    Type
                         _______ _______ _______ _____ _____    ______ ____

>  <TORSDO>
F 8

$$$$
=
 OpenBabel11042417283D

 29 31  0  0  0  0  0  0  0  0999 V2000
  191.6450  176.4100  145.8100 N   0  0  0  0  0  0  0  0  0  0  0  0
  190.7970  176.7460  144.8780 C   0  0  0  0  0  0  0  0  0  0  0  0
  183.8610  178.8580  145.5710 C   0  0  0  0  0  1  0  0  0  0  0  0
  186.5310  176.7920  147.1950 C   0  0  0  0  0  3  0  0  0  0  0  0
  187.5810  176.9910  146.3080 C   0  0  0  0  0  0  0  0  0  0  0  0
  189.4000  177.0160  145.2520 C   0  0  0  0  0  0  0  0  0  0  0  0
  187.4350  177.7740  145.2100 C   0  0  0  0  0  0  0  0  0  0  0  0
  185.3440  177.4120  146.9230 N   0  0  0  0  0  0  0  0  0  0  0  0
  188.5790  177.8120  144.5140 N   0  0  0  0  0  0  0  0  0  0  0  0
  185.1750  178.2080  145.8190 C   0  0  0  0  0  0  0  0  0  0  0  0
  186.2350  178.4130  144.9170 C   0  0  0  0  0  3  0  0  0  0  0  0
  188.8230  176.4910  146.3680 N   0  0  0  0  0  2  0  0  0  0  0  0
  193.6510  174.5340  145.7670 S   0  0  0  0  0  0  0  0  0  0  0  0
  194.0890  176.9840  145.4540 C   0  0  0  0  0  3  0  0  0  0  0  0
  193.0400  176.0950  145.6690 C   0  0  0  0  0  0  0  0  0  0  0  0
  195.2350  175.0470  145.5260 C   0  0  0  0  0  0  0  0  0  0  0  0
  195.3100  176.3880  145.3740 N   0  0  0  0  0  0  0  0  0  0  0  0
  197.3910  174.4480  144.7610 O   0  0  0  0  0  0  0  0  0  0  0  0
  196.4010  174.1610  145.4840 C   0  0  0  0  0  0  0  0  0  0  0  0
  196.4190  173.0250  146.2240 F   0  0  0  0  0  0  0  0  0  0  0  0
  191.1800  176.8130  143.4320 C   0  0  0  0  0  2  0  0  0  0  0  0
  191.2420  173.6610  141.5860 O   0  0  0  0  0  0  0  0  0  0  0  0
  193.0790  174.9470  142.2400 N   0  0  0  0  0  2  0  0  0  0  0  0
  191.6720  174.6930  142.1660 C   0  0  0  0  0  0  0  0  0  0  0  0
  190.7440  175.6030  142.7530 N   0  0  0  0  0  2  0  0  0  0  0  0
  194.0690  174.0670  141.6390 C   0  0  0  0  0  2  0  0  0  0  0  0
  195.4260  174.7490  141.6140 C   0  0  0  0  0  2  0  0  0  0  0  0
  196.3230  176.9310  141.2610 O   0  0  0  0  0  1  0  0  0  0  0  0
  195.2710  176.2370  141.8610 C   0  0  0  0  0  2  0  0  0  0  0  0
  2  6  1  0  0  0  0
  2  1  2  0  0  0  0
  3 10  1  0  0  0  0
  5 12  1  0  0  0  0
  5  4  2  0  0  0  0
  6 12  1  0  0  0  0
  7  5  1  0  0  0  0
  8  4  1  0  0  0  0
  9  7  1  0  0  0  0
  9  6  2  0  0  0  0
 10  8  2  0  0  0  0
 11  7  2  0  0  0  0
 11 10  1  0  0  0  0
 14 15  2  0  0  0  0
 15 13  1  0  0  0  0
 15  1  1  0  0  0  0
 16 13  1  0  0  0  0
 17 14  1  0  0  0  0
 17 16  2  0  0  0  0
 18 19  2  0  0  0  0
 19 16  1  0  0  0  0
 19 20  1  0  0  0  0
 21  2  1  0  0  0  0
 22 24  2  0  0  0  0
 24 23  1  0  0  0  0
 24 25  1  0  0  0  0
 25 21  1  0  0  0  0
 26 23  1  0  0  0  0
 27 26  1  0  0  0  0
 27 29  1  0  0  0  0
 28 29  1  0  0  0  0
M  END
>  <MODEL>
5

>  <REMARK>
 VINA RESULT:      -6.0      4.340      9.023
  Name = 
  8 active torsions:
  status: ('A' for Active; 'I' for Inactive)
    1  A    between atoms: C_6  and  C_17
    2  A    between atoms: N_7  and  C_12
    3  A    between atoms: N_8  and  C_22
    4  A    between atoms: C_10  and  C_17
    5  A    between atoms: C_10  and  N_18
    6  A    between atoms: C_12  and  C_20
    7  A    between atoms: C_20  and  C_23
    8  A    between atoms: C_21  and  C_26
                            x       y       z     vdW  Elec       q    Type
                         _______ _______ _______ _____ _____    ______ ____

>  <TORSDO>
F 8

$$$$
=
 OpenBabel11042417283D

 29 31  0  0  0  0  0  0  0  0999 V2000
  190.6590  175.2290  143.2580 N   0  0  0  0  0  0  0  0  0  0  0  0
  189.4950  175.4320  143.8080 C   0  0  0  0  0  0  0  0  0  0  0  0
  183.4830  178.4550  141.0190 C   0  0  0  0  0  1  0  0  0  0  0  0
  186.9310  177.2920  140.1280 C   0  0  0  0  0  3  0  0  0  0  0  0
  187.3720  176.8330  141.3640 C   0  0  0  0  0  0  0  0  0  0  0  0
  188.4250  176.0410  143.0030 C   0  0  0  0  0  0  0  0  0  0  0  0
  186.5770  176.8960  142.4610 C   0  0  0  0  0  0  0  0  0  0  0  0
  185.6680  177.8090  140.0570 N   0  0  0  0  0  0  0  0  0  0  0  0
  187.2190  176.3980  143.5260 N   0  0  0  0  0  0  0  0  0  0  0  0
  184.8480  177.8820  141.1550 C   0  0  0  0  0  0  0  0  0  0  0  0
  185.2900  177.4190  142.4080 C   0  0  0  0  0  3  0  0  0  0  0  0
  188.5580  176.2920  141.6720 N   0  0  0  0  0  2  0  0  0  0  0  0
  193.2110  175.5580  144.2210 S   0  0  0  0  0  0  0  0  0  0  0  0
  192.0500  173.3340  144.2090 C   0  0  0  0  0  3  0  0  0  0  0  0
  191.8370  174.6640  143.8570 C   0  0  0  0  0  0  0  0  0  0  0  0
  194.0290  174.2160  144.8220 C   0  0  0  0  0  0  0  0  0  0  0  0
  193.2760  173.0950  144.7490 N   0  0  0  0  0  0  0  0  0  0  0  0
  196.3260  173.6610  144.7510 O   0  0  0  0  0  0  0  0  0  0  0  0
  195.3910  174.2430  145.3610 C   0  0  0  0  0  0  0  0  0  0  0  0
  195.6510  174.8940  146.5210 F   0  0  0  0  0  0  0  0  0  0  0  0
  189.2230  175.1190  145.2470 C   0  0  0  0  0  2  0  0  0  0  0  0
  188.9690  177.9880  147.4930 O   0  0  0  0  0  0  0  0  0  0  0  0
  187.2220  176.6400  146.7270 N   0  0  0  0  0  2  0  0  0  0  0  0
  188.6050  177.0060  146.7940 C   0  0  0  0  0  0  0  0  0  0  0  0
  189.5830  176.2590  146.0740 N   0  0  0  0  0  2  0  0  0  0  0  0
  186.1790  177.3810  147.4200 C   0  0  0  0  0  2  0  0  0  0  0  0
  184.9800  177.5710  146.5070 C   0  0  0  0  0  2  0  0  0  0  0  0
  185.8700  179.3710  145.2180 O   0  0  0  0  0  1  0  0  0  0  0  0
  184.8500  179.0290  146.1070 C   0  0  0  0  0  2  0  0  0  0  0  0
  1  2  2  0  0  0  0
  1 15  1  0  0  0  0
  2 21  1  0  0  0  0
  3 10  1  0  0  0  0
  4  5  1  0  0  0  0
  5 12  1  0  0  0  0
  5  7  2  0  0  0  0
  6  9  2  0  0  0  0
  6  2  1  0  0  0  0
  7  9  1  0  0  0  0
  8  4  2  0  0  0  0
  8 10  1  0  0  0  0
 10 11  2  0  0  0  0
 11  7  1  0  0  0  0
 12  6  1  0  0  0  0
 13 16  1  0  0  0  0
 14 17  1  0  0  0  0
 15 14  2  0  0  0  0
 15 13  1  0  0  0  0
 16 19  1  0  0  0  0
 17 16  2  0  0  0  0
 18 19  2  0  0  0  0
 19 20  1  0  0  0  0
 21 25  1  0  0  0  0
 23 24  1  0  0  0  0
 23 26  1  0  0  0  0
 24 22  2  0  0  0  0
 25 24  1  0  0  0  0
 27 26  1  0  0  0  0
 28 29  1  0  0  0  0
 29 27  1  0  0  0  0
M  END
>  <MODEL>
6

>  <REMARK>
 VINA RESULT:      -6.0      3.516      7.385
  Name = 
  8 active torsions:
  status: ('A' for Active; 'I' for Inactive)
    1  A    between atoms: C_6  and  C_17
    2  A    between atoms: N_7  and  C_12
    3  A    between atoms: N_8  and  C_22
    4  A    between atoms: C_10  and  C_17
    5  A    between atoms: C_10  and  N_18
    6  A    between atoms: C_12  and  C_20
    7  A    between atoms: C_20  and  C_23
    8  A    between atoms: C_21  and  C_26
                            x       y       z     vdW  Elec       q    Type
                         _______ _______ _______ _____ _____    ______ ____

>  <TORSDO>
F 8

$$$$
=
 OpenBabel11042417283D

 29 31  0  0  0  0  0  0  0  0999 V2000
  191.7330  176.4320  145.6750 N   0  0  0  0  0  0  0  0  0  0  0  0
  190.7320  176.1240  144.9000 C   0  0  0  0  0  0  0  0  0  0  0  0
  184.0630  178.9890  145.5170 C   0  0  0  0  0  1  0  0  0  0  0  0
  186.5660  176.8390  147.2900 C   0  0  0  0  0  3  0  0  0  0  0  0
  187.6030  176.8390  146.3650 C   0  0  0  0  0  0  0  0  0  0  0  0
  189.3810  176.5710  145.2740 C   0  0  0  0  0  0  0  0  0  0  0  0
  187.4990  177.5160  145.1940 C   0  0  0  0  0  0  0  0  0  0  0  0
  185.4390  177.5460  146.9800 N   0  0  0  0  0  0  0  0  0  0  0  0
  188.6180  177.3670  144.4730 N   0  0  0  0  0  0  0  0  0  0  0  0
  185.3130  178.2380  145.8020 C   0  0  0  0  0  0  0  0  0  0  0  0
  186.3600  178.2400  144.8610 C   0  0  0  0  0  3  0  0  0  0  0  0
  188.7900  176.2240  146.4500 N   0  0  0  0  0  2  0  0  0  0  0  0
  193.7800  174.6280  145.9980 S   0  0  0  0  0  0  0  0  0  0  0  0
  194.1230  176.8840  144.9580 C   0  0  0  0  0  3  0  0  0  0  0  0
  193.1200  176.0920  145.5100 C   0  0  0  0  0  0  0  0  0  0  0  0
  195.3240  175.0530  145.4830 C   0  0  0  0  0  0  0  0  0  0  0  0
  195.3490  176.2930  144.9470 N   0  0  0  0  0  0  0  0  0  0  0  0
  197.1310  173.8360  144.5640 O   0  0  0  0  0  0  0  0  0  0  0  0
  196.5060  174.1950  145.5970 C   0  0  0  0  0  0  0  0  0  0  0  0
  196.9330  173.7820  146.8150 F   0  0  0  0  0  0  0  0  0  0  0  0
  190.8970  175.2840  143.6710 C   0  0  0  0  0  2  0  0  0  0  0  0
  189.4440  171.9330  143.6250 O   0  0  0  0  0  0  0  0  0  0  0  0
  188.8590  173.7410  142.2660 N   0  0  0  0  0  2  0  0  0  0  0  0
  189.6350  173.1360  143.3070 C   0  0  0  0  0  0  0  0  0  0  0  0
  190.6340  173.8900  143.9910 N   0  0  0  0  0  2  0  0  0  0  0  0
  187.8120  173.0270  141.5520 C   0  0  0  0  0  2  0  0  0  0  0  0
  188.2610  172.7230  140.1330 C   0  0  0  0  0  2  0  0  0  0  0  0
  187.8500  174.9170  139.2900 O   0  0  0  0  0  1  0  0  0  0  0  0
  188.8500  173.9660  139.4910 C   0  0  0  0  0  2  0  0  0  0  0  0
  2  6  1  0  0  0  0
  2  1  2  0  0  0  0
  3 10  1  0  0  0  0
  5 12  1  0  0  0  0
  5  4  2  0  0  0  0
  6 12  1  0  0  0  0
  7  5  1  0  0  0  0
  8  4  1  0  0  0  0
  9  7  1  0  0  0  0
  9  6  2  0  0  0  0
 10  8  2  0  0  0  0
 11  7  2  0  0  0  0
 11 10  1  0  0  0  0
 14 15  2  0  0  0  0
 15  1  1  0  0  0  0
 15 13  1  0  0  0  0
 16 19  1  0  0  0  0
 16 13  1  0  0  0  0
 17 14  1  0  0  0  0
 17 16  2  0  0  0  0
 18 19  2  0  0  0  0
 19 20  1  0  0  0  0
 21 25  1  0  0  0  0
 21  2  1  0  0  0  0
 23 24  1  0  0  0  0
 24 22  2  0  0  0  0
 24 25  1  0  0  0  0
 26 23  1  0  0  0  0
 27 26  1  0  0  0  0
 28 29  1  0  0  0  0
 29 27  1  0  0  0  0
M  END
>  <MODEL>
7

>  <REMARK>
 VINA RESULT:      -5.9      4.289      8.455
  Name = 
  8 active torsions:
  status: ('A' for Active; 'I' for Inactive)
    1  A    between atoms: C_6  and  C_17
    2  A    between atoms: N_7  and  C_12
    3  A    between atoms: N_8  and  C_22
    4  A    between atoms: C_10  and  C_17
    5  A    between atoms: C_10  and  N_18
    6  A    between atoms: C_12  and  C_20
    7  A    between atoms: C_20  and  C_23
    8  A    between atoms: C_21  and  C_26
                            x       y       z     vdW  Elec       q    Type
                         _______ _______ _______ _____ _____    ______ ____

>  <TORSDO>
F 8

$$$$
=
 OpenBabel11042417283D

 29 31  0  0  0  0  0  0  0  0999 V2000
  191.0860  176.1440  145.3430 N   0  0  0  0  0  0  0  0  0  0  0  0
  191.3440  175.8700  144.0950 C   0  0  0  0  0  0  0  0  0  0  0  0
  197.7470  175.3960  140.6570 C   0  0  0  0  0  1  0  0  0  0  0  0
  196.1620  176.4300  143.8900 C   0  0  0  0  0  3  0  0  0  0  0  0
  194.8280  176.1480  143.6200 C   0  0  0  0  0  0  0  0  0  0  0  0
  192.7420  175.8800  143.6400 C   0  0  0  0  0  0  0  0  0  0  0  0
  194.4460  175.6370  142.4240 C   0  0  0  0  0  0  0  0  0  0  0  0
  197.0760  176.1730  142.9070 N   0  0  0  0  0  0  0  0  0  0  0  0
  193.1190  175.4530  142.4030 N   0  0  0  0  0  0  0  0  0  0  0  0
  196.7110  175.6560  141.6900 C   0  0  0  0  0  0  0  0  0  0  0  0
  195.3610  175.3700  141.4120 C   0  0  0  0  0  3  0  0  0  0  0  0
  193.7680  176.3170  144.4210 N   0  0  0  0  0  2  0  0  0  0  0  0
  188.7990  177.5440  145.9390 S   0  0  0  0  0  0  0  0  0  0  0  0
  189.2050  175.2110  146.7640 C   0  0  0  0  0  3  0  0  0  0  0  0
  189.8060  176.2020  145.9930 C   0  0  0  0  0  0  0  0  0  0  0  0
  187.6260  176.8110  146.8970 C   0  0  0  0  0  0  0  0  0  0  0  0
  187.9880  175.5600  147.2630 N   0  0  0  0  0  0  0  0  0  0  0  0
  186.3690  178.5110  147.9550 O   0  0  0  0  0  0  0  0  0  0  0  0
  186.3640  177.4380  147.2960 C   0  0  0  0  0  0  0  0  0  0  0  0
  185.1830  176.8650  146.9590 F   0  0  0  0  0  0  0  0  0  0  0  0
  190.2630  175.5980  143.0950 C   0  0  0  0  0  2  0  0  0  0  0  0
  188.3710  178.3000  141.5250 O   0  0  0  0  0  0  0  0  0  0  0  0
  187.5070  176.4470  142.6550 N   0  0  0  0  0  2  0  0  0  0  0  0
  188.5950  177.2340  142.1560 C   0  0  0  0  0  0  0  0  0  0  0  0
  189.9430  176.8210  142.3760 N   0  0  0  0  0  2  0  0  0  0  0  0
  186.1150  176.8070  142.4390 C   0  0  0  0  0  2  0  0  0  0  0  0
  185.4600  177.1690  143.7610 C   0  0  0  0  0  2  0  0  0  0  0  0
  184.8010  179.3860  144.3480 O   0  0  0  0  0  1  0  0  0  0  0  0
  184.4550  178.2880  143.5600 C   0  0  0  0  0  2  0  0  0  0  0  0
  1 15  1  0  0  0  0
  2  1  2  0  0  0  0
  3 10  1  0  0  0  0
  5  4  1  0  0  0  0
  5 12  1  0  0  0  0
  6  2  1  0  0  0  0
  6 12  1  0  0  0  0
  7  5  2  0  0  0  0
  8  4  2  0  0  0  0
  9  7  1  0  0  0  0
  9  6  2  0  0  0  0
 10  8  1  0  0  0  0
 11 10  2  0  0  0  0
 11  7  1  0  0  0  0
 13 15  1  0  0  0  0
 13 16  1  0  0  0  0
 14 17  1  0  0  0  0
 15 14  2  0  0  0  0
 16 17  2  0  0  0  0
 16 19  1  0  0  0  0
 19 18  2  0  0  0  0
 20 19  1  0  0  0  0
 21  2  1  0  0  0  0
 22 24  2  0  0  0  0
 24 25  1  0  0  0  0
 24 23  1  0  0  0  0
 25 21  1  0  0  0  0
 26 23  1  0  0  0  0
 26 27  1  0  0  0  0
 29 27  1  0  0  0  0
 29 28  1  0  0  0  0
M  END
>  <MODEL>
8

>  <REMARK>
 VINA RESULT:      -5.9      1.986      3.457
  Name = 
  8 active torsions:
  status: ('A' for Active; 'I' for Inactive)
    1  A    between atoms: C_6  and  C_17
    2  A    between atoms: N_7  and  C_12
    3  A    between atoms: N_8  and  C_22
    4  A    between atoms: C_10  and  C_17
    5  A    between atoms: C_10  and  N_18
    6  A    between atoms: C_12  and  C_20
    7  A    between atoms: C_20  and  C_23
    8  A    between atoms: C_21  and  C_26
                            x       y       z     vdW  Elec       q    Type
                         _______ _______ _______ _____ _____    ______ ____

>  <TORSDO>
F 8

$$$$
=
 OpenBabel11042417283D

 29 31  0  0  0  0  0  0  0  0999 V2000
  188.5880  176.1200  142.2470 N   0  0  0  0  0  0  0  0  0  0  0  0
  189.5540  176.5850  142.9870 C   0  0  0  0  0  0  0  0  0  0  0  0
  196.0220  173.2980  143.6450 C   0  0  0  0  0  1  0  0  0  0  0  0
  192.3970  172.9620  144.5280 C   0  0  0  0  0  3  0  0  0  0  0  0
  191.8870  174.1220  143.9580 C   0  0  0  0  0  0  0  0  0  0  0  0
  190.7160  175.7240  143.2610 C   0  0  0  0  0  0  0  0  0  0  0  0
  192.6920  174.9950  143.3020 C   0  0  0  0  0  0  0  0  0  0  0  0
  193.7380  172.7310  144.4060 N   0  0  0  0  0  0  0  0  0  0  0  0
  191.9760  176.0300  142.8440 N   0  0  0  0  0  0  0  0  0  0  0  0
  194.5700  173.6000  143.7470 C   0  0  0  0  0  0  0  0  0  0  0  0
  194.0590  174.7770  143.1680 C   0  0  0  0  0  3  0  0  0  0  0  0
  190.6190  174.5550  143.9510 N   0  0  0  0  0  2  0  0  0  0  0  0
  185.9980  176.8220  142.8360 S   0  0  0  0  0  0  0  0  0  0  0  0
  187.1050  177.4480  140.6750 C   0  0  0  0  0  3  0  0  0  0  0  0
  187.3680  176.7770  141.8660 C   0  0  0  0  0  0  0  0  0  0  0  0
  185.1180  177.7020  141.7030 C   0  0  0  0  0  0  0  0  0  0  0  0
  185.8480  177.9610  140.5950 N   0  0  0  0  0  0  0  0  0  0  0  0
  183.3670  178.6690  142.9630 O   0  0  0  0  0  0  0  0  0  0  0  0
  183.7320  178.1390  141.8810 C   0  0  0  0  0  0  0  0  0  0  0  0
  182.8320  177.9730  140.8800 F   0  0  0  0  0  0  0  0  0  0  0  0
  189.5020  177.9430  143.6170 C   0  0  0  0  0  2  0  0  0  0  0  0
  189.6910  177.4500  147.2310 O   0  0  0  0  0  0  0  0  0  0  0  0
  187.8210  177.1500  145.8650 N   0  0  0  0  0  2  0  0  0  0  0  0
  189.1960  177.4910  146.0740 C   0  0  0  0  0  0  0  0  0  0  0  0
  190.0190  177.8740  144.9740 N   0  0  0  0  0  2  0  0  0  0  0  0
  186.9300  176.7760  146.9520 C   0  0  0  0  0  2  0  0  0  0  0  0
  185.5470  177.3610  146.7180 C   0  0  0  0  0  2  0  0  0  0  0  0
  185.3960  179.4170  145.5170 O   0  0  0  0  0  1  0  0  0  0  0  0
  185.5980  178.8750  146.7860 C   0  0  0  0  0  2  0  0  0  0  0  0
  1  2  2  0  0  0  0
  2  6  1  0  0  0  0
  2 21  1  0  0  0  0
  3 10  1  0  0  0  0
  5  4  2  0  0  0  0
  6 12  1  0  0  0  0
  7  5  1  0  0  0  0
  8  4  1  0  0  0  0
  9  6  2  0  0  0  0
  9  7  1  0  0  0  0
 10  8  2  0  0  0  0
 11  7  2  0  0  0  0
 11 10  1  0  0  0  0
 12  5  1  0  0  0  0
 14 15  2  0  0  0  0
 15  1  1  0  0  0  0
 15 13  1  0  0  0  0
 16 19  1  0  0  0  0
 16 13  1  0  0  0  0
 17 14  1  0  0  0  0
 17 16  2  0  0  0  0
 19 18  2  0  0  0  0
 20 19  1  0  0  0  0
 21 25  1  0  0  0  0
 23 24  1  0  0  0  0
 23 26  1  0  0  0  0
 24 22  2  0  0  0  0
 25 24  1  0  0  0  0
 27 29  1  0  0  0  0
 27 26  1  0  0  0  0
 28 29  1  0  0  0  0
M  END
>  <MODEL>
9

>  <REMARK>
 VINA RESULT:      -5.8      1.931      2.239
  Name = 
  8 active torsions:
  status: ('A' for Active; 'I' for Inactive)
    1  A    between atoms: C_6  and  C_17
    2  A    between atoms: N_7  and  C_12
    3  A    between atoms: N_8  and  C_22
    4  A    between atoms: C_10  and  C_17
    5  A    between atoms: C_10  and  N_18
    6  A    between atoms: C_12  and  C_20
    7  A    between atoms: C_20  and  C_23
    8  A    between atoms: C_21  and  C_26
                            x       y       z     vdW  Elec       q    Type
                         _______ _______ _______ _____ _____    ______ ____

>  <TORSDO>
F 8

$$$$
