=
 OpenBabel11042414123D

 49 56  0  0  1  0  0  0  0  0999 V2000
  189.2380  176.8680  145.0280 C   0  0  0  0  0  2  0  0  0  0  0  0
  189.7960  175.4610  144.8780 C   0  0  2  0  0  3  0  0  0  0  0  0
  188.0940  176.5260  144.0860 C   0  0  2  0  0  3  0  0  0  0  0  0
  188.6390  175.0960  143.9590 C   0  0  1  0  0  3  0  0  0  0  0  0
  194.4890  171.2560  143.1850 C   0  0  0  0  0  0  0  0  0  0  0  0
  196.3110  170.4670  144.5440 C   0  0  0  0  0  3  0  0  0  0  0  0
  190.5320  174.3870  142.2660 C   0  0  0  0  0  2  0  0  0  0  0  0
  189.0820  174.6780  142.5740 C   0  0  0  0  0  0  0  0  0  0  0  0
  193.7850  171.4040  142.0340 N   0  0  0  0  0  0  0  0  0  0  0  0
  189.6820  173.2000  140.3330 N   0  0  0  0  0  0  0  0  0  0  0  0
  191.7170  172.3800  141.1940 N   0  0  0  0  0  2  0  0  0  0  0  0
  188.1940  174.5340  141.6490 N   0  0  0  0  0  0  0  0  0  0  0  0
  195.6900  170.5550  143.2860 C   0  0  0  0  0  3  0  0  0  0  0  0
  192.4930  172.6010  143.8680 S   0  0  0  0  0  0  0  0  0  0  0  0
  188.5670  174.1490  140.3010 C   0  0  0  0  0  2  0  0  0  0  0  0
  190.6140  173.2940  141.2350 C   0  0  0  0  0  0  0  0  0  0  0  0
  193.9270  171.8520  144.3040 C   0  0  0  0  0  0  0  0  0  0  0  0
  194.5190  171.7770  145.5600 C   0  0  0  0  0  3  0  0  0  0  0  0
  192.6650  172.1350  142.2410 C   0  0  0  0  0  0  0  0  0  0  0  0
  195.7280  171.0730  145.6730 C   0  0  0  0  0  3  0  0  0  0  0  0
  188.1360  177.3570  142.8310 C   0  0  0  0  0  0  0  0  0  0  0  0
  189.2180  177.8830  142.4520 O   0  0  0  0  0  0  0  0  0  0  0  0
  183.4940  178.3520  142.1900 C   0  0  0  0  0  3  0  0  0  0  0  0
  185.9860  179.6410  143.5130 S   0  0  0  0  0  0  0  0  0  0  0  0
  183.4330  178.5920  143.5140 C   0  0  0  0  0  3  0  0  0  0  0  0
  184.7650  178.3020  141.3750 C   0  0  0  0  0  2  0  0  0  0  0  0
  184.6400  178.7800  144.3980 C   0  0  1  0  0  3  0  0  0  0  0  0
  186.9270  177.5020  142.0730 N   0  0  0  0  0  0  0  0  0  0  0  0
  185.9830  178.3860  142.2270 C   0  0  0  0  0  0  0  0  0  0  0  0
  185.0830  177.5410  144.8670 O   0  0  0  0  0  0  0  0  0  0  0  0
  184.8140  177.5550  146.2370 C   0  0  0  0  0  2  0  0  0  0  0  0
  186.6890  176.4160  147.1400 F   0  0  0  0  0  0  0  0  0  0  0  0
  186.1120  177.6650  147.0130 C   0  0  0  0  0  2  0  0  0  0  0  0
  189.6770  174.7030  146.1870 C   0  0  0  0  0  2  0  0  0  0  0  0
  191.9900  174.4930  146.4570 C   0  0  0  0  0  2  0  0  0  0  0  0
  190.9440  176.4920  147.0010 C   0  0  0  0  0  2  0  0  0  0  0  0
  190.7870  175.0470  147.0590 N   0  0  0  0  0  0  0  0  0  0  0  0
  192.4240  176.7920  147.0620 C   0  0  0  0  0  2  0  0  0  0  0  0
  193.0960  175.5220  146.5900 C   0  0  2  0  0  3  0  0  0  0  0  0
  195.7430  174.9140  146.1330 O   0  0  0  0  0  0  0  0  0  0  0  0
  194.9590  176.0830  142.8830 C   0  0  0  0  0  0  0  0  0  0  0  0
  193.0660  176.2200  144.2670 N   0  0  0  0  0  0  0  0  0  0  0  0
  197.0240  175.2850  143.5850 C   0  0  0  0  0  3  0  0  0  0  0  0
  195.6970  175.5690  143.9230 C   0  0  0  0  0  0  0  0  0  0  0  0
  195.9180  176.1990  141.5200 S   0  0  0  0  0  0  0  0  0  0  0  0
  197.3180  175.5840  142.2510 C   0  0  0  0  0  3  0  0  0  0  0  0
  195.0880  175.3850  145.1640 C   0  0  0  0  0  0  0  0  0  0  0  0
  193.7660  175.7240  145.3040 N   0  0  0  0  0  0  0  0  0  0  0  0
  193.6250  176.4160  143.0410 C   0  0  0  0  0  3  0  0  0  0  0  0
  2  1  1  0  0  0  0
  2 34  1  1  0  0  0
  3 21  1  6  0  0  0
  3  1  1  0  0  0  0
  4  8  1  6  0  0  0
  4  3  1  0  0  0  0
  4  2  1  0  0  0  0
  5 13  2  0  0  0  0
  5 17  1  0  0  0  0
  6 20  2  0  0  0  0
  7  8  1  0  0  0  0
  9 19  2  0  0  0  0
  9  5  1  0  0  0  0
 10 16  2  0  0  0  0
 11 16  1  0  0  0  0
 11 19  1  0  0  0  0
 12  8  2  0  0  0  0
 13  6  1  0  0  0  0
 14 17  1  0  0  0  0
 15 10  1  0  0  0  0
 15 12  1  0  0  0  0
 16  7  1  0  0  0  0
 17 18  2  0  0  0  0
 18 20  1  0  0  0  0
 19 14  1  0  0  0  0
 22 21  2  0  0  0  0
 23 25  2  0  0  0  0
 24 27  1  0  0  0  0
 25 27  1  0  0  0  0
 26 23  1  0  0  0  0
 26 29  1  0  0  0  0
 27 30  1  6  0  0  0
 28 29  2  0  0  0  0
 28 21  1  0  0  0  0
 29 24  1  0  0  0  0
 30 31  1  0  0  0  0
 31 33  1  0  0  0  0
 33 32  1  0  0  0  0
 34 37  1  0  0  0  0
 35 39  1  0  0  0  0
 35 37  1  0  0  0  0
 36 37  1  0  0  0  0
 36 38  1  0  0  0  0
 39 48  1  6  0  0  0
 39 38  1  0  0  0  0
 41 49  1  0  0  0  0
 41 44  2  0  0  0  0
 42 48  1  0  0  0  0
 43 44  1  0  0  0  0
 44 47  1  0  0  0  0
 45 46  1  0  0  0  0
 45 41  1  0  0  0  0
 46 43  2  0  0  0  0
 47 48  1  0  0  0  0
 47 40  2  0  0  0  0
 49 42  2  0  0  0  0
M  END
>  <MODEL>
1

>  <REMARK>
 VINA RESULT:      -8.4      0.000      0.000
  Name = 
  9 active torsions:
  status: ('A' for Active; 'I' for Inactive)
    1  A    between atoms: C_7  and  C_32
    2  A    between atoms: C_7  and  N_42
    3  A    between atoms: C_12  and  C_47
    4  A    between atoms: C_15  and  C_24
    5  A    between atoms: C_15  and  O_48
    6  A    between atoms: C_21  and  C_43
    7  A    between atoms: N_30  and  C_43
    8  A    between atoms: N_33  and  C_38
    9  A    between atoms: C_35  and  O_48
                            x       y       z     vdW  Elec       q    Type
                         _______ _______ _______ _____ _____    ______ ____

>  <TORSDO>
F 9

$$$$
=
 OpenBabel11042414123D

 49 56  0  0  1  0  0  0  0  0999 V2000
  194.1240  174.5320  146.1030 C   0  0  0  0  0  2  0  0  0  0  0  0
  193.4720  175.2570  144.9350 C   0  0  2  0  0  3  0  0  0  0  0  0
  195.4430  175.2330  145.8150 C   0  0  2  0  0  3  0  0  0  0  0  0
  194.7780  175.9880  144.6560 C   0  0  1  0  0  3  0  0  0  0  0  0
  190.5620  173.4180  139.6360 C   0  0  0  0  0  0  0  0  0  0  0  0
  188.3200  172.5710  139.4360 C   0  0  0  0  0  3  0  0  0  0  0  0
  194.7160  174.6760  142.3700 C   0  0  0  0  0  2  0  0  0  0  0  0
  195.3370  175.7110  143.2790 C   0  0  0  0  0  0  0  0  0  0  0  0
  191.7940  173.7630  139.1810 N   0  0  0  0  0  0  0  0  0  0  0  0
  195.8860  175.8210  140.5850 N   0  0  0  0  0  0  0  0  0  0  0  0
  193.8810  174.7620  139.9460 N   0  0  0  0  0  2  0  0  0  0  0  0
  196.3460  176.4000  142.8610 N   0  0  0  0  0  0  0  0  0  0  0  0
  189.5570  172.8710  138.8410 C   0  0  0  0  0  3  0  0  0  0  0  0
  191.7210  174.3250  141.6610 S   0  0  0  0  0  0  0  0  0  0  0  0
  196.9300  176.1640  141.5540 C   0  0  0  0  0  2  0  0  0  0  0  0
  194.8480  175.1230  140.9390 C   0  0  0  0  0  0  0  0  0  0  0  0
  190.3410  173.6570  140.9840 C   0  0  0  0  0  0  0  0  0  0  0  0
  189.1240  173.3730  141.5970 C   0  0  0  0  0  3  0  0  0  0  0  0
  192.5570  174.2650  140.1810 C   0  0  0  0  0  0  0  0  0  0  0  0
  188.1050  172.8210  140.8050 C   0  0  0  0  0  3  0  0  0  0  0  0
  196.5210  174.2560  145.4280 C   0  0  0  0  0  0  0  0  0  0  0  0
  197.3920  174.5760  144.5730 O   0  0  0  0  0  0  0  0  0  0  0  0
  195.5180  169.5960  145.9090 C   0  0  0  0  0  3  0  0  0  0  0  0
  196.6600  171.5180  143.7580 S   0  0  0  0  0  0  0  0  0  0  0  0
  194.8410  169.6920  144.7490 C   0  0  0  0  0  3  0  0  0  0  0  0
  196.5440  170.5910  146.4010 C   0  0  0  0  0  2  0  0  0  0  0  0
  194.9590  170.8510  143.7920 C   0  0  1  0  0  3  0  0  0  0  0  0
  196.5450  172.9780  146.0800 N   0  0  0  0  0  0  0  0  0  0  0  0
  196.6170  171.7980  145.5330 C   0  0  0  0  0  0  0  0  0  0  0  0
  194.0530  171.8550  144.1480 O   0  0  0  0  0  0  0  0  0  0  0  0
  192.7990  171.2420  144.1040 C   0  0  0  0  0  2  0  0  0  0  0  0
  191.0440  170.7910  142.5730 F   0  0  0  0  0  0  0  0  0  0  0  0
  192.4110  170.9740  142.6640 C   0  0  0  0  0  2  0  0  0  0  0  0
  192.4270  176.2350  145.4370 C   0  0  0  0  0  2  0  0  0  0  0  0
  190.5120  176.5380  146.7440 C   0  0  0  0  0  2  0  0  0  0  0  0
  190.7840  174.5750  145.5360 C   0  0  0  0  0  2  0  0  0  0  0  0
  191.5050  175.5570  146.3310 N   0  0  0  0  0  0  0  0  0  0  0  0
  189.3620  174.5310  146.0470 C   0  0  0  0  0  2  0  0  0  0  0  0
  189.1530  175.8630  146.7290 C   0  0  2  0  0  3  0  0  0  0  0  0
  186.6320  176.4420  147.6730 O   0  0  0  0  0  0  0  0  0  0  0  0
  186.4230  178.2450  144.6320 C   0  0  0  0  0  0  0  0  0  0  0  0
  188.5230  177.2070  144.8110 N   0  0  0  0  0  0  0  0  0  0  0  0
  184.7570  178.0880  146.2430 C   0  0  0  0  0  3  0  0  0  0  0  0
  186.0490  177.7270  145.8500 C   0  0  0  0  0  0  0  0  0  0  0  0
  185.1740  179.1610  144.0070 S   0  0  0  0  0  0  0  0  0  0  0  0
  184.1150  178.9060  145.3060 C   0  0  0  0  0  3  0  0  0  0  0  0
  186.9490  176.9270  146.5530 C   0  0  0  0  0  0  0  0  0  0  0  0
  188.1820  176.6840  146.0020 N   0  0  0  0  0  0  0  0  0  0  0  0
  187.6720  177.9920  144.0930 C   0  0  0  0  0  3  0  0  0  0  0  0
  2 34  1  1  0  0  0
  2  1  1  0  0  0  0
  3 21  1  6  0  0  0
  3  1  1  0  0  0  0
  4  8  1  6  0  0  0
  4  2  1  0  0  0  0
  4  3  1  0  0  0  0
  5 17  1  0  0  0  0
  6 20  2  0  0  0  0
  7  8  1  0  0  0  0
  9  5  1  0  0  0  0
  9 19  2  0  0  0  0
 10 16  2  0  0  0  0
 10 15  1  0  0  0  0
 11 19  1  0  0  0  0
 11 16  1  0  0  0  0
 12  8  2  0  0  0  0
 13  6  1  0  0  0  0
 13  5  2  0  0  0  0
 15 12  1  0  0  0  0
 16  7  1  0  0  0  0
 17 18  2  0  0  0  0
 17 14  1  0  0  0  0
 19 14  1  0  0  0  0
 20 18  1  0  0  0  0
 21 28  1  0  0  0  0
 22 21  2  0  0  0  0
 23 26  1  0  0  0  0
 24 27  1  0  0  0  0
 24 29  1  0  0  0  0
 25 23  2  0  0  0  0
 27 30  1  1  0  0  0
 27 25  1  0  0  0  0
 29 28  2  0  0  0  0
 29 26  1  0  0  0  0
 31 30  1  0  0  0  0
 32 33  1  0  0  0  0
 33 31  1  0  0  0  0
 34 37  1  0  0  0  0
 36 38  1  0  0  0  0
 36 37  1  0  0  0  0
 37 35  1  0  0  0  0
 38 39  1  0  0  0  0
 39 48  1  6  0  0  0
 39 35  1  0  0  0  0
 41 44  2  0  0  0  0
 42 48  1  0  0  0  0
 44 43  1  0  0  0  0
 44 47  1  0  0  0  0
 45 41  1  0  0  0  0
 45 46  1  0  0  0  0
 46 43  2  0  0  0  0
 47 40  2  0  0  0  0
 48 47  1  0  0  0  0
 49 41  1  0  0  0  0
 49 42  2  0  0  0  0
M  END
>  <MODEL>
2

>  <REMARK>
 VINA RESULT:      -8.2      2.532      8.654
  Name = 
  9 active torsions:
  status: ('A' for Active; 'I' for Inactive)
    1  A    between atoms: C_7  and  C_32
    2  A    between atoms: C_7  and  N_42
    3  A    between atoms: C_12  and  C_47
    4  A    between atoms: C_15  and  C_24
    5  A    between atoms: C_15  and  O_48
    6  A    between atoms: C_21  and  C_43
    7  A    between atoms: N_30  and  C_43
    8  A    between atoms: N_33  and  C_38
    9  A    between atoms: C_35  and  O_48
                            x       y       z     vdW  Elec       q    Type
                         _______ _______ _______ _____ _____    ______ ____

>  <TORSDO>
F 9

$$$$
=
 OpenBabel11042414123D

 49 56  0  0  1  0  0  0  0  0999 V2000
  192.9450  174.0610  146.1140 C   0  0  0  0  0  2  0  0  0  0  0  0
  191.7070  174.8750  145.7700 C   0  0  2  0  0  3  0  0  0  0  0  0
  193.3820  174.0920  144.6570 C   0  0  2  0  0  3  0  0  0  0  0  0
  192.1480  174.9400  144.3150 C   0  0  1  0  0  3  0  0  0  0  0  0
  193.9430  173.9900  137.5740 C   0  0  0  0  0  0  0  0  0  0  0  0
  195.7510  174.5750  136.0980 C   0  0  0  0  0  3  0  0  0  0  0  0
  191.2140  174.5900  141.8750 C   0  0  0  0  0  2  0  0  0  0  0  0
  191.1590  174.3130  143.3590 C   0  0  0  0  0  0  0  0  0  0  0  0
  192.7560  173.4200  137.9010 N   0  0  0  0  0  0  0  0  0  0  0  0
  189.8870  172.5770  141.6450 N   0  0  0  0  0  0  0  0  0  0  0  0
  191.2950  173.0600  139.8180 N   0  0  0  0  0  2  0  0  0  0  0  0
  190.2720  173.4960  143.8210 N   0  0  0  0  0  0  0  0  0  0  0  0
  194.5050  173.9550  136.2990 C   0  0  0  0  0  3  0  0  0  0  0  0
  193.6880  174.4850  140.0140 S   0  0  0  0  0  0  0  0  0  0  0  0
  189.2910  172.8790  142.9490 C   0  0  0  0  0  2  0  0  0  0  0  0
  190.7810  173.3620  141.1200 C   0  0  0  0  0  0  0  0  0  0  0  0
  194.6030  174.6240  138.6160 C   0  0  0  0  0  0  0  0  0  0  0  0
  195.8370  175.2420  138.4450 C   0  0  0  0  0  3  0  0  0  0  0  0
  192.4660  173.6180  139.2090 C   0  0  0  0  0  0  0  0  0  0  0  0
  196.4120  175.2130  137.1650 C   0  0  0  0  0  3  0  0  0  0  0  0
  193.4160  172.7130  144.0540 C   0  0  0  0  0  0  0  0  0  0  0  0
  192.8070  171.7600  144.6120 O   0  0  0  0  0  0  0  0  0  0  0  0
  197.2540  172.8080  141.1880 C   0  0  0  0  0  3  0  0  0  0  0  0
  196.4830  171.7670  144.0070 S   0  0  0  0  0  0  0  0  0  0  0  0
  197.9390  173.3050  142.2360 C   0  0  0  0  0  3  0  0  0  0  0  0
  195.9260  172.0930  141.2800 C   0  0  0  0  0  2  0  0  0  0  0  0
  197.4440  173.2820  143.6600 C   0  0  1  0  0  3  0  0  0  0  0  0
  194.1280  172.5290  142.8220 N   0  0  0  0  0  0  0  0  0  0  0  0
  195.3580  172.1370  142.6550 C   0  0  0  0  0  0  0  0  0  0  0  0
  196.6680  174.4160  143.9120 O   0  0  0  0  0  0  0  0  0  0  0  0
  197.4600  175.4940  143.5090 C   0  0  0  0  0  2  0  0  0  0  0  0
  195.6330  176.2930  142.2240 F   0  0  0  0  0  0  0  0  0  0  0  0
  196.5760  176.6750  143.1580 C   0  0  0  0  0  2  0  0  0  0  0  0
  191.7890  176.2530  146.4000 C   0  0  0  0  0  2  0  0  0  0  0  0
  189.8730  177.5870  146.2620 C   0  0  0  0  0  2  0  0  0  0  0  0
  189.6950  175.3850  146.9730 C   0  0  0  0  0  2  0  0  0  0  0  0
  190.5360  176.5680  147.0630 N   0  0  0  0  0  0  0  0  0  0  0  0
  188.2720  175.8520  146.7730 C   0  0  0  0  0  2  0  0  0  0  0  0
  188.3970  177.2430  146.1960 C   0  0  2  0  0  3  0  0  0  0  0  0
  185.9890  178.3440  145.4420 O   0  0  0  0  0  0  0  0  0  0  0  0
  187.0970  177.3790  142.2190 C   0  0  0  0  0  0  0  0  0  0  0  0
  188.6950  176.7800  143.8340 N   0  0  0  0  0  0  0  0  0  0  0  0
  185.0970  178.4520  142.7090 C   0  0  0  0  0  3  0  0  0  0  0  0
  186.2890  177.9090  143.1970 C   0  0  0  0  0  0  0  0  0  0  0  0
  186.3660  177.5650  140.7290 S   0  0  0  0  0  0  0  0  0  0  0  0
  184.9790  178.3390  141.3200 C   0  0  0  0  0  3  0  0  0  0  0  0
  186.7100  177.8630  144.5260 C   0  0  0  0  0  0  0  0  0  0  0  0
  187.9230  177.2870  144.8120 N   0  0  0  0  0  0  0  0  0  0  0  0
  188.3190  176.8050  142.5250 C   0  0  0  0  0  3  0  0  0  0  0  0
  2  1  1  0  0  0  0
  2 34  1  1  0  0  0
  3 21  1  6  0  0  0
  3  1  1  0  0  0  0
  4  8  1  6  0  0  0
  4  3  1  0  0  0  0
  4  2  1  0  0  0  0
  5  9  1  0  0  0  0
  5 17  1  0  0  0  0
  6 13  1  0  0  0  0
  6 20  2  0  0  0  0
  7  8  1  0  0  0  0
  8 12  2  0  0  0  0
  9 19  2  0  0  0  0
 10 15  1  0  0  0  0
 11 16  1  0  0  0  0
 13  5  2  0  0  0  0
 15 12  1  0  0  0  0
 16 10  2  0  0  0  0
 16  7  1  0  0  0  0
 17 14  1  0  0  0  0
 18 17  2  0  0  0  0
 19 11  1  0  0  0  0
 19 14  1  0  0  0  0
 20 18  1  0  0  0  0
 21 22  2  0  0  0  0
 23 26  1  0  0  0  0
 23 25  2  0  0  0  0
 25 27  1  0  0  0  0
 26 29  1  0  0  0  0
 27 30  1  6  0  0  0
 27 24  1  0  0  0  0
 28 21  1  0  0  0  0
 29 28  2  0  0  0  0
 29 24  1  0  0  0  0
 31 30  1  0  0  0  0
 32 33  1  0  0  0  0
 33 31  1  0  0  0  0
 34 37  1  0  0  0  0
 35 37  1  0  0  0  0
 36 37  1  0  0  0  0
 38 36  1  0  0  0  0
 39 48  1  6  0  0  0
 39 35  1  0  0  0  0
 39 38  1  0  0  0  0
 41 49  1  0  0  0  0
 41 44  2  0  0  0  0
 42 48  1  0  0  0  0
 43 44  1  0  0  0  0
 44 47  1  0  0  0  0
 45 46  1  0  0  0  0
 45 41  1  0  0  0  0
 46 43  2  0  0  0  0
 47 48  1  0  0  0  0
 47 40  2  0  0  0  0
 49 42  2  0  0  0  0
M  END
>  <MODEL>
3

>  <REMARK>
 VINA RESULT:      -8.2      3.076      8.199
  Name = 
  9 active torsions:
  status: ('A' for Active; 'I' for Inactive)
    1  A    between atoms: C_7  and  C_32
    2  A    between atoms: C_7  and  N_42
    3  A    between atoms: C_12  and  C_47
    4  A    between atoms: C_15  and  C_24
    5  A    between atoms: C_15  and  O_48
    6  A    between atoms: C_21  and  C_43
    7  A    between atoms: N_30  and  C_43
    8  A    between atoms: N_33  and  C_38
    9  A    between atoms: C_35  and  O_48
                            x       y       z     vdW  Elec       q    Type
                         _______ _______ _______ _____ _____    ______ ____

>  <TORSDO>
F 9

$$$$
=
 OpenBabel11042414123D

 49 56  0  0  1  0  0  0  0  0999 V2000
  191.6540  177.5420  142.9000 C   0  0  0  0  0  2  0  0  0  0  0  0
  192.2280  176.4920  143.8380 C   0  0  2  0  0  3  0  0  0  0  0  0
  190.7030  178.0110  143.9910 C   0  0  2  0  0  3  0  0  0  0  0  0
  191.3040  176.9710  144.9480 C   0  0  1  0  0  3  0  0  0  0  0  0
  190.8170  170.8670  141.4740 C   0  0  0  0  0  0  0  0  0  0  0  0
  191.6220  169.8990  139.4240 C   0  0  0  0  0  3  0  0  0  0  0  0
  189.7740  174.8710  144.5060 C   0  0  0  0  0  2  0  0  0  0  0  0
  190.3560  175.9030  145.4440 C   0  0  0  0  0  0  0  0  0  0  0  0
  190.1310  170.8770  142.6460 N   0  0  0  0  0  0  0  0  0  0  0  0
  189.3160  173.5890  146.5100 N   0  0  0  0  0  0  0  0  0  0  0  0
  189.6930  172.3070  144.5690 N   0  0  0  0  0  2  0  0  0  0  0  0
  190.0680  175.8530  146.7010 N   0  0  0  0  0  0  0  0  0  0  0  0
  190.8600  169.7830  140.6000 C   0  0  0  0  0  3  0  0  0  0  0  0
  191.2740  173.1380  142.4220 S   0  0  0  0  0  0  0  0  0  0  0  0
  189.1530  174.8570  147.2250 C   0  0  0  0  0  2  0  0  0  0  0  0
  189.5990  173.5690  145.2410 C   0  0  0  0  0  0  0  0  0  0  0  0
  191.5100  172.0330  141.1840 C   0  0  0  0  0  0  0  0  0  0  0  0
  192.2730  172.1730  140.0300 C   0  0  0  0  0  3  0  0  0  0  0  0
  190.2700  172.0650  143.2790 C   0  0  0  0  0  0  0  0  0  0  0  0
  192.3230  171.0870  139.1420 C   0  0  0  0  0  3  0  0  0  0  0  0
  189.2630  177.7940  143.6080 C   0  0  0  0  0  0  0  0  0  0  0  0
  188.9730  177.2160  142.5250 O   0  0  0  0  0  0  0  0  0  0  0  0
  184.7760  178.7410  144.9960 C   0  0  0  0  0  3  0  0  0  0  0  0
  186.3600  176.4250  143.6720 S   0  0  0  0  0  0  0  0  0  0  0  0
  184.3870  178.3540  143.7660 C   0  0  0  0  0  3  0  0  0  0  0  0
  186.1130  178.4210  145.6240 C   0  0  0  0  0  2  0  0  0  0  0  0
  185.2610  177.5960  142.8000 C   0  0  1  0  0  3  0  0  0  0  0  0
  188.2450  178.2300  144.5210 N   0  0  0  0  0  0  0  0  0  0  0  0
  187.0400  177.7590  144.6660 C   0  0  0  0  0  0  0  0  0  0  0  0
  186.0160  178.4920  142.0370 O   0  0  0  0  0  0  0  0  0  0  0  0
  185.5970  178.2900  140.7210 C   0  0  0  0  0  2  0  0  0  0  0  0
  186.0750  176.8110  138.9290 F   0  0  0  0  0  0  0  0  0  0  0  0
  186.6600  177.5250  139.9570 C   0  0  0  0  0  2  0  0  0  0  0  0
  193.6680  176.8220  144.1840 C   0  0  0  0  0  2  0  0  0  0  0  0
  193.6590  174.6100  144.9410 C   0  0  0  0  0  2  0  0  0  0  0  0
  195.5830  175.8910  145.1500 C   0  0  0  0  0  2  0  0  0  0  0  0
  194.1330  175.9510  145.2490 N   0  0  0  0  0  0  0  0  0  0  0  0
  196.0050  174.4830  145.5030 C   0  0  0  0  0  2  0  0  0  0  0  0
  194.7800  173.6350  145.2480 C   0  0  2  0  0  3  0  0  0  0  0  0
  193.5410  171.1870  145.0090 O   0  0  0  0  0  0  0  0  0  0  0  0
  195.3850  171.0810  141.9870 C   0  0  0  0  0  0  0  0  0  0  0  0
  195.8200  173.0890  143.1260 N   0  0  0  0  0  0  0  0  0  0  0  0
  193.9440  169.4340  142.7640 C   0  0  0  0  0  3  0  0  0  0  0  0
  194.5280  170.6850  142.9860 C   0  0  0  0  0  0  0  0  0  0  0  0
  195.4470  169.9030  140.8040 S   0  0  0  0  0  0  0  0  0  0  0  0
  194.3590  168.8490  141.5640 C   0  0  0  0  0  3  0  0  0  0  0  0
  194.3240  171.5260  144.0800 C   0  0  0  0  0  0  0  0  0  0  0  0
  194.9910  172.7250  144.1210 N   0  0  0  0  0  0  0  0  0  0  0  0
  196.0460  172.2960  142.0420 C   0  0  0  0  0  3  0  0  0  0  0  0
  1  2  1  0  0  0  0
  1  3  1  0  0  0  0
  2 34  1  1  0  0  0
  2  4  1  0  0  0  0
  3 21  1  6  0  0  0
  3  4  1  0  0  0  0
  4  8  1  6  0  0  0
  5  9  1  0  0  0  0
  6 13  1  0  0  0  0
  7 16  1  0  0  0  0
  7  8  1  0  0  0  0
  8 12  2  0  0  0  0
  9 19  2  0  0  0  0
 10 15  1  0  0  0  0
 11 16  1  0  0  0  0
 12 15  1  0  0  0  0
 13  5  2  0  0  0  0
 14 19  1  0  0  0  0
 16 10  2  0  0  0  0
 17  5  1  0  0  0  0
 17 14  1  0  0  0  0
 18 17  2  0  0  0  0
 19 11  1  0  0  0  0
 20  6  2  0  0  0  0
 20 18  1  0  0  0  0
 21 28  1  0  0  0  0
 22 21  2  0  0  0  0
 23 26  1  0  0  0  0
 24 29  1  0  0  0  0
 25 23  2  0  0  0  0
 27 30  1  1  0  0  0
 27 24  1  0  0  0  0
 27 25  1  0  0  0  0
 28 29  2  0  0  0  0
 29 26  1  0  0  0  0
 31 30  1  0  0  0  0
 32 33  1  0  0  0  0
 33 31  1  0  0  0  0
 34 37  1  0  0  0  0
 35 39  1  0  0  0  0
 35 37  1  0  0  0  0
 36 37  1  0  0  0  0
 36 38  1  0  0  0  0
 39 48  1  6  0  0  0
 39 38  1  0  0  0  0
 41 49  1  0  0  0  0
 41 44  2  0  0  0  0
 42 48  1  0  0  0  0
 43 44  1  0  0  0  0
 44 47  1  0  0  0  0
 45 46  1  0  0  0  0
 45 41  1  0  0  0  0
 46 43  2  0  0  0  0
 47 48  1  0  0  0  0
 47 40  2  0  0  0  0
 49 42  2  0  0  0  0
M  END
>  <MODEL>
4

>  <REMARK>
 VINA RESULT:      -8.1      2.525      4.604
  Name = 
  9 active torsions:
  status: ('A' for Active; 'I' for Inactive)
    1  A    between atoms: C_7  and  C_32
    2  A    between atoms: C_7  and  N_42
    3  A    between atoms: C_12  and  C_47
    4  A    between atoms: C_15  and  C_24
    5  A    between atoms: C_15  and  O_48
    6  A    between atoms: C_21  and  C_43
    7  A    between atoms: N_30  and  C_43
    8  A    between atoms: N_33  and  C_38
    9  A    between atoms: C_35  and  O_48
                            x       y       z     vdW  Elec       q    Type
                         _______ _______ _______ _____ _____    ______ ____

>  <TORSDO>
F 9

$$$$
=
 OpenBabel11042414123D

 49 56  0  0  1  0  0  0  0  0999 V2000
  193.2220  174.5890  142.5220 C   0  0  0  0  0  2  0  0  0  0  0  0
  193.7250  175.7850  143.3170 C   0  0  2  0  0  3  0  0  0  0  0  0
  191.8540  175.2390  142.3910 C   0  0  2  0  0  3  0  0  0  0  0  0
  192.3690  176.4600  143.1660 C   0  0  1  0  0  3  0  0  0  0  0  0
  185.4940  177.9690  143.2890 C   0  0  0  0  0  0  0  0  0  0  0  0
  183.7260  178.4150  141.7200 C   0  0  0  0  0  3  0  0  0  0  0  0
  190.4470  177.5970  144.5670 C   0  0  0  0  0  2  0  0  0  0  0  0
  191.6890  176.7400  144.4870 C   0  0  0  0  0  0  0  0  0  0  0  0
  186.0320  177.8080  144.5250 N   0  0  0  0  0  0  0  0  0  0  0  0
  190.1000  176.5550  146.7250 N   0  0  0  0  0  0  0  0  0  0  0  0
  188.1340  177.2220  145.6100 N   0  0  0  0  0  2  0  0  0  0  0  0
  192.1610  176.2040  145.5620 N   0  0  0  0  0  0  0  0  0  0  0  0
  184.1580  178.2900  143.0510 C   0  0  0  0  0  3  0  0  0  0  0  0
  187.8870  177.3970  142.8340 S   0  0  0  0  0  0  0  0  0  0  0  0
  191.5550  176.4530  146.8570 C   0  0  0  0  0  2  0  0  0  0  0  0
  189.5590  177.0900  145.6710 C   0  0  0  0  0  0  0  0  0  0  0  0
  186.3710  177.7810  142.2320 C   0  0  0  0  0  0  0  0  0  0  0  0
  185.9680  177.8950  140.9050 C   0  0  0  0  0  3  0  0  0  0  0  0
  187.3490  177.5040  144.4430 C   0  0  0  0  0  0  0  0  0  0  0  0
  184.6250  178.2180  140.6540 C   0  0  0  0  0  3  0  0  0  0  0  0
  190.7840  174.4320  143.0770 C   0  0  0  0  0  0  0  0  0  0  0  0
  190.9440  174.0430  144.2660 O   0  0  0  0  0  0  0  0  0  0  0  0
  188.1910  172.6750  139.4510 C   0  0  0  0  0  3  0  0  0  0  0  0
  190.4270  171.7290  141.3820 S   0  0  0  0  0  0  0  0  0  0  0  0
  189.3550  172.2830  138.8990 C   0  0  0  0  0  3  0  0  0  0  0  0
  188.0010  173.0480  140.9030 C   0  0  0  0  0  2  0  0  0  0  0  0
  190.6670  172.2240  139.6390 C   0  0  1  0  0  3  0  0  0  0  0  0
  189.5770  174.1510  142.3530 N   0  0  0  0  0  0  0  0  0  0  0  0
  189.2920  173.0970  141.6440 C   0  0  0  0  0  0  0  0  0  0  0  0
  191.3080  173.4640  139.5720 O   0  0  0  0  0  0  0  0  0  0  0  0
  192.5410  173.2020  138.9710 C   0  0  0  0  0  2  0  0  0  0  0  0
  191.4180  174.5260  137.3540 F   0  0  0  0  0  0  0  0  0  0  0  0
  192.5580  173.7760  137.5680 C   0  0  0  0  0  2  0  0  0  0  0  0
  194.7730  176.5430  142.5240 C   0  0  0  0  0  2  0  0  0  0  0  0
  195.9230  175.4620  144.2490 C   0  0  0  0  0  2  0  0  0  0  0  0
  197.0020  175.8970  142.2410 C   0  0  0  0  0  2  0  0  0  0  0  0
  196.0580  176.4570  143.1960 N   0  0  0  0  0  0  0  0  0  0  0  0
  197.9410  174.9930  143.0070 C   0  0  0  0  0  2  0  0  0  0  0  0
  197.1820  174.6160  144.2580 C   0  0  2  0  0  3  0  0  0  0  0  0
  197.1920  173.0510  146.5240 O   0  0  0  0  0  0  0  0  0  0  0  0
  196.1680  170.5550  144.2300 C   0  0  0  0  0  0  0  0  0  0  0  0
  196.4890  172.5950  143.1110 N   0  0  0  0  0  0  0  0  0  0  0  0
  196.4830  170.2630  146.5130 C   0  0  0  0  0  3  0  0  0  0  0  0
  196.5210  171.1390  145.4230 C   0  0  0  0  0  0  0  0  0  0  0  0
  195.8000  168.9450  144.4840 S   0  0  0  0  0  0  0  0  0  0  0  0
  196.0920  168.9700  146.1530 C   0  0  0  0  0  3  0  0  0  0  0  0
  196.8670  172.4900  145.4430 C   0  0  0  0  0  0  0  0  0  0  0  0
  196.8430  173.1920  144.2630 N   0  0  0  0  0  0  0  0  0  0  0  0
  196.1460  171.2780  143.0500 C   0  0  0  0  0  3  0  0  0  0  0  0
  1  2  1  0  0  0  0
  2 34  1  6  0  0  0
  3  1  1  0  0  0  0
  3 21  1  1  0  0  0
  3  4  1  0  0  0  0
  4  2  1  0  0  0  0
  4  8  1  1  0  0  0
  5  9  1  0  0  0  0
  6 13  2  0  0  0  0
  7 16  1  0  0  0  0
  8  7  1  0  0  0  0
  8 12  2  0  0  0  0
 10 15  1  0  0  0  0
 11 16  1  0  0  0  0
 12 15  1  0  0  0  0
 13  5  1  0  0  0  0
 14 19  1  0  0  0  0
 16 10  2  0  0  0  0
 17 14  1  0  0  0  0
 17  5  2  0  0  0  0
 18 17  1  0  0  0  0
 19  9  2  0  0  0  0
 19 11  1  0  0  0  0
 20 18  2  0  0  0  0
 20  6  1  0  0  0  0
 21 22  2  0  0  0  0
 23 26  1  0  0  0  0
 24 29  1  0  0  0  0
 25 23  2  0  0  0  0
 25 27  1  0  0  0  0
 26 29  1  0  0  0  0
 27 30  1  1  0  0  0
 27 24  1  0  0  0  0
 28 21  1  0  0  0  0
 29 28  2  0  0  0  0
 31 30  1  0  0  0  0
 32 33  1  0  0  0  0
 33 31  1  0  0  0  0
 34 37  1  0  0  0  0
 35 39  1  0  0  0  0
 36 38  1  0  0  0  0
 36 37  1  0  0  0  0
 37 35  1  0  0  0  0
 39 38  1  6  0  0  0
 39 48  1  0  0  0  0
 41 45  1  0  0  0  0
 41 44  2  0  0  0  0
 42 48  1  0  0  0  0
 44 47  1  0  0  0  0
 44 43  1  0  0  0  0
 45 46  1  0  0  0  0
 46 43  2  0  0  0  0
 47 40  2  0  0  0  0
 48 47  1  0  0  0  0
 49 42  2  0  0  0  0
 49 41  1  0  0  0  0
M  END
>  <MODEL>
5

>  <REMARK>
 VINA RESULT:      -8.1      2.829      7.883
  Name = 
  9 active torsions:
  status: ('A' for Active; 'I' for Inactive)
    1  A    between atoms: C_7  and  C_32
    2  A    between atoms: C_7  and  N_42
    3  A    between atoms: C_12  and  C_47
    4  A    between atoms: C_15  and  C_24
    5  A    between atoms: C_15  and  O_48
    6  A    between atoms: C_21  and  C_43
    7  A    between atoms: N_30  and  C_43
    8  A    between atoms: N_33  and  C_38
    9  A    between atoms: C_35  and  O_48
                            x       y       z     vdW  Elec       q    Type
                         _______ _______ _______ _____ _____    ______ ____

>  <TORSDO>
F 9

$$$$
=
 OpenBabel11042414123D

 49 56  0  0  1  0  0  0  0  0999 V2000
  193.5120  174.8260  141.4790 C   0  0  0  0  0  2  0  0  0  0  0  0
  194.3100  175.8180  142.3110 C   0  0  2  0  0  3  0  0  0  0  0  0
  192.2120  175.4040  142.0180 C   0  0  2  0  0  3  0  0  0  0  0  0
  193.0170  176.4260  142.8350 C   0  0  1  0  0  3  0  0  0  0  0  0
  186.8370  177.9400  145.8480 C   0  0  0  0  0  0  0  0  0  0  0  0
  184.6980  178.8360  145.2060 C   0  0  0  0  0  3  0  0  0  0  0  0
  191.8460  177.1490  145.0830 C   0  0  0  0  0  2  0  0  0  0  0  0
  192.8740  176.3320  144.3370 C   0  0  0  0  0  0  0  0  0  0  0  0
  187.7470  177.4280  146.7150 N   0  0  0  0  0  0  0  0  0  0  0  0
  192.1500  175.5450  146.8720 N   0  0  0  0  0  0  0  0  0  0  0  0
  190.0120  176.5280  146.7650 N   0  0  0  0  0  2  0  0  0  0  0  0
  193.6250  175.5070  144.9880 N   0  0  0  0  0  0  0  0  0  0  0  0
  185.5480  178.3340  146.2060 C   0  0  0  0  0  3  0  0  0  0  0  0
  188.8390  177.4850  144.4180 S   0  0  0  0  0  0  0  0  0  0  0  0
  193.5380  175.3890  146.4310 C   0  0  0  0  0  2  0  0  0  0  0  0
  191.3440  176.3640  146.2650 C   0  0  0  0  0  0  0  0  0  0  0  0
  187.2640  178.0450  144.5330 C   0  0  0  0  0  0  0  0  0  0  0  0
  186.4420  178.5360  143.5240 C   0  0  0  0  0  3  0  0  0  0  0  0
  188.9100  177.1400  146.0820 C   0  0  0  0  0  0  0  0  0  0  0  0
  185.1430  178.9360  143.8740 C   0  0  0  0  0  3  0  0  0  0  0  0
  191.4390  174.3890  142.8180 C   0  0  0  0  0  0  0  0  0  0  0  0
  190.2500  174.6260  143.1650 O   0  0  0  0  0  0  0  0  0  0  0  0
  192.1020  169.6490  142.6060 C   0  0  0  0  0  3  0  0  0  0  0  0
  191.7270  172.0340  140.6570 S   0  0  0  0  0  0  0  0  0  0  0  0
  191.0400  169.6070  141.7790 C   0  0  0  0  0  3  0  0  0  0  0  0
  192.8990  170.8910  142.9330 C   0  0  0  0  0  2  0  0  0  0  0  0
  190.4410  170.8150  141.1050 C   0  0  1  0  0  3  0  0  0  0  0  0
  192.0810  173.1470  143.1410 N   0  0  0  0  0  0  0  0  0  0  0  0
  192.2800  172.1210  142.3650 C   0  0  0  0  0  0  0  0  0  0  0  0
  189.4880  171.4030  141.9410 O   0  0  0  0  0  0  0  0  0  0  0  0
  188.7960  172.3000  141.1260 C   0  0  0  0  0  2  0  0  0  0  0  0
  186.7880  172.1620  142.3820 F   0  0  0  0  0  0  0  0  0  0  0  0
  187.7600  173.0430  141.9470 C   0  0  0  0  0  2  0  0  0  0  0  0
  195.0220  176.8100  141.4110 C   0  0  0  0  0  2  0  0  0  0  0  0
  196.7120  175.8860  142.7370 C   0  0  0  0  0  2  0  0  0  0  0  0
  196.8430  175.7230  140.4260 C   0  0  0  0  0  2  0  0  0  0  0  0
  196.4590  176.6190  141.5050 N   0  0  0  0  0  0  0  0  0  0  0  0
  197.9410  174.8250  140.9470 C   0  0  0  0  0  2  0  0  0  0  0  0
  197.7730  174.8410  142.4490 C   0  0  2  0  0  3  0  0  0  0  0  0
  197.6140  174.2040  145.1240 O   0  0  0  0  0  0  0  0  0  0  0  0
  196.5230  171.0930  143.8320 C   0  0  0  0  0  0  0  0  0  0  0  0
  197.0010  172.5730  142.0720 N   0  0  0  0  0  0  0  0  0  0  0  0
  196.7430  171.6350  146.0800 C   0  0  0  0  0  3  0  0  0  0  0  0
  196.8690  172.0540  144.7520 C   0  0  0  0  0  0  0  0  0  0  0  0
  196.0530  169.7010  144.6280 S   0  0  0  0  0  0  0  0  0  0  0  0
  196.2880  170.3170  146.1900 C   0  0  0  0  0  3  0  0  0  0  0  0
  197.2930  173.3040  144.3010 C   0  0  0  0  0  0  0  0  0  0  0  0
  197.3500  173.5310  142.9490 N   0  0  0  0  0  0  0  0  0  0  0  0
  196.5830  171.3400  142.4720 C   0  0  0  0  0  3  0  0  0  0  0  0
  1  3  1  0  0  0  0
  1  2  1  0  0  0  0
  2 34  1  6  0  0  0
  2  4  1  0  0  0  0
  3 21  1  1  0  0  0
  3  4  1  0  0  0  0
  4  8  1  1  0  0  0
  5 13  1  0  0  0  0
  5  9  1  0  0  0  0
  6 13  2  0  0  0  0
  7 16  1  0  0  0  0
  8 12  2  0  0  0  0
  8  7  1  0  0  0  0
 12 15  1  0  0  0  0
 14 17  1  0  0  0  0
 14 19  1  0  0  0  0
 15 10  1  0  0  0  0
 16 11  1  0  0  0  0
 16 10  2  0  0  0  0
 17  5  2  0  0  0  0
 18 20  2  0  0  0  0
 18 17  1  0  0  0  0
 19  9  2  0  0  0  0
 19 11  1  0  0  0  0
 20  6  1  0  0  0  0
 21 28  1  0  0  0  0
 21 22  2  0  0  0  0
 23 26  1  0  0  0  0
 24 27  1  0  0  0  0
 24 29  1  0  0  0  0
 25 23  2  0  0  0  0
 27 25  1  0  0  0  0
 27 30  1  1  0  0  0
 29 26  1  0  0  0  0
 29 28  2  0  0  0  0
 31 30  1  0  0  0  0
 31 33  1  0  0  0  0
 33 32  1  0  0  0  0
 34 37  1  0  0  0  0
 36 38  1  0  0  0  0
 36 37  1  0  0  0  0
 37 35  1  0  0  0  0
 39 38  1  6  0  0  0
 39 35  1  0  0  0  0
 39 48  1  0  0  0  0
 41 45  1  0  0  0  0
 41 44  2  0  0  0  0
 42 49  2  0  0  0  0
 42 48  1  0  0  0  0
 43 46  2  0  0  0  0
 44 43  1  0  0  0  0
 45 46  1  0  0  0  0
 47 44  1  0  0  0  0
 47 40  2  0  0  0  0
 48 47  1  0  0  0  0
 49 41  1  0  0  0  0
M  END
>  <MODEL>
6

>  <REMARK>
 VINA RESULT:      -7.9      2.561      7.901
  Name = 
  9 active torsions:
  status: ('A' for Active; 'I' for Inactive)
    1  A    between atoms: C_7  and  C_32
    2  A    between atoms: C_7  and  N_42
    3  A    between atoms: C_12  and  C_47
    4  A    between atoms: C_15  and  C_24
    5  A    between atoms: C_15  and  O_48
    6  A    between atoms: C_21  and  C_43
    7  A    between atoms: N_30  and  C_43
    8  A    between atoms: N_33  and  C_38
    9  A    between atoms: C_35  and  O_48
                            x       y       z     vdW  Elec       q    Type
                         _______ _______ _______ _____ _____    ______ ____

>  <TORSDO>
F 9

$$$$
=
 OpenBabel11042414123D

 49 56  0  0  1  0  0  0  0  0999 V2000
  192.8250  172.5610  142.6650 C   0  0  0  0  0  2  0  0  0  0  0  0
  191.7360  171.6190  142.1750 C   0  0  2  0  0  3  0  0  0  0  0  0
  191.7730  173.5740  143.0900 C   0  0  2  0  0  3  0  0  0  0  0  0
  190.6720  172.6100  142.6240 C   0  0  1  0  0  3  0  0  0  0  0  0
  185.7330  177.4610  143.9060 C   0  0  0  0  0  0  0  0  0  0  0  0
  184.7580  178.5720  145.8040 C   0  0  0  0  0  3  0  0  0  0  0  0
  188.4150  173.6570  141.7520 C   0  0  0  0  0  2  0  0  0  0  0  0
  189.7970  173.1030  141.4940 C   0  0  0  0  0  0  0  0  0  0  0  0
  185.8900  177.1880  142.5860 N   0  0  0  0  0  0  0  0  0  0  0  0
  188.6200  174.6680  139.5600 N   0  0  0  0  0  0  0  0  0  0  0  0
  187.2620  175.8480  141.0820 N   0  0  0  0  0  2  0  0  0  0  0  0
  190.2580  173.0820  140.2880 N   0  0  0  0  0  0  0  0  0  0  0  0
  184.8080  178.3710  144.4140 C   0  0  0  0  0  3  0  0  0  0  0  0
  187.5780  175.7720  143.8550 S   0  0  0  0  0  0  0  0  0  0  0  0
  189.4540  173.5300  139.1660 C   0  0  0  0  0  2  0  0  0  0  0  0
  188.1190  174.7470  140.7570 C   0  0  0  0  0  0  0  0  0  0  0  0
  186.5820  176.7720  144.7590 C   0  0  0  0  0  0  0  0  0  0  0  0
  186.5560  176.9540  146.1370 C   0  0  0  0  0  3  0  0  0  0  0  0
  186.8600  176.2630  142.3940 C   0  0  0  0  0  0  0  0  0  0  0  0
  185.6270  177.8680  146.6600 C   0  0  0  0  0  3  0  0  0  0  0  0
  191.8890  174.8590  142.3150 C   0  0  0  0  0  0  0  0  0  0  0  0
  192.6810  174.9430  141.3370 O   0  0  0  0  0  0  0  0  0  0  0  0
  190.0000  178.0250  145.3750 C   0  0  0  0  0  3  0  0  0  0  0  0
  192.7970  176.9420  144.5830 S   0  0  0  0  0  0  0  0  0  0  0  0
  190.7210  177.4210  146.3380 C   0  0  0  0  0  3  0  0  0  0  0  0
  190.2540  177.8970  143.8910 C   0  0  0  0  0  2  0  0  0  0  0  0
  191.8560  176.4640  146.0740 C   0  0  1  0  0  3  0  0  0  0  0  0
  191.0560  175.9620  142.7010 N   0  0  0  0  0  0  0  0  0  0  0  0
  191.3030  176.8850  143.5860 C   0  0  0  0  0  0  0  0  0  0  0  0
  191.3600  175.1640  145.9380 O   0  0  0  0  0  0  0  0  0  0  0  0
  190.6880  174.9060  147.1340 C   0  0  0  0  0  2  0  0  0  0  0  0
  188.5920  174.2210  148.0080 F   0  0  0  0  0  0  0  0  0  0  0  0
  189.3160  174.3330  146.8370 C   0  0  0  0  0  2  0  0  0  0  0  0
  191.6850  170.3750  143.0410 C   0  0  0  0  0  2  0  0  0  0  0  0
  190.8950  169.4520  141.0430 C   0  0  0  0  0  2  0  0  0  0  0  0
  193.0900  169.0780  141.6960 C   0  0  0  0  0  2  0  0  0  0  0  0
  191.7310  169.1890  142.2040 N   0  0  0  0  0  0  0  0  0  0  0  0
  193.0050  168.5580  140.2790 C   0  0  0  0  0  2  0  0  0  0  0  0
  191.6100  168.9140  139.8190 C   0  0  2  0  0  3  0  0  0  0  0  0
  189.6790  169.1470  137.8690 O   0  0  0  0  0  0  0  0  0  0  0  0
  191.7290  171.8420  136.8300 C   0  0  0  0  0  0  0  0  0  0  0  0
  192.6570  170.8080  138.7240 N   0  0  0  0  0  0  0  0  0  0  0  0
  189.7500  171.1660  135.8210 C   0  0  0  0  0  3  0  0  0  0  0  0
  190.6780  170.9550  136.8450 C   0  0  0  0  0  0  0  0  0  0  0  0
  191.5420  172.9090  135.5580 S   0  0  0  0  0  0  0  0  0  0  0  0
  190.0890  172.2420  134.9950 C   0  0  0  0  0  3  0  0  0  0  0  0
  190.6330  169.9710  137.8320 C   0  0  0  0  0  0  0  0  0  0  0  0
  191.6440  169.9240  138.7600 N   0  0  0  0  0  0  0  0  0  0  0  0
  192.7380  171.7820  137.7760 C   0  0  0  0  0  3  0  0  0  0  0  0
  1  3  1  0  0  0  0
  2  4  1  0  0  0  0
  2  1  1  0  0  0  0
  2 34  1  1  0  0  0
  3 21  1  6  0  0  0
  4  8  1  6  0  0  0
  4  3  1  0  0  0  0
  5 13  2  0  0  0  0
  5 17  1  0  0  0  0
  6 20  2  0  0  0  0
  8  7  1  0  0  0  0
  9  5  1  0  0  0  0
 10 16  2  0  0  0  0
 11 19  1  0  0  0  0
 12  8  2  0  0  0  0
 13  6  1  0  0  0  0
 14 17  1  0  0  0  0
 15 10  1  0  0  0  0
 15 12  1  0  0  0  0
 16 11  1  0  0  0  0
 16  7  1  0  0  0  0
 17 18  2  0  0  0  0
 18 20  1  0  0  0  0
 19  9  2  0  0  0  0
 19 14  1  0  0  0  0
 21 28  1  0  0  0  0
 22 21  2  0  0  0  0
 23 25  2  0  0  0  0
 24 27  1  0  0  0  0
 26 23  1  0  0  0  0
 27 30  1  6  0  0  0
 27 25  1  0  0  0  0
 28 29  2  0  0  0  0
 29 26  1  0  0  0  0
 29 24  1  0  0  0  0
 30 31  1  0  0  0  0
 33 31  1  0  0  0  0
 33 32  1  0  0  0  0
 35 37  1  0  0  0  0
 36 37  1  0  0  0  0
 37 34  1  0  0  0  0
 38 36  1  0  0  0  0
 39 48  1  6  0  0  0
 39 38  1  0  0  0  0
 39 35  1  0  0  0  0
 41 44  2  0  0  0  0
 41 49  1  0  0  0  0
 42 48  1  0  0  0  0
 43 44  1  0  0  0  0
 44 47  1  0  0  0  0
 45 41  1  0  0  0  0
 46 45  1  0  0  0  0
 46 43  2  0  0  0  0
 47 40  2  0  0  0  0
 47 48  1  0  0  0  0
 49 42  2  0  0  0  0
M  END
>  <MODEL>
7

>  <REMARK>
 VINA RESULT:      -7.9      3.360      7.807
  Name = 
  9 active torsions:
  status: ('A' for Active; 'I' for Inactive)
    1  A    between atoms: C_7  and  C_32
    2  A    between atoms: C_7  and  N_42
    3  A    between atoms: C_12  and  C_47
    4  A    between atoms: C_15  and  C_24
    5  A    between atoms: C_15  and  O_48
    6  A    between atoms: C_21  and  C_43
    7  A    between atoms: N_30  and  C_43
    8  A    between atoms: N_33  and  C_38
    9  A    between atoms: C_35  and  O_48
                            x       y       z     vdW  Elec       q    Type
                         _______ _______ _______ _____ _____    ______ ____

>  <TORSDO>
F 9

$$$$
=
 OpenBabel11042414123D

 49 56  0  0  1  0  0  0  0  0999 V2000
  193.5770  174.6870  141.5490 C   0  0  0  0  0  2  0  0  0  0  0  0
  194.3660  175.7740  142.2630 C   0  0  2  0  0  3  0  0  0  0  0  0
  192.2790  175.2440  142.1140 C   0  0  2  0  0  3  0  0  0  0  0  0
  193.0710  176.3590  142.8100 C   0  0  1  0  0  3  0  0  0  0  0  0
  186.9240  177.5390  146.0330 C   0  0  0  0  0  0  0  0  0  0  0  0
  184.6830  178.1840  145.4430 C   0  0  0  0  0  3  0  0  0  0  0  0
  191.9440  177.1480  145.0590 C   0  0  0  0  0  2  0  0  0  0  0  0
  193.0090  176.3710  144.3210 C   0  0  0  0  0  0  0  0  0  0  0  0
  187.9190  177.1810  146.8840 N   0  0  0  0  0  0  0  0  0  0  0  0
  192.4830  175.7230  146.9430 N   0  0  0  0  0  0  0  0  0  0  0  0
  190.2580  176.4970  146.8790 N   0  0  0  0  0  2  0  0  0  0  0  0
  193.8640  175.6720  144.9890 N   0  0  0  0  0  0  0  0  0  0  0  0
  185.6220  177.8410  146.4300 C   0  0  0  0  0  3  0  0  0  0  0  0
  188.8910  177.1560  144.5340 S   0  0  0  0  0  0  0  0  0  0  0  0
  193.8570  175.6600  146.4400 C   0  0  0  0  0  2  0  0  0  0  0  0
  191.5740  176.4160  146.3210 C   0  0  0  0  0  0  0  0  0  0  0  0
  187.2770  177.5790  144.6930 C   0  0  0  0  0  0  0  0  0  0  0  0
  186.3660  177.9120  143.6960 C   0  0  0  0  0  3  0  0  0  0  0  0
  189.0720  176.9510  146.2130 C   0  0  0  0  0  0  0  0  0  0  0  0
  185.0530  178.2190  144.0850 C   0  0  0  0  0  3  0  0  0  0  0  0
  191.5980  174.2580  143.0250 C   0  0  0  0  0  0  0  0  0  0  0  0
  192.2680  173.6030  143.8700 O   0  0  0  0  0  0  0  0  0  0  0  0
  187.4860  173.0380  140.8910 C   0  0  0  0  0  3  0  0  0  0  0  0
  190.2620  171.7830  141.4780 S   0  0  0  0  0  0  0  0  0  0  0  0
  188.2270  172.6610  139.8310 C   0  0  0  0  0  3  0  0  0  0  0  0
  188.0160  173.2510  142.2890 C   0  0  0  0  0  2  0  0  0  0  0  0
  189.7210  172.4620  139.8700 C   0  0  1  0  0  3  0  0  0  0  0  0
  190.1730  174.1130  142.9250 N   0  0  0  0  0  0  0  0  0  0  0  0
  189.5010  173.1600  142.3470 C   0  0  0  0  0  0  0  0  0  0  0  0
  190.3690  173.6730  139.6130 O   0  0  0  0  0  0  0  0  0  0  0  0
  191.4300  173.3440  138.7680 C   0  0  0  0  0  2  0  0  0  0  0  0
  189.8760  174.3980  137.3190 F   0  0  0  0  0  0  0  0  0  0  0  0
  191.1200  173.7970  137.3550 C   0  0  0  0  0  2  0  0  0  0  0  0
  194.9820  176.7270  141.2570 C   0  0  0  0  0  2  0  0  0  0  0  0
  196.7830  175.9130  142.5070 C   0  0  0  0  0  2  0  0  0  0  0  0
  196.7770  175.6670  140.2000 C   0  0  0  0  0  2  0  0  0  0  0  0
  196.4280  176.5900  141.2680 N   0  0  0  0  0  0  0  0  0  0  0  0
  197.9370  174.8280  140.6840 C   0  0  0  0  0  2  0  0  0  0  0  0
  197.8620  174.8950  142.1920 C   0  0  2  0  0  3  0  0  0  0  0  0
  197.5310  174.4490  144.8890 O   0  0  0  0  0  0  0  0  0  0  0  0
  196.8440  171.1570  143.7780 C   0  0  0  0  0  0  0  0  0  0  0  0
  197.3350  172.5400  141.9440 N   0  0  0  0  0  0  0  0  0  0  0  0
  196.8190  171.8860  145.9830 C   0  0  0  0  0  3  0  0  0  0  0  0
  197.0200  172.2140  144.6390 C   0  0  0  0  0  0  0  0  0  0  0  0
  196.4360  169.7910  144.6480 S   0  0  0  0  0  0  0  0  0  0  0  0
  196.4790  170.5420  146.1660 C   0  0  0  0  0  3  0  0  0  0  0  0
  197.3660  173.4630  144.1210 C   0  0  0  0  0  0  0  0  0  0  0  0
  197.5190  173.5910  142.7630 N   0  0  0  0  0  0  0  0  0  0  0  0
  196.9990  171.3060  142.4110 C   0  0  0  0  0  3  0  0  0  0  0  0
  1  3  1  0  0  0  0
  1  2  1  0  0  0  0
  2 34  1  6  0  0  0
  2  4  1  0  0  0  0
  3  4  1  0  0  0  0
  3 21  1  1  0  0  0
  4  8  1  1  0  0  0
  5 13  1  0  0  0  0
  5  9  1  0  0  0  0
  6 13  2  0  0  0  0
  7 16  1  0  0  0  0
  8 12  2  0  0  0  0
  8  7  1  0  0  0  0
 12 15  1  0  0  0  0
 14 17  1  0  0  0  0
 14 19  1  0  0  0  0
 15 10  1  0  0  0  0
 16 11  1  0  0  0  0
 16 10  2  0  0  0  0
 17  5  2  0  0  0  0
 18 20  2  0  0  0  0
 18 17  1  0  0  0  0
 19 11  1  0  0  0  0
 19  9  2  0  0  0  0
 20  6  1  0  0  0  0
 21 22  2  0  0  0  0
 23 26  1  0  0  0  0
 24 29  1  0  0  0  0
 25 27  1  0  0  0  0
 25 23  2  0  0  0  0
 26 29  1  0  0  0  0
 27 30  1  1  0  0  0
 27 24  1  0  0  0  0
 28 21  1  0  0  0  0
 29 28  2  0  0  0  0
 31 30  1  0  0  0  0
 32 33  1  0  0  0  0
 33 31  1  0  0  0  0
 34 37  1  0  0  0  0
 36 38  1  0  0  0  0
 36 37  1  0  0  0  0
 37 35  1  0  0  0  0
 39 38  1  6  0  0  0
 39 35  1  0  0  0  0
 39 48  1  0  0  0  0
 41 44  2  0  0  0  0
 41 45  1  0  0  0  0
 42 49  2  0  0  0  0
 42 48  1  0  0  0  0
 43 46  2  0  0  0  0
 44 43  1  0  0  0  0
 45 46  1  0  0  0  0
 47 44  1  0  0  0  0
 47 40  2  0  0  0  0
 48 47  1  0  0  0  0
 49 41  1  0  0  0  0
M  END
>  <MODEL>
8

>  <REMARK>
 VINA RESULT:      -7.9      3.044      7.695
  Name = 
  9 active torsions:
  status: ('A' for Active; 'I' for Inactive)
    1  A    between atoms: C_7  and  C_32
    2  A    between atoms: C_7  and  N_42
    3  A    between atoms: C_12  and  C_47
    4  A    between atoms: C_15  and  C_24
    5  A    between atoms: C_15  and  O_48
    6  A    between atoms: C_21  and  C_43
    7  A    between atoms: N_30  and  C_43
    8  A    between atoms: N_33  and  C_38
    9  A    between atoms: C_35  and  O_48
                            x       y       z     vdW  Elec       q    Type
                         _______ _______ _______ _____ _____    ______ ____

>  <TORSDO>
F 9

$$$$
=
 OpenBabel11042414123D

 49 56  0  0  1  0  0  0  0  0999 V2000
  191.7190  177.5910  143.1640 C   0  0  0  0  0  2  0  0  0  0  0  0
  192.2770  176.4830  144.0450 C   0  0  2  0  0  3  0  0  0  0  0  0
  190.7490  177.9910  144.2650 C   0  0  2  0  0  3  0  0  0  0  0  0
  191.3320  176.8920  145.1660 C   0  0  1  0  0  3  0  0  0  0  0  0
  190.7840  171.0950  141.2090 C   0  0  0  0  0  0  0  0  0  0  0  0
  191.5760  170.2900  139.0850 C   0  0  0  0  0  3  0  0  0  0  0  0
  189.7830  174.8480  144.5590 C   0  0  0  0  0  2  0  0  0  0  0  0
  190.3760  175.7950  145.5750 C   0  0  0  0  0  0  0  0  0  0  0  0
  190.1000  171.0150  142.3790 N   0  0  0  0  0  0  0  0  0  0  0  0
  189.3180  173.4120  146.4530 N   0  0  0  0  0  0  0  0  0  0  0  0
  189.6790  172.2890  144.4140 N   0  0  0  0  0  2  0  0  0  0  0  0
  190.0900  175.6470  146.8250 N   0  0  0  0  0  0  0  0  0  0  0  0
  190.8160  170.0850  140.2490 C   0  0  0  0  0  3  0  0  0  0  0  0
  191.2630  173.2770  142.3370 S   0  0  0  0  0  0  0  0  0  0  0  0
  189.1670  174.6190  147.2700 C   0  0  0  0  0  2  0  0  0  0  0  0
  189.5980  173.4920  145.1860 C   0  0  0  0  0  0  0  0  0  0  0  0
  191.4870  172.2740  141.0130 C   0  0  0  0  0  0  0  0  0  0  0  0
  192.2490  172.5010  139.8720 C   0  0  0  0  0  3  0  0  0  0  0  0
  190.2520  172.1470  143.1070 C   0  0  0  0  0  0  0  0  0  0  0  0
  192.2880  171.4900  138.8980 C   0  0  0  0  0  3  0  0  0  0  0  0
  189.3160  177.7990  143.8430 C   0  0  0  0  0  0  0  0  0  0  0  0
  189.0450  177.3530  142.6950 O   0  0  0  0  0  0  0  0  0  0  0  0
  184.8030  178.5220  145.2810 C   0  0  0  0  0  3  0  0  0  0  0  0
  186.4270  176.4080  143.6930 S   0  0  0  0  0  0  0  0  0  0  0  0
  184.4330  178.2920  144.0070 C   0  0  0  0  0  3  0  0  0  0  0  0
  186.1360  178.1360  145.8810 C   0  0  0  0  0  2  0  0  0  0  0  0
  185.3270  177.6710  142.9630 C   0  0  1  0  0  3  0  0  0  0  0  0
  188.2830  178.1060  144.7910 N   0  0  0  0  0  0  0  0  0  0  0  0
  187.0810  177.6100  144.8580 C   0  0  0  0  0  0  0  0  0  0  0  0
  186.0810  178.6640  142.3320 O   0  0  0  0  0  0  0  0  0  0  0  0
  186.1180  178.2910  140.9870 C   0  0  0  0  0  2  0  0  0  0  0  0
  184.0410  179.0590  140.1380 F   0  0  0  0  0  0  0  0  0  0  0  0
  184.7240  177.9210  140.5200 C   0  0  0  0  0  2  0  0  0  0  0  0
  193.7100  176.7900  144.4360 C   0  0  0  0  0  2  0  0  0  0  0  0
  195.4990  175.3020  144.2060 C   0  0  0  0  0  2  0  0  0  0  0  0
  193.8290  175.3520  142.5960 C   0  0  0  0  0  2  0  0  0  0  0  0
  194.6220  176.2010  143.4710 N   0  0  0  0  0  0  0  0  0  0  0  0
  194.6630  174.1370  142.2610 C   0  0  0  0  0  2  0  0  0  0  0  0
  195.6740  174.0410  143.3810 C   0  0  2  0  0  3  0  0  0  0  0  0
  197.6860  172.4130  144.3210 O   0  0  0  0  0  0  0  0  0  0  0  0
  194.9590  170.6750  145.7660 C   0  0  0  0  0  0  0  0  0  0  0  0
  194.1810  172.5270  144.5480 N   0  0  0  0  0  0  0  0  0  0  0  0
  197.2020  170.1060  145.9700 C   0  0  0  0  0  3  0  0  0  0  0  0
  196.2570  170.9880  145.4360 C   0  0  0  0  0  0  0  0  0  0  0  0
  194.9410  169.3080  146.7250 S   0  0  0  0  0  0  0  0  0  0  0  0
  196.6220  169.0880  146.7330 C   0  0  0  0  0  3  0  0  0  0  0  0
  196.5050  172.1030  144.6360 C   0  0  0  0  0  0  0  0  0  0  0  0
  195.4400  172.8530  144.2050 N   0  0  0  0  0  0  0  0  0  0  0  0
  193.8970  171.4450  145.3250 C   0  0  0  0  0  3  0  0  0  0  0  0
  1  2  1  0  0  0  0
  1  3  1  0  0  0  0
  2 34  1  1  0  0  0
  2  4  1  0  0  0  0
  3 21  1  6  0  0  0
  3  4  1  0  0  0  0
  4  8  1  6  0  0  0
  5  9  1  0  0  0  0
  6 13  1  0  0  0  0
  7 16  1  0  0  0  0
  7  8  1  0  0  0  0
  8 12  2  0  0  0  0
  9 19  2  0  0  0  0
 10 15  1  0  0  0  0
 11 16  1  0  0  0  0
 12 15  1  0  0  0  0
 13  5  2  0  0  0  0
 14 19  1  0  0  0  0
 16 10  2  0  0  0  0
 17  5  1  0  0  0  0
 17 14  1  0  0  0  0
 18 17  2  0  0  0  0
 19 11  1  0  0  0  0
 20  6  2  0  0  0  0
 20 18  1  0  0  0  0
 21 28  1  0  0  0  0
 22 21  2  0  0  0  0
 23 26  1  0  0  0  0
 24 29  1  0  0  0  0
 25 23  2  0  0  0  0
 27 30  1  1  0  0  0
 27 24  1  0  0  0  0
 27 25  1  0  0  0  0
 28 29  2  0  0  0  0
 29 26  1  0  0  0  0
 31 30  1  0  0  0  0
 32 33  1  0  0  0  0
 33 31  1  0  0  0  0
 36 37  1  0  0  0  0
 37 35  1  0  0  0  0
 37 34  1  0  0  0  0
 38 36  1  0  0  0  0
 39 38  1  6  0  0  0
 39 48  1  0  0  0  0
 39 35  1  0  0  0  0
 40 47  2  0  0  0  0
 41 45  1  0  0  0  0
 42 49  2  0  0  0  0
 43 46  2  0  0  0  0
 44 41  2  0  0  0  0
 44 43  1  0  0  0  0
 45 46  1  0  0  0  0
 47 44  1  0  0  0  0
 48 42  1  0  0  0  0
 48 47  1  0  0  0  0
 49 41  1  0  0  0  0
M  END
>  <MODEL>
9

>  <REMARK>
 VINA RESULT:      -7.9      2.444      4.809
  Name = 
  9 active torsions:
  status: ('A' for Active; 'I' for Inactive)
    1  A    between atoms: C_7  and  C_32
    2  A    between atoms: C_7  and  N_42
    3  A    between atoms: C_12  and  C_47
    4  A    between atoms: C_15  and  C_24
    5  A    between atoms: C_15  and  O_48
    6  A    between atoms: C_21  and  C_43
    7  A    between atoms: N_30  and  C_43
    8  A    between atoms: N_33  and  C_38
    9  A    between atoms: C_35  and  O_48
                            x       y       z     vdW  Elec       q    Type
                         _______ _______ _______ _____ _____    ______ ____

>  <TORSDO>
F 9

$$$$
