=
 OpenBabel11042414053D

 31 35  0  0  1  0  0  0  0  0999 V2000
  188.6700  177.9390  143.1040 C   0  0  0  0  0  3  0  0  0  0  0  0
  186.7060  177.1460  144.9840 C   0  0  0  0  0  0  0  0  0  0  0  0
  192.7470  176.5580  145.0130 C   0  0  0  0  0  2  0  0  0  0  0  0
  189.0220  177.5130  144.3810 C   0  0  0  0  0  0  0  0  0  0  0  0
  190.3440  177.3720  144.9800 C   0  0  2  0  0  3  0  0  0  0  0  0
  186.3240  177.5700  143.6880 C   0  0  0  0  0  0  0  0  0  0  0  0
  185.6880  176.7600  146.0080 C   0  0  0  0  0  1  0  0  0  0  0  0
  188.4790  175.4030  147.1460 C   0  0  0  0  0  3  0  0  0  0  0  0
  191.7180  177.5060  144.3500 C   0  0  2  0  0  3  0  0  0  0  0  0
  188.7280  176.7900  146.6060 C   0  0  2  0  0  3  0  0  0  0  0  0
  188.0700  177.1040  145.2960 C   0  0  0  0  0  0  0  0  0  0  0  0
  190.1680  176.9390  146.2210 C   0  0  1  0  0  3  0  0  0  0  0  0
  191.2270  176.2220  146.9220 C   0  0  0  0  0  0  0  0  0  0  0  0
  187.3090  177.9680  142.7490 C   0  0  0  0  0  0  0  0  0  0  0  0
  189.4810  174.6670  147.6630 C   0  0  0  0  0  3  0  0  0  0  0  0
  192.6390  176.5330  146.5470 C   0  0  0  0  0  2  0  0  0  0  0  0
  190.8980  175.1180  147.6010 C   0  0  0  0  0  3  0  0  0  0  0  0
  184.8760  177.6360  143.3080 C   0  0  0  0  0  2  0  0  0  0  0  0
  184.2880  178.9750  143.7110 C   0  0  0  0  0  1  0  0  0  0  0  0
  191.6790  177.2360  142.8510 C   0  0  0  0  0  2  0  0  0  0  0  0
  192.2140  175.8490  142.5350 C   0  0  0  0  0  2  0  0  0  0  0  0
  191.1600  175.0340  141.9470 N   0  0  0  0  0  2  0  0  0  0  0  0
  188.8670  172.2720  142.6830 C   0  0  0  0  0  2  0  0  0  0  0  0
  190.4970  173.9890  142.6600 C   0  0  0  0  0  0  0  0  0  0  0  0
  189.5200  173.2750  142.0390 N   0  0  0  0  0  0  0  0  0  0  0  0
  190.8350  173.6870  143.9840 C   0  0  0  0  0  2  0  0  0  0  0  0
  190.1540  172.6560  144.6270 C   0  0  0  0  0  3  0  0  0  0  0  0
  189.1850  171.9680  143.9690 N   0  0  0  0  0  0  0  0  0  0  0  0
  186.9120  178.3890  141.4730 O   0  0  0  0  0  0  0  0  0  0  0  0
  186.9290  177.5320  140.3400 C   0  0  0  0  0  2  0  0  0  0  0  0
  185.6160  177.5230  139.7210 N   0  0  0  0  0  1  0  0  0  0  0  0
  1  4  1  0  0  0  0
  2 11  1  0  0  0  0
  2  7  1  0  0  0  0
  3 16  1  0  0  0  0
  4 11  2  0  0  0  0
  5  4  1  6  0  0  0
  5 12  1  0  0  0  0
  6  2  2  0  0  0  0
  8 15  2  0  0  0  0
  9 20  1  6  0  0  0
  9  5  1  0  0  0  0
  9  3  1  0  0  0  0
 10  8  1  6  0  0  0
 11 10  1  0  0  0  0
 12 10  1  0  0  0  0
 12 13  1  6  0  0  0
 13 17  2  0  0  0  0
 14  1  2  0  0  0  0
 14  6  1  0  0  0  0
 16 13  1  0  0  0  0
 17 15  1  0  0  0  0
 18  6  1  0  0  0  0
 18 19  1  0  0  0  0
 21 20  1  0  0  0  0
 22 21  1  0  0  0  0
 22 24  1  0  0  0  0
 23 28  1  0  0  0  0
 24 26  1  0  0  0  0
 25 24  2  0  0  0  0
 25 23  1  0  0  0  0
 26 27  1  0  0  0  0
 28 27  2  0  0  0  0
 29 14  1  0  0  0  0
 30 29  1  0  0  0  0
 31 30  1  0  0  0  0
M  END
>  <MODEL>
1

>  <REMARK>
 VINA RESULT:      -8.3      0.000      0.000
  Name = 
  6 active torsions:
  status: ('A' for Active; 'I' for Inactive)
    1  A    between atoms: N_2  and  C_27
    2  A    between atoms: C_3  and  C_13
    3  A    between atoms: C_6  and  O_30
    4  A    between atoms: C_16  and  C_25
    5  A    between atoms: C_24  and  O_30
    6  A    between atoms: C_25  and  C_27
                            x       y       z     vdW  Elec       q    Type
                         _______ _______ _______ _____ _____    ______ ____

>  <TORSDO>
F 6

$$$$
=
 OpenBabel11042414053D

 31 35  0  0  1  0  0  0  0  0999 V2000
  188.4560  178.0010  143.2230 C   0  0  0  0  0  3  0  0  0  0  0  0
  186.5580  177.2770  145.1960 C   0  0  0  0  0  0  0  0  0  0  0  0
  192.5630  176.4400  144.9150 C   0  0  0  0  0  2  0  0  0  0  0  0
  188.8540  177.5520  144.4780 C   0  0  0  0  0  0  0  0  0  0  0  0
  190.1980  177.3520  145.0080 C   0  0  2  0  0  3  0  0  0  0  0  0
  186.1290  177.7260  143.9240 C   0  0  0  0  0  0  0  0  0  0  0  0
  185.5780  176.9260  146.2690 C   0  0  0  0  0  1  0  0  0  0  0  0
  188.3640  175.4460  147.2560 C   0  0  0  0  0  3  0  0  0  0  0  0
  191.5420  177.4340  144.3100 C   0  0  2  0  0  3  0  0  0  0  0  0
  188.6430  176.8260  146.7110 C   0  0  2  0  0  3  0  0  0  0  0  0
  187.9330  177.1760  145.4380 C   0  0  0  0  0  0  0  0  0  0  0  0
  190.0670  176.9180  146.2540 C   0  0  1  0  0  3  0  0  0  0  0  0
  191.1290  176.1520  146.8970 C   0  0  0  0  0  0  0  0  0  0  0  0
  187.0800  178.0890  142.9380 C   0  0  0  0  0  0  0  0  0  0  0  0
  189.3590  174.6650  147.7170 C   0  0  0  0  0  3  0  0  0  0  0  0
  192.5320  176.4080  146.4520 C   0  0  0  0  0  2  0  0  0  0  0  0
  190.7890  175.0580  147.5860 C   0  0  0  0  0  3  0  0  0  0  0  0
  184.6670  177.8540  143.6180 C   0  0  0  0  0  2  0  0  0  0  0  0
  184.1510  179.2030  144.0810 C   0  0  0  0  0  1  0  0  0  0  0  0
  191.4160  177.1760  142.8130 C   0  0  0  0  0  2  0  0  0  0  0  0
  191.4820  175.6890  142.5100 C   0  0  0  0  0  2  0  0  0  0  0  0
  190.1680  175.2080  142.1060 N   0  0  0  0  0  2  0  0  0  0  0  0
  188.5070  172.7770  139.9230 C   0  0  0  0  0  2  0  0  0  0  0  0
  189.9840  174.1610  141.1500 C   0  0  0  0  0  0  0  0  0  0  0  0
  188.7230  173.7680  140.8280 N   0  0  0  0  0  0  0  0  0  0  0  0
  191.0780  173.5360  140.5410 C   0  0  0  0  0  2  0  0  0  0  0  0
  190.8350  172.5220  139.6170 C   0  0  0  0  0  3  0  0  0  0  0  0
  189.5590  172.1610  139.3240 N   0  0  0  0  0  0  0  0  0  0  0  0
  186.6380  178.5360  141.6860 O   0  0  0  0  0  0  0  0  0  0  0  0
  186.6980  177.7320  140.5170 C   0  0  0  0  0  2  0  0  0  0  0  0
  185.3830  177.6700  139.9040 N   0  0  0  0  0  1  0  0  0  0  0  0
  1  4  1  0  0  0  0
  2 11  1  0  0  0  0
  2  7  1  0  0  0  0
  3 16  1  0  0  0  0
  4 11  2  0  0  0  0
  5  4  1  6  0  0  0
  5 12  1  0  0  0  0
  6  2  2  0  0  0  0
  8 15  2  0  0  0  0
  9 20  1  6  0  0  0
  9  3  1  0  0  0  0
  9  5  1  0  0  0  0
 10  8  1  6  0  0  0
 11 10  1  0  0  0  0
 12 10  1  0  0  0  0
 12 13  1  6  0  0  0
 13 17  2  0  0  0  0
 14  1  2  0  0  0  0
 14  6  1  0  0  0  0
 16 13  1  0  0  0  0
 17 15  1  0  0  0  0
 18  6  1  0  0  0  0
 18 19  1  0  0  0  0
 21 20  1  0  0  0  0
 22 21  1  0  0  0  0
 23 25  1  0  0  0  0
 24 22  1  0  0  0  0
 25 24  2  0  0  0  0
 26 24  1  0  0  0  0
 27 26  1  0  0  0  0
 28 27  2  0  0  0  0
 28 23  1  0  0  0  0
 29 14  1  0  0  0  0
 30 29  1  0  0  0  0
 31 30  1  0  0  0  0
M  END
>  <MODEL>
2

>  <REMARK>
 VINA RESULT:      -7.5      1.263      1.560
  Name = 
  6 active torsions:
  status: ('A' for Active; 'I' for Inactive)
    1  A    between atoms: N_2  and  C_27
    2  A    between atoms: C_3  and  C_13
    3  A    between atoms: C_6  and  O_30
    4  A    between atoms: C_16  and  C_25
    5  A    between atoms: C_24  and  O_30
    6  A    between atoms: C_25  and  C_27
                            x       y       z     vdW  Elec       q    Type
                         _______ _______ _______ _____ _____    ______ ____

>  <TORSDO>
F 6

$$$$
=
 OpenBabel11042414053D

 31 35  0  0  1  0  0  0  0  0999 V2000
  188.9830  175.5420  143.6960 C   0  0  0  0  0  3  0  0  0  0  0  0
  187.6180  176.2570  141.3200 C   0  0  0  0  0  0  0  0  0  0  0  0
  186.6840  177.8340  147.1050 C   0  0  0  0  0  2  0  0  0  0  0  0
  188.0500  176.5740  143.6810 C   0  0  0  0  0  0  0  0  0  0  0  0
  187.5920  177.4260  144.7730 C   0  0  2  0  0  3  0  0  0  0  0  0
  188.5600  175.1990  141.3120 C   0  0  0  0  0  0  0  0  0  0  0  0
  186.9140  176.6810  140.0720 C   0  0  0  0  0  1  0  0  0  0  0  0
  185.0340  177.9360  142.4840 C   0  0  0  0  0  3  0  0  0  0  0  0
  187.8840  177.3440  146.2590 C   0  0  2  0  0  3  0  0  0  0  0  0
  186.5010  178.1110  142.7890 C   0  0  2  0  0  3  0  0  0  0  0  0
  187.3650  176.9140  142.5290 C   0  0  0  0  0  0  0  0  0  0  0  0
  186.7020  178.2670  144.2660 C   0  0  1  0  0  3  0  0  0  0  0  0
  185.6940  178.8930  145.1140 C   0  0  0  0  0  0  0  0  0  0  0  0
  189.2420  174.8430  142.5020 C   0  0  0  0  0  0  0  0  0  0  0  0
  184.0880  178.3780  143.3330 C   0  0  0  0  0  3  0  0  0  0  0  0
  186.0400  179.1160  146.5500 C   0  0  0  0  0  2  0  0  0  0  0  0
  184.4320  178.9300  144.6720 C   0  0  0  0  0  3  0  0  0  0  0  0
  188.8680  174.4680  140.0410 C   0  0  0  0  0  2  0  0  0  0  0  0
  188.1590  173.1260  140.0230 C   0  0  0  0  0  1  0  0  0  0  0  0
  188.2530  175.9280  146.6840 C   0  0  0  0  0  2  0  0  0  0  0  0
  189.6120  175.9020  147.3650 C   0  0  0  0  0  2  0  0  0  0  0  0
  190.4880  174.9590  146.6840 N   0  0  0  0  0  2  0  0  0  0  0  0
  193.9580  174.4680  145.6120 C   0  0  0  0  0  2  0  0  0  0  0  0
  191.8800  175.2040  146.4740 C   0  0  0  0  0  0  0  0  0  0  0  0
  192.6320  174.2710  145.8310 N   0  0  0  0  0  0  0  0  0  0  0  0
  192.4830  176.3870  146.9180 C   0  0  0  0  0  2  0  0  0  0  0  0
  193.8440  176.5700  146.6840 C   0  0  0  0  0  3  0  0  0  0  0  0
  194.5560  175.6110  146.0380 N   0  0  0  0  0  0  0  0  0  0  0  0
  190.1730  173.7970  142.4740 O   0  0  0  0  0  0  0  0  0  0  0  0
  190.2310  172.7920  143.4770 C   0  0  0  0  0  2  0  0  0  0  0  0
  189.0970  171.8970  143.3320 N   0  0  0  0  0  1  0  0  0  0  0  0
  2 11  1  0  0  0  0
  4  1  1  0  0  0  0
  5  4  1  1  0  0  0
  5  9  1  0  0  0  0
  6  2  2  0  0  0  0
  6 14  1  0  0  0  0
  7  2  1  0  0  0  0
  8 15  2  0  0  0  0
  9 20  1  1  0  0  0
  9  3  1  0  0  0  0
 10  8  1  1  0  0  0
 10 12  1  0  0  0  0
 11 10  1  0  0  0  0
 11  4  2  0  0  0  0
 12  5  1  0  0  0  0
 12 13  1  1  0  0  0
 13 16  1  0  0  0  0
 14  1  2  0  0  0  0
 15 17  1  0  0  0  0
 16  3  1  0  0  0  0
 17 13  2  0  0  0  0
 18  6  1  0  0  0  0
 19 18  1  0  0  0  0
 20 21  1  0  0  0  0
 22 21  1  0  0  0  0
 23 25  1  0  0  0  0
 23 28  1  0  0  0  0
 24 22  1  0  0  0  0
 24 26  1  0  0  0  0
 25 24  2  0  0  0  0
 27 26  1  0  0  0  0
 28 27  2  0  0  0  0
 29 14  1  0  0  0  0
 29 30  1  0  0  0  0
 31 30  1  0  0  0  0
M  END
>  <MODEL>
3

>  <REMARK>
 VINA RESULT:      -7.4      2.412      5.558
  Name = 
  6 active torsions:
  status: ('A' for Active; 'I' for Inactive)
    1  A    between atoms: N_2  and  C_27
    2  A    between atoms: C_3  and  C_13
    3  A    between atoms: C_6  and  O_30
    4  A    between atoms: C_16  and  C_25
    5  A    between atoms: C_24  and  O_30
    6  A    between atoms: C_25  and  C_27
                            x       y       z     vdW  Elec       q    Type
                         _______ _______ _______ _____ _____    ______ ____

>  <TORSDO>
F 6

$$$$
=
 OpenBabel11042414053D

 31 35  0  0  1  0  0  0  0  0999 V2000
  188.6880  177.9060  143.1410 C   0  0  0  0  0  3  0  0  0  0  0  0
  186.6780  177.1660  144.9940 C   0  0  0  0  0  0  0  0  0  0  0  0
  192.7070  176.4830  145.1390 C   0  0  0  0  0  2  0  0  0  0  0  0
  189.0100  177.4890  144.4290 C   0  0  0  0  0  0  0  0  0  0  0  0
  190.3190  177.3340  145.0530 C   0  0  2  0  0  3  0  0  0  0  0  0
  186.3260  177.5810  143.6860 C   0  0  0  0  0  0  0  0  0  0  0  0
  185.6350  176.8080  146.0030 C   0  0  0  0  0  1  0  0  0  0  0  0
  188.3840  175.4200  147.2070 C   0  0  0  0  0  3  0  0  0  0  0  0
  191.7050  177.4390  144.4460 C   0  0  2  0  0  3  0  0  0  0  0  0
  188.6640  176.7970  146.6550 C   0  0  2  0  0  3  0  0  0  0  0  0
  188.0340  177.1060  145.3310 C   0  0  0  0  0  0  0  0  0  0  0  0
  190.1140  176.9190  146.2960 C   0  0  1  0  0  3  0  0  0  0  0  0
  191.1480  176.1930  147.0230 C   0  0  0  0  0  0  0  0  0  0  0  0
  187.3330  177.9520  142.7610 C   0  0  0  0  0  0  0  0  0  0  0  0
  189.3640  174.6740  147.7500 C   0  0  0  0  0  3  0  0  0  0  0  0
  192.5710  176.4780  146.6710 C   0  0  0  0  0  2  0  0  0  0  0  0
  190.7890  175.1020  147.7090 C   0  0  0  0  0  3  0  0  0  0  0  0
  184.8860  177.6650  143.2790 C   0  0  0  0  0  2  0  0  0  0  0  0
  184.3040  179.0070  143.6830 C   0  0  0  0  0  1  0  0  0  0  0  0
  191.6890  177.1520  142.9500 C   0  0  0  0  0  2  0  0  0  0  0  0
  192.3530  175.8200  142.6450 C   0  0  0  0  0  2  0  0  0  0  0  0
  193.3090  175.9810  141.5580 N   0  0  0  0  0  2  0  0  0  0  0  0
  196.8970  175.9550  140.8130 C   0  0  0  0  0  2  0  0  0  0  0  0
  194.7220  175.8810  141.7440 C   0  0  0  0  0  0  0  0  0  0  0  0
  195.5480  176.0420  140.6760 N   0  0  0  0  0  0  0  0  0  0  0  0
  195.2700  175.6210  143.0060 C   0  0  0  0  0  2  0  0  0  0  0  0
  196.6550  175.5360  143.1260 C   0  0  0  0  0  3  0  0  0  0  0  0
  197.4430  175.7030  142.0320 N   0  0  0  0  0  0  0  0  0  0  0  0
  186.9660  178.3650  141.4730 O   0  0  0  0  0  0  0  0  0  0  0  0
  187.0080  177.5000  140.3470 C   0  0  0  0  0  2  0  0  0  0  0  0
  185.7110  177.4920  139.6950 N   0  0  0  0  0  1  0  0  0  0  0  0
  1  4  1  0  0  0  0
  2 11  1  0  0  0  0
  2  7  1  0  0  0  0
  3 16  1  0  0  0  0
  4 11  2  0  0  0  0
  5  4  1  6  0  0  0
  5 12  1  0  0  0  0
  6  2  2  0  0  0  0
  8 15  2  0  0  0  0
  9 20  1  6  0  0  0
  9  5  1  0  0  0  0
  9  3  1  0  0  0  0
 10  8  1  6  0  0  0
 11 10  1  0  0  0  0
 12 10  1  0  0  0  0
 12 13  1  6  0  0  0
 13 17  2  0  0  0  0
 14  1  2  0  0  0  0
 14  6  1  0  0  0  0
 16 13  1  0  0  0  0
 17 15  1  0  0  0  0
 18 19  1  0  0  0  0
 18  6  1  0  0  0  0
 21 20  1  0  0  0  0
 22 24  1  0  0  0  0
 22 21  1  0  0  0  0
 23 28  1  0  0  0  0
 24 26  1  0  0  0  0
 25 23  1  0  0  0  0
 25 24  2  0  0  0  0
 26 27  1  0  0  0  0
 28 27  2  0  0  0  0
 29 14  1  0  0  0  0
 30 29  1  0  0  0  0
 31 30  1  0  0  0  0
M  END
>  <MODEL>
4

>  <REMARK>
 VINA RESULT:      -7.2      2.040      3.206
  Name = 
  6 active torsions:
  status: ('A' for Active; 'I' for Inactive)
    1  A    between atoms: N_2  and  C_27
    2  A    between atoms: C_3  and  C_13
    3  A    between atoms: C_6  and  O_30
    4  A    between atoms: C_16  and  C_25
    5  A    between atoms: C_24  and  O_30
    6  A    between atoms: C_25  and  C_27
                            x       y       z     vdW  Elec       q    Type
                         _______ _______ _______ _____ _____    ______ ____

>  <TORSDO>
F 6

$$$$
=
 OpenBabel11042414053D

 31 35  0  0  1  0  0  0  0  0999 V2000
  187.2180  176.0570  142.7550 C   0  0  0  0  0  3  0  0  0  0  0  0
  188.7710  175.4970  145.0560 C   0  0  0  0  0  0  0  0  0  0  0  0
  183.9790  179.1320  144.2430 C   0  0  0  0  0  2  0  0  0  0  0  0
  186.8040  176.4570  144.0210 C   0  0  0  0  0  0  0  0  0  0  0  0
  185.6110  177.1970  144.4150 C   0  0  2  0  0  3  0  0  0  0  0  0
  189.2160  175.0840  143.7770 C   0  0  0  0  0  0  0  0  0  0  0  0
  189.5510  175.1790  146.2910 C   0  0  0  0  0  1  0  0  0  0  0  0
  187.5730  177.6520  147.2410 C   0  0  0  0  0  3  0  0  0  0  0  0
  184.5540  177.8690  143.5580 C   0  0  2  0  0  3  0  0  0  0  0  0
  186.8340  176.6670  146.3680 C   0  0  2  0  0  3  0  0  0  0  0  0
  187.5680  176.2060  145.1460 C   0  0  0  0  0  0  0  0  0  0  0  0
  185.6510  177.3330  145.7330 C   0  0  1  0  0  3  0  0  0  0  0  0
  184.9310  178.4130  146.3980 C   0  0  0  0  0  0  0  0  0  0  0  0
  188.4370  175.3640  142.6260 C   0  0  0  0  0  0  0  0  0  0  0  0
  186.9560  178.7390  147.7430 C   0  0  0  0  0  3  0  0  0  0  0  0
  183.6920  178.9250  145.7400 C   0  0  0  0  0  2  0  0  0  0  0  0
  185.5660  179.1000  147.3530 C   0  0  0  0  0  3  0  0  0  0  0  0
  190.4960  174.3180  143.6300 C   0  0  0  0  0  2  0  0  0  0  0  0
  191.6520  175.2700  143.3900 C   0  0  0  0  0  1  0  0  0  0  0  0
  185.0980  178.2450  142.1850 C   0  0  0  0  0  2  0  0  0  0  0  0
  183.9700  178.6220  141.2390 C   0  0  0  0  0  2  0  0  0  0  0  0
  182.7530  177.9160  141.6130 N   0  0  0  0  0  2  0  0  0  0  0  0
  179.0980  178.1690  141.5190 C   0  0  0  0  0  2  0  0  0  0  0  0
  181.4450  178.4330  141.3610 C   0  0  0  0  0  0  0  0  0  0  0  0
  180.3580  177.7100  141.7400 N   0  0  0  0  0  0  0  0  0  0  0  0
  181.2650  179.6710  140.7310 C   0  0  0  0  0  2  0  0  0  0  0  0
  179.9660  180.1230  140.5130 C   0  0  0  0  0  3  0  0  0  0  0  0
  178.9080  179.3680  140.9080 N   0  0  0  0  0  0  0  0  0  0  0  0
  188.8910  174.9440  141.3690 O   0  0  0  0  0  0  0  0  0  0  0  0
  188.0960  175.0310  140.1950 C   0  0  0  0  0  2  0  0  0  0  0  0
  188.5640  174.0620  139.2210 N   0  0  0  0  0  1  0  0  0  0  0  0
  1  4  1  0  0  0  0
  2 11  1  0  0  0  0
  2  7  1  0  0  0  0
  3 16  1  0  0  0  0
  4 11  2  0  0  0  0
  5  4  1  6  0  0  0
  5 12  1  0  0  0  0
  6  2  2  0  0  0  0
  8 15  2  0  0  0  0
  9 20  1  6  0  0  0
  9  3  1  0  0  0  0
  9  5  1  0  0  0  0
 10  8  1  6  0  0  0
 11 10  1  0  0  0  0
 12 10  1  0  0  0  0
 12 13  1  6  0  0  0
 13 17  2  0  0  0  0
 14  1  2  0  0  0  0
 14  6  1  0  0  0  0
 16 13  1  0  0  0  0
 17 15  1  0  0  0  0
 18  6  1  0  0  0  0
 19 18  1  0  0  0  0
 21 22  1  0  0  0  0
 21 20  1  0  0  0  0
 23 25  1  0  0  0  0
 24 22  1  0  0  0  0
 24 25  2  0  0  0  0
 26 24  1  0  0  0  0
 27 26  1  0  0  0  0
 27 28  2  0  0  0  0
 28 23  1  0  0  0  0
 29 14  1  0  0  0  0
 30 29  1  0  0  0  0
 31 30  1  0  0  0  0
M  END
>  <MODEL>
5

>  <REMARK>
 VINA RESULT:      -6.8      3.017      7.244
  Name = 
  6 active torsions:
  status: ('A' for Active; 'I' for Inactive)
    1  A    between atoms: N_2  and  C_27
    2  A    between atoms: C_3  and  C_13
    3  A    between atoms: C_6  and  O_30
    4  A    between atoms: C_16  and  C_25
    5  A    between atoms: C_24  and  O_30
    6  A    between atoms: C_25  and  C_27
                            x       y       z     vdW  Elec       q    Type
                         _______ _______ _______ _____ _____    ______ ____

>  <TORSDO>
F 6

$$$$
=
 OpenBabel11042414053D

 31 35  0  0  1  0  0  0  0  0999 V2000
  189.5230  176.7040  144.0280 C   0  0  0  0  0  3  0  0  0  0  0  0
  190.4020  176.9580  146.7080 C   0  0  0  0  0  0  0  0  0  0  0  0
  185.0950  178.3000  144.0880 C   0  0  0  0  0  2  0  0  0  0  0  0
  188.6310  176.9810  145.0580 C   0  0  0  0  0  0  0  0  0  0  0  0
  187.1900  177.2000  145.0030 C   0  0  2  0  0  3  0  0  0  0  0  0
  191.3310  176.6820  145.6760 C   0  0  0  0  0  0  0  0  0  0  0  0
  190.8340  177.0580  148.1360 C   0  0  0  0  0  1  0  0  0  0  0  0
  187.8980  178.5790  148.1080 C   0  0  0  0  0  3  0  0  0  0  0  0
  186.2720  177.3350  143.8030 C   0  0  2  0  0  3  0  0  0  0  0  0
  187.8730  177.3290  147.2630 C   0  0  2  0  0  3  0  0  0  0  0  0
  189.0560  177.1270  146.3650 C   0  0  0  0  0  0  0  0  0  0  0  0
  186.7790  177.4220  146.2440 C   0  0  1  0  0  3  0  0  0  0  0  0
  185.5480  178.1590  146.5050 C   0  0  0  0  0  0  0  0  0  0  0  0
  190.8890  176.5540  144.3350 C   0  0  0  0  0  0  0  0  0  0  0  0
  186.8050  179.3540  148.2390 C   0  0  0  0  0  3  0  0  0  0  0  0
  184.4670  178.0870  145.4770 C   0  0  0  0  0  2  0  0  0  0  0  0
  185.5670  179.1010  147.4540 C   0  0  0  0  0  3  0  0  0  0  0  0
  192.7830  176.4890  145.9930 C   0  0  0  0  0  2  0  0  0  0  0  0
  193.0500  175.0420  146.3650 C   0  0  0  0  0  1  0  0  0  0  0  0
  187.0240  177.8140  142.5670 C   0  0  0  0  0  2  0  0  0  0  0  0
  186.6370  176.9990  141.3450 C   0  0  0  0  0  2  0  0  0  0  0  0
  187.8170  176.3550  140.7850 N   0  0  0  0  0  2  0  0  0  0  0  0
  189.7100  173.2180  140.8210 C   0  0  0  0  0  3  0  0  0  0  0  0
  188.1980  175.0160  141.1070 C   0  0  0  0  0  0  0  0  0  0  0  0
  189.3140  174.4860  140.5390 N   0  0  0  0  0  0  0  0  0  0  0  0
  187.4440  174.2430  141.9970 C   0  0  0  0  0  3  0  0  0  0  0  0
  187.8670  172.9440  142.2730 C   0  0  0  0  0  3  0  0  0  0  0  0
  188.9880  172.4550  141.6820 N   0  0  0  0  0  0  0  0  0  0  0  0
  191.8210  176.2760  143.3270 O   0  0  0  0  0  0  0  0  0  0  0  0
  192.0590  174.9620  142.8400 C   0  0  0  0  0  2  0  0  0  0  0  0
  192.9780  175.0220  141.7170 N   0  0  0  0  0  1  0  0  0  0  0  0
  1 14  2  0  0  0  0
  1  4  1  0  0  0  0
  2  7  1  0  0  0  0
  3 16  1  0  0  0  0
  4 11  2  0  0  0  0
  5  4  1  6  0  0  0
  5 12  1  0  0  0  0
  6 18  1  0  0  0  0
  6  2  2  0  0  0  0
  8 15  2  0  0  0  0
  9 20  1  6  0  0  0
  9  3  1  0  0  0  0
  9  5  1  0  0  0  0
 10  8  1  6  0  0  0
 11  2  1  0  0  0  0
 11 10  1  0  0  0  0
 12 13  1  6  0  0  0
 12 10  1  0  0  0  0
 13 17  2  0  0  0  0
 14  6  1  0  0  0  0
 16 13  1  0  0  0  0
 17 15  1  0  0  0  0
 18 19  1  0  0  0  0
 21 20  1  0  0  0  0
 22 24  1  0  0  0  0
 22 21  1  0  0  0  0
 23 28  2  0  0  0  0
 24 26  1  0  0  0  0
 25 23  1  0  0  0  0
 25 24  2  0  0  0  0
 26 27  2  0  0  0  0
 28 27  1  0  0  0  0
 29 14  1  0  0  0  0
 30 29  1  0  0  0  0
 31 30  1  0  0  0  0
M  END
>  <MODEL>
6

>  <REMARK>
 VINA RESULT:      -6.7      1.953      5.187
  Name = 
  6 active torsions:
  status: ('A' for Active; 'I' for Inactive)
    1  A    between atoms: N_2  and  C_27
    2  A    between atoms: C_3  and  C_13
    3  A    between atoms: C_6  and  O_30
    4  A    between atoms: C_16  and  C_25
    5  A    between atoms: C_24  and  O_30
    6  A    between atoms: C_25  and  C_27
                            x       y       z     vdW  Elec       q    Type
                         _______ _______ _______ _____ _____    ______ ____

>  <TORSDO>
F 6

$$$$
=
 OpenBabel11042414053D

 31 35  0  0  1  0  0  0  0  0999 V2000
  187.6830  176.7290  143.5230 C   0  0  0  0  0  3  0  0  0  0  0  0
  187.3130  177.4100  146.2460 C   0  0  0  0  0  0  0  0  0  0  0  0
  192.1590  175.2940  143.2690 C   0  0  0  0  0  2  0  0  0  0  0  0
  188.7620  176.8350  144.3940 C   0  0  0  0  0  0  0  0  0  0  0  0
  190.1820  176.6230  144.1410 C   0  0  2  0  0  3  0  0  0  0  0  0
  186.1980  177.3040  145.3800 C   0  0  0  0  0  0  0  0  0  0  0  0
  187.1500  177.8070  147.6780 C   0  0  0  0  0  1  0  0  0  0  0  0
  190.1390  176.3980  147.6040 C   0  0  0  0  0  3  0  0  0  0  0  0
  190.8820  176.0890  142.9050 C   0  0  2  0  0  3  0  0  0  0  0  0
  189.9210  177.2790  146.3980 C   0  0  2  0  0  3  0  0  0  0  0  0
  188.5860  177.1460  145.7300 C   0  0  0  0  0  0  0  0  0  0  0  0
  190.8220  176.8480  145.2800 C   0  0  1  0  0  3  0  0  0  0  0  0
  192.1310  176.2590  145.5340 C   0  0  0  0  0  0  0  0  0  0  0  0
  186.3850  176.9630  144.0160 C   0  0  0  0  0  0  0  0  0  0  0  0
  191.2930  175.7270  147.7770 C   0  0  0  0  0  3  0  0  0  0  0  0
  193.0050  175.9800  144.3560 C   0  0  0  0  0  2  0  0  0  0  0  0
  192.3510  175.7040  146.7310 C   0  0  0  0  0  3  0  0  0  0  0  0
  184.8150  177.5810  145.8850 C   0  0  0  0  0  2  0  0  0  0  0  0
  184.4580  179.0390  145.6620 C   0  0  0  0  0  1  0  0  0  0  0  0
  189.9600  175.2050  142.0730 C   0  0  0  0  0  2  0  0  0  0  0  0
  190.3250  173.7390  142.2310 C   0  0  0  0  0  2  0  0  0  0  0  0
  190.3480  173.0910  140.9270 N   0  0  0  0  0  2  0  0  0  0  0  0
  190.6730  169.8180  139.3110 C   0  0  0  0  0  2  0  0  0  0  0  0
  190.5110  171.6810  140.7620 C   0  0  0  0  0  0  0  0  0  0  0  0
  190.5190  171.1530  139.5090 N   0  0  0  0  0  0  0  0  0  0  0  0
  190.6620  170.8350  141.8670 C   0  0  0  0  0  2  0  0  0  0  0  0
  190.8180  169.4690  141.6430 C   0  0  0  0  0  3  0  0  0  0  0  0
  190.8200  168.9850  140.3740 N   0  0  0  0  0  0  0  0  0  0  0  0
  185.2710  176.8670  143.1720 O   0  0  0  0  0  0  0  0  0  0  0  0
  185.0240  177.7840  142.1170 C   0  0  0  0  0  2  0  0  0  0  0  0
  183.6690  178.2930  142.2260 N   0  0  0  0  0  1  0  0  0  0  0  0
  1 14  2  0  0  0  0
  1  4  1  0  0  0  0
  2  7  1  0  0  0  0
  3 16  1  0  0  0  0
  4 11  2  0  0  0  0
  5  4  1  1  0  0  0
  5 12  1  0  0  0  0
  6 18  1  0  0  0  0
  6  2  2  0  0  0  0
  8 15  2  0  0  0  0
  9 20  1  1  0  0  0
  9  3  1  0  0  0  0
  9  5  1  0  0  0  0
 10  8  1  1  0  0  0
 11  2  1  0  0  0  0
 11 10  1  0  0  0  0
 12 13  1  1  0  0  0
 12 10  1  0  0  0  0
 13 17  2  0  0  0  0
 14  6  1  0  0  0  0
 16 13  1  0  0  0  0
 17 15  1  0  0  0  0
 19 18  1  0  0  0  0
 20 21  1  0  0  0  0
 22 21  1  0  0  0  0
 23 25  1  0  0  0  0
 23 28  1  0  0  0  0
 24 22  1  0  0  0  0
 24 26  1  0  0  0  0
 25 24  2  0  0  0  0
 27 26  1  0  0  0  0
 28 27  2  0  0  0  0
 29 14  1  0  0  0  0
 30 31  1  0  0  0  0
 30 29  1  0  0  0  0
M  END
>  <MODEL>
7

>  <REMARK>
 VINA RESULT:      -6.7      2.051      2.584
  Name = 
  6 active torsions:
  status: ('A' for Active; 'I' for Inactive)
    1  A    between atoms: N_2  and  C_27
    2  A    between atoms: C_3  and  C_13
    3  A    between atoms: C_6  and  O_30
    4  A    between atoms: C_16  and  C_25
    5  A    between atoms: C_24  and  O_30
    6  A    between atoms: C_25  and  C_27
                            x       y       z     vdW  Elec       q    Type
                         _______ _______ _______ _____ _____    ______ ____

>  <TORSDO>
F 6

$$$$
=
 OpenBabel11042414053D

 31 35  0  0  1  0  0  0  0  0999 V2000
  189.6620  173.4650  144.2940 C   0  0  0  0  0  3  0  0  0  0  0  0
  192.3070  172.5750  143.8150 C   0  0  0  0  0  0  0  0  0  0  0  0
  190.1620  177.1060  147.2360 C   0  0  0  0  0  2  0  0  0  0  0  0
  190.7280  173.9230  145.0600 C   0  0  0  0  0  0  0  0  0  0  0  0
  190.7360  174.8820  146.1600 C   0  0  2  0  0  3  0  0  0  0  0  0
  191.2390  172.0980  143.0180 C   0  0  0  0  0  0  0  0  0  0  0  0
  193.7070  172.0910  143.6100 C   0  0  0  0  0  1  0  0  0  0  0  0
  194.1020  174.8970  145.3130 C   0  0  0  0  0  3  0  0  0  0  0  0
  189.6200  175.7620  146.6910 C   0  0  2  0  0  3  0  0  0  0  0  0
  192.9430  174.0920  145.8490 C   0  0  2  0  0  3  0  0  0  0  0  0
  192.0250  173.5090  144.8180 C   0  0  0  0  0  0  0  0  0  0  0  0
  191.9890  174.9890  146.5780 C   0  0  1  0  0  3  0  0  0  0  0  0
  192.4450  176.1820  147.2820 C   0  0  0  0  0  0  0  0  0  0  0  0
  189.9150  172.5440  143.2590 C   0  0  0  0  0  0  0  0  0  0  0  0
  194.4420  176.0780  145.8620 C   0  0  0  0  0  3  0  0  0  0  0  0
  191.4370  176.9410  148.0810 C   0  0  0  0  0  2  0  0  0  0  0  0
  193.6180  176.7160  146.9240 C   0  0  0  0  0  3  0  0  0  0  0  0
  191.4900  171.0940  141.9340 C   0  0  0  0  0  2  0  0  0  0  0  0
  191.7980  171.7990  140.6270 C   0  0  0  0  0  1  0  0  0  0  0  0
  188.5660  176.0400  145.6260 C   0  0  0  0  0  2  0  0  0  0  0  0
  188.9480  177.2470  144.7860 C   0  0  0  0  0  2  0  0  0  0  0  0
  187.7460  177.9300  144.3260 N   0  0  0  0  0  2  0  0  0  0  0  0
  185.5590  178.3200  141.4120 C   0  0  0  0  0  3  0  0  0  0  0  0
  187.2190  177.7720  143.0080 C   0  0  0  0  0  0  0  0  0  0  0  0
  186.0900  178.4430  142.6570 N   0  0  0  0  0  0  0  0  0  0  0  0
  187.8440  176.9390  142.0730 C   0  0  0  0  0  3  0  0  0  0  0  0
  187.2840  176.8250  140.8020 C   0  0  0  0  0  3  0  0  0  0  0  0
  186.1540  177.5150  140.4940 N   0  0  0  0  0  0  0  0  0  0  0  0
  188.8690  172.0580  142.4640 O   0  0  0  0  0  0  0  0  0  0  0  0
  187.9500  172.9110  141.7970 C   0  0  0  0  0  2  0  0  0  0  0  0
  188.5550  173.4160  140.5780 N   0  0  0  0  0  1  0  0  0  0  0  0
  1  4  1  0  0  0  0
  2 11  1  0  0  0  0
  3 16  1  0  0  0  0
  5  4  1  6  0  0  0
  5 12  1  0  0  0  0
  5  9  1  0  0  0  0
  6 14  1  0  0  0  0
  6  2  2  0  0  0  0
  7  2  1  0  0  0  0
  8 15  2  0  0  0  0
  9 20  1  6  0  0  0
  9  3  1  0  0  0  0
 10  8  1  6  0  0  0
 10 12  1  0  0  0  0
 11  4  2  0  0  0  0
 11 10  1  0  0  0  0
 12 13  1  6  0  0  0
 13 16  1  0  0  0  0
 14  1  2  0  0  0  0
 15 17  1  0  0  0  0
 17 13  2  0  0  0  0
 18  6  1  0  0  0  0
 19 18  1  0  0  0  0
 21 20  1  0  0  0  0
 22 21  1  0  0  0  0
 23 25  1  0  0  0  0
 24 22  1  0  0  0  0
 25 24  2  0  0  0  0
 26 24  1  0  0  0  0
 27 26  2  0  0  0  0
 28 27  1  0  0  0  0
 28 23  2  0  0  0  0
 29 14  1  0  0  0  0
 30 29  1  0  0  0  0
 31 30  1  0  0  0  0
M  END
>  <MODEL>
8

>  <REMARK>
 VINA RESULT:      -6.6      2.297      5.800
  Name = 
  6 active torsions:
  status: ('A' for Active; 'I' for Inactive)
    1  A    between atoms: N_2  and  C_27
    2  A    between atoms: C_3  and  C_13
    3  A    between atoms: C_6  and  O_30
    4  A    between atoms: C_16  and  C_25
    5  A    between atoms: C_24  and  O_30
    6  A    between atoms: C_25  and  C_27
                            x       y       z     vdW  Elec       q    Type
                         _______ _______ _______ _____ _____    ______ ____

>  <TORSDO>
F 6

$$$$
=
 OpenBabel11042414053D

 31 35  0  0  1  0  0  0  0  0999 V2000
  189.7040  173.4610  144.2670 C   0  0  0  0  0  3  0  0  0  0  0  0
  192.3510  172.6980  143.6110 C   0  0  0  0  0  0  0  0  0  0  0  0
  190.2260  176.9750  147.3550 C   0  0  0  0  0  2  0  0  0  0  0  0
  190.7920  173.9230  145.0000 C   0  0  0  0  0  0  0  0  0  0  0  0
  190.8220  174.8290  146.1430 C   0  0  2  0  0  3  0  0  0  0  0  0
  191.2590  172.2180  142.8470 C   0  0  0  0  0  0  0  0  0  0  0  0
  193.7540  172.2790  143.3110 C   0  0  0  0  0  1  0  0  0  0  0  0
  194.1360  175.0150  145.1270 C   0  0  0  0  0  3  0  0  0  0  0  0
  189.7050  175.6390  146.7730 C   0  0  2  0  0  3  0  0  0  0  0  0
  193.0370  174.1410  145.6820 C   0  0  2  0  0  3  0  0  0  0  0  0
  192.0880  173.5720  144.6710 C   0  0  0  0  0  0  0  0  0  0  0  0
  192.0920  174.9650  146.5010 C   0  0  1  0  0  3  0  0  0  0  0  0
  192.5400  176.1410  147.2390 C   0  0  0  0  0  0  0  0  0  0  0  0
  189.9350  172.6000  143.1770 C   0  0  0  0  0  0  0  0  0  0  0  0
  194.4620  176.1810  145.7150 C   0  0  0  0  0  3  0  0  0  0  0  0
  191.5490  176.8210  148.1250 C   0  0  0  0  0  2  0  0  0  0  0  0
  193.6720  176.7360  146.8480 C   0  0  0  0  0  3  0  0  0  0  0  0
  191.4900  171.2760  141.7040 C   0  0  0  0  0  2  0  0  0  0  0  0
  191.3420  169.8400  142.1700 C   0  0  0  0  0  1  0  0  0  0  0  0
  188.5870  175.9260  145.7780 C   0  0  0  0  0  2  0  0  0  0  0  0
  188.6980  177.3380  145.2290 C   0  0  0  0  0  2  0  0  0  0  0  0
  187.7880  177.5040  144.1030 N   0  0  0  0  0  2  0  0  0  0  0  0
  184.4210  178.6580  143.2320 C   0  0  0  0  0  3  0  0  0  0  0  0
  186.4690  178.0340  144.2420 C   0  0  0  0  0  0  0  0  0  0  0  0
  185.6820  178.1590  143.1400 N   0  0  0  0  0  0  0  0  0  0  0  0
  185.9730  178.4250  145.4910 C   0  0  0  0  0  3  0  0  0  0  0  0
  184.6780  178.9340  145.5640 C   0  0  0  0  0  3  0  0  0  0  0  0
  183.9260  179.0420  144.4370 N   0  0  0  0  0  0  0  0  0  0  0  0
  188.8670  172.1120  142.4130 O   0  0  0  0  0  0  0  0  0  0  0  0
  187.9480  172.9630  141.7430 C   0  0  0  0  0  2  0  0  0  0  0  0
  188.6540  173.7480  140.7460 N   0  0  0  0  0  1  0  0  0  0  0  0
  1  4  1  0  0  0  0
  2 11  1  0  0  0  0
  3 16  1  0  0  0  0
  5  4  1  6  0  0  0
  5 12  1  0  0  0  0
  5  9  1  0  0  0  0
  6 14  1  0  0  0  0
  6  2  2  0  0  0  0
  7  2  1  0  0  0  0
  8 15  2  0  0  0  0
  9 20  1  6  0  0  0
  9  3  1  0  0  0  0
 10  8  1  6  0  0  0
 10 12  1  0  0  0  0
 11  4  2  0  0  0  0
 11 10  1  0  0  0  0
 12 13  1  6  0  0  0
 13 16  1  0  0  0  0
 14  1  2  0  0  0  0
 15 17  1  0  0  0  0
 17 13  2  0  0  0  0
 18 19  1  0  0  0  0
 18  6  1  0  0  0  0
 21 20  1  0  0  0  0
 22 24  1  0  0  0  0
 22 21  1  0  0  0  0
 23 28  2  0  0  0  0
 24 26  1  0  0  0  0
 25 23  1  0  0  0  0
 25 24  2  0  0  0  0
 26 27  2  0  0  0  0
 28 27  1  0  0  0  0
 29 14  1  0  0  0  0
 30 29  1  0  0  0  0
 31 30  1  0  0  0  0
M  END
>  <MODEL>
9

>  <REMARK>
 VINA RESULT:      -6.6      2.475      6.132
  Name = 
  6 active torsions:
  status: ('A' for Active; 'I' for Inactive)
    1  A    between atoms: N_2  and  C_27
    2  A    between atoms: C_3  and  C_13
    3  A    between atoms: C_6  and  O_30
    4  A    between atoms: C_16  and  C_25
    5  A    between atoms: C_24  and  O_30
    6  A    between atoms: C_25  and  C_27
                            x       y       z     vdW  Elec       q    Type
                         _______ _______ _______ _____ _____    ______ ____

>  <TORSDO>
F 6

$$$$
