=
 OpenBabel11042418583D

 41 45  0  0  1  0  0  0  0  0999 V2000
  187.6450  175.5870  142.2750 C   0  0  2  0  0  3  0  0  0  0  0  0
  188.0930  175.9020  143.6940 C   0  0  0  0  0  2  0  0  0  0  0  0
  187.9160  177.3870  144.0000 C   0  0  1  0  0  3  0  0  0  0  0  0
  184.9560  177.0040  146.3950 C   0  0  0  0  0  3  0  0  0  0  0  0
  186.0790  178.9410  144.7190 C   0  0  0  0  0  3  0  0  0  0  0  0
  184.3700  178.2670  146.2980 C   0  0  0  0  0  3  0  0  0  0  0  0
  186.1060  176.7060  145.6540 C   0  0  0  0  0  3  0  0  0  0  0  0
  184.9310  179.2370  145.4620 C   0  0  0  0  0  3  0  0  0  0  0  0
  186.6730  177.6730  144.8090 C   0  0  0  0  0  0  0  0  0  0  0  0
  190.1720  177.7780  143.6950 O   0  0  0  0  0  1  0  0  0  0  0  0
  189.1520  177.9430  144.5730 N   0  0  0  0  0  0  0  0  0  0  0  0
  189.4970  177.2180  145.7890 C   0  0  0  0  0  2  0  0  0  0  0  0
  190.9080  176.6560  145.6900 C   0  0  0  0  0  2  0  0  0  0  0  0
  190.9950  175.3490  147.7860 C   0  0  0  0  0  2  0  0  0  0  0  0
  189.7060  175.0080  147.0690 C   0  0  0  0  0  2  0  0  0  0  0  0
  190.9690  175.2580  146.2750 C   0  0  0  0  0  3  0  0  0  0  0  0
  188.4500  174.4250  141.7030 C   0  0  0  0  0  2  0  0  0  0  0  0
  189.8320  174.3270  142.3320 C   0  0  0  0  0  2  0  0  0  0  0  0
  193.7530  171.1080  143.4100 N   0  0  0  0  0  0  0  0  0  0  0  0
  192.4710  173.2060  143.6170 C   0  0  0  0  0  2  0  0  0  0  0  0
  191.3970  172.4620  142.8940 C   0  0  0  0  0  0  0  0  0  0  0  0
  190.2470  172.9350  142.3950 N   0  0  0  0  0  0  0  0  0  0  0  0
  190.2620  170.7860  142.0410 C   0  0  0  0  0  3  0  0  0  0  0  0
  195.0240  173.0370  143.8640 N   0  0  0  0  0  2  0  0  0  0  0  0
  191.4370  171.1220  142.6900 C   0  0  0  0  0  0  0  0  0  0  0  0
  189.5590  171.9320  141.8650 N   0  0  0  0  0  0  0  0  0  0  0  0
  193.7590  172.4010  143.6280 C   0  0  0  0  0  0  0  0  0  0  0  0
  192.5590  170.2770  143.1770 C   0  0  0  0  0  2  0  0  0  0  0  0
  194.7890  175.0170  145.4020 C   0  0  0  0  0  2  0  0  0  0  0  0
  194.3850  177.1820  146.6030 C   0  0  0  0  0  1  0  0  0  0  0  0
  196.0500  175.1530  143.2730 C   0  0  0  0  0  3  0  0  0  0  0  0
  194.9740  176.4680  145.4860 N   0  0  0  0  0  0  0  0  0  0  0  0
  196.3410  176.5720  143.5220 C   0  0  0  0  0  3  0  0  0  0  0  0
  195.8180  177.1870  144.5790 C   0  0  0  0  0  3  0  0  0  0  0  0
  195.3080  174.4230  144.1150 C   0  0  0  0  0  0  0  0  0  0  0  0
  187.7580  176.7450  141.4620 O   0  0  0  0  0  0  0  0  0  0  0  0
  187.1690  176.7970  140.2010 C   0  0  0  0  0  3  0  0  0  0  0  0
  186.0670  177.5060  139.9850 C   0  0  0  0  0  3  0  0  0  0  0  0
  185.4060  178.2750  141.0760 C   0  0  0  0  0  2  0  0  0  0  0  0
  184.0890  178.5660  140.7100 O   0  0  0  0  0  0  0  0  0  0  0  0
  183.3250  178.2060  141.8170 C   0  0  0  0  0  1  0  0  0  0  0  0
  1 17  1  6  0  0  0
  1  2  1  0  0  0  0
  3  2  1  1  0  0  0
  3 11  1  0  0  0  0
  3  9  1  0  0  0  0
  5  9  2  0  0  0  0
  5  8  1  0  0  0  0
  6  4  1  0  0  0  0
  7  4  2  0  0  0  0
  8  6  2  0  0  0  0
  9  7  1  0  0  0  0
 10 11  1  0  0  0  0
 11 12  1  0  0  0  0
 13 12  1  0  0  0  0
 13 16  1  0  0  0  0
 15 14  1  0  0  0  0
 16 15  1  0  0  0  0
 16 14  1  0  0  0  0
 17 18  1  0  0  0  0
 18 22  1  0  0  0  0
 19 27  2  0  0  0  0
 20 27  1  0  0  0  0
 21 20  1  0  0  0  0
 22 21  1  0  0  0  0
 23 25  1  0  0  0  0
 24 35  1  0  0  0  0
 25 21  2  0  0  0  0
 25 28  1  0  0  0  0
 26 23  2  0  0  0  0
 26 22  1  0  0  0  0
 27 24  1  0  0  0  0
 28 19  1  0  0  0  0
 29 32  1  0  0  0  0
 31 33  1  0  0  0  0
 31 35  2  0  0  0  0
 32 30  1  0  0  0  0
 33 34  2  0  0  0  0
 34 32  1  0  0  0  0
 35 29  1  0  0  0  0
 36  1  1  0  0  0  0
 37 36  1  0  0  0  0
 38 37  2  0  0  0  0
 38 39  1  0  0  0  0
 40 39  1  0  0  0  0
 40 41  1  0  0  0  0
M  END
>  <MODEL>
1

>  <REMARK>
 VINA RESULT:      -7.0      0.000      0.000
  Name = 
  15 active torsions:
  status: ('A' for Active; 'I' for Inactive)
    1  A    between atoms: C_1  and  O_29
    2  A    between atoms: C_1  and  C_38
    3  A    between atoms: C_4  and  N_20
    4  A    between atoms: C_4  and  C_22
    5  A    between atoms: C_6  and  O_24
    6  A    between atoms: C_7  and  C_14
    7  A    between atoms: C_7  and  C_22
    8  A    between atoms: C_7  and  O_24
    9  A    between atoms: C_8  and  N_18
   10  A    between atoms: C_8  and  C_21
   11  A    between atoms: C_14  and  C_19
   12  A    between atoms: N_18  and  C_19
   13  A    between atoms: C_19  and  C_37
   14  A    between atoms: C_21  and  C_27
   15  A    between atoms: N_26  and  C_41
                            x       y       z     vdW  Elec       q    Type
                         _______ _______ _______ _____ _____    ______ ____

>  <TORSDO>
F 15

$$$$
=
 OpenBabel11042418583D

 41 45  0  0  1  0  0  0  0  0999 V2000
  189.3430  177.1510  143.3650 C   0  0  2  0  0  3  0  0  0  0  0  0
  188.5870  176.0040  144.0200 C   0  0  0  0  0  2  0  0  0  0  0  0
  188.6400  176.1200  145.5410 C   0  0  1  0  0  3  0  0  0  0  0  0
  185.0280  177.2080  146.1820 C   0  0  0  0  0  3  0  0  0  0  0  0
  187.5910  177.7050  147.1820 C   0  0  0  0  0  3  0  0  0  0  0  0
  185.2020  178.1020  147.2390 C   0  0  0  0  0  3  0  0  0  0  0  0
  186.1350  176.5590  145.6230 C   0  0  0  0  0  3  0  0  0  0  0  0
  186.4830  178.3500  147.7410 C   0  0  0  0  0  3  0  0  0  0  0  0
  187.4250  176.8070  146.1180 C   0  0  0  0  0  0  0  0  0  0  0  0
  189.4810  174.9940  147.3750 O   0  0  0  0  0  1  0  0  0  0  0  0
  188.9390  174.8120  146.1440 N   0  0  0  0  0  0  0  0  0  0  0  0
  189.9240  174.1100  145.3310 C   0  0  0  0  0  2  0  0  0  0  0  0
  189.5890  172.6270  145.2540 C   0  0  0  0  0  2  0  0  0  0  0  0
  190.5130  173.0880  143.0080 C   0  0  0  0  0  2  0  0  0  0  0  0
  191.0940  171.7790  143.4990 C   0  0  0  0  0  2  0  0  0  0  0  0
  189.6600  172.1370  143.8200 C   0  0  0  0  0  3  0  0  0  0  0  0
  190.2710  177.8250  144.3680 C   0  0  0  0  0  2  0  0  0  0  0  0
  191.7300  177.7290  143.9470 C   0  0  0  0  0  2  0  0  0  0  0  0
  194.4150  173.2930  143.8740 N   0  0  0  0  0  0  0  0  0  0  0  0
  193.5970  175.4190  142.9250 C   0  0  0  0  0  2  0  0  0  0  0  0
  193.1670  175.7200  144.3230 C   0  0  0  0  0  0  0  0  0  0  0  0
  192.4140  176.7380  144.7610 N   0  0  0  0  0  0  0  0  0  0  0  0
  193.0080  175.5810  146.5090 C   0  0  0  0  0  3  0  0  0  0  0  0
  194.1190  173.3180  141.5380 N   0  0  0  0  0  2  0  0  0  0  0  0
  193.5540  174.9790  145.3900 C   0  0  0  0  0  0  0  0  0  0  0  0
  192.3010  176.6560  146.0810 N   0  0  0  0  0  0  0  0  0  0  0  0
  194.0640  173.9780  142.8120 C   0  0  0  0  0  0  0  0  0  0  0  0
  194.4510  173.8000  145.2560 C   0  0  0  0  0  2  0  0  0  0  0  0
  192.3930  173.5550  139.7200 C   0  0  0  0  0  2  0  0  0  0  0  0
  190.9620  173.6150  137.6610 C   0  0  0  0  0  1  0  0  0  0  0  0
  194.6460  174.5700  139.5300 C   0  0  0  0  0  3  0  0  0  0  0  0
  192.2040  173.9600  138.3240 N   0  0  0  0  0  0  0  0  0  0  0  0
  194.3110  175.0930  138.1980 C   0  0  0  0  0  3  0  0  0  0  0  0
  193.1450  174.7910  137.6340 C   0  0  0  0  0  3  0  0  0  0  0  0
  193.7830  173.8300  140.2380 C   0  0  0  0  0  0  0  0  0  0  0  0
  188.4250  178.0770  142.8040 O   0  0  0  0  0  0  0  0  0  0  0  0
  188.0980  178.0320  141.4510 C   0  0  0  0  0  3  0  0  0  0  0  0
  186.8620  177.7530  141.0500 C   0  0  0  0  0  3  0  0  0  0  0  0
  185.7710  177.4690  142.0230 C   0  0  0  0  0  2  0  0  0  0  0  0
  185.1450  178.6660  142.3830 O   0  0  0  0  0  0  0  0  0  0  0  0
  183.8530  178.2940  142.7500 C   0  0  0  0  0  1  0  0  0  0  0  0
  1  2  1  1  0  0  0
  1 17  1  0  0  0  0
  3  2  1  6  0  0  0
  3  9  1  0  0  0  0
  3 11  1  0  0  0  0
  4  6  1  0  0  0  0
  5  8  1  0  0  0  0
  6  8  2  0  0  0  0
  7  9  1  0  0  0  0
  7  4  2  0  0  0  0
  9  5  2  0  0  0  0
 11 10  1  0  0  0  0
 12 11  1  0  0  0  0
 13 12  1  0  0  0  0
 14 15  1  0  0  0  0
 14 16  1  0  0  0  0
 15 16  1  0  0  0  0
 16 13  1  0  0  0  0
 18 17  1  0  0  0  0
 18 22  1  0  0  0  0
 19 28  1  0  0  0  0
 20 21  1  0  0  0  0
 21 22  1  0  0  0  0
 21 25  2  0  0  0  0
 22 26  1  0  0  0  0
 24 27  1  0  0  0  0
 25 23  1  0  0  0  0
 26 23  2  0  0  0  0
 27 20  1  0  0  0  0
 27 19  2  0  0  0  0
 28 25  1  0  0  0  0
 29 35  1  0  0  0  0
 30 32  1  0  0  0  0
 31 35  2  0  0  0  0
 32 29  1  0  0  0  0
 33 31  1  0  0  0  0
 34 33  2  0  0  0  0
 34 32  1  0  0  0  0
 35 24  1  0  0  0  0
 36  1  1  0  0  0  0
 37 36  1  0  0  0  0
 38 37  2  0  0  0  0
 38 39  1  0  0  0  0
 39 40  1  0  0  0  0
 40 41  1  0  0  0  0
M  END
>  <MODEL>
2

>  <REMARK>
 VINA RESULT:      -6.9      2.647      4.335
  Name = 
  15 active torsions:
  status: ('A' for Active; 'I' for Inactive)
    1  A    between atoms: C_1  and  O_29
    2  A    between atoms: C_1  and  C_38
    3  A    between atoms: C_4  and  N_20
    4  A    between atoms: C_4  and  C_22
    5  A    between atoms: C_6  and  O_24
    6  A    between atoms: C_7  and  C_14
    7  A    between atoms: C_7  and  C_22
    8  A    between atoms: C_7  and  O_24
    9  A    between atoms: C_8  and  N_18
   10  A    between atoms: C_8  and  C_21
   11  A    between atoms: C_14  and  C_19
   12  A    between atoms: N_18  and  C_19
   13  A    between atoms: C_19  and  C_37
   14  A    between atoms: C_21  and  C_27
   15  A    between atoms: N_26  and  C_41
                            x       y       z     vdW  Elec       q    Type
                         _______ _______ _______ _____ _____    ______ ____

>  <TORSDO>
F 15

$$$$
=
 OpenBabel11042418583D

 41 45  0  0  1  0  0  0  0  0999 V2000
  189.7930  175.6050  142.1360 C   0  0  2  0  0  3  0  0  0  0  0  0
  189.0040  176.6710  142.8820 C   0  0  0  0  0  2  0  0  0  0  0  0
  188.2120  176.0540  144.0300 C   0  0  1  0  0  3  0  0  0  0  0  0
  189.8670  174.9840  147.3110 C   0  0  0  0  0  3  0  0  0  0  0  0
  189.4700  177.3070  145.8050 C   0  0  0  0  0  3  0  0  0  0  0  0
  190.3690  176.2050  147.7660 C   0  0  0  0  0  3  0  0  0  0  0  0
  189.1650  174.9230  146.1010 C   0  0  0  0  0  3  0  0  0  0  0  0
  190.1730  177.3660  147.0130 C   0  0  0  0  0  3  0  0  0  0  0  0
  188.9600  176.0860  145.3420 C   0  0  0  0  0  0  0  0  0  0  0  0
  186.0590  176.0090  143.1920 O   0  0  0  0  0  1  0  0  0  0  0  0
  186.8610  176.6340  144.0910 N   0  0  0  0  0  0  0  0  0  0  0  0
  186.9160  178.0440  143.7250 C   0  0  0  0  0  2  0  0  0  0  0  0
  186.1310  178.8830  144.7220 C   0  0  0  0  0  2  0  0  0  0  0  0
  185.6630  179.0530  147.1440 C   0  0  0  0  0  2  0  0  0  0  0  0
  184.4680  178.4080  146.4760 C   0  0  0  0  0  2  0  0  0  0  0  0
  185.8650  178.0930  145.9910 C   0  0  0  0  0  3  0  0  0  0  0  0
  189.0510  174.2740  142.1590 C   0  0  0  0  0  2  0  0  0  0  0  0
  189.8760  173.1520  141.5470 C   0  0  0  0  0  2  0  0  0  0  0  0
  192.6150  174.5040  137.3550 N   0  0  0  0  0  0  0  0  0  0  0  0
  192.3370  173.6970  139.6710 C   0  0  0  0  0  2  0  0  0  0  0  0
  190.8980  173.5470  139.3010 C   0  0  0  0  0  0  0  0  0  0  0  0
  189.8590  173.2610  140.0970 N   0  0  0  0  0  0  0  0  0  0  0  0
  189.0890  173.3970  138.0640 C   0  0  0  0  0  3  0  0  0  0  0  0
  194.3480  175.0690  138.8460 N   0  0  0  0  0  2  0  0  0  0  0  0
  190.4500  173.6380  138.0240 C   0  0  0  0  0  0  0  0  0  0  0  0
  188.7580  173.1820  139.3610 N   0  0  0  0  0  0  0  0  0  0  0  0
  193.0930  174.4270  138.5740 C   0  0  0  0  0  0  0  0  0  0  0  0
  191.3640  173.8910  136.8780 C   0  0  0  0  0  2  0  0  0  0  0  0
  195.9840  173.9870  140.4250 C   0  0  0  0  0  2  0  0  0  0  0  0
  197.3100  172.9510  142.2850 C   0  0  0  0  0  1  0  0  0  0  0  0
  195.0060  176.2200  140.8760 C   0  0  0  0  0  3  0  0  0  0  0  0
  196.5450  174.0730  141.7770 N   0  0  0  0  0  0  0  0  0  0  0  0
  195.7470  176.3010  142.1430 C   0  0  0  0  0  3  0  0  0  0  0  0
  196.4730  175.2690  142.5610 C   0  0  0  0  0  3  0  0  0  0  0  0
  195.0780  175.1440  140.0810 C   0  0  0  0  0  0  0  0  0  0  0  0
  191.0920  175.4840  142.6960 O   0  0  0  0  0  0  0  0  0  0  0  0
  191.8540  176.6130  142.9890 C   0  0  0  0  0  3  0  0  0  0  0  0
  192.6380  176.6550  144.0610 C   0  0  0  0  0  3  0  0  0  0  0  0
  192.7380  175.5040  145.0010 C   0  0  0  0  0  2  0  0  0  0  0  0
  194.0660  175.0740  145.0740 O   0  0  0  0  0  0  0  0  0  0  0  0
  194.6330  175.8440  146.0860 C   0  0  0  0  0  1  0  0  0  0  0  0
  1 17  1  1  0  0  0
  1 36  1  0  0  0  0
  1  2  1  0  0  0  0
  3  2  1  6  0  0  0
  3 11  1  0  0  0  0
  3  9  1  0  0  0  0
  4  6  1  0  0  0  0
  5  8  1  0  0  0  0
  7  4  2  0  0  0  0
  8  6  2  0  0  0  0
  9  5  2  0  0  0  0
  9  7  1  0  0  0  0
 10 11  1  0  0  0  0
 12 11  1  0  0  0  0
 12 13  1  0  0  0  0
 13 16  1  0  0  0  0
 15 14  1  0  0  0  0
 16 15  1  0  0  0  0
 16 14  1  0  0  0  0
 18 17  1  0  0  0  0
 19 27  2  0  0  0  0
 21 20  1  0  0  0  0
 21 22  1  0  0  0  0
 22 18  1  0  0  0  0
 23 26  2  0  0  0  0
 24 35  1  0  0  0  0
 25 23  1  0  0  0  0
 25 21  2  0  0  0  0
 26 22  1  0  0  0  0
 27 24  1  0  0  0  0
 27 20  1  0  0  0  0
 28 19  1  0  0  0  0
 28 25  1  0  0  0  0
 29 32  1  0  0  0  0
 31 33  1  0  0  0  0
 32 30  1  0  0  0  0
 32 34  1  0  0  0  0
 33 34  2  0  0  0  0
 35 29  1  0  0  0  0
 35 31  2  0  0  0  0
 36 37  1  0  0  0  0
 37 38  2  0  0  0  0
 38 39  1  0  0  0  0
 39 40  1  0  0  0  0
 40 41  1  0  0  0  0
M  END
>  <MODEL>
3

>  <REMARK>
 VINA RESULT:      -6.7      2.797      5.388
  Name = 
  15 active torsions:
  status: ('A' for Active; 'I' for Inactive)
    1  A    between atoms: C_1  and  O_29
    2  A    between atoms: C_1  and  C_38
    3  A    between atoms: C_4  and  N_20
    4  A    between atoms: C_4  and  C_22
    5  A    between atoms: C_6  and  O_24
    6  A    between atoms: C_7  and  C_14
    7  A    between atoms: C_7  and  C_22
    8  A    between atoms: C_7  and  O_24
    9  A    between atoms: C_8  and  N_18
   10  A    between atoms: C_8  and  C_21
   11  A    between atoms: C_14  and  C_19
   12  A    between atoms: N_18  and  C_19
   13  A    between atoms: C_19  and  C_37
   14  A    between atoms: C_21  and  C_27
   15  A    between atoms: N_26  and  C_41
                            x       y       z     vdW  Elec       q    Type
                         _______ _______ _______ _____ _____    ______ ____

>  <TORSDO>
F 15

$$$$
=
 OpenBabel11042418583D

 41 45  0  0  1  0  0  0  0  0999 V2000
  189.1410  175.7830  143.3370 C   0  0  2  0  0  3  0  0  0  0  0  0
  188.6710  175.4810  144.7520 C   0  0  0  0  0  2  0  0  0  0  0  0
  188.5970  176.7590  145.5830 C   0  0  1  0  0  3  0  0  0  0  0  0
  185.5360  179.0070  145.1140 C   0  0  0  0  0  3  0  0  0  0  0  0
  186.2290  176.6260  146.4080 C   0  0  0  0  0  3  0  0  0  0  0  0
  184.5780  178.3110  145.8540 C   0  0  0  0  0  3  0  0  0  0  0  0
  186.8430  178.5140  145.0200 C   0  0  0  0  0  3  0  0  0  0  0  0
  184.9230  177.1200  146.5000 C   0  0  0  0  0  3  0  0  0  0  0  0
  187.1970  177.3210  145.6690 C   0  0  0  0  0  0  0  0  0  0  0  0
  189.7810  177.7360  147.3090 O   0  0  0  0  0  1  0  0  0  0  0  0
  189.2500  176.5610  146.8870 N   0  0  0  0  0  0  0  0  0  0  0  0
  190.3450  175.6100  146.7480 C   0  0  0  0  0  2  0  0  0  0  0  0
  191.6380  176.2060  147.2850 C   0  0  0  0  0  2  0  0  0  0  0  0
  193.9670  176.8430  146.7530 C   0  0  0  0  0  2  0  0  0  0  0  0
  193.7740  175.3920  146.3680 C   0  0  0  0  0  2  0  0  0  0  0  0
  192.6500  176.3820  146.1670 C   0  0  0  0  0  3  0  0  0  0  0  0
  190.5350  176.4010  143.3550 C   0  0  0  0  0  2  0  0  0  0  0  0
  191.4870  175.6840  142.4110 C   0  0  0  0  0  2  0  0  0  0  0  0
  190.2560  170.9490  140.6880 N   0  0  0  0  0  0  0  0  0  0  0  0
  190.8790  173.3230  140.4290 C   0  0  0  0  0  2  0  0  0  0  0  0
  191.1960  173.2580  141.8870 C   0  0  0  0  0  0  0  0  0  0  0  0
  191.5070  174.2630  142.7170 N   0  0  0  0  0  0  0  0  0  0  0  0
  191.6230  172.4190  143.8710 C   0  0  0  0  0  3  0  0  0  0  0  0
  189.4020  172.0230  138.7740 N   0  0  0  0  0  2  0  0  0  0  0  0
  191.2590  172.0930  142.5770 C   0  0  0  0  0  0  0  0  0  0  0  0
  191.7540  173.7680  143.9230 N   0  0  0  0  0  0  0  0  0  0  0  0
  190.1800  172.0510  139.9810 C   0  0  0  0  0  0  0  0  0  0  0  0
  191.0230  170.7730  141.9330 C   0  0  0  0  0  2  0  0  0  0  0  0
  188.1100  174.1070  138.2050 C   0  0  0  0  0  2  0  0  0  0  0  0
  186.7090  175.9770  137.2910 C   0  0  0  0  0  1  0  0  0  0  0  0
  189.8470  173.1880  136.6950 C   0  0  0  0  0  3  0  0  0  0  0  0
  187.7990  175.0380  137.1160 N   0  0  0  0  0  0  0  0  0  0  0  0
  189.5920  174.2650  135.7280 C   0  0  0  0  0  3  0  0  0  0  0  0
  188.6110  175.1360  135.9390 C   0  0  0  0  0  3  0  0  0  0  0  0
  189.1500  173.0800  137.8340 C   0  0  0  0  0  0  0  0  0  0  0  0
  188.2060  176.6310  142.6880 O   0  0  0  0  0  0  0  0  0  0  0  0
  187.7660  176.3550  141.3950 C   0  0  0  0  0  3  0  0  0  0  0  0
  186.8370  177.1040  140.8100 C   0  0  0  0  0  3  0  0  0  0  0  0
  186.2190  178.2670  141.5050 C   0  0  0  0  0  2  0  0  0  0  0  0
  184.8510  178.0380  141.6710 O   0  0  0  0  0  0  0  0  0  0  0  0
  184.3000  178.2460  140.4090 C   0  0  0  0  0  1  0  0  0  0  0  0
  1 17  1  1  0  0  0
  1  2  1  0  0  0  0
  3  2  1  1  0  0  0
  3  9  1  0  0  0  0
  3 11  1  0  0  0  0
  4  6  1  0  0  0  0
  5  8  1  0  0  0  0
  6  8  2  0  0  0  0
  7  4  2  0  0  0  0
  7  9  1  0  0  0  0
  9  5  2  0  0  0  0
 11 10  1  0  0  0  0
 12 11  1  0  0  0  0
 12 13  1  0  0  0  0
 15 14  1  0  0  0  0
 16 15  1  0  0  0  0
 16 14  1  0  0  0  0
 16 13  1  0  0  0  0
 18 22  1  0  0  0  0
 18 17  1  0  0  0  0
 19 28  1  0  0  0  0
 20 21  1  0  0  0  0
 21 25  2  0  0  0  0
 21 22  1  0  0  0  0
 22 26  1  0  0  0  0
 23 26  2  0  0  0  0
 24 27  1  0  0  0  0
 25 23  1  0  0  0  0
 27 20  1  0  0  0  0
 27 19  2  0  0  0  0
 28 25  1  0  0  0  0
 31 35  2  0  0  0  0
 32 30  1  0  0  0  0
 32 29  1  0  0  0  0
 33 34  2  0  0  0  0
 33 31  1  0  0  0  0
 34 32  1  0  0  0  0
 35 29  1  0  0  0  0
 35 24  1  0  0  0  0
 36  1  1  0  0  0  0
 37 36  1  0  0  0  0
 38 37  2  0  0  0  0
 38 39  1  0  0  0  0
 39 40  1  0  0  0  0
 41 40  1  0  0  0  0
M  END
>  <MODEL>
4

>  <REMARK>
 VINA RESULT:      -6.6      2.459      5.047
  Name = 
  15 active torsions:
  status: ('A' for Active; 'I' for Inactive)
    1  A    between atoms: C_1  and  O_29
    2  A    between atoms: C_1  and  C_38
    3  A    between atoms: C_4  and  N_20
    4  A    between atoms: C_4  and  C_22
    5  A    between atoms: C_6  and  O_24
    6  A    between atoms: C_7  and  C_14
    7  A    between atoms: C_7  and  C_22
    8  A    between atoms: C_7  and  O_24
    9  A    between atoms: C_8  and  N_18
   10  A    between atoms: C_8  and  C_21
   11  A    between atoms: C_14  and  C_19
   12  A    between atoms: N_18  and  C_19
   13  A    between atoms: C_19  and  C_37
   14  A    between atoms: C_21  and  C_27
   15  A    between atoms: N_26  and  C_41
                            x       y       z     vdW  Elec       q    Type
                         _______ _______ _______ _____ _____    ______ ____

>  <TORSDO>
F 15

$$$$
=
 OpenBabel11042418583D

 41 45  0  0  1  0  0  0  0  0999 V2000
  190.2080  174.4790  145.5110 C   0  0  2  0  0  3  0  0  0  0  0  0
  188.9250  175.2340  145.8270 C   0  0  0  0  0  2  0  0  0  0  0  0
  189.0530  176.7040  145.4370 C   0  0  1  0  0  3  0  0  0  0  0  0
  188.6690  178.1400  141.9110 C   0  0  0  0  0  3  0  0  0  0  0  0
  187.3890  176.3130  143.5970 C   0  0  0  0  0  3  0  0  0  0  0  0
  187.5290  177.4660  141.4710 C   0  0  0  0  0  3  0  0  0  0  0  0
  189.1730  177.9020  143.1950 C   0  0  0  0  0  3  0  0  0  0  0  0
  186.8890  176.5510  142.3130 C   0  0  0  0  0  3  0  0  0  0  0  0
  188.5330  176.9880  144.0470 C   0  0  0  0  0  0  0  0  0  0  0  0
  189.4250  177.8320  147.4190 O   0  0  0  0  0  1  0  0  0  0  0  0
  188.4790  177.5640  146.4840 N   0  0  0  0  0  0  0  0  0  0  0  0
  187.3890  176.8630  147.1520 C   0  0  0  0  0  2  0  0  0  0  0  0
  186.1730  177.7700  147.2790 C   0  0  0  0  0  2  0  0  0  0  0  0
  184.1590  178.6490  146.1470 C   0  0  0  0  0  2  0  0  0  0  0  0
  185.3510  178.8910  145.2460 C   0  0  0  0  0  2  0  0  0  0  0  0
  185.2700  177.6240  146.0680 C   0  0  0  0  0  3  0  0  0  0  0  0
  191.4280  175.3070  145.8980 C   0  0  0  0  0  2  0  0  0  0  0  0
  192.7190  174.5150  145.7620 C   0  0  0  0  0  2  0  0  0  0  0  0
  195.1530  175.0840  141.2180 N   0  0  0  0  0  0  0  0  0  0  0  0
  193.2790  174.4050  142.6730 C   0  0  0  0  0  2  0  0  0  0  0  0
  193.9780  175.2100  143.7180 C   0  0  0  0  0  0  0  0  0  0  0  0
  193.7010  175.2950  145.0270 N   0  0  0  0  0  0  0  0  0  0  0  0
  195.3620  176.6480  144.6340 C   0  0  0  0  0  3  0  0  0  0  0  0
  193.9210  173.2150  140.4860 N   0  0  0  0  0  2  0  0  0  0  0  0
  195.0100  176.0440  143.4410 C   0  0  0  0  0  0  0  0  0  0  0  0
  194.5410  176.1520  145.5920 N   0  0  0  0  0  0  0  0  0  0  0  0
  194.1540  174.2640  141.4390 C   0  0  0  0  0  0  0  0  0  0  0  0
  195.5320  176.2310  142.0610 C   0  0  0  0  0  2  0  0  0  0  0  0
  192.9600  171.1820  141.6180 C   0  0  0  0  0  2  0  0  0  0  0  0
  192.0550  168.9680  142.3740 C   0  0  0  0  0  1  0  0  0  0  0  0
  191.9390  172.1550  139.5790 C   0  0  0  0  0  3  0  0  0  0  0  0
  192.0080  170.0800  141.4450 N   0  0  0  0  0  0  0  0  0  0  0  0
  190.9090  171.1060  139.5810 C   0  0  0  0  0  3  0  0  0  0  0  0
  190.9570  170.1220  140.4730 C   0  0  0  0  0  3  0  0  0  0  0  0
  192.9150  172.1900  140.4960 C   0  0  0  0  0  0  0  0  0  0  0  0
  190.2350  174.1260  144.1370 O   0  0  0  0  0  0  0  0  0  0  0  0
  189.7080  172.9130  143.6980 C   0  0  0  0  0  3  0  0  0  0  0  0
  189.2740  172.7620  142.4510 C   0  0  0  0  0  3  0  0  0  0  0  0
  189.3230  173.8780  141.4670 C   0  0  0  0  0  2  0  0  0  0  0  0
  188.1780  173.8450  140.6660 O   0  0  0  0  0  0  0  0  0  0  0  0
  188.6330  174.1350  139.3820 C   0  0  0  0  0  1  0  0  0  0  0  0
  1  2  1  6  0  0  0
  1 17  1  0  0  0  0
  3  2  1  1  0  0  0
  3 11  1  0  0  0  0
  4  7  1  0  0  0  0
  5  9  1  0  0  0  0
  6  4  2  0  0  0  0
  6  8  1  0  0  0  0
  7  9  2  0  0  0  0
  8  5  2  0  0  0  0
  9  3  1  0  0  0  0
 11 12  1  0  0  0  0
 11 10  1  0  0  0  0
 12 13  1  0  0  0  0
 15 16  1  0  0  0  0
 15 14  1  0  0  0  0
 16 14  1  0  0  0  0
 16 13  1  0  0  0  0
 18 17  1  0  0  0  0
 19 27  2  0  0  0  0
 19 28  1  0  0  0  0
 20 21  1  0  0  0  0
 21 22  1  0  0  0  0
 22 26  1  0  0  0  0
 22 18  1  0  0  0  0
 23 26  2  0  0  0  0
 24 35  1  0  0  0  0
 24 27  1  0  0  0  0
 25 21  2  0  0  0  0
 25 23  1  0  0  0  0
 27 20  1  0  0  0  0
 28 25  1  0  0  0  0
 31 33  1  0  0  0  0
 31 35  2  0  0  0  0
 32 29  1  0  0  0  0
 32 30  1  0  0  0  0
 33 34  2  0  0  0  0
 34 32  1  0  0  0  0
 35 29  1  0  0  0  0
 36  1  1  0  0  0  0
 37 36  1  0  0  0  0
 38 37  2  0  0  0  0
 39 38  1  0  0  0  0
 40 39  1  0  0  0  0
 41 40  1  0  0  0  0
M  END
>  <MODEL>
5

>  <REMARK>
 VINA RESULT:      -6.6      2.152      5.655
  Name = 
  15 active torsions:
  status: ('A' for Active; 'I' for Inactive)
    1  A    between atoms: C_1  and  O_29
    2  A    between atoms: C_1  and  C_38
    3  A    between atoms: C_4  and  N_20
    4  A    between atoms: C_4  and  C_22
    5  A    between atoms: C_6  and  O_24
    6  A    between atoms: C_7  and  C_14
    7  A    between atoms: C_7  and  C_22
    8  A    between atoms: C_7  and  O_24
    9  A    between atoms: C_8  and  N_18
   10  A    between atoms: C_8  and  C_21
   11  A    between atoms: C_14  and  C_19
   12  A    between atoms: N_18  and  C_19
   13  A    between atoms: C_19  and  C_37
   14  A    between atoms: C_21  and  C_27
   15  A    between atoms: N_26  and  C_41
                            x       y       z     vdW  Elec       q    Type
                         _______ _______ _______ _____ _____    ______ ____

>  <TORSDO>
F 15

$$$$
=
 OpenBabel11042418583D

 41 45  0  0  1  0  0  0  0  0999 V2000
  188.7130  177.0230  142.8550 C   0  0  2  0  0  3  0  0  0  0  0  0
  188.3740  177.7790  144.1320 C   0  0  0  0  0  2  0  0  0  0  0  0
  187.9170  176.8180  145.2240 C   0  0  1  0  0  3  0  0  0  0  0  0
  190.4370  174.7580  147.2380 C   0  0  0  0  0  3  0  0  0  0  0  0
  189.7270  177.4350  146.8520 C   0  0  0  0  0  3  0  0  0  0  0  0
  191.1220  175.7660  147.9180 C   0  0  0  0  0  3  0  0  0  0  0  0
  189.3960  175.0870  146.3620 C   0  0  0  0  0  3  0  0  0  0  0  0
  190.7690  177.1050  147.7250 C   0  0  0  0  0  3  0  0  0  0  0  0
  189.0330  176.4290  146.1660 C   0  0  0  0  0  0  0  0  0  0  0  0
  186.5160  176.6640  147.0550 O   0  0  0  0  0  1  0  0  0  0  0  0
  186.7150  177.3390  145.8950 N   0  0  0  0  0  0  0  0  0  0  0  0
  185.5470  177.1150  145.0510 C   0  0  0  0  0  2  0  0  0  0  0  0
  184.7940  178.4180  144.8300 C   0  0  0  0  0  2  0  0  0  0  0  0
  185.0230  177.6390  142.4950 C   0  0  0  0  0  2  0  0  0  0  0  0
  183.6960  178.3560  142.6270 C   0  0  0  0  0  2  0  0  0  0  0  0
  184.9050  178.8600  143.3820 C   0  0  0  0  0  3  0  0  0  0  0  0
  188.1230  175.6180  142.8910 C   0  0  0  0  0  2  0  0  0  0  0  0
  189.1720  174.5530  142.6120 C   0  0  0  0  0  2  0  0  0  0  0  0
  190.7200  170.9410  139.2270 N   0  0  0  0  0  0  0  0  0  0  0  0
  190.3180  171.8540  141.4840 C   0  0  0  0  0  2  0  0  0  0  0  0
  189.5250  172.8990  140.7720 C   0  0  0  0  0  0  0  0  0  0  0  0
  188.9920  174.0230  141.2700 N   0  0  0  0  0  0  0  0  0  0  0  0
  188.4170  173.9160  139.1720 C   0  0  0  0  0  3  0  0  0  0  0  0
  192.2140  170.2190  140.8980 N   0  0  0  0  0  2  0  0  0  0  0  0
  189.1840  172.8020  139.4640 C   0  0  0  0  0  0  0  0  0  0  0  0
  188.3310  174.6520  140.3070 N   0  0  0  0  0  0  0  0  0  0  0  0
  191.0750  170.9920  140.4880 C   0  0  0  0  0  0  0  0  0  0  0  0
  189.5700  171.6370  138.6250 C   0  0  0  0  0  2  0  0  0  0  0  0
  193.8290  171.1520  142.5900 C   0  0  0  0  0  2  0  0  0  0  0  0
  195.6120  171.7000  144.2670 C   0  0  0  0  0  1  0  0  0  0  0  0
  192.4470  169.1490  143.0610 C   0  0  0  0  0  3  0  0  0  0  0  0
  194.5080  170.8550  143.8550 N   0  0  0  0  0  0  0  0  0  0  0  0
  193.0580  169.0260  144.3920 C   0  0  0  0  0  3  0  0  0  0  0  0
  194.0410  169.8440  144.7550 C   0  0  0  0  0  3  0  0  0  0  0  0
  192.8120  170.1080  142.1990 C   0  0  0  0  0  0  0  0  0  0  0  0
  190.1200  176.9900  142.6710 O   0  0  0  0  0  0  0  0  0  0  0  0
  190.9510  177.8890  143.3360 C   0  0  0  0  0  3  0  0  0  0  0  0
  191.9830  177.4670  144.0580 C   0  0  0  0  0  3  0  0  0  0  0  0
  192.2990  176.0180  144.1970 C   0  0  0  0  0  2  0  0  0  0  0  0
  193.6390  175.8660  144.5640 O   0  0  0  0  0  0  0  0  0  0  0  0
  193.8550  176.8420  145.5340 C   0  0  0  0  0  1  0  0  0  0  0  0
  1 17  1  1  0  0  0
  1  2  1  0  0  0  0
  3  2  1  6  0  0  0
  3 11  1  0  0  0  0
  3  9  1  0  0  0  0
  4  6  1  0  0  0  0
  5  8  1  0  0  0  0
  7  4  2  0  0  0  0
  8  6  2  0  0  0  0
  9  7  1  0  0  0  0
  9  5  2  0  0  0  0
 11 10  1  0  0  0  0
 12 11  1  0  0  0  0
 13 12  1  0  0  0  0
 14 15  1  0  0  0  0
 14 16  1  0  0  0  0
 15 16  1  0  0  0  0
 16 13  1  0  0  0  0
 18 17  1  0  0  0  0
 19 27  2  0  0  0  0
 21 22  1  0  0  0  0
 21 20  1  0  0  0  0
 22 18  1  0  0  0  0
 23 25  1  0  0  0  0
 23 26  2  0  0  0  0
 24 35  1  0  0  0  0
 25 21  2  0  0  0  0
 26 22  1  0  0  0  0
 27 24  1  0  0  0  0
 27 20  1  0  0  0  0
 28 19  1  0  0  0  0
 28 25  1  0  0  0  0
 29 32  1  0  0  0  0
 31 33  1  0  0  0  0
 32 30  1  0  0  0  0
 32 34  1  0  0  0  0
 33 34  2  0  0  0  0
 35 29  1  0  0  0  0
 35 31  2  0  0  0  0
 36  1  1  0  0  0  0
 36 37  1  0  0  0  0
 37 38  2  0  0  0  0
 38 39  1  0  0  0  0
 39 40  1  0  0  0  0
 40 41  1  0  0  0  0
M  END
>  <MODEL>
6

>  <REMARK>
 VINA RESULT:      -6.6      2.261      5.708
  Name = 
  15 active torsions:
  status: ('A' for Active; 'I' for Inactive)
    1  A    between atoms: C_1  and  O_29
    2  A    between atoms: C_1  and  C_38
    3  A    between atoms: C_4  and  N_20
    4  A    between atoms: C_4  and  C_22
    5  A    between atoms: C_6  and  O_24
    6  A    between atoms: C_7  and  C_14
    7  A    between atoms: C_7  and  C_22
    8  A    between atoms: C_7  and  O_24
    9  A    between atoms: C_8  and  N_18
   10  A    between atoms: C_8  and  C_21
   11  A    between atoms: C_14  and  C_19
   12  A    between atoms: N_18  and  C_19
   13  A    between atoms: C_19  and  C_37
   14  A    between atoms: C_21  and  C_27
   15  A    between atoms: N_26  and  C_41
                            x       y       z     vdW  Elec       q    Type
                         _______ _______ _______ _____ _____    ______ ____

>  <TORSDO>
F 15

$$$$
=
 OpenBabel11042418583D

 41 45  0  0  1  0  0  0  0  0999 V2000
  189.6120  177.2380  144.7350 C   0  0  2  0  0  3  0  0  0  0  0  0
  188.4080  177.7250  143.9420 C   0  0  0  0  0  2  0  0  0  0  0  0
  187.1920  176.8440  144.2080 C   0  0  1  0  0  3  0  0  0  0  0  0
  185.8550  177.4910  147.7350 C   0  0  0  0  0  3  0  0  0  0  0  0
  185.2440  178.1610  145.0890 C   0  0  0  0  0  3  0  0  0  0  0  0
  184.7550  178.3050  147.4570 C   0  0  0  0  0  3  0  0  0  0  0  0
  186.6520  177.0110  146.6890 C   0  0  0  0  0  3  0  0  0  0  0  0
  184.4500  178.6420  146.1350 C   0  0  0  0  0  3  0  0  0  0  0  0
  186.3490  177.3410  145.3590 C   0  0  0  0  0  0  0  0  0  0  0  0
  186.7610  175.4000  142.4570 O   0  0  0  0  0  1  0  0  0  0  0  0
  186.4410  176.6170  142.9630 N   0  0  0  0  0  0  0  0  0  0  0  0
  186.8180  177.6180  141.9730 C   0  0  0  0  0  2  0  0  0  0  0  0
  185.6240  178.4940  141.6220 C   0  0  0  0  0  2  0  0  0  0  0  0
  183.1800  178.4880  141.9870 C   0  0  0  0  0  2  0  0  0  0  0  0
  183.4370  178.2890  140.5090 C   0  0  0  0  0  2  0  0  0  0  0  0
  184.3600  177.6600  141.5280 C   0  0  0  0  0  3  0  0  0  0  0  0
  190.8410  178.0830  144.4190 C   0  0  0  0  0  2  0  0  0  0  0  0
  191.5570  177.6010  143.1670 C   0  0  0  0  0  2  0  0  0  0  0  0
  193.5680  172.8760  142.4380 N   0  0  0  0  0  0  0  0  0  0  0  0
  192.2750  174.8730  141.7820 C   0  0  0  0  0  2  0  0  0  0  0  0
  192.9080  175.5070  142.9780 C   0  0  0  0  0  0  0  0  0  0  0  0
  192.6340  176.6950  143.5330 N   0  0  0  0  0  0  0  0  0  0  0  0
  194.2860  175.8290  144.6570 C   0  0  0  0  0  3  0  0  0  0  0  0
  191.7570  172.4850  140.9840 N   0  0  0  0  0  2  0  0  0  0  0  0
  193.9350  174.9400  143.6570 C   0  0  0  0  0  0  0  0  0  0  0  0
  193.4530  176.8940  144.5580 N   0  0  0  0  0  0  0  0  0  0  0  0
  192.5710  173.3840  141.7530 C   0  0  0  0  0  0  0  0  0  0  0  0
  194.5260  173.6340  143.2610 C   0  0  0  0  0  2  0  0  0  0  0  0
  190.8680  173.1540  138.7260 C   0  0  0  0  0  2  0  0  0  0  0  0
  189.7960  174.1360  136.6810 C   0  0  0  0  0  1  0  0  0  0  0  0
  189.3640  172.6660  140.6350 C   0  0  0  0  0  3  0  0  0  0  0  0
  189.6620  173.6020  138.0220 N   0  0  0  0  0  0  0  0  0  0  0  0
  188.1910  172.9660  139.8020 C   0  0  0  0  0  3  0  0  0  0  0  0
  188.3480  173.4150  138.5610 C   0  0  0  0  0  3  0  0  0  0  0  0
  190.6140  172.7760  140.1640 C   0  0  0  0  0  0  0  0  0  0  0  0
  189.8450  175.8640  144.4660 O   0  0  0  0  0  0  0  0  0  0  0  0
  189.3110  174.8730  145.2870 C   0  0  0  0  0  3  0  0  0  0  0  0
  189.9800  174.4210  146.3430 C   0  0  0  0  0  3  0  0  0  0  0  0
  191.3280  174.9440  146.6960 C   0  0  0  0  0  2  0  0  0  0  0  0
  191.3420  175.3280  148.0400 O   0  0  0  0  0  0  0  0  0  0  0  0
  191.3810  176.7200  148.0110 C   0  0  0  0  0  1  0  0  0  0  0  0
  1  2  1  6  0  0  0
  3  2  1  6  0  0  0
  3  9  1  0  0  0  0
  5  9  2  0  0  0  0
  5  8  1  0  0  0  0
  6  4  1  0  0  0  0
  7  4  2  0  0  0  0
  8  6  2  0  0  0  0
  9  7  1  0  0  0  0
 10 11  1  0  0  0  0
 11  3  1  0  0  0  0
 12 11  1  0  0  0  0
 13 12  1  0  0  0  0
 15 16  1  0  0  0  0
 15 14  1  0  0  0  0
 16 13  1  0  0  0  0
 16 14  1  0  0  0  0
 17  1  1  0  0  0  0
 18 22  1  0  0  0  0
 18 17  1  0  0  0  0
 19 28  1  0  0  0  0
 20 21  1  0  0  0  0
 21 22  1  0  0  0  0
 21 25  2  0  0  0  0
 22 26  1  0  0  0  0
 24 27  1  0  0  0  0
 25 23  1  0  0  0  0
 26 23  2  0  0  0  0
 27 20  1  0  0  0  0
 27 19  2  0  0  0  0
 28 25  1  0  0  0  0
 29 35  1  0  0  0  0
 30 32  1  0  0  0  0
 32 34  1  0  0  0  0
 32 29  1  0  0  0  0
 33 31  1  0  0  0  0
 34 33  2  0  0  0  0
 35 31  2  0  0  0  0
 35 24  1  0  0  0  0
 36  1  1  0  0  0  0
 36 37  1  0  0  0  0
 37 38  2  0  0  0  0
 38 39  1  0  0  0  0
 39 40  1  0  0  0  0
 41 40  1  0  0  0  0
M  END
>  <MODEL>
7

>  <REMARK>
 VINA RESULT:      -6.5      2.278      6.311
  Name = 
  15 active torsions:
  status: ('A' for Active; 'I' for Inactive)
    1  A    between atoms: C_1  and  O_29
    2  A    between atoms: C_1  and  C_38
    3  A    between atoms: C_4  and  N_20
    4  A    between atoms: C_4  and  C_22
    5  A    between atoms: C_6  and  O_24
    6  A    between atoms: C_7  and  C_14
    7  A    between atoms: C_7  and  C_22
    8  A    between atoms: C_7  and  O_24
    9  A    between atoms: C_8  and  N_18
   10  A    between atoms: C_8  and  C_21
   11  A    between atoms: C_14  and  C_19
   12  A    between atoms: N_18  and  C_19
   13  A    between atoms: C_19  and  C_37
   14  A    between atoms: C_21  and  C_27
   15  A    between atoms: N_26  and  C_41
                            x       y       z     vdW  Elec       q    Type
                         _______ _______ _______ _____ _____    ______ ____

>  <TORSDO>
F 15

$$$$
=
 OpenBabel11042418583D

 41 45  0  0  1  0  0  0  0  0999 V2000
  188.0550  175.3990  142.7860 C   0  0  2  0  0  3  0  0  0  0  0  0
  188.9340  175.6670  143.9980 C   0  0  0  0  0  2  0  0  0  0  0  0
  188.8200  177.1240  144.4370 C   0  0  1  0  0  3  0  0  0  0  0  0
  185.4870  178.5300  145.6870 C   0  0  0  0  0  3  0  0  0  0  0  0
  187.4290  176.6800  146.4800 C   0  0  0  0  0  3  0  0  0  0  0  0
  185.3320  177.8240  146.8810 C   0  0  0  0  0  3  0  0  0  0  0  0
  186.6140  178.3110  144.8860 C   0  0  0  0  0  3  0  0  0  0  0  0
  186.3010  176.8980  147.2780 C   0  0  0  0  0  3  0  0  0  0  0  0
  187.5940  177.3870  145.2800 C   0  0  0  0  0  0  0  0  0  0  0  0
  190.7110  178.4300  144.2020 O   0  0  0  0  0  1  0  0  0  0  0  0
  190.0810  177.5760  145.0470 N   0  0  0  0  0  0  0  0  0  0  0  0
  190.9620  176.4340  145.2550 C   0  0  0  0  0  2  0  0  0  0  0  0
  191.4340  176.3840  146.7010 C   0  0  0  0  0  2  0  0  0  0  0  0
  193.1810  174.7290  146.1370 C   0  0  0  0  0  2  0  0  0  0  0  0
  193.4620  175.9960  145.3590 C   0  0  0  0  0  2  0  0  0  0  0  0
  192.9190  176.0790  146.7680 C   0  0  0  0  0  3  0  0  0  0  0  0
  188.5530  174.1770  142.0210 C   0  0  0  0  0  2  0  0  0  0  0  0
  190.0460  174.2490  141.7460 C   0  0  0  0  0  2  0  0  0  0  0  0
  193.7120  173.6630  138.1230 N   0  0  0  0  0  0  0  0  0  0  0  0
  192.8690  173.8070  140.4380 C   0  0  0  0  0  2  0  0  0  0  0  0
  191.5210  173.6760  139.8110 C   0  0  0  0  0  0  0  0  0  0  0  0
  190.3180  173.8120  140.3850 N   0  0  0  0  0  0  0  0  0  0  0  0
  189.9750  173.2590  138.3070 C   0  0  0  0  0  3  0  0  0  0  0  0
  195.2120  174.5650  139.6990 N   0  0  0  0  0  2  0  0  0  0  0  0
  191.3420  173.3300  138.5120 C   0  0  0  0  0  0  0  0  0  0  0  0
  189.3760  173.5750  139.4810 N   0  0  0  0  0  0  0  0  0  0  0  0
  193.9340  173.9980  139.3720 C   0  0  0  0  0  0  0  0  0  0  0  0
  192.4820  173.0450  137.6000 C   0  0  0  0  0  2  0  0  0  0  0  0
  196.2880  173.9880  141.9000 C   0  0  0  0  0  2  0  0  0  0  0  0
  197.0230  173.5920  144.2660 C   0  0  0  0  0  1  0  0  0  0  0  0
  195.6920  176.3180  141.3040 C   0  0  0  0  0  3  0  0  0  0  0  0
  196.5960  174.5150  143.2330 N   0  0  0  0  0  0  0  0  0  0  0  0
  196.1880  176.7900  142.6040 C   0  0  0  0  0  3  0  0  0  0  0  0
  196.6120  175.9200  143.5150 C   0  0  0  0  0  3  0  0  0  0  0  0
  195.7020  175.0210  140.9710 C   0  0  0  0  0  0  0  0  0  0  0  0
  188.0120  176.5490  141.9550 O   0  0  0  0  0  0  0  0  0  0  0  0
  187.4420  176.4940  140.6850 C   0  0  0  0  0  3  0  0  0  0  0  0
  186.4400  177.2970  140.3450 C   0  0  0  0  0  3  0  0  0  0  0  0
  185.8730  178.2870  141.3030 C   0  0  0  0  0  2  0  0  0  0  0  0
  184.5210  178.4920  141.0170 O   0  0  0  0  0  0  0  0  0  0  0  0
  183.8670  178.2920  142.2300 C   0  0  0  0  0  1  0  0  0  0  0  0
  1 17  1  6  0  0  0
  1  2  1  0  0  0  0
  3  2  1  1  0  0  0
  3 11  1  0  0  0  0
  3  9  1  0  0  0  0
  4  6  1  0  0  0  0
  5  8  1  0  0  0  0
  6  8  2  0  0  0  0
  7  9  1  0  0  0  0
  7  4  2  0  0  0  0
  9  5  2  0  0  0  0
 10 11  1  0  0  0  0
 11 12  1  0  0  0  0
 12 13  1  0  0  0  0
 13 16  1  0  0  0  0
 14 16  1  0  0  0  0
 15 14  1  0  0  0  0
 15 16  1  0  0  0  0
 18 17  1  0  0  0  0
 19 27  2  0  0  0  0
 21 22  1  0  0  0  0
 21 20  1  0  0  0  0
 22 18  1  0  0  0  0
 23 25  1  0  0  0  0
 23 26  2  0  0  0  0
 24 35  1  0  0  0  0
 25 21  2  0  0  0  0
 26 22  1  0  0  0  0
 27 24  1  0  0  0  0
 27 20  1  0  0  0  0
 28 19  1  0  0  0  0
 28 25  1  0  0  0  0
 29 32  1  0  0  0  0
 31 33  1  0  0  0  0
 32 34  1  0  0  0  0
 32 30  1  0  0  0  0
 33 34  2  0  0  0  0
 35 31  2  0  0  0  0
 35 29  1  0  0  0  0
 36  1  1  0  0  0  0
 37 36  1  0  0  0  0
 38 37  2  0  0  0  0
 38 39  1  0  0  0  0
 40 39  1  0  0  0  0
 40 41  1  0  0  0  0
M  END
>  <MODEL>
8

>  <REMARK>
 VINA RESULT:      -6.4      2.304      2.861
  Name = 
  15 active torsions:
  status: ('A' for Active; 'I' for Inactive)
    1  A    between atoms: C_1  and  O_29
    2  A    between atoms: C_1  and  C_38
    3  A    between atoms: C_4  and  N_20
    4  A    between atoms: C_4  and  C_22
    5  A    between atoms: C_6  and  O_24
    6  A    between atoms: C_7  and  C_14
    7  A    between atoms: C_7  and  C_22
    8  A    between atoms: C_7  and  O_24
    9  A    between atoms: C_8  and  N_18
   10  A    between atoms: C_8  and  C_21
   11  A    between atoms: C_14  and  C_19
   12  A    between atoms: N_18  and  C_19
   13  A    between atoms: C_19  and  C_37
   14  A    between atoms: C_21  and  C_27
   15  A    between atoms: N_26  and  C_41
                            x       y       z     vdW  Elec       q    Type
                         _______ _______ _______ _____ _____    ______ ____

>  <TORSDO>
F 15

$$$$
=
 OpenBabel11042418583D

 41 45  0  0  1  0  0  0  0  0999 V2000
  191.2650  174.5940  141.9740 C   0  0  2  0  0  3  0  0  0  0  0  0
  191.0240  175.0600  143.4020 C   0  0  0  0  0  2  0  0  0  0  0  0
  191.4430  173.9850  144.4010 C   0  0  1  0  0  3  0  0  0  0  0  0
  195.0160  173.5220  145.6900 C   0  0  0  0  0  3  0  0  0  0  0  0
  193.0940  175.5420  145.4750 C   0  0  0  0  0  3  0  0  0  0  0  0
  195.3020  174.8090  146.1500 C   0  0  0  0  0  3  0  0  0  0  0  0
  193.7680  173.2430  145.1220 C   0  0  0  0  0  3  0  0  0  0  0  0
  194.3430  175.8200  146.0410 C   0  0  0  0  0  3  0  0  0  0  0  0
  192.7980  174.2520  145.0140 C   0  0  0  0  0  0  0  0  0  0  0  0
  189.7900  172.5490  145.1390 O   0  0  0  0  0  1  0  0  0  0  0  0
  190.3720  173.7510  145.3820 N   0  0  0  0  0  0  0  0  0  0  0  0
  189.3430  174.7730  145.2380 C   0  0  0  0  0  2  0  0  0  0  0  0
  188.9440  175.3200  146.6010 C   0  0  0  0  0  2  0  0  0  0  0  0
  190.1130  177.4270  146.0480 C   0  0  0  0  0  2  0  0  0  0  0  0
  189.2660  177.6660  147.2790 C   0  0  0  0  0  2  0  0  0  0  0  0
  189.9610  176.3370  147.0870 C   0  0  0  0  0  3  0  0  0  0  0  0
  190.7930  173.1560  141.7910 C   0  0  0  0  0  2  0  0  0  0  0  0
  189.2830  173.0700  141.6290 C   0  0  0  0  0  2  0  0  0  0  0  0
  186.7040  176.4280  138.6330 N   0  0  0  0  0  0  0  0  0  0  0  0
  187.9610  175.7450  140.6440 C   0  0  0  0  0  2  0  0  0  0  0  0
  188.3010  174.5260  139.8510 C   0  0  0  0  0  0  0  0  0  0  0  0
  188.9140  173.4080  140.2640 N   0  0  0  0  0  0  0  0  0  0  0  0
  188.5490  173.1870  138.1280 C   0  0  0  0  0  3  0  0  0  0  0  0
  186.1160  177.5350  140.6260 N   0  0  0  0  0  2  0  0  0  0  0  0
  188.0600  174.4190  138.5220 C   0  0  0  0  0  0  0  0  0  0  0  0
  189.0570  172.5860  139.2320 N   0  0  0  0  0  0  0  0  0  0  0  0
  186.9150  176.5740  139.9190 C   0  0  0  0  0  0  0  0  0  0  0  0
  187.4370  175.5180  137.7360 C   0  0  0  0  0  2  0  0  0  0  0  0
  184.8100  178.1200  142.6980 C   0  0  0  0  0  2  0  0  0  0  0  0
  183.7450  179.0500  144.7700 C   0  0  0  0  0  1  0  0  0  0  0  0
  187.2820  177.9330  142.7150 C   0  0  0  0  0  3  0  0  0  0  0  0
  184.9420  178.6350  144.0640 N   0  0  0  0  0  0  0  0  0  0  0  0
  187.3110  178.2890  144.1400 C   0  0  0  0  0  3  0  0  0  0  0  0
  186.1890  178.6250  144.7690 C   0  0  0  0  0  3  0  0  0  0  0  0
  186.1370  177.8790  142.0210 C   0  0  0  0  0  0  0  0  0  0  0  0
  192.6390  174.7340  141.6460 O   0  0  0  0  0  0  0  0  0  0  0  0
  193.2990  175.9480  141.8260 C   0  0  0  0  0  3  0  0  0  0  0  0
  194.6010  175.9910  142.0850 C   0  0  0  0  0  3  0  0  0  0  0  0
  195.4170  174.7500  142.1990 C   0  0  0  0  0  2  0  0  0  0  0  0
  196.5790  175.0210  142.9260 O   0  0  0  0  0  0  0  0  0  0  0  0
  196.7560  176.3980  142.8130 C   0  0  0  0  0  1  0  0  0  0  0  0
  1 17  1  1  0  0  0
  1  2  1  0  0  0  0
  3  2  1  1  0  0  0
  3  9  1  0  0  0  0
  3 11  1  0  0  0  0
  4  6  1  0  0  0  0
  5  8  1  0  0  0  0
  7  4  2  0  0  0  0
  8  6  2  0  0  0  0
  9  7  1  0  0  0  0
  9  5  2  0  0  0  0
 10 11  1  0  0  0  0
 12 11  1  0  0  0  0
 12 13  1  0  0  0  0
 13 16  1  0  0  0  0
 14 16  1  0  0  0  0
 14 15  1  0  0  0  0
 16 15  1  0  0  0  0
 18 17  1  0  0  0  0
 19 27  2  0  0  0  0
 21 22  1  0  0  0  0
 21 20  1  0  0  0  0
 22 18  1  0  0  0  0
 23 25  1  0  0  0  0
 23 26  2  0  0  0  0
 24 35  1  0  0  0  0
 25 21  2  0  0  0  0
 26 22  1  0  0  0  0
 27 24  1  0  0  0  0
 27 20  1  0  0  0  0
 28 25  1  0  0  0  0
 28 19  1  0  0  0  0
 29 32  1  0  0  0  0
 31 33  1  0  0  0  0
 32 34  1  0  0  0  0
 32 30  1  0  0  0  0
 33 34  2  0  0  0  0
 35 29  1  0  0  0  0
 35 31  2  0  0  0  0
 36 37  1  0  0  0  0
 36  1  1  0  0  0  0
 37 38  2  0  0  0  0
 38 39  1  0  0  0  0
 39 40  1  0  0  0  0
 41 40  1  0  0  0  0
M  END
>  <MODEL>
9

>  <REMARK>
 VINA RESULT:      -6.4      2.850      7.814
  Name = 
  15 active torsions:
  status: ('A' for Active; 'I' for Inactive)
    1  A    between atoms: C_1  and  O_29
    2  A    between atoms: C_1  and  C_38
    3  A    between atoms: C_4  and  N_20
    4  A    between atoms: C_4  and  C_22
    5  A    between atoms: C_6  and  O_24
    6  A    between atoms: C_7  and  C_14
    7  A    between atoms: C_7  and  C_22
    8  A    between atoms: C_7  and  O_24
    9  A    between atoms: C_8  and  N_18
   10  A    between atoms: C_8  and  C_21
   11  A    between atoms: C_14  and  C_19
   12  A    between atoms: N_18  and  C_19
   13  A    between atoms: C_19  and  C_37
   14  A    between atoms: C_21  and  C_27
   15  A    between atoms: N_26  and  C_41
                            x       y       z     vdW  Elec       q    Type
                         _______ _______ _______ _____ _____    ______ ____

>  <TORSDO>
F 15

$$$$
