=
 OpenBabel11042417173D

 31 35  0  0  1  0  0  0  0  0999 V2000
  189.3320  174.4320  142.1930 N   0  0  1  0  0  0  0  0  0  0  0  0
  189.4560  173.0450  142.6840 C   0  0  1  0  0  3  0  0  0  0  0  0
  188.2010  175.0650  139.4330 C   0  0  0  0  0  3  0  0  0  0  0  0
  186.9510  177.0260  140.8470 S   0  0  0  0  0  0  0  0  0  0  0  0
  187.7720  175.4580  140.6360 C   0  0  0  0  0  0  0  0  0  0  0  0
  189.1280  172.7860  140.2620 C   0  0  0  0  0  2  0  0  0  0  0  0
  190.0000  173.3880  141.3690 C   0  0  1  0  0  3  0  0  0  0  0  0
  187.2850  175.4470  142.9540 C   0  0  0  0  0  3  0  0  0  0  0  0
  187.9170  174.6380  141.8790 C   0  0  2  0  0  3  0  0  0  0  0  0
  186.7860  176.6230  142.5880 C   0  0  0  0  0  0  0  0  0  0  0  0
  188.8900  173.7870  139.1750 C   0  0  0  0  0  0  0  0  0  0  0  0
  189.2820  173.5290  138.0090 O   0  0  0  0  0  0  0  0  0  0  0  0
  185.0700  177.9190  145.7010 C   0  0  0  0  0  3  0  0  0  0  0  0
  185.6780  177.0580  144.7830 C   0  0  0  0  0  3  0  0  0  0  0  0
  186.1480  177.5430  143.5530 C   0  0  0  0  0  0  0  0  0  0  0  0
  184.9260  179.2760  145.3970 C   0  0  0  0  0  3  0  0  0  0  0  0
  185.9970  178.9080  143.2580 C   0  0  0  0  0  3  0  0  0  0  0  0
  185.3900  179.7690  144.1750 C   0  0  0  0  0  3  0  0  0  0  0  0
  192.3440  171.7550  144.5310 O   0  0  0  0  0  1  0  0  0  0  0  0
  191.3750  170.9160  142.6390 O   0  0  0  0  0  0  0  0  0  0  0  0
  190.5230  172.9660  143.6830 N   0  0  0  0  0  0  0  0  0  0  0  0
  191.4550  171.8710  143.6460 C   0  0  0  0  0  0  0  0  0  0  0  0
  189.6540  173.8150  145.8150 C   0  0  0  0  0  3  0  0  0  0  0  0
  191.5270  174.9540  144.7990 C   0  0  0  0  0  0  0  0  0  0  0  0
  190.6770  175.7120  146.8880 C   0  0  0  0  0  0  0  0  0  0  0  0
  190.5670  173.9230  144.7600 C   0  0  0  0  0  0  0  0  0  0  0  0
  189.7050  174.7110  146.8830 C   0  0  0  0  0  0  0  0  0  0  0  0
  191.5540  175.8130  145.8540 N   0  0  0  0  0  0  0  0  0  0  0  0
  190.7450  176.5910  147.9170 F   0  0  0  0  0  0  0  0  0  0  0  0
  188.8200  174.6020  147.9040 F   0  0  0  0  0  0  0  0  0  0  0  0
  192.4970  175.1580  143.6870 C   0  0  0  0  0  1  0  0  0  0  0  0
  1  2  1  0  0  0  0
  2 21  1  0  0  0  0
  3  5  2  0  0  0  0
  4 10  1  0  0  0  0
  5  4  1  0  0  0  0
  5  9  1  0  0  0  0
  6  7  1  0  0  0  0
  7  1  1  0  0  0  0
  7  2  1  0  0  0  0
  9  1  1  0  0  0  0
  9  8  1  0  0  0  0
 10  8  2  0  0  0  0
 10 15  1  0  0  0  0
 11  3  1  0  0  0  0
 11  6  1  0  0  0  0
 12 11  2  0  0  0  0
 14 13  2  0  0  0  0
 15 14  1  0  0  0  0
 16 13  1  0  0  0  0
 17 15  2  0  0  0  0
 17 18  1  0  0  0  0
 18 16  2  0  0  0  0
 20 22  2  0  0  0  0
 21 26  1  0  0  0  0
 22 21  1  0  0  0  0
 22 19  1  0  0  0  0
 23 27  1  0  0  0  0
 24 28  2  0  0  0  0
 25 29  1  0  0  0  0
 26 24  1  0  0  0  0
 26 23  2  0  0  0  0
 27 25  2  0  0  0  0
 27 30  1  0  0  0  0
 28 25  1  0  0  0  0
 31 24  1  0  0  0  0
M  END
>  <MODEL>
1

>  <REMARK>
 VINA RESULT:      -8.0      0.000      0.000
  Name = 
  3 active torsions:
  status: ('A' for Active; 'I' for Inactive)
    1  A    between atoms: C_2  and  N_16
    2  A    between atoms: C_11  and  N_16
    3  A    between atoms: C_21  and  C_26
                            x       y       z     vdW  Elec       q    Type
                         _______ _______ _______ _____ _____    ______ ____

>  <TORSDO>
F 3

$$$$
=
 OpenBabel11042417173D

 31 35  0  0  1  0  0  0  0  0999 V2000
  190.7130  175.3880  143.7850 N   0  0  1  0  0  0  0  0  0  0  0  0
  191.4190  174.4210  144.6490 C   0  0  1  0  0  3  0  0  0  0  0  0
  189.3610  174.5330  141.1890 C   0  0  0  0  0  3  0  0  0  0  0  0
  187.4330  176.2120  142.1200 S   0  0  0  0  0  0  0  0  0  0  0  0
  188.8330  175.1180  142.2670 C   0  0  0  0  0  0  0  0  0  0  0  0
  191.1790  173.2330  142.5120 C   0  0  0  0  0  2  0  0  0  0  0  0
  191.7400  174.4700  143.2220 C   0  0  1  0  0  3  0  0  0  0  0  0
  188.4460  175.7230  144.5240 C   0  0  0  0  0  3  0  0  0  0  0  0
  189.3360  174.9050  143.6600 C   0  0  2  0  0  3  0  0  0  0  0  0
  187.4910  176.4070  143.9030 C   0  0  0  0  0  0  0  0  0  0  0  0
  190.5190  173.6200  141.2250 C   0  0  0  0  0  0  0  0  0  0  0  0
  190.9580  173.1470  140.1460 O   0  0  0  0  0  0  0  0  0  0  0  0
  184.9210  177.5930  146.4150 C   0  0  0  0  0  3  0  0  0  0  0  0
  185.8190  176.7760  145.7220 C   0  0  0  0  0  3  0  0  0  0  0  0
  186.5460  177.2800  144.6320 C   0  0  0  0  0  0  0  0  0  0  0  0
  184.7400  178.9220  146.0240 C   0  0  0  0  0  3  0  0  0  0  0  0
  186.3550  178.6170  144.2470 C   0  0  0  0  0  3  0  0  0  0  0  0
  185.4570  179.4340  144.9400 C   0  0  0  0  0  3  0  0  0  0  0  0
  192.9110  176.5760  147.2090 O   0  0  0  0  0  1  0  0  0  0  0  0
  190.7130  176.0160  146.9240 O   0  0  0  0  0  0  0  0  0  0  0  0
  192.4420  175.1140  145.4350 N   0  0  0  0  0  0  0  0  0  0  0  0
  192.0510  175.9270  146.5570 C   0  0  0  0  0  0  0  0  0  0  0  0
  194.4170  176.2160  144.4830 C   0  0  0  0  0  3  0  0  0  0  0  0
  194.6000  173.9020  145.1540 C   0  0  0  0  0  0  0  0  0  0  0  0
  196.4990  175.0270  144.2670 C   0  0  0  0  0  0  0  0  0  0  0  0
  193.8200  175.0680  145.0160 C   0  0  0  0  0  0  0  0  0  0  0  0
  195.7600  176.1990  144.1050 C   0  0  0  0  0  0  0  0  0  0  0  0
  195.9080  173.9140  144.7780 N   0  0  0  0  0  0  0  0  0  0  0  0
  197.8060  174.9900  143.9080 F   0  0  0  0  0  0  0  0  0  0  0  0
  196.3350  177.3140  143.5920 F   0  0  0  0  0  0  0  0  0  0  0  0
  194.0160  172.6300  145.6660 C   0  0  0  0  0  1  0  0  0  0  0  0
  1  2  1  0  0  0  0
  2 21  1  0  0  0  0
  3 11  1  0  0  0  0
  3  5  2  0  0  0  0
  4  5  1  0  0  0  0
  4 10  1  0  0  0  0
  5  9  1  0  0  0  0
  6  7  1  0  0  0  0
  7  1  1  0  0  0  0
  7  2  1  0  0  0  0
  9  1  1  0  0  0  0
  9  8  1  0  0  0  0
 10  8  2  0  0  0  0
 10 15  1  0  0  0  0
 11  6  1  0  0  0  0
 12 11  2  0  0  0  0
 14 13  2  0  0  0  0
 15 14  1  0  0  0  0
 16 13  1  0  0  0  0
 17 15  2  0  0  0  0
 17 18  1  0  0  0  0
 18 16  2  0  0  0  0
 21 22  1  0  0  0  0
 22 20  2  0  0  0  0
 22 19  1  0  0  0  0
 23 26  1  0  0  0  0
 24 31  1  0  0  0  0
 25 28  2  0  0  0  0
 26 24  2  0  0  0  0
 26 21  1  0  0  0  0
 27 25  1  0  0  0  0
 27 23  2  0  0  0  0
 28 24  1  0  0  0  0
 29 25  1  0  0  0  0
 30 27  1  0  0  0  0
M  END
>  <MODEL>
2

>  <REMARK>
 VINA RESULT:      -7.9      3.096      4.074
  Name = 
  3 active torsions:
  status: ('A' for Active; 'I' for Inactive)
    1  A    between atoms: C_2  and  N_16
    2  A    between atoms: C_11  and  N_16
    3  A    between atoms: C_21  and  C_26
                            x       y       z     vdW  Elec       q    Type
                         _______ _______ _______ _____ _____    ______ ____

>  <TORSDO>
F 3

$$$$
=
 OpenBabel11042417173D

 31 35  0  0  1  0  0  0  0  0999 V2000
  191.7680  175.2460  143.9970 N   0  0  1  0  0  0  0  0  0  0  0  0
  192.4170  175.5450  142.7050 C   0  0  1  0  0  3  0  0  0  0  0  0
  193.0800  175.9550  146.6570 C   0  0  0  0  0  3  0  0  0  0  0  0
  190.5330  176.7160  147.2410 S   0  0  0  0  0  0  0  0  0  0  0  0
  191.9030  176.3450  146.1610 C   0  0  0  0  0  0  0  0  0  0  0  0
  194.2390  175.7540  144.3410 C   0  0  0  0  0  2  0  0  0  0  0  0
  193.1740  174.8330  143.7360 C   0  0  1  0  0  3  0  0  0  0  0  0
  190.2220  176.9850  144.6190 C   0  0  0  0  0  3  0  0  0  0  0  0
  191.6330  176.5230  144.7000 C   0  0  2  0  0  3  0  0  0  0  0  0
  189.5790  177.1130  145.7740 C   0  0  0  0  0  0  0  0  0  0  0  0
  194.2580  175.6270  145.8330 C   0  0  0  0  0  0  0  0  0  0  0  0
  195.3110  175.2360  146.4000 O   0  0  0  0  0  0  0  0  0  0  0  0
  186.1520  178.3380  144.7370 C   0  0  0  0  0  3  0  0  0  0  0  0
  187.4870  177.9280  144.6790 C   0  0  0  0  0  3  0  0  0  0  0  0
  188.1650  177.5420  145.8450 C   0  0  0  0  0  0  0  0  0  0  0  0
  185.4820  178.3670  145.9630 C   0  0  0  0  0  3  0  0  0  0  0  0
  187.4820  177.5760  147.0720 C   0  0  0  0  0  3  0  0  0  0  0  0
  186.1480  177.9860  147.1300 C   0  0  0  0  0  3  0  0  0  0  0  0
  192.2970  173.6340  139.5820 O   0  0  0  0  0  0  0  0  0  0  0  0
  193.9600  175.0010  140.3500 O   0  0  0  0  0  1  0  0  0  0  0  0
  191.9340  174.6160  141.6810 N   0  0  0  0  0  0  0  0  0  0  0  0
  192.7220  174.3850  140.4990 C   0  0  0  0  0  0  0  0  0  0  0  0
  189.4900  174.8200  141.6130 C   0  0  0  0  0  3  0  0  0  0  0  0
  190.4530  172.6590  142.1000 C   0  0  0  0  0  0  0  0  0  0  0  0
  188.0890  172.8970  141.9800 C   0  0  0  0  0  0  0  0  0  0  0  0
  190.6260  174.0270  141.8100 C   0  0  0  0  0  0  0  0  0  0  0  0
  188.2160  174.2590  141.7000 C   0  0  0  0  0  0  0  0  0  0  0  0
  189.1980  172.1360  142.1770 N   0  0  0  0  0  0  0  0  0  0  0  0
  186.8600  172.3310  142.0660 F   0  0  0  0  0  0  0  0  0  0  0  0
  187.1190  175.0300  141.5070 F   0  0  0  0  0  0  0  0  0  0  0  0
  191.6150  171.7660  142.3700 C   0  0  0  0  0  1  0  0  0  0  0  0
  1  9  1  0  0  0  0
  2  7  1  0  0  0  0
  2  1  1  0  0  0  0
  5  3  2  0  0  0  0
  5  4  1  0  0  0  0
  6 11  1  0  0  0  0
  7  1  1  0  0  0  0
  7  6  1  0  0  0  0
  8  9  1  0  0  0  0
  8 10  2  0  0  0  0
  9  5  1  0  0  0  0
 10 15  1  0  0  0  0
 10  4  1  0  0  0  0
 11 12  2  0  0  0  0
 11  3  1  0  0  0  0
 13 16  1  0  0  0  0
 14 13  2  0  0  0  0
 14 15  1  0  0  0  0
 15 17  2  0  0  0  0
 16 18  2  0  0  0  0
 17 18  1  0  0  0  0
 19 22  2  0  0  0  0
 20 22  1  0  0  0  0
 21 26  1  0  0  0  0
 21  2  1  0  0  0  0
 22 21  1  0  0  0  0
 23 27  2  0  0  0  0
 23 26  1  0  0  0  0
 24 28  1  0  0  0  0
 24 31  1  0  0  0  0
 25 29  1  0  0  0  0
 25 28  2  0  0  0  0
 26 24  2  0  0  0  0
 27 25  1  0  0  0  0
 30 27  1  0  0  0  0
M  END
>  <MODEL>
3

>  <REMARK>
 VINA RESULT:      -7.9      3.100      5.433
  Name = 
  3 active torsions:
  status: ('A' for Active; 'I' for Inactive)
    1  A    between atoms: C_2  and  N_16
    2  A    between atoms: C_11  and  N_16
    3  A    between atoms: C_21  and  C_26
                            x       y       z     vdW  Elec       q    Type
                         _______ _______ _______ _____ _____    ______ ____

>  <TORSDO>
F 3

$$$$
=
 OpenBabel11042417173D

 31 35  0  0  1  0  0  0  0  0999 V2000
  190.0430  175.1820  143.7520 N   0  0  1  0  0  0  0  0  0  0  0  0
  190.6010  175.2470  142.3860 C   0  0  1  0  0  3  0  0  0  0  0  0
  191.5770  176.2410  146.1650 C   0  0  0  0  0  3  0  0  0  0  0  0
  189.1070  177.1930  146.7990 S   0  0  0  0  0  0  0  0  0  0  0  0
  190.3780  176.5990  145.6980 C   0  0  0  0  0  0  0  0  0  0  0  0
  192.5480  175.6310  143.8350 C   0  0  0  0  0  2  0  0  0  0  0  0
  191.4120  174.6730  143.4610 C   0  0  1  0  0  3  0  0  0  0  0  0
  188.6050  177.0610  144.1960 C   0  0  0  0  0  3  0  0  0  0  0  0
  190.0030  176.5580  144.2500 C   0  0  2  0  0  3  0  0  0  0  0  0
  188.0560  177.3960  145.3590 C   0  0  0  0  0  0  0  0  0  0  0  0
  192.6780  175.7380  145.3230 C   0  0  0  0  0  0  0  0  0  0  0  0
  193.7580  175.3970  145.8690 O   0  0  0  0  0  0  0  0  0  0  0  0
  184.4880  177.8360  146.5430 C   0  0  0  0  0  3  0  0  0  0  0  0
  185.8050  177.3770  146.4420 C   0  0  0  0  0  3  0  0  0  0  0  0
  186.6660  177.8910  145.4600 C   0  0  0  0  0  0  0  0  0  0  0  0
  184.0200  178.8140  145.6610 C   0  0  0  0  0  3  0  0  0  0  0  0
  186.1840  178.8720  144.5790 C   0  0  0  0  0  3  0  0  0  0  0  0
  184.8680  179.3320  144.6790 C   0  0  0  0  0  3  0  0  0  0  0  0
  188.2050  173.5030  140.2320 O   0  0  0  0  0  0  0  0  0  0  0  0
  188.1210  175.6530  141.0060 O   0  0  0  0  0  1  0  0  0  0  0  0
  190.0120  174.1910  141.5590 N   0  0  0  0  0  0  0  0  0  0  0  0
  188.7540  174.4190  140.9000 C   0  0  0  0  0  0  0  0  0  0  0  0
  191.7160  172.6890  140.6310 C   0  0  0  0  0  3  0  0  0  0  0  0
  190.2200  171.8280  142.3210 C   0  0  0  0  0  0  0  0  0  0  0  0
  191.9170  170.4240  141.4230 C   0  0  0  0  0  0  0  0  0  0  0  0
  190.6400  172.8950  141.5010 C   0  0  0  0  0  0  0  0  0  0  0  0
  192.3580  171.4520  140.5870 C   0  0  0  0  0  0  0  0  0  0  0  0
  190.8650  170.6320  142.2590 N   0  0  0  0  0  0  0  0  0  0  0  0
  192.5290  169.2150  141.3970 F   0  0  0  0  0  0  0  0  0  0  0  0
  193.4020  171.2570  139.7450 F   0  0  0  0  0  0  0  0  0  0  0  0
  189.0500  171.9610  143.2350 C   0  0  0  0  0  1  0  0  0  0  0  0
  1  9  1  0  0  0  0
  2  7  1  0  0  0  0
  2  1  1  0  0  0  0
  5  3  2  0  0  0  0
  5  4  1  0  0  0  0
  6 11  1  0  0  0  0
  7  1  1  0  0  0  0
  7  6  1  0  0  0  0
  8  9  1  0  0  0  0
  8 10  2  0  0  0  0
  9  5  1  0  0  0  0
 10 15  1  0  0  0  0
 10  4  1  0  0  0  0
 11 12  2  0  0  0  0
 11  3  1  0  0  0  0
 14 13  1  0  0  0  0
 15 14  2  0  0  0  0
 16 13  2  0  0  0  0
 17 18  2  0  0  0  0
 17 15  1  0  0  0  0
 18 16  1  0  0  0  0
 19 22  2  0  0  0  0
 21  2  1  0  0  0  0
 22 20  1  0  0  0  0
 22 21  1  0  0  0  0
 23 26  1  0  0  0  0
 24 31  1  0  0  0  0
 25 28  2  0  0  0  0
 26 21  1  0  0  0  0
 26 24  2  0  0  0  0
 27 23  2  0  0  0  0
 27 25  1  0  0  0  0
 28 24  1  0  0  0  0
 29 25  1  0  0  0  0
 30 27  1  0  0  0  0
M  END
>  <MODEL>
4

>  <REMARK>
 VINA RESULT:      -7.6      3.334      5.407
  Name = 
  3 active torsions:
  status: ('A' for Active; 'I' for Inactive)
    1  A    between atoms: C_2  and  N_16
    2  A    between atoms: C_11  and  N_16
    3  A    between atoms: C_21  and  C_26
                            x       y       z     vdW  Elec       q    Type
                         _______ _______ _______ _____ _____    ______ ____

>  <TORSDO>
F 3

$$$$
=
 OpenBabel11042417173D

 31 35  0  0  1  0  0  0  0  0999 V2000
  190.0400  174.6620  143.5480 N   0  0  1  0  0  0  0  0  0  0  0  0
  190.7010  174.8530  142.2420 C   0  0  1  0  0  3  0  0  0  0  0  0
  191.4870  175.2110  146.1760 C   0  0  0  0  0  3  0  0  0  0  0  0
  189.0810  176.3240  146.7920 S   0  0  0  0  0  0  0  0  0  0  0  0
  190.3660  175.7550  145.6940 C   0  0  0  0  0  0  0  0  0  0  0  0
  192.5640  174.8260  143.8440 C   0  0  0  0  0  2  0  0  0  0  0  0
  191.3710  174.0550  143.2690 C   0  0  1  0  0  3  0  0  0  0  0  0
  188.7620  176.6040  144.1720 C   0  0  0  0  0  3  0  0  0  0  0  0
  190.0970  175.9530  144.2360 C   0  0  2  0  0  3  0  0  0  0  0  0
  188.1640  176.8330  145.3360 C   0  0  0  0  0  0  0  0  0  0  0  0
  192.5930  174.7140  145.3370 C   0  0  0  0  0  0  0  0  0  0  0  0
  193.5920  174.1880  145.8920 O   0  0  0  0  0  0  0  0  0  0  0  0
  184.6130  177.5490  146.4330 C   0  0  0  0  0  3  0  0  0  0  0  0
  185.8830  176.9700  146.3450 C   0  0  0  0  0  3  0  0  0  0  0  0
  186.8250  177.4540  145.4250 C   0  0  0  0  0  0  0  0  0  0  0  0
  184.2740  178.6190  145.6000 C   0  0  0  0  0  3  0  0  0  0  0  0
  186.4720  178.5290  144.5920 C   0  0  0  0  0  3  0  0  0  0  0  0
  185.2040  179.1080  144.6800 C   0  0  0  0  0  3  0  0  0  0  0  0
  188.2360  173.6120  139.8320 O   0  0  0  0  0  0  0  0  0  0  0  0
  188.2180  175.5750  141.0030 O   0  0  0  0  0  1  0  0  0  0  0  0
  190.0760  173.9890  141.2380 N   0  0  0  0  0  0  0  0  0  0  0  0
  188.8170  174.3700  140.6540 C   0  0  0  0  0  0  0  0  0  0  0  0
  190.2410  171.5690  141.6060 C   0  0  0  0  0  3  0  0  0  0  0  0
  191.6490  172.5770  139.9220 C   0  0  0  0  0  0  0  0  0  0  0  0
  191.7410  170.2270  140.2840 C   0  0  0  0  0  0  0  0  0  0  0  0
  190.6680  172.7140  140.9240 C   0  0  0  0  0  0  0  0  0  0  0  0
  190.7780  170.3210  141.2900 C   0  0  0  0  0  0  0  0  0  0  0  0
  192.1550  171.3470  139.6330 N   0  0  0  0  0  0  0  0  0  0  0  0
  192.2740  169.0240  139.9600 F   0  0  0  0  0  0  0  0  0  0  0  0
  190.3610  169.2140  141.9520 F   0  0  0  0  0  0  0  0  0  0  0  0
  192.1860  173.7590  139.1900 C   0  0  0  0  0  1  0  0  0  0  0  0
  1  9  1  0  0  0  0
  2  7  1  0  0  0  0
  2  1  1  0  0  0  0
  5  3  2  0  0  0  0
  5  4  1  0  0  0  0
  6 11  1  0  0  0  0
  7  1  1  0  0  0  0
  7  6  1  0  0  0  0
  8  9  1  0  0  0  0
  8 10  2  0  0  0  0
  9  5  1  0  0  0  0
 10 15  1  0  0  0  0
 10  4  1  0  0  0  0
 11 12  2  0  0  0  0
 11  3  1  0  0  0  0
 14 13  1  0  0  0  0
 15 14  2  0  0  0  0
 16 13  2  0  0  0  0
 17 18  2  0  0  0  0
 17 15  1  0  0  0  0
 18 16  1  0  0  0  0
 19 22  2  0  0  0  0
 21  2  1  0  0  0  0
 22 20  1  0  0  0  0
 22 21  1  0  0  0  0
 24 26  1  0  0  0  0
 25 27  2  0  0  0  0
 26 21  1  0  0  0  0
 26 23  2  0  0  0  0
 27 23  1  0  0  0  0
 27 30  1  0  0  0  0
 28 24  2  0  0  0  0
 28 25  1  0  0  0  0
 29 25  1  0  0  0  0
 31 24  1  0  0  0  0
M  END
>  <MODEL>
5

>  <REMARK>
 VINA RESULT:      -7.5      3.335      5.433
  Name = 
  3 active torsions:
  status: ('A' for Active; 'I' for Inactive)
    1  A    between atoms: C_2  and  N_16
    2  A    between atoms: C_11  and  N_16
    3  A    between atoms: C_21  and  C_26
                            x       y       z     vdW  Elec       q    Type
                         _______ _______ _______ _____ _____    ______ ____

>  <TORSDO>
F 3

$$$$
=
 OpenBabel11042417173D

 31 35  0  0  1  0  0  0  0  0999 V2000
  190.1050  175.4920  144.4630 N   0  0  1  0  0  0  0  0  0  0  0  0
  191.4700  175.4240  143.9040 C   0  0  1  0  0  3  0  0  0  0  0  0
  189.4460  177.2200  146.8870 C   0  0  0  0  0  3  0  0  0  0  0  0
  187.2560  177.7870  145.3740 S   0  0  0  0  0  0  0  0  0  0  0  0
  188.9370  177.2610  145.6530 C   0  0  0  0  0  0  0  0  0  0  0  0
  191.7950  176.4110  146.1310 C   0  0  0  0  0  2  0  0  0  0  0  0
  191.2750  175.2070  145.3380 C   0  0  1  0  0  3  0  0  0  0  0  0
  188.7640  177.1160  143.2950 C   0  0  0  0  0  3  0  0  0  0  0  0
  189.7090  176.9010  144.4230 C   0  0  2  0  0  3  0  0  0  0  0  0
  187.5470  177.5370  143.6210 C   0  0  0  0  0  0  0  0  0  0  0  0
  190.8220  176.7950  147.2030 C   0  0  0  0  0  0  0  0  0  0  0  0
  191.1920  176.7620  148.4040 O   0  0  0  0  0  0  0  0  0  0  0  0
  184.1860  178.2910  142.0520 C   0  0  0  0  0  3  0  0  0  0  0  0
  185.1860  178.0710  143.0050 C   0  0  0  0  0  3  0  0  0  0  0  0
  186.4970  177.7720  142.6060 C   0  0  0  0  0  0  0  0  0  0  0  0
  184.4900  178.2140  140.6900 C   0  0  0  0  0  3  0  0  0  0  0  0
  186.7900  177.6950  141.2340 C   0  0  0  0  0  3  0  0  0  0  0  0
  185.7920  177.9160  140.2820 C   0  0  0  0  0  3  0  0  0  0  0  0
  193.0980  172.3660  142.7130 O   0  0  0  0  0  0  0  0  0  0  0  0
  193.8970  173.9230  144.1840 O   0  0  0  0  0  1  0  0  0  0  0  0
  191.6570  174.1500  143.2070 N   0  0  0  0  0  0  0  0  0  0  0  0
  192.8970  173.4340  143.3500 C   0  0  0  0  0  0  0  0  0  0  0  0
  190.6150  174.1650  140.9850 C   0  0  0  0  0  3  0  0  0  0  0  0
  189.6950  172.7090  142.6800 C   0  0  0  0  0  0  0  0  0  0  0  0
  188.7470  172.7260  140.4980 C   0  0  0  0  0  0  0  0  0  0  0  0
  190.6450  173.6780  142.2970 C   0  0  0  0  0  0  0  0  0  0  0  0
  189.6640  173.6930  140.0810 C   0  0  0  0  0  0  0  0  0  0  0  0
  188.7790  172.2650  141.7760 N   0  0  0  0  0  0  0  0  0  0  0  0
  187.8160  172.2520  139.6340 F   0  0  0  0  0  0  0  0  0  0  0  0
  189.6400  174.1660  138.8120 F   0  0  0  0  0  0  0  0  0  0  0  0
  189.6370  172.1830  144.0730 C   0  0  0  0  0  1  0  0  0  0  0  0
  1  7  1  0  0  0  0
  2  1  1  0  0  0  0
  2  7  1  0  0  0  0
  3 11  1  0  0  0  0
  4  5  1  0  0  0  0
  5  3  2  0  0  0  0
  6 11  1  0  0  0  0
  7  6  1  0  0  0  0
  8 10  2  0  0  0  0
  8  9  1  0  0  0  0
  9  1  1  0  0  0  0
  9  5  1  0  0  0  0
 10  4  1  0  0  0  0
 11 12  2  0  0  0  0
 13 14  1  0  0  0  0
 15 14  2  0  0  0  0
 15 10  1  0  0  0  0
 16 13  2  0  0  0  0
 17 15  1  0  0  0  0
 18 16  1  0  0  0  0
 18 17  2  0  0  0  0
 19 22  2  0  0  0  0
 21 22  1  0  0  0  0
 21  2  1  0  0  0  0
 22 20  1  0  0  0  0
 23 26  1  0  0  0  0
 24 31  1  0  0  0  0
 25 28  2  0  0  0  0
 26 24  2  0  0  0  0
 26 21  1  0  0  0  0
 27 25  1  0  0  0  0
 27 23  2  0  0  0  0
 28 24  1  0  0  0  0
 29 25  1  0  0  0  0
 30 27  1  0  0  0  0
M  END
>  <MODEL>
6

>  <REMARK>
 VINA RESULT:      -7.5      3.196      5.399
  Name = 
  3 active torsions:
  status: ('A' for Active; 'I' for Inactive)
    1  A    between atoms: C_2  and  N_16
    2  A    between atoms: C_11  and  N_16
    3  A    between atoms: C_21  and  C_26
                            x       y       z     vdW  Elec       q    Type
                         _______ _______ _______ _____ _____    ______ ____

>  <TORSDO>
F 3

$$$$
=
 OpenBabel11042417173D

 31 35  0  0  1  0  0  0  0  0999 V2000
  189.7200  174.9040  142.7920 N   0  0  1  0  0  0  0  0  0  0  0  0
  189.0180  176.1820  142.5600 C   0  0  1  0  0  3  0  0  0  0  0  0
  189.9800  172.7930  140.6070 C   0  0  0  0  0  3  0  0  0  0  0  0
  192.5060  172.6560  141.6100 S   0  0  0  0  0  0  0  0  0  0  0  0
  190.9360  173.4350  141.2840 C   0  0  0  0  0  0  0  0  0  0  0  0
  188.2880  174.7620  140.6920 C   0  0  0  0  0  2  0  0  0  0  0  0
  188.3490  174.9270  142.2140 C   0  0  1  0  0  3  0  0  0  0  0  0
  192.0930  175.1380  142.4550 C   0  0  0  0  0  3  0  0  0  0  0  0
  190.7940  174.8320  141.8000 C   0  0  2  0  0  3  0  0  0  0  0  0
  193.0020  174.1690  142.4380 C   0  0  0  0  0  0  0  0  0  0  0  0
  188.6560  173.3650  140.2990 C   0  0  0  0  0  0  0  0  0  0  0  0
  187.8150  172.6610  139.6830 O   0  0  0  0  0  0  0  0  0  0  0  0
  196.2150  175.7330  143.6830 C   0  0  0  0  0  3  0  0  0  0  0  0
  194.9580  175.5790  143.0910 C   0  0  0  0  0  3  0  0  0  0  0  0
  194.3300  174.3240  143.0700 C   0  0  0  0  0  0  0  0  0  0  0  0
  196.8560  174.6330  144.2590 C   0  0  0  0  0  3  0  0  0  0  0  0
  194.9850  173.2250  143.6510 C   0  0  0  0  0  3  0  0  0  0  0  0
  196.2410  173.3800  144.2430 C   0  0  0  0  0  3  0  0  0  0  0  0
  186.9930  178.1330  144.9080 O   0  0  0  0  0  1  0  0  0  0  0  0
  186.7840  177.9770  142.6370 O   0  0  0  0  0  0  0  0  0  0  0  0
  188.5120  176.7070  143.8300 N   0  0  0  0  0  0  0  0  0  0  0  0
  187.4050  177.6260  143.8310 C   0  0  0  0  0  0  0  0  0  0  0  0
  188.6400  175.4450  145.9300 C   0  0  0  0  0  3  0  0  0  0  0  0
  190.4280  176.9800  145.3980 C   0  0  0  0  0  0  0  0  0  0  0  0
  190.5290  175.7010  147.4010 C   0  0  0  0  0  0  0  0  0  0  0  0
  189.1950  176.3890  145.0580 C   0  0  0  0  0  0  0  0  0  0  0  0
  189.3040  175.0990  147.1070 C   0  0  0  0  0  0  0  0  0  0  0  0
  191.0550  176.6220  146.5510 N   0  0  0  0  0  0  0  0  0  0  0  0
  191.1920  175.3770  148.5380 F   0  0  0  0  0  0  0  0  0  0  0  0
  188.7650  174.1830  147.9480 F   0  0  0  0  0  0  0  0  0  0  0  0
  191.0520  178.0280  144.5410 C   0  0  0  0  0  1  0  0  0  0  0  0
  2  1  1  0  0  0  0
  2 21  1  0  0  0  0
  3  5  2  0  0  0  0
  4 10  1  0  0  0  0
  5  4  1  0  0  0  0
  5  9  1  0  0  0  0
  6  7  1  0  0  0  0
  7  2  1  0  0  0  0
  7  1  1  0  0  0  0
  9  8  1  0  0  0  0
  9  1  1  0  0  0  0
 10  8  2  0  0  0  0
 10 15  1  0  0  0  0
 11  3  1  0  0  0  0
 11  6  1  0  0  0  0
 12 11  2  0  0  0  0
 13 16  1  0  0  0  0
 14 13  2  0  0  0  0
 15 14  1  0  0  0  0
 15 17  2  0  0  0  0
 17 18  1  0  0  0  0
 18 16  2  0  0  0  0
 20 22  2  0  0  0  0
 21 22  1  0  0  0  0
 21 26  1  0  0  0  0
 22 19  1  0  0  0  0
 23 27  1  0  0  0  0
 24 28  2  0  0  0  0
 25 29  1  0  0  0  0
 26 24  1  0  0  0  0
 26 23  2  0  0  0  0
 27 25  2  0  0  0  0
 27 30  1  0  0  0  0
 28 25  1  0  0  0  0
 31 24  1  0  0  0  0
M  END
>  <MODEL>
7

>  <REMARK>
 VINA RESULT:      -7.4      3.097      6.115
  Name = 
  3 active torsions:
  status: ('A' for Active; 'I' for Inactive)
    1  A    between atoms: C_2  and  N_16
    2  A    between atoms: C_11  and  N_16
    3  A    between atoms: C_21  and  C_26
                            x       y       z     vdW  Elec       q    Type
                         _______ _______ _______ _____ _____    ______ ____

>  <TORSDO>
F 3

$$$$
=
 OpenBabel11042417173D

 31 35  0  0  1  0  0  0  0  0999 V2000
  190.0420  174.6240  144.4510 N   0  0  1  0  0  0  0  0  0  0  0  0
  189.7220  176.0000  144.0240 C   0  0  1  0  0  3  0  0  0  0  0  0
  189.6580  172.2360  142.5940 C   0  0  0  0  0  3  0  0  0  0  0  0
  192.0630  171.5410  143.6620 S   0  0  0  0  0  0  0  0  0  0  0  0
  190.7680  172.6740  143.1940 C   0  0  0  0  0  0  0  0  0  0  0  0
  188.5890  174.5910  142.3610 C   0  0  0  0  0  2  0  0  0  0  0  0
  188.7210  174.9480  143.8450 C   0  0  1  0  0  3  0  0  0  0  0  0
  192.3780  174.1330  144.1380 C   0  0  0  0  0  3  0  0  0  0  0  0
  191.0340  174.1140  143.5030 C   0  0  2  0  0  3  0  0  0  0  0  0
  192.9780  172.9560  144.2780 C   0  0  0  0  0  0  0  0  0  0  0  0
  188.5420  173.1050  142.1780 C   0  0  0  0  0  0  0  0  0  0  0  0
  187.5260  172.5860  141.6500 O   0  0  0  0  0  0  0  0  0  0  0  0
  196.2870  173.8470  145.8850 C   0  0  0  0  0  3  0  0  0  0  0  0
  195.0270  173.9650  145.2900 C   0  0  0  0  0  3  0  0  0  0  0  0
  194.3080  172.8210  144.9110 C   0  0  0  0  0  0  0  0  0  0  0  0
  196.8390  172.5820  146.1070 C   0  0  0  0  0  3  0  0  0  0  0  0
  194.8740  171.5550  145.1380 C   0  0  0  0  0  3  0  0  0  0  0  0
  196.1320  171.4370  145.7330 C   0  0  0  0  0  3  0  0  0  0  0  0
  190.2040  177.8870  147.1280 O   0  0  0  0  0  1  0  0  0  0  0  0
  191.7820  176.8870  145.8110 O   0  0  0  0  0  0  0  0  0  0  0  0
  189.4070  176.8220  145.1960 N   0  0  0  0  0  0  0  0  0  0  0  0
  190.4620  177.2290  146.0850 C   0  0  0  0  0  0  0  0  0  0  0  0
  187.3540  178.0950  144.7650 C   0  0  0  0  0  3  0  0  0  0  0  0
  187.3380  176.4450  146.5300 C   0  0  0  0  0  0  0  0  0  0  0  0
  185.3590  177.6720  146.0460 C   0  0  0  0  0  0  0  0  0  0  0  0
  188.0340  177.1230  145.5090 C   0  0  0  0  0  0  0  0  0  0  0  0
  186.0140  178.3740  145.0320 C   0  0  0  0  0  0  0  0  0  0  0  0
  186.0310  176.7360  146.7680 N   0  0  0  0  0  0  0  0  0  0  0  0
  184.0560  177.9270  146.3200 F   0  0  0  0  0  0  0  0  0  0  0  0
  185.3580  179.3130  144.3080 F   0  0  0  0  0  0  0  0  0  0  0  0
  188.0130  175.4350  147.3940 C   0  0  0  0  0  1  0  0  0  0  0  0
  2  1  1  0  0  0  0
  2 21  1  0  0  0  0
  3  5  2  0  0  0  0
  4 10  1  0  0  0  0
  5  9  1  0  0  0  0
  5  4  1  0  0  0  0
  6  7  1  0  0  0  0
  7  2  1  0  0  0  0
  7  1  1  0  0  0  0
  8 10  2  0  0  0  0
  9  8  1  0  0  0  0
  9  1  1  0  0  0  0
 10 15  1  0  0  0  0
 11  6  1  0  0  0  0
 11  3  1  0  0  0  0
 12 11  2  0  0  0  0
 13 16  1  0  0  0  0
 14 13  2  0  0  0  0
 15 17  2  0  0  0  0
 15 14  1  0  0  0  0
 17 18  1  0  0  0  0
 18 16  2  0  0  0  0
 20 22  2  0  0  0  0
 21 26  1  0  0  0  0
 21 22  1  0  0  0  0
 22 19  1  0  0  0  0
 23 27  2  0  0  0  0
 23 26  1  0  0  0  0
 24 28  1  0  0  0  0
 24 31  1  0  0  0  0
 25 29  1  0  0  0  0
 25 28  2  0  0  0  0
 26 24  2  0  0  0  0
 27 25  1  0  0  0  0
 30 27  1  0  0  0  0
M  END
>  <MODEL>
8

>  <REMARK>
 VINA RESULT:      -7.3      3.767      7.061
  Name = 
  3 active torsions:
  status: ('A' for Active; 'I' for Inactive)
    1  A    between atoms: C_2  and  N_16
    2  A    between atoms: C_11  and  N_16
    3  A    between atoms: C_21  and  C_26
                            x       y       z     vdW  Elec       q    Type
                         _______ _______ _______ _____ _____    ______ ____

>  <TORSDO>
F 3

$$$$
=
 OpenBabel11042417173D

 31 35  0  0  1  0  0  0  0  0999 V2000
  189.1430  174.7820  142.0910 N   0  0  1  0  0  0  0  0  0  0  0  0
  189.3150  173.3230  142.2310 C   0  0  1  0  0  3  0  0  0  0  0  0
  187.4510  175.9950  139.8630 C   0  0  0  0  0  3  0  0  0  0  0  0
  186.6330  177.5890  141.9110 S   0  0  0  0  0  0  0  0  0  0  0  0
  187.3190  176.1110  141.1870 C   0  0  0  0  0  0  0  0  0  0  0  0
  188.4430  173.5960  139.9500 C   0  0  0  0  0  2  0  0  0  0  0  0
  189.5650  173.9490  140.9320 C   0  0  1  0  0  3  0  0  0  0  0  0
  187.3630  175.5900  143.4970 C   0  0  0  0  0  3  0  0  0  0  0  0
  187.7030  175.0410  142.1590 C   0  0  2  0  0  3  0  0  0  0  0  0
  186.8450  176.8130  143.5160 C   0  0  0  0  0  0  0  0  0  0  0  0
  188.0100  174.8100  139.1870 C   0  0  0  0  0  0  0  0  0  0  0  0
  188.1200  174.8160  137.9340 O   0  0  0  0  0  0  0  0  0  0  0  0
  186.3390  177.4900  147.2040 C   0  0  0  0  0  3  0  0  0  0  0  0
  186.6860  176.8550  146.0080 C   0  0  0  0  0  3  0  0  0  0  0  0
  186.4790  177.4950  144.7760 C   0  0  0  0  0  0  0  0  0  0  0  0
  185.7820  178.7720  147.1800 C   0  0  0  0  0  3  0  0  0  0  0  0
  185.9170  178.7820  144.7630 C   0  0  0  0  0  3  0  0  0  0  0  0
  185.5710  179.4170  145.9590 C   0  0  0  0  0  3  0  0  0  0  0  0
  192.1300  171.4120  143.5890 O   0  0  0  0  0  1  0  0  0  0  0  0
  190.4000  170.6690  142.2940 O   0  0  0  0  0  0  0  0  0  0  0  0
  190.5750  173.0360  142.9200 N   0  0  0  0  0  0  0  0  0  0  0  0
  191.0790  171.6880  142.9530 C   0  0  0  0  0  0  0  0  0  0  0  0
  192.3310  174.7430  143.0710 C   0  0  0  0  0  3  0  0  0  0  0  0
  190.8150  174.4810  144.9340 C   0  0  0  0  0  0  0  0  0  0  0  0
  192.5060  176.1530  145.0140 C   0  0  0  0  0  0  0  0  0  0  0  0
  191.2440  174.0810  143.6520 C   0  0  0  0  0  0  0  0  0  0  0  0
  192.9670  175.7810  143.7510 C   0  0  0  0  0  0  0  0  0  0  0  0
  191.4540  175.4980  145.5740 N   0  0  0  0  0  0  0  0  0  0  0  0
  193.1090  177.1600  145.6910 F   0  0  0  0  0  0  0  0  0  0  0  0
  194.0190  176.4210  143.1830 F   0  0  0  0  0  0  0  0  0  0  0  0
  189.6970  173.7880  145.6340 C   0  0  0  0  0  1  0  0  0  0  0  0
  1  9  1  0  0  0  0
  1  2  1  0  0  0  0
  2 21  1  0  0  0  0
  3  5  2  0  0  0  0
  4 10  1  0  0  0  0
  5  4  1  0  0  0  0
  5  9  1  0  0  0  0
  6  7  1  0  0  0  0
  7  1  1  0  0  0  0
  7  2  1  0  0  0  0
  8 10  2  0  0  0  0
  9  8  1  0  0  0  0
 10 15  1  0  0  0  0
 11  3  1  0  0  0  0
 11  6  1  0  0  0  0
 12 11  2  0  0  0  0
 14 13  2  0  0  0  0
 15 14  1  0  0  0  0
 16 13  1  0  0  0  0
 17 15  2  0  0  0  0
 17 18  1  0  0  0  0
 18 16  2  0  0  0  0
 20 22  2  0  0  0  0
 21 22  1  0  0  0  0
 21 26  1  0  0  0  0
 22 19  1  0  0  0  0
 23 26  2  0  0  0  0
 23 27  1  0  0  0  0
 24 28  2  0  0  0  0
 24 31  1  0  0  0  0
 25 28  1  0  0  0  0
 25 29  1  0  0  0  0
 26 24  1  0  0  0  0
 27 25  2  0  0  0  0
 30 27  1  0  0  0  0
M  END
>  <MODEL>
9

>  <REMARK>
 VINA RESULT:      -7.3      1.574      2.258
  Name = 
  3 active torsions:
  status: ('A' for Active; 'I' for Inactive)
    1  A    between atoms: C_2  and  N_16
    2  A    between atoms: C_11  and  N_16
    3  A    between atoms: C_21  and  C_26
                            x       y       z     vdW  Elec       q    Type
                         _______ _______ _______ _____ _____    ______ ____

>  <TORSDO>
F 3

$$$$
