=
 OpenBabel11042417103D

 38 42  0  0  1  0  0  0  0  0999 V2000
  187.1730  176.1190  140.9520 C   0  0  0  0  0  3  0  0  0  0  0  0
  187.8470  177.6240  142.8200 C   0  0  2  0  0  3  0  0  0  0  0  0
  190.9740  175.9420  145.8210 C   0  0  0  0  0  2  0  0  0  0  0  0
  190.0230  176.0700  144.6660 C   0  0  0  0  0  0  0  0  0  0  0  0
  192.2700  175.2250  145.4080 C   0  0  2  0  0  3  0  0  0  0  0  0
  190.2530  173.1100  138.6380 C   0  0  0  0  0  0  0  0  0  0  0  0
  189.1290  173.8800  138.6200 N   0  0  0  0  0  0  0  0  0  0  0  0
  188.7840  176.5230  144.9010 C   0  0  0  0  0  3  0  0  0  0  0  0
  185.6830  177.8230  144.1500 C   0  0  0  0  0  0  0  0  0  0  0  0
  189.3520  174.3130  140.9460 C   0  0  0  0  0  3  0  0  0  0  0  0
  190.7270  172.4600  137.3890 C   0  0  0  0  0  1  0  0  0  0  0  0
  190.9300  174.1050  143.4800 C   0  0  2  0  0  3  0  0  0  0  0  0
  187.6660  176.5430  143.8950 C   0  0  1  0  0  3  0  0  0  0  0  0
  190.5260  173.5680  140.9930 C   0  0  0  0  0  0  0  0  0  0  0  0
  191.3130  173.5120  142.1910 N   0  0  0  0  0  2  0  0  0  0  0  0
  186.3970  178.7360  142.7960 S   0  0  0  0  0  0  0  0  0  0  0  0
  190.4520  175.5530  143.3270 C   0  0  0  0  0  2  0  0  0  0  0  0
  192.0560  173.9620  144.5400 C   0  0  1  0  0  3  0  0  0  0  0  0
  193.2700  173.5970  143.9520 O   0  0  0  0  0  1  0  0  0  0  0  0
  188.0470  176.9910  141.4740 C   0  0  0  0  0  3  0  0  0  0  0  0
  187.4670  175.4070  139.6580 C   0  0  0  0  0  2  0  0  0  0  0  0
  190.9840  172.9570  139.8230 C   0  0  0  0  0  3  0  0  0  0  0  0
  188.6630  174.4890  139.7430 C   0  0  0  0  0  0  0  0  0  0  0  0
  186.3830  176.8000  144.5950 C   0  0  0  0  0  3  0  0  0  0  0  0
  184.4360  178.1730  144.7480 N   0  0  0  0  0  2  0  0  0  0  0  0
  184.3180  178.4990  146.1610 C   0  0  0  0  0  2  0  0  0  0  0  0
  185.5390  179.2750  146.6220 C   0  0  0  0  0  2  0  0  0  0  0  0
  187.0230  179.1800  148.4850 O   0  0  0  0  0  1  0  0  0  0  0  0
  185.9710  177.2130  147.9580 O   0  0  0  0  0  0  0  0  0  0  0  0
  186.2290  178.5580  147.7320 C   0  0  0  0  0  0  0  0  0  0  0  0
  193.1380  174.9670  146.5600 N   0  0  0  0  0  2  0  0  0  0  0  0
  195.4670  174.8620  146.0710 N   0  0  0  0  0  0  0  0  0  0  0  0
  194.2470  176.7570  145.3260 C   0  0  0  0  0  3  0  0  0  0  0  0
  194.3760  175.7360  146.4550 C   0  0  1  0  0  3  0  0  0  0  0  0
  195.9820  175.2180  144.9490 C   0  0  0  0  0  0  0  0  0  0  0  0
  195.3460  176.4070  144.3340 C   0  0  0  0  0  3  0  0  0  0  0  0
  197.9410  175.1260  143.4650 C   0  0  0  0  0  1  0  0  0  0  0  0
  197.0490  174.5170  144.3870 O   0  0  0  0  0  0  0  0  0  0  0  0
  1 20  2  0  0  0  0
  2 20  1  6  0  0  0
  2 13  1  0  0  0  0
  4  8  2  0  0  0  0
  4  3  1  0  0  0  0
  5  3  1  0  0  0  0
  5 31  1  1  0  0  0
  6 22  1  0  0  0  0
  7  6  2  0  0  0  0
  7 23  1  0  0  0  0
  9 24  2  0  0  0  0
  9 25  1  0  0  0  0
 10 14  1  0  0  0  0
 11  6  1  0  0  0  0
 12 17  1  6  0  0  0
 12 18  1  0  0  0  0
 13 24  1  1  0  0  0
 13  8  1  0  0  0  0
 14 15  1  0  0  0  0
 15 12  1  0  0  0  0
 16  2  1  0  0  0  0
 16  9  1  0  0  0  0
 17  4  1  0  0  0  0
 18 19  1  6  0  0  0
 18  5  1  0  0  0  0
 21 23  1  0  0  0  0
 21  1  1  0  0  0  0
 22 14  2  0  0  0  0
 23 10  2  0  0  0  0
 25 26  1  0  0  0  0
 26 27  1  0  0  0  0
 27 30  1  0  0  0  0
 30 29  2  0  0  0  0
 30 28  1  0  0  0  0
 32 34  1  0  0  0  0
 33 34  1  0  0  0  0
 34 31  1  6  0  0  0
 35 32  2  0  0  0  0
 36 35  1  0  0  0  0
 36 33  2  0  0  0  0
 37 38  1  0  0  0  0
 38 35  1  0  0  0  0
M  END
>  <MODEL>
1

>  <REMARK>
 VINA RESULT:      -7.6      0.000      0.000
  Name = 
  7 active torsions:
  status: ('A' for Active; 'I' for Inactive)
    1  A    between atoms: N_5  and  C_12
    2  A    between atoms: N_5  and  C_24
    3  A    between atoms: C_7  and  N_16
    4  A    between atoms: N_16  and  C_25
    5  A    between atoms: C_24  and  C_30
    6  A    between atoms: C_26  and  O_29
    7  A    between atoms: C_30  and  C_38
                            x       y       z     vdW  Elec       q    Type
                         _______ _______ _______ _____ _____    ______ ____

>  <TORSDO>
F 7

$$$$
=
 OpenBabel11042417103D

 38 42  0  0  1  0  0  0  0  0999 V2000
  190.6310  176.6370  146.3380 C   0  0  0  0  0  3  0  0  0  0  0  0
  188.5070  175.7690  145.3680 C   0  0  2  0  0  3  0  0  0  0  0  0
  188.7310  174.0870  141.0400 C   0  0  0  0  0  2  0  0  0  0  0  0
  189.1040  174.7030  142.3570 C   0  0  0  0  0  0  0  0  0  0  0  0
  189.8150  173.1150  140.5450 C   0  0  2  0  0  3  0  0  0  0  0  0
  195.0070  174.5990  145.5670 C   0  0  0  0  0  0  0  0  0  0  0  0
  194.1730  175.3220  146.3670 N   0  0  0  0  0  0  0  0  0  0  0  0
  188.3430  175.6950  142.8410 C   0  0  0  0  0  3  0  0  0  0  0  0
  187.0980  177.8830  145.1920 C   0  0  0  0  0  0  0  0  0  0  0  0
  192.5160  175.3500  144.6640 C   0  0  0  0  0  3  0  0  0  0  0  0
  196.3510  174.2050  146.0610 C   0  0  0  0  0  1  0  0  0  0  0  0
  191.5300  174.4310  141.9930 C   0  0  2  0  0  3  0  0  0  0  0  0
  188.6760  176.5300  144.0470 C   0  0  1  0  0  3  0  0  0  0  0  0
  193.3240  174.5780  143.8360 C   0  0  0  0  0  0  0  0  0  0  0  0
  192.8330  174.0900  142.5790 N   0  0  0  0  0  2  0  0  0  0  0  0
  187.3390  176.6540  146.4600 S   0  0  0  0  0  0  0  0  0  0  0  0
  190.3880  174.2830  143.0050 C   0  0  0  0  0  2  0  0  0  0  0  0
  191.2620  173.6450  140.6800 C   0  0  1  0  0  3  0  0  0  0  0  0
  192.1570  172.5810  140.5280 O   0  0  0  0  0  1  0  0  0  0  0  0
  189.8350  175.5990  146.0450 C   0  0  0  0  0  3  0  0  0  0  0  0
  192.0110  176.4230  146.9010 C   0  0  0  0  0  2  0  0  0  0  0  0
  194.5870  174.1970  144.2930 C   0  0  0  0  0  3  0  0  0  0  0  0
  192.9360  175.7030  145.9490 C   0  0  0  0  0  0  0  0  0  0  0  0
  187.7850  177.7160  144.0810 C   0  0  0  0  0  3  0  0  0  0  0  0
  186.2010  178.9830  145.3400 N   0  0  0  0  0  2  0  0  0  0  0  0
  185.4160  179.4990  144.2300 C   0  0  0  0  0  2  0  0  0  0  0  0
  184.1840  178.6370  144.0160 C   0  0  0  0  0  2  0  0  0  0  0  0
  185.0910  177.8360  141.9620 O   0  0  0  0  0  1  0  0  0  0  0  0
  182.8350  178.2470  141.9550 O   0  0  0  0  0  0  0  0  0  0  0  0
  184.0710  178.2280  142.5870 C   0  0  0  0  0  0  0  0  0  0  0  0
  189.5270  172.6220  139.1960 N   0  0  0  0  0  2  0  0  0  0  0  0
  190.9510  172.7760  137.2920 N   0  0  0  0  0  0  0  0  0  0  0  0
  188.9620  174.0720  137.3160 C   0  0  0  0  0  3  0  0  0  0  0  0
  190.0870  173.5200  138.1890 C   0  0  1  0  0  3  0  0  0  0  0  0
  190.5260  172.8280  136.0800 C   0  0  0  0  0  0  0  0  0  0  0  0
  189.2830  173.6150  135.9000 C   0  0  0  0  0  3  0  0  0  0  0  0
  190.7810  170.9240  134.5450 C   0  0  0  0  0  1  0  0  0  0  0  0
  191.2050  172.1820  135.0470 O   0  0  0  0  0  0  0  0  0  0  0  0
  1 21  1  0  0  0  0
  2 20  1  1  0  0  0
  2 16  1  0  0  0  0
  3  4  1  0  0  0  0
  4  8  2  0  0  0  0
  4 17  1  0  0  0  0
  5 31  1  6  0  0  0
  5 18  1  0  0  0  0
  5  3  1  0  0  0  0
  6 11  1  0  0  0  0
  6  7  1  0  0  0  0
  9 25  1  0  0  0  0
  9 16  1  0  0  0  0
 10 23  1  0  0  0  0
 12 15  1  0  0  0  0
 12 17  1  1  0  0  0
 13  8  1  6  0  0  0
 13 24  1  0  0  0  0
 13  2  1  0  0  0  0
 14 22  1  0  0  0  0
 14 10  2  0  0  0  0
 15 14  1  0  0  0  0
 18 19  1  1  0  0  0
 18 12  1  0  0  0  0
 20  1  2  0  0  0  0
 22  6  2  0  0  0  0
 23  7  2  0  0  0  0
 23 21  1  0  0  0  0
 24  9  2  0  0  0  0
 26 25  1  0  0  0  0
 27 26  1  0  0  0  0
 28 30  1  0  0  0  0
 29 30  2  0  0  0  0
 30 27  1  0  0  0  0
 32 34  1  0  0  0  0
 33 34  1  0  0  0  0
 34 31  1  1  0  0  0
 35 32  2  0  0  0  0
 36 35  1  0  0  0  0
 36 33  2  0  0  0  0
 37 38  1  0  0  0  0
 38 35  1  0  0  0  0
M  END
>  <MODEL>
2

>  <REMARK>
 VINA RESULT:      -7.5      2.733      6.716
  Name = 
  7 active torsions:
  status: ('A' for Active; 'I' for Inactive)
    1  A    between atoms: N_5  and  C_12
    2  A    between atoms: N_5  and  C_24
    3  A    between atoms: C_7  and  N_16
    4  A    between atoms: N_16  and  C_25
    5  A    between atoms: C_24  and  C_30
    6  A    between atoms: C_26  and  O_29
    7  A    between atoms: C_30  and  C_38
                            x       y       z     vdW  Elec       q    Type
                         _______ _______ _______ _____ _____    ______ ____

>  <TORSDO>
F 7

$$$$
=
 OpenBabel11042417103D

 38 42  0  0  1  0  0  0  0  0999 V2000
  188.3710  175.6680  142.1420 C   0  0  0  0  0  3  0  0  0  0  0  0
  190.0170  176.3050  143.9000 C   0  0  2  0  0  3  0  0  0  0  0  0
  193.0370  173.0220  145.2090 C   0  0  0  0  0  2  0  0  0  0  0  0
  191.9170  173.7420  144.5150 C   0  0  0  0  0  0  0  0  0  0  0  0
  193.8290  172.1360  144.2320 C   0  0  2  0  0  3  0  0  0  0  0  0
  189.4260  172.7680  138.3500 C   0  0  0  0  0  0  0  0  0  0  0  0
  188.6890  173.7840  138.8820 N   0  0  0  0  0  0  0  0  0  0  0  0
  191.0330  174.4230  145.2580 C   0  0  0  0  0  3  0  0  0  0  0  0
  188.5160  176.6780  145.9240 C   0  0  0  0  0  0  0  0  0  0  0  0
  189.6770  173.4250  141.0130 C   0  0  0  0  0  3  0  0  0  0  0  0
  189.2780  172.4170  136.9150 C   0  0  0  0  0  1  0  0  0  0  0  0
  191.7070  172.0510  142.7300 C   0  0  2  0  0  3  0  0  0  0  0  0
  189.7660  175.0450  144.7390 C   0  0  1  0  0  3  0  0  0  0  0  0
  190.4760  172.4110  140.4950 C   0  0  0  0  0  0  0  0  0  0  0  0
  191.4870  171.7890  141.3010 N   0  0  0  0  0  2  0  0  0  0  0  0
  189.1080  177.7240  144.6080 S   0  0  0  0  0  0  0  0  0  0  0  0
  191.7510  173.5510  143.0380 C   0  0  0  0  0  2  0  0  0  0  0  0
  192.9520  171.2980  143.2710 C   0  0  1  0  0  3  0  0  0  0  0  0
  193.7490  170.8100  142.2320 O   0  0  0  0  0  1  0  0  0  0  0  0
  189.6040  176.0730  142.4760 C   0  0  0  0  0  3  0  0  0  0  0  0
  188.0270  175.3220  140.7160 C   0  0  0  0  0  2  0  0  0  0  0  0
  190.3490  172.0770  139.1450 C   0  0  0  0  0  3  0  0  0  0  0  0
  188.7950  174.1330  140.1920 C   0  0  0  0  0  0  0  0  0  0  0  0
  188.9000  175.4190  145.8850 C   0  0  0  0  0  3  0  0  0  0  0  0
  187.6880  177.1590  146.9820 N   0  0  0  0  0  2  0  0  0  0  0  0
  186.2760  176.8240  147.0750 C   0  0  0  0  0  2  0  0  0  0  0  0
  185.5990  177.0350  145.7320 C   0  0  0  0  0  2  0  0  0  0  0  0
  185.8400  179.3080  145.0560 O   0  0  0  0  0  0  0  0  0  0  0  0
  183.8450  178.7780  146.0540 O   0  0  0  0  0  1  0  0  0  0  0  0
  185.1130  178.4380  145.6020 C   0  0  0  0  0  0  0  0  0  0  0  0
  194.8280  171.3210  144.9270 N   0  0  0  0  0  2  0  0  0  0  0  0
  196.0890  173.1170  144.0000 N   0  0  0  0  0  0  0  0  0  0  0  0
  196.8210  172.1710  146.0510 C   0  0  0  0  0  3  0  0  0  0  0  0
  196.1710  171.8530  144.7060 C   0  0  1  0  0  3  0  0  0  0  0  0
  196.5900  174.0760  144.6940 C   0  0  0  0  0  0  0  0  0  0  0  0
  197.1150  173.6630  146.0180 C   0  0  0  0  0  3  0  0  0  0  0  0
  195.4350  176.1550  144.0660 C   0  0  0  0  0  1  0  0  0  0  0  0
  196.6180  175.3830  144.2090 O   0  0  0  0  0  0  0  0  0  0  0  0
  1 20  2  0  0  0  0
  2 20  1  6  0  0  0
  2 16  1  0  0  0  0
  2 13  1  0  0  0  0
  4  3  1  0  0  0  0
  4  8  2  0  0  0  0
  5 31  1  1  0  0  0
  5  3  1  0  0  0  0
  6  7  2  0  0  0  0
  6 22  1  0  0  0  0
  7 23  1  0  0  0  0
  9 25  1  0  0  0  0
 11  6  1  0  0  0  0
 12 17  1  6  0  0  0
 12 18  1  0  0  0  0
 13  8  1  1  0  0  0
 13 24  1  0  0  0  0
 14 10  1  0  0  0  0
 14 15  1  0  0  0  0
 15 12  1  0  0  0  0
 16  9  1  0  0  0  0
 17  4  1  0  0  0  0
 18 19  1  6  0  0  0
 18  5  1  0  0  0  0
 21  1  1  0  0  0  0
 22 14  2  0  0  0  0
 23 21  1  0  0  0  0
 23 10  2  0  0  0  0
 24  9  2  0  0  0  0
 25 26  1  0  0  0  0
 27 26  1  0  0  0  0
 28 30  2  0  0  0  0
 30 27  1  0  0  0  0
 30 29  1  0  0  0  0
 32 35  2  0  0  0  0
 32 34  1  0  0  0  0
 34 31  1  1  0  0  0
 34 33  1  0  0  0  0
 35 36  1  0  0  0  0
 36 33  2  0  0  0  0
 37 38  1  0  0  0  0
 38 35  1  0  0  0  0
M  END
>  <MODEL>
3

>  <REMARK>
 VINA RESULT:      -7.5      2.111      2.836
  Name = 
  7 active torsions:
  status: ('A' for Active; 'I' for Inactive)
    1  A    between atoms: N_5  and  C_12
    2  A    between atoms: N_5  and  C_24
    3  A    between atoms: C_7  and  N_16
    4  A    between atoms: N_16  and  C_25
    5  A    between atoms: C_24  and  C_30
    6  A    between atoms: C_26  and  O_29
    7  A    between atoms: C_30  and  C_38
                            x       y       z     vdW  Elec       q    Type
                         _______ _______ _______ _____ _____    ______ ____

>  <TORSDO>
F 7

$$$$
=
 OpenBabel11042417103D

 38 42  0  0  1  0  0  0  0  0999 V2000
  191.4510  175.9820  146.5120 C   0  0  0  0  0  3  0  0  0  0  0  0
  189.3210  175.0920  145.5760 C   0  0  2  0  0  3  0  0  0  0  0  0
  189.2760  174.1680  141.0200 C   0  0  0  0  0  2  0  0  0  0  0  0
  189.7200  174.5930  142.3900 C   0  0  0  0  0  0  0  0  0  0  0  0
  190.3820  173.3940  140.2840 C   0  0  2  0  0  3  0  0  0  0  0  0
  195.8830  174.5090  145.0670 C   0  0  0  0  0  0  0  0  0  0  0  0
  195.0720  175.0110  146.0410 N   0  0  0  0  0  0  0  0  0  0  0  0
  188.9310  175.4180  143.0940 C   0  0  0  0  0  3  0  0  0  0  0  0
  187.7410  177.0680  145.8730 C   0  0  0  0  0  0  0  0  0  0  0  0
  193.2680  175.1650  144.5020 C   0  0  0  0  0  3  0  0  0  0  0  0
  197.2930  174.1640  145.3800 C   0  0  0  0  0  1  0  0  0  0  0  0
  192.1150  174.6080  141.7970 C   0  0  2  0  0  3  0  0  0  0  0  0
  189.3080  176.0710  144.3950 C   0  0  1  0  0  3  0  0  0  0  0  0
  194.0540  174.6160  143.4940 C   0  0  0  0  0  0  0  0  0  0  0  0
  193.4900  174.2970  142.2140 N   0  0  0  0  0  2  0  0  0  0  0  0
  188.1930  175.6750  146.8900 S   0  0  0  0  0  0  0  0  0  0  0  0
  191.0870  174.1930  142.8550 C   0  0  0  0  0  2  0  0  0  0  0  0
  191.7900  174.0260  140.3940 C   0  0  1  0  0  3  0  0  0  0  0  0
  192.7470  173.0890  139.9940 O   0  0  0  0  0  1  0  0  0  0  0  0
  190.7150  174.9370  146.1090 C   0  0  0  0  0  3  0  0  0  0  0  0
  192.8900  175.8060  146.9220 C   0  0  0  0  0  2  0  0  0  0  0  0
  195.3800  174.2830  143.7790 C   0  0  0  0  0  3  0  0  0  0  0  0
  193.7760  175.3400  145.7920 C   0  0  0  0  0  0  0  0  0  0  0  0
  188.3340  177.1490  144.7000 C   0  0  0  0  0  3  0  0  0  0  0  0
  186.7800  178.0420  146.2770 N   0  0  0  0  0  2  0  0  0  0  0  0
  185.3700  177.7200  146.4360 C   0  0  0  0  0  2  0  0  0  0  0  0
  184.5140  178.7770  145.7590 C   0  0  0  0  0  2  0  0  0  0  0  0
  184.5870  178.0200  143.4990 O   0  0  0  0  0  0  0  0  0  0  0  0
  185.5550  180.0610  143.8900 O   0  0  0  0  0  1  0  0  0  0  0  0
  184.8930  178.9200  144.3240 C   0  0  0  0  0  0  0  0  0  0  0  0
  190.0110  173.1040  138.8960 N   0  0  0  0  0  2  0  0  0  0  0  0
  189.8570  171.2080  137.4640 N   0  0  0  0  0  0  0  0  0  0  0  0
  190.2310  170.8400  139.7790 C   0  0  0  0  0  3  0  0  0  0  0  0
  189.5150  171.7350  138.7700 C   0  0  1  0  0  3  0  0  0  0  0  0
  190.6140  170.1730  137.5580 C   0  0  0  0  0  0  0  0  0  0  0  0
  190.9470  169.7840  138.9500 C   0  0  0  0  0  3  0  0  0  0  0  0
  191.1860  170.1480  135.1660 C   0  0  0  0  0  1  0  0  0  0  0  0
  191.0660  169.5000  136.4230 O   0  0  0  0  0  0  0  0  0  0  0  0
  1 21  1  0  0  0  0
  2 20  1  1  0  0  0
  2 16  1  0  0  0  0
  3  4  1  0  0  0  0
  4 17  1  0  0  0  0
  4  8  2  0  0  0  0
  5 31  1  6  0  0  0
  5 18  1  0  0  0  0
  5  3  1  0  0  0  0
  6 11  1  0  0  0  0
  6  7  1  0  0  0  0
  9 25  1  0  0  0  0
  9 16  1  0  0  0  0
 10 23  1  0  0  0  0
 12 15  1  0  0  0  0
 12 17  1  1  0  0  0
 13  8  1  6  0  0  0
 13 24  1  0  0  0  0
 13  2  1  0  0  0  0
 14 22  1  0  0  0  0
 14 10  2  0  0  0  0
 15 14  1  0  0  0  0
 18 19  1  1  0  0  0
 18 12  1  0  0  0  0
 20  1  2  0  0  0  0
 22  6  2  0  0  0  0
 23  7  2  0  0  0  0
 23 21  1  0  0  0  0
 24  9  2  0  0  0  0
 25 26  1  0  0  0  0
 27 26  1  0  0  0  0
 28 30  2  0  0  0  0
 29 30  1  0  0  0  0
 30 27  1  0  0  0  0
 32 35  2  0  0  0  0
 32 34  1  0  0  0  0
 34 31  1  6  0  0  0
 34 33  1  0  0  0  0
 35 36  1  0  0  0  0
 36 33  2  0  0  0  0
 37 38  1  0  0  0  0
 38 35  1  0  0  0  0
M  END
>  <MODEL>
4

>  <REMARK>
 VINA RESULT:      -7.2      2.654      6.666
  Name = 
  7 active torsions:
  status: ('A' for Active; 'I' for Inactive)
    1  A    between atoms: N_5  and  C_12
    2  A    between atoms: N_5  and  C_24
    3  A    between atoms: C_7  and  N_16
    4  A    between atoms: N_16  and  C_25
    5  A    between atoms: C_24  and  C_30
    6  A    between atoms: C_26  and  O_29
    7  A    between atoms: C_30  and  C_38
                            x       y       z     vdW  Elec       q    Type
                         _______ _______ _______ _____ _____    ______ ____

>  <TORSDO>
F 7

$$$$
=
 OpenBabel11042417103D

 38 42  0  0  1  0  0  0  0  0999 V2000
  191.6540  173.9920  143.9700 C   0  0  0  0  0  3  0  0  0  0  0  0
  190.9450  174.5920  141.6580 C   0  0  2  0  0  3  0  0  0  0  0  0
  186.9740  176.9760  141.2540 C   0  0  0  0  0  2  0  0  0  0  0  0
  188.1450  176.2330  141.8290 C   0  0  0  0  0  0  0  0  0  0  0  0
  186.6120  178.2040  142.1070 C   0  0  2  0  0  3  0  0  0  0  0  0
  191.0670  176.9190  147.8410 C   0  0  0  0  0  0  0  0  0  0  0  0
  191.7630  175.9300  147.2120 N   0  0  0  0  0  0  0  0  0  0  0  0
  188.4790  175.0490  141.2960 C   0  0  0  0  0  3  0  0  0  0  0  0
  190.4590  172.3080  140.6400 C   0  0  0  0  0  0  0  0  0  0  0  0
  190.1540  175.8700  145.4640 C   0  0  0  0  0  3  0  0  0  0  0  0
  191.5650  177.4730  149.1260 C   0  0  0  0  0  1  0  0  0  0  0  0
  187.7310  177.0150  144.1330 C   0  0  2  0  0  3  0  0  0  0  0  0
  189.5030  174.1050  141.8620 C   0  0  1  0  0  3  0  0  0  0  0  0
  189.4410  176.9070  146.0570 C   0  0  0  0  0  0  0  0  0  0  0  0
  188.3120  177.4940  145.3940 N   0  0  0  0  0  2  0  0  0  0  0  0
  191.9120  173.3340  140.7520 S   0  0  0  0  0  0  0  0  0  0  0  0
  188.8010  176.7750  143.0620 C   0  0  0  0  0  2  0  0  0  0  0  0
  186.5900  177.9420  143.6320 C   0  0  1  0  0  3  0  0  0  0  0  0
  186.5890  179.1650  144.3080 O   0  0  0  0  0  1  0  0  0  0  0  0
  191.5830  174.8950  142.9820 C   0  0  0  0  0  3  0  0  0  0  0  0
  192.1870  174.3670  145.3270 C   0  0  0  0  0  2  0  0  0  0  0  0
  189.9030  177.4400  147.2620 C   0  0  0  0  0  3  0  0  0  0  0  0
  191.3380  175.3960  146.0350 C   0  0  0  0  0  0  0  0  0  0  0  0
  189.3660  172.7820  141.2020 C   0  0  0  0  0  3  0  0  0  0  0  0
  190.4500  171.0490  139.9690 N   0  0  0  0  0  2  0  0  0  0  0  0
  189.6740  170.8200  138.7600 C   0  0  0  0  0  2  0  0  0  0  0  0
  190.3570  171.4710  137.5700 C   0  0  0  0  0  2  0  0  0  0  0  0
  188.5680  173.0370  137.7350 O   0  0  0  0  0  1  0  0  0  0  0  0
  190.2290  173.5860  136.2540 O   0  0  0  0  0  0  0  0  0  0  0  0
  189.6590  172.7320  137.1880 C   0  0  0  0  0  0  0  0  0  0  0  0
  185.3840  178.8490  141.6360 N   0  0  0  0  0  2  0  0  0  0  0  0
  183.2360  178.4400  142.5810 N   0  0  0  0  0  0  0  0  0  0  0  0
  183.6040  177.8270  140.3170 C   0  0  0  0  0  3  0  0  0  0  0  0
  184.2580  177.9200  141.6930 C   0  0  1  0  0  3  0  0  0  0  0  0
  182.1290  178.6350  141.9590 C   0  0  0  0  0  0  0  0  0  0  0  0
  182.1680  178.2910  140.5160 C   0  0  0  0  0  3  0  0  0  0  0  0
  179.7010  179.0130  142.0690 C   0  0  0  0  0  1  0  0  0  0  0  0
  181.0050  179.1320  142.6180 O   0  0  0  0  0  0  0  0  0  0  0  0
  1 21  1  0  0  0  0
  2 13  1  0  0  0  0
  2 20  1  1  0  0  0
  3  4  1  0  0  0  0
  3  5  1  0  0  0  0
  4 17  1  0  0  0  0
  5 31  1  6  0  0  0
  5 18  1  0  0  0  0
  6 11  1  0  0  0  0
  7  6  2  0  0  0  0
  8  4  2  0  0  0  0
  8 13  1  0  0  0  0
  9 16  1  0  0  0  0
  9 24  2  0  0  0  0
 10 23  2  0  0  0  0
 10 14  1  0  0  0  0
 12 17  1  6  0  0  0
 12 15  1  0  0  0  0
 13 24  1  6  0  0  0
 14 22  2  0  0  0  0
 15 14  1  0  0  0  0
 16  2  1  0  0  0  0
 18 12  1  0  0  0  0
 18 19  1  1  0  0  0
 20  1  2  0  0  0  0
 21 23  1  0  0  0  0
 22  6  1  0  0  0  0
 23  7  1  0  0  0  0
 25  9  1  0  0  0  0
 26 25  1  0  0  0  0
 27 26  1  0  0  0  0
 29 30  2  0  0  0  0
 30 27  1  0  0  0  0
 30 28  1  0  0  0  0
 33 36  2  0  0  0  0
 33 34  1  0  0  0  0
 34 31  1  6  0  0  0
 34 32  1  0  0  0  0
 35 32  2  0  0  0  0
 35 38  1  0  0  0  0
 36 35  1  0  0  0  0
 37 38  1  0  0  0  0
M  END
>  <MODEL>
5

>  <REMARK>
 VINA RESULT:      -7.2      3.534      9.757
  Name = 
  7 active torsions:
  status: ('A' for Active; 'I' for Inactive)
    1  A    between atoms: N_5  and  C_12
    2  A    between atoms: N_5  and  C_24
    3  A    between atoms: C_7  and  N_16
    4  A    between atoms: N_16  and  C_25
    5  A    between atoms: C_24  and  C_30
    6  A    between atoms: C_26  and  O_29
    7  A    between atoms: C_30  and  C_38
                            x       y       z     vdW  Elec       q    Type
                         _______ _______ _______ _____ _____    ______ ____

>  <TORSDO>
F 7

$$$$
=
 OpenBabel11042417103D

 38 42  0  0  1  0  0  0  0  0999 V2000
  191.4650  173.9910  143.9520 C   0  0  0  0  0  3  0  0  0  0  0  0
  190.6990  174.5850  141.6570 C   0  0  2  0  0  3  0  0  0  0  0  0
  186.7460  177.0130  141.3480 C   0  0  0  0  0  2  0  0  0  0  0  0
  187.9240  176.2590  141.8940 C   0  0  0  0  0  0  0  0  0  0  0  0
  186.4210  178.2490  142.2020 C   0  0  2  0  0  3  0  0  0  0  0  0
  191.0170  176.9470  147.8200 C   0  0  0  0  0  0  0  0  0  0  0  0
  191.6850  175.9460  147.1780 N   0  0  0  0  0  0  0  0  0  0  0  0
  188.2300  175.0680  141.3590 C   0  0  0  0  0  3  0  0  0  0  0  0
  190.1600  172.3010  140.6670 C   0  0  0  0  0  0  0  0  0  0  0  0
  190.0280  175.8950  145.4750 C   0  0  0  0  0  3  0  0  0  0  0  0
  191.5560  177.5030  149.0870 C   0  0  0  0  0  1  0  0  0  0  0  0
  187.5820  177.0590  144.2040 C   0  0  2  0  0  3  0  0  0  0  0  0
  189.2590  174.1160  141.9030 C   0  0  1  0  0  3  0  0  0  0  0  0
  189.3430  176.9430  146.0810 C   0  0  0  0  0  0  0  0  0  0  0  0
  188.2020  177.5390  145.4460 N   0  0  0  0  0  2  0  0  0  0  0  0
  191.6270  173.3110  140.7330 S   0  0  0  0  0  0  0  0  0  0  0  0
  188.6190  176.8010  143.1060 C   0  0  0  0  0  2  0  0  0  0  0  0
  186.4380  177.9960  143.7290 C   0  0  1  0  0  3  0  0  0  0  0  0
  186.4690  179.2230  144.3970 O   0  0  0  0  0  1  0  0  0  0  0  0
  191.3770  174.8890  142.9610 C   0  0  0  0  0  3  0  0  0  0  0  0
  192.0390  174.3680  145.2920 C   0  0  0  0  0  2  0  0  0  0  0  0
  189.8440  177.4770  147.2700 C   0  0  0  0  0  3  0  0  0  0  0  0
  191.2210  175.4100  146.0170 C   0  0  0  0  0  0  0  0  0  0  0  0
  189.0890  172.7910  141.2550 C   0  0  0  0  0  3  0  0  0  0  0  0
  190.1190  171.0390  140.0040 N   0  0  0  0  0  2  0  0  0  0  0  0
  191.1610  170.0390  140.1730 C   0  0  0  0  0  2  0  0  0  0  0  0
  190.8480  169.1550  141.3690 C   0  0  0  0  0  2  0  0  0  0  0  0
  192.3400  168.1760  142.9490 O   0  0  0  0  0  1  0  0  0  0  0  0
  192.5580  170.4380  142.6540 O   0  0  0  0  0  0  0  0  0  0  0  0
  191.9460  169.2240  142.3740 C   0  0  0  0  0  0  0  0  0  0  0  0
  185.1880  178.9060  141.7610 N   0  0  0  0  0  2  0  0  0  0  0  0
  183.0050  178.4920  142.6200 N   0  0  0  0  0  0  0  0  0  0  0  0
  183.4730  177.8510  140.3830 C   0  0  0  0  0  3  0  0  0  0  0  0
  184.0680  177.9680  141.7840 C   0  0  1  0  0  3  0  0  0  0  0  0
  181.9240  178.6700  141.9490 C   0  0  0  0  0  0  0  0  0  0  0  0
  182.0270  178.3060  140.5150 C   0  0  0  0  0  3  0  0  0  0  0  0
  179.4810  178.9510  141.9970 C   0  0  0  0  0  1  0  0  0  0  0  0
  180.7700  179.1670  142.5540 O   0  0  0  0  0  0  0  0  0  0  0  0
  1 21  1  0  0  0  0
  2 13  1  0  0  0  0
  2 20  1  1  0  0  0
  3  4  1  0  0  0  0
  3  5  1  0  0  0  0
  4 17  1  0  0  0  0
  5 31  1  6  0  0  0
  5 18  1  0  0  0  0
  6 11  1  0  0  0  0
  7  6  2  0  0  0  0
  8  4  2  0  0  0  0
  8 13  1  0  0  0  0
  9 16  1  0  0  0  0
  9 24  2  0  0  0  0
 10 23  2  0  0  0  0
 10 14  1  0  0  0  0
 12 17  1  6  0  0  0
 12 15  1  0  0  0  0
 13 24  1  6  0  0  0
 14 22  2  0  0  0  0
 15 14  1  0  0  0  0
 16  2  1  0  0  0  0
 18 12  1  0  0  0  0
 18 19  1  1  0  0  0
 20  1  2  0  0  0  0
 21 23  1  0  0  0  0
 22  6  1  0  0  0  0
 23  7  1  0  0  0  0
 25 26  1  0  0  0  0
 25  9  1  0  0  0  0
 26 27  1  0  0  0  0
 27 30  1  0  0  0  0
 30 29  2  0  0  0  0
 30 28  1  0  0  0  0
 33 36  2  0  0  0  0
 33 34  1  0  0  0  0
 34 31  1  6  0  0  0
 34 32  1  0  0  0  0
 35 38  1  0  0  0  0
 35 32  2  0  0  0  0
 36 35  1  0  0  0  0
 37 38  1  0  0  0  0
M  END
>  <MODEL>
6

>  <REMARK>
 VINA RESULT:      -7.1      3.375      9.755
  Name = 
  7 active torsions:
  status: ('A' for Active; 'I' for Inactive)
    1  A    between atoms: N_5  and  C_12
    2  A    between atoms: N_5  and  C_24
    3  A    between atoms: C_7  and  N_16
    4  A    between atoms: N_16  and  C_25
    5  A    between atoms: C_24  and  C_30
    6  A    between atoms: C_26  and  O_29
    7  A    between atoms: C_30  and  C_38
                            x       y       z     vdW  Elec       q    Type
                         _______ _______ _______ _____ _____    ______ ____

>  <TORSDO>
F 7

$$$$
=
 OpenBabel11042417103D

 38 42  0  0  1  0  0  0  0  0999 V2000
  188.9740  177.2920  144.2270 C   0  0  0  0  0  3  0  0  0  0  0  0
  187.4200  175.7720  143.0100 C   0  0  2  0  0  3  0  0  0  0  0  0
  189.3110  173.0240  139.7720 C   0  0  0  0  0  2  0  0  0  0  0  0
  189.1360  174.0490  140.8550 C   0  0  0  0  0  0  0  0  0  0  0  0
  190.5890  172.1950  139.9800 C   0  0  2  0  0  3  0  0  0  0  0  0
  193.5200  176.0580  145.5350 C   0  0  0  0  0  0  0  0  0  0  0  0
  192.3920  176.7900  145.7590 N   0  0  0  0  0  0  0  0  0  0  0  0
  188.1610  174.9590  140.7280 C   0  0  0  0  0  3  0  0  0  0  0  0
  185.9630  177.4170  141.7240 C   0  0  0  0  0  0  0  0  0  0  0  0
  191.4420  176.0000  143.7280 C   0  0  0  0  0  3  0  0  0  0  0  0
  194.6370  176.1010  146.5130 C   0  0  0  0  0  1  0  0  0  0  0  0
  191.5500  174.1860  141.3510 C   0  0  2  0  0  3  0  0  0  0  0  0
  187.9670  176.1490  141.6270 C   0  0  1  0  0  3  0  0  0  0  0  0
  192.5600  175.2080  143.4890 C   0  0  0  0  0  0  0  0  0  0  0  0
  192.5920  174.2980  142.3810 N   0  0  0  0  0  2  0  0  0  0  0  0
  185.8640  176.6700  143.3390 S   0  0  0  0  0  0  0  0  0  0  0  0
  190.1470  174.0990  141.9600 C   0  0  0  0  0  2  0  0  0  0  0  0
  191.8380  173.0250  140.3600 C   0  0  1  0  0  3  0  0  0  0  0  0
  192.8280  172.1680  140.8480 O   0  0  0  0  0  1  0  0  0  0  0  0
  188.4370  176.0740  144.0720 C   0  0  0  0  0  3  0  0  0  0  0  0
  190.0830  177.5320  145.2170 C   0  0  0  0  0  2  0  0  0  0  0  0
  193.6150  175.2370  144.4050 C   0  0  0  0  0  3  0  0  0  0  0  0
  191.3480  176.7780  144.8850 C   0  0  0  0  0  0  0  0  0  0  0  0
  187.0080  177.0890  140.9930 C   0  0  0  0  0  3  0  0  0  0  0  0
  184.9680  178.3080  141.2200 N   0  0  0  0  0  2  0  0  0  0  0  0
  183.5960  178.2900  141.7010 C   0  0  0  0  0  2  0  0  0  0  0  0
  182.6320  178.2330  140.5290 C   0  0  0  0  0  2  0  0  0  0  0  0
  181.0390  179.0430  142.1060 O   0  0  0  0  0  1  0  0  0  0  0  0
  180.1680  178.2470  140.1410 O   0  0  0  0  0  0  0  0  0  0  0  0
  181.2400  178.5220  140.9780 C   0  0  0  0  0  0  0  0  0  0  0  0
  190.8420  171.2950  138.8520 N   0  0  0  0  0  2  0  0  0  0  0  0
  191.3670  172.4370  136.8290 N   0  0  0  0  0  0  0  0  0  0  0  0
  189.7220  170.7270  136.7590 C   0  0  0  0  0  3  0  0  0  0  0  0
  190.2980  171.8520  137.6150 C   0  0  1  0  0  3  0  0  0  0  0  0
  191.4800  171.8600  135.6860 C   0  0  0  0  0  0  0  0  0  0  0  0
  190.5130  170.7580  135.4590 C   0  0  0  0  0  3  0  0  0  0  0  0
  193.0990  173.5180  134.8630 C   0  0  0  0  0  1  0  0  0  0  0  0
  192.4440  172.2620  134.7630 O   0  0  0  0  0  0  0  0  0  0  0  0
  1 21  1  0  0  0  0
  2 16  1  0  0  0  0
  2 20  1  1  0  0  0
  3  5  1  0  0  0  0
  3  4  1  0  0  0  0
  4 17  1  0  0  0  0
  5 31  1  6  0  0  0
  5 18  1  0  0  0  0
  6  7  1  0  0  0  0
  6 11  1  0  0  0  0
  8  4  2  0  0  0  0
  9 16  1  0  0  0  0
 10 23  1  0  0  0  0
 12 17  1  1  0  0  0
 12 15  1  0  0  0  0
 13  8  1  6  0  0  0
 13  2  1  0  0  0  0
 14 10  2  0  0  0  0
 14 22  1  0  0  0  0
 15 14  1  0  0  0  0
 18 19  1  1  0  0  0
 18 12  1  0  0  0  0
 20  1  2  0  0  0  0
 22  6  2  0  0  0  0
 23 21  1  0  0  0  0
 23  7  2  0  0  0  0
 24 13  1  0  0  0  0
 24  9  2  0  0  0  0
 25 26  1  0  0  0  0
 25  9  1  0  0  0  0
 27 30  1  0  0  0  0
 27 26  1  0  0  0  0
 29 30  2  0  0  0  0
 30 28  1  0  0  0  0
 32 34  1  0  0  0  0
 33 34  1  0  0  0  0
 34 31  1  1  0  0  0
 35 32  2  0  0  0  0
 36 35  1  0  0  0  0
 36 33  2  0  0  0  0
 38 37  1  0  0  0  0
 38 35  1  0  0  0  0
M  END
>  <MODEL>
7

>  <REMARK>
 VINA RESULT:      -7.1      3.336      6.954
  Name = 
  7 active torsions:
  status: ('A' for Active; 'I' for Inactive)
    1  A    between atoms: N_5  and  C_12
    2  A    between atoms: N_5  and  C_24
    3  A    between atoms: C_7  and  N_16
    4  A    between atoms: N_16  and  C_25
    5  A    between atoms: C_24  and  C_30
    6  A    between atoms: C_26  and  O_29
    7  A    between atoms: C_30  and  C_38
                            x       y       z     vdW  Elec       q    Type
                         _______ _______ _______ _____ _____    ______ ____

>  <TORSDO>
F 7

$$$$
=
 OpenBabel11042417103D

 38 42  0  0  1  0  0  0  0  0999 V2000
  191.4880  176.2660  145.9010 C   0  0  0  0  0  3  0  0  0  0  0  0
  189.3480  175.2140  145.1810 C   0  0  2  0  0  3  0  0  0  0  0  0
  189.5040  172.6020  141.3400 C   0  0  0  0  0  2  0  0  0  0  0  0
  189.8980  173.4960  142.4790 C   0  0  0  0  0  0  0  0  0  0  0  0
  190.5780  171.5370  141.0610 C   0  0  2  0  0  3  0  0  0  0  0  0
  195.8470  174.0810  145.5490 C   0  0  0  0  0  0  0  0  0  0  0  0
  195.0270  174.9700  146.1780 N   0  0  0  0  0  0  0  0  0  0  0  0
  189.1470  174.5760  142.7380 C   0  0  0  0  0  3  0  0  0  0  0  0
  187.9420  177.2430  144.5530 C   0  0  0  0  0  0  0  0  0  0  0  0
  193.3450  174.6250  144.5350 C   0  0  0  0  0  3  0  0  0  0  0  0
  197.1970  173.8000  146.1000 C   0  0  0  0  0  1  0  0  0  0  0  0
  192.3170  173.1340  142.1520 C   0  0  2  0  0  3  0  0  0  0  0  0
  189.5000  175.6580  143.7200 C   0  0  1  0  0  3  0  0  0  0  0  0
  194.1390  173.6820  143.8900 C   0  0  0  0  0  0  0  0  0  0  0  0
  193.6280  172.9270  142.7820 N   0  0  0  0  0  2  0  0  0  0  0  0
  188.1990  176.3290  146.0620 S   0  0  0  0  0  0  0  0  0  0  0  0
  191.1910  173.2250  143.1870 C   0  0  0  0  0  2  0  0  0  0  0  0
  192.0290  172.0750  141.0530 C   0  0  1  0  0  3  0  0  0  0  0  0
  192.9180  171.0000  141.1320 O   0  0  0  0  0  1  0  0  0  0  0  0
  190.6860  175.1940  145.8610 C   0  0  0  0  0  3  0  0  0  0  0  0
  192.8760  176.1760  146.4800 C   0  0  0  0  0  2  0  0  0  0  0  0
  195.4080  173.4050  144.4040 C   0  0  0  0  0  3  0  0  0  0  0  0
  193.7850  175.2550  145.7020 C   0  0  0  0  0  0  0  0  0  0  0  0
  188.6120  176.8270  143.4990 C   0  0  0  0  0  3  0  0  0  0  0  0
  187.0510  178.3540  144.4630 N   0  0  0  0  0  2  0  0  0  0  0  0
  185.6290  178.1880  144.2050 C   0  0  0  0  0  2  0  0  0  0  0  0
  184.8180  178.9040  145.2710 C   0  0  0  0  0  2  0  0  0  0  0  0
  184.6260  178.6600  147.6350 O   0  0  0  0  0  1  0  0  0  0  0  0
  184.8160  176.7060  146.4510 O   0  0  0  0  0  0  0  0  0  0  0  0
  184.7580  178.0910  146.5200 C   0  0  0  0  0  0  0  0  0  0  0  0
  190.2700  170.7550  139.8610 N   0  0  0  0  0  2  0  0  0  0  0  0
  191.4890  170.5360  137.8260 N   0  0  0  0  0  0  0  0  0  0  0  0
  189.5270  171.8730  137.8230 C   0  0  0  0  0  3  0  0  0  0  0  0
  190.7310  171.4490  138.6610 C   0  0  1  0  0  3  0  0  0  0  0  0
  190.9410  170.3890  136.6730 C   0  0  0  0  0  0  0  0  0  0  0  0
  189.6940  171.1690  136.4840 C   0  0  0  0  0  3  0  0  0  0  0  0
  192.8900  169.5740  135.4150 C   0  0  0  0  0  1  0  0  0  0  0  0
  191.5010  169.5550  135.7060 O   0  0  0  0  0  0  0  0  0  0  0  0
  1 21  1  0  0  0  0
  2 20  1  1  0  0  0
  2 16  1  0  0  0  0
  3  4  1  0  0  0  0
  4  8  2  0  0  0  0
  4 17  1  0  0  0  0
  5 31  1  6  0  0  0
  5  3  1  0  0  0  0
  6 11  1  0  0  0  0
  6  7  1  0  0  0  0
  9 16  1  0  0  0  0
 10 23  1  0  0  0  0
 12 15  1  0  0  0  0
 12 17  1  1  0  0  0
 13  8  1  6  0  0  0
 13  2  1  0  0  0  0
 14 22  1  0  0  0  0
 14 10  2  0  0  0  0
 15 14  1  0  0  0  0
 18  5  1  0  0  0  0
 18 19  1  1  0  0  0
 18 12  1  0  0  0  0
 20  1  2  0  0  0  0
 22  6  2  0  0  0  0
 23  7  2  0  0  0  0
 23 21  1  0  0  0  0
 24 13  1  0  0  0  0
 24  9  2  0  0  0  0
 25  9  1  0  0  0  0
 26 25  1  0  0  0  0
 26 27  1  0  0  0  0
 27 30  1  0  0  0  0
 29 30  2  0  0  0  0
 30 28  1  0  0  0  0
 32 34  1  0  0  0  0
 33 34  1  0  0  0  0
 34 31  1  1  0  0  0
 35 32  2  0  0  0  0
 36 35  1  0  0  0  0
 36 33  2  0  0  0  0
 37 38  1  0  0  0  0
 38 35  1  0  0  0  0
M  END
>  <MODEL>
8

>  <REMARK>
 VINA RESULT:      -7.0      2.573      6.626
  Name = 
  7 active torsions:
  status: ('A' for Active; 'I' for Inactive)
    1  A    between atoms: N_5  and  C_12
    2  A    between atoms: N_5  and  C_24
    3  A    between atoms: C_7  and  N_16
    4  A    between atoms: N_16  and  C_25
    5  A    between atoms: C_24  and  C_30
    6  A    between atoms: C_26  and  O_29
    7  A    between atoms: C_30  and  C_38
                            x       y       z     vdW  Elec       q    Type
                         _______ _______ _______ _____ _____    ______ ____

>  <TORSDO>
F 7

$$$$
=
 OpenBabel11042417103D

 38 42  0  0  1  0  0  0  0  0999 V2000
  188.2050  175.6210  142.2300 C   0  0  0  0  0  3  0  0  0  0  0  0
  189.8320  176.4330  143.9340 C   0  0  2  0  0  3  0  0  0  0  0  0
  193.5770  173.7780  144.6640 C   0  0  0  0  0  2  0  0  0  0  0  0
  192.2730  174.2980  144.1320 C   0  0  0  0  0  0  0  0  0  0  0  0
  194.4460  173.1810  143.5440 C   0  0  2  0  0  3  0  0  0  0  0  0
  189.5010  173.3890  138.0780 C   0  0  0  0  0  0  0  0  0  0  0  0
  188.6170  174.1660  138.7680 N   0  0  0  0  0  0  0  0  0  0  0  0
  191.3360  174.6980  145.0030 C   0  0  0  0  0  3  0  0  0  0  0  0
  188.4730  176.2790  146.0830 C   0  0  0  0  0  0  0  0  0  0  0  0
  189.8460  173.8330  140.7750 C   0  0  0  0  0  3  0  0  0  0  0  0
  189.3020  173.1510  136.6260 C   0  0  0  0  0  1  0  0  0  0  0  0
  192.2630  172.7780  142.1880 C   0  0  2  0  0  3  0  0  0  0  0  0
  189.9260  175.0750  144.6430 C   0  0  1  0  0  3  0  0  0  0  0  0
  190.7890  173.0700  140.0950 C   0  0  0  0  0  0  0  0  0  0  0  0
  191.9760  172.6090  140.7570 N   0  0  0  0  0  2  0  0  0  0  0  0
  188.7130  177.5470  144.8540 S   0  0  0  0  0  0  0  0  0  0  0  0
  192.0200  174.2160  142.6570 C   0  0  0  0  0  2  0  0  0  0  0  0
  193.6820  172.2660  142.5580 C   0  0  1  0  0  3  0  0  0  0  0  0
  194.4670  172.0630  141.4190 O   0  0  0  0  0  1  0  0  0  0  0  0
  189.3510  176.2510  142.5240 C   0  0  0  0  0  3  0  0  0  0  0  0
  187.8150  175.3440  140.8020 C   0  0  0  0  0  2  0  0  0  0  0  0
  190.6150  172.8440  138.7270 C   0  0  0  0  0  3  0  0  0  0  0  0
  188.7650  174.4050  140.0990 C   0  0  0  0  0  0  0  0  0  0  0  0
  189.1080  175.1430  145.8790 C   0  0  0  0  0  3  0  0  0  0  0  0
  187.6610  176.4670  147.2410 N   0  0  0  0  0  2  0  0  0  0  0  0
  186.4970  177.3390  147.2390 C   0  0  0  0  0  2  0  0  0  0  0  0
  185.4350  176.7900  146.3030 C   0  0  0  0  0  2  0  0  0  0  0  0
  184.0790  178.7450  146.1480 O   0  0  0  0  0  1  0  0  0  0  0  0
  184.9790  178.0070  144.1730 O   0  0  0  0  0  0  0  0  0  0  0  0
  184.7830  177.8950  145.5430 C   0  0  0  0  0  0  0  0  0  0  0  0
  195.6520  172.5420  144.0750 N   0  0  0  0  0  2  0  0  0  0  0  0
  194.7980  170.7590  145.4050 N   0  0  0  0  0  0  0  0  0  0  0  0
  196.7690  171.8620  146.1360 C   0  0  0  0  0  3  0  0  0  0  0  0
  195.4260  172.0660  145.4380 C   0  0  1  0  0  3  0  0  0  0  0  0
  195.5330  169.8700  145.9720 C   0  0  0  0  0  0  0  0  0  0  0  0
  196.8160  170.3870  146.5060 C   0  0  0  0  0  3  0  0  0  0  0  0
  193.9220  168.1660  146.7130 C   0  0  0  0  0  1  0  0  0  0  0  0
  195.1240  168.5400  146.0570 O   0  0  0  0  0  0  0  0  0  0  0  0
  1 20  2  0  0  0  0
  2 20  1  6  0  0  0
  2 13  1  0  0  0  0
  2 16  1  0  0  0  0
  4  3  1  0  0  0  0
  4  8  2  0  0  0  0
  5 31  1  1  0  0  0
  5  3  1  0  0  0  0
  6 22  2  0  0  0  0
  6  7  1  0  0  0  0
  7 23  2  0  0  0  0
  9 25  1  0  0  0  0
 11  6  1  0  0  0  0
 12 18  1  0  0  0  0
 12 17  1  6  0  0  0
 13  8  1  1  0  0  0
 13 24  1  0  0  0  0
 14 15  1  0  0  0  0
 14 10  2  0  0  0  0
 15 12  1  0  0  0  0
 16  9  1  0  0  0  0
 17  4  1  0  0  0  0
 18 19  1  6  0  0  0
 18  5  1  0  0  0  0
 21  1  1  0  0  0  0
 22 14  1  0  0  0  0
 23 10  1  0  0  0  0
 23 21  1  0  0  0  0
 24  9  2  0  0  0  0
 26 25  1  0  0  0  0
 27 26  1  0  0  0  0
 29 30  2  0  0  0  0
 30 28  1  0  0  0  0
 30 27  1  0  0  0  0
 32 34  1  0  0  0  0
 32 35  2  0  0  0  0
 33 36  2  0  0  0  0
 34 31  1  6  0  0  0
 34 33  1  0  0  0  0
 35 38  1  0  0  0  0
 35 36  1  0  0  0  0
 38 37  1  0  0  0  0
M  END
>  <MODEL>
9

>  <REMARK>
 VINA RESULT:      -6.9      2.825      3.578
  Name = 
  7 active torsions:
  status: ('A' for Active; 'I' for Inactive)
    1  A    between atoms: N_5  and  C_12
    2  A    between atoms: N_5  and  C_24
    3  A    between atoms: C_7  and  N_16
    4  A    between atoms: N_16  and  C_25
    5  A    between atoms: C_24  and  C_30
    6  A    between atoms: C_26  and  O_29
    7  A    between atoms: C_30  and  C_38
                            x       y       z     vdW  Elec       q    Type
                         _______ _______ _______ _____ _____    ______ ____

>  <TORSDO>
F 7

$$$$
