=
 OpenBabel11042416543D

 35 37  0  0  1  0  0  0  0  0999 V2000
  188.0520  177.7330  144.2020 C   0  0  0  0  0  2  0  0  0  0  0  0
  188.1550  175.3280  139.9730 F   0  0  0  0  0  0  0  0  0  0  0  0
  186.5150  176.9780  140.3010 N   0  0  0  0  0  0  0  0  0  0  0  0
  185.9130  177.9380  141.0540 C   0  0  0  0  0  0  0  0  0  0  0  0
  187.5010  177.4980  142.8320 C   0  0  0  0  0  0  0  0  0  0  0  0
  184.7970  178.6460  140.5220 N   0  0  0  0  0  1  0  0  0  0  0  0
  187.5840  176.2740  140.7570 C   0  0  0  0  0  0  0  0  0  0  0  0
  188.0940  176.5220  142.0310 C   0  0  0  0  0  3  0  0  0  0  0  0
  186.3960  178.2260  142.3430 C   0  0  0  0  0  0  0  0  0  0  0  0
  185.7510  179.2970  143.1710 C   0  0  0  0  0  2  0  0  0  0  0  0
  184.5130  178.7580  143.8630 C   0  0  0  0  0  2  0  0  0  0  0  0
  185.7570  179.4360  145.9660 O   0  0  0  0  0  0  0  0  0  0  0  0
  184.7380  178.7410  145.3330 C   0  0  0  0  0  0  0  0  0  0  0  0
  184.4890  178.3010  147.4460 N   0  0  0  0  0  2  0  0  0  0  0  0
  183.9980  178.0860  146.1540 N   0  0  0  0  0  0  0  0  0  0  0  0
  185.6380  179.1940  147.3610 C   0  0  1  0  0  3  0  0  0  0  0  0
  186.8840  178.4910  147.8660 C   0  0  0  0  0  2  0  0  0  0  0  0
  187.5380  179.2970  148.7970 O   0  0  0  0  0  1  0  0  0  0  0  0
  189.5020  177.2870  144.2760 C   0  0  0  0  0  2  0  0  0  0  0  0
  189.6280  174.2780  146.5580 C   0  0  0  0  0  2  0  0  0  0  0  0
  190.2340  175.1060  147.6930 C   0  0  0  0  0  2  0  0  0  0  0  0
  191.1130  176.7010  145.9090 C   0  0  0  0  0  2  0  0  0  0  0  0
  189.7170  176.5280  145.4980 N   0  0  0  0  0  0  0  0  0  0  0  0
  191.4290  175.9210  147.1940 C   0  0  0  0  0  2  0  0  0  0  0  0
  189.4160  175.1010  145.2770 C   0  0  1  0  0  3  0  0  0  0  0  0
  190.3980  174.3640  143.9160 S   0  0  0  0  0  0  0  0  0  0  0  0
  189.5940  172.7500  144.1200 C   0  0  0  0  0  2  0  0  0  0  0  0
  188.9940  172.3140  142.7990 C   0  0  0  0  0  2  0  0  0  0  0  0
  189.8260  172.8480  141.6460 C   0  0  0  0  0  2  0  0  0  0  0  0
  190.1260  172.6310  139.3370 C   0  0  0  0  0  1  0  0  0  0  0  0
  189.8430  171.8880  140.5540 N   0  0  0  0  0  0  0  0  0  0  0  0
  190.6570  169.4500  141.7020 O   0  0  0  0  0  1  0  0  0  0  0  0
  191.1910  170.7970  140.8290 P   0  0  0  0  0  0  0  0  0  0  0  0
  192.2830  171.4950  141.6100 O   0  0  0  0  0  1  0  0  0  0  0  0
  191.8100  170.2810  139.3420 O   0  0  0  0  0  0  0  0  0  0  0  0
  1 19  1  0  0  0  0
  2  7  1  0  0  0  0
  3  7  2  0  0  0  0
  3  4  1  0  0  0  0
  4  9  2  0  0  0  0
  5  1  1  0  0  0  0
  6  4  1  0  0  0  0
  7  8  1  0  0  0  0
  8  5  2  0  0  0  0
  9  5  1  0  0  0  0
  9 10  1  0  0  0  0
 10 11  1  0  0  0  0
 11 13  1  0  0  0  0
 12 16  1  0  0  0  0
 13 12  1  0  0  0  0
 13 15  2  0  0  0  0
 15 14  1  0  0  0  0
 16 14  1  0  0  0  0
 16 17  1  6  0  0  0
 17 18  1  0  0  0  0
 19 23  1  0  0  0  0
 20 21  1  0  0  0  0
 22 24  1  0  0  0  0
 23 22  1  0  0  0  0
 24 21  1  0  0  0  0
 25 26  1  6  0  0  0
 25 23  1  0  0  0  0
 25 20  1  0  0  0  0
 26 27  1  0  0  0  0
 28 27  1  0  0  0  0
 29 28  1  0  0  0  0
 30 31  1  0  0  0  0
 31 33  1  0  0  0  0
 31 29  1  0  0  0  0
 33 34  1  0  0  0  0
 33 32  1  0  0  0  0
 35 33  2  0  0  0  0
M  END
>  <MODEL>
1

>  <REMARK>
 VINA RESULT:      -6.5      0.000      0.000
  Name = 
  13 active torsions:
  status: ('A' for Active; 'I' for Inactive)
    1  A    between atoms: C_2  and  C_12
    2  A    between atoms: C_2  and  C_22
    3  A    between atoms: S_6  and  C_22
    4  A    between atoms: S_6  and  C_28
    5  A    between atoms: C_9  and  C_34
    6  A    between atoms: C_10  and  N_23
    7  A    between atoms: C_10  and  C_35
    8  A    between atoms: C_12  and  N_21
    9  A    between atoms: C_13  and  C_14
   10  A    between atoms: C_14  and  C_17
   11  A    between atoms: P_15  and  N_21
   12  A    between atoms: C_17  and  C_32
   13  A    between atoms: C_20  and  C_35
                            x       y       z     vdW  Elec       q    Type
                         _______ _______ _______ _____ _____    ______ ____

>  <TORSDO>
F 13

$$$$
=
 OpenBabel11042416543D

 35 37  0  0  1  0  0  0  0  0999 V2000
  189.0380  177.3660  144.6780 C   0  0  0  0  0  2  0  0  0  0  0  0
  185.9130  177.6040  148.4010 F   0  0  0  0  0  0  0  0  0  0  0  0
  185.1820  178.2440  146.2620 N   0  0  0  0  0  0  0  0  0  0  0  0
  185.3880  178.4330  144.9310 C   0  0  0  0  0  0  0  0  0  0  0  0
  187.6720  177.6690  145.2050 C   0  0  0  0  0  0  0  0  0  0  0  0
  184.3220  178.9190  144.1210 N   0  0  0  0  0  1  0  0  0  0  0  0
  186.1630  177.7800  147.0810 C   0  0  0  0  0  0  0  0  0  0  0  0
  187.4240  177.4850  146.5660 C   0  0  0  0  0  3  0  0  0  0  0  0
  186.6430  178.1450  144.3660 C   0  0  0  0  0  0  0  0  0  0  0  0
  186.8720  178.3310  142.8960 C   0  0  0  0  0  2  0  0  0  0  0  0
  186.1400  177.2630  142.1050 C   0  0  0  0  0  2  0  0  0  0  0  0
  187.9460  176.0250  140.8250 O   0  0  0  0  0  0  0  0  0  0  0  0
  187.0480  176.1070  141.8790 C   0  0  0  0  0  0  0  0  0  0  0  0
  188.0560  174.2010  142.1470 N   0  0  0  0  0  2  0  0  0  0  0  0
  187.0910  175.0800  142.6500 N   0  0  0  0  0  0  0  0  0  0  0  0
  188.6470  174.7970  140.9550 C   0  0  1  0  0  3  0  0  0  0  0  0
  188.3740  173.9220  139.7450 C   0  0  0  0  0  2  0  0  0  0  0  0
  189.4420  174.0020  138.8530 O   0  0  0  0  0  1  0  0  0  0  0  0
  189.8150  176.5170  145.6700 C   0  0  0  0  0  2  0  0  0  0  0  0
  191.9520  173.6850  144.3720 C   0  0  0  0  0  2  0  0  0  0  0  0
  190.7210  172.8220  144.0920 C   0  0  0  0  0  2  0  0  0  0  0  0
  189.5030  174.1780  145.8740 C   0  0  0  0  0  2  0  0  0  0  0  0
  190.1310  175.2300  145.0690 N   0  0  0  0  0  0  0  0  0  0  0  0
  189.7970  172.7800  145.3100 C   0  0  0  0  0  2  0  0  0  0  0  0
  191.5920  175.0360  145.0120 C   0  0  1  0  0  3  0  0  0  0  0  0
  192.3970  175.1610  146.6530 S   0  0  0  0  0  0  0  0  0  0  0  0
  193.6700  176.2870  146.0180 C   0  0  0  0  0  2  0  0  0  0  0  0
  195.0150  175.5900  146.0370 C   0  0  0  0  0  2  0  0  0  0  0  0
  195.3940  175.1470  144.6340 C   0  0  0  0  0  2  0  0  0  0  0  0
  196.8870  176.4710  143.4160 C   0  0  0  0  0  1  0  0  0  0  0  0
  195.4840  176.3000  143.7520 N   0  0  0  0  0  0  0  0  0  0  0  0
  193.0450  176.4760  142.3550 O   0  0  0  0  0  1  0  0  0  0  0  0
  194.6330  175.9000  142.2680 P   0  0  0  0  0  0  0  0  0  0  0  0
  194.6090  174.4010  142.0630 O   0  0  0  0  0  1  0  0  0  0  0  0
  195.4140  176.6300  140.9580 O   0  0  0  0  0  0  0  0  0  0  0  0
  1  5  1  0  0  0  0
  1 19  1  0  0  0  0
  3  7  1  0  0  0  0
  4  3  2  0  0  0  0
  5  8  1  0  0  0  0
  6  4  1  0  0  0  0
  7  2  1  0  0  0  0
  8  7  2  0  0  0  0
  9  4  1  0  0  0  0
  9  5  2  0  0  0  0
 10  9  1  0  0  0  0
 11 10  1  0  0  0  0
 12 16  1  0  0  0  0
 12 13  1  0  0  0  0
 13 11  1  0  0  0  0
 13 15  2  0  0  0  0
 14 15  1  0  0  0  0
 16 17  1  6  0  0  0
 16 14  1  0  0  0  0
 18 17  1  0  0  0  0
 20 25  1  0  0  0  0
 21 20  1  0  0  0  0
 21 24  1  0  0  0  0
 23 19  1  0  0  0  0
 23 22  1  0  0  0  0
 24 22  1  0  0  0  0
 25 23  1  0  0  0  0
 25 26  1  1  0  0  0
 27 28  1  0  0  0  0
 27 26  1  0  0  0  0
 29 28  1  0  0  0  0
 30 31  1  0  0  0  0
 31 29  1  0  0  0  0
 33 32  1  0  0  0  0
 33 31  1  0  0  0  0
 34 33  1  0  0  0  0
 35 33  2  0  0  0  0
M  END
>  <MODEL>
2

>  <REMARK>
 VINA RESULT:      -6.5      3.598      5.846
  Name = 
  13 active torsions:
  status: ('A' for Active; 'I' for Inactive)
    1  A    between atoms: C_2  and  C_12
    2  A    between atoms: C_2  and  C_22
    3  A    between atoms: S_6  and  C_22
    4  A    between atoms: S_6  and  C_28
    5  A    between atoms: C_9  and  C_34
    6  A    between atoms: C_10  and  N_23
    7  A    between atoms: C_10  and  C_35
    8  A    between atoms: C_12  and  N_21
    9  A    between atoms: C_13  and  C_14
   10  A    between atoms: C_14  and  C_17
   11  A    between atoms: P_15  and  N_21
   12  A    between atoms: C_17  and  C_32
   13  A    between atoms: C_20  and  C_35
                            x       y       z     vdW  Elec       q    Type
                         _______ _______ _______ _____ _____    ______ ____

>  <TORSDO>
F 13

$$$$
=
 OpenBabel11042416543D

 35 37  0  0  1  0  0  0  0  0999 V2000
  188.4330  177.5960  145.2590 C   0  0  0  0  0  2  0  0  0  0  0  0
  184.4870  178.5670  147.9360 F   0  0  0  0  0  0  0  0  0  0  0  0
  184.2900  178.5300  145.5950 N   0  0  0  0  0  0  0  0  0  0  0  0
  184.8130  178.3650  144.3500 C   0  0  0  0  0  0  0  0  0  0  0  0
  186.9740  177.9100  145.3490 C   0  0  0  0  0  0  0  0  0  0  0  0
  183.9690  178.5140  143.2120 N   0  0  0  0  0  1  0  0  0  0  0  0
  185.0490  178.3960  146.7150 C   0  0  0  0  0  0  0  0  0  0  0  0
  186.4040  178.0850  146.6100 C   0  0  0  0  0  3  0  0  0  0  0  0
  186.1740  178.0440  144.1950 C   0  0  0  0  0  0  0  0  0  0  0  0
  186.7530  177.8410  142.8270 C   0  0  0  0  0  2  0  0  0  0  0  0
  186.3200  176.5010  142.2620 C   0  0  0  0  0  2  0  0  0  0  0  0
  187.4800  174.2540  142.0630 O   0  0  0  0  0  0  0  0  0  0  0  0
  187.5170  175.6400  142.0630 C   0  0  0  0  0  0  0  0  0  0  0  0
  189.5700  175.0240  141.7110 N   0  0  0  0  0  2  0  0  0  0  0  0
  188.6970  176.1060  141.8640 N   0  0  0  0  0  0  0  0  0  0  0  0
  188.8000  173.7910  141.8240 C   0  0  1  0  0  3  0  0  0  0  0  0
  189.2820  172.9820  143.0140 C   0  0  0  0  0  2  0  0  0  0  0  0
  190.6660  173.0960  143.1340 O   0  0  0  0  0  1  0  0  0  0  0  0
  188.6690  176.1060  145.4360 C   0  0  0  0  0  2  0  0  0  0  0  0
  191.9700  175.0380  146.9310 C   0  0  0  0  0  2  0  0  0  0  0  0
  191.5880  175.6080  148.2980 C   0  0  0  0  0  2  0  0  0  0  0  0
  189.9990  177.1800  147.0750 C   0  0  0  0  0  2  0  0  0  0  0  0
  189.6800  175.8890  146.4590 N   0  0  0  0  0  0  0  0  0  0  0  0
  191.0710  177.0410  148.1660 C   0  0  0  0  0  2  0  0  0  0  0  0
  190.8890  175.2850  145.8670 C   0  0  1  0  0  3  0  0  0  0  0  0
  191.5980  176.2880  144.5070 S   0  0  0  0  0  0  0  0  0  0  0  0
  193.2160  176.3730  145.3220 C   0  0  0  0  0  2  0  0  0  0  0  0
  194.3010  175.9990  144.3340 C   0  0  0  0  0  2  0  0  0  0  0  0
  195.4740  175.3640  145.0600 C   0  0  0  0  0  2  0  0  0  0  0  0
  197.5060  174.6140  144.1780 C   0  0  0  0  0  1  0  0  0  0  0  0
  196.0800  174.3350  144.2300 N   0  0  0  0  0  0  0  0  0  0  0  0
  196.9740  172.6950  146.3360 O   0  0  0  0  0  1  0  0  0  0  0  0
  195.8750  172.7990  145.0550 P   0  0  0  0  0  0  0  0  0  0  0  0
  196.1160  171.6510  144.0990 O   0  0  0  0  0  0  0  0  0  0  0  0
  194.3020  172.6950  145.6670 O   0  0  0  0  0  1  0  0  0  0  0  0
  1  5  1  0  0  0  0
  1 19  1  0  0  0  0
  3  7  1  0  0  0  0
  4  3  2  0  0  0  0
  5  8  1  0  0  0  0
  6  4  1  0  0  0  0
  7  2  1  0  0  0  0
  8  7  2  0  0  0  0
  9  4  1  0  0  0  0
  9  5  2  0  0  0  0
 10  9  1  0  0  0  0
 11 10  1  0  0  0  0
 12 13  1  0  0  0  0
 13 11  1  0  0  0  0
 14 16  1  0  0  0  0
 14 15  1  0  0  0  0
 15 13  2  0  0  0  0
 16 12  1  0  0  0  0
 16 17  1  1  0  0  0
 17 18  1  0  0  0  0
 19 23  1  0  0  0  0
 20 21  1  0  0  0  0
 22 24  1  0  0  0  0
 23 22  1  0  0  0  0
 24 21  1  0  0  0  0
 25 26  1  6  0  0  0
 25 23  1  0  0  0  0
 25 20  1  0  0  0  0
 26 27  1  0  0  0  0
 28 29  1  0  0  0  0
 28 27  1  0  0  0  0
 30 31  1  0  0  0  0
 31 33  1  0  0  0  0
 31 29  1  0  0  0  0
 33 35  1  0  0  0  0
 33 32  1  0  0  0  0
 34 33  2  0  0  0  0
M  END
>  <MODEL>
3

>  <REMARK>
 VINA RESULT:      -6.4      3.607      5.645
  Name = 
  13 active torsions:
  status: ('A' for Active; 'I' for Inactive)
    1  A    between atoms: C_2  and  C_12
    2  A    between atoms: C_2  and  C_22
    3  A    between atoms: S_6  and  C_22
    4  A    between atoms: S_6  and  C_28
    5  A    between atoms: C_9  and  C_34
    6  A    between atoms: C_10  and  N_23
    7  A    between atoms: C_10  and  C_35
    8  A    between atoms: C_12  and  N_21
    9  A    between atoms: C_13  and  C_14
   10  A    between atoms: C_14  and  C_17
   11  A    between atoms: P_15  and  N_21
   12  A    between atoms: C_17  and  C_32
   13  A    between atoms: C_20  and  C_35
                            x       y       z     vdW  Elec       q    Type
                         _______ _______ _______ _____ _____    ______ ____

>  <TORSDO>
F 13

$$$$
=
 OpenBabel11042416543D

 35 37  0  0  1  0  0  0  0  0999 V2000
  188.3740  175.8490  145.7780 C   0  0  0  0  0  2  0  0  0  0  0  0
  185.4770  179.1050  147.9420 F   0  0  0  0  0  0  0  0  0  0  0  0
  185.6860  179.1490  145.6020 N   0  0  0  0  0  0  0  0  0  0  0  0
  186.1930  178.6700  144.4340 C   0  0  0  0  0  0  0  0  0  0  0  0
  187.4230  176.9990  145.6870 C   0  0  0  0  0  0  0  0  0  0  0  0
  185.8180  179.2860  143.2050 N   0  0  0  0  0  1  0  0  0  0  0  0
  186.0070  178.5990  146.8030 C   0  0  0  0  0  0  0  0  0  0  0  0
  186.8820  177.5150  146.8650 C   0  0  0  0  0  3  0  0  0  0  0  0
  187.0750  177.5750  144.4470 C   0  0  0  0  0  0  0  0  0  0  0  0
  187.6220  177.0290  143.1630 C   0  0  0  0  0  2  0  0  0  0  0  0
  186.7570  175.8880  142.6590 C   0  0  0  0  0  2  0  0  0  0  0  0
  187.5540  173.5290  142.1760 O   0  0  0  0  0  0  0  0  0  0  0  0
  187.6120  174.8960  141.9530 C   0  0  0  0  0  0  0  0  0  0  0  0
  189.0880  174.0450  140.6050 N   0  0  0  0  0  2  0  0  0  0  0  0
  188.4780  175.2190  141.0600 N   0  0  0  0  0  0  0  0  0  0  0  0
  188.4950  172.9140  141.3080 C   0  0  1  0  0  3  0  0  0  0  0  0
  189.5530  172.1970  142.1270 C   0  0  0  0  0  2  0  0  0  0  0  0
  189.0670  171.9430  143.4090 O   0  0  0  0  0  1  0  0  0  0  0  0
  189.7500  176.3290  146.2040 C   0  0  0  0  0  2  0  0  0  0  0  0
  192.8970  176.9810  144.2170 C   0  0  0  0  0  2  0  0  0  0  0  0
  192.2070  176.5910  142.9080 C   0  0  0  0  0  2  0  0  0  0  0  0
  190.5950  175.1950  144.3040 C   0  0  0  0  0  2  0  0  0  0  0  0
  190.6040  176.4660  145.0330 N   0  0  0  0  0  0  0  0  0  0  0  0
  191.4830  175.2510  143.0520 C   0  0  0  0  0  2  0  0  0  0  0  0
  191.9770  176.8220  145.4380 C   0  0  1  0  0  3  0  0  0  0  0  0
  192.7180  175.6130  146.5990 S   0  0  0  0  0  0  0  0  0  0  0  0
  194.4020  176.0340  146.0690 C   0  0  0  0  0  2  0  0  0  0  0  0
  195.2910  174.8140  146.1960 C   0  0  0  0  0  2  0  0  0  0  0  0
  195.9660  174.5200  144.8670 C   0  0  0  0  0  2  0  0  0  0  0  0
  195.6060  174.6730  142.5610 C   0  0  0  0  0  1  0  0  0  0  0  0
  194.9660  174.3480  143.8250 N   0  0  0  0  0  0  0  0  0  0  0  0
  193.0900  172.4010  144.6110 O   0  0  0  0  0  1  0  0  0  0  0  0
  194.5410  172.6450  143.7750 P   0  0  0  0  0  0  0  0  0  0  0  0
  195.6300  171.8110  144.4150 O   0  0  0  0  0  1  0  0  0  0  0  0
  194.3390  172.1620  142.1670 O   0  0  0  0  0  0  0  0  0  0  0  0
  1 19  1  0  0  0  0
  3  7  1  0  0  0  0
  4  9  1  0  0  0  0
  4  3  2  0  0  0  0
  5  1  1  0  0  0  0
  5  8  1  0  0  0  0
  6  4  1  0  0  0  0
  7  8  2  0  0  0  0
  7  2  1  0  0  0  0
  9  5  2  0  0  0  0
 10  9  1  0  0  0  0
 11 10  1  0  0  0  0
 13 12  1  0  0  0  0
 13 11  1  0  0  0  0
 14 15  1  0  0  0  0
 14 16  1  0  0  0  0
 15 13  2  0  0  0  0
 16 17  1  1  0  0  0
 16 12  1  0  0  0  0
 17 18  1  0  0  0  0
 20 25  1  0  0  0  0
 21 24  1  0  0  0  0
 21 20  1  0  0  0  0
 22 23  1  0  0  0  0
 23 25  1  0  0  0  0
 23 19  1  0  0  0  0
 24 22  1  0  0  0  0
 25 26  1  1  0  0  0
 27 28  1  0  0  0  0
 27 26  1  0  0  0  0
 29 28  1  0  0  0  0
 30 31  1  0  0  0  0
 31 29  1  0  0  0  0
 33 31  1  0  0  0  0
 33 34  1  0  0  0  0
 33 32  1  0  0  0  0
 35 33  2  0  0  0  0
M  END
>  <MODEL>
4

>  <REMARK>
 VINA RESULT:      -6.3      3.370      5.734
  Name = 
  13 active torsions:
  status: ('A' for Active; 'I' for Inactive)
    1  A    between atoms: C_2  and  C_12
    2  A    between atoms: C_2  and  C_22
    3  A    between atoms: S_6  and  C_22
    4  A    between atoms: S_6  and  C_28
    5  A    between atoms: C_9  and  C_34
    6  A    between atoms: C_10  and  N_23
    7  A    between atoms: C_10  and  C_35
    8  A    between atoms: C_12  and  N_21
    9  A    between atoms: C_13  and  C_14
   10  A    between atoms: C_14  and  C_17
   11  A    between atoms: P_15  and  N_21
   12  A    between atoms: C_17  and  C_32
   13  A    between atoms: C_20  and  C_35
                            x       y       z     vdW  Elec       q    Type
                         _______ _______ _______ _____ _____    ______ ____

>  <TORSDO>
F 13

$$$$
=
 OpenBabel11042416543D

 35 37  0  0  1  0  0  0  0  0999 V2000
  188.4560  177.3210  143.9990 C   0  0  0  0  0  2  0  0  0  0  0  0
  188.1850  175.0460  139.7070 F   0  0  0  0  0  0  0  0  0  0  0  0
  186.6790  176.7900  140.1640 N   0  0  0  0  0  0  0  0  0  0  0  0
  186.1820  177.7640  140.9730 C   0  0  0  0  0  0  0  0  0  0  0  0
  187.8230  177.1660  142.6540 C   0  0  0  0  0  0  0  0  0  0  0  0
  185.0920  178.5610  140.5190 N   0  0  0  0  0  1  0  0  0  0  0  0
  187.7200  176.0030  140.5450 C   0  0  0  0  0  0  0  0  0  0  0  0
  188.3080  176.1770  141.7970 C   0  0  0  0  0  3  0  0  0  0  0  0
  186.7470  177.9800  142.2430 C   0  0  0  0  0  0  0  0  0  0  0  0
  186.2180  179.0650  143.1320 C   0  0  0  0  0  2  0  0  0  0  0  0
  184.8630  178.6770  143.6940 C   0  0  0  0  0  2  0  0  0  0  0  0
  185.8760  179.4080  145.9010 O   0  0  0  0  0  0  0  0  0  0  0  0
  184.9180  178.7130  145.1800 C   0  0  0  0  0  0  0  0  0  0  0  0
  184.4160  178.3610  147.2640 N   0  0  0  0  0  2  0  0  0  0  0  0
  184.0710  178.1070  145.9330 N   0  0  0  0  0  0  0  0  0  0  0  0
  185.5910  179.2240  147.2800 C   0  0  1  0  0  3  0  0  0  0  0  0
  186.7520  178.5130  147.9520 C   0  0  0  0  0  2  0  0  0  0  0  0
  187.4450  179.4060  148.7670 O   0  0  0  0  0  1  0  0  0  0  0  0
  189.8110  176.6360  144.0330 C   0  0  0  0  0  2  0  0  0  0  0  0
  191.7920  175.1430  146.8820 C   0  0  0  0  0  2  0  0  0  0  0  0
  190.7800  175.6480  147.9120 C   0  0  0  0  0  2  0  0  0  0  0  0
  190.1390  177.4530  146.2310 C   0  0  0  0  0  2  0  0  0  0  0  0
  190.1280  176.2470  145.3990 N   0  0  0  0  0  0  0  0  0  0  0  0
  190.4760  177.1310  147.6950 C   0  0  0  0  0  2  0  0  0  0  0  0
  191.4380  175.5710  145.4490 C   0  0  1  0  0  3  0  0  0  0  0  0
  192.7990  176.5940  144.7710 S   0  0  0  0  0  0  0  0  0  0  0  0
  193.9240  176.1050  146.1080 C   0  0  0  0  0  2  0  0  0  0  0  0
  195.2700  175.7280  145.5230 C   0  0  0  0  0  2  0  0  0  0  0  0
  195.5220  176.5120  144.2460 C   0  0  0  0  0  2  0  0  0  0  0  0
  196.9860  174.6890  144.1920 C   0  0  0  0  0  1  0  0  0  0  0  0
  196.6170  175.9120  143.4990 N   0  0  0  0  0  0  0  0  0  0  0  0
  197.0200  176.0510  140.7170 O   0  0  0  0  0  0  0  0  0  0  0  0
  195.9940  175.4560  141.9220 P   0  0  0  0  0  0  0  0  0  0  0  0
  194.6060  176.0230  141.7190 O   0  0  0  0  0  1  0  0  0  0  0  0
  195.9290  173.7700  141.8090 O   0  0  0  0  0  1  0  0  0  0  0  0
  1 19  1  0  0  0  0
  2  7  1  0  0  0  0
  3  7  2  0  0  0  0
  3  4  1  0  0  0  0
  4  9  2  0  0  0  0
  5  1  1  0  0  0  0
  6  4  1  0  0  0  0
  7  8  1  0  0  0  0
  8  5  2  0  0  0  0
  9  5  1  0  0  0  0
  9 10  1  0  0  0  0
 10 11  1  0  0  0  0
 11 13  1  0  0  0  0
 12 16  1  0  0  0  0
 13 12  1  0  0  0  0
 13 15  2  0  0  0  0
 14 16  1  0  0  0  0
 15 14  1  0  0  0  0
 16 17  1  1  0  0  0
 17 18  1  0  0  0  0
 19 23  1  0  0  0  0
 20 21  1  0  0  0  0
 22 24  1  0  0  0  0
 23 25  1  0  0  0  0
 23 22  1  0  0  0  0
 24 21  1  0  0  0  0
 25 26  1  1  0  0  0
 25 20  1  0  0  0  0
 26 27  1  0  0  0  0
 28 27  1  0  0  0  0
 29 28  1  0  0  0  0
 31 30  1  0  0  0  0
 31 29  1  0  0  0  0
 32 33  2  0  0  0  0
 33 31  1  0  0  0  0
 34 33  1  0  0  0  0
 35 33  1  0  0  0  0
M  END
>  <MODEL>
5

>  <REMARK>
 VINA RESULT:      -6.2      2.913      3.825
  Name = 
  13 active torsions:
  status: ('A' for Active; 'I' for Inactive)
    1  A    between atoms: C_2  and  C_12
    2  A    between atoms: C_2  and  C_22
    3  A    between atoms: S_6  and  C_22
    4  A    between atoms: S_6  and  C_28
    5  A    between atoms: C_9  and  C_34
    6  A    between atoms: C_10  and  N_23
    7  A    between atoms: C_10  and  C_35
    8  A    between atoms: C_12  and  N_21
    9  A    between atoms: C_13  and  C_14
   10  A    between atoms: C_14  and  C_17
   11  A    between atoms: P_15  and  N_21
   12  A    between atoms: C_17  and  C_32
   13  A    between atoms: C_20  and  C_35
                            x       y       z     vdW  Elec       q    Type
                         _______ _______ _______ _____ _____    ______ ____

>  <TORSDO>
F 13

$$$$
=
 OpenBabel11042416543D

 35 37  0  0  1  0  0  0  0  0999 V2000
  188.0480  176.7140  142.5650 C   0  0  0  0  0  2  0  0  0  0  0  0
  183.3930  178.0140  142.0000 F   0  0  0  0  0  0  0  0  0  0  0  0
  184.4080  178.3120  144.0980 N   0  0  0  0  0  0  0  0  0  0  0  0
  185.4770  178.2280  144.9350 C   0  0  0  0  0  0  0  0  0  0  0  0
  186.7870  177.2910  143.1250 C   0  0  0  0  0  0  0  0  0  0  0  0
  185.3430  178.6670  146.2840 N   0  0  0  0  0  1  0  0  0  0  0  0
  184.4810  177.9100  142.8010 C   0  0  0  0  0  0  0  0  0  0  0  0
  185.6720  177.3930  142.2930 C   0  0  0  0  0  3  0  0  0  0  0  0
  186.7000  177.7180  144.4660 C   0  0  0  0  0  0  0  0  0  0  0  0
  187.8880  177.6420  145.3780 C   0  0  0  0  0  2  0  0  0  0  0  0
  187.9030  176.3190  146.1220 C   0  0  0  0  0  2  0  0  0  0  0  0
  190.3060  176.9890  146.5760 O   0  0  0  0  0  0  0  0  0  0  0  0
  189.2480  176.1040  146.7190 C   0  0  0  0  0  0  0  0  0  0  0  0
  190.8840  175.2080  147.8330 N   0  0  0  0  0  2  0  0  0  0  0  0
  189.5500  175.0790  147.4320 N   0  0  0  0  0  0  0  0  0  0  0  0
  191.4080  176.4590  147.2980 C   0  0  1  0  0  3  0  0  0  0  0  0
  192.5560  176.1780  146.3460 C   0  0  0  0  0  2  0  0  0  0  0  0
  192.3600  176.8700  145.1520 O   0  0  0  0  0  1  0  0  0  0  0  0
  187.8040  175.3090  142.0430 C   0  0  0  0  0  2  0  0  0  0  0  0
  189.3230  172.0120  143.0940 C   0  0  0  0  0  2  0  0  0  0  0  0
  189.8400  172.6140  144.4020 C   0  0  0  0  0  2  0  0  0  0  0  0
  189.8020  174.8830  143.2430 C   0  0  0  0  0  2  0  0  0  0  0  0
  188.4830  174.3460  142.8980 N   0  0  0  0  0  0  0  0  0  0  0  0
  190.5920  173.9200  144.1410 C   0  0  0  0  0  2  0  0  0  0  0  0
  188.6160  173.0500  142.2070 C   0  0  1  0  0  3  0  0  0  0  0  0
  189.4990  173.1780  140.6070 S   0  0  0  0  0  0  0  0  0  0  0  0
  190.3600  171.6040  140.8790 C   0  0  0  0  0  2  0  0  0  0  0  0
  191.5890  171.5420  139.9940 C   0  0  0  0  0  2  0  0  0  0  0  0
  192.8240  171.2700  140.8350 C   0  0  0  0  0  2  0  0  0  0  0  0
  193.5550  171.3840  143.0530 C   0  0  0  0  0  1  0  0  0  0  0  0
  192.8080  172.0970  142.0310 N   0  0  0  0  0  0  0  0  0  0  0  0
  194.5300  174.0800  143.0450 O   0  0  0  0  0  1  0  0  0  0  0  0
  193.6900  173.5720  141.6680 P   0  0  0  0  0  0  0  0  0  0  0  0
  192.7360  174.6640  141.2350 O   0  0  0  0  0  1  0  0  0  0  0  0
  194.7960  173.2730  140.4240 O   0  0  0  0  0  0  0  0  0  0  0  0
  1  5  1  0  0  0  0
  2  7  1  0  0  0  0
  3  4  1  0  0  0  0
  4  6  1  0  0  0  0
  5  9  1  0  0  0  0
  7  3  2  0  0  0  0
  8  7  1  0  0  0  0
  8  5  2  0  0  0  0
  9  4  2  0  0  0  0
  9 10  1  0  0  0  0
 10 11  1  0  0  0  0
 11 13  1  0  0  0  0
 12 13  1  0  0  0  0
 12 16  1  0  0  0  0
 13 15  2  0  0  0  0
 15 14  1  0  0  0  0
 16 17  1  6  0  0  0
 16 14  1  0  0  0  0
 18 17  1  0  0  0  0
 19  1  1  0  0  0  0
 19 23  1  0  0  0  0
 20 21  1  0  0  0  0
 22 24  1  0  0  0  0
 23 22  1  0  0  0  0
 24 21  1  0  0  0  0
 25 26  1  6  0  0  0
 25 23  1  0  0  0  0
 25 20  1  0  0  0  0
 26 27  1  0  0  0  0
 28 29  1  0  0  0  0
 28 27  1  0  0  0  0
 29 31  1  0  0  0  0
 31 30  1  0  0  0  0
 33 31  1  0  0  0  0
 33 32  1  0  0  0  0
 34 33  1  0  0  0  0
 35 33  2  0  0  0  0
M  END
>  <MODEL>
6

>  <REMARK>
 VINA RESULT:      -6.2      2.782      4.520
  Name = 
  13 active torsions:
  status: ('A' for Active; 'I' for Inactive)
    1  A    between atoms: C_2  and  C_12
    2  A    between atoms: C_2  and  C_22
    3  A    between atoms: S_6  and  C_22
    4  A    between atoms: S_6  and  C_28
    5  A    between atoms: C_9  and  C_34
    6  A    between atoms: C_10  and  N_23
    7  A    between atoms: C_10  and  C_35
    8  A    between atoms: C_12  and  N_21
    9  A    between atoms: C_13  and  C_14
   10  A    between atoms: C_14  and  C_17
   11  A    between atoms: P_15  and  N_21
   12  A    between atoms: C_17  and  C_32
   13  A    between atoms: C_20  and  C_35
                            x       y       z     vdW  Elec       q    Type
                         _______ _______ _______ _____ _____    ______ ____

>  <TORSDO>
F 13

$$$$
=
 OpenBabel11042416543D

 35 37  0  0  1  0  0  0  0  0999 V2000
  190.9610  172.5720  144.1170 C   0  0  0  0  0  2  0  0  0  0  0  0
  186.6940  172.3510  141.7890 F   0  0  0  0  0  0  0  0  0  0  0  0
  188.6070  173.0080  140.5930 N   0  0  0  0  0  0  0  0  0  0  0  0
  189.9390  173.2720  140.5130 C   0  0  0  0  0  0  0  0  0  0  0  0
  190.1610  172.7200  142.8620 C   0  0  0  0  0  0  0  0  0  0  0  0
  190.4950  173.6860  139.2680 N   0  0  0  0  0  1  0  0  0  0  0  0
  188.0240  172.6060  141.7540 C   0  0  0  0  0  0  0  0  0  0  0  0
  188.7920  172.4560  142.9080 C   0  0  0  0  0  3  0  0  0  0  0  0
  190.7540  173.1290  141.6500 C   0  0  0  0  0  0  0  0  0  0  0  0
  192.2260  173.3990  141.5640 C   0  0  0  0  0  2  0  0  0  0  0  0
  192.5190  174.8530  141.8830 C   0  0  0  0  0  2  0  0  0  0  0  0
  194.3380  173.8510  143.3400 O   0  0  0  0  0  0  0  0  0  0  0  0
  193.7580  174.9370  142.7030 C   0  0  0  0  0  0  0  0  0  0  0  0
  195.5150  175.7410  143.6950 N   0  0  0  0  0  2  0  0  0  0  0  0
  194.4100  176.0290  142.8880 N   0  0  0  0  0  0  0  0  0  0  0  0
  195.5060  174.3150  144.0000 C   0  0  1  0  0  3  0  0  0  0  0  0
  195.3670  174.1030  145.4960 C   0  0  0  0  0  2  0  0  0  0  0  0
  195.3280  175.3350  146.1470 O   0  0  0  0  0  1  0  0  0  0  0  0
  190.3970  173.4580  145.2150 C   0  0  0  0  0  2  0  0  0  0  0  0
  189.7320  177.1530  144.7930 C   0  0  0  0  0  2  0  0  0  0  0  0
  191.2030  177.4290  144.4750 C   0  0  0  0  0  2  0  0  0  0  0  0
  191.7660  175.3090  145.7720 C   0  0  0  0  0  2  0  0  0  0  0  0
  190.6740  174.8530  144.9070 N   0  0  0  0  0  0  0  0  0  0  0  0
  192.1160  176.7830  145.5170 C   0  0  0  0  0  2  0  0  0  0  0  0
  189.4670  175.6750  145.1200 C   0  0  1  0  0  3  0  0  0  0  0  0
  188.8000  175.5420  146.8210 S   0  0  0  0  0  0  0  0  0  0  0  0
  188.0990  177.2140  146.7490 C   0  0  0  0  0  2  0  0  0  0  0  0
  186.6090  177.1490  147.0150 C   0  0  0  0  0  2  0  0  0  0  0  0
  185.8700  176.7430  145.7510 C   0  0  0  0  0  2  0  0  0  0  0  0
  184.8290  178.6890  146.5230 C   0  0  0  0  0  1  0  0  0  0  0  0
  184.8160  177.7010  145.4570 N   0  0  0  0  0  0  0  0  0  0  0  0
  184.0710  178.2340  142.7950 O   0  0  0  0  0  0  0  0  0  0  0  0
  185.2520  178.5280  143.9700 P   0  0  0  0  0  0  0  0  0  0  0  0
  186.5900  178.0340  143.4650 O   0  0  0  0  0  1  0  0  0  0  0  0
  185.3430  180.1920  144.2570 O   0  0  0  0  0  1  0  0  0  0  0  0
  1 19  1  0  0  0  0
  3  7  1  0  0  0  0
  4  3  2  0  0  0  0
  4  9  1  0  0  0  0
  5  8  1  0  0  0  0
  5  1  1  0  0  0  0
  6  4  1  0  0  0  0
  7  2  1  0  0  0  0
  7  8  2  0  0  0  0
  9  5  2  0  0  0  0
 10  9  1  0  0  0  0
 10 11  1  0  0  0  0
 11 13  1  0  0  0  0
 12 16  1  0  0  0  0
 13 15  2  0  0  0  0
 13 12  1  0  0  0  0
 14 16  1  0  0  0  0
 15 14  1  0  0  0  0
 16 17  1  1  0  0  0
 17 18  1  0  0  0  0
 20 25  1  0  0  0  0
 21 20  1  0  0  0  0
 21 24  1  0  0  0  0
 23 25  1  0  0  0  0
 23 19  1  0  0  0  0
 23 22  1  0  0  0  0
 24 22  1  0  0  0  0
 25 26  1  1  0  0  0
 27 26  1  0  0  0  0
 27 28  1  0  0  0  0
 29 28  1  0  0  0  0
 31 29  1  0  0  0  0
 31 30  1  0  0  0  0
 32 33  2  0  0  0  0
 33 35  1  0  0  0  0
 33 31  1  0  0  0  0
 34 33  1  0  0  0  0
M  END
>  <MODEL>
7

>  <REMARK>
 VINA RESULT:      -6.2      3.472      7.727
  Name = 
  13 active torsions:
  status: ('A' for Active; 'I' for Inactive)
    1  A    between atoms: C_2  and  C_12
    2  A    between atoms: C_2  and  C_22
    3  A    between atoms: S_6  and  C_22
    4  A    between atoms: S_6  and  C_28
    5  A    between atoms: C_9  and  C_34
    6  A    between atoms: C_10  and  N_23
    7  A    between atoms: C_10  and  C_35
    8  A    between atoms: C_12  and  N_21
    9  A    between atoms: C_13  and  C_14
   10  A    between atoms: C_14  and  C_17
   11  A    between atoms: P_15  and  N_21
   12  A    between atoms: C_17  and  C_32
   13  A    between atoms: C_20  and  C_35
                            x       y       z     vdW  Elec       q    Type
                         _______ _______ _______ _____ _____    ______ ____

>  <TORSDO>
F 13

$$$$
=
 OpenBabel11042416543D

 35 37  0  0  1  0  0  0  0  0999 V2000
  188.5230  176.1630  145.8170 C   0  0  0  0  0  2  0  0  0  0  0  0
  185.3450  179.2330  147.8570 F   0  0  0  0  0  0  0  0  0  0  0  0
  185.4970  179.1460  145.5140 N   0  0  0  0  0  0  0  0  0  0  0  0
  186.0260  178.6480  144.3640 C   0  0  0  0  0  0  0  0  0  0  0  0
  187.4530  177.1990  145.6820 C   0  0  0  0  0  0  0  0  0  0  0  0
  185.5610  179.1400  143.1100 N   0  0  0  0  0  1  0  0  0  0  0  0
  185.9010  178.7120  146.7370 C   0  0  0  0  0  0  0  0  0  0  0  0
  186.8870  177.7310  146.8400 C   0  0  0  0  0  3  0  0  0  0  0  0
  187.0190  177.6540  144.4190 C   0  0  0  0  0  0  0  0  0  0  0  0
  187.5930  177.0860  143.1560 C   0  0  0  0  0  2  0  0  0  0  0  0
  186.8120  175.8590  142.7230 C   0  0  0  0  0  2  0  0  0  0  0  0
  187.7330  173.5510  142.2140 O   0  0  0  0  0  0  0  0  0  0  0  0
  187.7220  174.9230  142.0100 C   0  0  0  0  0  0  0  0  0  0  0  0
  189.2490  174.1680  140.6620 N   0  0  0  0  0  2  0  0  0  0  0  0
  188.5770  175.3020  141.1280 N   0  0  0  0  0  0  0  0  0  0  0  0
  188.7110  172.9970  141.3450 C   0  0  1  0  0  3  0  0  0  0  0  0
  189.7980  172.3240  142.1620 C   0  0  0  0  0  2  0  0  0  0  0  0
  190.9790  172.2680  141.4230 O   0  0  0  0  0  1  0  0  0  0  0  0
  189.8980  176.8080  145.7600 C   0  0  0  0  0  2  0  0  0  0  0  0
  192.1720  174.0460  144.5440 C   0  0  0  0  0  2  0  0  0  0  0  0
  192.8900  173.9790  145.8940 C   0  0  0  0  0  2  0  0  0  0  0  0
  192.1740  176.3970  146.2670 C   0  0  0  0  0  2  0  0  0  0  0  0
  190.9230  175.7770  145.8230 N   0  0  0  0  0  0  0  0  0  0  0  0
  193.3170  175.3740  146.3530 C   0  0  0  0  0  2  0  0  0  0  0  0
  191.0990  175.1460  144.5010 C   0  0  1  0  0  3  0  0  0  0  0  0
  191.5180  176.3480  143.1830 S   0  0  0  0  0  0  0  0  0  0  0  0
  192.7480  175.2280  142.4590 C   0  0  0  0  0  2  0  0  0  0  0  0
  193.9650  176.0220  142.0320 C   0  0  0  0  0  2  0  0  0  0  0  0
  194.9980  176.0330  143.1460 C   0  0  0  0  0  2  0  0  0  0  0  0
  197.1830  176.8650  143.1320 C   0  0  0  0  0  1  0  0  0  0  0  0
  196.3280  175.8180  142.5980 N   0  0  0  0  0  0  0  0  0  0  0  0
  195.6150  173.3740  143.7980 O   0  0  0  0  0  1  0  0  0  0  0  0
  196.9180  174.2870  143.2230 P   0  0  0  0  0  0  0  0  0  0  0  0
  197.8980  174.5210  144.3510 O   0  0  0  0  0  1  0  0  0  0  0  0
  197.6870  173.4320  141.9830 O   0  0  0  0  0  0  0  0  0  0  0  0
  3  7  1  0  0  0  0
  4  9  1  0  0  0  0
  4  3  2  0  0  0  0
  5  1  1  0  0  0  0
  5  8  1  0  0  0  0
  6  4  1  0  0  0  0
  7  8  2  0  0  0  0
  7  2  1  0  0  0  0
  9  5  2  0  0  0  0
 10  9  1  0  0  0  0
 11 10  1  0  0  0  0
 13 12  1  0  0  0  0
 13 11  1  0  0  0  0
 14 15  1  0  0  0  0
 14 16  1  0  0  0  0
 15 13  2  0  0  0  0
 16 17  1  1  0  0  0
 16 12  1  0  0  0  0
 18 17  1  0  0  0  0
 19  1  1  0  0  0  0
 19 23  1  0  0  0  0
 20 21  1  0  0  0  0
 21 24  1  0  0  0  0
 22 24  1  0  0  0  0
 23 22  1  0  0  0  0
 25 26  1  6  0  0  0
 25 20  1  0  0  0  0
 25 23  1  0  0  0  0
 27 26  1  0  0  0  0
 28 27  1  0  0  0  0
 28 29  1  0  0  0  0
 31 30  1  0  0  0  0
 31 29  1  0  0  0  0
 31 33  1  0  0  0  0
 33 32  1  0  0  0  0
 33 34  1  0  0  0  0
 35 33  2  0  0  0  0
M  END
>  <MODEL>
8

>  <REMARK>
 VINA RESULT:      -6.2      3.782      5.935
  Name = 
  13 active torsions:
  status: ('A' for Active; 'I' for Inactive)
    1  A    between atoms: C_2  and  C_12
    2  A    between atoms: C_2  and  C_22
    3  A    between atoms: S_6  and  C_22
    4  A    between atoms: S_6  and  C_28
    5  A    between atoms: C_9  and  C_34
    6  A    between atoms: C_10  and  N_23
    7  A    between atoms: C_10  and  C_35
    8  A    between atoms: C_12  and  N_21
    9  A    between atoms: C_13  and  C_14
   10  A    between atoms: C_14  and  C_17
   11  A    between atoms: P_15  and  N_21
   12  A    between atoms: C_17  and  C_32
   13  A    between atoms: C_20  and  C_35
                            x       y       z     vdW  Elec       q    Type
                         _______ _______ _______ _____ _____    ______ ____

>  <TORSDO>
F 13

$$$$
=
 OpenBabel11042416543D

 35 37  0  0  1  0  0  0  0  0999 V2000
  188.0340  177.2070  142.6240 C   0  0  0  0  0  2  0  0  0  0  0  0
  183.5270  177.9630  140.9530 F   0  0  0  0  0  0  0  0  0  0  0  0
  183.9690  178.3260  143.2320 N   0  0  0  0  0  0  0  0  0  0  0  0
  184.8090  178.3480  144.3010 C   0  0  0  0  0  0  0  0  0  0  0  0
  186.6170  177.6170  142.8620 C   0  0  0  0  0  0  0  0  0  0  0  0
  184.3050  178.7350  145.5770 N   0  0  0  0  0  1  0  0  0  0  0  0
  184.3970  177.9690  141.9920 C   0  0  0  0  0  0  0  0  0  0  0  0
  185.7280  177.6080  141.7870 C   0  0  0  0  0  3  0  0  0  0  0  0
  186.1610  177.9970  144.1420 C   0  0  0  0  0  0  0  0  0  0  0  0
  187.0970  178.0390  145.3120 C   0  0  0  0  0  2  0  0  0  0  0  0
  186.9570  176.7810  146.1490 C   0  0  0  0  0  2  0  0  0  0  0  0
  189.3900  177.2100  146.7260 O   0  0  0  0  0  0  0  0  0  0  0  0
  188.3000  176.3580  146.6310 C   0  0  0  0  0  0  0  0  0  0  0  0
  189.9110  175.1240  147.4070 N   0  0  0  0  0  2  0  0  0  0  0  0
  188.5690  175.1620  147.0150 N   0  0  0  0  0  0  0  0  0  0  0  0
  190.4780  176.4570  147.2430 C   0  0  1  0  0  3  0  0  0  0  0  0
  191.6040  176.4230  146.2260 C   0  0  0  0  0  2  0  0  0  0  0  0
  192.8330  176.4090  146.8830 O   0  0  0  0  0  1  0  0  0  0  0  0
  188.2450  175.7600  143.0330 C   0  0  0  0  0  2  0  0  0  0  0  0
  190.8330  173.6820  141.2260 C   0  0  0  0  0  2  0  0  0  0  0  0
  189.9480  173.5760  139.9830 C   0  0  0  0  0  2  0  0  0  0  0  0
  187.9470  173.9690  141.5120 C   0  0  0  0  0  2  0  0  0  0  0  0
  188.8660  175.0280  141.9380 N   0  0  0  0  0  0  0  0  0  0  0  0
  188.5320  173.1380  140.3590 C   0  0  0  0  0  2  0  0  0  0  0  0
  190.1540  174.4530  142.3700 C   0  0  1  0  0  3  0  0  0  0  0  0
  189.9980  173.3570  143.8290 S   0  0  0  0  0  0  0  0  0  0  0  0
  191.1710  172.1580  143.1390 C   0  0  0  0  0  2  0  0  0  0  0  0
  192.2810  171.9040  144.1380 C   0  0  0  0  0  2  0  0  0  0  0  0
  192.4580  173.1140  145.0400 C   0  0  0  0  0  2  0  0  0  0  0  0
  194.4050  171.8600  145.3600 C   0  0  0  0  0  1  0  0  0  0  0  0
  193.8290  173.1840  145.5190 N   0  0  0  0  0  0  0  0  0  0  0  0
  193.6070  175.1690  143.5350 O   0  0  0  0  0  1  0  0  0  0  0  0
  194.7070  174.2700  144.4540 P   0  0  0  0  0  0  0  0  0  0  0  0
  195.6060  173.4840  143.5250 O   0  0  0  0  0  0  0  0  0  0  0  0
  195.6470  175.3280  145.3790 O   0  0  0  0  0  1  0  0  0  0  0  0
  1  5  1  0  0  0  0
  1 19  1  0  0  0  0
  2  7  1  0  0  0  0
  3  4  1  0  0  0  0
  4  6  1  0  0  0  0
  5  9  1  0  0  0  0
  7  3  2  0  0  0  0
  8  7  1  0  0  0  0
  8  5  2  0  0  0  0
  9  4  2  0  0  0  0
  9 10  1  0  0  0  0
 10 11  1  0  0  0  0
 11 13  1  0  0  0  0
 12 16  1  0  0  0  0
 13 12  1  0  0  0  0
 13 15  2  0  0  0  0
 15 14  1  0  0  0  0
 16 17  1  6  0  0  0
 16 14  1  0  0  0  0
 17 18  1  0  0  0  0
 20 25  1  0  0  0  0
 21 24  1  0  0  0  0
 21 20  1  0  0  0  0
 22 23  1  0  0  0  0
 23 25  1  0  0  0  0
 23 19  1  0  0  0  0
 24 22  1  0  0  0  0
 25 26  1  1  0  0  0
 27 26  1  0  0  0  0
 27 28  1  0  0  0  0
 28 29  1  0  0  0  0
 29 31  1  0  0  0  0
 30 31  1  0  0  0  0
 32 33  1  0  0  0  0
 33 35  1  0  0  0  0
 33 31  1  0  0  0  0
 34 33  2  0  0  0  0
M  END
>  <MODEL>
9

>  <REMARK>
 VINA RESULT:      -6.2      3.133      5.007
  Name = 
  13 active torsions:
  status: ('A' for Active; 'I' for Inactive)
    1  A    between atoms: C_2  and  C_12
    2  A    between atoms: C_2  and  C_22
    3  A    between atoms: S_6  and  C_22
    4  A    between atoms: S_6  and  C_28
    5  A    between atoms: C_9  and  C_34
    6  A    between atoms: C_10  and  N_23
    7  A    between atoms: C_10  and  C_35
    8  A    between atoms: C_12  and  N_21
    9  A    between atoms: C_13  and  C_14
   10  A    between atoms: C_14  and  C_17
   11  A    between atoms: P_15  and  N_21
   12  A    between atoms: C_17  and  C_32
   13  A    between atoms: C_20  and  C_35
                            x       y       z     vdW  Elec       q    Type
                         _______ _______ _______ _____ _____    ______ ____

>  <TORSDO>
F 13

$$$$
