=
 OpenBabel11042413453D

 30 31  0  0  1  0  0  0  0  0999 V2000
  191.0400  175.9090  144.9440 C   0  0  2  0  0  3  0  0  0  0  0  0
  192.3540  176.5390  144.8970 N   0  0  0  0  0  0  0  0  0  0  0  0
  191.0410  175.1120  146.2530 C   0  0  1  0  0  3  0  0  0  0  0  0
  192.3150  175.3870  146.8110 O   0  0  0  0  0  0  0  0  0  0  0  0
  193.0110  176.2110  145.9530 C   0  0  0  0  0  0  0  0  0  0  0  0
  195.1340  176.7800  144.9870 N   0  0  0  0  0  1  0  0  0  0  0  0
  194.3860  176.7050  146.2290 C   0  0  0  0  0  2  0  0  0  0  0  0
  189.0220  174.5530  147.4560 O   0  0  0  0  0  1  0  0  0  0  0  0
  189.9160  175.5900  147.1770 C   0  0  2  0  0  3  0  0  0  0  0  0
  189.1620  176.7880  146.6060 C   0  0  2  0  0  3  0  0  0  0  0  0
  189.3700  177.9210  147.3750 F   0  0  0  0  0  0  0  0  0  0  0  0
  187.6740  176.4870  146.4920 C   0  0  0  0  0  2  0  0  0  0  0  0
  186.8460  177.5280  147.2320 C   0  0  0  0  0  2  0  0  0  0  0  0
  185.5400  179.2460  145.9220 N   0  0  0  0  0  1  0  0  0  0  0  0
  184.7530  177.0770  146.1830 O   0  0  0  0  0  0  0  0  0  0  0  0
  185.6510  177.9220  146.4310 C   0  0  0  0  0  0  0  0  0  0  0  0
  190.8760  174.9580  143.7730 C   0  0  0  0  0  2  0  0  0  0  0  0
  189.4730  174.5850  143.6290 N   0  0  0  0  0  2  0  0  0  0  0  0
  189.1990  174.1210  142.2640 C   0  0  1  0  0  3  0  0  0  0  0  0
  189.4060  171.6220  142.4140 O   0  0  0  0  0  1  0  0  0  0  0  0
  188.6020  172.7410  142.2320 C   0  0  0  0  0  0  0  0  0  0  0  0
  187.3820  172.5870  141.9630 O   0  0  0  0  0  0  0  0  0  0  0  0
  188.2120  175.3350  141.3120 S   0  0  0  0  0  0  0  0  0  0  0  0
  184.4060  177.9350  142.7220 C   0  0  0  0  0  1  0  0  0  0  0  0
  187.6620  176.2140  142.8060 C   0  0  2  0  0  3  0  0  0  0  0  0
  185.8370  177.5370  142.7390 C   0  0  0  0  0  0  0  0  0  0  0  0
  186.2080  176.2970  142.8110 N   0  0  0  0  0  0  0  0  0  0  0  0
  189.2140  178.0880  142.7190 O   0  0  0  0  0  0  0  0  0  0  0  0
  186.8940  178.4850  142.6780 N   0  0  0  0  0  2  0  0  0  0  0  0
  188.0350  177.6490  142.7250 C   0  0  0  0  0  0  0  0  0  0  0  0
  1 17  1  6  0  0  0
  1  3  1  0  0  0  0
  2  1  1  0  0  0  0
  2  5  2  0  0  0  0
  3  4  1  0  0  0  0
  3  9  1  1  0  0  0
  5  7  1  0  0  0  0
  5  4  1  0  0  0  0
  6  7  1  0  0  0  0
  9  8  1  6  0  0  0
 10  9  1  0  0  0  0
 10 11  1  1  0  0  0
 12 10  1  0  0  0  0
 12 13  1  0  0  0  0
 14 16  1  0  0  0  0
 15 16  2  0  0  0  0
 16 13  1  0  0  0  0
 18 17  1  0  0  0  0
 19 23  1  1  0  0  0
 19 18  1  0  0  0  0
 21 19  1  0  0  0  0
 21 20  1  0  0  0  0
 22 21  2  0  0  0  0
 24 26  1  0  0  0  0
 25 23  1  6  0  0  0
 25 27  1  0  0  0  0
 26 27  2  0  0  0  0
 28 30  2  0  0  0  0
 29 30  1  0  0  0  0
 29 26  1  0  0  0  0
 30 25  1  0  0  0  0
M  END
>  <MODEL>
1

>  <REMARK>
 VINA RESULT:      -6.1      0.000      0.000
  Name = 
  12 active torsions:
  status: ('A' for Active; 'I' for Inactive)
    1  A    between atoms: C_1  and  C_6
    2  A    between atoms: C_1  and  C_19
    3  A    between atoms: S_2  and  C_5
    4  A    between atoms: S_2  and  C_21
    5  A    between atoms: C_4  and  C_20
    6  A    between atoms: C_6  and  C_25
    7  A    between atoms: C_12  and  C_19
    8  A    between atoms: N_16  and  C_20
    9  A    between atoms: N_16  and  C_21
   10  A    between atoms: C_21  and  C_23
   11  A    between atoms: C_22  and  C_28
   12  A    between atoms: C_25  and  C_26
                            x       y       z     vdW  Elec       q    Type
                         _______ _______ _______ _____ _____    ______ ____

>  <TORSDO>
F 12

$$$$
=
 OpenBabel11042413453D

 30 31  0  0  1  0  0  0  0  0999 V2000
  189.4160  176.1210  143.1300 C   0  0  2  0  0  3  0  0  0  0  0  0
  190.6710  175.6740  142.5390 N   0  0  0  0  0  0  0  0  0  0  0  0
  189.0700  175.0410  144.1620 C   0  0  1  0  0  3  0  0  0  0  0  0
  190.1530  174.1310  144.0690 O   0  0  0  0  0  0  0  0  0  0  0  0
  191.0250  174.5700  143.0960 C   0  0  0  0  0  0  0  0  0  0  0  0
  192.8800  173.2980  143.9370 N   0  0  0  0  0  1  0  0  0  0  0  0
  192.2790  173.8550  142.7380 C   0  0  0  0  0  2  0  0  0  0  0  0
  189.3840  176.9830  145.5620 O   0  0  0  0  0  1  0  0  0  0  0  0
  188.9750  175.6480  145.5660 C   0  0  2  0  0  3  0  0  0  0  0  0
  189.7780  174.8600  146.5980 C   0  0  2  0  0  3  0  0  0  0  0  0
  188.9470  174.2880  147.5450 F   0  0  0  0  0  0  0  0  0  0  0  0
  190.8190  175.7470  147.2660 C   0  0  0  0  0  2  0  0  0  0  0  0
  192.2300  175.2940  146.9160 C   0  0  0  0  0  2  0  0  0  0  0  0
  194.1440  176.9380  146.8310 N   0  0  0  0  0  1  0  0  0  0  0  0
  192.6010  176.7950  145.1010 O   0  0  0  0  0  0  0  0  0  0  0  0
  192.9810  176.3840  146.2280 C   0  0  0  0  0  0  0  0  0  0  0  0
  188.3310  176.1730  142.0700 C   0  0  0  0  0  2  0  0  0  0  0  0
  188.1870  177.5380  141.5750 N   0  0  0  0  0  2  0  0  0  0  0  0
  186.7940  177.9850  141.6900 C   0  0  1  0  0  3  0  0  0  0  0  0
  184.6870  178.1770  140.3360 O   0  0  0  0  0  1  0  0  0  0  0  0
  186.0410  177.8650  140.3950 C   0  0  0  0  0  0  0  0  0  0  0  0
  186.6130  177.4060  139.3720 O   0  0  0  0  0  0  0  0  0  0  0  0
  185.9270  177.1750  143.0850 S   0  0  0  0  0  0  0  0  0  0  0  0
  185.6980  178.7600  147.6310 C   0  0  0  0  0  1  0  0  0  0  0  0
  185.6300  178.7490  143.9480 C   0  0  2  0  0  3  0  0  0  0  0  0
  185.3550  178.7810  146.1860 C   0  0  0  0  0  0  0  0  0  0  0  0
  186.2590  178.7060  145.2610 N   0  0  0  0  0  0  0  0  0  0  0  0
  183.2470  178.9680  143.4970 O   0  0  0  0  0  0  0  0  0  0  0  0
  184.0160  178.8870  145.7200 N   0  0  0  0  0  2  0  0  0  0  0  0
  184.1970  178.8700  144.3170 C   0  0  0  0  0  0  0  0  0  0  0  0
  1 17  1  6  0  0  0
  1  3  1  0  0  0  0
  2  5  2  0  0  0  0
  2  1  1  0  0  0  0
  3  9  1  1  0  0  0
  4  3  1  0  0  0  0
  5  4  1  0  0  0  0
  7  5  1  0  0  0  0
  7  6  1  0  0  0  0
  9  8  1  6  0  0  0
  9 10  1  0  0  0  0
 10 12  1  0  0  0  0
 10 11  1  1  0  0  0
 13 12  1  0  0  0  0
 15 16  2  0  0  0  0
 16 14  1  0  0  0  0
 16 13  1  0  0  0  0
 18 19  1  0  0  0  0
 18 17  1  0  0  0  0
 19 21  1  6  0  0  0
 19 23  1  0  0  0  0
 20 21  1  0  0  0  0
 22 21  2  0  0  0  0
 25 23  1  1  0  0  0
 25 30  1  0  0  0  0
 25 27  1  0  0  0  0
 26 24  1  0  0  0  0
 27 26  2  0  0  0  0
 28 30  2  0  0  0  0
 29 26  1  0  0  0  0
 30 29  1  0  0  0  0
M  END
>  <MODEL>
2

>  <REMARK>
 VINA RESULT:      -6.1      2.382      4.836
  Name = 
  12 active torsions:
  status: ('A' for Active; 'I' for Inactive)
    1  A    between atoms: C_1  and  C_6
    2  A    between atoms: C_1  and  C_19
    3  A    between atoms: S_2  and  C_5
    4  A    between atoms: S_2  and  C_21
    5  A    between atoms: C_4  and  C_20
    6  A    between atoms: C_6  and  C_25
    7  A    between atoms: C_12  and  C_19
    8  A    between atoms: N_16  and  C_20
    9  A    between atoms: N_16  and  C_21
   10  A    between atoms: C_21  and  C_23
   11  A    between atoms: C_22  and  C_28
   12  A    between atoms: C_25  and  C_26
                            x       y       z     vdW  Elec       q    Type
                         _______ _______ _______ _____ _____    ______ ____

>  <TORSDO>
F 12

$$$$
=
 OpenBabel11042413453D

 30 31  0  0  1  0  0  0  0  0999 V2000
  191.2410  176.3630  144.0320 C   0  0  2  0  0  3  0  0  0  0  0  0
  192.5410  177.0170  144.1200 N   0  0  0  0  0  0  0  0  0  0  0  0
  191.2930  175.2570  145.0910 C   0  0  1  0  0  3  0  0  0  0  0  0
  192.5760  175.4120  145.6730 O   0  0  0  0  0  0  0  0  0  0  0  0
  193.2330  176.4460  145.0420 C   0  0  0  0  0  0  0  0  0  0  0  0
  195.5250  176.5540  144.3330 N   0  0  0  0  0  1  0  0  0  0  0  0
  194.6050  176.8880  145.4070 C   0  0  0  0  0  2  0  0  0  0  0  0
  189.4130  174.2960  146.2630 O   0  0  0  0  0  1  0  0  0  0  0  0
  190.1850  175.4530  146.1300 C   0  0  2  0  0  3  0  0  0  0  0  0
  189.2870  176.6440  145.8080 C   0  0  2  0  0  3  0  0  0  0  0  0
  189.7320  177.7910  146.4450 F   0  0  0  0  0  0  0  0  0  0  0  0
  187.8410  176.3510  146.1860 C   0  0  0  0  0  2  0  0  0  0  0  0
  187.3210  177.3680  147.1920 C   0  0  0  0  0  2  0  0  0  0  0  0
  185.0910  176.8090  146.1490 N   0  0  0  0  0  1  0  0  0  0  0  0
  185.3830  178.7400  147.4050 O   0  0  0  0  0  0  0  0  0  0  0  0
  185.8910  177.6940  146.9240 C   0  0  0  0  0  0  0  0  0  0  0  0
  191.0650  175.7420  142.6590 C   0  0  0  0  0  2  0  0  0  0  0  0
  189.9430  174.8080  142.6770 N   0  0  0  0  0  2  0  0  0  0  0  0
  188.9200  175.2100  141.7060 C   0  0  1  0  0  3  0  0  0  0  0  0
  188.2080  174.6010  139.3750 O   0  0  0  0  0  0  0  0  0  0  0  0
  188.7600  174.2140  140.5900 C   0  0  0  0  0  0  0  0  0  0  0  0
  189.0550  173.0040  140.7770 O   0  0  0  0  0  1  0  0  0  0  0  0
  187.3280  175.6180  142.5150 S   0  0  0  0  0  0  0  0  0  0  0  0
  185.3500  179.7650  143.9720 C   0  0  0  0  0  1  0  0  0  0  0  0
  187.4590  177.3870  142.1100 C   0  0  2  0  0  3  0  0  0  0  0  0
  185.9950  178.8630  142.9840 C   0  0  0  0  0  0  0  0  0  0  0  0
  187.0590  178.1780  143.2650 N   0  0  0  0  0  0  0  0  0  0  0  0
  186.3590  177.3460  139.9380 O   0  0  0  0  0  0  0  0  0  0  0  0
  185.4920  178.6890  141.6650 N   0  0  0  0  0  2  0  0  0  0  0  0
  186.4170  177.7660  141.1230 C   0  0  0  0  0  0  0  0  0  0  0  0
  1 17  1  6  0  0  0
  1  2  1  0  0  0  0
  1  3  1  0  0  0  0
  2  5  2  0  0  0  0
  3  4  1  0  0  0  0
  3  9  1  1  0  0  0
  5  7  1  0  0  0  0
  5  4  1  0  0  0  0
  6  7  1  0  0  0  0
  9  8  1  6  0  0  0
 10  9  1  0  0  0  0
 10 12  1  0  0  0  0
 10 11  1  1  0  0  0
 12 13  1  0  0  0  0
 14 16  1  0  0  0  0
 16 13  1  0  0  0  0
 16 15  2  0  0  0  0
 17 18  1  0  0  0  0
 19 21  1  6  0  0  0
 19 23  1  0  0  0  0
 19 18  1  0  0  0  0
 20 21  2  0  0  0  0
 21 22  1  0  0  0  0
 25 23  1  1  0  0  0
 25 27  1  0  0  0  0
 26 27  2  0  0  0  0
 26 24  1  0  0  0  0
 28 30  2  0  0  0  0
 29 26  1  0  0  0  0
 30 29  1  0  0  0  0
 30 25  1  0  0  0  0
M  END
>  <MODEL>
3

>  <REMARK>
 VINA RESULT:      -5.9      1.623      1.804
  Name = 
  12 active torsions:
  status: ('A' for Active; 'I' for Inactive)
    1  A    between atoms: C_1  and  C_6
    2  A    between atoms: C_1  and  C_19
    3  A    between atoms: S_2  and  C_5
    4  A    between atoms: S_2  and  C_21
    5  A    between atoms: C_4  and  C_20
    6  A    between atoms: C_6  and  C_25
    7  A    between atoms: C_12  and  C_19
    8  A    between atoms: N_16  and  C_20
    9  A    between atoms: N_16  and  C_21
   10  A    between atoms: C_21  and  C_23
   11  A    between atoms: C_22  and  C_28
   12  A    between atoms: C_25  and  C_26
                            x       y       z     vdW  Elec       q    Type
                         _______ _______ _______ _____ _____    ______ ____

>  <TORSDO>
F 12

$$$$
=
 OpenBabel11042413453D

 30 31  0  0  1  0  0  0  0  0999 V2000
  188.7470  176.5400  142.8740 C   0  0  2  0  0  3  0  0  0  0  0  0
  188.1640  176.2890  141.5620 N   0  0  0  0  0  0  0  0  0  0  0  0
  188.2510  177.9400  143.2550 C   0  0  1  0  0  3  0  0  0  0  0  0
  187.4380  178.3160  142.1560 O   0  0  0  0  0  0  0  0  0  0  0  0
  187.4550  177.3060  141.2190 C   0  0  0  0  0  0  0  0  0  0  0  0
  185.3850  177.9310  140.1750 N   0  0  0  0  0  1  0  0  0  0  0  0
  186.7010  177.3650  139.9380 C   0  0  0  0  0  2  0  0  0  0  0  0
  187.3780  176.5870  145.0540 O   0  0  0  0  0  1  0  0  0  0  0  0
  187.4410  177.8900  144.5540 C   0  0  2  0  0  3  0  0  0  0  0  0
  186.0310  178.4510  144.3840 C   0  0  2  0  0  3  0  0  0  0  0  0
  185.9960  179.8050  144.6740 F   0  0  0  0  0  0  0  0  0  0  0  0
  185.0380  177.6920  145.2530 C   0  0  0  0  0  2  0  0  0  0  0  0
  184.5860  178.5390  146.4350 C   0  0  0  0  0  2  0  0  0  0  0  0
  186.1530  179.7240  148.0190 N   0  0  0  0  0  1  0  0  0  0  0  0
  185.9480  177.4110  148.0340 O   0  0  0  0  0  0  0  0  0  0  0  0
  185.6000  178.5090  147.5280 C   0  0  0  0  0  0  0  0  0  0  0  0
  190.2610  176.5490  142.7780 C   0  0  0  0  0  2  0  0  0  0  0  0
  190.8130  177.5270  143.7100 N   0  0  0  0  0  2  0  0  0  0  0  0
  191.7080  176.8760  144.6730 C   0  0  1  0  0  3  0  0  0  0  0  0
  191.0540  175.1150  146.3420 O   0  0  0  0  0  0  0  0  0  0  0  0
  190.9930  176.4390  145.9220 C   0  0  0  0  0  0  0  0  0  0  0  0
  190.2690  177.2530  146.5530 O   0  0  0  0  0  1  0  0  0  0  0  0
  192.6720  175.5210  143.9050 S   0  0  0  0  0  0  0  0  0  0  0  0
  197.3120  174.8660  142.7760 C   0  0  0  0  0  1  0  0  0  0  0  0
  194.2680  176.3220  144.2530 C   0  0  2  0  0  3  0  0  0  0  0  0
  196.1950  175.3250  143.6420 C   0  0  0  0  0  0  0  0  0  0  0  0
  195.2040  176.0200  143.1800 N   0  0  0  0  0  0  0  0  0  0  0  0
  194.4960  175.6790  146.5910 O   0  0  0  0  0  0  0  0  0  0  0  0
  196.1390  175.0350  145.0320 N   0  0  0  0  0  2  0  0  0  0  0  0
  194.9300  175.6670  145.4090 C   0  0  0  0  0  0  0  0  0  0  0  0
  1 17  1  6  0  0  0
  1  3  1  0  0  0  0
  2  1  1  0  0  0  0
  3  9  1  1  0  0  0
  4  3  1  0  0  0  0
  5  2  2  0  0  0  0
  5  4  1  0  0  0  0
  7  6  1  0  0  0  0
  7  5  1  0  0  0  0
  9  8  1  6  0  0  0
 10  9  1  0  0  0  0
 10 11  1  1  0  0  0
 10 12  1  0  0  0  0
 12 13  1  0  0  0  0
 13 16  1  0  0  0  0
 16 14  1  0  0  0  0
 16 15  2  0  0  0  0
 17 18  1  0  0  0  0
 19 18  1  6  0  0  0
 19 21  1  0  0  0  0
 21 20  2  0  0  0  0
 21 22  1  0  0  0  0
 23 19  1  0  0  0  0
 24 26  1  0  0  0  0
 25 23  1  6  0  0  0
 25 30  1  0  0  0  0
 26 29  1  0  0  0  0
 27 26  2  0  0  0  0
 27 25  1  0  0  0  0
 29 30  1  0  0  0  0
 30 28  2  0  0  0  0
M  END
>  <MODEL>
4

>  <REMARK>
 VINA RESULT:      -5.7      2.700      6.559
  Name = 
  12 active torsions:
  status: ('A' for Active; 'I' for Inactive)
    1  A    between atoms: C_1  and  C_6
    2  A    between atoms: C_1  and  C_19
    3  A    between atoms: S_2  and  C_5
    4  A    between atoms: S_2  and  C_21
    5  A    between atoms: C_4  and  C_20
    6  A    between atoms: C_6  and  C_25
    7  A    between atoms: C_12  and  C_19
    8  A    between atoms: N_16  and  C_20
    9  A    between atoms: N_16  and  C_21
   10  A    between atoms: C_21  and  C_23
   11  A    between atoms: C_22  and  C_28
   12  A    between atoms: C_25  and  C_26
                            x       y       z     vdW  Elec       q    Type
                         _______ _______ _______ _____ _____    ______ ____

>  <TORSDO>
F 12

$$$$
=
 OpenBabel11042413453D

 30 31  0  0  1  0  0  0  0  0999 V2000
  190.2870  177.8650  144.0990 C   0  0  2  0  0  3  0  0  0  0  0  0
  191.7360  177.8350  143.9450 N   0  0  0  0  0  0  0  0  0  0  0  0
  189.9800  176.7320  145.0850 C   0  0  1  0  0  3  0  0  0  0  0  0
  191.2600  176.2080  145.4000 O   0  0  0  0  0  0  0  0  0  0  0  0
  192.2150  176.8990  144.6860 C   0  0  0  0  0  0  0  0  0  0  0  0
  194.1460  176.0870  143.5120 N   0  0  0  0  0  1  0  0  0  0  0  0
  193.6710  176.6140  144.7790 C   0  0  0  0  0  2  0  0  0  0  0  0
  190.1930  177.4520  147.3810 O   0  0  0  0  0  1  0  0  0  0  0  0
  189.2820  177.2800  146.3350 C   0  0  2  0  0  3  0  0  0  0  0  0
  188.1250  176.3950  146.7920 C   0  0  2  0  0  3  0  0  0  0  0  0
  188.4290  175.0540  146.6310 F   0  0  0  0  0  0  0  0  0  0  0  0
  186.8470  176.7470  146.0430 C   0  0  0  0  0  2  0  0  0  0  0  0
  185.7120  177.0500  147.0100 C   0  0  0  0  0  2  0  0  0  0  0  0
  184.0560  178.6680  146.0040 N   0  0  0  0  0  1  0  0  0  0  0  0
  185.7730  179.4040  147.3830 O   0  0  0  0  0  0  0  0  0  0  0  0
  185.2030  178.4380  146.8130 C   0  0  0  0  0  0  0  0  0  0  0  0
  189.6170  177.5730  142.7690 C   0  0  0  0  0  2  0  0  0  0  0  0
  188.2050  177.9400  142.8340 N   0  0  0  0  0  2  0  0  0  0  0  0
  187.3590  176.8100  142.4330 C   0  0  1  0  0  3  0  0  0  0  0  0
  185.6610  177.6970  140.8070 O   0  0  0  0  0  0  0  0  0  0  0  0
  185.9590  177.2330  142.0840 C   0  0  0  0  0  0  0  0  0  0  0  0
  185.0630  177.2440  142.9680 O   0  0  0  0  0  1  0  0  0  0  0  0
  188.1370  175.8030  141.1160 S   0  0  0  0  0  0  0  0  0  0  0  0
  190.4030  172.9690  144.2900 C   0  0  0  0  0  1  0  0  0  0  0  0
  187.8230  174.2370  141.9860 C   0  0  2  0  0  3  0  0  0  0  0  0
  189.4660  173.2460  143.1710 C   0  0  0  0  0  0  0  0  0  0  0  0
  188.5960  174.2050  143.2200 N   0  0  0  0  0  0  0  0  0  0  0  0
  188.0560  172.7170  140.0980 O   0  0  0  0  0  0  0  0  0  0  0  0
  189.4580  172.4790  141.9740 N   0  0  0  0  0  2  0  0  0  0  0  0
  188.4230  173.1040  141.2380 C   0  0  0  0  0  0  0  0  0  0  0  0
  1 17  1  6  0  0  0
  1  3  1  0  0  0  0
  2  1  1  0  0  0  0
  2  5  2  0  0  0  0
  3  4  1  0  0  0  0
  3  9  1  1  0  0  0
  5  7  1  0  0  0  0
  5  4  1  0  0  0  0
  6  7  1  0  0  0  0
  9 10  1  0  0  0  0
  9  8  1  1  0  0  0
 10 11  1  6  0  0  0
 12 10  1  0  0  0  0
 12 13  1  0  0  0  0
 14 16  1  0  0  0  0
 16 13  1  0  0  0  0
 16 15  2  0  0  0  0
 17 18  1  0  0  0  0
 19 23  1  6  0  0  0
 19 18  1  0  0  0  0
 20 21  2  0  0  0  0
 21 19  1  0  0  0  0
 21 22  1  0  0  0  0
 25 23  1  6  0  0  0
 25 27  1  0  0  0  0
 26 27  2  0  0  0  0
 26 24  1  0  0  0  0
 28 30  2  0  0  0  0
 29 26  1  0  0  0  0
 30 29  1  0  0  0  0
 30 25  1  0  0  0  0
M  END
>  <MODEL>
5

>  <REMARK>
 VINA RESULT:      -5.7      1.904      3.740
  Name = 
  12 active torsions:
  status: ('A' for Active; 'I' for Inactive)
    1  A    between atoms: C_1  and  C_6
    2  A    between atoms: C_1  and  C_19
    3  A    between atoms: S_2  and  C_5
    4  A    between atoms: S_2  and  C_21
    5  A    between atoms: C_4  and  C_20
    6  A    between atoms: C_6  and  C_25
    7  A    between atoms: C_12  and  C_19
    8  A    between atoms: N_16  and  C_20
    9  A    between atoms: N_16  and  C_21
   10  A    between atoms: C_21  and  C_23
   11  A    between atoms: C_22  and  C_28
   12  A    between atoms: C_25  and  C_26
                            x       y       z     vdW  Elec       q    Type
                         _______ _______ _______ _____ _____    ______ ____

>  <TORSDO>
F 12

$$$$
=
 OpenBabel11042413453D

 30 31  0  0  1  0  0  0  0  0999 V2000
  187.4700  176.2120  143.1550 C   0  0  2  0  0  3  0  0  0  0  0  0
  188.0650  175.0100  142.5850 N   0  0  0  0  0  0  0  0  0  0  0  0
  187.2580  177.1430  141.9550 C   0  0  1  0  0  3  0  0  0  0  0  0
  187.7200  176.3790  140.8540 O   0  0  0  0  0  0  0  0  0  0  0  0
  188.1800  175.1640  141.3130 C   0  0  0  0  0  0  0  0  0  0  0  0
  188.2970  174.3470  139.0580 N   0  0  0  0  0  1  0  0  0  0  0  0
  188.7330  174.1090  140.4230 C   0  0  0  0  0  2  0  0  0  0  0  0
  185.4220  177.5980  140.4540 O   0  0  0  0  0  1  0  0  0  0  0  0
  185.7750  177.4960  141.8020 C   0  0  2  0  0  3  0  0  0  0  0  0
  185.4010  178.7800  142.5370 C   0  0  2  0  0  3  0  0  0  0  0  0
  186.5270  179.5220  142.8490 F   0  0  0  0  0  0  0  0  0  0  0  0
  184.6010  178.4700  143.7950 C   0  0  0  0  0  2  0  0  0  0  0  0
  185.3230  178.9670  145.0400 C   0  0  0  0  0  2  0  0  0  0  0  0
  184.8560  178.4430  147.4640 N   0  0  0  0  0  1  0  0  0  0  0  0
  185.3390  176.7590  145.9400 O   0  0  0  0  0  0  0  0  0  0  0  0
  185.1870  177.9890  146.1570 C   0  0  0  0  0  0  0  0  0  0  0  0
  188.4340  176.8580  144.1320 C   0  0  0  0  0  2  0  0  0  0  0  0
  189.4950  175.9160  144.4770 N   0  0  0  0  0  2  0  0  0  0  0  0
  189.6820  175.8590  145.9310 C   0  0  1  0  0  3  0  0  0  0  0  0
  189.5270  173.3620  145.6990 O   0  0  0  0  0  0  0  0  0  0  0  0
  189.4000  174.4950  146.4960 C   0  0  0  0  0  0  0  0  0  0  0  0
  188.9720  174.3750  147.6740 O   0  0  0  0  0  1  0  0  0  0  0  0
  191.3190  176.5050  146.4380 S   0  0  0  0  0  0  0  0  0  0  0  0
  195.7340  174.6530  145.8700 C   0  0  0  0  0  1  0  0  0  0  0  0
  192.2090  175.4990  145.2110 C   0  0  2  0  0  3  0  0  0  0  0  0
  194.4370  175.1970  145.3910 C   0  0  0  0  0  0  0  0  0  0  0  0
  193.3010  174.7910  145.8650 N   0  0  0  0  0  0  0  0  0  0  0  0
  192.4230  177.1730  143.4540 O   0  0  0  0  0  0  0  0  0  0  0  0
  194.3520  176.1940  144.3820 N   0  0  0  0  0  2  0  0  0  0  0  0
  192.9530  176.3750  144.2710 C   0  0  0  0  0  0  0  0  0  0  0  0
  1 17  1  1  0  0  0
  2  1  1  0  0  0  0
  3  9  1  6  0  0  0
  3  1  1  0  0  0  0
  4  5  1  0  0  0  0
  4  3  1  0  0  0  0
  5  2  2  0  0  0  0
  6  7  1  0  0  0  0
  7  5  1  0  0  0  0
  9  8  1  6  0  0  0
  9 10  1  0  0  0  0
 10 11  1  1  0  0  0
 10 12  1  0  0  0  0
 12 13  1  0  0  0  0
 13 16  1  0  0  0  0
 15 16  2  0  0  0  0
 16 14  1  0  0  0  0
 17 18  1  0  0  0  0
 19 18  1  6  0  0  0
 19 23  1  0  0  0  0
 19 21  1  0  0  0  0
 20 21  2  0  0  0  0
 21 22  1  0  0  0  0
 25 27  1  0  0  0  0
 25 23  1  1  0  0  0
 26 27  2  0  0  0  0
 26 24  1  0  0  0  0
 28 30  2  0  0  0  0
 29 26  1  0  0  0  0
 30 29  1  0  0  0  0
 30 25  1  0  0  0  0
M  END
>  <MODEL>
6

>  <REMARK>
 VINA RESULT:      -5.7      2.503      6.142
  Name = 
  12 active torsions:
  status: ('A' for Active; 'I' for Inactive)
    1  A    between atoms: C_1  and  C_6
    2  A    between atoms: C_1  and  C_19
    3  A    between atoms: S_2  and  C_5
    4  A    between atoms: S_2  and  C_21
    5  A    between atoms: C_4  and  C_20
    6  A    between atoms: C_6  and  C_25
    7  A    between atoms: C_12  and  C_19
    8  A    between atoms: N_16  and  C_20
    9  A    between atoms: N_16  and  C_21
   10  A    between atoms: C_21  and  C_23
   11  A    between atoms: C_22  and  C_28
   12  A    between atoms: C_25  and  C_26
                            x       y       z     vdW  Elec       q    Type
                         _______ _______ _______ _____ _____    ______ ____

>  <TORSDO>
F 12

$$$$
=
 OpenBabel11042413453D

 30 31  0  0  1  0  0  0  0  0999 V2000
  188.5520  177.4030  145.1720 C   0  0  2  0  0  3  0  0  0  0  0  0
  189.8150  177.5840  145.8760 N   0  0  0  0  0  0  0  0  0  0  0  0
  187.7800  176.3860  146.0190 C   0  0  1  0  0  3  0  0  0  0  0  0
  188.6550  176.1230  147.1040 O   0  0  0  0  0  0  0  0  0  0  0  0
  189.8130  176.8500  146.9320 C   0  0  0  0  0  0  0  0  0  0  0  0
  192.1610  176.4200  147.1950 N   0  0  0  0  0  1  0  0  0  0  0  0
  190.9490  176.8180  147.8910 C   0  0  0  0  0  2  0  0  0  0  0  0
  185.3730  176.4220  145.8290 O   0  0  0  0  0  1  0  0  0  0  0  0
  186.4570  176.9850  146.5080 C   0  0  2  0  0  3  0  0  0  0  0  0
  186.4200  178.5060  146.3770 C   0  0  2  0  0  3  0  0  0  0  0  0
  186.5260  179.1150  147.6160 F   0  0  0  0  0  0  0  0  0  0  0  0
  185.1530  178.9580  145.6650 C   0  0  0  0  0  2  0  0  0  0  0  0
  185.4820  179.6810  144.3670 C   0  0  0  0  0  2  0  0  0  0  0  0
  186.2470  178.7140  142.1640 N   0  0  0  0  0  1  0  0  0  0  0  0
  184.2290  178.0790  143.1230 O   0  0  0  0  0  0  0  0  0  0  0  0
  185.2670  178.7880  143.1930 C   0  0  0  0  0  0  0  0  0  0  0  0
  188.8040  176.8240  143.7920 C   0  0  0  0  0  2  0  0  0  0  0  0
  190.1340  177.2080  143.3280 N   0  0  0  0  0  2  0  0  0  0  0  0
  190.9090  176.0220  142.9460 C   0  0  1  0  0  3  0  0  0  0  0  0
  193.1970  175.7730  141.9390 O   0  0  0  0  0  0  0  0  0  0  0  0
  192.3910  176.2750  142.9540 C   0  0  0  0  0  0  0  0  0  0  0  0
  192.9240  176.8770  143.9230 O   0  0  0  0  0  1  0  0  0  0  0  0
  190.4420  174.5500  143.9300 S   0  0  0  0  0  0  0  0  0  0  0  0
  188.2630  174.5580  139.6310 C   0  0  0  0  0  1  0  0  0  0  0  0
  190.3500  173.4740  142.4660 C   0  0  2  0  0  3  0  0  0  0  0  0
  188.8670  173.9140  140.8260 C   0  0  0  0  0  0  0  0  0  0  0  0
  190.0190  174.2760  141.2970 N   0  0  0  0  0  0  0  0  0  0  0  0
  189.0020  171.6820  143.4160 O   0  0  0  0  0  0  0  0  0  0  0  0
  188.2260  172.8600  141.5310 N   0  0  0  0  0  2  0  0  0  0  0  0
  189.1630  172.5860  142.5550 C   0  0  0  0  0  0  0  0  0  0  0  0
  1 17  1  6  0  0  0
  1  2  1  0  0  0  0
  1  3  1  0  0  0  0
  2  5  2  0  0  0  0
  3  9  1  1  0  0  0
  3  4  1  0  0  0  0
  5  4  1  0  0  0  0
  5  7  1  0  0  0  0
  6  7  1  0  0  0  0
  9  8  1  6  0  0  0
 10  9  1  0  0  0  0
 10 11  1  1  0  0  0
 12 10  1  0  0  0  0
 13 12  1  0  0  0  0
 14 16  1  0  0  0  0
 15 16  2  0  0  0  0
 16 13  1  0  0  0  0
 18 17  1  0  0  0  0
 19 21  1  1  0  0  0
 19 18  1  0  0  0  0
 19 23  1  0  0  0  0
 20 21  2  0  0  0  0
 21 22  1  0  0  0  0
 24 26  1  0  0  0  0
 25 30  1  0  0  0  0
 25 23  1  1  0  0  0
 26 27  2  0  0  0  0
 26 29  1  0  0  0  0
 27 25  1  0  0  0  0
 29 30  1  0  0  0  0
 30 28  2  0  0  0  0
M  END
>  <MODEL>
7

>  <REMARK>
 VINA RESULT:      -5.6      2.281      4.280
  Name = 
  12 active torsions:
  status: ('A' for Active; 'I' for Inactive)
    1  A    between atoms: C_1  and  C_6
    2  A    between atoms: C_1  and  C_19
    3  A    between atoms: S_2  and  C_5
    4  A    between atoms: S_2  and  C_21
    5  A    between atoms: C_4  and  C_20
    6  A    between atoms: C_6  and  C_25
    7  A    between atoms: C_12  and  C_19
    8  A    between atoms: N_16  and  C_20
    9  A    between atoms: N_16  and  C_21
   10  A    between atoms: C_21  and  C_23
   11  A    between atoms: C_22  and  C_28
   12  A    between atoms: C_25  and  C_26
                            x       y       z     vdW  Elec       q    Type
                         _______ _______ _______ _____ _____    ______ ____

>  <TORSDO>
F 12

$$$$
=
 OpenBabel11042413453D

 30 31  0  0  1  0  0  0  0  0999 V2000
  188.8210  177.5940  145.1090 C   0  0  2  0  0  3  0  0  0  0  0  0
  190.1000  177.3940  145.7790 N   0  0  0  0  0  0  0  0  0  0  0  0
  187.7960  176.9130  146.0220 C   0  0  1  0  0  3  0  0  0  0  0  0
  188.5790  176.4320  147.1020 O   0  0  0  0  0  0  0  0  0  0  0  0
  189.9010  176.7450  146.8720 C   0  0  0  0  0  0  0  0  0  0  0  0
  191.1920  177.4760  148.7600 N   0  0  0  0  0  1  0  0  0  0  0  0
  191.0010  176.3940  147.8090 C   0  0  0  0  0  2  0  0  0  0  0  0
  186.8830  178.1680  147.8720 O   0  0  0  0  0  1  0  0  0  0  0  0
  186.7480  177.9210  146.5030 C   0  0  2  0  0  3  0  0  0  0  0  0
  185.3220  177.4740  146.1920 C   0  0  2  0  0  3  0  0  0  0  0  0
  185.3160  176.3870  145.3350 F   0  0  0  0  0  0  0  0  0  0  0  0
  184.5100  178.6210  145.6070 C   0  0  0  0  0  2  0  0  0  0  0  0
  185.3300  179.4120  144.5960 C   0  0  0  0  0  2  0  0  0  0  0  0
  184.0050  178.2500  142.7890 N   0  0  0  0  0  1  0  0  0  0  0  0
  186.2440  178.7840  142.4860 O   0  0  0  0  0  0  0  0  0  0  0  0
  185.2380  178.7970  143.2410 C   0  0  0  0  0  0  0  0  0  0  0  0
  188.8300  176.9060  143.7570 C   0  0  0  0  0  2  0  0  0  0  0  0
  190.1900  176.4990  143.4150 N   0  0  0  0  0  2  0  0  0  0  0  0
  190.2950  175.0370  143.3670 C   0  0  1  0  0  3  0  0  0  0  0  0
  188.6480  174.3530  141.5970 O   0  0  0  0  0  1  0  0  0  0  0  0
  189.9700  174.4790  142.0090 C   0  0  0  0  0  0  0  0  0  0  0  0
  190.8910  174.0500  141.2660 O   0  0  0  0  0  0  0  0  0  0  0  0
  191.9070  174.4440  144.0020 S   0  0  0  0  0  0  0  0  0  0  0  0
  195.7890  175.9030  141.5440 C   0  0  0  0  0  1  0  0  0  0  0  0
  192.7490  176.0110  143.6220 C   0  0  2  0  0  3  0  0  0  0  0  0
  194.7690  176.0020  142.6190 C   0  0  0  0  0  0  0  0  0  0  0  0
  193.5010  175.8680  142.3830 N   0  0  0  0  0  0  0  0  0  0  0  0
  193.6730  176.4730  145.8270 O   0  0  0  0  0  0  0  0  0  0  0  0
  195.1110  176.2500  143.9770 N   0  0  0  0  0  2  0  0  0  0  0  0
  193.8400  176.2590  144.5980 C   0  0  0  0  0  0  0  0  0  0  0  0
  1 17  1  6  0  0  0
  1  2  1  0  0  0  0
  1  3  1  0  0  0  0
  2  5  2  0  0  0  0
  3  9  1  1  0  0  0
  3  4  1  0  0  0  0
  5  4  1  0  0  0  0
  5  7  1  0  0  0  0
  7  6  1  0  0  0  0
  9  8  1  1  0  0  0
 10 11  1  6  0  0  0
 10  9  1  0  0  0  0
 12 10  1  0  0  0  0
 13 12  1  0  0  0  0
 14 16  1  0  0  0  0
 15 16  2  0  0  0  0
 16 13  1  0  0  0  0
 18 17  1  0  0  0  0
 19 21  1  6  0  0  0
 19 18  1  0  0  0  0
 19 23  1  0  0  0  0
 20 21  1  0  0  0  0
 22 21  2  0  0  0  0
 24 26  1  0  0  0  0
 25 23  1  1  0  0  0
 25 30  1  0  0  0  0
 26 29  1  0  0  0  0
 27 26  2  0  0  0  0
 27 25  1  0  0  0  0
 29 30  1  0  0  0  0
 30 28  2  0  0  0  0
M  END
>  <MODEL>
8

>  <REMARK>
 VINA RESULT:      -5.4      2.560      5.001
  Name = 
  12 active torsions:
  status: ('A' for Active; 'I' for Inactive)
    1  A    between atoms: C_1  and  C_6
    2  A    between atoms: C_1  and  C_19
    3  A    between atoms: S_2  and  C_5
    4  A    between atoms: S_2  and  C_21
    5  A    between atoms: C_4  and  C_20
    6  A    between atoms: C_6  and  C_25
    7  A    between atoms: C_12  and  C_19
    8  A    between atoms: N_16  and  C_20
    9  A    between atoms: N_16  and  C_21
   10  A    between atoms: C_21  and  C_23
   11  A    between atoms: C_22  and  C_28
   12  A    between atoms: C_25  and  C_26
                            x       y       z     vdW  Elec       q    Type
                         _______ _______ _______ _____ _____    ______ ____

>  <TORSDO>
F 12

$$$$
=
 OpenBabel11042413453D

 30 31  0  0  1  0  0  0  0  0999 V2000
  187.7470  177.3200  145.0990 C   0  0  2  0  0  3  0  0  0  0  0  0
  189.1770  177.1280  145.3080 N   0  0  0  0  0  0  0  0  0  0  0  0
  187.1110  176.9940  146.4550 C   0  0  1  0  0  3  0  0  0  0  0  0
  188.2230  176.6840  147.2780 O   0  0  0  0  0  0  0  0  0  0  0  0
  189.3760  176.7760  146.5280 C   0  0  0  0  0  0  0  0  0  0  0  0
  191.6950  176.4550  145.9930 N   0  0  0  0  0  1  0  0  0  0  0  0
  190.7330  176.5210  147.0800 C   0  0  0  0  0  2  0  0  0  0  0  0
  186.6930  178.4690  148.3210 O   0  0  0  0  0  1  0  0  0  0  0  0
  186.3420  178.2040  146.9950 C   0  0  2  0  0  3  0  0  0  0  0  0
  184.8300  178.0320  146.8810 C   0  0  2  0  0  3  0  0  0  0  0  0
  184.5010  176.7390  146.5120 F   0  0  0  0  0  0  0  0  0  0  0  0
  184.2440  179.0340  145.8950 C   0  0  0  0  0  2  0  0  0  0  0  0
  184.0520  178.4030  144.5230 C   0  0  0  0  0  2  0  0  0  0  0  0
  185.7520  180.1580  143.8880 N   0  0  0  0  0  1  0  0  0  0  0  0
  184.9070  178.6740  142.3140 O   0  0  0  0  0  0  0  0  0  0  0  0
  184.9090  179.0770  143.5060 C   0  0  0  0  0  0  0  0  0  0  0  0
  187.2380  176.3440  144.0540 C   0  0  0  0  0  2  0  0  0  0  0  0
  188.2740  176.1030  143.0540 N   0  0  0  0  0  2  0  0  0  0  0  0
  187.6730  175.8030  141.7500 C   0  0  1  0  0  3  0  0  0  0  0  0
  186.8850  176.9450  139.6550 O   0  0  0  0  0  0  0  0  0  0  0  0
  187.5000  177.0310  140.8990 C   0  0  0  0  0  0  0  0  0  0  0  0
  187.9810  178.1330  141.2750 O   0  0  0  0  0  1  0  0  0  0  0  0
  188.5630  174.4630  140.8760 S   0  0  0  0  0  0  0  0  0  0  0  0
  193.2500  173.5060  141.4650 C   0  0  0  0  0  1  0  0  0  0  0  0
  189.7180  174.1920  142.2550 C   0  0  2  0  0  3  0  0  0  0  0  0
  191.8160  173.4710  141.8520 C   0  0  0  0  0  0  0  0  0  0  0  0
  191.0690  174.5290  141.8270 N   0  0  0  0  0  0  0  0  0  0  0  0
  188.9340  171.9970  142.9600 O   0  0  0  0  0  0  0  0  0  0  0  0
  191.1690  172.2790  142.2770 N   0  0  0  0  0  2  0  0  0  0  0  0
  189.8550  172.7400  142.5320 C   0  0  0  0  0  0  0  0  0  0  0  0
  1 17  1  6  0  0  0
  1  2  1  0  0  0  0
  1  3  1  0  0  0  0
  2  5  2  0  0  0  0
  3  9  1  1  0  0  0
  3  4  1  0  0  0  0
  5  7  1  0  0  0  0
  5  4  1  0  0  0  0
  6  7  1  0  0  0  0
  9  8  1  1  0  0  0
 10 11  1  6  0  0  0
 10  9  1  0  0  0  0
 12 10  1  0  0  0  0
 13 12  1  0  0  0  0
 15 16  2  0  0  0  0
 16 14  1  0  0  0  0
 16 13  1  0  0  0  0
 18 17  1  0  0  0  0
 19 23  1  6  0  0  0
 19 18  1  0  0  0  0
 20 21  2  0  0  0  0
 21 22  1  0  0  0  0
 21 19  1  0  0  0  0
 24 26  1  0  0  0  0
 25 23  1  6  0  0  0
 25 30  1  0  0  0  0
 26 29  1  0  0  0  0
 27 26  2  0  0  0  0
 27 25  1  0  0  0  0
 29 30  1  0  0  0  0
 30 28  2  0  0  0  0
M  END
>  <MODEL>
9

>  <REMARK>
 VINA RESULT:      -5.4      2.315      4.790
  Name = 
  12 active torsions:
  status: ('A' for Active; 'I' for Inactive)
    1  A    between atoms: C_1  and  C_6
    2  A    between atoms: C_1  and  C_19
    3  A    between atoms: S_2  and  C_5
    4  A    between atoms: S_2  and  C_21
    5  A    between atoms: C_4  and  C_20
    6  A    between atoms: C_6  and  C_25
    7  A    between atoms: C_12  and  C_19
    8  A    between atoms: N_16  and  C_20
    9  A    between atoms: N_16  and  C_21
   10  A    between atoms: C_21  and  C_23
   11  A    between atoms: C_22  and  C_28
   12  A    between atoms: C_25  and  C_26
                            x       y       z     vdW  Elec       q    Type
                         _______ _______ _______ _____ _____    ______ ____

>  <TORSDO>
F 12

$$$$
