=
 OpenBabel11042414333D

 46 49  0  0  1  0  0  0  0  0999 V2000
  189.2180  174.4360  143.1810 C   0  0  0  0  0  2  0  0  0  0  0  0
  190.0870  171.7620  142.2250 N   0  0  0  0  0  0  0  0  0  0  0  0
  189.9410  172.4810  144.5740 C   0  0  0  0  0  2  0  0  0  0  0  0
  189.3270  171.6170  143.4690 C   0  0  0  0  0  2  0  0  0  0  0  0
  190.3150  173.8760  144.0740 C   0  0  2  0  0  3  0  0  0  0  0  0
  189.7810  172.8330  141.3000 C   0  0  0  0  0  0  0  0  0  0  0  0
  189.4000  174.0690  141.7320 C   0  0  0  0  0  0  0  0  0  0  0  0
  189.0490  175.0800  140.7940 N   0  0  0  0  0  1  0  0  0  0  0  0
  190.6500  172.4300  137.8810 C   0  0  0  0  0  3  0  0  0  0  0  0
  188.9630  171.9190  139.1110 N   0  0  0  0  0  0  0  0  0  0  0  0
  189.4380  171.8440  137.8790 N   0  0  0  0  0  2  0  0  0  0  0  0
  190.9730  172.8870  139.1080 N   0  0  0  0  0  0  0  0  0  0  0  0
  189.8980  172.5470  139.8450 C   0  0  0  0  0  0  0  0  0  0  0  0
  191.1480  170.8060  141.8800 C   0  0  0  0  0  2  0  0  0  0  0  0
  191.9800  170.3600  143.0740 C   0  0  0  0  0  2  0  0  0  0  0  0
  193.5050  171.7300  144.3820 C   0  0  0  0  0  3  0  0  0  0  0  0
  193.1680  171.2370  143.2000 C   0  0  0  0  0  3  0  0  0  0  0  0
  194.6790  173.5620  145.3540 N   0  0  0  0  0  0  0  0  0  0  0  0
  194.6770  172.5910  144.4990 C   0  0  0  0  0  3  0  0  0  0  0  0
  195.8460  174.4240  145.4820 C   0  0  1  0  0  3  0  0  0  0  0  0
  197.1650  173.5660  146.3890 S   0  0  0  0  0  1  0  0  0  0  0  0
  196.3360  174.7850  144.1620 N   0  0  0  0  0  2  0  0  0  0  0  0
  195.0980  176.0070  140.9680 N   0  0  0  0  0  0  0  0  0  0  0  0
  196.4970  176.0170  141.4160 C   0  0  0  0  0  2  0  0  0  0  0  0
  194.3410  175.9350  143.3230 C   0  0  0  0  0  2  0  0  0  0  0  0
  195.1070  175.2610  139.7170 C   0  0  0  0  0  1  0  0  0  0  0  0
  194.2840  175.2580  141.9470 C   0  0  1  0  0  3  0  0  0  0  0  0
  196.6310  176.7710  142.7330 C   0  0  0  0  0  2  0  0  0  0  0  0
  192.8210  175.2170  141.5210 C   0  0  0  0  0  1  0  0  0  0  0  0
  195.7820  176.0900  143.8140 C   0  0  2  0  0  3  0  0  0  0  0  0
  190.5330  174.8060  145.2550 C   0  0  0  0  0  2  0  0  0  0  0  0
  188.9140  174.5880  147.6160 O   0  0  0  0  0  0  0  0  0  0  0  0
  189.3210  175.5650  145.5300 N   0  0  0  0  0  2  0  0  0  0  0  0
  188.5810  175.4360  146.7450 C   0  0  0  0  0  0  0  0  0  0  0  0
  187.4160  176.3240  146.9870 C   0  0  0  0  0  2  0  0  0  0  0  0
  187.5890  177.5670  146.2570 N   0  0  0  0  0  2  0  0  0  0  0  0
  186.3920  177.7430  145.4460 C   0  0  1  0  0  3  0  0  0  0  0  0
  184.2820  178.6420  146.4030 C   0  0  0  0  0  2  0  0  0  0  0  0
  185.4040  178.9590  147.3660 C   0  0  0  0  0  2  0  0  0  0  0  0
  185.6580  179.0040  145.8730 C   0  0  0  0  0  3  0  0  0  0  0  0
  186.7850  177.8380  143.9850 C   0  0  0  0  0  2  0  0  0  0  0  0
  185.7460  177.2470  143.1710 N   0  0  0  0  0  2  0  0  0  0  0  0
  186.3510  176.8730  141.9040 C   0  0  0  0  0  2  0  0  0  0  0  0
  184.6250  178.2820  140.8280 C   0  0  0  0  0  1  0  0  0  0  0  0
  186.1030  177.9580  140.8750 C   0  0  2  0  0  3  0  0  0  0  0  0
  186.5190  177.5200  139.6200 O   0  0  0  0  0  1  0  0  0  0  0  0
  1  5  1  0  0  0  0
  2  4  1  0  0  0  0
  4  3  1  0  0  0  0
  5  3  1  0  0  0  0
  5 31  1  1  0  0  0
  6  7  2  0  0  0  0
  6  2  1  0  0  0  0
  7  1  1  0  0  0  0
  8  7  1  0  0  0  0
  9 12  2  0  0  0  0
 10 13  2  0  0  0  0
 11  9  1  0  0  0  0
 11 10  1  0  0  0  0
 12 13  1  0  0  0  0
 13  6  1  0  0  0  0
 14  2  1  0  0  0  0
 14 15  1  0  0  0  0
 15 17  1  0  0  0  0
 16 19  1  0  0  0  0
 17 16  2  0  0  0  0
 18 20  1  0  0  0  0
 19 18  2  0  0  0  0
 20 21  1  1  0  0  0
 22 20  1  0  0  0  0
 23 24  1  0  0  0  0
 23 27  1  0  0  0  0
 24 28  1  0  0  0  0
 25 30  1  0  0  0  0
 26 23  1  0  0  0  0
 27 29  1  6  0  0  0
 27 25  1  0  0  0  0
 28 30  1  0  0  0  0
 30 22  1  6  0  0  0
 31 33  1  0  0  0  0
 33 34  1  0  0  0  0
 34 35  1  0  0  0  0
 34 32  2  0  0  0  0
 36 35  1  0  0  0  0
 37 41  1  6  0  0  0
 37 40  1  0  0  0  0
 37 36  1  0  0  0  0
 38 39  1  0  0  0  0
 40 38  1  0  0  0  0
 40 39  1  0  0  0  0
 42 41  1  0  0  0  0
 43 42  1  0  0  0  0
 45 44  1  6  0  0  0
 45 43  1  0  0  0  0
 46 45  1  0  0  0  0
M  END
>  <MODEL>
1

>  <REMARK>
 VINA RESULT:      -6.2      0.000      0.000
  Name = 
  18 active torsions:
  status: ('A' for Active; 'I' for Inactive)
    1  A    between atoms: N_3  and  C_20
    2  A    between atoms: N_5  and  C_21
    3  A    between atoms: N_5  and  C_25
    4  A    between atoms: C_6  and  C_21
    5  A    between atoms: C_7  and  C_41
    6  A    between atoms: N_10  and  C_23
    7  A    between atoms: N_10  and  C_37
    8  A    between atoms: N_12  and  C_17
    9  A    between atoms: C_15  and  C_27
   10  A    between atoms: C_15  and  N_33
   11  A    between atoms: C_17  and  C_18
   12  A    between atoms: C_18  and  C_22
   13  A    between atoms: C_20  and  N_24
   14  A    between atoms: C_23  and  C_36
   15  A    between atoms: N_24  and  C_44
   16  A    between atoms: C_25  and  C_37
   17  A    between atoms: C_30  and  C_37
   18  A    between atoms: C_38  and  C_40
                            x       y       z     vdW  Elec       q    Type
                         _______ _______ _______ _____ _____    ______ ____

>  <TORSDO>
F 18

$$$$
=
 OpenBabel11042414333D

 46 49  0  0  1  0  0  0  0  0999 V2000
  189.5850  177.0880  147.0660 C   0  0  0  0  0  2  0  0  0  0  0  0
  191.1170  176.6700  144.5550 N   0  0  0  0  0  0  0  0  0  0  0  0
  188.8600  177.6370  144.7300 C   0  0  0  0  0  2  0  0  0  0  0  0
  190.3420  177.9100  144.4600 C   0  0  0  0  0  2  0  0  0  0  0  0
  188.6540  176.7070  145.9250 C   0  0  2  0  0  3  0  0  0  0  0  0
  191.6240  176.2200  145.8350 C   0  0  0  0  0  0  0  0  0  0  0  0
  190.9180  176.3910  146.9890 C   0  0  0  0  0  0  0  0  0  0  0  0
  191.4740  175.9900  148.2370 N   0  0  0  0  0  1  0  0  0  0  0  0
  194.4560  174.0780  145.7990 C   0  0  0  0  0  3  0  0  0  0  0  0
  194.1290  176.1940  145.9910 N   0  0  0  0  0  0  0  0  0  0  0  0
  195.0700  175.2660  145.9510 N   0  0  0  0  0  0  0  0  0  0  0  0
  193.1170  174.2220  145.7370 N   0  0  0  0  0  2  0  0  0  0  0  0
  192.9540  175.5540  145.8580 C   0  0  0  0  0  0  0  0  0  0  0  0
  191.4180  175.8810  143.3540 C   0  0  0  0  0  2  0  0  0  0  0  0
  190.4960  174.6860  143.1620 C   0  0  0  0  0  2  0  0  0  0  0  0
  189.0680  174.3870  141.2170 C   0  0  0  0  0  3  0  0  0  0  0  0
  190.2940  174.4500  141.7130 C   0  0  0  0  0  3  0  0  0  0  0  0
  188.7830  172.9470  139.3380 N   0  0  0  0  0  0  0  0  0  0  0  0
  188.8750  174.1560  139.7890 C   0  0  0  0  0  3  0  0  0  0  0  0
  188.5870  172.7080  137.9160 C   0  0  1  0  0  3  0  0  0  0  0  0
  189.0140  174.1940  136.9630 S   0  0  0  0  0  1  0  0  0  0  0  0
  189.4320  171.6080  137.4820 N   0  0  0  0  0  2  0  0  0  0  0  0
  192.3930  169.4970  137.4650 N   0  0  0  0  0  0  0  0  0  0  0  0
  191.0100  169.0480  137.6730 C   0  0  0  0  0  2  0  0  0  0  0  0
  191.7670  171.7740  138.2040 C   0  0  0  0  0  2  0  0  0  0  0  0
  192.8740  168.7260  136.3280 C   0  0  0  0  0  1  0  0  0  0  0  0
  192.3840  170.9240  137.0850 C   0  0  1  0  0  3  0  0  0  0  0  0
  190.3780  169.7870  138.8460 C   0  0  0  0  0  2  0  0  0  0  0  0
  193.8010  171.4350  136.8540 C   0  0  0  0  0  1  0  0  0  0  0  0
  190.3600  171.2940  138.5640 C   0  0  2  0  0  3  0  0  0  0  0  0
  187.2130  176.7860  146.3970 C   0  0  0  0  0  2  0  0  0  0  0  0
  185.3000  178.9270  146.4000 O   0  0  0  0  0  0  0  0  0  0  0  0
  186.3380  177.1490  145.2900 N   0  0  0  0  0  2  0  0  0  0  0  0
  185.4330  178.2530  145.3440 C   0  0  0  0  0  0  0  0  0  0  0  0
  184.6530  178.6150  144.1340 C   0  0  0  0  0  2  0  0  0  0  0  0
  185.5370  179.1970  143.1390 N   0  0  0  0  0  2  0  0  0  0  0  0
  185.2030  178.5690  141.8680 C   0  0  1  0  0  3  0  0  0  0  0  0
  186.6630  177.3530  140.2650 C   0  0  0  0  0  2  0  0  0  0  0  0
  187.5060  177.7500  141.4560 C   0  0  0  0  0  2  0  0  0  0  0  0
  186.0640  177.3330  141.6600 C   0  0  0  0  0  3  0  0  0  0  0  0
  183.7360  178.1900  141.8650 C   0  0  0  0  0  2  0  0  0  0  0  0
  183.1810  178.4420  140.5530 N   0  0  0  0  0  2  0  0  0  0  0  0
  181.8400  177.8800  140.5380 C   0  0  0  0  0  2  0  0  0  0  0  0
  179.6330  177.9700  141.6540 C   0  0  0  0  0  1  0  0  0  0  0  0
  180.9170  178.7280  141.3900 C   0  0  2  0  0  3  0  0  0  0  0  0
  180.6220  179.9160  140.7240 O   0  0  0  0  0  1  0  0  0  0  0  0
  2  6  1  0  0  0  0
  3  5  1  0  0  0  0
  4  2  1  0  0  0  0
  4  3  1  0  0  0  0
  5 31  1  1  0  0  0
  5  1  1  0  0  0  0
  6 13  1  0  0  0  0
  6  7  2  0  0  0  0
  7  1  1  0  0  0  0
  7  8  1  0  0  0  0
  9 11  2  0  0  0  0
 11 10  1  0  0  0  0
 12  9  1  0  0  0  0
 12 13  1  0  0  0  0
 13 10  2  0  0  0  0
 14  2  1  0  0  0  0
 15 14  1  0  0  0  0
 16 17  2  0  0  0  0
 17 15  1  0  0  0  0
 18 19  2  0  0  0  0
 19 16  1  0  0  0  0
 20 21  1  6  0  0  0
 20 18  1  0  0  0  0
 22 20  1  0  0  0  0
 23 24  1  0  0  0  0
 24 28  1  0  0  0  0
 25 30  1  0  0  0  0
 26 23  1  0  0  0  0
 27 29  1  1  0  0  0
 27 23  1  0  0  0  0
 27 25  1  0  0  0  0
 30 22  1  6  0  0  0
 30 28  1  0  0  0  0
 33 34  1  0  0  0  0
 33 31  1  0  0  0  0
 34 32  2  0  0  0  0
 35 34  1  0  0  0  0
 36 35  1  0  0  0  0
 37 41  1  1  0  0  0
 37 36  1  0  0  0  0
 38 39  1  0  0  0  0
 38 40  1  0  0  0  0
 39 40  1  0  0  0  0
 40 37  1  0  0  0  0
 42 41  1  0  0  0  0
 43 42  1  0  0  0  0
 43 45  1  0  0  0  0
 45 44  1  6  0  0  0
 46 45  1  0  0  0  0
M  END
>  <MODEL>
2

>  <REMARK>
 VINA RESULT:      -6.2      3.372      6.883
  Name = 
  18 active torsions:
  status: ('A' for Active; 'I' for Inactive)
    1  A    between atoms: N_3  and  C_20
    2  A    between atoms: N_5  and  C_21
    3  A    between atoms: N_5  and  C_25
    4  A    between atoms: C_6  and  C_21
    5  A    between atoms: C_7  and  C_41
    6  A    between atoms: N_10  and  C_23
    7  A    between atoms: N_10  and  C_37
    8  A    between atoms: N_12  and  C_17
    9  A    between atoms: C_15  and  C_27
   10  A    between atoms: C_15  and  N_33
   11  A    between atoms: C_17  and  C_18
   12  A    between atoms: C_18  and  C_22
   13  A    between atoms: C_20  and  N_24
   14  A    between atoms: C_23  and  C_36
   15  A    between atoms: N_24  and  C_44
   16  A    between atoms: C_25  and  C_37
   17  A    between atoms: C_30  and  C_37
   18  A    between atoms: C_38  and  C_40
                            x       y       z     vdW  Elec       q    Type
                         _______ _______ _______ _____ _____    ______ ____

>  <TORSDO>
F 18

$$$$
=
 OpenBabel11042414333D

 46 49  0  0  1  0  0  0  0  0999 V2000
  192.7500  174.1150  145.1620 C   0  0  0  0  0  2  0  0  0  0  0  0
  195.7000  174.4320  145.2920 N   0  0  0  0  0  0  0  0  0  0  0  0
  194.0440  176.2510  145.3800 C   0  0  0  0  0  2  0  0  0  0  0  0
  195.0590  175.4180  146.1670 C   0  0  0  0  0  2  0  0  0  0  0  0
  193.1850  175.3900  144.4540 C   0  0  2  0  0  3  0  0  0  0  0  0
  195.0870  173.1380  145.0740 C   0  0  0  0  0  0  0  0  0  0  0  0
  193.7340  172.9890  144.9930 C   0  0  0  0  0  0  0  0  0  0  0  0
  193.1640  171.6930  144.8380 N   0  0  0  0  0  1  0  0  0  0  0  0
  197.2440  170.3360  145.3960 C   0  0  0  0  0  3  0  0  0  0  0  0
  196.3410  171.4040  143.7640 N   0  0  0  0  0  0  0  0  0  0  0  0
  197.1290  170.3830  144.0560 N   0  0  0  0  0  2  0  0  0  0  0  0
  196.5350  171.3200  145.9850 N   0  0  0  0  0  0  0  0  0  0  0  0
  195.9850  171.9610  144.9340 C   0  0  0  0  0  0  0  0  0  0  0  0
  196.9870  174.7260  144.6490 C   0  0  0  0  0  2  0  0  0  0  0  0
  196.8730  175.6640  143.4550 C   0  0  0  0  0  2  0  0  0  0  0  0
  195.2910  175.6800  141.6090 C   0  0  0  0  0  3  0  0  0  0  0  0
  196.1240  174.9880  142.3700 C   0  0  0  0  0  3  0  0  0  0  0  0
  193.3070  174.7230  140.6990 N   0  0  0  0  0  0  0  0  0  0  0  0
  194.5590  175.0090  140.5400 C   0  0  0  0  0  3  0  0  0  0  0  0
  192.5670  174.0570  139.6370 C   0  0  1  0  0  3  0  0  0  0  0  0
  193.5040  174.1190  138.0820 S   0  0  0  0  0  1  0  0  0  0  0  0
  192.3370  172.6670  139.9960 N   0  0  0  0  0  2  0  0  0  0  0  0
  189.3930  172.0480  142.0380 N   0  0  0  0  0  0  0  0  0  0  0  0
  190.4280  171.0660  141.6920 C   0  0  0  0  0  2  0  0  0  0  0  0
  189.9970  173.3920  140.0500 C   0  0  0  0  0  2  0  0  0  0  0  0
  189.3560  172.0610  143.4940 C   0  0  0  0  0  1  0  0  0  0  0  0
  189.8210  173.3840  141.5750 C   0  0  1  0  0  3  0  0  0  0  0  0
  190.5740  170.9550  140.1790 C   0  0  0  0  0  2  0  0  0  0  0  0
  188.7770  174.4400  141.9180 C   0  0  0  0  0  1  0  0  0  0  0  0
  190.9800  172.3130  139.5920 C   0  0  2  0  0  3  0  0  0  0  0  0
  191.9600  176.1710  144.0130 C   0  0  0  0  0  2  0  0  0  0  0  0
  190.4760  177.0680  146.3020 O   0  0  0  0  0  0  0  0  0  0  0  0
  190.7510  175.5530  144.5410 N   0  0  0  0  0  2  0  0  0  0  0  0
  190.0370  176.0740  145.6640 C   0  0  0  0  0  0  0  0  0  0  0  0
  188.7570  175.4420  146.0710 C   0  0  0  0  0  2  0  0  0  0  0  0
  188.0030  176.3600  146.9060 N   0  0  0  0  0  2  0  0  0  0  0  0
  186.7860  176.6840  146.1740 C   0  0  1  0  0  3  0  0  0  0  0  0
  184.8470  178.0100  146.9860 C   0  0  0  0  0  2  0  0  0  0  0  0
  185.9360  178.0870  148.0320 C   0  0  0  0  0  2  0  0  0  0  0  0
  186.3030  178.0730  146.5620 C   0  0  0  0  0  3  0  0  0  0  0  0
  187.0650  176.6260  144.6850 C   0  0  0  0  0  2  0  0  0  0  0  0
  187.2010  177.9720  144.1730 N   0  0  0  0  0  2  0  0  0  0  0  0
  186.6600  177.9760  142.8230 C   0  0  0  0  0  2  0  0  0  0  0  0
  185.4370  179.8660  143.8480 C   0  0  0  0  0  1  0  0  0  0  0  0
  185.3840  178.7920  142.7830 C   0  0  2  0  0  3  0  0  0  0  0  0
  184.2890  177.9630  143.0190 O   0  0  0  0  0  1  0  0  0  0  0  0
  2  4  1  0  0  0  0
  3  4  1  0  0  0  0
  5 31  1  1  0  0  0
  5  1  1  0  0  0  0
  5  3  1  0  0  0  0
  6  2  1  0  0  0  0
  7  6  2  0  0  0  0
  7  1  1  0  0  0  0
  8  7  1  0  0  0  0
  9 12  2  0  0  0  0
 10 11  1  0  0  0  0
 10 13  2  0  0  0  0
 11  9  1  0  0  0  0
 13  6  1  0  0  0  0
 13 12  1  0  0  0  0
 14  2  1  0  0  0  0
 15 14  1  0  0  0  0
 16 17  2  0  0  0  0
 17 15  1  0  0  0  0
 19 18  2  0  0  0  0
 19 16  1  0  0  0  0
 20 21  1  6  0  0  0
 20 22  1  0  0  0  0
 20 18  1  0  0  0  0
 23 26  1  0  0  0  0
 24 23  1  0  0  0  0
 25 27  1  0  0  0  0
 27 29  1  6  0  0  0
 27 23  1  0  0  0  0
 28 24  1  0  0  0  0
 30 22  1  1  0  0  0
 30 25  1  0  0  0  0
 30 28  1  0  0  0  0
 31 33  1  0  0  0  0
 33 34  1  0  0  0  0
 34 35  1  0  0  0  0
 34 32  2  0  0  0  0
 35 36  1  0  0  0  0
 37 41  1  6  0  0  0
 37 40  1  0  0  0  0
 37 36  1  0  0  0  0
 38 39  1  0  0  0  0
 40 38  1  0  0  0  0
 40 39  1  0  0  0  0
 42 41  1  0  0  0  0
 43 42  1  0  0  0  0
 45 43  1  0  0  0  0
 45 46  1  0  0  0  0
 45 44  1  1  0  0  0
M  END
>  <MODEL>
3

>  <REMARK>
 VINA RESULT:      -6.1      2.324      5.763
  Name = 
  18 active torsions:
  status: ('A' for Active; 'I' for Inactive)
    1  A    between atoms: N_3  and  C_20
    2  A    between atoms: N_5  and  C_21
    3  A    between atoms: N_5  and  C_25
    4  A    between atoms: C_6  and  C_21
    5  A    between atoms: C_7  and  C_41
    6  A    between atoms: N_10  and  C_23
    7  A    between atoms: N_10  and  C_37
    8  A    between atoms: N_12  and  C_17
    9  A    between atoms: C_15  and  C_27
   10  A    between atoms: C_15  and  N_33
   11  A    between atoms: C_17  and  C_18
   12  A    between atoms: C_18  and  C_22
   13  A    between atoms: C_20  and  N_24
   14  A    between atoms: C_23  and  C_36
   15  A    between atoms: N_24  and  C_44
   16  A    between atoms: C_25  and  C_37
   17  A    between atoms: C_30  and  C_37
   18  A    between atoms: C_38  and  C_40
                            x       y       z     vdW  Elec       q    Type
                         _______ _______ _______ _____ _____    ______ ____

>  <TORSDO>
F 18

$$$$
=
 OpenBabel11042414333D

 46 49  0  0  1  0  0  0  0  0999 V2000
  189.3830  174.0480  141.3340 C   0  0  0  0  0  2  0  0  0  0  0  0
  190.5040  171.3030  141.1640 N   0  0  0  0  0  0  0  0  0  0  0  0
  190.3250  172.6700  143.2030 C   0  0  0  0  0  2  0  0  0  0  0  0
  189.7840  171.4640  142.4300 C   0  0  0  0  0  2  0  0  0  0  0  0
  190.5460  173.8820  142.3000 C   0  0  2  0  0  3  0  0  0  0  0  0
  190.0750  172.0200  139.9810 C   0  0  0  0  0  0  0  0  0  0  0  0
  189.5780  173.2880  140.0490 C   0  0  0  0  0  0  0  0  0  0  0  0
  189.1090  173.9390  138.8730 N   0  0  0  0  0  1  0  0  0  0  0  0
  190.8940  170.7460  136.7690 C   0  0  0  0  0  3  0  0  0  0  0  0
  189.3720  170.3590  138.2360 N   0  0  0  0  0  0  0  0  0  0  0  0
  189.8120  169.9940  137.0440 N   0  0  0  0  0  2  0  0  0  0  0  0
  191.1650  171.6020  137.7750 N   0  0  0  0  0  0  0  0  0  0  0  0
  190.1960  171.3280  138.6700 C   0  0  0  0  0  0  0  0  0  0  0  0
  191.6510  170.3910  141.0660 C   0  0  0  0  0  2  0  0  0  0  0  0
  191.8100  169.4780  142.2730 C   0  0  0  0  0  2  0  0  0  0  0  0
  193.1280  169.4320  144.3160 C   0  0  0  0  0  3  0  0  0  0  0  0
  192.8880  170.0010  143.1450 C   0  0  0  0  0  3  0  0  0  0  0  0
  194.7920  171.0520  144.8540 N   0  0  0  0  0  0  0  0  0  0  0  0
  194.1920  169.9500  145.1690 C   0  0  0  0  0  3  0  0  0  0  0  0
  195.8520  171.5780  145.7000 C   0  0  1  0  0  3  0  0  0  0  0  0
  197.4780  171.1550  145.0080 S   0  0  0  0  0  1  0  0  0  0  0  0
  195.7380  173.0250  145.7890 N   0  0  0  0  0  2  0  0  0  0  0  0
  194.4770  176.3640  145.0930 N   0  0  0  0  0  0  0  0  0  0  0  0
  193.9810  175.4500  146.1300 C   0  0  0  0  0  2  0  0  0  0  0  0
  195.3750  174.4400  143.8220 C   0  0  0  0  0  2  0  0  0  0  0  0
  194.8560  177.5760  145.8060 C   0  0  0  0  0  1  0  0  0  0  0  0
  195.6930  175.7870  144.4840 C   0  0  1  0  0  3  0  0  0  0  0  0
  193.5500  174.1250  145.5140 C   0  0  0  0  0  2  0  0  0  0  0  0
  196.2480  176.7060  143.4010 C   0  0  0  0  0  1  0  0  0  0  0  0
  194.7430  173.4620  144.8140 C   0  0  2  0  0  3  0  0  0  0  0  0
  190.6870  175.1360  143.1450 C   0  0  0  0  0  2  0  0  0  0  0  0
  190.2050  177.9400  142.7630 O   0  0  0  0  0  0  0  0  0  0  0  0
  189.4000  175.8050  143.2760 N   0  0  0  0  0  2  0  0  0  0  0  0
  189.2210  177.2010  143.0340 C   0  0  0  0  0  0  0  0  0  0  0  0
  187.8550  177.7820  143.0890 C   0  0  0  0  0  2  0  0  0  0  0  0
  187.0520  177.0490  144.0530 N   0  0  0  0  0  2  0  0  0  0  0  0
  186.5500  178.0300  145.0060 C   0  0  1  0  0  3  0  0  0  0  0  0
  184.5480  179.3990  144.4640 C   0  0  0  0  0  2  0  0  0  0  0  0
  184.5590  178.2030  143.5400 C   0  0  0  0  0  2  0  0  0  0  0  0
  185.0290  178.0520  144.9710 C   0  0  0  0  0  3  0  0  0  0  0  0
  187.0350  177.6720  146.3960 C   0  0  0  0  0  2  0  0  0  0  0  0
  187.9140  176.5270  146.3150 N   0  0  0  0  0  2  0  0  0  0  0  0
  189.1910  176.9230  146.8870 C   0  0  0  0  0  2  0  0  0  0  0  0
  189.3930  174.4620  146.7210 C   0  0  0  0  0  1  0  0  0  0  0  0
  190.1630  175.7610  146.8280 C   0  0  2  0  0  3  0  0  0  0  0  0
  190.9420  175.7410  147.9830 O   0  0  0  0  0  1  0  0  0  0  0  0
  1  5  1  0  0  0  0
  2  4  1  0  0  0  0
  4  3  1  0  0  0  0
  5 31  1  1  0  0  0
  5  3  1  0  0  0  0
  6  7  2  0  0  0  0
  6  2  1  0  0  0  0
  7  1  1  0  0  0  0
  8  7  1  0  0  0  0
  9 11  1  0  0  0  0
  9 12  2  0  0  0  0
 10 13  2  0  0  0  0
 11 10  1  0  0  0  0
 12 13  1  0  0  0  0
 13  6  1  0  0  0  0
 14  2  1  0  0  0  0
 14 15  1  0  0  0  0
 15 17  1  0  0  0  0
 16 19  1  0  0  0  0
 17 16  2  0  0  0  0
 18 19  2  0  0  0  0
 18 20  1  0  0  0  0
 20 21  1  6  0  0  0
 20 22  1  0  0  0  0
 23 26  1  0  0  0  0
 23 24  1  0  0  0  0
 25 27  1  0  0  0  0
 25 30  1  0  0  0  0
 27 29  1  6  0  0  0
 27 23  1  0  0  0  0
 28 24  1  0  0  0  0
 30 28  1  0  0  0  0
 30 22  1  1  0  0  0
 31 33  1  0  0  0  0
 32 34  2  0  0  0  0
 34 35  1  0  0  0  0
 34 33  1  0  0  0  0
 35 36  1  0  0  0  0
 36 37  1  0  0  0  0
 37 41  1  1  0  0  0
 38 40  1  0  0  0  0
 39 38  1  0  0  0  0
 39 40  1  0  0  0  0
 40 37  1  0  0  0  0
 42 41  1  0  0  0  0
 42 43  1  0  0  0  0
 45 44  1  1  0  0  0
 45 43  1  0  0  0  0
 45 46  1  0  0  0  0
M  END
>  <MODEL>
4

>  <REMARK>
 VINA RESULT:      -6.0      2.013      3.680
  Name = 
  18 active torsions:
  status: ('A' for Active; 'I' for Inactive)
    1  A    between atoms: N_3  and  C_20
    2  A    between atoms: N_5  and  C_21
    3  A    between atoms: N_5  and  C_25
    4  A    between atoms: C_6  and  C_21
    5  A    between atoms: C_7  and  C_41
    6  A    between atoms: N_10  and  C_23
    7  A    between atoms: N_10  and  C_37
    8  A    between atoms: N_12  and  C_17
    9  A    between atoms: C_15  and  C_27
   10  A    between atoms: C_15  and  N_33
   11  A    between atoms: C_17  and  C_18
   12  A    between atoms: C_18  and  C_22
   13  A    between atoms: C_20  and  N_24
   14  A    between atoms: C_23  and  C_36
   15  A    between atoms: N_24  and  C_44
   16  A    between atoms: C_25  and  C_37
   17  A    between atoms: C_30  and  C_37
   18  A    between atoms: C_38  and  C_40
                            x       y       z     vdW  Elec       q    Type
                         _______ _______ _______ _____ _____    ______ ____

>  <TORSDO>
F 18

$$$$
=
 OpenBabel11042414333D

 46 49  0  0  1  0  0  0  0  0999 V2000
  192.2350  174.4700  145.9670 C   0  0  0  0  0  2  0  0  0  0  0  0
  194.9760  174.5670  144.8260 N   0  0  0  0  0  0  0  0  0  0  0  0
  193.9770  176.2340  146.3360 C   0  0  0  0  0  2  0  0  0  0  0  0
  194.9910  175.0970  146.1930 C   0  0  0  0  0  2  0  0  0  0  0  0
  192.6420  175.9050  145.6680 C   0  0  2  0  0  3  0  0  0  0  0  0
  194.0380  173.5280  144.4540 C   0  0  0  0  0  0  0  0  0  0  0  0
  192.7710  173.4890  144.9590 C   0  0  0  0  0  0  0  0  0  0  0  0
  191.8960  172.4190  144.6170 N   0  0  0  0  0  1  0  0  0  0  0  0
  194.7670  171.3820  141.7210 C   0  0  0  0  0  3  0  0  0  0  0  0
  195.3470  171.4940  143.7870 N   0  0  0  0  0  0  0  0  0  0  0  0
  195.5170  170.8000  142.6740 N   0  0  0  0  0  0  0  0  0  0  0  0
  194.1070  172.4550  142.2020 N   0  0  0  0  0  2  0  0  0  0  0  0
  194.4970  172.4920  143.4910 C   0  0  0  0  0  0  0  0  0  0  0  0
  195.9300  175.0560  143.8230 C   0  0  0  0  0  2  0  0  0  0  0  0
  195.4980  176.3510  143.1500 C   0  0  0  0  0  2  0  0  0  0  0  0
  195.4150  175.7250  140.8020 C   0  0  0  0  0  3  0  0  0  0  0  0
  194.7550  176.0340  141.9070 C   0  0  0  0  0  3  0  0  0  0  0  0
  193.6960  174.5720  139.6210 N   0  0  0  0  0  0  0  0  0  0  0  0
  194.6790  175.4120  139.5820 C   0  0  0  0  0  3  0  0  0  0  0  0
  192.9530  174.2560  138.4090 C   0  0  1  0  0  3  0  0  0  0  0  0
  193.9100  174.7340  136.9420 S   0  0  0  0  0  1  0  0  0  0  0  0
  192.6840  172.8280  138.3560 N   0  0  0  0  0  2  0  0  0  0  0  0
  190.3450  171.1130  140.5490 N   0  0  0  0  0  0  0  0  0  0  0  0
  191.1610  170.4920  139.4980 C   0  0  0  0  0  2  0  0  0  0  0  0
  190.5160  173.2960  139.3960 C   0  0  0  0  0  2  0  0  0  0  0  0
  190.6980  170.4030  141.7700 C   0  0  0  0  0  1  0  0  0  0  0  0
  190.7500  172.5250  140.7020 C   0  0  1  0  0  3  0  0  0  0  0  0
  190.8900  171.1510  138.1510 C   0  0  0  0  0  2  0  0  0  0  0  0
  189.9310  173.2120  141.7890 C   0  0  0  0  0  1  0  0  0  0  0  0
  191.2430  172.6420  138.2200 C   0  0  2  0  0  3  0  0  0  0  0  0
  191.5670  176.8540  146.1680 C   0  0  0  0  0  2  0  0  0  0  0  0
  188.8700  176.3020  146.9840 O   0  0  0  0  0  0  0  0  0  0  0  0
  190.4040  176.8060  145.2920 N   0  0  0  0  0  2  0  0  0  0  0  0
  189.0800  176.5630  145.7690 C   0  0  0  0  0  0  0  0  0  0  0  0
  187.9390  176.6360  144.8220 C   0  0  0  0  0  2  0  0  0  0  0  0
  187.4610  178.0040  144.7360 N   0  0  0  0  0  2  0  0  0  0  0  0
  186.0140  177.9510  144.8990 C   0  0  1  0  0  3  0  0  0  0  0  0
  184.6140  178.3230  146.9190 C   0  0  0  0  0  2  0  0  0  0  0  0
  186.0590  178.5440  147.3050 C   0  0  0  0  0  2  0  0  0  0  0  0
  185.5730  178.9720  145.9360 C   0  0  0  0  0  3  0  0  0  0  0  0
  185.3490  178.2370  143.5680 C   0  0  0  0  0  2  0  0  0  0  0  0
  186.3270  178.7800  142.6520 N   0  0  0  0  0  2  0  0  0  0  0  0
  186.1940  178.0540  141.3990 C   0  0  0  0  0  2  0  0  0  0  0  0
  187.7140  176.1270  141.0860 C   0  0  0  0  0  1  0  0  0  0  0  0
  187.5610  177.6220  140.9070 C   0  0  2  0  0  3  0  0  0  0  0  0
  188.5510  178.2770  141.6360 O   0  0  0  0  0  1  0  0  0  0  0  0
  2  4  1  0  0  0  0
  4  3  1  0  0  0  0
  5  1  1  0  0  0  0
  5 31  1  1  0  0  0
  5  3  1  0  0  0  0
  6  2  1  0  0  0  0
  6  7  2  0  0  0  0
  7  1  1  0  0  0  0
  8  7  1  0  0  0  0
  9 12  1  0  0  0  0
  9 11  2  0  0  0  0
 11 10  1  0  0  0  0
 12 13  1  0  0  0  0
 13 10  2  0  0  0  0
 13  6  1  0  0  0  0
 14  2  1  0  0  0  0
 15 14  1  0  0  0  0
 16 17  2  0  0  0  0
 17 15  1  0  0  0  0
 19 18  2  0  0  0  0
 19 16  1  0  0  0  0
 20 21  1  6  0  0  0
 20 18  1  0  0  0  0
 22 20  1  0  0  0  0
 23 27  1  0  0  0  0
 23 26  1  0  0  0  0
 24 23  1  0  0  0  0
 25 27  1  0  0  0  0
 27 29  1  1  0  0  0
 28 30  1  0  0  0  0
 28 24  1  0  0  0  0
 30 22  1  1  0  0  0
 30 25  1  0  0  0  0
 33 34  1  0  0  0  0
 33 31  1  0  0  0  0
 34 32  2  0  0  0  0
 35 34  1  0  0  0  0
 36 35  1  0  0  0  0
 36 37  1  0  0  0  0
 37 41  1  6  0  0  0
 37 40  1  0  0  0  0
 38 39  1  0  0  0  0
 40 38  1  0  0  0  0
 40 39  1  0  0  0  0
 42 41  1  0  0  0  0
 43 42  1  0  0  0  0
 45 44  1  1  0  0  0
 45 43  1  0  0  0  0
 45 46  1  0  0  0  0
M  END
>  <MODEL>
5

>  <REMARK>
 VINA RESULT:      -5.9      2.347      5.330
  Name = 
  18 active torsions:
  status: ('A' for Active; 'I' for Inactive)
    1  A    between atoms: N_3  and  C_20
    2  A    between atoms: N_5  and  C_21
    3  A    between atoms: N_5  and  C_25
    4  A    between atoms: C_6  and  C_21
    5  A    between atoms: C_7  and  C_41
    6  A    between atoms: N_10  and  C_23
    7  A    between atoms: N_10  and  C_37
    8  A    between atoms: N_12  and  C_17
    9  A    between atoms: C_15  and  C_27
   10  A    between atoms: C_15  and  N_33
   11  A    between atoms: C_17  and  C_18
   12  A    between atoms: C_18  and  C_22
   13  A    between atoms: C_20  and  N_24
   14  A    between atoms: C_23  and  C_36
   15  A    between atoms: N_24  and  C_44
   16  A    between atoms: C_25  and  C_37
   17  A    between atoms: C_30  and  C_37
   18  A    between atoms: C_38  and  C_40
                            x       y       z     vdW  Elec       q    Type
                         _______ _______ _______ _____ _____    ______ ____

>  <TORSDO>
F 18

$$$$
=
 OpenBabel11042414333D

 46 49  0  0  1  0  0  0  0  0999 V2000
  188.5970  174.3620  142.8030 C   0  0  0  0  0  2  0  0  0  0  0  0
  190.0910  171.9190  142.0120 N   0  0  0  0  0  0  0  0  0  0  0  0
  189.6440  172.6600  144.3160 C   0  0  0  0  0  2  0  0  0  0  0  0
  189.3050  171.6480  143.2190 C   0  0  0  0  0  2  0  0  0  0  0  0
  189.7330  174.0870  143.7770 C   0  0  2  0  0  3  0  0  0  0  0  0
  189.6140  172.8680  141.0260 C   0  0  0  0  0  0  0  0  0  0  0  0
  188.9450  174.0010  141.3840 C   0  0  0  0  0  0  0  0  0  0  0  0
  188.4390  174.8800  140.3850 N   0  0  0  0  0  1  0  0  0  0  0  0
  189.7210  171.7760  137.6490 C   0  0  0  0  0  3  0  0  0  0  0  0
  190.8830  173.1060  138.8740 N   0  0  0  0  0  0  0  0  0  0  0  0
  190.7790  172.6080  137.6540 N   0  0  0  0  0  2  0  0  0  0  0  0
  189.1300  171.7270  138.8600 N   0  0  0  0  0  0  0  0  0  0  0  0
  189.8820  172.5700  139.5940 C   0  0  0  0  0  0  0  0  0  0  0  0
  191.3550  171.2130  141.7670 C   0  0  0  0  0  2  0  0  0  0  0  0
  192.0220  170.6980  143.0340 C   0  0  0  0  0  2  0  0  0  0  0  0
  193.8200  171.4030  144.5100 C   0  0  0  0  0  3  0  0  0  0  0  0
  193.1910  171.5500  143.3550 C   0  0  0  0  0  3  0  0  0  0  0  0
  194.8020  173.5020  145.0700 N   0  0  0  0  0  0  0  0  0  0  0  0
  194.9720  172.2440  144.8200 C   0  0  0  0  0  3  0  0  0  0  0  0
  195.9440  174.3480  145.3830 C   0  0  1  0  0  3  0  0  0  0  0  0
  197.1890  173.4050  146.3120 S   0  0  0  0  0  1  0  0  0  0  0  0
  196.5430  174.8400  144.1540 N   0  0  0  0  0  2  0  0  0  0  0  0
  194.9660  176.2320  141.1880 N   0  0  0  0  0  0  0  0  0  0  0  0
  196.4100  176.1360  141.4360 C   0  0  0  0  0  2  0  0  0  0  0  0
  194.5380  176.1430  143.6240 C   0  0  0  0  0  2  0  0  0  0  0  0
  194.7500  175.5230  139.9340 C   0  0  0  0  0  1  0  0  0  0  0  0
  194.2440  175.5110  142.2560 C   0  0  1  0  0  3  0  0  0  0  0  0
  196.7770  176.8420  142.7360 C   0  0  0  0  0  2  0  0  0  0  0  0
  192.7370  175.5800  142.0380 C   0  0  0  0  0  1  0  0  0  0  0  0
  196.0400  176.1880  143.9110 C   0  0  2  0  0  3  0  0  0  0  0  0
  189.6670  175.0770  144.9270 C   0  0  0  0  0  2  0  0  0  0  0  0
  189.9840  177.9120  144.6010 O   0  0  0  0  0  0  0  0  0  0  0  0
  188.5920  176.0350  144.7070 N   0  0  0  0  0  2  0  0  0  0  0  0
  188.8220  177.4320  144.5140 C   0  0  0  0  0  0  0  0  0  0  0  0
  187.6780  178.3220  144.1930 C   0  0  0  0  0  2  0  0  0  0  0  0
  187.4150  178.2840  142.7650 N   0  0  0  0  0  2  0  0  0  0  0  0
  186.0910  178.8600  142.5700 C   0  0  1  0  0  3  0  0  0  0  0  0
  184.5410  178.4790  140.6650 C   0  0  0  0  0  2  0  0  0  0  0  0
  185.7180  177.5430  140.5040 C   0  0  0  0  0  2  0  0  0  0  0  0
  185.1830  177.8490  141.8880 C   0  0  0  0  0  3  0  0  0  0  0  0
  185.5130  179.2570  143.9140 C   0  0  0  0  0  2  0  0  0  0  0  0
  184.6910  178.1790  144.4170 N   0  0  0  0  0  2  0  0  0  0  0  0
  184.2380  178.5650  145.7430 C   0  0  0  0  0  2  0  0  0  0  0  0
  185.9330  178.2570  147.5190 C   0  0  0  0  0  1  0  0  0  0  0  0
  184.7890  177.6010  146.7750 C   0  0  2  0  0  3  0  0  0  0  0  0
  185.2510  176.4490  146.1420 O   0  0  0  0  0  1  0  0  0  0  0  0
  1  5  1  0  0  0  0
  2  4  1  0  0  0  0
  4  3  1  0  0  0  0
  5  3  1  0  0  0  0
  5 31  1  1  0  0  0
  6  7  2  0  0  0  0
  6  2  1  0  0  0  0
  7  1  1  0  0  0  0
  8  7  1  0  0  0  0
  9 11  1  0  0  0  0
  9 12  2  0  0  0  0
 10 13  2  0  0  0  0
 11 10  1  0  0  0  0
 12 13  1  0  0  0  0
 13  6  1  0  0  0  0
 14  2  1  0  0  0  0
 14 15  1  0  0  0  0
 15 17  1  0  0  0  0
 16 19  1  0  0  0  0
 17 16  2  0  0  0  0
 18 20  1  0  0  0  0
 19 18  2  0  0  0  0
 20 21  1  6  0  0  0
 22 20  1  0  0  0  0
 23 24  1  0  0  0  0
 23 27  1  0  0  0  0
 24 28  1  0  0  0  0
 25 30  1  0  0  0  0
 26 23  1  0  0  0  0
 27 29  1  6  0  0  0
 27 25  1  0  0  0  0
 28 30  1  0  0  0  0
 30 22  1  6  0  0  0
 33 31  1  0  0  0  0
 34 32  2  0  0  0  0
 34 33  1  0  0  0  0
 35 34  1  0  0  0  0
 36 35  1  0  0  0  0
 37 36  1  0  0  0  0
 37 41  1  1  0  0  0
 38 40  1  0  0  0  0
 39 38  1  0  0  0  0
 39 40  1  0  0  0  0
 40 37  1  0  0  0  0
 41 42  1  0  0  0  0
 42 43  1  0  0  0  0
 43 45  1  0  0  0  0
 45 44  1  6  0  0  0
 46 45  1  0  0  0  0
M  END
>  <MODEL>
6

>  <REMARK>
 VINA RESULT:      -5.9      1.452      2.730
  Name = 
  18 active torsions:
  status: ('A' for Active; 'I' for Inactive)
    1  A    between atoms: N_3  and  C_20
    2  A    between atoms: N_5  and  C_21
    3  A    between atoms: N_5  and  C_25
    4  A    between atoms: C_6  and  C_21
    5  A    between atoms: C_7  and  C_41
    6  A    between atoms: N_10  and  C_23
    7  A    between atoms: N_10  and  C_37
    8  A    between atoms: N_12  and  C_17
    9  A    between atoms: C_15  and  C_27
   10  A    between atoms: C_15  and  N_33
   11  A    between atoms: C_17  and  C_18
   12  A    between atoms: C_18  and  C_22
   13  A    between atoms: C_20  and  N_24
   14  A    between atoms: C_23  and  C_36
   15  A    between atoms: N_24  and  C_44
   16  A    between atoms: C_25  and  C_37
   17  A    between atoms: C_30  and  C_37
   18  A    between atoms: C_38  and  C_40
                            x       y       z     vdW  Elec       q    Type
                         _______ _______ _______ _____ _____    ______ ____

>  <TORSDO>
F 18

$$$$
=
 OpenBabel11042414333D

 46 49  0  0  1  0  0  0  0  0999 V2000
  188.9180  174.2010  143.0630 C   0  0  0  0  0  2  0  0  0  0  0  0
  190.0970  172.0600  141.3750 N   0  0  0  0  0  0  0  0  0  0  0  0
  190.2620  172.2270  143.8250 C   0  0  0  0  0  2  0  0  0  0  0  0
  189.6300  171.4900  142.6410 C   0  0  0  0  0  2  0  0  0  0  0  0
  190.2530  173.7430  143.6310 C   0  0  2  0  0  3  0  0  0  0  0  0
  189.4160  173.1970  140.7900 C   0  0  0  0  0  0  0  0  0  0  0  0
  188.8910  174.1940  141.5580 C   0  0  0  0  0  0  0  0  0  0  0  0
  188.1760  175.2660  140.9510 N   0  0  0  0  0  1  0  0  0  0  0  0
  189.7320  173.6440  137.2810 C   0  0  0  0  0  3  0  0  0  0  0  0
  188.3040  172.7160  138.5920 N   0  0  0  0  0  0  0  0  0  0  0  0
  188.5730  172.9610  137.3210 N   0  0  0  0  0  2  0  0  0  0  0  0
  190.2250  173.8470  138.5200 N   0  0  0  0  0  0  0  0  0  0  0  0
  189.3080  173.2520  139.3070 C   0  0  0  0  0  0  0  0  0  0  0  0
  191.2390  171.4720  140.6630 C   0  0  0  0  0  2  0  0  0  0  0  0
  191.6410  170.0990  141.1850 C   0  0  0  0  0  2  0  0  0  0  0  0
  193.0750  169.4700  143.0440 C   0  0  0  0  0  3  0  0  0  0  0  0
  192.8930  170.2190  141.9680 C   0  0  0  0  0  3  0  0  0  0  0  0
  194.3600  170.3810  144.8340 N   0  0  0  0  0  0  0  0  0  0  0  0
  194.3110  169.5920  143.8100 C   0  0  0  0  0  3  0  0  0  0  0  0
  195.5880  170.5060  145.6060 C   0  0  1  0  0  3  0  0  0  0  0  0
  196.5300  168.9540  145.5440 S   0  0  0  0  0  1  0  0  0  0  0  0
  196.4040  171.5780  145.0610 N   0  0  0  0  0  2  0  0  0  0  0  0
  196.2970  174.9830  143.7890 N   0  0  0  0  0  0  0  0  0  0  0  0
  197.4790  174.2950  144.3240 C   0  0  0  0  0  2  0  0  0  0  0  0
  194.8260  173.4520  145.0620 C   0  0  0  0  0  2  0  0  0  0  0  0
  196.6750  175.3950  142.4450 C   0  0  0  0  0  1  0  0  0  0  0  0
  195.1850  174.0160  143.6800 C   0  0  1  0  0  3  0  0  0  0  0  0
  197.2150  173.8030  145.7420 C   0  0  0  0  0  2  0  0  0  0  0  0
  193.9340  174.6850  143.1230 C   0  0  0  0  0  1  0  0  0  0  0  0
  196.0400  172.8160  145.7420 C   0  0  2  0  0  3  0  0  0  0  0  0
  190.5060  174.4340  144.9590 C   0  0  0  0  0  2  0  0  0  0  0  0
  189.9880  175.2190  147.6720 O   0  0  0  0  0  0  0  0  0  0  0  0
  189.2790  175.0490  145.4490 N   0  0  0  0  0  2  0  0  0  0  0  0
  189.1000  175.4510  146.8080 C   0  0  0  0  0  0  0  0  0  0  0  0
  187.8580  176.1650  147.2000 C   0  0  0  0  0  2  0  0  0  0  0  0
  187.9090  177.5340  146.7170 N   0  0  0  0  0  2  0  0  0  0  0  0
  186.8410  177.6680  145.7350 C   0  0  1  0  0  3  0  0  0  0  0  0
  184.5170  178.4860  146.0610 C   0  0  0  0  0  2  0  0  0  0  0  0
  185.2550  178.6410  147.3720 C   0  0  0  0  0  2  0  0  0  0  0  0
  185.9840  178.8790  146.0650 C   0  0  0  0  0  3  0  0  0  0  0  0
  187.4460  177.8180  144.3530 C   0  0  0  0  0  2  0  0  0  0  0  0
  186.5870  177.1750  143.3840 N   0  0  0  0  0  2  0  0  0  0  0  0
  186.0600  178.2160  142.5160 C   0  0  0  0  0  2  0  0  0  0  0  0
  184.7830  178.2600  140.3980 C   0  0  0  0  0  1  0  0  0  0  0  0
  184.8160  177.7160  141.8100 C   0  0  2  0  0  3  0  0  0  0  0  0
  183.6820  178.1450  142.4960 O   0  0  0  0  0  1  0  0  0  0  0  0
  1  5  1  0  0  0  0
  2  4  1  0  0  0  0
  4  3  1  0  0  0  0
  5  3  1  0  0  0  0
  5 31  1  1  0  0  0
  6  2  1  0  0  0  0
  6  7  2  0  0  0  0
  7  1  1  0  0  0  0
  8  7  1  0  0  0  0
  9 11  1  0  0  0  0
  9 12  2  0  0  0  0
 10 13  2  0  0  0  0
 11 10  1  0  0  0  0
 12 13  1  0  0  0  0
 13  6  1  0  0  0  0
 14 15  1  0  0  0  0
 14  2  1  0  0  0  0
 15 17  1  0  0  0  0
 16 19  1  0  0  0  0
 17 16  2  0  0  0  0
 18 20  1  0  0  0  0
 19 18  2  0  0  0  0
 20 21  1  6  0  0  0
 22 20  1  0  0  0  0
 23 24  1  0  0  0  0
 24 28  1  0  0  0  0
 25 30  1  0  0  0  0
 26 23  1  0  0  0  0
 27 29  1  1  0  0  0
 27 23  1  0  0  0  0
 27 25  1  0  0  0  0
 30 22  1  6  0  0  0
 30 28  1  0  0  0  0
 31 33  1  0  0  0  0
 33 34  1  0  0  0  0
 34 35  1  0  0  0  0
 34 32  2  0  0  0  0
 36 35  1  0  0  0  0
 37 41  1  6  0  0  0
 37 40  1  0  0  0  0
 37 36  1  0  0  0  0
 38 40  1  0  0  0  0
 38 39  1  0  0  0  0
 40 39  1  0  0  0  0
 42 41  1  0  0  0  0
 43 42  1  0  0  0  0
 45 44  1  6  0  0  0
 45 46  1  0  0  0  0
 45 43  1  0  0  0  0
M  END
>  <MODEL>
7

>  <REMARK>
 VINA RESULT:      -5.9      1.604      2.132
  Name = 
  18 active torsions:
  status: ('A' for Active; 'I' for Inactive)
    1  A    between atoms: N_3  and  C_20
    2  A    between atoms: N_5  and  C_21
    3  A    between atoms: N_5  and  C_25
    4  A    between atoms: C_6  and  C_21
    5  A    between atoms: C_7  and  C_41
    6  A    between atoms: N_10  and  C_23
    7  A    between atoms: N_10  and  C_37
    8  A    between atoms: N_12  and  C_17
    9  A    between atoms: C_15  and  C_27
   10  A    between atoms: C_15  and  N_33
   11  A    between atoms: C_17  and  C_18
   12  A    between atoms: C_18  and  C_22
   13  A    between atoms: C_20  and  N_24
   14  A    between atoms: C_23  and  C_36
   15  A    between atoms: N_24  and  C_44
   16  A    between atoms: C_25  and  C_37
   17  A    between atoms: C_30  and  C_37
   18  A    between atoms: C_38  and  C_40
                            x       y       z     vdW  Elec       q    Type
                         _______ _______ _______ _____ _____    ______ ____

>  <TORSDO>
F 18

$$$$
=
 OpenBabel11042414333D

 46 49  0  0  1  0  0  0  0  0999 V2000
  189.8960  177.2260  146.8070 C   0  0  0  0  0  2  0  0  0  0  0  0
  191.1670  176.4020  144.2510 N   0  0  0  0  0  0  0  0  0  0  0  0
  189.0220  177.5860  144.4850 C   0  0  0  0  0  2  0  0  0  0  0  0
  190.4930  177.6910  144.0740 C   0  0  0  0  0  2  0  0  0  0  0  0
  188.8420  176.8120  145.7910 C   0  0  2  0  0  3  0  0  0  0  0  0
  191.7430  176.0470  145.5320 C   0  0  0  0  0  0  0  0  0  0  0  0
  191.1540  176.4050  146.7090 C   0  0  0  0  0  0  0  0  0  0  0  0
  191.7800  176.0900  147.9490 N   0  0  0  0  0  1  0  0  0  0  0  0
  194.3750  173.6640  145.5800 C   0  0  0  0  0  3  0  0  0  0  0  0
  194.2370  175.8010  145.4080 N   0  0  0  0  0  0  0  0  0  0  0  0
  195.0920  174.7930  145.4370 N   0  0  0  0  0  2  0  0  0  0  0  0
  193.0530  173.9260  145.6430 N   0  0  0  0  0  0  0  0  0  0  0  0
  193.0100  175.2670  145.5290 C   0  0  0  0  0  0  0  0  0  0  0  0
  191.2970  175.4640  143.1290 C   0  0  0  0  0  2  0  0  0  0  0  0
  190.3260  174.2940  143.1940 C   0  0  0  0  0  2  0  0  0  0  0  0
  191.0520  174.0140  140.8910 C   0  0  0  0  0  3  0  0  0  0  0  0
  190.2000  173.6850  141.8500 C   0  0  0  0  0  3  0  0  0  0  0  0
  191.0420  172.1280  139.4340 N   0  0  0  0  0  0  0  0  0  0  0  0
  190.9240  173.4090  139.5700 C   0  0  0  0  0  3  0  0  0  0  0  0
  190.9120  171.5140  138.1200 C   0  0  1  0  0  3  0  0  0  0  0  0
  190.1180  169.8870  138.2610 S   0  0  0  0  0  1  0  0  0  0  0  0
  190.1040  172.3630  137.2590 N   0  0  0  0  0  2  0  0  0  0  0  0
  190.5330  174.9320  134.7220 N   0  0  0  0  0  0  0  0  0  0  0  0
  189.3030  174.1760  134.9900 C   0  0  0  0  0  2  0  0  0  0  0  0
  191.8730  173.1180  135.7410 C   0  0  0  0  0  2  0  0  0  0  0  0
  190.1560  176.3310  134.8640 C   0  0  0  0  0  1  0  0  0  0  0  0
  191.5300  174.6140  135.7640 C   0  0  1  0  0  3  0  0  0  0  0  0
  189.5590  172.6780  134.8770 C   0  0  0  0  0  2  0  0  0  0  0  0
  192.8270  175.3810  135.5290 C   0  0  0  0  0  1  0  0  0  0  0  0
  190.6210  172.2520  135.8990 C   0  0  2  0  0  3  0  0  0  0  0  0
  187.4580  177.0740  146.3590 C   0  0  0  0  0  2  0  0  0  0  0  0
  185.4450  179.0950  146.6830 O   0  0  0  0  0  0  0  0  0  0  0  0
  186.5680  177.5660  145.3150 N   0  0  0  0  0  2  0  0  0  0  0  0
  185.6110  178.6040  145.5350 C   0  0  0  0  0  0  0  0  0  0  0  0
  184.8170  179.1160  144.3900 C   0  0  0  0  0  2  0  0  0  0  0  0
  185.6850  179.3170  143.2430 N   0  0  0  0  0  2  0  0  0  0  0  0
  185.0440  178.6560  142.1140 C   0  0  1  0  0  3  0  0  0  0  0  0
  186.3510  177.5780  140.2970 C   0  0  0  0  0  2  0  0  0  0  0  0
  187.2810  177.8100  141.4660 C   0  0  0  0  0  2  0  0  0  0  0  0
  185.8380  177.4220  141.7170 C   0  0  0  0  0  3  0  0  0  0  0  0
  183.6310  178.2660  142.4990 C   0  0  0  0  0  2  0  0  0  0  0  0
  182.7590  178.4470  141.3590 N   0  0  0  0  0  2  0  0  0  0  0  0
  181.4670  178.8780  141.8690 C   0  0  0  0  0  2  0  0  0  0  0  0
  179.6340  179.3920  140.2880 C   0  0  0  0  0  1  0  0  0  0  0  0
  180.3570  178.2840  141.0250 C   0  0  2  0  0  3  0  0  0  0  0  0
  179.4540  177.6090  141.8430 O   0  0  0  0  0  1  0  0  0  0  0  0
  2  6  1  0  0  0  0
  3  5  1  0  0  0  0
  4  2  1  0  0  0  0
  4  3  1  0  0  0  0
  5 31  1  1  0  0  0
  5  1  1  0  0  0  0
  6  7  2  0  0  0  0
  7  1  1  0  0  0  0
  7  8  1  0  0  0  0
  9 12  2  0  0  0  0
 10 11  1  0  0  0  0
 10 13  2  0  0  0  0
 11  9  1  0  0  0  0
 13  6  1  0  0  0  0
 13 12  1  0  0  0  0
 14 15  1  0  0  0  0
 14  2  1  0  0  0  0
 16 17  2  0  0  0  0
 17 15  1  0  0  0  0
 18 19  2  0  0  0  0
 19 16  1  0  0  0  0
 20 21  1  1  0  0  0
 20 18  1  0  0  0  0
 22 20  1  0  0  0  0
 23 26  1  0  0  0  0
 23 24  1  0  0  0  0
 23 27  1  0  0  0  0
 25 27  1  0  0  0  0
 25 30  1  0  0  0  0
 27 29  1  6  0  0  0
 28 24  1  0  0  0  0
 28 30  1  0  0  0  0
 30 22  1  1  0  0  0
 33 34  1  0  0  0  0
 33 31  1  0  0  0  0
 34 32  2  0  0  0  0
 35 34  1  0  0  0  0
 36 35  1  0  0  0  0
 37 41  1  1  0  0  0
 37 36  1  0  0  0  0
 38 39  1  0  0  0  0
 38 40  1  0  0  0  0
 39 40  1  0  0  0  0
 40 37  1  0  0  0  0
 42 43  1  0  0  0  0
 42 41  1  0  0  0  0
 45 44  1  1  0  0  0
 45 46  1  0  0  0  0
 45 43  1  0  0  0  0
M  END
>  <MODEL>
8

>  <REMARK>
 VINA RESULT:      -5.8      3.283      6.724
  Name = 
  18 active torsions:
  status: ('A' for Active; 'I' for Inactive)
    1  A    between atoms: N_3  and  C_20
    2  A    between atoms: N_5  and  C_21
    3  A    between atoms: N_5  and  C_25
    4  A    between atoms: C_6  and  C_21
    5  A    between atoms: C_7  and  C_41
    6  A    between atoms: N_10  and  C_23
    7  A    between atoms: N_10  and  C_37
    8  A    between atoms: N_12  and  C_17
    9  A    between atoms: C_15  and  C_27
   10  A    between atoms: C_15  and  N_33
   11  A    between atoms: C_17  and  C_18
   12  A    between atoms: C_18  and  C_22
   13  A    between atoms: C_20  and  N_24
   14  A    between atoms: C_23  and  C_36
   15  A    between atoms: N_24  and  C_44
   16  A    between atoms: C_25  and  C_37
   17  A    between atoms: C_30  and  C_37
   18  A    between atoms: C_38  and  C_40
                            x       y       z     vdW  Elec       q    Type
                         _______ _______ _______ _____ _____    ______ ____

>  <TORSDO>
F 18

$$$$
=
 OpenBabel11042414333D

 46 49  0  0  1  0  0  0  0  0999 V2000
  188.7720  174.3310  140.9430 C   0  0  0  0  0  2  0  0  0  0  0  0
  190.4700  171.8950  140.9000 N   0  0  0  0  0  0  0  0  0  0  0  0
  190.2310  173.4590  142.7850 C   0  0  0  0  0  2  0  0  0  0  0  0
  189.8930  172.0700  142.2350 C   0  0  0  0  0  2  0  0  0  0  0  0
  190.0520  174.5540  141.7340 C   0  0  2  0  0  3  0  0  0  0  0  0
  189.7440  172.3320  139.7250 C   0  0  0  0  0  0  0  0  0  0  0  0
  188.9790  173.4600  139.7320 C   0  0  0  0  0  0  0  0  0  0  0  0
  188.2310  173.8270  138.5770 N   0  0  0  0  0  1  0  0  0  0  0  0
  189.6920  169.9140  137.1250 C   0  0  0  0  0  3  0  0  0  0  0  0
  190.4450  171.9140  137.3520 N   0  0  0  0  0  0  0  0  0  0  0  0
  190.3370  170.9130  136.4950 N   0  0  0  0  0  2  0  0  0  0  0  0
  189.3770  170.2540  138.3910 N   0  0  0  0  0  0  0  0  0  0  0  0
  189.8600  171.5080  138.4920 C   0  0  0  0  0  0  0  0  0  0  0  0
  191.7760  171.2450  140.7270 C   0  0  0  0  0  2  0  0  0  0  0  0
  192.8360  172.1570  140.1250 C   0  0  0  0  0  2  0  0  0  0  0  0
  194.8670  173.0490  141.1200 C   0  0  0  0  0  3  0  0  0  0  0  0
  193.5620  172.8520  141.2150 C   0  0  0  0  0  3  0  0  0  0  0  0
  195.3620  174.9950  142.4060 N   0  0  0  0  0  0  0  0  0  0  0  0
  195.5750  173.7360  142.1950 C   0  0  0  0  0  3  0  0  0  0  0  0
  196.0610  175.6880  143.4790 C   0  0  1  0  0  3  0  0  0  0  0  0
  197.3290  176.7920  142.7920 S   0  0  0  0  0  1  0  0  0  0  0  0
  195.1150  176.4750  144.2520 N   0  0  0  0  0  2  0  0  0  0  0  0
  192.6780  174.8810  146.4300 N   0  0  0  0  0  0  0  0  0  0  0  0
  192.7970  176.3220  146.1720 C   0  0  0  0  0  2  0  0  0  0  0  0
  195.0480  174.5670  145.7880 C   0  0  0  0  0  2  0  0  0  0  0  0
  191.3110  174.5420  146.0620 C   0  0  0  0  0  1  0  0  0  0  0  0
  193.5930  174.1530  145.5270 C   0  0  1  0  0  3  0  0  0  0  0  0
  194.1980  176.8130  146.5150 C   0  0  0  0  0  2  0  0  0  0  0  0
  193.5010  172.6480  145.7560 C   0  0  0  0  0  1  0  0  0  0  0  0
  195.2340  176.0800  145.6520 C   0  0  2  0  0  3  0  0  0  0  0  0
  190.0020  175.9130  142.4100 C   0  0  0  0  0  2  0  0  0  0  0  0
  189.9410  177.7980  144.5740 O   0  0  0  0  0  0  0  0  0  0  0  0
  189.0870  175.8810  143.5430 N   0  0  0  0  0  2  0  0  0  0  0  0
  189.0850  176.8740  144.5690 C   0  0  0  0  0  0  0  0  0  0  0  0
  188.0490  176.8210  145.6320 C   0  0  0  0  0  2  0  0  0  0  0  0
  187.0650  177.8650  145.4080 N   0  0  0  0  0  2  0  0  0  0  0  0
  185.7660  177.2070  145.3540 C   0  0  1  0  0  3  0  0  0  0  0  0
  184.4380  178.2920  147.1530 C   0  0  0  0  0  2  0  0  0  0  0  0
  185.2380  179.3660  146.4510 C   0  0  0  0  0  2  0  0  0  0  0  0
  184.6650  178.2120  145.6540 C   0  0  0  0  0  3  0  0  0  0  0  0
  185.5640  176.6070  143.9770 C   0  0  0  0  0  2  0  0  0  0  0  0
  185.2620  177.6630  143.0360 N   0  0  0  0  0  2  0  0  0  0  0  0
  186.2800  177.6200  141.9990 C   0  0  0  0  0  2  0  0  0  0  0  0
  186.6890  177.5290  139.5610 C   0  0  0  0  0  1  0  0  0  0  0  0
  185.6230  177.5500  140.6360 C   0  0  2  0  0  3  0  0  0  0  0  0
  184.8050  178.6630  140.4510 O   0  0  0  0  0  1  0  0  0  0  0  0
  1  5  1  0  0  0  0
  2  4  1  0  0  0  0
  4  3  1  0  0  0  0
  5 31  1  1  0  0  0
  5  3  1  0  0  0  0
  6  7  2  0  0  0  0
  6  2  1  0  0  0  0
  7  1  1  0  0  0  0
  8  7  1  0  0  0  0
  9 12  2  0  0  0  0
 10 13  2  0  0  0  0
 11  9  1  0  0  0  0
 11 10  1  0  0  0  0
 12 13  1  0  0  0  0
 13  6  1  0  0  0  0
 14  2  1  0  0  0  0
 15 14  1  0  0  0  0
 15 17  1  0  0  0  0
 16 17  2  0  0  0  0
 16 19  1  0  0  0  0
 18 20  1  0  0  0  0
 19 18  2  0  0  0  0
 20 21  1  6  0  0  0
 20 22  1  0  0  0  0
 24 23  1  0  0  0  0
 24 28  1  0  0  0  0
 26 23  1  0  0  0  0
 27 29  1  1  0  0  0
 27 25  1  0  0  0  0
 27 23  1  0  0  0  0
 30 22  1  6  0  0  0
 30 25  1  0  0  0  0
 30 28  1  0  0  0  0
 31 33  1  0  0  0  0
 33 34  1  0  0  0  0
 34 32  2  0  0  0  0
 34 35  1  0  0  0  0
 36 35  1  0  0  0  0
 37 41  1  6  0  0  0
 37 36  1  0  0  0  0
 37 40  1  0  0  0  0
 39 38  1  0  0  0  0
 40 39  1  0  0  0  0
 40 38  1  0  0  0  0
 42 41  1  0  0  0  0
 43 42  1  0  0  0  0
 45 44  1  6  0  0  0
 45 43  1  0  0  0  0
 46 45  1  0  0  0  0
M  END
>  <MODEL>
9

>  <REMARK>
 VINA RESULT:      -5.8      1.966      3.008
  Name = 
  18 active torsions:
  status: ('A' for Active; 'I' for Inactive)
    1  A    between atoms: N_3  and  C_20
    2  A    between atoms: N_5  and  C_21
    3  A    between atoms: N_5  and  C_25
    4  A    between atoms: C_6  and  C_21
    5  A    between atoms: C_7  and  C_41
    6  A    between atoms: N_10  and  C_23
    7  A    between atoms: N_10  and  C_37
    8  A    between atoms: N_12  and  C_17
    9  A    between atoms: C_15  and  C_27
   10  A    between atoms: C_15  and  N_33
   11  A    between atoms: C_17  and  C_18
   12  A    between atoms: C_18  and  C_22
   13  A    between atoms: C_20  and  N_24
   14  A    between atoms: C_23  and  C_36
   15  A    between atoms: N_24  and  C_44
   16  A    between atoms: C_25  and  C_37
   17  A    between atoms: C_30  and  C_37
   18  A    between atoms: C_38  and  C_40
                            x       y       z     vdW  Elec       q    Type
                         _______ _______ _______ _____ _____    ______ ____

>  <TORSDO>
F 18

$$$$
