=
 OpenBabel11042416383D

 65 68  0  0  1  0  0  0  0  0999 V2000
  187.3690  177.3190  143.8140 C   0  0  0  0  0  0  0  0  0  0  0  0
  188.6730  177.5750  144.0280 C   0  0  0  0  0  0  0  0  0  0  0  0
  186.9100  177.1350  142.5120 O   0  0  0  0  0  1  0  0  0  0  0  0
  185.1440  177.6480  144.9440 C   0  0  0  0  0  3  0  0  0  0  0  0
  186.4060  177.2020  144.9190 C   0  0  0  0  0  3  0  0  0  0  0  0
  184.4890  179.7180  144.0470 O   0  0  0  0  0  0  0  0  0  0  0  0
  183.8470  177.8690  142.7790 N   0  0  0  0  0  2  0  0  0  0  0  0
  184.4570  178.4630  143.9290 C   0  0  0  0  0  0  0  0  0  0  0  0
  183.2690  178.6720  141.7110 C   0  0  0  0  0  2  0  0  0  0  0  0
  181.7800  178.8400  141.9580 C   0  0  0  0  0  2  0  0  0  0  0  0
  180.9950  178.1880  140.8340 C   0  0  0  0  0  2  0  0  0  0  0  0
  178.8300  178.4430  140.5410 C   0  0  0  0  0  1  0  0  0  0  0  0
  179.7630  177.7450  141.3040 O   0  0  0  0  0  0  0  0  0  0  0  0
  189.2250  177.8220  145.2940 O   0  0  0  0  0  0  0  0  0  0  0  0
  189.5250  176.8190  146.2510 C   0  0  0  0  0  2  0  0  0  0  0  0
  190.8490  177.1270  146.9230 C   0  0  0  0  0  2  0  0  0  0  0  0
  191.4070  175.0590  148.1620 C   0  0  0  0  0  1  0  0  0  0  0  0
  191.7220  175.8910  146.9390 C   0  0  2  0  0  3  0  0  0  0  0  0
  193.1840  176.2810  146.9550 C   0  0  0  0  0  2  0  0  0  0  0  0
  193.9370  175.6420  145.7990 C   0  0  1  0  0  3  0  0  0  0  0  0
  194.3720  176.7320  144.8360 C   0  0  0  0  0  1  0  0  0  0  0  0
  195.8770  174.3940  145.5520 N   0  0  0  0  0  0  0  0  0  0  0  0
  195.0970  174.9740  146.3250 N   0  0  0  0  0  0  0  0  0  0  0  0
  196.9940  173.6390  146.0680 C   0  0  0  0  0  2  0  0  0  0  0  0
  196.0670  171.4990  145.7310 C   0  0  0  0  0  2  0  0  0  0  0  0
  195.2830  171.2030  144.5390 N   0  0  0  0  0  0  0  0  0  0  0  0
  196.9040  172.6280  143.9650 N   0  0  0  0  0  2  0  0  0  0  0  0
  195.7830  171.8750  143.5690 C   0  0  0  0  0  0  0  0  0  0  0  0
  197.1680  172.3910  145.3220 N   0  0  0  0  0  0  0  0  0  0  0  0
  195.7330  173.8720  140.0200 C   0  0  2  0  0  3  0  0  0  0  0  0
  194.9140  174.1570  141.2980 C   0  0  2  0  0  0  0  0  0  0  0  0
  197.2630  170.6960  141.1420 N   0  0  0  0  0  2  0  0  0  0  0  0
  195.7190  174.7340  142.2850 O   0  0  0  0  0  1  0  0  0  0  0  0
  196.4720  171.7200  141.1550 C   0  0  0  0  0  0  0  0  0  0  0  0
  194.3040  172.8480  141.8100 C   0  0  0  0  0  2  0  0  0  0  0  0
  196.7010  172.8010  140.2410 N   0  0  0  0  0  2  0  0  0  0  0  0
  195.3330  171.7680  142.1410 C   0  0  2  0  0  3  0  0  0  0  0  0
  193.7640  175.0990  140.9880 C   0  0  0  0  0  1  0  0  0  0  0  0
  196.4480  175.1160  139.5080 C   0  0  0  0  0  2  0  0  0  0  0  0
  196.6080  175.0560  138.1220 O   0  0  0  0  0  1  0  0  0  0  0  0
  189.8090  177.6400  142.6350 S   0  0  0  0  0  0  0  0  0  0  0  0
  189.3450  175.0200  141.9070 C   0  0  0  0  0  3  0  0  0  0  0  0
  190.5340  173.1030  142.8100 C   0  0  0  0  0  0  0  0  0  0  0  0
  191.2910  173.9700  143.6120 C   0  0  0  0  0  3  0  0  0  0  0  0
  190.1190  175.8760  142.6890 C   0  0  0  0  0  0  0  0  0  0  0  0
  189.5450  173.6320  141.9550 C   0  0  0  0  0  0  0  0  0  0  0  0
  191.0860  175.3510  143.5500 C   0  0  0  0  0  3  0  0  0  0  0  0
  191.7800  171.3210  143.8970 N   0  0  0  0  0  1  0  0  0  0  0  0
  190.7140  171.6230  142.9490 C   0  0  0  0  0  2  0  0  0  0  0  0
  188.6570  172.7470  141.1340 C   0  0  0  0  0  2  0  0  0  0  0  0
  188.6180  173.2280  139.6980 C   0  0  0  0  0  2  0  0  0  0  0  0
  189.7640  172.6090  138.9240 C   0  0  0  0  0  2  0  0  0  0  0  0
  189.2560  171.8000  137.8960 O   0  0  0  0  0  0  0  0  0  0  0  0
  191.9680  172.7670  135.4350 C   0  0  0  0  0  1  0  0  0  0  0  0
  190.8020  172.8470  136.3660 C   0  0  0  0  0  0  0  0  0  0  0  0
  190.2680  173.9690  136.5810 O   0  0  0  0  0  0  0  0  0  0  0  0
  190.2730  171.6710  137.0050 N   0  0  0  0  0  0  0  0  0  0  0  0
  190.7480  170.3430  136.5950 C   0  0  0  0  0  2  0  0  0  0  0  0
  190.6800  168.5700  138.3910 C   0  0  0  0  0  1  0  0  0  0  0  0
  191.5440  169.6040  137.6780 C   0  0  2  0  0  3  0  0  0  0  0  0
  194.6740  170.0340  138.4920 C   0  0  0  0  0  2  0  0  0  0  0  0
  193.5780  171.0180  138.0930 C   0  0  0  0  0  2  0  0  0  0  0  0
  194.0990  168.9990  139.4460 C   0  0  0  0  0  2  0  0  0  0  0  0
  192.2460  170.5520  138.6580 C   0  0  2  0  0  3  0  0  0  0  0  0
  192.6250  169.7060  140.2230 S   0  0  0  0  0  0  0  0  0  0  0  0
  1  2  2  0  0  0  0
  1  5  1  0  0  0  0
  2 14  1  0  0  0  0
  3  1  1  0  0  0  0
  5  4  2  0  0  0  0
  7  8  1  0  0  0  0
  8  6  2  0  0  0  0
  8  4  1  0  0  0  0
  9 10  1  0  0  0  0
  9  7  1  0  0  0  0
 11 13  1  0  0  0  0
 11 10  1  0  0  0  0
 12 13  1  0  0  0  0
 14 15  1  0  0  0  0
 15 16  1  0  0  0  0
 16 18  1  0  0  0  0
 18 19  1  0  0  0  0
 18 17  1  1  0  0  0
 20 21  1  6  0  0  0
 20 23  1  0  0  0  0
 20 19  1  0  0  0  0
 22 24  1  0  0  0  0
 22 23  2  0  0  0  0
 26 25  1  0  0  0  0
 27 29  1  0  0  0  0
 28 27  1  0  0  0  0
 28 26  2  0  0  0  0
 29 25  1  0  0  0  0
 29 24  1  0  0  0  0
 30 39  1  1  0  0  0
 30 36  1  0  0  0  0
 30 31  1  0  0  0  0
 31 38  1  6  0  0  0
 31 35  1  0  0  0  0
 31 33  1  0  0  0  0
 32 34  2  0  0  0  0
 34 37  1  0  0  0  0
 35 37  1  0  0  0  0
 36 34  1  0  0  0  0
 37 28  1  1  0  0  0
 40 39  1  0  0  0  0
 41 45  1  0  0  0  0
 41  2  1  0  0  0  0
 42 46  2  0  0  0  0
 42 45  1  0  0  0  0
 43 49  1  0  0  0  0
 43 44  2  0  0  0  0
 45 47  2  0  0  0  0
 46 43  1  0  0  0  0
 47 44  1  0  0  0  0
 49 48  1  0  0  0  0
 50 46  1  0  0  0  0
 51 50  1  0  0  0  0
 52 51  1  0  0  0  0
 53 52  1  0  0  0  0
 54 55  1  0  0  0  0
 55 56  2  0  0  0  0
 55 57  1  0  0  0  0
 57 53  1  0  0  0  0
 58 57  1  0  0  0  0
 58 60  1  0  0  0  0
 60 59  1  1  0  0  0
 61 63  1  0  0  0  0
 62 61  1  0  0  0  0
 62 64  1  0  0  0  0
 63 65  1  0  0  0  0
 64 60  1  6  0  0  0
 64 65  1  0  0  0  0
M  END
>  <MODEL>
1

>  <REMARK>
 VINA RESULT:      -5.3      0.000      0.000
  Name = 
  28 active torsions:
  status: ('A' for Active; 'I' for Inactive)
    1  A    between atoms: C_3  and  CA_18
    2  A    between atoms: N_6  and  C_13
    3  A    between atoms: C_7  and  N_57
    4  A    between atoms: C_7  and  C_65
    5  A    between atoms: C_10  and  C_46
    6  A    between atoms: C_13  and  N_53
    7  A    between atoms: C_14  and  C_56
    8  A    between atoms: C_15  and  C_19
    9  A    between atoms: C_20  and  S_23
   10  A    between atoms: C_21  and  C_33
   11  A    between atoms: C_21  and  C_52
   12  A    between atoms: S_23  and  C_61
   13  A    between atoms: O_24  and  C_47
   14  A    between atoms: O_24  and  C_61
   15  A    between atoms: N_27  and  C_33
   16  A    between atoms: C_30  and  C_32
   17  A    between atoms: C_30  and  C_35
   18  A    between atoms: C_32  and  C_40
   19  A    between atoms: C_34  and  C_37
   20  A    between atoms: C_34  and  C_42
   21  A    between atoms: C_35  and  C_47
   22  A    between atoms: C_37  and  C_51
   23  A    between atoms: C_38  and  C_58
   24  A    between atoms: C_40  and  N_49
   25  A    between atoms: O_48  and  C_52
   26  A    between atoms: C_50  and  C_65
   27  A    between atoms: C_51  and  O_60
   28  A    between atoms: N_57  and  O_60
                            x       y       z     vdW  Elec       q    Type
                         _______ _______ _______ _____ _____    ______ ____

>  <TORSDO>
F 28

$$$$
=
 OpenBabel11042416383D

 65 68  0  0  1  0  0  0  0  0999 V2000
  194.1840  175.9110  144.8920 C   0  0  0  0  0  0  0  0  0  0  0  0
  193.7620  175.3360  143.7500 C   0  0  0  0  0  0  0  0  0  0  0  0
  194.1170  177.2960  145.0280 O   0  0  0  0  0  1  0  0  0  0  0  0
  195.8010  174.3650  146.0460 C   0  0  0  0  0  3  0  0  0  0  0  0
  194.6970  175.1200  146.0210 C   0  0  0  0  0  3  0  0  0  0  0  0
  197.5120  174.9300  144.5370 O   0  0  0  0  0  0  0  0  0  0  0  0
  196.7310  172.7410  144.3380 N   0  0  0  0  0  2  0  0  0  0  0  0
  196.6990  174.0460  144.9230 C   0  0  0  0  0  0  0  0  0  0  0  0
  197.6950  172.3820  143.3080 C   0  0  0  0  0  2  0  0  0  0  0  0
  197.8840  170.8750  143.3000 C   0  0  0  0  0  2  0  0  0  0  0  0
  196.7540  170.2100  144.0660 C   0  0  0  0  0  2  0  0  0  0  0  0
  197.3310  169.5750  146.0920 C   0  0  0  0  0  1  0  0  0  0  0  0
  197.2360  169.1180  144.7800 O   0  0  0  0  0  0  0  0  0  0  0  0
  193.8310  173.9570  143.4960 O   0  0  0  0  0  0  0  0  0  0  0  0
  192.8780  173.2300  142.7390 C   0  0  0  0  0  2  0  0  0  0  0  0
  192.0710  172.3310  143.6550 C   0  0  0  0  0  2  0  0  0  0  0  0
  190.4760  171.0600  142.2520 C   0  0  0  0  0  1  0  0  0  0  0  0
  190.6380  172.2510  143.1710 C   0  0  2  0  0  3  0  0  0  0  0  0
  190.2620  173.5160  142.4300 C   0  0  0  0  0  2  0  0  0  0  0  0
  188.7530  173.6570  142.3120 C   0  0  1  0  0  3  0  0  0  0  0  0
  188.2540  174.5400  143.4410 C   0  0  0  0  0  1  0  0  0  0  0  0
  187.7870  175.3230  141.0190 N   0  0  0  0  0  0  0  0  0  0  0  0
  188.4510  174.2740  141.0490 N   0  0  0  0  0  0  0  0  0  0  0  0
  187.3930  175.9060  139.7600 C   0  0  0  0  0  2  0  0  0  0  0  0
  185.7780  177.5990  140.0440 C   0  0  0  0  0  2  0  0  0  0  0  0
  185.5850  178.2380  141.3400 N   0  0  0  0  0  0  0  0  0  0  0  0
  187.7570  177.7730  141.1150 N   0  0  0  0  0  2  0  0  0  0  0  0
  186.7270  178.3000  141.9160 C   0  0  0  0  0  0  0  0  0  0  0  0
  187.2240  177.3550  139.8860 N   0  0  0  0  0  0  0  0  0  0  0  0
  185.9440  178.0840  145.9060 C   0  0  2  0  0  3  0  0  0  0  0  0
  184.9880  178.4660  144.7560 C   0  0  2  0  0  0  0  0  0  0  0  0
  189.0480  177.9190  143.9010 N   0  0  0  0  0  2  0  0  0  0  0  0
  184.6170  177.3340  144.0230 O   0  0  0  0  0  1  0  0  0  0  0  0
  187.8110  178.1720  144.1820 C   0  0  0  0  0  0  0  0  0  0  0  0
  185.6760  179.4860  143.8440 C   0  0  0  0  0  2  0  0  0  0  0  0
  187.2430  177.6560  145.3940 N   0  0  0  0  0  2  0  0  0  0  0  0
  186.9820  178.9890  143.2250 C   0  0  2  0  0  3  0  0  0  0  0  0
  183.7370  179.1260  145.3070 C   0  0  0  0  0  1  0  0  0  0  0  0
  185.3600  176.9990  146.8020 C   0  0  0  0  0  2  0  0  0  0  0  0
  186.1920  176.7650  147.8990 O   0  0  0  0  0  1  0  0  0  0  0  0
  193.0870  176.3580  142.4330 S   0  0  0  0  0  0  0  0  0  0  0  0
  194.1530  175.3560  140.0940 C   0  0  0  0  0  3  0  0  0  0  0  0
  196.5270  175.2760  139.5810 C   0  0  0  0  0  0  0  0  0  0  0  0
  196.8010  175.8670  140.8230 C   0  0  0  0  0  3  0  0  0  0  0  0
  194.4330  175.9660  141.3160 C   0  0  0  0  0  0  0  0  0  0  0  0
  195.1910  175.0100  139.2160 C   0  0  0  0  0  0  0  0  0  0  0  0
  195.7580  176.2130  141.6860 C   0  0  0  0  0  3  0  0  0  0  0  0
  197.7820  175.7160  137.5460 N   0  0  0  0  0  1  0  0  0  0  0  0
  197.6610  174.8410  138.7050 C   0  0  0  0  0  2  0  0  0  0  0  0
  194.8480  174.3110  137.9350 C   0  0  0  0  0  2  0  0  0  0  0  0
  193.3460  174.2660  137.7470 C   0  0  0  0  0  2  0  0  0  0  0  0
  193.0040  173.3190  136.6150 C   0  0  0  0  0  2  0  0  0  0  0  0
  192.0020  172.4280  137.0310 O   0  0  0  0  0  0  0  0  0  0  0  0
  191.6690  169.0350  135.3820 C   0  0  0  0  0  1  0  0  0  0  0  0
  191.3280  170.3380  136.0290 C   0  0  0  0  0  0  0  0  0  0  0  0
  190.1150  170.6560  136.1620 O   0  0  0  0  0  0  0  0  0  0  0  0
  192.3550  171.2240  136.5120 N   0  0  0  0  0  0  0  0  0  0  0  0
  193.7500  170.7670  136.5560 C   0  0  0  0  0  2  0  0  0  0  0  0
  192.9340  169.9000  138.7830 C   0  0  0  0  0  1  0  0  0  0  0  0
  194.1480  170.1120  137.8850 C   0  0  2  0  0  3  0  0  0  0  0  0
  197.3940  169.7850  137.8400 C   0  0  0  0  0  2  0  0  0  0  0  0
  196.4890  171.0040  137.6920 C   0  0  0  0  0  2  0  0  0  0  0  0
  196.8680  168.8990  138.9590 C   0  0  0  0  0  2  0  0  0  0  0  0
  195.2810  170.8550  138.6040 C   0  0  2  0  0  3  0  0  0  0  0  0
  195.8530  169.9200  140.0560 S   0  0  0  0  0  0  0  0  0  0  0  0
  1  3  1  0  0  0  0
  1  5  1  0  0  0  0
  2  1  2  0  0  0  0
  5  4  2  0  0  0  0
  6  8  2  0  0  0  0
  7  8  1  0  0  0  0
  8  4  1  0  0  0  0
  9  7  1  0  0  0  0
 10  9  1  0  0  0  0
 10 11  1  0  0  0  0
 11 13  1  0  0  0  0
 13 12  1  0  0  0  0
 14  2  1  0  0  0  0
 15 14  1  0  0  0  0
 15 16  1  0  0  0  0
 18 17  1  6  0  0  0
 18 16  1  0  0  0  0
 19 18  1  0  0  0  0
 20 19  1  0  0  0  0
 20 21  1  1  0  0  0
 22 23  2  0  0  0  0
 23 20  1  0  0  0  0
 24 29  1  0  0  0  0
 24 22  1  0  0  0  0
 25 26  1  0  0  0  0
 26 28  2  0  0  0  0
 27 28  1  0  0  0  0
 29 25  1  0  0  0  0
 29 27  1  0  0  0  0
 30 39  1  6  0  0  0
 31 38  1  1  0  0  0
 31 30  1  0  0  0  0
 32 34  2  0  0  0  0
 33 31  1  0  0  0  0
 34 36  1  0  0  0  0
 35 31  1  0  0  0  0
 36 30  1  0  0  0  0
 37 28  1  6  0  0  0
 37 35  1  0  0  0  0
 37 34  1  0  0  0  0
 39 40  1  0  0  0  0
 41  2  1  0  0  0  0
 42 45  1  0  0  0  0
 43 44  2  0  0  0  0
 44 47  1  0  0  0  0
 45 47  2  0  0  0  0
 45 41  1  0  0  0  0
 46 43  1  0  0  0  0
 46 42  2  0  0  0  0
 48 49  1  0  0  0  0
 49 43  1  0  0  0  0
 50 46  1  0  0  0  0
 51 50  1  0  0  0  0
 52 53  1  0  0  0  0
 52 51  1  0  0  0  0
 54 55  1  0  0  0  0
 55 56  2  0  0  0  0
 55 57  1  0  0  0  0
 57 58  1  0  0  0  0
 57 53  1  0  0  0  0
 58 60  1  0  0  0  0
 60 59  1  1  0  0  0
 61 63  1  0  0  0  0
 62 61  1  0  0  0  0
 62 64  1  0  0  0  0
 63 65  1  0  0  0  0
 64 60  1  6  0  0  0
 64 65  1  0  0  0  0
M  END
>  <MODEL>
2

>  <REMARK>
 VINA RESULT:      -4.6      2.715      9.724
  Name = 
  28 active torsions:
  status: ('A' for Active; 'I' for Inactive)
    1  A    between atoms: C_3  and  CA_18
    2  A    between atoms: N_6  and  C_13
    3  A    between atoms: C_7  and  N_57
    4  A    between atoms: C_7  and  C_65
    5  A    between atoms: C_10  and  C_46
    6  A    between atoms: C_13  and  N_53
    7  A    between atoms: C_14  and  C_56
    8  A    between atoms: C_15  and  C_19
    9  A    between atoms: C_20  and  S_23
   10  A    between atoms: C_21  and  C_33
   11  A    between atoms: C_21  and  C_52
   12  A    between atoms: S_23  and  C_61
   13  A    between atoms: O_24  and  C_47
   14  A    between atoms: O_24  and  C_61
   15  A    between atoms: N_27  and  C_33
   16  A    between atoms: C_30  and  C_32
   17  A    between atoms: C_30  and  C_35
   18  A    between atoms: C_32  and  C_40
   19  A    between atoms: C_34  and  C_37
   20  A    between atoms: C_34  and  C_42
   21  A    between atoms: C_35  and  C_47
   22  A    between atoms: C_37  and  C_51
   23  A    between atoms: C_38  and  C_58
   24  A    between atoms: C_40  and  N_49
   25  A    between atoms: O_48  and  C_52
   26  A    between atoms: C_50  and  C_65
   27  A    between atoms: C_51  and  O_60
   28  A    between atoms: N_57  and  O_60
                            x       y       z     vdW  Elec       q    Type
                         _______ _______ _______ _____ _____    ______ ____

>  <TORSDO>
F 28

$$$$
=
 OpenBabel11042416383D

 65 68  0  0  1  0  0  0  0  0999 V2000
  191.5520  173.8170  145.4890 C   0  0  0  0  0  0  0  0  0  0  0  0
  191.0220  174.6700  146.3870 C   0  0  0  0  0  0  0  0  0  0  0  0
  190.8050  172.7240  145.0580 O   0  0  0  0  0  1  0  0  0  0  0  0
  193.7700  173.0680  144.5630 C   0  0  0  0  0  3  0  0  0  0  0  0
  192.8950  174.0150  144.9240 C   0  0  0  0  0  3  0  0  0  0  0  0
  194.0180  171.1220  145.8580 O   0  0  0  0  0  0  0  0  0  0  0  0
  193.0460  170.7740  143.7660 N   0  0  0  0  0  2  0  0  0  0  0  0
  193.6510  171.6130  144.7550 C   0  0  0  0  0  0  0  0  0  0  0  0
  192.8170  169.3550  143.9940 C   0  0  0  0  0  2  0  0  0  0  0  0
  192.9910  168.6010  142.6880 C   0  0  0  0  0  2  0  0  0  0  0  0
  192.1670  169.2630  141.5980 C   0  0  0  0  0  2  0  0  0  0  0  0
  190.4550  170.6370  141.4470 C   0  0  0  0  0  1  0  0  0  0  0  0
  190.8550  169.4360  142.0270 O   0  0  0  0  0  0  0  0  0  0  0  0
  191.7090  175.7720  146.9190 O   0  0  0  0  0  0  0  0  0  0  0  0
  192.3150  176.7930  146.1430 C   0  0  0  0  0  2  0  0  0  0  0  0
  191.3450  177.2770  145.0820 C   0  0  0  0  0  2  0  0  0  0  0  0
  191.1560  178.3120  142.8410 C   0  0  0  0  0  1  0  0  0  0  0  0
  192.1010  177.6580  143.8260 C   0  0  2  0  0  3  0  0  0  0  0  0
  192.7220  176.4310  143.1940 C   0  0  0  0  0  2  0  0  0  0  0  0
  194.0730  176.7550  142.5770 C   0  0  1  0  0  3  0  0  0  0  0  0
  195.1660  176.3200  143.5370 C   0  0  0  0  0  1  0  0  0  0  0  0
  194.1700  174.7830  141.3590 N   0  0  0  0  0  0  0  0  0  0  0  0
  194.1980  176.0240  141.3440 N   0  0  0  0  0  0  0  0  0  0  0  0
  194.3880  174.0300  140.1470 C   0  0  0  0  0  2  0  0  0  0  0  0
  196.3800  173.3590  139.0810 C   0  0  0  0  0  2  0  0  0  0  0  0
  196.4650  173.2990  137.6270 N   0  0  0  0  0  0  0  0  0  0  0  0
  195.1460  175.0170  138.1710 N   0  0  0  0  0  2  0  0  0  0  0  0
  195.7410  174.2450  137.1560 C   0  0  0  0  0  0  0  0  0  0  0  0
  195.5560  174.5350  139.4230 N   0  0  0  0  0  0  0  0  0  0  0  0
  193.7610  176.6280  134.5130 C   0  0  2  0  0  3  0  0  0  0  0  0
  193.2410  175.3860  135.2670 C   0  0  2  0  0  0  0  0  0  0  0  0
  197.3000  176.3610  135.5550 N   0  0  0  0  0  2  0  0  0  0  0  0
  193.0090  175.6840  136.6140 O   0  0  0  0  0  1  0  0  0  0  0  0
  196.0650  176.0120  135.3960 C   0  0  0  0  0  0  0  0  0  0  0  0
  194.2640  174.2530  135.1440 C   0  0  0  0  0  2  0  0  0  0  0  0
  195.1090  176.9830  134.9470 N   0  0  0  0  0  2  0  0  0  0  0  0
  195.6450  174.5970  135.7000 C   0  0  2  0  0  3  0  0  0  0  0  0
  191.9470  174.8940  134.6440 C   0  0  0  0  0  1  0  0  0  0  0  0
  192.8350  177.8270  134.6740 C   0  0  0  0  0  2  0  0  0  0  0  0
  193.5140  178.8990  135.2560 O   0  0  0  0  0  1  0  0  0  0  0  0
  189.3480  174.4050  146.9880 S   0  0  0  0  0  0  0  0  0  0  0  0
  188.8070  175.2910  144.4320 C   0  0  0  0  0  3  0  0  0  0  0  0
  187.6120  177.3410  143.9050 C   0  0  0  0  0  0  0  0  0  0  0  0
  187.4750  177.5960  145.2770 C   0  0  0  0  0  3  0  0  0  0  0  0
  188.6430  175.5400  145.7940 C   0  0  0  0  0  0  0  0  0  0  0  0
  188.2920  176.1810  143.4780 C   0  0  0  0  0  0  0  0  0  0  0  0
  187.9860  176.6990  146.2180 C   0  0  0  0  0  3  0  0  0  0  0  0
  185.9620  179.0610  143.4280 N   0  0  0  0  0  1  0  0  0  0  0  0
  187.1280  178.3530  142.9130 C   0  0  0  0  0  2  0  0  0  0  0  0
  188.5340  175.8990  142.0250 C   0  0  0  0  0  2  0  0  0  0  0  0
  188.5250  174.4060  141.7720 C   0  0  0  0  0  2  0  0  0  0  0  0
  189.0310  174.1250  140.3720 C   0  0  0  0  0  2  0  0  0  0  0  0
  188.2630  173.1050  139.7880 O   0  0  0  0  0  0  0  0  0  0  0  0
  188.8780  174.0740  136.1790 C   0  0  0  0  0  1  0  0  0  0  0  0
  188.3670  174.0810  137.5830 C   0  0  0  0  0  0  0  0  0  0  0  0
  187.6250  175.0290  137.9590 O   0  0  0  0  0  0  0  0  0  0  0  0
  188.6940  173.0240  138.5030 N   0  0  0  0  0  0  0  0  0  0  0  0
  189.3720  171.8160  138.0140 C   0  0  0  0  0  2  0  0  0  0  0  0
  191.3670  173.2630  138.5610 C   0  0  0  0  0  1  0  0  0  0  0  0
  190.9020  171.9230  138.0010 C   0  0  2  0  0  3  0  0  0  0  0  0
  191.3650  169.1580  136.3340 C   0  0  0  0  0  2  0  0  0  0  0  0
  190.7570  170.4990  135.9370 C   0  0  0  0  0  2  0  0  0  0  0  0
  192.6170  169.3970  137.1640 C   0  0  0  0  0  2  0  0  0  0  0  0
  191.5120  171.6240  136.6260 C   0  0  2  0  0  3  0  0  0  0  0  0
  193.2340  171.0570  136.7880 S   0  0  0  0  0  0  0  0  0  0  0  0
  1  2  2  0  0  0  0
  2 14  1  0  0  0  0
  2 41  1  0  0  0  0
  3  1  1  0  0  0  0
  4  8  1  0  0  0  0
  4  5  2  0  0  0  0
  5  1  1  0  0  0  0
  7  9  1  0  0  0  0
  7  8  1  0  0  0  0
  8  6  2  0  0  0  0
 10  9  1  0  0  0  0
 11 13  1  0  0  0  0
 11 10  1  0  0  0  0
 12 13  1  0  0  0  0
 15 14  1  0  0  0  0
 16 15  1  0  0  0  0
 18 17  1  6  0  0  0
 18 16  1  0  0  0  0
 19 18  1  0  0  0  0
 20 19  1  0  0  0  0
 20 21  1  1  0  0  0
 23 22  2  0  0  0  0
 23 20  1  0  0  0  0
 24 22  1  0  0  0  0
 25 29  1  0  0  0  0
 26 25  1  0  0  0  0
 27 29  1  0  0  0  0
 28 26  2  0  0  0  0
 28 27  1  0  0  0  0
 29 24  1  0  0  0  0
 30 39  1  1  0  0  0
 30 36  1  0  0  0  0
 30 31  1  0  0  0  0
 31 38  1  6  0  0  0
 31 33  1  0  0  0  0
 34 32  2  0  0  0  0
 34 37  1  0  0  0  0
 35 31  1  0  0  0  0
 35 37  1  0  0  0  0
 36 34  1  0  0  0  0
 37 28  1  1  0  0  0
 39 40  1  0  0  0  0
 42 45  1  0  0  0  0
 43 44  2  0  0  0  0
 44 47  1  0  0  0  0
 45 47  2  0  0  0  0
 45 41  1  0  0  0  0
 46 43  1  0  0  0  0
 46 42  2  0  0  0  0
 49 48  1  0  0  0  0
 49 43  1  0  0  0  0
 50 46  1  0  0  0  0
 51 50  1  0  0  0  0
 52 51  1  0  0  0  0
 53 52  1  0  0  0  0
 54 55  1  0  0  0  0
 55 56  2  0  0  0  0
 55 57  1  0  0  0  0
 57 53  1  0  0  0  0
 58 57  1  0  0  0  0
 60 58  1  0  0  0  0
 60 59  1  6  0  0  0
 61 63  1  0  0  0  0
 62 61  1  0  0  0  0
 62 64  1  0  0  0  0
 64 65  1  0  0  0  0
 64 60  1  1  0  0  0
 65 63  1  0  0  0  0
M  END
>  <MODEL>
3

>  <REMARK>
 VINA RESULT:      -4.3      3.375      6.859
  Name = 
  28 active torsions:
  status: ('A' for Active; 'I' for Inactive)
    1  A    between atoms: C_3  and  CA_18
    2  A    between atoms: N_6  and  C_13
    3  A    between atoms: C_7  and  N_57
    4  A    between atoms: C_7  and  C_65
    5  A    between atoms: C_10  and  C_46
    6  A    between atoms: C_13  and  N_53
    7  A    between atoms: C_14  and  C_56
    8  A    between atoms: C_15  and  C_19
    9  A    between atoms: C_20  and  S_23
   10  A    between atoms: C_21  and  C_33
   11  A    between atoms: C_21  and  C_52
   12  A    between atoms: S_23  and  C_61
   13  A    between atoms: O_24  and  C_47
   14  A    between atoms: O_24  and  C_61
   15  A    between atoms: N_27  and  C_33
   16  A    between atoms: C_30  and  C_32
   17  A    between atoms: C_30  and  C_35
   18  A    between atoms: C_32  and  C_40
   19  A    between atoms: C_34  and  C_37
   20  A    between atoms: C_34  and  C_42
   21  A    between atoms: C_35  and  C_47
   22  A    between atoms: C_37  and  C_51
   23  A    between atoms: C_38  and  C_58
   24  A    between atoms: C_40  and  N_49
   25  A    between atoms: O_48  and  C_52
   26  A    between atoms: C_50  and  C_65
   27  A    between atoms: C_51  and  O_60
   28  A    between atoms: N_57  and  O_60
                            x       y       z     vdW  Elec       q    Type
                         _______ _______ _______ _____ _____    ______ ____

>  <TORSDO>
F 28

$$$$
=
 OpenBabel11042416383D

 65 68  0  0  1  0  0  0  0  0999 V2000
  187.7210  177.5480  144.0950 C   0  0  0  0  0  0  0  0  0  0  0  0
  189.0140  177.8080  144.3690 C   0  0  0  0  0  0  0  0  0  0  0  0
  187.3170  177.4020  142.7700 O   0  0  0  0  0  1  0  0  0  0  0  0
  185.4210  177.7240  145.1030 C   0  0  0  0  0  3  0  0  0  0  0  0
  186.7160  177.3880  145.1560 C   0  0  0  0  0  3  0  0  0  0  0  0
  184.7540  179.7010  144.0230 O   0  0  0  0  0  0  0  0  0  0  0  0
  184.0970  177.7410  142.9430 N   0  0  0  0  0  2  0  0  0  0  0  0
  184.7210  178.4400  144.0240 C   0  0  0  0  0  0  0  0  0  0  0  0
  183.5050  178.4400  141.8120 C   0  0  0  0  0  2  0  0  0  0  0  0
  184.1690  177.9750  140.5280 C   0  0  0  0  0  2  0  0  0  0  0  0
  185.6420  178.3420  140.5490 C   0  0  0  0  0  2  0  0  0  0  0  0
  186.6880  176.6790  139.5580 C   0  0  0  0  0  1  0  0  0  0  0  0
  186.2420  177.9820  139.3460 O   0  0  0  0  0  0  0  0  0  0  0  0
  189.5120  178.0180  145.6640 O   0  0  0  0  0  0  0  0  0  0  0  0
  189.8780  176.9840  146.5630 C   0  0  0  0  0  2  0  0  0  0  0  0
  191.2970  177.2050  147.0500 C   0  0  0  0  0  2  0  0  0  0  0  0
  191.7260  174.9930  148.0750 C   0  0  0  0  0  1  0  0  0  0  0  0
  192.0890  175.9190  146.9360 C   0  0  2  0  0  3  0  0  0  0  0  0
  193.5740  176.2120  146.9740 C   0  0  0  0  0  2  0  0  0  0  0  0
  194.2770  175.6500  145.7490 C   0  0  1  0  0  3  0  0  0  0  0  0
  194.6810  176.8010  144.8470 C   0  0  0  0  0  1  0  0  0  0  0  0
  196.2540  174.5050  145.3420 N   0  0  0  0  0  0  0  0  0  0  0  0
  195.4530  174.9440  146.1840 N   0  0  0  0  0  0  0  0  0  0  0  0
  197.3880  173.7130  145.7530 C   0  0  0  0  0  2  0  0  0  0  0  0
  196.3920  171.6770  145.1070 C   0  0  0  0  0  2  0  0  0  0  0  0
  195.6800  171.5620  143.8400 N   0  0  0  0  0  0  0  0  0  0  0  0
  197.3990  172.9580  143.5430 N   0  0  0  0  0  2  0  0  0  0  0  0
  196.2750  172.3150  142.9910 C   0  0  0  0  0  0  0  0  0  0  0  0
  197.5580  172.5520  144.8770 N   0  0  0  0  0  0  0  0  0  0  0  0
  193.8050  170.7560  140.1540 C   0  0  2  0  0  3  0  0  0  0  0  0
  195.0180  170.0960  140.8430 C   0  0  2  0  0  0  0  0  0  0  0  0
  194.2410  174.1420  141.5780 N   0  0  0  0  0  2  0  0  0  0  0  0
  194.7060  169.7330  142.1570 O   0  0  0  0  0  1  0  0  0  0  0  0
  194.5290  172.9160  141.2820 C   0  0  0  0  0  0  0  0  0  0  0  0
  196.2000  171.0700  140.8290 C   0  0  0  0  0  2  0  0  0  0  0  0
  193.5140  172.0640  140.7340 N   0  0  0  0  0  2  0  0  0  0  0  0
  195.9220  172.3970  141.5340 C   0  0  2  0  0  3  0  0  0  0  0  0
  195.4480  168.8560  140.0800 C   0  0  0  0  0  1  0  0  0  0  0  0
  192.5610  169.8770  140.2160 C   0  0  0  0  0  2  0  0  0  0  0  0
  192.5470  168.9690  139.1550 O   0  0  0  0  0  1  0  0  0  0  0  0
  190.2030  177.9270  143.0250 S   0  0  0  0  0  0  0  0  0  0  0  0
  189.6380  175.4460  141.9570 C   0  0  0  0  0  3  0  0  0  0  0  0
  190.5870  173.3530  142.7460 C   0  0  0  0  0  0  0  0  0  0  0  0
  191.3120  174.0640  143.7140 C   0  0  0  0  0  3  0  0  0  0  0  0
  190.3820  176.1470  142.9050 C   0  0  0  0  0  0  0  0  0  0  0  0
  189.7360  174.0500  141.8640 C   0  0  0  0  0  0  0  0  0  0  0  0
  191.2120  175.4560  143.7920 C   0  0  0  0  0  3  0  0  0  0  0  0
  190.8030  171.3340  144.0820 N   0  0  0  0  0  1  0  0  0  0  0  0
  190.6480  171.8570  142.7300 C   0  0  0  0  0  2  0  0  0  0  0  0
  188.8820  173.3340  140.8620 C   0  0  0  0  0  2  0  0  0  0  0  0
  189.2750  173.7320  139.4550 C   0  0  0  0  0  2  0  0  0  0  0  0
  190.3390  172.7860  138.9380 C   0  0  0  0  0  2  0  0  0  0  0  0
  190.1290  172.5420  137.5720 O   0  0  0  0  0  0  0  0  0  0  0  0
  191.0610  175.4900  135.3860 C   0  0  0  0  0  1  0  0  0  0  0  0
  190.2680  174.4220  136.0650 C   0  0  0  0  0  0  0  0  0  0  0  0
  189.0240  174.3660  135.8680 O   0  0  0  0  0  0  0  0  0  0  0  0
  190.8980  173.4530  136.9220 N   0  0  0  0  0  0  0  0  0  0  0  0
  192.3640  173.3780  136.9830 C   0  0  0  0  0  2  0  0  0  0  0  0
  192.9790  171.0060  136.3770 C   0  0  0  0  0  1  0  0  0  0  0  0
  192.9860  172.4620  135.9230 C   0  0  2  0  0  3  0  0  0  0  0  0
  195.9500  172.2090  137.2610 C   0  0  0  0  0  2  0  0  0  0  0  0
  195.4340  171.9030  135.8590 C   0  0  0  0  0  2  0  0  0  0  0  0
  195.3490  173.5200  137.7450 C   0  0  0  0  0  2  0  0  0  0  0  0
  194.3770  172.9240  135.4720 C   0  0  2  0  0  3  0  0  0  0  0  0
  194.8450  174.4780  136.2940 S   0  0  0  0  0  0  0  0  0  0  0  0
  1  2  2  0  0  0  0
  1  5  1  0  0  0  0
  2 14  1  0  0  0  0
  3  1  1  0  0  0  0
  4  5  2  0  0  0  0
  6  8  2  0  0  0  0
  7  8  1  0  0  0  0
  8  4  1  0  0  0  0
  9  7  1  0  0  0  0
 10 11  1  0  0  0  0
 10  9  1  0  0  0  0
 13 12  1  0  0  0  0
 13 11  1  0  0  0  0
 14 15  1  0  0  0  0
 15 16  1  0  0  0  0
 18 19  1  0  0  0  0
 18 16  1  0  0  0  0
 18 17  1  1  0  0  0
 20 21  1  6  0  0  0
 20 23  1  0  0  0  0
 20 19  1  0  0  0  0
 22 24  1  0  0  0  0
 22 23  2  0  0  0  0
 26 25  1  0  0  0  0
 27 29  1  0  0  0  0
 28 27  1  0  0  0  0
 28 26  2  0  0  0  0
 29 25  1  0  0  0  0
 29 24  1  0  0  0  0
 30 39  1  1  0  0  0
 30 36  1  0  0  0  0
 30 31  1  0  0  0  0
 31 38  1  6  0  0  0
 31 33  1  0  0  0  0
 34 37  1  0  0  0  0
 34 32  2  0  0  0  0
 35 31  1  0  0  0  0
 35 37  1  0  0  0  0
 36 34  1  0  0  0  0
 37 28  1  1  0  0  0
 40 39  1  0  0  0  0
 41  2  1  0  0  0  0
 42 45  1  0  0  0  0
 43 44  2  0  0  0  0
 44 47  1  0  0  0  0
 45 41  1  0  0  0  0
 45 47  2  0  0  0  0
 46 42  2  0  0  0  0
 46 43  1  0  0  0  0
 49 43  1  0  0  0  0
 49 48  1  0  0  0  0
 50 46  1  0  0  0  0
 51 50  1  0  0  0  0
 52 51  1  0  0  0  0
 53 52  1  0  0  0  0
 54 55  1  0  0  0  0
 55 57  1  0  0  0  0
 56 55  2  0  0  0  0
 57 58  1  0  0  0  0
 57 53  1  0  0  0  0
 60 59  1  1  0  0  0
 60 58  1  0  0  0  0
 61 63  1  0  0  0  0
 62 61  1  0  0  0  0
 64 62  1  0  0  0  0
 64 60  1  1  0  0  0
 64 65  1  0  0  0  0
 65 63  1  0  0  0  0
M  END
>  <MODEL>
4

>  <REMARK>
 VINA RESULT:      -4.2      2.082      2.933
  Name = 
  28 active torsions:
  status: ('A' for Active; 'I' for Inactive)
    1  A    between atoms: C_3  and  CA_18
    2  A    between atoms: N_6  and  C_13
    3  A    between atoms: C_7  and  N_57
    4  A    between atoms: C_7  and  C_65
    5  A    between atoms: C_10  and  C_46
    6  A    between atoms: C_13  and  N_53
    7  A    between atoms: C_14  and  C_56
    8  A    between atoms: C_15  and  C_19
    9  A    between atoms: C_20  and  S_23
   10  A    between atoms: C_21  and  C_33
   11  A    between atoms: C_21  and  C_52
   12  A    between atoms: S_23  and  C_61
   13  A    between atoms: O_24  and  C_47
   14  A    between atoms: O_24  and  C_61
   15  A    between atoms: N_27  and  C_33
   16  A    between atoms: C_30  and  C_32
   17  A    between atoms: C_30  and  C_35
   18  A    between atoms: C_32  and  C_40
   19  A    between atoms: C_34  and  C_37
   20  A    between atoms: C_34  and  C_42
   21  A    between atoms: C_35  and  C_47
   22  A    between atoms: C_37  and  C_51
   23  A    between atoms: C_38  and  C_58
   24  A    between atoms: C_40  and  N_49
   25  A    between atoms: O_48  and  C_52
   26  A    between atoms: C_50  and  C_65
   27  A    between atoms: C_51  and  O_60
   28  A    between atoms: N_57  and  O_60
                            x       y       z     vdW  Elec       q    Type
                         _______ _______ _______ _____ _____    ______ ____

>  <TORSDO>
F 28

$$$$
=
 OpenBabel11042416383D

 65 68  0  0  1  0  0  0  0  0999 V2000
  191.7050  170.9240  142.8310 C   0  0  0  0  0  0  0  0  0  0  0  0
  192.9420  171.1450  142.3460 C   0  0  0  0  0  0  0  0  0  0  0  0
  190.9360  169.8900  142.3030 O   0  0  0  0  0  1  0  0  0  0  0  0
  190.1050  172.5760  143.8560 C   0  0  0  0  0  3  0  0  0  0  0  0
  191.1400  171.7290  143.9240 C   0  0  0  0  0  3  0  0  0  0  0  0
  189.5940  172.3980  141.5700 O   0  0  0  0  0  0  0  0  0  0  0  0
  188.3380  173.9920  142.7200 N   0  0  0  0  0  2  0  0  0  0  0  0
  189.3650  172.9970  142.6550 C   0  0  0  0  0  0  0  0  0  0  0  0
  187.5210  174.3320  141.5650 C   0  0  0  0  0  2  0  0  0  0  0  0
  188.2320  175.3890  140.7380 C   0  0  0  0  0  2  0  0  0  0  0  0
  187.5500  176.7330  140.9260 C   0  0  0  0  0  2  0  0  0  0  0  0
  185.8490  177.8620  141.7450 C   0  0  0  0  0  1  0  0  0  0  0  0
  186.3410  176.5680  141.5950 O   0  0  0  0  0  0  0  0  0  0  0  0
  193.7750  172.1890  142.7760 O   0  0  0  0  0  0  0  0  0  0  0  0
  193.3160  173.4620  143.2020 C   0  0  0  0  0  2  0  0  0  0  0  0
  193.4100  174.4520  142.0570 C   0  0  0  0  0  2  0  0  0  0  0  0
  194.7220  176.3370  141.1350 C   0  0  0  0  0  1  0  0  0  0  0  0
  194.4450  175.5110  142.3710 C   0  0  2  0  0  3  0  0  0  0  0  0
  195.7280  174.8660  142.8480 C   0  0  0  0  0  2  0  0  0  0  0  0
  196.3470  175.6520  143.9930 C   0  0  1  0  0  3  0  0  0  0  0  0
  196.8340  176.9880  143.4620 C   0  0  0  0  0  1  0  0  0  0  0  0
  194.8890  177.0150  145.1750 N   0  0  0  0  0  0  0  0  0  0  0  0
  195.3370  175.8720  144.9930 N   0  0  0  0  0  0  0  0  0  0  0  0
  193.9450  177.2730  146.2360 C   0  0  0  0  0  2  0  0  0  0  0  0
  192.2850  176.4070  147.6670 C   0  0  0  0  0  2  0  0  0  0  0  0
  190.8860  176.3840  147.2600 N   0  0  0  0  0  0  0  0  0  0  0  0
  192.1390  176.0210  145.4480 N   0  0  0  0  0  2  0  0  0  0  0  0
  190.8530  176.1780  145.9960 C   0  0  0  0  0  0  0  0  0  0  0  0
  193.0950  176.1040  146.4710 N   0  0  0  0  0  0  0  0  0  0  0  0
  187.1540  177.7390  145.3100 C   0  0  2  0  0  3  0  0  0  0  0  0
  187.6680  176.9910  146.5600 C   0  0  2  0  0  0  0  0  0  0  0  0
  190.1340  177.2040  143.1850 N   0  0  0  0  0  2  0  0  0  0  0  0
  188.5190  177.8080  147.3110 O   0  0  0  0  0  1  0  0  0  0  0  0
  189.3380  177.0660  144.1950 C   0  0  0  0  0  0  0  0  0  0  0  0
  188.4020  175.7200  146.1230 C   0  0  0  0  0  2  0  0  0  0  0  0
  188.2300  177.9640  144.3500 N   0  0  0  0  0  2  0  0  0  0  0  0
  189.5950  175.9750  145.2020 C   0  0  2  0  0  3  0  0  0  0  0  0
  186.5030  176.5610  147.4330 C   0  0  0  0  0  1  0  0  0  0  0  0
  186.4940  179.0650  145.6660 C   0  0  0  0  0  2  0  0  0  0  0  0
  185.9100  179.0000  146.9330 O   0  0  0  0  0  1  0  0  0  0  0  0
  193.5960  170.0820  141.0520 S   0  0  0  0  0  0  0  0  0  0  0  0
  194.3400  172.2940  139.5820 C   0  0  0  0  0  3  0  0  0  0  0  0
  196.5790  173.2390  139.5450 C   0  0  0  0  0  0  0  0  0  0  0  0
  196.9970  172.2460  140.4420 C   0  0  0  0  0  3  0  0  0  0  0  0
  194.7590  171.3260  140.4930 C   0  0  0  0  0  0  0  0  0  0  0  0
  195.2390  173.2590  139.1030 C   0  0  0  0  0  0  0  0  0  0  0  0
  196.0900  171.2940  140.9160 C   0  0  0  0  0  3  0  0  0  0  0  0
  197.8630  175.2640  139.9450 N   0  0  0  0  0  1  0  0  0  0  0  0
  197.5830  174.2010  138.9870 C   0  0  0  0  0  2  0  0  0  0  0  0
  194.7580  174.2520  138.0880 C   0  0  0  0  0  2  0  0  0  0  0  0
  193.2590  174.1360  137.9100 C   0  0  0  0  0  2  0  0  0  0  0  0
  192.8000  175.0970  136.8330 C   0  0  0  0  0  2  0  0  0  0  0  0
  193.2020  174.6230  135.5740 O   0  0  0  0  0  0  0  0  0  0  0  0
  189.6550  173.8260  134.5130 C   0  0  0  0  0  1  0  0  0  0  0  0
  190.8390  174.5310  135.0910 C   0  0  0  0  0  0  0  0  0  0  0  0
  190.6840  175.6790  135.5880 O   0  0  0  0  0  0  0  0  0  0  0  0
  192.1410  173.9190  135.1010 N   0  0  0  0  0  0  0  0  0  0  0  0
  192.2860  172.5060  134.7240 C   0  0  0  0  0  2  0  0  0  0  0  0
  194.3310  171.4050  135.7130 C   0  0  0  0  0  1  0  0  0  0  0  0
  192.8270  171.6140  135.8480 C   0  0  2  0  0  3  0  0  0  0  0  0
  189.8170  170.8810  136.8720 C   0  0  0  0  0  2  0  0  0  0  0  0
  190.5980  170.4760  135.6260 C   0  0  0  0  0  2  0  0  0  0  0  0
  190.7330  170.8160  138.0850 C   0  0  0  0  0  2  0  0  0  0  0  0
  192.0640  170.2900  135.9830 C   0  0  2  0  0  3  0  0  0  0  0  0
  192.0980  169.6910  137.7000 S   0  0  0  0  0  0  0  0  0  0  0  0
  1  5  1  0  0  0  0
  2 14  1  0  0  0  0
  2  1  2  0  0  0  0
  3  1  1  0  0  0  0
  4  5  2  0  0  0  0
  6  8  2  0  0  0  0
  8  7  1  0  0  0  0
  8  4  1  0  0  0  0
  9  7  1  0  0  0  0
 10 11  1  0  0  0  0
 10  9  1  0  0  0  0
 11 13  1  0  0  0  0
 13 12  1  0  0  0  0
 14 15  1  0  0  0  0
 16 18  1  0  0  0  0
 16 15  1  0  0  0  0
 18 17  1  6  0  0  0
 18 19  1  0  0  0  0
 19 20  1  0  0  0  0
 20 21  1  6  0  0  0
 20 23  1  0  0  0  0
 22 24  1  0  0  0  0
 23 22  2  0  0  0  0
 24 29  1  0  0  0  0
 26 25  1  0  0  0  0
 27 28  1  0  0  0  0
 27 29  1  0  0  0  0
 28 26  2  0  0  0  0
 29 25  1  0  0  0  0
 30 39  1  1  0  0  0
 30 31  1  0  0  0  0
 31 33  1  0  0  0  0
 31 38  1  1  0  0  0
 32 34  2  0  0  0  0
 34 36  1  0  0  0  0
 34 37  1  0  0  0  0
 35 31  1  0  0  0  0
 36 30  1  0  0  0  0
 37 28  1  1  0  0  0
 37 35  1  0  0  0  0
 39 40  1  0  0  0  0
 41  2  1  0  0  0  0
 42 45  1  0  0  0  0
 43 44  2  0  0  0  0
 44 47  1  0  0  0  0
 45 47  2  0  0  0  0
 45 41  1  0  0  0  0
 46 43  1  0  0  0  0
 46 42  2  0  0  0  0
 49 43  1  0  0  0  0
 49 48  1  0  0  0  0
 50 46  1  0  0  0  0
 51 50  1  0  0  0  0
 52 51  1  0  0  0  0
 53 52  1  0  0  0  0
 54 55  1  0  0  0  0
 55 57  1  0  0  0  0
 55 56  2  0  0  0  0
 57 53  1  0  0  0  0
 58 57  1  0  0  0  0
 58 60  1  0  0  0  0
 60 59  1  6  0  0  0
 61 63  1  0  0  0  0
 62 64  1  0  0  0  0
 62 61  1  0  0  0  0
 64 60  1  1  0  0  0
 64 65  1  0  0  0  0
 65 63  1  0  0  0  0
M  END
>  <MODEL>
5

>  <REMARK>
 VINA RESULT:      -3.9      2.962      6.947
  Name = 
  28 active torsions:
  status: ('A' for Active; 'I' for Inactive)
    1  A    between atoms: C_3  and  CA_18
    2  A    between atoms: N_6  and  C_13
    3  A    between atoms: C_7  and  N_57
    4  A    between atoms: C_7  and  C_65
    5  A    between atoms: C_10  and  C_46
    6  A    between atoms: C_13  and  N_53
    7  A    between atoms: C_14  and  C_56
    8  A    between atoms: C_15  and  C_19
    9  A    between atoms: C_20  and  S_23
   10  A    between atoms: C_21  and  C_33
   11  A    between atoms: C_21  and  C_52
   12  A    between atoms: S_23  and  C_61
   13  A    between atoms: O_24  and  C_47
   14  A    between atoms: O_24  and  C_61
   15  A    between atoms: N_27  and  C_33
   16  A    between atoms: C_30  and  C_32
   17  A    between atoms: C_30  and  C_35
   18  A    between atoms: C_32  and  C_40
   19  A    between atoms: C_34  and  C_37
   20  A    between atoms: C_34  and  C_42
   21  A    between atoms: C_35  and  C_47
   22  A    between atoms: C_37  and  C_51
   23  A    between atoms: C_38  and  C_58
   24  A    between atoms: C_40  and  N_49
   25  A    between atoms: O_48  and  C_52
   26  A    between atoms: C_50  and  C_65
   27  A    between atoms: C_51  and  O_60
   28  A    between atoms: N_57  and  O_60
                            x       y       z     vdW  Elec       q    Type
                         _______ _______ _______ _____ _____    ______ ____

>  <TORSDO>
F 28

$$$$
=
 OpenBabel11042416383D

 65 68  0  0  1  0  0  0  0  0999 V2000
  190.8500  173.2950  138.6650 C   0  0  0  0  0  0  0  0  0  0  0  0
  191.3300  173.7140  137.4790 C   0  0  0  0  0  0  0  0  0  0  0  0
  191.5370  173.6110  139.8340 O   0  0  0  0  0  1  0  0  0  0  0  0
  189.4720  171.2020  138.9090 C   0  0  0  0  0  3  0  0  0  0  0  0
  189.6000  172.5270  138.7730 C   0  0  0  0  0  3  0  0  0  0  0  0
  190.2170  168.9950  138.5940 O   0  0  0  0  0  0  0  0  0  0  0  0
  191.9150  170.5380  139.0160 N   0  0  0  0  0  2  0  0  0  0  0  0
  190.5370  170.1860  138.8620 C   0  0  0  0  0  0  0  0  0  0  0  0
  192.9830  169.5620  138.8550 C   0  0  0  0  0  2  0  0  0  0  0  0
  193.0600  168.6900  140.0950 C   0  0  0  0  0  2  0  0  0  0  0  0
  193.4930  169.5270  141.2860 C   0  0  0  0  0  2  0  0  0  0  0  0
  192.4090  168.2960  142.7530 C   0  0  0  0  0  1  0  0  0  0  0  0
  193.6900  168.7130  142.3970 O   0  0  0  0  0  0  0  0  0  0  0  0
  190.7390  173.4090  136.2430 O   0  0  0  0  0  0  0  0  0  0  0  0
  190.2600  174.3740  135.3210 C   0  0  0  0  0  2  0  0  0  0  0  0
  189.6300  175.5320  136.0690 C   0  0  0  0  0  2  0  0  0  0  0  0
  187.7040  175.5260  134.5140 C   0  0  0  0  0  1  0  0  0  0  0  0
  188.1210  175.4550  135.9660 C   0  0  2  0  0  3  0  0  0  0  0  0
  187.4830  176.5940  136.7320 C   0  0  0  0  0  2  0  0  0  0  0  0
  186.7170  176.0830  137.9410 C   0  0  1  0  0  3  0  0  0  0  0  0
  187.6480  175.2350  138.7880 C   0  0  0  0  0  1  0  0  0  0  0  0
  186.2220  177.1420  139.9460 N   0  0  0  0  0  0  0  0  0  0  0  0
  186.2680  177.2150  138.7070 N   0  0  0  0  0  0  0  0  0  0  0  0
  185.6860  178.2310  140.7250 C   0  0  0  0  0  2  0  0  0  0  0  0
  185.6650  176.9390  142.6960 C   0  0  0  0  0  2  0  0  0  0  0  0
  186.8140  176.1210  143.0650 N   0  0  0  0  0  0  0  0  0  0  0  0
  187.5740  177.9730  142.0760 N   0  0  0  0  0  2  0  0  0  0  0  0
  187.8690  176.7370  142.6810 C   0  0  0  0  0  0  0  0  0  0  0  0
  186.1870  178.1840  142.1000 N   0  0  0  0  0  0  0  0  0  0  0  0
  190.3050  175.4090  145.6620 C   0  0  2  0  0  3  0  0  0  0  0  0
  189.7530  176.8320  145.4310 C   0  0  2  0  0  0  0  0  0  0  0  0
  189.0790  173.9130  142.5100 N   0  0  0  0  0  2  0  0  0  0  0  0
  188.3970  176.8980  145.7670 O   0  0  0  0  0  1  0  0  0  0  0  0
  189.3620  174.8340  143.3720 C   0  0  0  0  0  0  0  0  0  0  0  0
  189.9550  177.2220  143.9640 C   0  0  0  0  0  2  0  0  0  0  0  0
  189.7430  174.4620  144.7040 N   0  0  0  0  0  2  0  0  0  0  0  0
  189.2700  176.2840  142.9700 C   0  0  2  0  0  3  0  0  0  0  0  0
  190.5170  177.8380  146.2730 C   0  0  0  0  0  1  0  0  0  0  0  0
  190.0510  174.9180  147.0820 C   0  0  0  0  0  2  0  0  0  0  0  0
  188.9430  174.0690  147.1190 O   0  0  0  0  0  1  0  0  0  0  0  0
  192.8300  174.7050  137.4250 S   0  0  0  0  0  0  0  0  0  0  0  0
  194.9010  173.0350  138.1560 C   0  0  0  0  0  3  0  0  0  0  0  0
  195.5880  171.0610  136.9160 C   0  0  0  0  0  0  0  0  0  0  0  0
  194.5760  171.3160  135.9790 C   0  0  0  0  0  3  0  0  0  0  0  0
  193.8810  173.2660  137.2340 C   0  0  0  0  0  0  0  0  0  0  0  0
  195.7580  171.9340  138.0110 C   0  0  0  0  0  0  0  0  0  0  0  0
  193.7240  172.4120  136.1390 C   0  0  0  0  0  3  0  0  0  0  0  0
  197.3220  170.1510  135.4760 N   0  0  0  0  0  1  0  0  0  0  0  0
  196.5390  169.9280  136.6860 C   0  0  0  0  0  2  0  0  0  0  0  0
  196.8700  171.7520  138.9990 C   0  0  0  0  0  2  0  0  0  0  0  0
  196.7220  172.7310  140.1440 C   0  0  0  0  0  2  0  0  0  0  0  0
  196.2700  171.9940  141.3880 C   0  0  0  0  0  2  0  0  0  0  0  0
  195.2270  172.7020  142.0040 O   0  0  0  0  0  0  0  0  0  0  0  0
  196.2690  175.8190  143.8870 C   0  0  0  0  0  1  0  0  0  0  0  0
  195.6900  174.9160  142.8470 C   0  0  0  0  0  0  0  0  0  0  0  0
  195.0800  175.4260  141.8670 O   0  0  0  0  0  0  0  0  0  0  0  0
  195.8270  173.4870  142.9370 N   0  0  0  0  0  0  0  0  0  0  0  0
  196.7150  172.9020  143.9500 C   0  0  0  0  0  2  0  0  0  0  0  0
  194.9630  172.0650  145.5640 C   0  0  0  0  0  1  0  0  0  0  0  0
  196.1270  171.6760  144.6590 C   0  0  2  0  0  3  0  0  0  0  0  0
  197.2100  168.6220  144.2830 C   0  0  0  0  0  2  0  0  0  0  0  0
  197.9400  169.9530  144.4260 C   0  0  0  0  0  2  0  0  0  0  0  0
  196.0550  168.5700  145.2710 C   0  0  0  0  0  2  0  0  0  0  0  0
  197.1850  170.8450  145.3970 C   0  0  2  0  0  3  0  0  0  0  0  0
  196.4090  169.7350  146.6110 S   0  0  0  0  0  0  0  0  0  0  0  0
  1  5  1  0  0  0  0
  1  3  1  0  0  0  0
  2  1  2  0  0  0  0
  5  4  2  0  0  0  0
  6  8  2  0  0  0  0
  8  4  1  0  0  0  0
  8  7  1  0  0  0  0
  9  7  1  0  0  0  0
  9 10  1  0  0  0  0
 10 11  1  0  0  0  0
 11 13  1  0  0  0  0
 13 12  1  0  0  0  0
 14  2  1  0  0  0  0
 15 16  1  0  0  0  0
 15 14  1  0  0  0  0
 18 17  1  6  0  0  0
 18 16  1  0  0  0  0
 18 19  1  0  0  0  0
 19 20  1  0  0  0  0
 20 23  1  0  0  0  0
 20 21  1  1  0  0  0
 22 24  1  0  0  0  0
 23 22  2  0  0  0  0
 24 29  1  0  0  0  0
 25 26  1  0  0  0  0
 27 29  1  0  0  0  0
 27 28  1  0  0  0  0
 28 26  2  0  0  0  0
 29 25  1  0  0  0  0
 30 39  1  1  0  0  0
 31 30  1  0  0  0  0
 31 33  1  0  0  0  0
 31 38  1  1  0  0  0
 32 34  2  0  0  0  0
 34 36  1  0  0  0  0
 35 31  1  0  0  0  0
 36 30  1  0  0  0  0
 37 28  1  1  0  0  0
 37 34  1  0  0  0  0
 37 35  1  0  0  0  0
 39 40  1  0  0  0  0
 41  2  1  0  0  0  0
 43 46  2  0  0  0  0
 44 47  2  0  0  0  0
 44 43  1  0  0  0  0
 45 41  1  0  0  0  0
 45 42  2  0  0  0  0
 46 42  1  0  0  0  0
 46 50  1  0  0  0  0
 47 45  1  0  0  0  0
 48 49  1  0  0  0  0
 49 43  1  0  0  0  0
 50 51  1  0  0  0  0
 51 52  1  0  0  0  0
 52 53  1  0  0  0  0
 53 57  1  0  0  0  0
 55 57  1  0  0  0  0
 55 54  1  0  0  0  0
 56 55  2  0  0  0  0
 57 58  1  0  0  0  0
 58 60  1  0  0  0  0
 60 59  1  1  0  0  0
 61 62  1  0  0  0  0
 61 63  1  0  0  0  0
 62 64  1  0  0  0  0
 63 65  1  0  0  0  0
 64 60  1  6  0  0  0
 64 65  1  0  0  0  0
M  END
>  <MODEL>
6

>  <REMARK>
 VINA RESULT:      -3.7      2.982     10.003
  Name = 
  28 active torsions:
  status: ('A' for Active; 'I' for Inactive)
    1  A    between atoms: C_3  and  CA_18
    2  A    between atoms: N_6  and  C_13
    3  A    between atoms: C_7  and  N_57
    4  A    between atoms: C_7  and  C_65
    5  A    between atoms: C_10  and  C_46
    6  A    between atoms: C_13  and  N_53
    7  A    between atoms: C_14  and  C_56
    8  A    between atoms: C_15  and  C_19
    9  A    between atoms: C_20  and  S_23
   10  A    between atoms: C_21  and  C_33
   11  A    between atoms: C_21  and  C_52
   12  A    between atoms: S_23  and  C_61
   13  A    between atoms: O_24  and  C_47
   14  A    between atoms: O_24  and  C_61
   15  A    between atoms: N_27  and  C_33
   16  A    between atoms: C_30  and  C_32
   17  A    between atoms: C_30  and  C_35
   18  A    between atoms: C_32  and  C_40
   19  A    between atoms: C_34  and  C_37
   20  A    between atoms: C_34  and  C_42
   21  A    between atoms: C_35  and  C_47
   22  A    between atoms: C_37  and  C_51
   23  A    between atoms: C_38  and  C_58
   24  A    between atoms: C_40  and  N_49
   25  A    between atoms: O_48  and  C_52
   26  A    between atoms: C_50  and  C_65
   27  A    between atoms: C_51  and  O_60
   28  A    between atoms: N_57  and  O_60
                            x       y       z     vdW  Elec       q    Type
                         _______ _______ _______ _____ _____    ______ ____

>  <TORSDO>
F 28

$$$$
=
 OpenBabel11042416383D

 65 68  0  0  1  0  0  0  0  0999 V2000
  191.1950  173.1900  141.7280 C   0  0  0  0  0  0  0  0  0  0  0  0
  191.5290  171.9970  141.2010 C   0  0  0  0  0  0  0  0  0  0  0  0
  190.3770  173.2380  142.8540 O   0  0  0  0  0  1  0  0  0  0  0  0
  192.6600  175.2360  141.6520 C   0  0  0  0  0  3  0  0  0  0  0  0
  191.6870  174.4570  141.1650 C   0  0  0  0  0  3  0  0  0  0  0  0
  194.2150  174.1390  143.0300 O   0  0  0  0  0  0  0  0  0  0  0  0
  193.2350  176.0250  143.9900 N   0  0  0  0  0  2  0  0  0  0  0  0
  193.3840  175.0820  142.9250 C   0  0  0  0  0  0  0  0  0  0  0  0
  194.0320  175.9480  145.2060 C   0  0  0  0  0  2  0  0  0  0  0  0
  193.1140  175.7540  146.3990 C   0  0  0  0  0  2  0  0  0  0  0  0
  191.9780  174.8170  146.0270 C   0  0  0  0  0  2  0  0  0  0  0  0
  191.1970  176.1200  147.6180 C   0  0  0  0  0  1  0  0  0  0  0  0
  190.7910  175.2450  146.6130 O   0  0  0  0  0  0  0  0  0  0  0  0
  192.3070  171.8430  140.0430 O   0  0  0  0  0  0  0  0  0  0  0  0
  191.7880  171.5210  138.7620 C   0  0  0  0  0  2  0  0  0  0  0  0
  191.5380  172.7910  137.9740 C   0  0  0  0  0  2  0  0  0  0  0  0
  191.3490  173.1690  135.5350 C   0  0  0  0  0  1  0  0  0  0  0  0
  190.7310  172.4790  136.7310 C   0  0  2  0  0  3  0  0  0  0  0  0
  189.3020  172.9470  136.9020 C   0  0  0  0  0  2  0  0  0  0  0  0
  189.2300  174.4600  137.0360 C   0  0  1  0  0  3  0  0  0  0  0  0
  188.1580  174.9830  136.0970 C   0  0  0  0  0  1  0  0  0  0  0  0
  187.7340  175.1870  138.6540 N   0  0  0  0  0  0  0  0  0  0  0  0
  188.8780  174.7800  138.3930 N   0  0  0  0  0  0  0  0  0  0  0  0
  187.3910  175.6040  139.9920 C   0  0  0  0  0  2  0  0  0  0  0  0
  185.8370  177.3530  140.2710 C   0  0  0  0  0  2  0  0  0  0  0  0
  185.7120  178.0450  141.5480 N   0  0  0  0  0  0  0  0  0  0  0  0
  187.8600  177.5080  141.2590 N   0  0  0  0  0  2  0  0  0  0  0  0
  186.8770  178.0950  142.0770 C   0  0  0  0  0  0  0  0  0  0  0  0
  187.2680  177.0610  140.0680 N   0  0  0  0  0  0  0  0  0  0  0  0
  186.4490  177.9200  146.1230 C   0  0  2  0  0  3  0  0  0  0  0  0
  185.3780  178.2230  145.0530 C   0  0  2  0  0  0  0  0  0  0  0  0
  189.3760  177.8870  143.8620 N   0  0  0  0  0  2  0  0  0  0  0  0
  185.0130  177.0580  144.3730 O   0  0  0  0  0  1  0  0  0  0  0  0
  188.1550  178.0750  144.2440 C   0  0  0  0  0  0  0  0  0  0  0  0
  185.9260  179.2610  144.0690 C   0  0  0  0  0  2  0  0  0  0  0  0
  187.7220  177.5550  145.5080 N   0  0  0  0  0  2  0  0  0  0  0  0
  187.2020  178.8240  143.3490 C   0  0  2  0  0  3  0  0  0  0  0  0
  184.1430  178.8240  145.6990 C   0  0  0  0  0  1  0  0  0  0  0  0
  186.0060  176.8230  147.0830 C   0  0  0  0  0  2  0  0  0  0  0  0
  187.1000  176.3110  147.7850 O   0  0  0  0  0  1  0  0  0  0  0  0
  190.9440  170.4840  141.9780 S   0  0  0  0  0  0  0  0  0  0  0  0
  193.6380  170.8810  142.4270 C   0  0  0  0  0  3  0  0  0  0  0  0
  194.9140  169.8200  144.2020 C   0  0  0  0  0  0  0  0  0  0  0  0
  193.7500  169.1600  144.6240 C   0  0  0  0  0  3  0  0  0  0  0  0
  192.4810  170.2410  142.8690 C   0  0  0  0  0  0  0  0  0  0  0  0
  194.8590  170.6820  143.0870 C   0  0  0  0  0  0  0  0  0  0  0  0
  192.5370  169.3720  143.9620 C   0  0  0  0  0  3  0  0  0  0  0  0
  196.0570  169.5010  146.3230 N   0  0  0  0  0  1  0  0  0  0  0  0
  196.2170  169.5190  144.8740 C   0  0  0  0  0  2  0  0  0  0  0  0
  196.0870  171.3520  142.5480 C   0  0  0  0  0  2  0  0  0  0  0  0
  196.7820  170.4520  141.5490 C   0  0  0  0  0  2  0  0  0  0  0  0
  197.4760  171.2960  140.5000 C   0  0  0  0  0  2  0  0  0  0  0  0
  197.6160  172.6110  140.9690 O   0  0  0  0  0  0  0  0  0  0  0  0
  197.9180  175.6910  138.7860 C   0  0  0  0  0  1  0  0  0  0  0  0
  197.6730  174.8040  139.9640 C   0  0  0  0  0  0  0  0  0  0  0  0
  197.3550  175.3270  141.0660 O   0  0  0  0  0  0  0  0  0  0  0  0
  197.7800  173.3730  139.8570 N   0  0  0  0  0  0  0  0  0  0  0  0
  197.9360  172.7500  138.5370 C   0  0  0  0  0  2  0  0  0  0  0  0
  195.4570  172.4980  138.1310 C   0  0  0  0  0  1  0  0  0  0  0  0
  196.7740  173.0290  137.5760 C   0  0  2  0  0  3  0  0  0  0  0  0
  195.6740  173.9790  134.6550 C   0  0  0  0  0  2  0  0  0  0  0  0
  197.0810  173.7040  135.1760 C   0  0  0  0  0  2  0  0  0  0  0  0
  194.7280  172.9020  135.1630 C   0  0  0  0  0  2  0  0  0  0  0  0
  197.0440  172.5360  136.1480 C   0  0  2  0  0  3  0  0  0  0  0  0
  195.7110  171.4380  135.5760 S   0  0  0  0  0  0  0  0  0  0  0  0
  1  3  1  0  0  0  0
  2  1  2  0  0  0  0
  2 41  1  0  0  0  0
  4  8  1  0  0  0  0
  5  4  2  0  0  0  0
  5  1  1  0  0  0  0
  7  9  1  0  0  0  0
  8  6  2  0  0  0  0
  8  7  1  0  0  0  0
  9 10  1  0  0  0  0
 11 10  1  0  0  0  0
 11 13  1  0  0  0  0
 13 12  1  0  0  0  0
 14  2  1  0  0  0  0
 15 14  1  0  0  0  0
 16 15  1  0  0  0  0
 18 17  1  6  0  0  0
 18 19  1  0  0  0  0
 18 16  1  0  0  0  0
 19 20  1  0  0  0  0
 20 21  1  6  0  0  0
 20 23  1  0  0  0  0
 22 24  1  0  0  0  0
 23 22  2  0  0  0  0
 24 29  1  0  0  0  0
 25 26  1  0  0  0  0
 26 28  2  0  0  0  0
 27 28  1  0  0  0  0
 29 25  1  0  0  0  0
 29 27  1  0  0  0  0
 30 39  1  1  0  0  0
 31 38  1  1  0  0  0
 31 30  1  0  0  0  0
 32 34  2  0  0  0  0
 33 31  1  0  0  0  0
 34 36  1  0  0  0  0
 35 31  1  0  0  0  0
 36 30  1  0  0  0  0
 37 28  1  6  0  0  0
 37 35  1  0  0  0  0
 37 34  1  0  0  0  0
 39 40  1  0  0  0  0
 41 45  1  0  0  0  0
 42 45  2  0  0  0  0
 42 46  1  0  0  0  0
 43 44  1  0  0  0  0
 43 49  1  0  0  0  0
 45 47  1  0  0  0  0
 46 43  2  0  0  0  0
 47 44  2  0  0  0  0
 49 48  1  0  0  0  0
 50 46  1  0  0  0  0
 51 50  1  0  0  0  0
 52 53  1  0  0  0  0
 52 51  1  0  0  0  0
 54 55  1  0  0  0  0
 55 56  2  0  0  0  0
 57 55  1  0  0  0  0
 57 53  1  0  0  0  0
 58 57  1  0  0  0  0
 60 59  1  1  0  0  0
 60 58  1  0  0  0  0
 61 63  1  0  0  0  0
 61 62  1  0  0  0  0
 62 64  1  0  0  0  0
 63 65  1  0  0  0  0
 64 60  1  1  0  0  0
 65 64  1  0  0  0  0
M  END
>  <MODEL>
7

>  <REMARK>
 VINA RESULT:      -3.6      2.874      9.558
  Name = 
  28 active torsions:
  status: ('A' for Active; 'I' for Inactive)
    1  A    between atoms: C_3  and  CA_18
    2  A    between atoms: N_6  and  C_13
    3  A    between atoms: C_7  and  N_57
    4  A    between atoms: C_7  and  C_65
    5  A    between atoms: C_10  and  C_46
    6  A    between atoms: C_13  and  N_53
    7  A    between atoms: C_14  and  C_56
    8  A    between atoms: C_15  and  C_19
    9  A    between atoms: C_20  and  S_23
   10  A    between atoms: C_21  and  C_33
   11  A    between atoms: C_21  and  C_52
   12  A    between atoms: S_23  and  C_61
   13  A    between atoms: O_24  and  C_47
   14  A    between atoms: O_24  and  C_61
   15  A    between atoms: N_27  and  C_33
   16  A    between atoms: C_30  and  C_32
   17  A    between atoms: C_30  and  C_35
   18  A    between atoms: C_32  and  C_40
   19  A    between atoms: C_34  and  C_37
   20  A    between atoms: C_34  and  C_42
   21  A    between atoms: C_35  and  C_47
   22  A    between atoms: C_37  and  C_51
   23  A    between atoms: C_38  and  C_58
   24  A    between atoms: C_40  and  N_49
   25  A    between atoms: O_48  and  C_52
   26  A    between atoms: C_50  and  C_65
   27  A    between atoms: C_51  and  O_60
   28  A    between atoms: N_57  and  O_60
                            x       y       z     vdW  Elec       q    Type
                         _______ _______ _______ _____ _____    ______ ____

>  <TORSDO>
F 28

$$$$
=
 OpenBabel11042416383D

 65 68  0  0  1  0  0  0  0  0999 V2000
  193.2800  176.0050  144.8260 C   0  0  0  0  0  0  0  0  0  0  0  0
  192.7880  175.1780  143.8850 C   0  0  0  0  0  0  0  0  0  0  0  0
  193.3820  177.3680  144.5560 O   0  0  0  0  0  1  0  0  0  0  0  0
  194.7140  174.6980  146.4290 C   0  0  0  0  0  3  0  0  0  0  0  0
  193.6970  175.5210  146.1510 C   0  0  0  0  0  3  0  0  0  0  0  0
  195.8490  174.5430  144.3770 O   0  0  0  0  0  0  0  0  0  0  0  0
  196.1940  172.7360  145.8120 N   0  0  0  0  0  2  0  0  0  0  0  0
  195.5820  173.9850  145.4760 C   0  0  0  0  0  0  0  0  0  0  0  0
  197.1450  172.0810  144.9250 C   0  0  0  0  0  2  0  0  0  0  0  0
  196.4130  171.0690  144.0610 C   0  0  0  0  0  2  0  0  0  0  0  0
  196.5090  169.6900  144.6910 C   0  0  0  0  0  2  0  0  0  0  0  0
  194.5990  169.7850  143.6010 C   0  0  0  0  0  1  0  0  0  0  0  0
  195.4300  168.9060  144.2930 O   0  0  0  0  0  0  0  0  0  0  0  0
  192.6890  173.7860  144.0410 O   0  0  0  0  0  0  0  0  0  0  0  0
  192.1720  172.9020  143.0600 C   0  0  0  0  0  2  0  0  0  0  0  0
  190.8730  172.2920  143.5490 C   0  0  0  0  0  2  0  0  0  0  0  0
  190.4300  171.0930  141.4300 C   0  0  0  0  0  1  0  0  0  0  0  0
  189.9070  172.1350  142.3940 C   0  0  2  0  0  3  0  0  0  0  0  0
  189.7350  173.4530  141.6700 C   0  0  0  0  0  2  0  0  0  0  0  0
  188.3090  173.6240  141.1720 C   0  0  1  0  0  3  0  0  0  0  0  0
  187.3670  173.5840  142.3610 C   0  0  0  0  0  1  0  0  0  0  0  0
  187.1740  175.5810  140.6540 N   0  0  0  0  0  0  0  0  0  0  0  0
  188.2050  174.9020  140.5200 N   0  0  0  0  0  0  0  0  0  0  0  0
  187.0120  176.8200  139.9340 C   0  0  0  0  0  2  0  0  0  0  0  0
  185.5220  177.2330  141.7120 C   0  0  0  0  0  2  0  0  0  0  0  0
  186.0120  177.3950  143.0750 N   0  0  0  0  0  0  0  0  0  0  0  0
  187.5250  178.2740  141.6870 N   0  0  0  0  0  2  0  0  0  0  0  0
  187.1540  177.9740  143.0110 C   0  0  0  0  0  0  0  0  0  0  0  0
  186.5030  177.8720  140.8140 N   0  0  0  0  0  0  0  0  0  0  0  0
  188.7480  176.6810  146.5280 C   0  0  2  0  0  3  0  0  0  0  0  0
  187.2660  176.9260  146.1750 C   0  0  2  0  0  0  0  0  0  0  0  0
  190.2040  178.0420  143.4120 N   0  0  0  0  0  2  0  0  0  0  0  0
  186.7800  175.9120  145.3420 O   0  0  0  0  0  1  0  0  0  0  0  0
  189.3040  177.7760  144.3020 C   0  0  0  0  0  0  0  0  0  0  0  0
  187.1270  178.2870  145.4870 C   0  0  0  0  0  2  0  0  0  0  0  0
  189.6060  176.8560  145.3590 N   0  0  0  0  0  2  0  0  0  0  0  0
  187.9460  178.4230  144.2030 C   0  0  2  0  0  3  0  0  0  0  0  0
  186.4230  176.9710  147.4370 C   0  0  0  0  0  1  0  0  0  0  0  0
  188.9740  175.2990  147.1310 C   0  0  0  0  0  2  0  0  0  0  0  0
  189.8130  174.5370  146.3150 O   0  0  0  0  0  1  0  0  0  0  0  0
  192.2370  175.8470  142.3090 S   0  0  0  0  0  0  0  0  0  0  0  0
  194.1390  174.5150  140.8190 C   0  0  0  0  0  3  0  0  0  0  0  0
  196.4040  175.3080  140.4430 C   0  0  0  0  0  0  0  0  0  0  0  0
  196.1180  176.4450  141.2130 C   0  0  0  0  0  3  0  0  0  0  0  0
  193.8550  175.6600  141.5620 C   0  0  0  0  0  0  0  0  0  0  0  0
  195.4080  174.3290  140.2500 C   0  0  0  0  0  0  0  0  0  0  0  0
  194.8480  176.6210  141.7690 C   0  0  0  0  0  3  0  0  0  0  0  0
  197.9340  175.6680  138.5880 N   0  0  0  0  0  1  0  0  0  0  0  0
  197.7930  175.0990  139.9230 C   0  0  0  0  0  2  0  0  0  0  0  0
  195.6820  173.0610  139.5000 C   0  0  0  0  0  2  0  0  0  0  0  0
  195.8210  171.9000  140.4630 C   0  0  0  0  0  2  0  0  0  0  0  0
  195.3150  170.6320  139.8060 C   0  0  0  0  0  2  0  0  0  0  0  0
  194.6480  170.9520  138.6140 O   0  0  0  0  0  0  0  0  0  0  0  0
  191.9690  168.3880  139.3830 C   0  0  0  0  0  1  0  0  0  0  0  0
  193.3030  169.0260  139.1670 C   0  0  0  0  0  0  0  0  0  0  0  0
  194.3450  168.3430  139.3600 O   0  0  0  0  0  0  0  0  0  0  0  0
  193.4160  170.3930  138.7320 N   0  0  0  0  0  0  0  0  0  0  0  0
  192.2160  171.1220  138.2990 C   0  0  0  0  0  2  0  0  0  0  0  0
  192.0290  173.4290  137.2920 C   0  0  0  0  0  1  0  0  0  0  0  0
  192.4270  171.9780  137.0440 C   0  0  2  0  0  3  0  0  0  0  0  0
  189.3080  171.7500  136.1150 C   0  0  0  0  0  2  0  0  0  0  0  0
  190.5560  172.2400  135.3880 C   0  0  0  0  0  2  0  0  0  0  0  0
  189.6400  170.4840  136.8900 C   0  0  0  0  0  2  0  0  0  0  0  0
  191.7500  171.3930  135.7990 C   0  0  2  0  0  3  0  0  0  0  0  0
  191.1000  169.7270  136.1330 S   0  0  0  0  0  0  0  0  0  0  0  0
  1  5  1  0  0  0  0
  2 14  1  0  0  0  0
  2  1  2  0  0  0  0
  3  1  1  0  0  0  0
  5  4  2  0  0  0  0
  6  8  2  0  0  0  0
  8  7  1  0  0  0  0
  8  4  1  0  0  0  0
  9  7  1  0  0  0  0
 10 11  1  0  0  0  0
 10  9  1  0  0  0  0
 12 13  1  0  0  0  0
 13 11  1  0  0  0  0
 15 16  1  0  0  0  0
 15 14  1  0  0  0  0
 18 17  1  6  0  0  0
 18 16  1  0  0  0  0
 19 18  1  0  0  0  0
 20 19  1  0  0  0  0
 20 21  1  1  0  0  0
 23 22  2  0  0  0  0
 23 20  1  0  0  0  0
 24 22  1  0  0  0  0
 24 29  1  0  0  0  0
 25 26  1  0  0  0  0
 27 28  1  0  0  0  0
 28 26  2  0  0  0  0
 29 27  1  0  0  0  0
 29 25  1  0  0  0  0
 30 39  1  6  0  0  0
 31 30  1  0  0  0  0
 31 38  1  1  0  0  0
 32 34  2  0  0  0  0
 33 31  1  0  0  0  0
 34 36  1  0  0  0  0
 35 31  1  0  0  0  0
 36 30  1  0  0  0  0
 37 28  1  6  0  0  0
 37 34  1  0  0  0  0
 37 35  1  0  0  0  0
 40 39  1  0  0  0  0
 41  2  1  0  0  0  0
 42 45  1  0  0  0  0
 43 44  2  0  0  0  0
 44 47  1  0  0  0  0
 45 47  2  0  0  0  0
 45 41  1  0  0  0  0
 46 43  1  0  0  0  0
 46 42  2  0  0  0  0
 48 49  1  0  0  0  0
 49 43  1  0  0  0  0
 50 46  1  0  0  0  0
 50 51  1  0  0  0  0
 52 51  1  0  0  0  0
 53 57  1  0  0  0  0
 53 52  1  0  0  0  0
 55 56  2  0  0  0  0
 55 54  1  0  0  0  0
 57 55  1  0  0  0  0
 58 57  1  0  0  0  0
 60 59  1  1  0  0  0
 60 58  1  0  0  0  0
 61 63  1  0  0  0  0
 62 64  1  0  0  0  0
 62 61  1  0  0  0  0
 64 65  1  0  0  0  0
 64 60  1  1  0  0  0
 65 63  1  0  0  0  0
M  END
>  <MODEL>
8

>  <REMARK>
 VINA RESULT:      -3.6      2.813      9.251
  Name = 
  28 active torsions:
  status: ('A' for Active; 'I' for Inactive)
    1  A    between atoms: C_3  and  CA_18
    2  A    between atoms: N_6  and  C_13
    3  A    between atoms: C_7  and  N_57
    4  A    between atoms: C_7  and  C_65
    5  A    between atoms: C_10  and  C_46
    6  A    between atoms: C_13  and  N_53
    7  A    between atoms: C_14  and  C_56
    8  A    between atoms: C_15  and  C_19
    9  A    between atoms: C_20  and  S_23
   10  A    between atoms: C_21  and  C_33
   11  A    between atoms: C_21  and  C_52
   12  A    between atoms: S_23  and  C_61
   13  A    between atoms: O_24  and  C_47
   14  A    between atoms: O_24  and  C_61
   15  A    between atoms: N_27  and  C_33
   16  A    between atoms: C_30  and  C_32
   17  A    between atoms: C_30  and  C_35
   18  A    between atoms: C_32  and  C_40
   19  A    between atoms: C_34  and  C_37
   20  A    between atoms: C_34  and  C_42
   21  A    between atoms: C_35  and  C_47
   22  A    between atoms: C_37  and  C_51
   23  A    between atoms: C_38  and  C_58
   24  A    between atoms: C_40  and  N_49
   25  A    between atoms: O_48  and  C_52
   26  A    between atoms: C_50  and  C_65
   27  A    between atoms: C_51  and  O_60
   28  A    between atoms: N_57  and  O_60
                            x       y       z     vdW  Elec       q    Type
                         _______ _______ _______ _____ _____    ______ ____

>  <TORSDO>
F 28

$$$$
=
 OpenBabel11042416383D

 65 68  0  0  1  0  0  0  0  0999 V2000
  186.7860  177.8180  143.1740 C   0  0  0  0  0  0  0  0  0  0  0  0
  188.0880  177.9600  143.4870 C   0  0  0  0  0  0  0  0  0  0  0  0
  186.4230  177.5370  141.8590 O   0  0  0  0  0  1  0  0  0  0  0  0
  184.4090  178.0470  143.9710 C   0  0  0  0  0  3  0  0  0  0  0  0
  185.7250  177.9260  144.1860 C   0  0  0  0  0  3  0  0  0  0  0  0
  184.1130  177.5400  141.6960 O   0  0  0  0  0  0  0  0  0  0  0  0
  182.5730  179.0660  142.5550 N   0  0  0  0  0  2  0  0  0  0  0  0
  183.7210  178.2220  142.6820 C   0  0  0  0  0  0  0  0  0  0  0  0
  181.8150  179.1560  141.3160 C   0  0  0  0  0  2  0  0  0  0  0  0
  181.0890  177.8450  141.0730 C   0  0  0  0  0  2  0  0  0  0  0  0
  179.7230  177.8820  141.7360 C   0  0  0  0  0  2  0  0  0  0  0  0
  178.1050  179.0940  142.6030 C   0  0  0  0  0  1  0  0  0  0  0  0
  179.3280  179.2000  141.9450 O   0  0  0  0  0  0  0  0  0  0  0  0
  188.5540  178.2890  144.7690 O   0  0  0  0  0  0  0  0  0  0  0  0
  188.9350  177.3420  145.7540 C   0  0  0  0  0  2  0  0  0  0  0  0
  190.3850  177.5590  146.1430 C   0  0  0  0  0  2  0  0  0  0  0  0
  190.3800  175.5250  147.5530 C   0  0  0  0  0  1  0  0  0  0  0  0
  191.0580  176.2270  146.3970 C   0  0  2  0  0  3  0  0  0  0  0  0
  192.5230  176.4310  146.7180 C   0  0  0  0  0  2  0  0  0  0  0  0
  193.4100  175.6490  145.7620 C   0  0  1  0  0  3  0  0  0  0  0  0
  193.3370  174.1760  146.1210 C   0  0  0  0  0  1  0  0  0  0  0  0
  193.2770  175.0720  143.5190 N   0  0  0  0  0  0  0  0  0  0  0  0
  192.9190  175.8430  144.4240 N   0  0  0  0  0  0  0  0  0  0  0  0
  192.8720  175.3050  142.1540 C   0  0  0  0  0  2  0  0  0  0  0  0
  194.6810  176.6280  141.4250 C   0  0  0  0  0  2  0  0  0  0  0  0
  196.0310  176.3860  141.9180 N   0  0  0  0  0  0  0  0  0  0  0  0
  194.9920  174.4160  141.7490 N   0  0  0  0  0  2  0  0  0  0  0  0
  196.1560  175.1240  142.1020 C   0  0  0  0  0  0  0  0  0  0  0  0
  194.0310  175.3140  141.2600 N   0  0  0  0  0  0  0  0  0  0  0  0
  197.6410  171.7740  143.8790 C   0  0  2  0  0  3  0  0  0  0  0  0
  196.9050  172.9650  144.5300 C   0  0  2  0  0  0  0  0  0  0  0  0
  197.9370  173.2070  140.4810 N   0  0  0  0  0  2  0  0  0  0  0  0
  195.5380  172.9200  144.2430 O   0  0  0  0  0  1  0  0  0  0  0  0
  197.6960  173.1660  141.7520 C   0  0  0  0  0  0  0  0  0  0  0  0
  197.5110  174.2750  144.0180 C   0  0  0  0  0  2  0  0  0  0  0  0
  197.6650  171.9000  142.4240 N   0  0  0  0  0  2  0  0  0  0  0  0
  197.4350  174.4470  142.5010 C   0  0  2  0  0  3  0  0  0  0  0  0
  197.0930  172.9400  146.0360 C   0  0  0  0  0  1  0  0  0  0  0  0
  197.0260  170.4360  144.2710 C   0  0  0  0  0  2  0  0  0  0  0  0
  196.6020  169.7390  143.1380 O   0  0  0  0  0  1  0  0  0  0  0  0
  189.3390  177.7500  142.2120 S   0  0  0  0  0  0  0  0  0  0  0  0
  189.0000  175.1800  141.2690 C   0  0  0  0  0  3  0  0  0  0  0  0
  189.2440  173.1710  142.6150 C   0  0  0  0  0  0  0  0  0  0  0  0
  189.5520  173.9700  143.7250 C   0  0  0  0  0  3  0  0  0  0  0  0
  189.3330  175.9650  142.3720 C   0  0  0  0  0  0  0  0  0  0  0  0
  188.9560  173.7820  141.3760 C   0  0  0  0  0  0  0  0  0  0  0  0
  189.5990  175.3620  143.6040 C   0  0  0  0  0  3  0  0  0  0  0  0
  190.3220  171.0150  142.3060 N   0  0  0  0  0  1  0  0  0  0  0  0
  189.1210  171.6880  142.7840 C   0  0  0  0  0  2  0  0  0  0  0  0
  188.5470  172.9800  140.1780 C   0  0  0  0  0  2  0  0  0  0  0  0
  189.2770  173.4680  138.9450 C   0  0  0  0  0  2  0  0  0  0  0  0
  189.7420  172.2800  138.1260 C   0  0  0  0  0  2  0  0  0  0  0  0
  190.2060  172.7200  136.8770 O   0  0  0  0  0  0  0  0  0  0  0  0
  192.6370  170.2410  135.3640 C   0  0  0  0  0  1  0  0  0  0  0  0
  191.3760  170.9750  135.6900 C   0  0  0  0  0  0  0  0  0  0  0  0
  190.3090  170.6450  135.1060 O   0  0  0  0  0  0  0  0  0  0  0  0
  191.3590  172.0360  136.6620 N   0  0  0  0  0  0  0  0  0  0  0  0
  192.5430  172.2780  137.4970 C   0  0  0  0  0  2  0  0  0  0  0  0
  193.2970  173.9350  135.7480 C   0  0  0  0  0  1  0  0  0  0  0  0
  193.2200  173.6300  137.2400 C   0  0  2  0  0  3  0  0  0  0  0  0
  196.2760  173.7800  136.1090 C   0  0  0  0  0  2  0  0  0  0  0  0
  195.5170  174.6390  137.1160 C   0  0  0  0  0  2  0  0  0  0  0  0
  195.9600  172.3130  136.3570 C   0  0  0  0  0  2  0  0  0  0  0  0
  194.5830  173.7590  137.9320 C   0  0  2  0  0  3  0  0  0  0  0  0
  195.3990  172.1390  138.0690 S   0  0  0  0  0  0  0  0  0  0  0  0
  1  2  2  0  0  0  0
  1  5  1  0  0  0  0
  2 14  1  0  0  0  0
  3  1  1  0  0  0  0
  4  5  2  0  0  0  0
  6  8  2  0  0  0  0
  7  8  1  0  0  0  0
  8  4  1  0  0  0  0
  9  7  1  0  0  0  0
 10  9  1  0  0  0  0
 10 11  1  0  0  0  0
 11 13  1  0  0  0  0
 13 12  1  0  0  0  0
 14 15  1  0  0  0  0
 15 16  1  0  0  0  0
 16 18  1  0  0  0  0
 18 19  1  0  0  0  0
 18 17  1  1  0  0  0
 20 21  1  1  0  0  0
 20 19  1  0  0  0  0
 22 23  2  0  0  0  0
 23 20  1  0  0  0  0
 24 22  1  0  0  0  0
 25 26  1  0  0  0  0
 26 28  2  0  0  0  0
 27 28  1  0  0  0  0
 29 25  1  0  0  0  0
 29 27  1  0  0  0  0
 29 24  1  0  0  0  0
 30 39  1  6  0  0  0
 30 31  1  0  0  0  0
 31 38  1  1  0  0  0
 32 34  2  0  0  0  0
 33 31  1  0  0  0  0
 34 36  1  0  0  0  0
 34 37  1  0  0  0  0
 35 31  1  0  0  0  0
 36 30  1  0  0  0  0
 37 28  1  1  0  0  0
 37 35  1  0  0  0  0
 40 39  1  0  0  0  0
 41 45  1  0  0  0  0
 41  2  1  0  0  0  0
 42 46  2  0  0  0  0
 42 45  1  0  0  0  0
 43 49  1  0  0  0  0
 43 44  2  0  0  0  0
 45 47  2  0  0  0  0
 46 43  1  0  0  0  0
 47 44  1  0  0  0  0
 48 49  1  0  0  0  0
 50 46  1  0  0  0  0
 51 50  1  0  0  0  0
 52 51  1  0  0  0  0
 53 52  1  0  0  0  0
 54 55  1  0  0  0  0
 55 57  1  0  0  0  0
 56 55  2  0  0  0  0
 57 53  1  0  0  0  0
 57 58  1  0  0  0  0
 60 59  1  6  0  0  0
 60 58  1  0  0  0  0
 61 63  1  0  0  0  0
 61 62  1  0  0  0  0
 62 64  1  0  0  0  0
 63 65  1  0  0  0  0
 64 60  1  6  0  0  0
 64 65  1  0  0  0  0
M  END
>  <MODEL>
9

>  <REMARK>
 VINA RESULT:      -3.6      2.094      3.273
  Name = 
  28 active torsions:
  status: ('A' for Active; 'I' for Inactive)
    1  A    between atoms: C_3  and  CA_18
    2  A    between atoms: N_6  and  C_13
    3  A    between atoms: C_7  and  N_57
    4  A    between atoms: C_7  and  C_65
    5  A    between atoms: C_10  and  C_46
    6  A    between atoms: C_13  and  N_53
    7  A    between atoms: C_14  and  C_56
    8  A    between atoms: C_15  and  C_19
    9  A    between atoms: C_20  and  S_23
   10  A    between atoms: C_21  and  C_33
   11  A    between atoms: C_21  and  C_52
   12  A    between atoms: S_23  and  C_61
   13  A    between atoms: O_24  and  C_47
   14  A    between atoms: O_24  and  C_61
   15  A    between atoms: N_27  and  C_33
   16  A    between atoms: C_30  and  C_32
   17  A    between atoms: C_30  and  C_35
   18  A    between atoms: C_32  and  C_40
   19  A    between atoms: C_34  and  C_37
   20  A    between atoms: C_34  and  C_42
   21  A    between atoms: C_35  and  C_47
   22  A    between atoms: C_37  and  C_51
   23  A    between atoms: C_38  and  C_58
   24  A    between atoms: C_40  and  N_49
   25  A    between atoms: O_48  and  C_52
   26  A    between atoms: C_50  and  C_65
   27  A    between atoms: C_51  and  O_60
   28  A    between atoms: N_57  and  O_60
                            x       y       z     vdW  Elec       q    Type
                         _______ _______ _______ _____ _____    ______ ____

>  <TORSDO>
F 28

$$$$
