=
 OpenBabel11042419583D

 41 43  0  0  1  0  0  0  0  0999 V2000
  188.5790  177.6740  143.2870 N   0  0  0  0  0  0  0  0  0  0  0  0
  190.6320  172.0840  143.9900 C   0  0  0  0  0  1  0  0  0  0  0  0
  190.0730  173.4610  144.0050 C   0  0  0  0  0  0  0  0  0  0  0  0
  189.7860  174.0620  145.1090 C   0  0  0  0  0  0  0  0  0  0  0  0
  189.3500  174.9810  145.9050 C   0  0  0  0  0  0  0  0  0  0  0  0
  188.5730  175.9220  141.7060 N   0  0  0  0  0  0  0  0  0  0  0  0
  189.6710  174.1170  142.7950 N   0  0  0  0  0  2  0  0  0  0  0  0
  188.6000  176.1010  145.2080 C   0  0  2  0  0  3  0  0  0  0  0  0
  188.1880  177.3030  141.9210 C   0  0  0  0  0  3  0  0  0  0  0  0
  189.2470  176.4970  143.8450 C   0  0  1  0  0  3  0  0  0  0  0  0
  189.1290  175.4590  142.7610 C   0  0  0  0  0  0  0  0  0  0  0  0
  189.8070  175.0530  147.3260 C   0  0  0  0  0  2  0  0  0  0  0  0
  191.3250  175.0920  147.3910 C   0  0  0  0  0  2  0  0  0  0  0  0
  191.8310  176.5050  147.1550 C   0  0  0  0  0  2  0  0  0  0  0  0
  194.8990  177.5250  145.3570 N   0  0  0  0  0  1  0  0  0  0  0  0
  193.6410  175.4350  145.8540 C   0  0  2  0  0  3  0  0  0  0  0  0
  193.5830  176.9120  145.4520 C   0  0  1  0  0  3  0  0  0  0  0  0
  193.3250  176.4960  146.8860 C   0  0  1  0  0  3  0  0  0  0  0  0
  195.0450  174.8950  146.1020 C   0  0  0  0  0  2  0  0  0  0  0  0
  195.1260  173.4200  145.7270 C   0  0  1  0  0  3  0  0  0  0  0  0
  193.7440  172.9870  145.2660 C   0  0  0  0  0  1  0  0  0  0  0  0
  196.1720  173.1770  144.6260 C   0  0  1  0  0  3  0  0  0  0  0  0
  196.9430  175.1740  143.2510 C   0  0  0  0  0  0  0  0  0  0  0  0
  197.6780  176.1940  143.1680 O   0  0  0  0  0  0  0  0  0  0  0  0
  196.9910  174.3700  144.4330 N   0  0  0  0  0  2  0  0  0  0  0  0
  196.0040  174.8490  142.1310 C   0  0  0  0  0  2  0  0  0  0  0  0
  194.7920  176.6830  141.0740 N   0  0  0  0  0  1  0  0  0  0  0  0
  194.7680  175.7340  142.1740 C   0  0  1  0  0  3  0  0  0  0  0  0
  193.5310  174.8690  142.0620 C   0  0  0  0  0  1  0  0  0  0  0  0
  197.0710  172.0280  144.9780 C   0  0  0  0  0  3  0  0  0  0  0  0
  196.8310  171.2740  146.0490 C   0  0  0  0  0  2  0  0  0  0  0  0
  188.4950  177.2650  146.0770 N   0  0  0  0  0  2  0  0  0  0  0  0
  187.2490  177.1300  146.8120 C   0  0  0  0  0  2  0  0  0  0  0  0
  185.9860  178.9550  147.6590 O   0  0  0  0  0  0  0  0  0  0  0  0
  186.4330  178.3590  146.6420 C   0  0  0  0  0  0  0  0  0  0  0  0
  186.1450  178.8190  145.3540 O   0  0  0  0  0  0  0  0  0  0  0  0
  184.8180  178.8720  144.8450 C   0  0  0  0  0  2  0  0  0  0  0  0
  185.5090  176.8090  143.8510 F   0  0  0  0  0  0  0  0  0  0  0  0
  184.6470  177.8830  143.7000 C   0  0  2  0  0  3  0  0  0  0  0  0
  184.9130  178.5700  142.3710 C   0  0  0  0  0  2  0  0  0  0  0  0
  184.7050  177.6920  141.3210 F   0  0  0  0  0  0  0  0  0  0  0  0
  1 10  1  0  0  0  0
  2  3  1  0  0  0  0
  3  4  2  0  0  0  0
  4  5  2  0  0  0  0
  5 12  1  0  0  0  0
  6  9  1  0  0  0  0
  6 11  2  0  0  0  0
  7  3  1  0  0  0  0
  8  5  1  0  0  0  0
  8 32  1  1  0  0  0
  9  1  2  0  0  0  0
 10 11  1  6  0  0  0
 10  8  1  0  0  0  0
 11  7  1  0  0  0  0
 12 13  1  0  0  0  0
 14 13  1  0  0  0  0
 16 19  1  1  0  0  0
 16 18  1  0  0  0  0
 17 15  1  1  0  0  0
 17 16  1  0  0  0  0
 17 18  1  0  0  0  0
 18 14  1  6  0  0  0
 20 21  1  6  0  0  0
 20 19  1  0  0  0  0
 22 30  1  1  0  0  0
 22 20  1  0  0  0  0
 23 25  1  0  0  0  0
 24 23  2  0  0  0  0
 25 22  1  0  0  0  0
 26 28  1  0  0  0  0
 26 23  1  0  0  0  0
 27 28  1  0  0  0  0
 28 29  1  6  0  0  0
 30 31  2  0  0  0  0
 32 33  1  0  0  0  0
 35 33  1  0  0  0  0
 35 34  2  0  0  0  0
 36 35  1  0  0  0  0
 37 36  1  0  0  0  0
 39 38  1  1  0  0  0
 39 37  1  0  0  0  0
 40 39  1  0  0  0  0
 41 40  1  0  0  0  0
M  END
>  <MODEL>
1

>  <REMARK>
 VINA RESULT:      -6.4      0.000      0.000
  Name = 
  18 active torsions:
  status: ('A' for Active; 'I' for Inactive)
    1  A    between atoms: C_4  and  C_28
    2  A    between atoms: C_4  and  C_34
    3  A    between atoms: C_5  and  C_7
    4  A    between atoms: C_7  and  N_16
    5  A    between atoms: C_7  and  C_31
    6  A    between atoms: C_8  and  C_18
    7  A    between atoms: C_8  and  C_28
    8  A    between atoms: C_9  and  C_14
    9  A    between atoms: C_10  and  C_25
   10  A    between atoms: C_14  and  C_30
   11  A    between atoms: C_20  and  C_39
   12  A    between atoms: C_22  and  N_32
   13  A    between atoms: C_22  and  C_38
   14  A    between atoms: C_25  and  C_31
   15  A    between atoms: C_26  and  N_32
   16  A    between atoms: O_27  and  C_33
   17  A    between atoms: O_27  and  C_38
   18  A    between atoms: C_33  and  C_39
                            x       y       z     vdW  Elec       q    Type
                         _______ _______ _______ _____ _____    ______ ____

>  <TORSDO>
F 18

$$$$
=
 OpenBabel11042419583D

 41 43  0  0  1  0  0  0  0  0999 V2000
  186.2040  178.8180  146.2530 N   0  0  0  0  0  0  0  0  0  0  0  0
  183.3900  178.2470  140.9900 C   0  0  0  0  0  1  0  0  0  0  0  0
  184.2280  178.2780  142.2160 C   0  0  0  0  0  0  0  0  0  0  0  0
  185.4550  177.8790  142.2060 C   0  0  0  0  0  0  0  0  0  0  0  0
  186.6290  177.5770  142.6500 C   0  0  0  0  0  0  0  0  0  0  0  0
  183.8800  178.6940  145.8620 N   0  0  0  0  0  0  0  0  0  0  0  0
  183.6660  178.5910  143.4970 N   0  0  0  0  0  2  0  0  0  0  0  0
  186.7430  177.5900  144.1630 C   0  0  2  0  0  3  0  0  0  0  0  0
  184.8870  178.8080  146.9000 C   0  0  0  0  0  3  0  0  0  0  0  0
  185.9440  178.7610  144.8140 C   0  0  1  0  0  3  0  0  0  0  0  0
  184.4460  178.6390  144.7160 C   0  0  0  0  0  0  0  0  0  0  0  0
  187.8090  177.5130  141.7350 C   0  0  0  0  0  2  0  0  0  0  0  0
  187.7150  176.2880  140.8380 C   0  0  0  0  0  2  0  0  0  0  0  0
  187.6610  175.0210  141.6740 C   0  0  0  0  0  2  0  0  0  0  0  0
  190.2740  172.9700  140.0440 N   0  0  0  0  0  1  0  0  0  0  0  0
  188.7920  172.8540  142.0410 C   0  0  2  0  0  3  0  0  0  0  0  0
  188.9350  173.2130  140.5590 C   0  0  1  0  0  3  0  0  0  0  0  0
  188.9920  174.2930  141.6200 C   0  0  1  0  0  3  0  0  0  0  0  0
  190.0680  172.3410  142.7010 C   0  0  0  0  0  2  0  0  0  0  0  0
  190.5270  173.2970  143.7950 C   0  0  1  0  0  3  0  0  0  0  0  0
  189.9540  172.7980  145.1110 C   0  0  0  0  0  1  0  0  0  0  0  0
  192.0620  173.3800  143.8610 C   0  0  1  0  0  3  0  0  0  0  0  0
  193.7730  171.9940  145.1370 C   0  0  0  0  0  0  0  0  0  0  0  0
  194.1850  170.8530  145.4720 O   0  0  0  0  0  0  0  0  0  0  0  0
  192.6200  172.1040  144.2960 N   0  0  0  0  0  2  0  0  0  0  0  0
  194.4680  173.2130  145.6590 C   0  0  0  0  0  2  0  0  0  0  0  0
  195.7400  174.8210  144.3380 N   0  0  0  0  0  1  0  0  0  0  0  0
  195.7570  173.4800  144.8970 C   0  0  1  0  0  3  0  0  0  0  0  0
  196.9320  173.3480  145.8420 C   0  0  0  0  0  1  0  0  0  0  0  0
  192.6430  173.7290  142.5230 C   0  0  0  0  0  3  0  0  0  0  0  0
  192.7150  174.9960  142.1170 C   0  0  0  0  0  2  0  0  0  0  0  0
  188.1400  177.6400  144.5720 N   0  0  0  0  0  2  0  0  0  0  0  0
  188.5010  176.2990  145.0000 C   0  0  0  0  0  2  0  0  0  0  0  0
  188.1110  175.4890  147.1980 O   0  0  0  0  0  0  0  0  0  0  0  0
  188.7470  176.2930  146.4640 C   0  0  0  0  0  0  0  0  0  0  0  0
  189.6580  177.2000  147.0120 O   0  0  0  0  0  0  0  0  0  0  0  0
  190.8780  176.7850  147.6120 C   0  0  0  0  0  2  0  0  0  0  0  0
  192.2510  174.8280  147.5230 F   0  0  0  0  0  0  0  0  0  0  0  0
  191.5760  175.7500  146.7400 C   0  0  2  0  0  3  0  0  0  0  0  0
  192.5520  176.4340  145.7960 C   0  0  0  0  0  2  0  0  0  0  0  0
  191.8830  176.9570  144.7030 F   0  0  0  0  0  0  0  0  0  0  0  0
  1  9  2  0  0  0  0
  2  3  1  0  0  0  0
  3  7  1  0  0  0  0
  4  3  2  0  0  0  0
  4  5  2  0  0  0  0
  5  8  1  0  0  0  0
  6  9  1  0  0  0  0
  7 11  1  0  0  0  0
  8 32  1  6  0  0  0
  8 10  1  0  0  0  0
 10 11  1  1  0  0  0
 10  1  1  0  0  0  0
 11  6  2  0  0  0  0
 12  5  1  0  0  0  0
 13 14  1  0  0  0  0
 13 12  1  0  0  0  0
 16 19  1  1  0  0  0
 17 15  1  1  0  0  0
 17 18  1  0  0  0  0
 17 16  1  0  0  0  0
 18 14  1  6  0  0  0
 18 16  1  0  0  0  0
 19 20  1  0  0  0  0
 20 22  1  0  0  0  0
 20 21  1  1  0  0  0
 22 30  1  6  0  0  0
 22 25  1  0  0  0  0
 23 24  2  0  0  0  0
 23 26  1  0  0  0  0
 25 23  1  0  0  0  0
 27 28  1  0  0  0  0
 28 26  1  0  0  0  0
 28 29  1  1  0  0  0
 31 30  2  0  0  0  0
 32 33  1  0  0  0  0
 33 35  1  0  0  0  0
 35 36  1  0  0  0  0
 35 34  2  0  0  0  0
 36 37  1  0  0  0  0
 39 38  1  1  0  0  0
 39 37  1  0  0  0  0
 40 39  1  0  0  0  0
 41 40  1  0  0  0  0
M  END
>  <MODEL>
2

>  <REMARK>
 VINA RESULT:      -6.3      2.837      6.096
  Name = 
  18 active torsions:
  status: ('A' for Active; 'I' for Inactive)
    1  A    between atoms: C_4  and  C_28
    2  A    between atoms: C_4  and  C_34
    3  A    between atoms: C_5  and  C_7
    4  A    between atoms: C_7  and  N_16
    5  A    between atoms: C_7  and  C_31
    6  A    between atoms: C_8  and  C_18
    7  A    between atoms: C_8  and  C_28
    8  A    between atoms: C_9  and  C_14
    9  A    between atoms: C_10  and  C_25
   10  A    between atoms: C_14  and  C_30
   11  A    between atoms: C_20  and  C_39
   12  A    between atoms: C_22  and  N_32
   13  A    between atoms: C_22  and  C_38
   14  A    between atoms: C_25  and  C_31
   15  A    between atoms: C_26  and  N_32
   16  A    between atoms: O_27  and  C_33
   17  A    between atoms: O_27  and  C_38
   18  A    between atoms: C_33  and  C_39
                            x       y       z     vdW  Elec       q    Type
                         _______ _______ _______ _____ _____    ______ ____

>  <TORSDO>
F 18

$$$$
=
 OpenBabel11042419583D

 41 43  0  0  1  0  0  0  0  0999 V2000
  189.8710  175.3500  147.5030 N   0  0  0  0  0  0  0  0  0  0  0  0
  192.6300  176.1970  142.2470 C   0  0  0  0  0  1  0  0  0  0  0  0
  191.8070  176.1050  143.4800 C   0  0  0  0  0  0  0  0  0  0  0  0
  190.5870  176.5240  143.5110 C   0  0  0  0  0  0  0  0  0  0  0  0
  189.4240  176.8180  143.9880 C   0  0  0  0  0  0  0  0  0  0  0  0
  192.1920  175.4590  147.0890 N   0  0  0  0  0  0  0  0  0  0  0  0
  192.3780  175.7040  144.7320 N   0  0  0  0  0  2  0  0  0  0  0  0
  189.3290  176.7140  145.4990 C   0  0  2  0  0  3  0  0  0  0  0  0
  191.1960  175.2980  148.1320 C   0  0  0  0  0  3  0  0  0  0  0  0
  190.1150  175.4920  146.0660 C   0  0  1  0  0  3  0  0  0  0  0  0
  191.6130  175.5940  145.9560 C   0  0  0  0  0  0  0  0  0  0  0  0
  188.2340  176.9580  143.0940 C   0  0  0  0  0  2  0  0  0  0  0  0
  187.7640  175.5910  142.6240 C   0  0  0  0  0  2  0  0  0  0  0  0
  188.1860  175.3500  141.1850 C   0  0  0  0  0  2  0  0  0  0  0  0
  189.3580  172.1990  139.6390 N   0  0  0  0  0  1  0  0  0  0  0  0
  188.4000  172.9660  141.8060 C   0  0  2  0  0  3  0  0  0  0  0  0
  188.3660  173.0520  140.2760 C   0  0  1  0  0  3  0  0  0  0  0  0
  189.0700  174.1190  141.0910 C   0  0  1  0  0  3  0  0  0  0  0  0
  189.4680  172.0350  142.3700 C   0  0  0  0  0  2  0  0  0  0  0  0
  190.2890  172.7480  143.4380 C   0  0  1  0  0  3  0  0  0  0  0  0
  189.8440  172.2170  144.7910 C   0  0  0  0  0  1  0  0  0  0  0  0
  191.7970  172.5240  143.2300 C   0  0  1  0  0  3  0  0  0  0  0  0
  193.7260  172.1000  144.8350 C   0  0  0  0  0  0  0  0  0  0  0  0
  194.1480  171.5090  145.8640 O   0  0  0  0  0  0  0  0  0  0  0  0
  192.3800  171.8790  144.4030 N   0  0  0  0  0  2  0  0  0  0  0  0
  194.6240  173.0550  144.1120 C   0  0  0  0  0  2  0  0  0  0  0  0
  196.9920  173.6380  144.0710 N   0  0  0  0  0  1  0  0  0  0  0  0
  195.8550  173.3890  144.9400 C   0  0  1  0  0  3  0  0  0  0  0  0
  195.5790  174.6260  145.7680 C   0  0  0  0  0  1  0  0  0  0  0  0
  192.0560  171.6640  142.0280 C   0  0  0  0  0  3  0  0  0  0  0  0
  192.7880  172.1140  141.0100 C   0  0  0  0  0  2  0  0  0  0  0  0
  187.9360  176.6630  145.9220 N   0  0  0  0  0  2  0  0  0  0  0  0
  187.6960  177.8500  146.7240 C   0  0  0  0  0  2  0  0  0  0  0  0
  185.8930  176.9380  147.9740 O   0  0  0  0  0  0  0  0  0  0  0  0
  186.2890  177.8530  147.2030 C   0  0  0  0  0  0  0  0  0  0  0  0
  185.4170  178.8520  146.7640 O   0  0  0  0  0  0  0  0  0  0  0  0
  184.2290  178.5580  146.0390 C   0  0  0  0  0  2  0  0  0  0  0  0
  185.0700  177.3880  144.1300 F   0  0  0  0  0  0  0  0  0  0  0  0
  184.4980  178.5810  144.5410 C   0  0  2  0  0  3  0  0  0  0  0  0
  185.4210  179.7380  144.1930 C   0  0  0  0  0  2  0  0  0  0  0  0
  186.0620  179.5020  142.9890 F   0  0  0  0  0  0  0  0  0  0  0  0
  1  9  2  0  0  0  0
  2  3  1  0  0  0  0
  3  4  2  0  0  0  0
  3  7  1  0  0  0  0
  4  5  2  0  0  0  0
  5  8  1  0  0  0  0
  6  9  1  0  0  0  0
  7 11  1  0  0  0  0
  8 32  1  6  0  0  0
  8 10  1  0  0  0  0
 10 11  1  1  0  0  0
 10  1  1  0  0  0  0
 11  6  2  0  0  0  0
 12  5  1  0  0  0  0
 13 12  1  0  0  0  0
 14 13  1  0  0  0  0
 16 19  1  6  0  0  0
 17 15  1  6  0  0  0
 17 18  1  0  0  0  0
 17 16  1  0  0  0  0
 18 14  1  1  0  0  0
 18 16  1  0  0  0  0
 19 20  1  0  0  0  0
 20 21  1  1  0  0  0
 22 30  1  6  0  0  0
 22 20  1  0  0  0  0
 22 25  1  0  0  0  0
 23 24  2  0  0  0  0
 25 23  1  0  0  0  0
 26 23  1  0  0  0  0
 26 28  1  0  0  0  0
 27 28  1  0  0  0  0
 28 29  1  6  0  0  0
 31 30  2  0  0  0  0
 32 33  1  0  0  0  0
 33 35  1  0  0  0  0
 35 34  2  0  0  0  0
 36 35  1  0  0  0  0
 37 36  1  0  0  0  0
 39 38  1  1  0  0  0
 39 37  1  0  0  0  0
 40 39  1  0  0  0  0
 41 40  1  0  0  0  0
M  END
>  <MODEL>
3

>  <REMARK>
 VINA RESULT:      -6.1      2.209      4.845
  Name = 
  18 active torsions:
  status: ('A' for Active; 'I' for Inactive)
    1  A    between atoms: C_4  and  C_28
    2  A    between atoms: C_4  and  C_34
    3  A    between atoms: C_5  and  C_7
    4  A    between atoms: C_7  and  N_16
    5  A    between atoms: C_7  and  C_31
    6  A    between atoms: C_8  and  C_18
    7  A    between atoms: C_8  and  C_28
    8  A    between atoms: C_9  and  C_14
    9  A    between atoms: C_10  and  C_25
   10  A    between atoms: C_14  and  C_30
   11  A    between atoms: C_20  and  C_39
   12  A    between atoms: C_22  and  N_32
   13  A    between atoms: C_22  and  C_38
   14  A    between atoms: C_25  and  C_31
   15  A    between atoms: C_26  and  N_32
   16  A    between atoms: O_27  and  C_33
   17  A    between atoms: O_27  and  C_38
   18  A    between atoms: C_33  and  C_39
                            x       y       z     vdW  Elec       q    Type
                         _______ _______ _______ _____ _____    ______ ____

>  <TORSDO>
F 18

$$$$
=
 OpenBabel11042419583D

 41 43  0  0  1  0  0  0  0  0999 V2000
  184.4350  177.8290  145.7000 N   0  0  0  0  0  0  0  0  0  0  0  0
  190.0820  175.8780  146.2070 C   0  0  0  0  0  1  0  0  0  0  0  0
  188.7140  176.3610  145.8880 C   0  0  0  0  0  0  0  0  0  0  0  0
  188.2480  176.3270  144.6860 C   0  0  0  0  0  0  0  0  0  0  0  0
  187.4290  176.5040  143.7030 C   0  0  0  0  0  0  0  0  0  0  0  0
  185.9840  178.3140  147.4130 N   0  0  0  0  0  0  0  0  0  0  0  0
  187.9140  177.0390  146.8650 N   0  0  0  0  0  2  0  0  0  0  0  0
  186.2280  177.3660  144.0450 C   0  0  2  0  0  3  0  0  0  0  0  0
  184.6360  178.5760  146.9470 C   0  0  0  0  0  3  0  0  0  0  0  0
  185.6750  177.0840  145.4760 C   0  0  1  0  0  3  0  0  0  0  0  0
  186.5740  177.5200  146.6010 C   0  0  0  0  0  0  0  0  0  0  0  0
  187.5320  175.6900  142.4540 C   0  0  0  0  0  2  0  0  0  0  0  0
  188.5500  174.5760  142.6340 C   0  0  0  0  0  2  0  0  0  0  0  0
  189.0720  174.1100  141.2850 C   0  0  0  0  0  2  0  0  0  0  0  0
  192.1910  172.5360  142.5040 N   0  0  0  0  0  1  0  0  0  0  0  0
  191.1580  174.8000  142.4190 C   0  0  2  0  0  3  0  0  0  0  0  0
  190.9630  173.3000  142.6650 C   0  0  1  0  0  3  0  0  0  0  0  0
  190.5770  173.9180  141.3360 C   0  0  1  0  0  3  0  0  0  0  0  0
  192.5760  175.2050  142.0310 C   0  0  0  0  0  2  0  0  0  0  0  0
  193.0120  176.4400  142.8110 C   0  0  1  0  0  3  0  0  0  0  0  0
  191.7580  177.2020  143.2050 C   0  0  0  0  0  1  0  0  0  0  0  0
  193.8350  176.0570  144.0530 C   0  0  1  0  0  3  0  0  0  0  0  0
  196.1000  174.9480  143.7090 C   0  0  0  0  0  0  0  0  0  0  0  0
  197.3210  175.0800  143.4320 O   0  0  0  0  0  0  0  0  0  0  0  0
  195.2630  176.1080  143.7510 N   0  0  0  0  0  2  0  0  0  0  0  0
  195.5400  173.5800  143.9450 C   0  0  0  0  0  2  0  0  0  0  0  0
  195.0260  171.9010  145.6370 N   0  0  0  0  0  1  0  0  0  0  0  0
  195.4080  173.2880  145.4310 C   0  0  1  0  0  3  0  0  0  0  0  0
  196.7350  173.5460  146.1110 C   0  0  0  0  0  1  0  0  0  0  0  0
  193.5520  176.9850  145.1980 C   0  0  0  0  0  3  0  0  0  0  0  0
  193.8250  176.6270  146.4520 C   0  0  0  0  0  2  0  0  0  0  0  0
  185.1760  177.1970  143.0510 N   0  0  0  0  0  2  0  0  0  0  0  0
  185.1030  178.4380  142.3000 C   0  0  0  0  0  2  0  0  0  0  0  0
  185.5930  177.6980  140.0960 O   0  0  0  0  0  0  0  0  0  0  0  0
  184.7250  178.1480  140.8930 C   0  0  0  0  0  0  0  0  0  0  0  0
  183.4210  178.4090  140.4650 O   0  0  0  0  0  0  0  0  0  0  0  0
  182.3050  178.3460  141.3440 C   0  0  0  0  0  2  0  0  0  0  0  0
  180.8070  180.1160  140.7580 F   0  0  0  0  0  0  0  0  0  0  0  0
  181.0310  178.7560  140.6190 C   0  0  2  0  0  3  0  0  0  0  0  0
  179.8440  177.9830  141.1700 C   0  0  0  0  0  2  0  0  0  0  0  0
  179.1980  178.7190  142.1480 F   0  0  0  0  0  0  0  0  0  0  0  0
  1  9  2  0  0  0  0
  3  2  1  0  0  0  0
  3  7  1  0  0  0  0
  4  3  2  0  0  0  0
  5  8  1  0  0  0  0
  5  4  2  0  0  0  0
  8 32  1  6  0  0  0
  8 10  1  0  0  0  0
  9  6  1  0  0  0  0
 10  1  1  1  0  0  0
 10 11  1  0  0  0  0
 11  7  1  0  0  0  0
 11  6  2  0  0  0  0
 12 13  1  0  0  0  0
 12  5  1  0  0  0  0
 14 13  1  0  0  0  0
 16 19  1  6  0  0  0
 16 17  1  0  0  0  0
 17 15  1  6  0  0  0
 18 14  1  1  0  0  0
 18 16  1  0  0  0  0
 18 17  1  0  0  0  0
 19 20  1  0  0  0  0
 20 21  1  1  0  0  0
 20 22  1  0  0  0  0
 22 30  1  1  0  0  0
 23 25  1  0  0  0  0
 23 26  1  0  0  0  0
 24 23  2  0  0  0  0
 25 22  1  0  0  0  0
 26 28  1  0  0  0  0
 28 27  1  0  0  0  0
 28 29  1  1  0  0  0
 30 31  2  0  0  0  0
 33 32  1  0  0  0  0
 34 35  2  0  0  0  0
 35 33  1  0  0  0  0
 36 35  1  0  0  0  0
 36 37  1  0  0  0  0
 39 38  1  1  0  0  0
 39 40  1  0  0  0  0
 39 37  1  0  0  0  0
 40 41  1  0  0  0  0
M  END
>  <MODEL>
4

>  <REMARK>
 VINA RESULT:      -6.0      2.674      5.078
  Name = 
  18 active torsions:
  status: ('A' for Active; 'I' for Inactive)
    1  A    between atoms: C_4  and  C_28
    2  A    between atoms: C_4  and  C_34
    3  A    between atoms: C_5  and  C_7
    4  A    between atoms: C_7  and  N_16
    5  A    between atoms: C_7  and  C_31
    6  A    between atoms: C_8  and  C_18
    7  A    between atoms: C_8  and  C_28
    8  A    between atoms: C_9  and  C_14
    9  A    between atoms: C_10  and  C_25
   10  A    between atoms: C_14  and  C_30
   11  A    between atoms: C_20  and  C_39
   12  A    between atoms: C_22  and  N_32
   13  A    between atoms: C_22  and  C_38
   14  A    between atoms: C_25  and  C_31
   15  A    between atoms: C_26  and  N_32
   16  A    between atoms: O_27  and  C_33
   17  A    between atoms: O_27  and  C_38
   18  A    between atoms: C_33  and  C_39
                            x       y       z     vdW  Elec       q    Type
                         _______ _______ _______ _____ _____    ______ ____

>  <TORSDO>
F 18

$$$$
=
 OpenBabel11042419583D

 41 43  0  0  1  0  0  0  0  0999 V2000
  195.5090  175.6500  142.8310 N   0  0  0  0  0  0  0  0  0  0  0  0
  191.7930  175.9860  147.5250 C   0  0  0  0  0  1  0  0  0  0  0  0
  192.6720  175.7120  146.3590 C   0  0  0  0  0  0  0  0  0  0  0  0
  192.6200  174.5920  145.7220 C   0  0  0  0  0  0  0  0  0  0  0  0
  192.9210  173.6780  144.8600 C   0  0  0  0  0  0  0  0  0  0  0  0
  195.6740  177.0720  144.7070 N   0  0  0  0  0  0  0  0  0  0  0  0
  193.7320  176.6060  145.9960 N   0  0  0  0  0  2  0  0  0  0  0  0
  194.1940  173.9550  144.0810 C   0  0  2  0  0  3  0  0  0  0  0  0
  196.3210  176.6970  143.4640 C   0  0  0  0  0  3  0  0  0  0  0  0
  194.3490  175.4610  143.7030 C   0  0  1  0  0  3  0  0  0  0  0  0
  194.6080  176.3830  144.8650 C   0  0  0  0  0  0  0  0  0  0  0  0
  191.9400  172.6140  144.4870 C   0  0  0  0  0  2  0  0  0  0  0  0
  190.5180  173.1250  144.6540 C   0  0  0  0  0  2  0  0  0  0  0  0
  189.7050  172.8550  143.4000 C   0  0  0  0  0  2  0  0  0  0  0  0
  188.2160  175.1160  140.8770 N   0  0  0  0  0  1  0  0  0  0  0  0
  190.0280  175.1670  142.5850 C   0  0  2  0  0  3  0  0  0  0  0  0
  189.3130  174.3760  141.4840 C   0  0  1  0  0  3  0  0  0  0  0  0
  188.9980  174.1190  142.9440 C   0  0  1  0  0  3  0  0  0  0  0  0
  189.4500  176.5530  142.8540 C   0  0  0  0  0  2  0  0  0  0  0  0
  189.6940  176.9620  144.3010 C   0  0  1  0  0  3  0  0  0  0  0  0
  190.7020  178.1000  144.2940 C   0  0  0  0  0  1  0  0  0  0  0  0
  188.3880  177.3910  144.9910 C   0  0  1  0  0  3  0  0  0  0  0  0
  186.0180  177.7620  144.1390 C   0  0  0  0  0  0  0  0  0  0  0  0
  185.0760  177.3690  143.4020 O   0  0  0  0  0  0  0  0  0  0  0  0
  187.2370  177.0120  144.1770 N   0  0  0  0  0  2  0  0  0  0  0  0
  185.8630  179.0270  144.9250 C   0  0  0  0  0  2  0  0  0  0  0  0
  184.7300  177.3850  146.3270 N   0  0  0  0  0  1  0  0  0  0  0  0
  185.0300  178.7980  146.1770 C   0  0  1  0  0  3  0  0  0  0  0  0
  185.8050  179.2760  147.3860 C   0  0  0  0  0  1  0  0  0  0  0  0
  188.2530  176.7520  146.3420 C   0  0  0  0  0  3  0  0  0  0  0  0
  188.4890  175.4520  146.5100 C   0  0  0  0  0  2  0  0  0  0  0  0
  194.2550  173.1230  142.8880 N   0  0  0  0  0  2  0  0  0  0  0  0
  195.3620  172.2010  143.0740 C   0  0  0  0  0  2  0  0  0  0  0  0
  194.3120  170.5300  141.7510 O   0  0  0  0  0  0  0  0  0  0  0  0
  194.8990  170.8100  142.8310 C   0  0  0  0  0  0  0  0  0  0  0  0
  195.0910  169.8410  143.8190 O   0  0  0  0  0  0  0  0  0  0  0  0
  194.2070  169.6960  144.9240 C   0  0  0  0  0  2  0  0  0  0  0  0
  196.1620  170.6160  145.9500 F   0  0  0  0  0  0  0  0  0  0  0  0
  194.8780  170.1650  146.2070 C   0  0  2  0  0  3  0  0  0  0  0  0
  194.9260  169.0300  147.2180 C   0  0  0  0  0  2  0  0  0  0  0  0
  195.9670  168.1660  146.9250 F   0  0  0  0  0  0  0  0  0  0  0  0
  1  9  2  0  0  0  0
  3  2  1  0  0  0  0
  4  3  2  0  0  0  0
  5  4  2  0  0  0  0
  6 11  2  0  0  0  0
  7  3  1  0  0  0  0
  8 32  1  6  0  0  0
  8  5  1  0  0  0  0
  9  6  1  0  0  0  0
 10  1  1  6  0  0  0
 10  8  1  0  0  0  0
 10 11  1  0  0  0  0
 11  7  1  0  0  0  0
 12 13  1  0  0  0  0
 12  5  1  0  0  0  0
 14 13  1  0  0  0  0
 16 19  1  6  0  0  0
 16 18  1  0  0  0  0
 17 15  1  6  0  0  0
 17 16  1  0  0  0  0
 17 18  1  0  0  0  0
 18 14  1  1  0  0  0
 19 20  1  0  0  0  0
 20 21  1  6  0  0  0
 20 22  1  0  0  0  0
 22 30  1  1  0  0  0
 23 25  1  0  0  0  0
 23 26  1  0  0  0  0
 24 23  2  0  0  0  0
 25 22  1  0  0  0  0
 26 28  1  0  0  0  0
 28 27  1  0  0  0  0
 28 29  1  1  0  0  0
 30 31  2  0  0  0  0
 32 33  1  0  0  0  0
 34 35  2  0  0  0  0
 35 33  1  0  0  0  0
 35 36  1  0  0  0  0
 36 37  1  0  0  0  0
 37 39  1  0  0  0  0
 39 38  1  6  0  0  0
 39 40  1  0  0  0  0
 41 40  1  0  0  0  0
M  END
>  <MODEL>
5

>  <REMARK>
 VINA RESULT:      -5.9      3.729      9.237
  Name = 
  18 active torsions:
  status: ('A' for Active; 'I' for Inactive)
    1  A    between atoms: C_4  and  C_28
    2  A    between atoms: C_4  and  C_34
    3  A    between atoms: C_5  and  C_7
    4  A    between atoms: C_7  and  N_16
    5  A    between atoms: C_7  and  C_31
    6  A    between atoms: C_8  and  C_18
    7  A    between atoms: C_8  and  C_28
    8  A    between atoms: C_9  and  C_14
    9  A    between atoms: C_10  and  C_25
   10  A    between atoms: C_14  and  C_30
   11  A    between atoms: C_20  and  C_39
   12  A    between atoms: C_22  and  N_32
   13  A    between atoms: C_22  and  C_38
   14  A    between atoms: C_25  and  C_31
   15  A    between atoms: C_26  and  N_32
   16  A    between atoms: O_27  and  C_33
   17  A    between atoms: O_27  and  C_38
   18  A    between atoms: C_33  and  C_39
                            x       y       z     vdW  Elec       q    Type
                         _______ _______ _______ _____ _____    ______ ____

>  <TORSDO>
F 18

$$$$
=
 OpenBabel11042419583D

 41 43  0  0  1  0  0  0  0  0999 V2000
  195.6840  171.8090  145.2340 N   0  0  0  0  0  0  0  0  0  0  0  0
  189.7780  172.4080  144.3790 C   0  0  0  0  0  1  0  0  0  0  0  0
  191.2460  172.4540  144.6090 C   0  0  0  0  0  0  0  0  0  0  0  0
  191.8300  173.5230  145.0340 C   0  0  0  0  0  0  0  0  0  0  0  0
  192.7840  174.3140  145.3950 C   0  0  0  0  0  0  0  0  0  0  0  0
  194.2830  170.5080  143.8500 N   0  0  0  0  0  0  0  0  0  0  0  0
  192.0990  171.3740  144.2080 N   0  0  0  0  0  2  0  0  0  0  0  0
  194.1750  173.7780  145.1100 C   0  0  2  0  0  3  0  0  0  0  0  0
  195.6550  170.6870  144.2880 C   0  0  0  0  0  3  0  0  0  0  0  0
  194.2940  172.2460  145.3790 C   0  0  1  0  0  3  0  0  0  0  0  0
  193.5320  171.3730  144.4180 C   0  0  0  0  0  0  0  0  0  0  0  0
  192.5180  175.4990  146.2650 C   0  0  0  0  0  2  0  0  0  0  0  0
  191.1090  175.4310  146.8330 C   0  0  0  0  0  2  0  0  0  0  0  0
  190.6520  176.8070  147.2850 C   0  0  0  0  0  2  0  0  0  0  0  0
  186.9990  176.5040  146.7790 N   0  0  0  0  0  1  0  0  0  0  0  0
  189.0890  176.2570  145.4490 C   0  0  2  0  0  3  0  0  0  0  0  0
  188.3650  176.0020  146.7750 C   0  0  1  0  0  3  0  0  0  0  0  0
  189.3260  177.1650  146.6360 C   0  0  1  0  0  3  0  0  0  0  0  0
  188.2650  177.0010  144.4030 C   0  0  0  0  0  2  0  0  0  0  0  0
  189.0600  177.1660  143.1140 C   0  0  1  0  0  3  0  0  0  0  0  0
  190.3700  176.4140  143.2810 C   0  0  0  0  0  1  0  0  0  0  0  0
  188.2760  176.6400  141.9000 C   0  0  1  0  0  3  0  0  0  0  0  0
  187.9940  174.1270  141.6170 C   0  0  0  0  0  0  0  0  0  0  0  0
  187.3920  173.0750  141.9600 O   0  0  0  0  0  0  0  0  0  0  0  0
  187.6320  175.3710  142.2240 N   0  0  0  0  0  2  0  0  0  0  0  0
  189.1050  174.0480  140.6160 C   0  0  0  0  0  2  0  0  0  0  0  0
  188.4240  172.8400  138.6100 N   0  0  0  0  0  1  0  0  0  0  0  0
  189.0980  172.7110  139.8900 C   0  0  1  0  0  3  0  0  0  0  0  0
  190.5260  172.2620  139.6610 C   0  0  0  0  0  1  0  0  0  0  0  0
  187.2230  177.6190  141.4690 C   0  0  0  0  0  3  0  0  0  0  0  0
  186.6190  177.4970  140.2880 C   0  0  0  0  0  2  0  0  0  0  0  0
  195.1730  174.5080  145.8820 N   0  0  0  0  0  2  0  0  0  0  0  0
  196.1900  174.9490  144.9430 C   0  0  0  0  0  2  0  0  0  0  0  0
  195.3010  177.1520  144.9740 O   0  0  0  0  0  0  0  0  0  0  0  0
  195.7460  176.2000  144.2770 C   0  0  0  0  0  0  0  0  0  0  0  0
  195.7970  176.2910  142.8840 O   0  0  0  0  0  0  0  0  0  0  0  0
  195.2940  175.2660  142.0360 C   0  0  0  0  0  2  0  0  0  0  0  0
  193.3590  176.6670  142.1560 F   0  0  0  0  0  0  0  0  0  0  0  0
  193.9900  175.7050  141.3840 C   0  0  2  0  0  3  0  0  0  0  0  0
  193.0690  174.5100  141.2000 C   0  0  0  0  0  2  0  0  0  0  0  0
  193.5320  173.4250  141.9240 F   0  0  0  0  0  0  0  0  0  0  0  0
  1 10  1  0  0  0  0
  2  3  1  0  0  0  0
  3  4  2  0  0  0  0
  4  5  2  0  0  0  0
  5 12  1  0  0  0  0
  6  9  1  0  0  0  0
  6 11  2  0  0  0  0
  7 11  1  0  0  0  0
  7  3  1  0  0  0  0
  8 10  1  0  0  0  0
  8  5  1  0  0  0  0
  8 32  1  1  0  0  0
  9  1  2  0  0  0  0
 10 11  1  6  0  0  0
 12 13  1  0  0  0  0
 13 14  1  0  0  0  0
 16 19  1  6  0  0  0
 16 18  1  0  0  0  0
 16 17  1  0  0  0  0
 17 15  1  6  0  0  0
 18 17  1  0  0  0  0
 18 14  1  1  0  0  0
 20 21  1  1  0  0  0
 20 19  1  0  0  0  0
 22 30  1  1  0  0  0
 22 25  1  0  0  0  0
 22 20  1  0  0  0  0
 23 24  2  0  0  0  0
 23 25  1  0  0  0  0
 26 23  1  0  0  0  0
 27 28  1  0  0  0  0
 28 29  1  6  0  0  0
 28 26  1  0  0  0  0
 31 30  2  0  0  0  0
 33 32  1  0  0  0  0
 35 33  1  0  0  0  0
 35 34  2  0  0  0  0
 36 35  1  0  0  0  0
 37 36  1  0  0  0  0
 39 37  1  0  0  0  0
 39 38  1  1  0  0  0
 40 39  1  0  0  0  0
 40 41  1  0  0  0  0
M  END
>  <MODEL>
6

>  <REMARK>
 VINA RESULT:      -5.7      3.175      7.787
  Name = 
  18 active torsions:
  status: ('A' for Active; 'I' for Inactive)
    1  A    between atoms: C_4  and  C_28
    2  A    between atoms: C_4  and  C_34
    3  A    between atoms: C_5  and  C_7
    4  A    between atoms: C_7  and  N_16
    5  A    between atoms: C_7  and  C_31
    6  A    between atoms: C_8  and  C_18
    7  A    between atoms: C_8  and  C_28
    8  A    between atoms: C_9  and  C_14
    9  A    between atoms: C_10  and  C_25
   10  A    between atoms: C_14  and  C_30
   11  A    between atoms: C_20  and  C_39
   12  A    between atoms: C_22  and  N_32
   13  A    between atoms: C_22  and  C_38
   14  A    between atoms: C_25  and  C_31
   15  A    between atoms: C_26  and  N_32
   16  A    between atoms: O_27  and  C_33
   17  A    between atoms: O_27  and  C_38
   18  A    between atoms: C_33  and  C_39
                            x       y       z     vdW  Elec       q    Type
                         _______ _______ _______ _____ _____    ______ ____

>  <TORSDO>
F 18

$$$$
=
 OpenBabel11042419583D

 41 43  0  0  1  0  0  0  0  0999 V2000
  184.5640  178.6020  145.7990 N   0  0  0  0  0  0  0  0  0  0  0  0
  189.3840  175.0780  146.3500 C   0  0  0  0  0  1  0  0  0  0  0  0
  188.2730  176.0180  146.0500 C   0  0  0  0  0  0  0  0  0  0  0  0
  188.1660  176.5920  144.9000 C   0  0  0  0  0  0  0  0  0  0  0  0
  187.7040  177.3670  143.9760 C   0  0  0  0  0  0  0  0  0  0  0  0
  185.6300  177.9120  147.7880 N   0  0  0  0  0  0  0  0  0  0  0  0
  187.3690  176.4570  147.0720 N   0  0  0  0  0  2  0  0  0  0  0  0
  186.6340  178.3320  144.4540 C   0  0  2  0  0  3  0  0  0  0  0  0
  184.5390  178.7100  147.2630 C   0  0  0  0  0  3  0  0  0  0  0  0
  185.6590  177.6830  145.4840 C   0  0  1  0  0  3  0  0  0  0  0  0
  186.2690  177.3660  146.8230 C   0  0  0  0  0  0  0  0  0  0  0  0
  188.0030  177.1150  142.5340 C   0  0  0  0  0  2  0  0  0  0  0  0
  187.7300  175.6600  142.1860 C   0  0  0  0  0  2  0  0  0  0  0  0
  188.2000  175.3540  140.7740 C   0  0  0  0  0  2  0  0  0  0  0  0
  189.2790  172.1040  139.3730 N   0  0  0  0  0  1  0  0  0  0  0  0
  188.2710  172.9840  141.4730 C   0  0  2  0  0  3  0  0  0  0  0  0
  188.3050  173.0230  139.9420 C   0  0  1  0  0  3  0  0  0  0  0  0
  189.0260  174.0810  140.7540 C   0  0  1  0  0  3  0  0  0  0  0  0
  189.2680  172.0210  142.1100 C   0  0  0  0  0  2  0  0  0  0  0  0
  190.0000  172.6950  143.2640 C   0  0  1  0  0  3  0  0  0  0  0  0
  189.6140  171.9670  144.5410 C   0  0  0  0  0  1  0  0  0  0  0  0
  191.5240  172.6660  143.0560 C   0  0  1  0  0  3  0  0  0  0  0  0
  193.0350  173.8030  144.7590 C   0  0  0  0  0  0  0  0  0  0  0  0
  193.5870  173.7640  145.8900 O   0  0  0  0  0  0  0  0  0  0  0  0
  192.2120  172.7090  144.3430 N   0  0  0  0  0  2  0  0  0  0  0  0
  193.2140  175.0110  143.8920 C   0  0  0  0  0  2  0  0  0  0  0  0
  193.3090  177.1750  145.0110 N   0  0  0  0  0  1  0  0  0  0  0  0
  192.4170  176.1930  144.4210 C   0  0  1  0  0  3  0  0  0  0  0  0
  191.6550  176.8310  143.2800 C   0  0  0  0  0  1  0  0  0  0  0  0
  191.9480  171.4260  142.3250 C   0  0  0  0  0  3  0  0  0  0  0  0
  193.2360  171.1630  142.1140 C   0  0  0  0  0  2  0  0  0  0  0  0
  185.8920  178.8740  143.3240 N   0  0  0  0  0  2  0  0  0  0  0  0
  184.8470  177.9160  143.0070 C   0  0  0  0  0  2  0  0  0  0  0  0
  185.3060  178.3790  140.7230 O   0  0  0  0  0  0  0  0  0  0  0  0
  184.4400  178.0730  141.5870 C   0  0  0  0  0  0  0  0  0  0  0  0
  183.0980  177.9110  141.2350 O   0  0  0  0  0  0  0  0  0  0  0  0
  182.0580  178.6740  141.8350 C   0  0  0  0  0  2  0  0  0  0  0  0
  180.5980  180.0400  140.5220 F   0  0  0  0  0  0  0  0  0  0  0  0
  180.8450  178.7350  140.9170 C   0  0  2  0  0  3  0  0  0  0  0  0
  179.6230  178.1750  141.6260 C   0  0  0  0  0  2  0  0  0  0  0  0
  178.5340  178.1530  140.7710 F   0  0  0  0  0  0  0  0  0  0  0  0
  1  9  2  0  0  0  0
  3  2  1  0  0  0  0
  3  7  1  0  0  0  0
  4  3  2  0  0  0  0
  5  8  1  0  0  0  0
  5  4  2  0  0  0  0
  8 32  1  6  0  0  0
  8 10  1  0  0  0  0
  9  6  1  0  0  0  0
 10  1  1  1  0  0  0
 10 11  1  0  0  0  0
 11  7  1  0  0  0  0
 11  6  2  0  0  0  0
 12  5  1  0  0  0  0
 13 12  1  0  0  0  0
 14 13  1  0  0  0  0
 16 19  1  1  0  0  0
 17 15  1  1  0  0  0
 17 18  1  0  0  0  0
 17 16  1  0  0  0  0
 18 14  1  6  0  0  0
 18 16  1  0  0  0  0
 19 20  1  0  0  0  0
 20 21  1  1  0  0  0
 22 30  1  1  0  0  0
 22 20  1  0  0  0  0
 22 25  1  0  0  0  0
 23 24  2  0  0  0  0
 25 23  1  0  0  0  0
 26 28  1  0  0  0  0
 26 23  1  0  0  0  0
 28 29  1  6  0  0  0
 28 27  1  0  0  0  0
 31 30  2  0  0  0  0
 33 32  1  0  0  0  0
 34 35  2  0  0  0  0
 35 33  1  0  0  0  0
 36 35  1  0  0  0  0
 36 37  1  0  0  0  0
 39 38  1  1  0  0  0
 39 40  1  0  0  0  0
 39 37  1  0  0  0  0
 41 40  1  0  0  0  0
M  END
>  <MODEL>
7

>  <REMARK>
 VINA RESULT:      -5.7      3.119      5.585
  Name = 
  18 active torsions:
  status: ('A' for Active; 'I' for Inactive)
    1  A    between atoms: C_4  and  C_28
    2  A    between atoms: C_4  and  C_34
    3  A    between atoms: C_5  and  C_7
    4  A    between atoms: C_7  and  N_16
    5  A    between atoms: C_7  and  C_31
    6  A    between atoms: C_8  and  C_18
    7  A    between atoms: C_8  and  C_28
    8  A    between atoms: C_9  and  C_14
    9  A    between atoms: C_10  and  C_25
   10  A    between atoms: C_14  and  C_30
   11  A    between atoms: C_20  and  C_39
   12  A    between atoms: C_22  and  N_32
   13  A    between atoms: C_22  and  C_38
   14  A    between atoms: C_25  and  C_31
   15  A    between atoms: C_26  and  N_32
   16  A    between atoms: O_27  and  C_33
   17  A    between atoms: O_27  and  C_38
   18  A    between atoms: C_33  and  C_39
                            x       y       z     vdW  Elec       q    Type
                         _______ _______ _______ _____ _____    ______ ____

>  <TORSDO>
F 18

$$$$
=
 OpenBabel11042419583D

 41 43  0  0  1  0  0  0  0  0999 V2000
  196.8480  171.7500  145.1930 N   0  0  0  0  0  0  0  0  0  0  0  0
  190.9330  171.9480  144.2320 C   0  0  0  0  0  1  0  0  0  0  0  0
  192.3950  172.0940  144.4520 C   0  0  0  0  0  0  0  0  0  0  0  0
  192.9330  173.2440  144.6790 C   0  0  0  0  0  0  0  0  0  0  0  0
  193.8520  174.1250  144.8920 C   0  0  0  0  0  0  0  0  0  0  0  0
  195.5130  170.1650  144.0640 N   0  0  0  0  0  0  0  0  0  0  0  0
  193.2930  170.9940  144.2560 N   0  0  0  0  0  2  0  0  0  0  0  0
  195.2660  173.6030  144.7120 C   0  0  2  0  0  3  0  0  0  0  0  0
  196.8720  170.4760  144.4650 C   0  0  0  0  0  3  0  0  0  0  0  0
  195.4410  172.1500  145.2530 C   0  0  1  0  0  3  0  0  0  0  0  0
  194.7230  171.0880  144.4650 C   0  0  0  0  0  0  0  0  0  0  0  0
  193.5320  175.4360  145.5340 C   0  0  0  0  0  2  0  0  0  0  0  0
  192.6310  175.2270  146.7400 C   0  0  0  0  0  2  0  0  0  0  0  0
  191.8520  176.4940  147.0480 C   0  0  0  0  0  2  0  0  0  0  0  0
  188.5350  174.9490  147.5990 N   0  0  0  0  0  1  0  0  0  0  0  0
  190.2070  175.1640  145.7660 C   0  0  2  0  0  3  0  0  0  0  0  0
  189.9490  174.9210  147.2570 C   0  0  1  0  0  3  0  0  0  0  0  0
  190.3740  176.2900  146.7640 C   0  0  1  0  0  3  0  0  0  0  0  0
  188.9540  175.4130  144.9330 C   0  0  0  0  0  2  0  0  0  0  0  0
  189.3230  175.6920  143.4810 C   0  0  1  0  0  3  0  0  0  0  0  0
  188.5610  174.7030  142.6150 C   0  0  0  0  0  1  0  0  0  0  0  0
  188.9890  177.1400  143.0850 C   0  0  1  0  0  3  0  0  0  0  0  0
  186.8440  177.9250  144.2080 C   0  0  0  0  0  0  0  0  0  0  0  0
  186.3020  178.5100  145.1820 O   0  0  0  0  0  0  0  0  0  0  0  0
  188.2690  177.8080  144.1660 N   0  0  0  0  0  2  0  0  0  0  0  0
  185.9870  177.3260  143.1360 C   0  0  0  0  0  2  0  0  0  0  0  0
  185.7120  178.2880  140.9120 N   0  0  0  0  0  1  0  0  0  0  0  0
  185.3120  178.4050  142.3030 C   0  0  1  0  0  3  0  0  0  0  0  0
  183.8100  178.2480  142.4060 C   0  0  0  0  0  1  0  0  0  0  0  0
  190.2340  177.9210  142.7820 C   0  0  0  0  0  3  0  0  0  0  0  0
  191.0980  178.2320  143.7470 C   0  0  0  0  0  2  0  0  0  0  0  0
  196.2270  174.4990  145.3410 N   0  0  0  0  0  2  0  0  0  0  0  0
  197.1790  174.8840  144.3130 C   0  0  0  0  0  2  0  0  0  0  0  0
  196.2130  177.0520  144.2010 O   0  0  0  0  0  0  0  0  0  0  0  0
  196.6590  176.0580  143.5660 C   0  0  0  0  0  0  0  0  0  0  0  0
  196.6410  176.0300  142.1690 O   0  0  0  0  0  0  0  0  0  0  0  0
  195.4370  176.1530  141.4220 C   0  0  0  0  0  2  0  0  0  0  0  0
  195.1100  174.2460  140.0160 F   0  0  0  0  0  0  0  0  0  0  0  0
  194.7780  174.7920  141.2450 C   0  0  2  0  0  3  0  0  0  0  0  0
  193.2670  174.9230  141.3560 C   0  0  0  0  0  2  0  0  0  0  0  0
  192.9330  175.9780  142.1870 F   0  0  0  0  0  0  0  0  0  0  0  0
  1 10  1  0  0  0  0
  2  3  1  0  0  0  0
  3  4  2  0  0  0  0
  4  5  2  0  0  0  0
  5 12  1  0  0  0  0
  6 11  2  0  0  0  0
  6  9  1  0  0  0  0
  7  3  1  0  0  0  0
  7 11  1  0  0  0  0
  8  5  1  0  0  0  0
  8 10  1  0  0  0  0
  8 32  1  1  0  0  0
  9  1  2  0  0  0  0
 10 11  1  6  0  0  0
 12 13  1  0  0  0  0
 13 14  1  0  0  0  0
 16 19  1  6  0  0  0
 16 18  1  0  0  0  0
 16 17  1  0  0  0  0
 17 15  1  6  0  0  0
 18 14  1  1  0  0  0
 18 17  1  0  0  0  0
 20 21  1  6  0  0  0
 20 19  1  0  0  0  0
 22 30  1  1  0  0  0
 22 20  1  0  0  0  0
 22 25  1  0  0  0  0
 23 24  2  0  0  0  0
 25 23  1  0  0  0  0
 26 23  1  0  0  0  0
 27 28  1  0  0  0  0
 28 29  1  6  0  0  0
 28 26  1  0  0  0  0
 30 31  2  0  0  0  0
 33 32  1  0  0  0  0
 35 34  2  0  0  0  0
 35 33  1  0  0  0  0
 36 35  1  0  0  0  0
 37 36  1  0  0  0  0
 39 38  1  6  0  0  0
 39 40  1  0  0  0  0
 39 37  1  0  0  0  0
 40 41  1  0  0  0  0
M  END
>  <MODEL>
8

>  <REMARK>
 VINA RESULT:      -5.7      2.729      8.298
  Name = 
  18 active torsions:
  status: ('A' for Active; 'I' for Inactive)
    1  A    between atoms: C_4  and  C_28
    2  A    between atoms: C_4  and  C_34
    3  A    between atoms: C_5  and  C_7
    4  A    between atoms: C_7  and  N_16
    5  A    between atoms: C_7  and  C_31
    6  A    between atoms: C_8  and  C_18
    7  A    between atoms: C_8  and  C_28
    8  A    between atoms: C_9  and  C_14
    9  A    between atoms: C_10  and  C_25
   10  A    between atoms: C_14  and  C_30
   11  A    between atoms: C_20  and  C_39
   12  A    between atoms: C_22  and  N_32
   13  A    between atoms: C_22  and  C_38
   14  A    between atoms: C_25  and  C_31
   15  A    between atoms: C_26  and  N_32
   16  A    between atoms: O_27  and  C_33
   17  A    between atoms: O_27  and  C_38
   18  A    between atoms: C_33  and  C_39
                            x       y       z     vdW  Elec       q    Type
                         _______ _______ _______ _____ _____    ______ ____

>  <TORSDO>
F 18

$$$$
=
 OpenBabel11042419583D

 41 43  0  0  1  0  0  0  0  0999 V2000
  185.7290  177.3430  141.9510 N   0  0  0  0  0  0  0  0  0  0  0  0
  185.9100  177.4990  147.9430 C   0  0  0  0  0  1  0  0  0  0  0  0
  186.0600  177.4470  146.4660 C   0  0  0  0  0  0  0  0  0  0  0  0
  187.1750  177.1090  145.9110 C   0  0  0  0  0  0  0  0  0  0  0  0
  188.0360  176.8760  144.9780 C   0  0  0  0  0  0  0  0  0  0  0  0
  184.3050  178.5320  143.4100 N   0  0  0  0  0  0  0  0  0  0  0  0
  185.0310  177.9290  145.5920 N   0  0  0  0  0  2  0  0  0  0  0  0
  187.5890  177.3150  143.5960 C   0  0  2  0  0  3  0  0  0  0  0  0
  184.5860  178.2620  142.0130 C   0  0  0  0  0  3  0  0  0  0  0  0
  186.0750  177.0410  143.3410 C   0  0  1  0  0  3  0  0  0  0  0  0
  185.1310  177.8910  144.1480 C   0  0  0  0  0  0  0  0  0  0  0  0
  189.2200  175.9960  145.2210 C   0  0  0  0  0  2  0  0  0  0  0  0
  190.3810  176.8140  145.7640 C   0  0  0  0  0  2  0  0  0  0  0  0
  191.0700  176.0710  146.8960 C   0  0  0  0  0  2  0  0  0  0  0  0
  194.1870  177.4890  145.4940 N   0  0  0  0  0  1  0  0  0  0  0  0
  193.1040  175.2620  145.7470 C   0  0  2  0  0  3  0  0  0  0  0  0
  192.9370  176.7480  145.4150 C   0  0  1  0  0  3  0  0  0  0  0  0
  192.5770  176.2220  146.7900 C   0  0  1  0  0  3  0  0  0  0  0  0
  194.5240  174.8450  146.1180 C   0  0  0  0  0  2  0  0  0  0  0  0
  194.9120  173.5630  145.3920 C   0  0  1  0  0  3  0  0  0  0  0  0
  193.7200  173.1280  144.5550 C   0  0  0  0  0  1  0  0  0  0  0  0
  196.1550  173.7710  144.5100 C   0  0  1  0  0  3  0  0  0  0  0  0
  196.6310  175.9560  143.2940 C   0  0  0  0  0  0  0  0  0  0  0  0
  196.9560  177.1700  143.3690 O   0  0  0  0  0  0  0  0  0  0  0  0
  196.5330  175.1810  144.4930 N   0  0  0  0  0  2  0  0  0  0  0  0
  196.3100  175.3590  141.9590 C   0  0  0  0  0  2  0  0  0  0  0  0
  195.0200  175.6340  139.9080 N   0  0  0  0  0  1  0  0  0  0  0  0
  195.2080  176.1380  141.2570 C   0  0  1  0  0  3  0  0  0  0  0  0
  193.9170  175.9840  142.0330 C   0  0  0  0  0  1  0  0  0  0  0  0
  197.3180  172.9670  145.0130 C   0  0  0  0  0  3  0  0  0  0  0  0
  197.1800  171.6760  145.3070 C   0  0  0  0  0  2  0  0  0  0  0  0
  188.4010  176.6780  142.5680 N   0  0  0  0  0  2  0  0  0  0  0  0
  187.8550  175.3470  142.3650 C   0  0  0  0  0  2  0  0  0  0  0  0
  188.1860  174.9000  140.0550 O   0  0  0  0  0  0  0  0  0  0  0  0
  188.5620  174.6850  141.2390 C   0  0  0  0  0  0  0  0  0  0  0  0
  189.6140  173.8060  141.5110 O   0  0  0  0  0  0  0  0  0  0  0  0
  190.2450  173.7470  142.7840 C   0  0  0  0  0  2  0  0  0  0  0  0
  190.3570  172.4670  144.8010 F   0  0  0  0  0  0  0  0  0  0  0  0
  189.8770  172.4560  143.5020 C   0  0  2  0  0  3  0  0  0  0  0  0
  190.4470  171.2610  142.7550 C   0  0  0  0  0  2  0  0  0  0  0  0
  191.6690  170.8920  143.2920 F   0  0  0  0  0  0  0  0  0  0  0  0
  1  9  2  0  0  0  0
  3  2  1  0  0  0  0
  4  3  2  0  0  0  0
  5 12  1  0  0  0  0
  5  4  2  0  0  0  0
  6 11  2  0  0  0  0
  7  3  1  0  0  0  0
  8 32  1  6  0  0  0
  8  5  1  0  0  0  0
  9  6  1  0  0  0  0
 10  1  1  6  0  0  0
 10  8  1  0  0  0  0
 10 11  1  0  0  0  0
 11  7  1  0  0  0  0
 12 13  1  0  0  0  0
 13 14  1  0  0  0  0
 16 19  1  1  0  0  0
 16 18  1  0  0  0  0
 17 15  1  1  0  0  0
 17 16  1  0  0  0  0
 17 18  1  0  0  0  0
 18 14  1  6  0  0  0
 20 21  1  6  0  0  0
 20 19  1  0  0  0  0
 22 30  1  1  0  0  0
 22 20  1  0  0  0  0
 23 24  2  0  0  0  0
 23 25  1  0  0  0  0
 25 22  1  0  0  0  0
 26 23  1  0  0  0  0
 27 28  1  0  0  0  0
 28 26  1  0  0  0  0
 28 29  1  1  0  0  0
 30 31  2  0  0  0  0
 33 32  1  0  0  0  0
 34 35  2  0  0  0  0
 35 36  1  0  0  0  0
 35 33  1  0  0  0  0
 36 37  1  0  0  0  0
 37 39  1  0  0  0  0
 39 38  1  1  0  0  0
 40 41  1  0  0  0  0
 40 39  1  0  0  0  0
M  END
>  <MODEL>
9

>  <REMARK>
 VINA RESULT:      -5.7      2.707      4.546
  Name = 
  18 active torsions:
  status: ('A' for Active; 'I' for Inactive)
    1  A    between atoms: C_4  and  C_28
    2  A    between atoms: C_4  and  C_34
    3  A    between atoms: C_5  and  C_7
    4  A    between atoms: C_7  and  N_16
    5  A    between atoms: C_7  and  C_31
    6  A    between atoms: C_8  and  C_18
    7  A    between atoms: C_8  and  C_28
    8  A    between atoms: C_9  and  C_14
    9  A    between atoms: C_10  and  C_25
   10  A    between atoms: C_14  and  C_30
   11  A    between atoms: C_20  and  C_39
   12  A    between atoms: C_22  and  N_32
   13  A    between atoms: C_22  and  C_38
   14  A    between atoms: C_25  and  C_31
   15  A    between atoms: C_26  and  N_32
   16  A    between atoms: O_27  and  C_33
   17  A    between atoms: O_27  and  C_38
   18  A    between atoms: C_33  and  C_39
                            x       y       z     vdW  Elec       q    Type
                         _______ _______ _______ _____ _____    ______ ____

>  <TORSDO>
F 18

$$$$
