=
 OpenBabel11042413483D

 30 32  0  0  1  0  0  0  0  0999 V2000
  188.7120  174.6160  140.8360 C   0  0  0  0  0  0  0  0  0  0  0  0
  189.1260  176.5600  144.9260 C   0  0  0  0  0  0  0  0  0  0  0  0
  189.0530  177.3840  146.1760 C   0  0  2  0  0  3  0  0  0  0  0  0
  188.2410  176.6520  143.7360 C   0  0  0  0  0  3  0  0  0  0  0  0
  187.8360  175.6930  141.4080 C   0  0  0  0  0  2  0  0  0  0  0  0
  190.4640  174.8460  143.8940 O   0  0  0  0  0  0  0  0  0  0  0  0
  190.2520  176.8400  146.8970 C   0  0  0  0  0  0  0  0  0  0  0  0
  189.6370  174.9130  142.7680 C   0  0  0  0  0  0  0  0  0  0  0  0
  190.6760  177.2700  148.0020 O   0  0  0  0  0  0  0  0  0  0  0  0
  190.1570  175.7070  144.9630 C   0  0  0  0  0  0  0  0  0  0  0  0
  188.5600  174.1310  139.6500 N   0  0  0  0  0  2  0  0  0  0  0  0
  190.8910  175.7980  146.1680 N   0  0  0  0  0  0  0  0  0  0  0  0
  188.5190  175.8360  142.7140 C   0  0  0  0  0  0  0  0  0  0  0  0
  189.7710  174.2020  141.7020 N   0  0  0  0  0  0  0  0  0  0  0  0
  187.7780  177.0510  146.9360 C   0  0  0  0  0  2  0  0  0  0  0  0
  185.1200  176.4280  146.1870 O   0  0  0  0  0  0  0  0  0  0  0  0
  186.7490  178.0330  146.6320 N   0  0  0  0  0  2  0  0  0  0  0  0
  185.4190  177.6500  146.2840 C   0  0  0  0  0  0  0  0  0  0  0  0
  184.2420  179.2150  144.7970 C   0  0  0  0  0  3  0  0  0  0  0  0
  184.4650  178.6690  145.9590 N   0  0  0  0  0  0  0  0  0  0  0  0
  185.9120  179.3050  143.1370 O   0  0  0  0  0  1  0  0  0  0  0  0
  184.1720  177.8970  142.6760 O   0  0  0  0  0  0  0  0  0  0  0  0
  184.8310  178.7860  143.5170 C   0  0  0  0  0  0  0  0  0  0  0  0
  192.2190  175.2530  146.4170 C   0  0  0  0  0  2  0  0  0  0  0  0
  193.2940  176.3140  146.2080 C   0  0  0  0  0  2  0  0  0  0  0  0
  194.0220  176.1020  144.9190 C   0  0  0  0  0  0  0  0  0  0  0  0
  193.4490  176.4020  143.8380 O   0  0  0  0  0  0  0  0  0  0  0  0
  195.8230  174.6600  145.9000 N   0  0  0  0  0  1  0  0  0  0  0  0
  195.3960  175.5760  144.8970 C   0  0  0  0  0  0  0  0  0  0  0  0
  196.2240  175.9400  143.9740 N   0  0  0  0  0  2  0  0  0  0  0  0
  1  5  1  0  0  0  0
  1 14  1  0  0  0  0
  2 10  2  0  0  0  0
  2  3  1  0  0  0  0
  3  7  1  0  0  0  0
  3 15  1  1  0  0  0
  4  2  1  0  0  0  0
  5 13  1  0  0  0  0
  6 10  1  0  0  0  0
  7  9  2  0  0  0  0
  8  6  1  0  0  0  0
 10 12  1  0  0  0  0
 11  1  2  0  0  0  0
 12 24  1  0  0  0  0
 12  7  1  0  0  0  0
 13  8  1  0  0  0  0
 13  4  2  0  0  0  0
 14  8  2  0  0  0  0
 16 18  2  0  0  0  0
 17 15  1  0  0  0  0
 18 17  1  0  0  0  0
 19 20  2  0  0  0  0
 20 18  1  0  0  0  0
 21 23  1  0  0  0  0
 22 23  2  0  0  0  0
 23 19  1  0  0  0  0
 25 24  1  0  0  0  0
 26 25  1  0  0  0  0
 27 26  2  0  0  0  0
 29 26  1  0  0  0  0
 29 28  1  0  0  0  0
 30 29  2  0  0  0  0
M  END
>  <MODEL>
1

>  <REMARK>
 VINA RESULT:      -6.8      0.000      0.000
  Name = 
  8 active torsions:
  status: ('A' for Active; 'I' for Inactive)
    1  A    between atoms: C_3  and  C_11
    2  A    between atoms: C_8  and  C_17
    3  A    between atoms: C_9  and  C_24
    4  A    between atoms: C_10  and  C_17
    5  A    between atoms: C_10  and  C_21
    6  A    between atoms: C_11  and  N_16
    7  A    between atoms: N_14  and  C_25
    8  A    between atoms: C_21  and  N_28
                            x       y       z     vdW  Elec       q    Type
                         _______ _______ _______ _____ _____    ______ ____

>  <TORSDO>
F 8

$$$$
=
 OpenBabel11042413483D

 30 32  0  0  1  0  0  0  0  0999 V2000
  187.1490  176.9930  140.4930 C   0  0  0  0  0  0  0  0  0  0  0  0
  188.9150  175.0880  144.2260 C   0  0  0  0  0  0  0  0  0  0  0  0
  189.5130  174.2170  145.2900 C   0  0  2  0  0  3  0  0  0  0  0  0
  188.6970  174.7410  142.7980 C   0  0  0  0  0  3  0  0  0  0  0  0
  187.7560  175.6240  140.5980 C   0  0  0  0  0  2  0  0  0  0  0  0
  187.9070  177.2540  143.9330 O   0  0  0  0  0  0  0  0  0  0  0  0
  189.3620  175.1340  146.4690 C   0  0  0  0  0  0  0  0  0  0  0  0
  187.7000  176.9480  142.5840 C   0  0  0  0  0  0  0  0  0  0  0  0
  189.6600  174.8280  147.6540 O   0  0  0  0  0  0  0  0  0  0  0  0
  188.5290  176.2700  144.7220 C   0  0  0  0  0  0  0  0  0  0  0  0
  186.6330  177.4610  139.4070 N   0  0  0  0  0  2  0  0  0  0  0  0
  188.7990  176.3890  146.1050 N   0  0  0  0  0  0  0  0  0  0  0  0
  188.1090  175.6680  142.0360 C   0  0  0  0  0  0  0  0  0  0  0  0
  187.1450  177.7260  141.7210 N   0  0  0  0  0  0  0  0  0  0  0  0
  190.9840  173.9750  144.9890 C   0  0  0  0  0  2  0  0  0  0  0  0
  192.3240  175.7340  143.2210 O   0  0  0  0  0  0  0  0  0  0  0  0
  191.7700  175.1270  145.4010 N   0  0  0  0  0  2  0  0  0  0  0  0
  192.4010  175.9890  144.4550 C   0  0  0  0  0  0  0  0  0  0  0  0
  194.4350  177.0610  145.3250 C   0  0  0  0  0  3  0  0  0  0  0  0
  193.1930  177.0840  144.9320 N   0  0  0  0  0  0  0  0  0  0  0  0
  195.4080  175.0860  146.1650 O   0  0  0  0  0  1  0  0  0  0  0  0
  196.2220  175.7750  144.1450 O   0  0  0  0  0  0  0  0  0  0  0  0
  195.3510  175.9130  145.2180 C   0  0  0  0  0  0  0  0  0  0  0  0
  188.2500  177.3900  147.0120 C   0  0  0  0  0  2  0  0  0  0  0  0
  186.7390  177.2360  147.1450 C   0  0  0  0  0  2  0  0  0  0  0  0
  186.0490  178.5610  147.0640 C   0  0  0  0  0  0  0  0  0  0  0  0
  186.2270  179.4000  147.9860 O   0  0  0  0  0  0  0  0  0  0  0  0
  185.7460  179.5830  144.7940 N   0  0  0  0  0  2  0  0  0  0  0  0
  185.1940  178.9040  145.9170 C   0  0  0  0  0  0  0  0  0  0  0  0
  183.9380  178.5960  145.9180 N   0  0  0  0  0  1  0  0  0  0  0  0
  1  5  1  0  0  0  0
  1 14  1  0  0  0  0
  2 10  2  0  0  0  0
  2  3  1  0  0  0  0
  3 15  1  6  0  0  0
  3  7  1  0  0  0  0
  4  2  1  0  0  0  0
  5 13  1  0  0  0  0
  6 10  1  0  0  0  0
  7  9  2  0  0  0  0
  8  6  1  0  0  0  0
 10 12  1  0  0  0  0
 11  1  2  0  0  0  0
 12  7  1  0  0  0  0
 12 24  1  0  0  0  0
 13  8  1  0  0  0  0
 13  4  2  0  0  0  0
 14  8  2  0  0  0  0
 15 17  1  0  0  0  0
 16 18  2  0  0  0  0
 18 20  1  0  0  0  0
 18 17  1  0  0  0  0
 20 19  2  0  0  0  0
 22 23  2  0  0  0  0
 23 19  1  0  0  0  0
 23 21  1  0  0  0  0
 24 25  1  0  0  0  0
 26 25  1  0  0  0  0
 26 27  2  0  0  0  0
 28 29  2  0  0  0  0
 29 30  1  0  0  0  0
 29 26  1  0  0  0  0
M  END
>  <MODEL>
2

>  <REMARK>
 VINA RESULT:      -6.7      2.248      7.020
  Name = 
  8 active torsions:
  status: ('A' for Active; 'I' for Inactive)
    1  A    between atoms: C_3  and  C_11
    2  A    between atoms: C_8  and  C_17
    3  A    between atoms: C_9  and  C_24
    4  A    between atoms: C_10  and  C_17
    5  A    between atoms: C_10  and  C_21
    6  A    between atoms: C_11  and  N_16
    7  A    between atoms: N_14  and  C_25
    8  A    between atoms: C_21  and  N_28
                            x       y       z     vdW  Elec       q    Type
                         _______ _______ _______ _____ _____    ______ ____

>  <TORSDO>
F 8

$$$$
=
 OpenBabel11042413483D

 30 32  0  0  1  0  0  0  0  0999 V2000
  185.3870  178.3600  146.8610 C   0  0  0  0  0  0  0  0  0  0  0  0
  186.7560  177.5490  142.6010 C   0  0  0  0  0  0  0  0  0  0  0  0
  187.4740  177.2530  141.3180 C   0  0  2  0  0  3  0  0  0  0  0  0
  187.3160  177.5020  143.9760 C   0  0  0  0  0  3  0  0  0  0  0  0
  186.7500  177.9020  146.4310 C   0  0  0  0  0  2  0  0  0  0  0  0
  184.6170  178.2940  143.4140 O   0  0  0  0  0  0  0  0  0  0  0  0
  186.3740  177.5630  140.3450 C   0  0  0  0  0  0  0  0  0  0  0  0
  185.1250  178.2490  144.7170 C   0  0  0  0  0  0  0  0  0  0  0  0
  186.5010  177.5370  139.0920 O   0  0  0  0  0  0  0  0  0  0  0  0
  185.4920  177.9280  142.3760 C   0  0  0  0  0  0  0  0  0  0  0  0
  185.0730  178.6050  148.0880 N   0  0  0  0  0  2  0  0  0  0  0  0
  185.1660  177.9340  141.0000 N   0  0  0  0  0  0  0  0  0  0  0  0
  186.4940  177.8450  144.9730 C   0  0  0  0  0  0  0  0  0  0  0  0
  184.4680  178.5520  145.7820 N   0  0  0  0  0  0  0  0  0  0  0  0
  187.8360  175.7770  141.2610 C   0  0  0  0  0  2  0  0  0  0  0  0
  188.8690  174.3780  143.4950 O   0  0  0  0  0  0  0  0  0  0  0  0
  189.2500  175.6010  141.5490 N   0  0  0  0  0  2  0  0  0  0  0  0
  189.7050  174.8610  142.6820 C   0  0  0  0  0  0  0  0  0  0  0  0
  191.9010  175.6580  143.4480 C   0  0  0  0  0  3  0  0  0  0  0  0
  191.1130  174.7600  142.9260 N   0  0  0  0  0  0  0  0  0  0  0  0
  191.0530  176.9440  145.2310 O   0  0  0  0  0  1  0  0  0  0  0  0
  191.4370  178.1070  143.3020 O   0  0  0  0  0  0  0  0  0  0  0  0
  191.4750  176.9340  144.0460 C   0  0  0  0  0  0  0  0  0  0  0  0
  184.0070  178.5700  140.3870 C   0  0  0  0  0  2  0  0  0  0  0  0
  182.7480  177.7370  140.6030 C   0  0  0  0  0  2  0  0  0  0  0  0
  181.6660  178.5460  141.2450 C   0  0  0  0  0  0  0  0  0  0  0  0
  181.8030  178.9070  142.4430 O   0  0  0  0  0  0  0  0  0  0  0  0
  180.1170  180.3200  140.3840 N   0  0  0  0  0  1  0  0  0  0  0  0
  180.4650  178.9430  140.4930 C   0  0  0  0  0  0  0  0  0  0  0  0
  179.7180  178.0520  139.9290 N   0  0  0  0  0  2  0  0  0  0  0  0
  1 11  2  0  0  0  0
  2  4  1  0  0  0  0
  3 15  1  1  0  0  0
  3  2  1  0  0  0  0
  4 13  2  0  0  0  0
  5  1  1  0  0  0  0
  6  8  1  0  0  0  0
  7 12  1  0  0  0  0
  7  3  1  0  0  0  0
  8 13  1  0  0  0  0
  8 14  2  0  0  0  0
  9  7  2  0  0  0  0
 10  2  2  0  0  0  0
 10  6  1  0  0  0  0
 12 10  1  0  0  0  0
 13  5  1  0  0  0  0
 14  1  1  0  0  0  0
 15 17  1  0  0  0  0
 17 18  1  0  0  0  0
 18 20  1  0  0  0  0
 18 16  2  0  0  0  0
 19 23  1  0  0  0  0
 20 19  2  0  0  0  0
 22 23  2  0  0  0  0
 23 21  1  0  0  0  0
 24 25  1  0  0  0  0
 24 12  1  0  0  0  0
 25 26  1  0  0  0  0
 26 27  2  0  0  0  0
 28 29  1  0  0  0  0
 29 26  1  0  0  0  0
 30 29  2  0  0  0  0
M  END
>  <MODEL>
3

>  <REMARK>
 VINA RESULT:      -6.5      3.128      9.118
  Name = 
  8 active torsions:
  status: ('A' for Active; 'I' for Inactive)
    1  A    between atoms: C_3  and  C_11
    2  A    between atoms: C_8  and  C_17
    3  A    between atoms: C_9  and  C_24
    4  A    between atoms: C_10  and  C_17
    5  A    between atoms: C_10  and  C_21
    6  A    between atoms: C_11  and  N_16
    7  A    between atoms: N_14  and  C_25
    8  A    between atoms: C_21  and  N_28
                            x       y       z     vdW  Elec       q    Type
                         _______ _______ _______ _____ _____    ______ ____

>  <TORSDO>
F 8

$$$$
=
 OpenBabel11042413483D

 30 32  0  0  1  0  0  0  0  0999 V2000
  190.2270  172.0450  141.8320 C   0  0  0  0  0  0  0  0  0  0  0  0
  189.4260  174.6190  145.4940 C   0  0  0  0  0  0  0  0  0  0  0  0
  189.2000  175.2160  146.8510 C   0  0  2  0  0  3  0  0  0  0  0  0
  189.8680  173.2350  145.1830 C   0  0  0  0  0  3  0  0  0  0  0  0
  190.3690  171.6280  143.2670 C   0  0  0  0  0  2  0  0  0  0  0  0
  189.2260  175.1620  143.1580 O   0  0  0  0  0  0  0  0  0  0  0  0
  188.7040  176.5720  146.4410 C   0  0  0  0  0  0  0  0  0  0  0  0
  189.6460  173.8650  142.8460 C   0  0  0  0  0  0  0  0  0  0  0  0
  188.2980  177.4550  147.2420 O   0  0  0  0  0  0  0  0  0  0  0  0
  189.1300  175.4910  144.5220 C   0  0  0  0  0  0  0  0  0  0  0  0
  190.4390  171.2520  140.8360 N   0  0  0  0  0  2  0  0  0  0  0  0
  188.7020  176.7400  145.0280 N   0  0  0  0  0  0  0  0  0  0  0  0
  189.9650  172.9100  143.8900 C   0  0  0  0  0  0  0  0  0  0  0  0
  189.7870  173.3940  141.6550 N   0  0  0  0  0  0  0  0  0  0  0  0
  190.5260  175.3340  147.5860 C   0  0  0  0  0  2  0  0  0  0  0  0
  193.0240  174.4980  146.5470 O   0  0  0  0  0  0  0  0  0  0  0  0
  191.4380  176.1810  146.8320 N   0  0  0  0  0  2  0  0  0  0  0  0
  192.6730  175.6880  146.3140 C   0  0  0  0  0  0  0  0  0  0  0  0
  193.6780  176.7260  144.3240 C   0  0  0  0  0  3  0  0  0  0  0  0
  193.5400  176.5870  145.6130 N   0  0  0  0  0  0  0  0  0  0  0  0
  191.9470  176.7490  142.7250 O   0  0  0  0  0  0  0  0  0  0  0  0
  192.9660  174.7240  143.0110 O   0  0  0  0  0  1  0  0  0  0  0  0
  192.8470  176.0790  143.2950 C   0  0  0  0  0  0  0  0  0  0  0  0
  188.0250  177.7920  144.2790 C   0  0  0  0  0  2  0  0  0  0  0  0
  186.6690  177.3150  143.7710 C   0  0  0  0  0  2  0  0  0  0  0  0
  185.5550  178.1170  144.3650 C   0  0  0  0  0  0  0  0  0  0  0  0
  184.8340  178.8170  143.6060 O   0  0  0  0  0  0  0  0  0  0  0  0
  184.8750  176.8620  146.4270 N   0  0  0  0  0  2  0  0  0  0  0  0
  185.2760  178.0810  145.8100 C   0  0  0  0  0  0  0  0  0  0  0  0
  185.3910  179.1490  146.5280 N   0  0  0  0  0  1  0  0  0  0  0  0
  1  5  1  0  0  0  0
  2  3  1  0  0  0  0
  3 15  1  1  0  0  0
  4  2  1  0  0  0  0
  5 13  1  0  0  0  0
  6 10  1  0  0  0  0
  7  3  1  0  0  0  0
  7  9  2  0  0  0  0
  8  6  1  0  0  0  0
  8 13  1  0  0  0  0
 10 12  1  0  0  0  0
 10  2  2  0  0  0  0
 11  1  2  0  0  0  0
 12  7  1  0  0  0  0
 13  4  2  0  0  0  0
 14  1  1  0  0  0  0
 14  8  2  0  0  0  0
 17 15  1  0  0  0  0
 18 16  2  0  0  0  0
 18 17  1  0  0  0  0
 19 20  2  0  0  0  0
 20 18  1  0  0  0  0
 21 23  2  0  0  0  0
 22 23  1  0  0  0  0
 23 19  1  0  0  0  0
 24 12  1  0  0  0  0
 25 24  1  0  0  0  0
 25 26  1  0  0  0  0
 26 29  1  0  0  0  0
 27 26  2  0  0  0  0
 29 28  2  0  0  0  0
 29 30  1  0  0  0  0
M  END
>  <MODEL>
4

>  <REMARK>
 VINA RESULT:      -6.4      1.970      6.472
  Name = 
  8 active torsions:
  status: ('A' for Active; 'I' for Inactive)
    1  A    between atoms: C_3  and  C_11
    2  A    between atoms: C_8  and  C_17
    3  A    between atoms: C_9  and  C_24
    4  A    between atoms: C_10  and  C_17
    5  A    between atoms: C_10  and  C_21
    6  A    between atoms: C_11  and  N_16
    7  A    between atoms: N_14  and  C_25
    8  A    between atoms: C_21  and  N_28
                            x       y       z     vdW  Elec       q    Type
                         _______ _______ _______ _____ _____    ______ ____

>  <TORSDO>
F 8

$$$$
=
 OpenBabel11042413483D

 30 32  0  0  1  0  0  0  0  0999 V2000
  186.9290  176.9530  140.3780 C   0  0  0  0  0  0  0  0  0  0  0  0
  188.6250  176.3860  144.5590 C   0  0  0  0  0  0  0  0  0  0  0  0
  189.0420  176.4500  145.9980 C   0  0  2  0  0  3  0  0  0  0  0  0
  187.6610  177.2760  143.8620 C   0  0  0  0  0  3  0  0  0  0  0  0
  186.5930  177.7610  141.5980 C   0  0  0  0  0  2  0  0  0  0  0  0
  189.0900  175.1740  142.5330 O   0  0  0  0  0  0  0  0  0  0  0  0
  190.0620  175.3490  146.0060 C   0  0  0  0  0  0  0  0  0  0  0  0
  188.1810  175.9980  141.8610 C   0  0  0  0  0  0  0  0  0  0  0  0
  190.7740  175.0430  146.9990 O   0  0  0  0  0  0  0  0  0  0  0  0
  189.2770  175.4170  143.9050 C   0  0  0  0  0  0  0  0  0  0  0  0
  186.4360  177.1900  139.2100 N   0  0  0  0  0  2  0  0  0  0  0  0
  190.1690  174.7060  144.7410 N   0  0  0  0  0  0  0  0  0  0  0  0
  187.4720  177.0540  142.5580 C   0  0  0  0  0  0  0  0  0  0  0  0
  187.8900  175.9190  140.6090 N   0  0  0  0  0  0  0  0  0  0  0  0
  187.8630  176.0900  146.8900 C   0  0  0  0  0  2  0  0  0  0  0  0
  185.0980  176.2260  146.2990 O   0  0  0  0  0  0  0  0  0  0  0  0
  187.0250  177.2600  147.1010 N   0  0  0  0  0  2  0  0  0  0  0  0
  185.6290  177.2530  146.8040 C   0  0  0  0  0  0  0  0  0  0  0  0
  184.5430  179.3460  146.1100 C   0  0  0  0  0  3  0  0  0  0  0  0
  184.8710  178.4530  147.0000 N   0  0  0  0  0  0  0  0  0  0  0  0
  185.5300  180.0480  144.0880 O   0  0  0  0  0  1  0  0  0  0  0  0
  184.0530  178.3160  143.8880 O   0  0  0  0  0  0  0  0  0  0  0  0
  184.7570  179.2340  144.6570 C   0  0  0  0  0  0  0  0  0  0  0  0
  191.2370  173.8130  144.3080 C   0  0  0  0  0  2  0  0  0  0  0  0
  192.4160  174.6020  143.7500 C   0  0  0  0  0  2  0  0  0  0  0  0
  193.5010  174.7490  144.7690 C   0  0  0  0  0  0  0  0  0  0  0  0
  193.6910  173.8190  145.5970 O   0  0  0  0  0  0  0  0  0  0  0  0
  194.0190  177.0440  145.6350 N   0  0  0  0  0  1  0  0  0  0  0  0
  194.3600  175.9430  144.8000 C   0  0  0  0  0  0  0  0  0  0  0  0
  195.4260  176.0040  144.0710 N   0  0  0  0  0  2  0  0  0  0  0  0
  1 14  1  0  0  0  0
  1  5  1  0  0  0  0
  2  3  1  0  0  0  0
  3  7  1  0  0  0  0
  3 15  1  1  0  0  0
  4  2  1  0  0  0  0
  5 13  1  0  0  0  0
  6 10  1  0  0  0  0
  7  9  2  0  0  0  0
  8  6  1  0  0  0  0
  8 13  1  0  0  0  0
 10  2  2  0  0  0  0
 10 12  1  0  0  0  0
 11  1  2  0  0  0  0
 12  7  1  0  0  0  0
 13  4  2  0  0  0  0
 14  8  2  0  0  0  0
 15 17  1  0  0  0  0
 16 18  2  0  0  0  0
 18 20  1  0  0  0  0
 18 17  1  0  0  0  0
 19 20  2  0  0  0  0
 21 23  1  0  0  0  0
 22 23  2  0  0  0  0
 23 19  1  0  0  0  0
 24 12  1  0  0  0  0
 25 24  1  0  0  0  0
 25 26  1  0  0  0  0
 26 29  1  0  0  0  0
 26 27  2  0  0  0  0
 29 28  1  0  0  0  0
 30 29  2  0  0  0  0
M  END
>  <MODEL>
5

>  <REMARK>
 VINA RESULT:      -6.4      1.742      1.950
  Name = 
  8 active torsions:
  status: ('A' for Active; 'I' for Inactive)
    1  A    between atoms: C_3  and  C_11
    2  A    between atoms: C_8  and  C_17
    3  A    between atoms: C_9  and  C_24
    4  A    between atoms: C_10  and  C_17
    5  A    between atoms: C_10  and  C_21
    6  A    between atoms: C_11  and  N_16
    7  A    between atoms: N_14  and  C_25
    8  A    between atoms: C_21  and  N_28
                            x       y       z     vdW  Elec       q    Type
                         _______ _______ _______ _____ _____    ______ ____

>  <TORSDO>
F 8

$$$$
=
 OpenBabel11042413483D

 30 32  0  0  1  0  0  0  0  0999 V2000
  190.9530  177.0760  147.6760 C   0  0  0  0  0  0  0  0  0  0  0  0
  188.5200  176.7490  143.8480 C   0  0  0  0  0  0  0  0  0  0  0  0
  187.4970  176.7440  142.7520 C   0  0  2  0  0  3  0  0  0  0  0  0
  188.3620  177.2910  145.2220 C   0  0  0  0  0  3  0  0  0  0  0  0
  189.5540  177.5750  147.4600 C   0  0  0  0  0  2  0  0  0  0  0  0
  190.7510  175.9830  144.3230 O   0  0  0  0  0  0  0  0  0  0  0  0
  188.2680  175.9980  141.7020 C   0  0  0  0  0  0  0  0  0  0  0  0
  190.6240  176.4930  145.6200 C   0  0  0  0  0  0  0  0  0  0  0  0
  187.8040  175.6620  140.5810 O   0  0  0  0  0  0  0  0  0  0  0  0
  189.6490  176.1410  143.4640 C   0  0  0  0  0  0  0  0  0  0  0  0
  191.5760  177.1710  148.8020 N   0  0  0  0  0  2  0  0  0  0  0  0
  189.5840  175.6710  142.1320 N   0  0  0  0  0  0  0  0  0  0  0  0
  189.4040  177.1500  146.0480 C   0  0  0  0  0  0  0  0  0  0  0  0
  191.5280  176.4350  146.5340 N   0  0  0  0  0  0  0  0  0  0  0  0
  187.2230  178.1700  142.2990 C   0  0  0  0  0  2  0  0  0  0  0  0
  184.4720  177.5460  142.5450 O   0  0  0  0  0  0  0  0  0  0  0  0
  186.3040  178.8160  143.2230 N   0  0  0  0  0  2  0  0  0  0  0  0
  184.9320  178.4350  143.3140 C   0  0  0  0  0  0  0  0  0  0  0  0
  184.0220  179.0370  145.5170 C   0  0  0  0  0  3  0  0  0  0  0  0
  184.0730  179.1400  144.2200 N   0  0  0  0  0  0  0  0  0  0  0  0
  184.7840  177.0280  146.4860 O   0  0  0  0  0  0  0  0  0  0  0  0
  185.9580  178.8940  147.0890 O   0  0  0  0  0  1  0  0  0  0  0  0
  184.9550  178.2680  146.3580 C   0  0  0  0  0  0  0  0  0  0  0  0
  190.4910  174.7180  141.5050 C   0  0  0  0  0  2  0  0  0  0  0  0
  190.3370  173.3310  142.1180 C   0  0  0  0  0  2  0  0  0  0  0  0
  189.2020  172.5830  141.4920 C   0  0  0  0  0  0  0  0  0  0  0  0
  188.2020  172.2880  142.1980 O   0  0  0  0  0  0  0  0  0  0  0  0
  188.1920  172.6600  139.1980 N   0  0  0  0  0  2  0  0  0  0  0  0
  189.2280  172.2150  140.0680 C   0  0  0  0  0  0  0  0  0  0  0  0
  190.1850  171.4860  139.5950 N   0  0  0  0  0  1  0  0  0  0  0  0
  1 11  2  0  0  0  0
  2  4  1  0  0  0  0
  3 15  1  6  0  0  0
  3  2  1  0  0  0  0
  4 13  2  0  0  0  0
  5  1  1  0  0  0  0
  6  8  1  0  0  0  0
  7 12  1  0  0  0  0
  7  3  1  0  0  0  0
  8 13  1  0  0  0  0
  8 14  2  0  0  0  0
  9  7  2  0  0  0  0
 10  2  2  0  0  0  0
 10  6  1  0  0  0  0
 12 10  1  0  0  0  0
 13  5  1  0  0  0  0
 14  1  1  0  0  0  0
 15 17  1  0  0  0  0
 16 18  2  0  0  0  0
 17 18  1  0  0  0  0
 18 20  1  0  0  0  0
 19 23  1  0  0  0  0
 20 19  2  0  0  0  0
 23 21  2  0  0  0  0
 23 22  1  0  0  0  0
 24 25  1  0  0  0  0
 24 12  1  0  0  0  0
 26 25  1  0  0  0  0
 26 27  2  0  0  0  0
 28 29  2  0  0  0  0
 29 26  1  0  0  0  0
 30 29  1  0  0  0  0
M  END
>  <MODEL>
6

>  <REMARK>
 VINA RESULT:      -6.3      2.358      5.549
  Name = 
  8 active torsions:
  status: ('A' for Active; 'I' for Inactive)
    1  A    between atoms: C_3  and  C_11
    2  A    between atoms: C_8  and  C_17
    3  A    between atoms: C_9  and  C_24
    4  A    between atoms: C_10  and  C_17
    5  A    between atoms: C_10  and  C_21
    6  A    between atoms: C_11  and  N_16
    7  A    between atoms: N_14  and  C_25
    8  A    between atoms: C_21  and  N_28
                            x       y       z     vdW  Elec       q    Type
                         _______ _______ _______ _____ _____    ______ ____

>  <TORSDO>
F 8

$$$$
=
 OpenBabel11042413483D

 30 32  0  0  1  0  0  0  0  0999 V2000
  190.6160  176.8810  147.2560 C   0  0  0  0  0  0  0  0  0  0  0  0
  188.3000  175.8630  143.4780 C   0  0  0  0  0  0  0  0  0  0  0  0
  187.2990  175.5930  142.3950 C   0  0  2  0  0  3  0  0  0  0  0  0
  188.0360  176.4390  144.8220 C   0  0  0  0  0  3  0  0  0  0  0  0
  189.1460  177.0790  147.0270 C   0  0  0  0  0  2  0  0  0  0  0  0
  190.6390  175.5850  143.9710 O   0  0  0  0  0  0  0  0  0  0  0  0
  188.2030  174.9590  141.3790 C   0  0  0  0  0  0  0  0  0  0  0  0
  190.4110  176.1310  145.2380 C   0  0  0  0  0  0  0  0  0  0  0  0
  187.8160  174.4750  140.2830 O   0  0  0  0  0  0  0  0  0  0  0  0
  189.5270  175.4710  143.1160 C   0  0  0  0  0  0  0  0  0  0  0  0
  191.2070  177.1610  148.3690 N   0  0  0  0  0  2  0  0  0  0  0  0
  189.5580  174.9250  141.8130 N   0  0  0  0  0  0  0  0  0  0  0  0
  189.0840  176.5550  145.6430 C   0  0  0  0  0  0  0  0  0  0  0  0
  191.3090  176.3050  146.1450 N   0  0  0  0  0  0  0  0  0  0  0  0
  186.7460  176.9090  141.8670 C   0  0  0  0  0  2  0  0  0  0  0  0
  186.3670  179.4190  143.1200 O   0  0  0  0  0  0  0  0  0  0  0  0
  185.5640  177.2890  142.6250 N   0  0  0  0  0  2  0  0  0  0  0  0
  185.4260  178.5830  143.2110 C   0  0  0  0  0  0  0  0  0  0  0  0
  184.0490  178.6650  145.2460 C   0  0  0  0  0  3  0  0  0  0  0  0
  184.2500  178.8770  143.9770 N   0  0  0  0  0  0  0  0  0  0  0  0
  185.9110  179.0280  146.6460 O   0  0  0  0  0  1  0  0  0  0  0  0
  185.1570  176.8710  146.5850 O   0  0  0  0  0  0  0  0  0  0  0  0
  185.0600  178.2070  146.2140 C   0  0  0  0  0  0  0  0  0  0  0  0
  190.6370  174.1380  141.2280 C   0  0  0  0  0  2  0  0  0  0  0  0
  190.5260  172.6720  141.6330 C   0  0  0  0  0  2  0  0  0  0  0  0
  191.7010  172.2450  142.4540 C   0  0  0  0  0  0  0  0  0  0  0  0
  192.7800  171.9560  141.8710 O   0  0  0  0  0  0  0  0  0  0  0  0
  190.3580  172.2460  144.5710 N   0  0  0  0  0  2  0  0  0  0  0  0
  191.6230  172.1820  143.9220 C   0  0  0  0  0  0  0  0  0  0  0  0
  192.6970  172.0710  144.6320 N   0  0  0  0  0  1  0  0  0  0  0  0
  1 11  2  0  0  0  0
  2  4  1  0  0  0  0
  3 15  1  6  0  0  0
  3  2  1  0  0  0  0
  4 13  2  0  0  0  0
  5  1  1  0  0  0  0
  6  8  1  0  0  0  0
  7 12  1  0  0  0  0
  7  3  1  0  0  0  0
  8 13  1  0  0  0  0
  8 14  2  0  0  0  0
  9  7  2  0  0  0  0
 10  2  2  0  0  0  0
 10  6  1  0  0  0  0
 12 10  1  0  0  0  0
 13  5  1  0  0  0  0
 14  1  1  0  0  0  0
 15 17  1  0  0  0  0
 16 18  2  0  0  0  0
 17 18  1  0  0  0  0
 18 20  1  0  0  0  0
 19 23  1  0  0  0  0
 20 19  2  0  0  0  0
 23 22  2  0  0  0  0
 23 21  1  0  0  0  0
 24 25  1  0  0  0  0
 24 12  1  0  0  0  0
 25 26  1  0  0  0  0
 26 29  1  0  0  0  0
 27 26  2  0  0  0  0
 29 28  2  0  0  0  0
 29 30  1  0  0  0  0
M  END
>  <MODEL>
7

>  <REMARK>
 VINA RESULT:      -6.2      2.368      4.893
  Name = 
  8 active torsions:
  status: ('A' for Active; 'I' for Inactive)
    1  A    between atoms: C_3  and  C_11
    2  A    between atoms: C_8  and  C_17
    3  A    between atoms: C_9  and  C_24
    4  A    between atoms: C_10  and  C_17
    5  A    between atoms: C_10  and  C_21
    6  A    between atoms: C_11  and  N_16
    7  A    between atoms: N_14  and  C_25
    8  A    between atoms: C_21  and  N_28
                            x       y       z     vdW  Elec       q    Type
                         _______ _______ _______ _____ _____    ______ ____

>  <TORSDO>
F 8

$$$$
=
 OpenBabel11042413483D

 30 32  0  0  1  0  0  0  0  0999 V2000
  185.4680  178.0670  147.0550 C   0  0  0  0  0  0  0  0  0  0  0  0
  188.2540  175.7740  144.2880 C   0  0  0  0  0  0  0  0  0  0  0  0
  188.9380  175.0040  143.1980 C   0  0  2  0  0  3  0  0  0  0  0  0
  186.8880  176.3570  144.2560 C   0  0  0  0  0  3  0  0  0  0  0  0
  185.1780  177.6410  145.6450 C   0  0  0  0  0  2  0  0  0  0  0  0
  188.5940  176.5000  146.5580 O   0  0  0  0  0  0  0  0  0  0  0  0
  190.2150  174.6590  143.9070 C   0  0  0  0  0  0  0  0  0  0  0  0
  187.3120  177.0600  146.5440 C   0  0  0  0  0  0  0  0  0  0  0  0
  191.1250  173.9350  143.4250 O   0  0  0  0  0  0  0  0  0  0  0  0
  189.0210  175.8570  145.3820 C   0  0  0  0  0  0  0  0  0  0  0  0
  184.6170  178.6880  147.8000 N   0  0  0  0  0  2  0  0  0  0  0  0
  190.2700  175.2140  145.2170 N   0  0  0  0  0  0  0  0  0  0  0  0
  186.4700  176.9730  145.3660 C   0  0  0  0  0  0  0  0  0  0  0  0
  186.7610  177.6810  147.5280 N   0  0  0  0  0  0  0  0  0  0  0  0
  189.2150  175.9220  142.0180 C   0  0  0  0  0  2  0  0  0  0  0  0
  188.2120  178.4580  141.2580 O   0  0  0  0  0  0  0  0  0  0  0  0
  187.9920  176.1390  141.2610 N   0  0  0  0  0  2  0  0  0  0  0  0
  187.5560  177.4460  140.8880 C   0  0  0  0  0  0  0  0  0  0  0  0
  185.1550  177.9170  140.6540 C   0  0  0  0  0  3  0  0  0  0  0  0
  186.3210  177.5890  140.1750 N   0  0  0  0  0  0  0  0  0  0  0  0
  183.8720  177.9160  142.6310 O   0  0  0  0  0  0  0  0  0  0  0  0
  185.6580  179.3410  142.6430 O   0  0  0  0  0  1  0  0  0  0  0  0
  184.8830  178.3640  142.0300 C   0  0  0  0  0  0  0  0  0  0  0  0
  191.2040  174.8510  146.2750 C   0  0  0  0  0  2  0  0  0  0  0  0
  192.1730  175.9920  146.5630 C   0  0  0  0  0  2  0  0  0  0  0  0
  193.0960  176.2250  145.4100 C   0  0  0  0  0  0  0  0  0  0  0  0
  192.8850  177.2050  144.6470 O   0  0  0  0  0  0  0  0  0  0  0  0
  195.2910  175.2580  146.1400 N   0  0  0  0  0  1  0  0  0  0  0  0
  194.2520  175.3480  145.1700 C   0  0  0  0  0  0  0  0  0  0  0  0
  194.3370  174.6540  144.0820 N   0  0  0  0  0  2  0  0  0  0  0  0
  1 14  1  0  0  0  0
  1 11  2  0  0  0  0
  2 10  2  0  0  0  0
  3 15  1  6  0  0  0
  3  7  1  0  0  0  0
  3  2  1  0  0  0  0
  4  2  1  0  0  0  0
  4 13  2  0  0  0  0
  5  1  1  0  0  0  0
  7 12  1  0  0  0  0
  8  6  1  0  0  0  0
  8 14  2  0  0  0  0
  9  7  2  0  0  0  0
 10  6  1  0  0  0  0
 12 10  1  0  0  0  0
 12 24  1  0  0  0  0
 13  5  1  0  0  0  0
 13  8  1  0  0  0  0
 17 15  1  0  0  0  0
 18 16  2  0  0  0  0
 18 17  1  0  0  0  0
 19 23  1  0  0  0  0
 20 19  2  0  0  0  0
 20 18  1  0  0  0  0
 23 21  2  0  0  0  0
 23 22  1  0  0  0  0
 24 25  1  0  0  0  0
 26 25  1  0  0  0  0
 27 26  2  0  0  0  0
 29 26  1  0  0  0  0
 29 28  1  0  0  0  0
 30 29  2  0  0  0  0
M  END
>  <MODEL>
8

>  <REMARK>
 VINA RESULT:      -6.2      1.688      4.406
  Name = 
  8 active torsions:
  status: ('A' for Active; 'I' for Inactive)
    1  A    between atoms: C_3  and  C_11
    2  A    between atoms: C_8  and  C_17
    3  A    between atoms: C_9  and  C_24
    4  A    between atoms: C_10  and  C_17
    5  A    between atoms: C_10  and  C_21
    6  A    between atoms: C_11  and  N_16
    7  A    between atoms: N_14  and  C_25
    8  A    between atoms: C_21  and  N_28
                            x       y       z     vdW  Elec       q    Type
                         _______ _______ _______ _____ _____    ______ ____

>  <TORSDO>
F 8

$$$$
=
 OpenBabel11042413483D

 30 32  0  0  1  0  0  0  0  0999 V2000
  185.5430  177.9290  140.9420 C   0  0  0  0  0  0  0  0  0  0  0  0
  188.9550  177.0220  143.8070 C   0  0  0  0  0  0  0  0  0  0  0  0
  189.9670  176.9440  144.9110 C   0  0  2  0  0  3  0  0  0  0  0  0
  187.7380  177.8740  143.7620 C   0  0  0  0  0  3  0  0  0  0  0  0
  185.7480  178.5220  142.3060 C   0  0  0  0  0  2  0  0  0  0  0  0
  188.5230  176.1540  141.6050 O   0  0  0  0  0  0  0  0  0  0  0  0
  190.9360  175.9830  144.2860 C   0  0  0  0  0  0  0  0  0  0  0  0
  187.3710  176.9440  141.5460 C   0  0  0  0  0  0  0  0  0  0  0  0
  192.0310  175.6370  144.8030 O   0  0  0  0  0  0  0  0  0  0  0  0
  189.2930  176.2340  142.7790 C   0  0  0  0  0  0  0  0  0  0  0  0
  184.5670  178.2570  140.1630 N   0  0  0  0  0  2  0  0  0  0  0  0
  190.4980  175.5310  143.0100 N   0  0  0  0  0  0  0  0  0  0  0  0
  186.9970  177.8050  142.6520 C   0  0  0  0  0  0  0  0  0  0  0  0
  186.5540  176.9970  140.5520 N   0  0  0  0  0  0  0  0  0  0  0  0
  189.3310  176.3300  146.1490 C   0  0  0  0  0  2  0  0  0  0  0  0
  186.6080  176.2370  146.9160 O   0  0  0  0  0  0  0  0  0  0  0  0
  188.6490  177.3590  146.9180 N   0  0  0  0  0  2  0  0  0  0  0  0
  187.2780  177.2370  147.2940 C   0  0  0  0  0  0  0  0  0  0  0  0
  185.7460  179.1360  147.5980 C   0  0  0  0  0  3  0  0  0  0  0  0
  186.6590  178.3070  148.0190 N   0  0  0  0  0  0  0  0  0  0  0  0
  184.0940  178.2290  146.1830 O   0  0  0  0  0  1  0  0  0  0  0  0
  185.4450  179.7930  145.2080 O   0  0  0  0  0  0  0  0  0  0  0  0
  185.0360  179.0540  146.3110 C   0  0  0  0  0  0  0  0  0  0  0  0
  191.3020  174.8380  142.0110 C   0  0  0  0  0  2  0  0  0  0  0  0
  191.1970  173.3260  142.1770 C   0  0  0  0  0  2  0  0  0  0  0  0
  189.8810  172.8160  141.6820 C   0  0  0  0  0  0  0  0  0  0  0  0
  189.0770  172.3040  142.5050 O   0  0  0  0  0  0  0  0  0  0  0  0
  190.4900  172.7420  139.2510 N   0  0  0  0  0  2  0  0  0  0  0  0
  189.5060  172.9250  140.2640 C   0  0  0  0  0  0  0  0  0  0  0  0
  188.2870  173.1870  139.9250 N   0  0  0  0  0  1  0  0  0  0  0  0
  1  5  1  0  0  0  0
  2  3  1  0  0  0  0
  3 15  1  1  0  0  0
  4  2  1  0  0  0  0
  5 13  1  0  0  0  0
  6 10  1  0  0  0  0
  7  9  2  0  0  0  0
  7  3  1  0  0  0  0
  8  6  1  0  0  0  0
  8 13  1  0  0  0  0
 10 12  1  0  0  0  0
 10  2  2  0  0  0  0
 11  1  2  0  0  0  0
 12  7  1  0  0  0  0
 13  4  2  0  0  0  0
 14  1  1  0  0  0  0
 14  8  2  0  0  0  0
 15 17  1  0  0  0  0
 16 18  2  0  0  0  0
 17 18  1  0  0  0  0
 18 20  1  0  0  0  0
 19 20  2  0  0  0  0
 21 23  1  0  0  0  0
 22 23  2  0  0  0  0
 23 19  1  0  0  0  0
 24 25  1  0  0  0  0
 24 12  1  0  0  0  0
 26 25  1  0  0  0  0
 26 27  2  0  0  0  0
 28 29  2  0  0  0  0
 29 26  1  0  0  0  0
 30 29  1  0  0  0  0
M  END
>  <MODEL>
9

>  <REMARK>
 VINA RESULT:      -6.2      2.614      4.395
  Name = 
  8 active torsions:
  status: ('A' for Active; 'I' for Inactive)
    1  A    between atoms: C_3  and  C_11
    2  A    between atoms: C_8  and  C_17
    3  A    between atoms: C_9  and  C_24
    4  A    between atoms: C_10  and  C_17
    5  A    between atoms: C_10  and  C_21
    6  A    between atoms: C_11  and  N_16
    7  A    between atoms: N_14  and  C_25
    8  A    between atoms: C_21  and  N_28
                            x       y       z     vdW  Elec       q    Type
                         _______ _______ _______ _____ _____    ______ ____

>  <TORSDO>
F 8

$$$$
