=
 OpenBabel11042414303D

 52 55  0  0  1  0  0  0  0  0999 V2000
  194.4030  176.1970  143.8260 C   0  0  0  0  0  2  0  0  0  0  0  0
  196.4400  171.6840  145.3070 C   0  0  1  0  0  3  0  0  0  0  0  0
  195.4080  173.8440  145.4420 C   0  0  1  0  0  3  0  0  0  0  0  0
  193.6840  175.6180  145.0050 C   0  0  0  0  0  0  0  0  0  0  0  0
  195.7870  173.4570  142.9220 C   0  0  0  0  0  2  0  0  0  0  0  0
  196.1160  174.3230  144.1380 C   0  0  1  0  0  3  0  0  0  0  0  0
  197.7100  172.2070  142.0130 C   0  0  0  0  0  3  0  0  0  0  0  0
  195.8850  175.8220  143.8870 C   0  0  1  0  0  3  0  0  0  0  0  0
  192.3830  176.1040  145.5340 C   0  0  0  0  0  3  0  0  0  0  0  0
  196.7150  172.2780  142.8940 C   0  0  0  0  0  0  0  0  0  0  0  0
  196.5430  171.1590  143.8730 C   0  0  0  0  0  2  0  0  0  0  0  0
  194.1030  174.5590  145.6850 C   0  0  2  0  0  3  0  0  0  0  0  0
  193.1790  174.2770  146.7710 C   0  0  0  0  0  3  0  0  0  0  0  0
  195.1800  172.3970  145.4790 N   0  0  0  0  0  2  0  0  0  0  0  0
  192.1890  175.1560  146.6730 C   0  0  0  0  0  0  0  0  0  0  0  0
  196.2500  176.6120  141.4480 N   0  0  0  0  0  2  0  0  0  0  0  0
  196.7310  176.3990  142.7830 C   0  0  0  0  0  0  0  0  0  0  0  0
  197.9390  176.6490  143.0350 O   0  0  0  0  0  0  0  0  0  0  0  0
  194.8600  176.5050  141.0270 C   0  0  0  0  0  2  0  0  0  0  0  0
  194.6210  175.1820  140.3150 C   0  0  0  0  0  2  0  0  0  0  0  0
  193.1740  174.7340  140.4560 C   0  0  0  0  0  2  0  0  0  0  0  0
  193.0350  173.7460  141.6020 C   0  0  0  0  0  2  0  0  0  0  0  0
  192.3920  172.4850  141.1240 C   0  0  0  0  0  0  0  0  0  0  0  0
  192.9670  171.3080  141.3660 C   0  0  0  0  0  2  0  0  0  0  0  0
  191.0110  172.5380  140.5680 C   0  0  0  0  0  2  0  0  0  0  0  0
  190.0780  172.4860  141.6060 O   0  0  0  0  0  0  0  0  0  0  0  0
  189.1060  173.8620  141.4110 P   0  0  2  0  0  0  0  0  0  0  0  0
  187.5540  173.5300  142.0000 O   0  0  0  0  0  1  0  0  0  0  0  0
  189.0050  174.2130  139.9430 O   0  0  0  0  0  0  0  0  0  0  0  0
  189.7670  175.1770  142.2560 O   0  0  0  0  0  0  0  0  0  0  0  0
  188.6780  175.8140  142.8530 C   0  0  0  0  0  2  0  0  0  0  0  0
  189.6140  177.9350  144.0970 C   0  0  0  0  0  2  0  0  0  0  0  0
  190.3850  177.6550  142.8160 C   0  0  0  0  0  2  0  0  0  0  0  0
  188.9160  177.3160  142.9040 C   0  0  0  0  0  0  0  0  0  0  0  0
  188.1500  178.1580  142.0840 O   0  0  0  0  0  0  0  0  0  0  0  0
  187.2060  177.3460  141.4440 C   0  0  0  0  0  1  0  0  0  0  0  0
  197.5730  173.0620  139.7690 O   0  0  0  0  0  1  0  0  0  0  0  0
  197.9410  173.2390  141.0580 N   0  0  0  0  0  2  0  0  0  0  0  0
  196.5550  170.5460  146.3190 C   0  0  0  0  0  2  0  0  0  0  0  0
  195.2390  169.8080  146.5140 C   0  0  0  0  0  1  0  0  0  0  0  0
  191.0360  175.2240  147.6200 C   0  0  0  0  0  2  0  0  0  0  0  0
  189.7410  175.1820  146.8840 C   0  0  0  0  0  0  0  0  0  0  0  0
  189.4900  174.2190  146.1100 O   0  0  0  0  0  0  0  0  0  0  0  0
  188.7820  176.2200  147.0930 N   0  0  0  0  0  2  0  0  0  0  0  0
  187.5080  176.2150  146.4550 C   0  0  0  0  0  3  0  0  0  0  0  0
  186.5400  177.0020  146.9070 C   0  0  0  0  0  3  0  0  0  0  0  0
  184.4280  178.0810  146.8110 O   0  0  0  0  0  1  0  0  0  0  0  0
  185.1820  177.0330  146.2770 C   0  0  1  0  0  3  0  0  0  0  0  0
  185.2640  177.1790  144.7620 C   0  0  0  0  0  2  0  0  0  0  0  0
  185.0070  178.5870  144.3480 C   0  0  0  0  0  0  0  0  0  0  0  0
  183.9050  178.9020  143.8290 O   0  0  0  0  0  0  0  0  0  0  0  0
  185.9920  179.5500  144.5210 O   0  0  0  0  0  1  0  0  0  0  0  0
  1  8  1  0  0  0  0
  1  4  1  0  0  0  0
  2 14  1  0  0  0  0
  2 39  1  1  0  0  0
  3 14  1  6  0  0  0
  3 12  1  0  0  0  0
  4  9  2  0  0  0  0
  4 12  1  0  0  0  0
  6  5  1  6  0  0  0
  6  3  1  0  0  0  0
  7 10  2  0  0  0  0
  8 17  1  6  0  0  0
  8  6  1  0  0  0  0
  9 15  1  0  0  0  0
 10  5  1  0  0  0  0
 10 11  1  0  0  0  0
 11  2  1  0  0  0  0
 12 13  1  1  0  0  0
 15 13  2  0  0  0  0
 15 41  1  0  0  0  0
 16 17  1  0  0  0  0
 17 18  2  0  0  0  0
 19 16  1  0  0  0  0
 20 21  1  0  0  0  0
 20 19  1  0  0  0  0
 21 22  1  0  0  0  0
 23 24  2  0  0  0  0
 23 22  1  0  0  0  0
 25 23  1  0  0  0  0
 25 26  1  0  0  0  0
 27 29  2  6  0  0  0
 27 26  1  0  0  0  0
 27 28  1  0  0  0  0
 27 30  1  0  0  0  0
 30 31  1  0  0  0  0
 31 34  1  0  0  0  0
 33 34  1  0  0  0  0
 33 32  1  0  0  0  0
 34 32  1  0  0  0  0
 35 34  1  0  0  0  0
 36 35  1  0  0  0  0
 37 38  1  0  0  0  0
 38  7  1  0  0  0  0
 39 40  1  0  0  0  0
 42 44  1  0  0  0  0
 42 41  1  0  0  0  0
 43 42  2  0  0  0  0
 45 46  2  0  0  0  0
 45 44  1  0  0  0  0
 48 47  1  1  0  0  0
 48 46  1  0  0  0  0
 49 48  1  0  0  0  0
 50 52  1  0  0  0  0
 50 49  1  0  0  0  0
 51 50  2  0  0  0  0
M  END
>  <MODEL>
1

>  <REMARK>
 VINA RESULT:      -6.4      0.000      0.000
  Name = 
  21 active torsions:
  status: ('A' for Active; 'I' for Inactive)
    1  A    between atoms: N_1  and  C_15
    2  A    between atoms: C_4  and  C_25
    3  A    between atoms: C_5  and  C_35
    4  A    between atoms: C_5  and  C_51
    5  A    between atoms: C_7  and  C_30
    6  A    between atoms: C_7  and  C_50
    7  A    between atoms: O_8  and  P_19
    8  A    between atoms: O_8  and  C_38
    9  A    between atoms: O_10  and  P_19
   10  A    between atoms: O_10  and  C_40
   11  A    between atoms: C_11  and  C_40
   12  A    between atoms: C_11  and  C_50
   13  A    between atoms: C_12  and  C_48
   14  A    between atoms: C_13  and  N_42
   15  A    between atoms: C_15  and  C_30
   16  A    between atoms: C_17  and  N_22
   17  A    between atoms: C_21  and  C_39
   18  A    between atoms: C_31  and  O_34
   19  A    between atoms: C_31  and  C_38
   20  A    between atoms: C_43  and  C_52
   21  A    between atoms: C_48  and  C_52
                            x       y       z     vdW  Elec       q    Type
                         _______ _______ _______ _____ _____    ______ ____

>  <TORSDO>
F 21

$$$$
=
 OpenBabel11042414303D

 52 55  0  0  1  0  0  0  0  0999 V2000
  194.4050  176.2450  143.8980 C   0  0  0  0  0  2  0  0  0  0  0  0
  195.2750  171.3170  145.1910 C   0  0  1  0  0  3  0  0  0  0  0  0
  194.8000  173.6570  145.4150 C   0  0  1  0  0  3  0  0  0  0  0  0
  193.5620  175.8130  145.0580 C   0  0  0  0  0  0  0  0  0  0  0  0
  195.0830  173.2870  142.8810 C   0  0  0  0  0  2  0  0  0  0  0  0
  195.6080  173.9990  144.1270 C   0  0  1  0  0  3  0  0  0  0  0  0
  196.6460  171.6430  141.9120 C   0  0  0  0  0  3  0  0  0  0  0  0
  195.7510  175.5190  143.9360 C   0  0  1  0  0  3  0  0  0  0  0  0
  192.4170  176.5810  145.6130 C   0  0  0  0  0  3  0  0  0  0  0  0
  195.6950  171.9200  142.8010 C   0  0  0  0  0  0  0  0  0  0  0  0
  195.2520  170.8400  143.7370 C   0  0  0  0  0  2  0  0  0  0  0  0
  193.7080  174.6580  145.6940 C   0  0  2  0  0  3  0  0  0  0  0  0
  192.7390  174.5680  146.7740 C   0  0  0  0  0  3  0  0  0  0  0  0
  194.2260  172.3090  145.3980 N   0  0  0  0  0  2  0  0  0  0  0  0
  191.9940  175.6650  146.7160 C   0  0  0  0  0  0  0  0  0  0  0  0
  196.3190  176.1650  141.4930 N   0  0  0  0  0  2  0  0  0  0  0  0
  196.7160  175.9140  142.8500 C   0  0  0  0  0  0  0  0  0  0  0  0
  197.9400  175.9680  143.1390 O   0  0  0  0  0  0  0  0  0  0  0  0
  194.9450  176.2790  141.0250 C   0  0  0  0  0  2  0  0  0  0  0  0
  194.7370  175.4310  139.7780 C   0  0  0  0  0  2  0  0  0  0  0  0
  193.5300  174.5170  139.9300 C   0  0  0  0  0  2  0  0  0  0  0  0
  193.3300  173.6930  138.6690 C   0  0  0  0  0  2  0  0  0  0  0  0
  192.8260  172.3300  139.0160 C   0  0  0  0  0  0  0  0  0  0  0  0
  193.5150  171.5560  139.8530 C   0  0  0  0  0  2  0  0  0  0  0  0
  191.4560  171.9300  138.5910 C   0  0  0  0  0  2  0  0  0  0  0  0
  190.5990  171.9190  139.6940 O   0  0  0  0  0  0  0  0  0  0  0  0
  189.4890  173.1710  139.4180 P   0  0  2  0  0  0  0  0  0  0  0  0
  187.9300  172.5180  139.3310 O   0  0  0  0  0  1  0  0  0  0  0  0
  189.8050  173.8540  138.1060 O   0  0  0  0  0  0  0  0  0  0  0  0
  189.5600  174.3120  140.6730 O   0  0  0  0  0  0  0  0  0  0  0  0
  188.7650  173.7850  141.6920 C   0  0  0  0  0  2  0  0  0  0  0  0
  191.1150  173.6330  142.8670 C   0  0  0  0  0  2  0  0  0  0  0  0
  190.1190  174.4110  143.7120 C   0  0  0  0  0  2  0  0  0  0  0  0
  189.6420  173.2830  142.8300 C   0  0  0  0  0  0  0  0  0  0  0  0
  189.2100  172.1870  143.5930 O   0  0  0  0  0  0  0  0  0  0  0  0
  189.8790  172.2650  144.8200 C   0  0  0  0  0  1  0  0  0  0  0  0
  196.8890  172.4850  139.6720 O   0  0  0  0  0  1  0  0  0  0  0  0
  197.1250  172.6240  140.9960 N   0  0  0  0  0  2  0  0  0  0  0  0
  195.1050  170.1470  146.1570 C   0  0  0  0  0  2  0  0  0  0  0  0
  196.4220  169.7210  146.7900 C   0  0  0  0  0  1  0  0  0  0  0  0
  190.8890  175.9740  147.6720 C   0  0  0  0  0  2  0  0  0  0  0  0
  189.5660  175.9200  146.9900 C   0  0  0  0  0  0  0  0  0  0  0  0
  188.8670  174.8720  147.0560 O   0  0  0  0  0  0  0  0  0  0  0  0
  189.0870  177.0730  146.2950 N   0  0  0  0  0  2  0  0  0  0  0  0
  187.8110  177.1010  145.6600 C   0  0  0  0  0  3  0  0  0  0  0  0
  187.7320  177.2360  144.3420 C   0  0  0  0  0  3  0  0  0  0  0  0
  186.1540  176.0380  143.0360 O   0  0  0  0  0  1  0  0  0  0  0  0
  186.4180  177.2760  143.6260 C   0  0  1  0  0  3  0  0  0  0  0  0
  185.2750  177.6540  144.5610 C   0  0  0  0  0  2  0  0  0  0  0  0
  184.7010  178.9790  144.1920 C   0  0  0  0  0  0  0  0  0  0  0  0
  183.4760  179.0840  143.9240 O   0  0  0  0  0  0  0  0  0  0  0  0
  185.5220  180.0960  144.1280 O   0  0  0  0  0  1  0  0  0  0  0  0
  1  8  1  0  0  0  0
  1  4  1  0  0  0  0
  2 14  1  0  0  0  0
  2 39  1  1  0  0  0
  3 14  1  6  0  0  0
  3 12  1  0  0  0  0
  4  9  2  0  0  0  0
  4 12  1  0  0  0  0
  6  5  1  6  0  0  0
  6  3  1  0  0  0  0
  7 10  2  0  0  0  0
  8 17  1  6  0  0  0
  8  6  1  0  0  0  0
  9 15  1  0  0  0  0
 10  5  1  0  0  0  0
 10 11  1  0  0  0  0
 11  2  1  0  0  0  0
 12 13  1  1  0  0  0
 15 13  2  0  0  0  0
 15 41  1  0  0  0  0
 16 17  1  0  0  0  0
 17 18  2  0  0  0  0
 19 16  1  0  0  0  0
 20 21  1  0  0  0  0
 20 19  1  0  0  0  0
 22 23  1  0  0  0  0
 22 21  1  0  0  0  0
 23 24  2  0  0  0  0
 25 23  1  0  0  0  0
 25 26  1  0  0  0  0
 27 29  2  6  0  0  0
 27 26  1  0  0  0  0
 27 30  1  0  0  0  0
 28 27  1  0  0  0  0
 30 31  1  0  0  0  0
 31 34  1  0  0  0  0
 32 33  1  0  0  0  0
 34 32  1  0  0  0  0
 34 35  1  0  0  0  0
 34 33  1  0  0  0  0
 35 36  1  0  0  0  0
 37 38  1  0  0  0  0
 38  7  1  0  0  0  0
 39 40  1  0  0  0  0
 42 43  2  0  0  0  0
 42 41  1  0  0  0  0
 44 42  1  0  0  0  0
 45 44  1  0  0  0  0
 46 45  2  0  0  0  0
 48 47  1  1  0  0  0
 48 46  1  0  0  0  0
 48 49  1  0  0  0  0
 50 49  1  0  0  0  0
 51 50  2  0  0  0  0
 52 50  1  0  0  0  0
M  END
>  <MODEL>
2

>  <REMARK>
 VINA RESULT:      -6.4      1.465      2.177
  Name = 
  21 active torsions:
  status: ('A' for Active; 'I' for Inactive)
    1  A    between atoms: N_1  and  C_15
    2  A    between atoms: C_4  and  C_25
    3  A    between atoms: C_5  and  C_35
    4  A    between atoms: C_5  and  C_51
    5  A    between atoms: C_7  and  C_30
    6  A    between atoms: C_7  and  C_50
    7  A    between atoms: O_8  and  P_19
    8  A    between atoms: O_8  and  C_38
    9  A    between atoms: O_10  and  P_19
   10  A    between atoms: O_10  and  C_40
   11  A    between atoms: C_11  and  C_40
   12  A    between atoms: C_11  and  C_50
   13  A    between atoms: C_12  and  C_48
   14  A    between atoms: C_13  and  N_42
   15  A    between atoms: C_15  and  C_30
   16  A    between atoms: C_17  and  N_22
   17  A    between atoms: C_21  and  C_39
   18  A    between atoms: C_31  and  O_34
   19  A    between atoms: C_31  and  C_38
   20  A    between atoms: C_43  and  C_52
   21  A    between atoms: C_48  and  C_52
                            x       y       z     vdW  Elec       q    Type
                         _______ _______ _______ _____ _____    ______ ____

>  <TORSDO>
F 21

$$$$
=
 OpenBabel11042414303D

 52 55  0  0  1  0  0  0  0  0999 V2000
  189.1920  173.8890  139.7650 C   0  0  0  0  0  2  0  0  0  0  0  0
  190.0660  174.5570  144.8150 C   0  0  1  0  0  3  0  0  0  0  0  0
  189.6590  175.0760  142.5090 C   0  0  1  0  0  3  0  0  0  0  0  0
  188.4390  175.0620  140.3130 C   0  0  0  0  0  0  0  0  0  0  0  0
  189.7230  172.5010  142.5990 C   0  0  0  0  0  2  0  0  0  0  0  0
  190.3640  173.7690  142.0350 C   0  0  1  0  0  3  0  0  0  0  0  0
  191.1680  171.2300  144.1430 C   0  0  0  0  0  3  0  0  0  0  0  0
  190.5210  173.7340  140.5060 C   0  0  1  0  0  3  0  0  0  0  0  0
  187.3590  175.7920  139.5990 C   0  0  0  0  0  3  0  0  0  0  0  0
  190.2990  172.2210  143.9560 C   0  0  0  0  0  0  0  0  0  0  0  0
  189.9140  173.0680  145.1280 C   0  0  0  0  0  2  0  0  0  0  0  0
  188.6140  175.5530  141.5330 C   0  0  2  0  0  3  0  0  0  0  0  0
  187.7360  176.6940  141.7310 C   0  0  0  0  0  3  0  0  0  0  0  0
  189.0580  174.9590  143.8400 N   0  0  0  0  0  2  0  0  0  0  0  0
  187.0110  176.8200  140.6260 C   0  0  0  0  0  0  0  0  0  0  0  0
  192.8280  172.6120  140.1500 N   0  0  0  0  0  2  0  0  0  0  0  0
  191.4010  172.6200  140.0030 C   0  0  0  0  0  0  0  0  0  0  0  0
  190.8560  171.6780  139.3690 O   0  0  0  0  0  0  0  0  0  0  0  0
  193.5950  173.5440  140.9650 C   0  0  0  0  0  2  0  0  0  0  0  0
  193.9790  174.7710  140.1510 C   0  0  0  0  0  2  0  0  0  0  0  0
  195.0300  175.6030  140.8710 C   0  0  0  0  0  2  0  0  0  0  0  0
  196.0530  174.7000  141.5380 C   0  0  0  0  0  2  0  0  0  0  0  0
  196.6940  175.4040  142.6890 C   0  0  0  0  0  0  0  0  0  0  0  0
  196.6720  176.7340  142.7550 C   0  0  0  0  0  2  0  0  0  0  0  0
  197.1650  174.6090  143.8570 C   0  0  0  0  0  2  0  0  0  0  0  0
  196.8390  173.2620  143.6800 O   0  0  0  0  0  0  0  0  0  0  0  0
  195.9920  172.8130  145.0790 P   0  0  2  0  0  0  0  0  0  0  0  0
  197.0130  171.8990  146.0730 O   0  0  0  0  0  1  0  0  0  0  0  0
  194.7950  171.9680  144.7030 O   0  0  0  0  0  0  0  0  0  0  0  0
  195.4630  174.1900  145.9180 O   0  0  0  0  0  0  0  0  0  0  0  0
  194.0880  174.2540  145.6860 C   0  0  0  0  0  2  0  0  0  0  0  0
  193.2340  176.6460  146.3760 C   0  0  0  0  0  2  0  0  0  0  0  0
  194.6600  176.6940  145.8530 C   0  0  0  0  0  2  0  0  0  0  0  0
  193.6900  175.6730  145.3080 C   0  0  0  0  0  0  0  0  0  0  0  0
  193.3490  175.9560  143.9770 O   0  0  0  0  0  0  0  0  0  0  0  0
  192.5040  177.0720  144.0070 C   0  0  0  0  0  1  0  0  0  0  0  0
  192.8780  170.4080  142.6650 O   0  0  0  0  0  1  0  0  0  0  0  0
  191.5890  170.3900  143.0720 N   0  0  0  0  0  2  0  0  0  0  0  0
  189.9530  175.4010  146.0820 C   0  0  0  0  0  2  0  0  0  0  0  0
  189.5270  174.5810  147.2900 C   0  0  0  0  0  1  0  0  0  0  0  0
  185.9950  177.8940  140.4120 C   0  0  0  0  0  2  0  0  0  0  0  0
  185.3260  178.2550  141.6930 C   0  0  0  0  0  0  0  0  0  0  0  0
  184.1990  177.7630  141.9730 O   0  0  0  0  0  0  0  0  0  0  0  0
  185.9870  179.1300  142.6080 N   0  0  0  0  0  2  0  0  0  0  0  0
  185.4210  179.4780  143.8690 C   0  0  0  0  0  3  0  0  0  0  0  0
  185.5600  178.6590  144.9040 C   0  0  0  0  0  3  0  0  0  0  0  0
  183.5890  179.0420  146.1700 O   0  0  0  0  0  1  0  0  0  0  0  0
  184.9820  178.9740  146.2490 C   0  0  1  0  0  3  0  0  0  0  0  0
  185.3880  177.9430  147.2950 C   0  0  0  0  0  2  0  0  0  0  0  0
  186.7230  177.3600  146.9790 C   0  0  0  0  0  0  0  0  0  0  0  0
  186.8060  176.2850  146.3310 O   0  0  0  0  0  0  0  0  0  0  0  0
  187.8780  177.9980  147.4120 O   0  0  0  0  0  1  0  0  0  0  0  0
  1  4  1  0  0  0  0
  1  8  1  0  0  0  0
  2 11  1  0  0  0  0
  2 39  1  1  0  0  0
  3 14  1  1  0  0  0
  4 12  1  0  0  0  0
  5 10  1  0  0  0  0
  6  3  1  0  0  0  0
  6  5  1  6  0  0  0
  8 17  1  1  0  0  0
  8  6  1  0  0  0  0
  9  4  2  0  0  0  0
  9 15  1  0  0  0  0
 10  7  2  0  0  0  0
 10 11  1  0  0  0  0
 12 13  1  6  0  0  0
 12  3  1  0  0  0  0
 14  2  1  0  0  0  0
 15 13  2  0  0  0  0
 16 19  1  0  0  0  0
 17 16  1  0  0  0  0
 18 17  2  0  0  0  0
 20 21  1  0  0  0  0
 20 19  1  0  0  0  0
 21 22  1  0  0  0  0
 22 23  1  0  0  0  0
 23 24  2  0  0  0  0
 23 25  1  0  0  0  0
 26 25  1  0  0  0  0
 26 27  1  0  0  0  0
 27 29  2  6  0  0  0
 27 30  1  0  0  0  0
 27 28  1  0  0  0  0
 31 30  1  0  0  0  0
 33 32  1  0  0  0  0
 34 31  1  0  0  0  0
 34 33  1  0  0  0  0
 34 32  1  0  0  0  0
 35 36  1  0  0  0  0
 35 34  1  0  0  0  0
 37 38  1  0  0  0  0
 38  7  1  0  0  0  0
 39 40  1  0  0  0  0
 41 15  1  0  0  0  0
 41 42  1  0  0  0  0
 42 43  2  0  0  0  0
 42 44  1  0  0  0  0
 44 45  1  0  0  0  0
 45 46  2  0  0  0  0
 46 48  1  0  0  0  0
 48 47  1  6  0  0  0
 48 49  1  0  0  0  0
 50 49  1  0  0  0  0
 50 52  1  0  0  0  0
 51 50  2  0  0  0  0
M  END
>  <MODEL>
3

>  <REMARK>
 VINA RESULT:      -6.0      2.865      6.371
  Name = 
  21 active torsions:
  status: ('A' for Active; 'I' for Inactive)
    1  A    between atoms: N_1  and  C_15
    2  A    between atoms: C_4  and  C_25
    3  A    between atoms: C_5  and  C_35
    4  A    between atoms: C_5  and  C_51
    5  A    between atoms: C_7  and  C_30
    6  A    between atoms: C_7  and  C_50
    7  A    between atoms: O_8  and  P_19
    8  A    between atoms: O_8  and  C_38
    9  A    between atoms: O_10  and  P_19
   10  A    between atoms: O_10  and  C_40
   11  A    between atoms: C_11  and  C_40
   12  A    between atoms: C_11  and  C_50
   13  A    between atoms: C_12  and  C_48
   14  A    between atoms: C_13  and  N_42
   15  A    between atoms: C_15  and  C_30
   16  A    between atoms: C_17  and  N_22
   17  A    between atoms: C_21  and  C_39
   18  A    between atoms: C_31  and  O_34
   19  A    between atoms: C_31  and  C_38
   20  A    between atoms: C_43  and  C_52
   21  A    between atoms: C_48  and  C_52
                            x       y       z     vdW  Elec       q    Type
                         _______ _______ _______ _____ _____    ______ ____

>  <TORSDO>
F 21

$$$$
=
 OpenBabel11042414303D

 52 55  0  0  1  0  0  0  0  0999 V2000
  191.0070  172.1720  143.1590 C   0  0  0  0  0  2  0  0  0  0  0  0
  195.9890  171.8550  144.4940 C   0  0  1  0  0  3  0  0  0  0  0  0
  193.8150  172.7870  144.1020 C   0  0  1  0  0  3  0  0  0  0  0  0
  191.3270  173.0390  144.3370 C   0  0  0  0  0  0  0  0  0  0  0  0
  193.5970  170.3120  143.4220 C   0  0  0  0  0  2  0  0  0  0  0  0
  193.5240  171.7670  142.9600 C   0  0  1  0  0  3  0  0  0  0  0  0
  195.4330  169.0130  142.4080 C   0  0  0  0  0  3  0  0  0  0  0  0
  192.2150  172.0990  142.2250 C   0  0  1  0  0  3  0  0  0  0  0  0
  190.3210  173.7020  145.2080 C   0  0  0  0  0  2  0  0  0  0  0  0
  195.0220  169.8470  143.3600 C   0  0  0  0  0  0  0  0  0  0  0  0
  196.0170  170.3300  144.3690 C   0  0  0  0  0  2  0  0  0  0  0  0
  192.5570  173.2720  144.7760 C   0  0  0  0  0  0  0  0  0  0  0  0
  192.5070  174.1630  145.9230 C   0  0  0  0  0  3  0  0  0  0  0  0
  194.7390  172.2730  145.1170 N   0  0  0  0  0  2  0  0  0  0  0  0
  191.2240  174.3970  146.1740 C   0  0  0  0  0  0  0  0  0  0  0  0
  192.1090  171.8580  139.6480 N   0  0  0  0  0  2  0  0  0  0  0  0
  191.9970  171.3010  140.9660 C   0  0  0  0  0  0  0  0  0  0  0  0
  191.6400  170.1000  141.0840 O   0  0  0  0  0  0  0  0  0  0  0  0
  192.6400  173.1770  139.3340 C   0  0  0  0  0  2  0  0  0  0  0  0
  194.1550  173.1880  139.4770 C   0  0  0  0  0  2  0  0  0  0  0  0
  194.6140  174.3160  140.3880 C   0  0  0  0  0  2  0  0  0  0  0  0
  193.4160  175.0230  140.9980 C   0  0  0  0  0  2  0  0  0  0  0  0
  193.8380  175.8320  142.1810 C   0  0  0  0  0  0  0  0  0  0  0  0
  195.1180  176.1640  142.3410 C   0  0  0  0  0  2  0  0  0  0  0  0
  192.7970  176.4390  143.0560 C   0  0  0  0  0  2  0  0  0  0  0  0
  191.5320  176.2460  142.4960 O   0  0  0  0  0  0  0  0  0  0  0  0
  190.5700  177.5030  143.1070 P   0  0  2  0  0  0  0  0  0  0  0  0
  191.5610  178.8210  143.4870 O   0  0  0  0  0  0  0  0  0  0  0  0
  189.8660  177.0430  144.3640 O   0  0  0  0  0  1  0  0  0  0  0  0
  189.4120  177.9720  141.9580 O   0  0  0  0  0  0  0  0  0  0  0  0
  188.1970  177.9770  142.6440 C   0  0  0  0  0  2  0  0  0  0  0  0
  187.6460  176.2070  140.7760 C   0  0  0  0  0  2  0  0  0  0  0  0
  187.5450  175.5990  142.1660 C   0  0  0  0  0  2  0  0  0  0  0  0
  187.2040  177.0550  141.9520 C   0  0  0  0  0  0  0  0  0  0  0  0
  185.8300  177.2850  142.1130 O   0  0  0  0  0  0  0  0  0  0  0  0
  185.3870  177.9080  140.9400 C   0  0  0  0  0  1  0  0  0  0  0  0
  194.9450  168.4640  140.1180 O   0  0  0  0  0  1  0  0  0  0  0  0
  194.5460  168.5200  141.4080 N   0  0  0  0  0  2  0  0  0  0  0  0
  197.1850  172.3630  145.2970 C   0  0  0  0  0  2  0  0  0  0  0  0
  196.8750  173.6490  146.0480 C   0  0  0  0  0  1  0  0  0  0  0  0
  190.7370  175.2900  147.2680 C   0  0  0  0  0  2  0  0  0  0  0  0
  189.2480  175.3060  147.3170 C   0  0  0  0  0  0  0  0  0  0  0  0
  188.6290  174.3710  147.8930 O   0  0  0  0  0  0  0  0  0  0  0  0
  188.5390  176.4040  146.7400 N   0  0  0  0  0  2  0  0  0  0  0  0
  187.1180  176.5010  146.7930 C   0  0  0  0  0  3  0  0  0  0  0  0
  186.4690  177.2010  145.8700 C   0  0  0  0  0  3  0  0  0  0  0  0
  184.4430  176.6900  146.9960 O   0  0  0  0  0  1  0  0  0  0  0  0
  184.9780  177.3400  145.8820 C   0  0  1  0  0  3  0  0  0  0  0  0
  184.5460  178.8010  145.8820 C   0  0  0  0  0  2  0  0  0  0  0  0
  184.5000  179.3440  144.4950 C   0  0  0  0  0  0  0  0  0  0  0  0
  183.5300  179.0690  143.7410 O   0  0  0  0  0  0  0  0  0  0  0  0
  185.5360  180.1410  144.0280 O   0  0  0  0  0  1  0  0  0  0  0  0
  1  4  1  0  0  0  0
  2 14  1  0  0  0  0
  2 39  1  1  0  0  0
  3 12  1  1  0  0  0
  3 14  1  0  0  0  0
  4 12  2  0  0  0  0
  4  9  1  0  0  0  0
  6  5  1  1  0  0  0
  6  3  1  0  0  0  0
  7 10  2  0  0  0  0
  8 17  1  6  0  0  0
  8  6  1  0  0  0  0
  8  1  1  0  0  0  0
  9 15  1  0  0  0  0
 10  5  1  0  0  0  0
 10 11  1  0  0  0  0
 11  2  1  0  0  0  0
 12 13  1  0  0  0  0
 13 15  2  0  0  0  0
 15 41  1  0  0  0  0
 16 17  1  0  0  0  0
 17 18  2  0  0  0  0
 19 20  1  0  0  0  0
 19 16  1  0  0  0  0
 20 21  1  0  0  0  0
 21 22  1  0  0  0  0
 22 23  1  0  0  0  0
 23 24  2  0  0  0  0
 23 25  1  0  0  0  0
 26 25  1  0  0  0  0
 26 27  1  0  0  0  0
 27 28  2  1  0  0  0
 27 29  1  0  0  0  0
 30 31  1  0  0  0  0
 30 27  1  0  0  0  0
 32 34  1  0  0  0  0
 32 33  1  0  0  0  0
 34 35  1  0  0  0  0
 34 33  1  0  0  0  0
 34 31  1  0  0  0  0
 36 35  1  0  0  0  0
 37 38  1  0  0  0  0
 38  7  1  0  0  0  0
 39 40  1  0  0  0  0
 41 42  1  0  0  0  0
 42 43  2  0  0  0  0
 44 45  1  0  0  0  0
 44 42  1  0  0  0  0
 46 48  1  0  0  0  0
 46 45  2  0  0  0  0
 48 47  1  1  0  0  0
 49 48  1  0  0  0  0
 50 49  1  0  0  0  0
 51 50  2  0  0  0  0
 52 50  1  0  0  0  0
M  END
>  <MODEL>
4

>  <REMARK>
 VINA RESULT:      -6.0      2.369      3.656
  Name = 
  21 active torsions:
  status: ('A' for Active; 'I' for Inactive)
    1  A    between atoms: N_1  and  C_15
    2  A    between atoms: C_4  and  C_25
    3  A    between atoms: C_5  and  C_35
    4  A    between atoms: C_5  and  C_51
    5  A    between atoms: C_7  and  C_30
    6  A    between atoms: C_7  and  C_50
    7  A    between atoms: O_8  and  P_19
    8  A    between atoms: O_8  and  C_38
    9  A    between atoms: O_10  and  P_19
   10  A    between atoms: O_10  and  C_40
   11  A    between atoms: C_11  and  C_40
   12  A    between atoms: C_11  and  C_50
   13  A    between atoms: C_12  and  C_48
   14  A    between atoms: C_13  and  N_42
   15  A    between atoms: C_15  and  C_30
   16  A    between atoms: C_17  and  N_22
   17  A    between atoms: C_21  and  C_39
   18  A    between atoms: C_31  and  O_34
   19  A    between atoms: C_31  and  C_38
   20  A    between atoms: C_43  and  C_52
   21  A    between atoms: C_48  and  C_52
                            x       y       z     vdW  Elec       q    Type
                         _______ _______ _______ _____ _____    ______ ____

>  <TORSDO>
F 21

$$$$
=
 OpenBabel11042414303D

 52 55  0  0  1  0  0  0  0  0999 V2000
  190.8250  173.4710  143.5690 C   0  0  0  0  0  2  0  0  0  0  0  0
  195.2390  171.5600  145.4600 C   0  0  1  0  0  3  0  0  0  0  0  0
  192.9850  171.6460  144.6450 C   0  0  1  0  0  3  0  0  0  0  0  0
  191.1270  172.1110  143.0200 C   0  0  0  0  0  0  0  0  0  0  0  0
  193.8090  174.0860  144.5490 C   0  0  0  0  0  2  0  0  0  0  0  0
  192.8010  173.1080  145.1520 C   0  0  1  0  0  3  0  0  0  0  0  0
  195.3900  175.0520  146.1770 C   0  0  0  0  0  3  0  0  0  0  0  0
  191.3450  173.5790  145.0030 C   0  0  1  0  0  3  0  0  0  0  0  0
  190.4240  171.4780  141.8740 C   0  0  0  0  0  3  0  0  0  0  0  0
  195.0720  174.0530  145.3590 C   0  0  0  0  0  0  0  0  0  0  0  0
  195.9940  172.8770  145.2700 C   0  0  0  0  0  2  0  0  0  0  0  0
  192.1030  171.3300  143.4640 C   0  0  2  0  0  3  0  0  0  0  0  0
  192.1060  170.0800  142.7220 C   0  0  0  0  0  3  0  0  0  0  0  0
  194.3750  171.3200  144.3100 N   0  0  0  0  0  2  0  0  0  0  0  0
  191.1500  170.1740  141.8050 C   0  0  0  0  0  0  0  0  0  0  0  0
  191.2630  176.1670  145.0770 N   0  0  0  0  0  2  0  0  0  0  0  0
  191.0480  174.8870  145.6890 C   0  0  0  0  0  0  0  0  0  0  0  0
  190.6470  174.8500  146.8810 O   0  0  0  0  0  0  0  0  0  0  0  0
  191.5880  176.3850  143.6740 C   0  0  0  0  0  2  0  0  0  0  0  0
  191.1120  177.7600  143.2270 C   0  0  0  0  0  2  0  0  0  0  0  0
  189.6020  177.8890  143.3600 C   0  0  0  0  0  2  0  0  0  0  0  0
  188.9740  178.1720  142.0070 C   0  0  0  0  0  2  0  0  0  0  0  0
  187.9800  177.1110  141.6640 C   0  0  0  0  0  0  0  0  0  0  0  0
  188.2570  175.8310  141.9100 C   0  0  0  0  0  2  0  0  0  0  0  0
  186.6070  177.5080  141.2460 C   0  0  0  0  0  2  0  0  0  0  0  0
  185.6600  176.8540  142.0380 O   0  0  0  0  0  0  0  0  0  0  0  0
  184.9590  178.0640  142.9980 P   0  0  2  0  0  0  0  0  0  0  0  0
  183.3760  178.3410  142.4680 O   0  0  0  0  0  0  0  0  0  0  0  0
  185.7500  179.3460  142.8620 O   0  0  0  0  0  1  0  0  0  0  0  0
  184.9400  177.5900  144.6270 O   0  0  0  0  0  0  0  0  0  0  0  0
  185.9870  178.2930  145.2260 C   0  0  0  0  0  2  0  0  0  0  0  0
  186.0700  179.1670  147.7070 C   0  0  0  0  0  2  0  0  0  0  0  0
  184.7460  178.4850  147.4010 C   0  0  0  0  0  2  0  0  0  0  0  0
  186.0110  178.0180  146.7220 C   0  0  0  0  0  0  0  0  0  0  0  0
  186.3930  176.7470  147.1770 O   0  0  0  0  0  0  0  0  0  0  0  0
  187.7020  176.5360  146.7300 C   0  0  0  0  0  1  0  0  0  0  0  0
  194.6550  177.2210  145.4440 O   0  0  0  0  0  1  0  0  0  0  0  0
  194.5560  176.1980  146.3220 N   0  0  0  0  0  2  0  0  0  0  0  0
  196.2060  170.3950  145.6560 C   0  0  0  0  0  2  0  0  0  0  0  0
  195.6410  169.3180  146.5700 C   0  0  0  0  0  1  0  0  0  0  0  0
  190.8070  169.0840  140.8440 C   0  0  0  0  0  2  0  0  0  0  0  0
  190.8770  169.5740  139.4380 C   0  0  0  0  0  0  0  0  0  0  0  0
  189.9510  169.2950  138.6290 O   0  0  0  0  0  0  0  0  0  0  0  0
  191.9790  170.3870  139.0330 N   0  0  0  0  0  2  0  0  0  0  0  0
  192.0820  170.9240  137.7170 C   0  0  0  0  0  3  0  0  0  0  0  0
  191.5700  172.1190  137.4490 C   0  0  0  0  0  3  0  0  0  0  0  0
  192.2200  171.8250  135.1850 O   0  0  0  0  0  1  0  0  0  0  0  0
  191.6470  172.7280  136.0830 C   0  0  1  0  0  3  0  0  0  0  0  0
  190.2740  173.1550  135.5770 C   0  0  0  0  0  2  0  0  0  0  0  0
  190.0810  174.6240  135.7370 C   0  0  0  0  0  0  0  0  0  0  0  0
  188.9330  175.0920  135.9550 O   0  0  0  0  0  1  0  0  0  0  0  0
  191.1680  175.4820  135.6290 O   0  0  0  0  0  0  0  0  0  0  0  0
  1  8  1  0  0  0  0
  2 39  1  6  0  0  0
  3 14  1  6  0  0  0
  3  6  1  0  0  0  0
  4 12  1  0  0  0  0
  4  1  1  0  0  0  0
  5 10  1  0  0  0  0
  6  5  1  6  0  0  0
  7 38  1  0  0  0  0
  8  6  1  0  0  0  0
  8 17  1  6  0  0  0
  9  4  2  0  0  0  0
 10  7  2  0  0  0  0
 11 10  1  0  0  0  0
 11  2  1  0  0  0  0
 12 13  1  1  0  0  0
 12  3  1  0  0  0  0
 14  2  1  0  0  0  0
 15  9  1  0  0  0  0
 15 13  2  0  0  0  0
 16 17  1  0  0  0  0
 17 18  2  0  0  0  0
 19 16  1  0  0  0  0
 20 21  1  0  0  0  0
 20 19  1  0  0  0  0
 22 21  1  0  0  0  0
 23 24  2  0  0  0  0
 23 22  1  0  0  0  0
 25 23  1  0  0  0  0
 25 26  1  0  0  0  0
 26 27  1  0  0  0  0
 27 28  2  6  0  0  0
 27 30  1  0  0  0  0
 29 27  1  0  0  0  0
 30 31  1  0  0  0  0
 31 34  1  0  0  0  0
 33 32  1  0  0  0  0
 34 35  1  0  0  0  0
 34 33  1  0  0  0  0
 34 32  1  0  0  0  0
 36 35  1  0  0  0  0
 37 38  1  0  0  0  0
 39 40  1  0  0  0  0
 41 15  1  0  0  0  0
 42 41  1  0  0  0  0
 43 42  2  0  0  0  0
 44 42  1  0  0  0  0
 45 44  1  0  0  0  0
 46 45  2  0  0  0  0
 48 47  1  6  0  0  0
 48 46  1  0  0  0  0
 49 50  1  0  0  0  0
 49 48  1  0  0  0  0
 50 51  1  0  0  0  0
 52 50  2  0  0  0  0
M  END
>  <MODEL>
5

>  <REMARK>
 VINA RESULT:      -5.5      2.960      7.163
  Name = 
  21 active torsions:
  status: ('A' for Active; 'I' for Inactive)
    1  A    between atoms: N_1  and  C_15
    2  A    between atoms: C_4  and  C_25
    3  A    between atoms: C_5  and  C_35
    4  A    between atoms: C_5  and  C_51
    5  A    between atoms: C_7  and  C_30
    6  A    between atoms: C_7  and  C_50
    7  A    between atoms: O_8  and  P_19
    8  A    between atoms: O_8  and  C_38
    9  A    between atoms: O_10  and  P_19
   10  A    between atoms: O_10  and  C_40
   11  A    between atoms: C_11  and  C_40
   12  A    between atoms: C_11  and  C_50
   13  A    between atoms: C_12  and  C_48
   14  A    between atoms: C_13  and  N_42
   15  A    between atoms: C_15  and  C_30
   16  A    between atoms: C_17  and  N_22
   17  A    between atoms: C_21  and  C_39
   18  A    between atoms: C_31  and  O_34
   19  A    between atoms: C_31  and  C_38
   20  A    between atoms: C_43  and  C_52
   21  A    between atoms: C_48  and  C_52
                            x       y       z     vdW  Elec       q    Type
                         _______ _______ _______ _____ _____    ______ ____

>  <TORSDO>
F 21

$$$$
=
 OpenBabel11042414303D

 52 55  0  0  1  0  0  0  0  0999 V2000
  189.3890  174.9790  144.6950 C   0  0  0  0  0  2  0  0  0  0  0  0
  185.8090  178.0960  142.6490 C   0  0  1  0  0  3  0  0  0  0  0  0
  187.7550  176.7030  142.8210 C   0  0  1  0  0  3  0  0  0  0  0  0
  189.0750  174.6150  143.2760 C   0  0  0  0  0  0  0  0  0  0  0  0
  186.7240  176.6820  145.1830 C   0  0  0  0  0  2  0  0  0  0  0  0
  187.9370  177.0530  144.3290 C   0  0  1  0  0  3  0  0  0  0  0  0
  185.5470  178.6130  146.1700 C   0  0  0  0  0  3  0  0  0  0  0  0
  189.2560  176.4910  144.8840 C   0  0  1  0  0  3  0  0  0  0  0  0
  189.5060  173.3640  142.6000 C   0  0  0  0  0  2  0  0  0  0  0  0
  185.7260  177.8020  145.1300 C   0  0  0  0  0  0  0  0  0  0  0  0
  184.9190  178.0340  143.8920 C   0  0  0  0  0  2  0  0  0  0  0  0
  188.3210  175.3510  142.4700 C   0  0  0  0  0  0  0  0  0  0  0  0
  188.2340  174.7150  141.1660 C   0  0  0  0  0  3  0  0  0  0  0  0
  186.3600  176.7730  142.3750 N   0  0  0  0  0  2  0  0  0  0  0  0
  188.9030  173.5720  141.2490 C   0  0  0  0  0  0  0  0  0  0  0  0
  190.8930  176.7980  146.8670 N   0  0  0  0  0  2  0  0  0  0  0  0
  189.6070  176.9910  146.2610 C   0  0  0  0  0  0  0  0  0  0  0  0
  188.7030  177.5540  146.9320 O   0  0  0  0  0  0  0  0  0  0  0  0
  192.0780  176.2950  146.1870 C   0  0  0  0  0  2  0  0  0  0  0  0
  193.3390  176.7820  146.8870 C   0  0  0  0  0  2  0  0  0  0  0  0
  194.5810  176.4620  146.0680 C   0  0  0  0  0  2  0  0  0  0  0  0
  194.8560  174.9680  146.0870 C   0  0  0  0  0  2  0  0  0  0  0  0
  196.1310  174.6670  145.3690 C   0  0  0  0  0  0  0  0  0  0  0  0
  196.8660  173.6140  145.7240 C   0  0  0  0  0  2  0  0  0  0  0  0
  196.4620  175.4190  144.1260 C   0  0  0  0  0  2  0  0  0  0  0  0
  196.5300  174.5410  143.0420 O   0  0  0  0  0  0  0  0  0  0  0  0
  195.3030  175.0370  141.9800 P   0  0  2  0  0  0  0  0  0  0  0  0
  196.0040  175.5620  140.5320 O   0  0  0  0  0  0  0  0  0  0  0  0
  194.5310  176.1850  142.5920 O   0  0  0  0  0  1  0  0  0  0  0  0
  194.2380  173.7530  141.6650 O   0  0  0  0  0  0  0  0  0  0  0  0
  193.3990  173.6920  142.7790 C   0  0  0  0  0  2  0  0  0  0  0  0
  193.8590  171.7720  144.5190 C   0  0  0  0  0  2  0  0  0  0  0  0
  192.3840  172.1390  144.4710 C   0  0  0  0  0  2  0  0  0  0  0  0
  193.2300  172.2480  143.2250 C   0  0  0  0  0  0  0  0  0  0  0  0
  192.8680  171.2770  142.2790 O   0  0  0  0  0  0  0  0  0  0  0  0
  191.8300  170.5290  142.8470 C   0  0  0  0  0  1  0  0  0  0  0  0
  185.7780  177.7240  148.3930 O   0  0  0  0  0  1  0  0  0  0  0  0
  186.2870  178.4580  147.3780 N   0  0  0  0  0  2  0  0  0  0  0  0
  185.0330  178.6140  141.4400 C   0  0  0  0  0  2  0  0  0  0  0  0
  185.3770  177.8610  140.1630 C   0  0  0  0  0  1  0  0  0  0  0  0
  189.0770  172.6210  140.1100 C   0  0  0  0  0  2  0  0  0  0  0  0
  190.0260  173.1690  139.1000 C   0  0  0  0  0  0  0  0  0  0  0  0
  189.5960  173.5600  137.9810 O   0  0  0  0  0  0  0  0  0  0  0  0
  191.4120  173.2780  139.4280 N   0  0  0  0  0  2  0  0  0  0  0  0
  192.3640  173.8340  138.5240 C   0  0  0  0  0  3  0  0  0  0  0  0
  193.5600  173.2730  138.3970 C   0  0  0  0  0  3  0  0  0  0  0  0
  194.5720  175.2150  137.4820 O   0  0  0  0  0  1  0  0  0  0  0  0
  194.5980  173.8190  137.4660 C   0  0  1  0  0  3  0  0  0  0  0  0
  195.9950  173.3270  137.8250 C   0  0  0  0  0  2  0  0  0  0  0  0
  197.0100  173.8660  136.8770 C   0  0  0  0  0  0  0  0  0  0  0  0
  197.8320  174.7380  137.2590 O   0  0  0  0  0  1  0  0  0  0  0  0
  197.0390  173.4160  135.5640 O   0  0  0  0  0  0  0  0  0  0  0  0
  1  8  1  0  0  0  0
  2 39  1  6  0  0  0
  2 11  1  0  0  0  0
  3 14  1  1  0  0  0
  3  6  1  0  0  0  0
  4  1  1  0  0  0  0
  6  8  1  0  0  0  0
  6  5  1  1  0  0  0
  7 38  1  0  0  0  0
  8 17  1  1  0  0  0
  9  4  1  0  0  0  0
 10  5  1  0  0  0  0
 10  7  2  0  0  0  0
 11 10  1  0  0  0  0
 12  3  1  0  0  0  0
 12  4  2  0  0  0  0
 13 15  2  0  0  0  0
 13 12  1  0  0  0  0
 14  2  1  0  0  0  0
 15  9  1  0  0  0  0
 17 16  1  0  0  0  0
 17 18  2  0  0  0  0
 19 16  1  0  0  0  0
 19 20  1  0  0  0  0
 21 22  1  0  0  0  0
 21 20  1  0  0  0  0
 23 24  2  0  0  0  0
 23 22  1  0  0  0  0
 25 23  1  0  0  0  0
 26 25  1  0  0  0  0
 27 28  2  6  0  0  0
 27 29  1  0  0  0  0
 27 26  1  0  0  0  0
 30 27  1  0  0  0  0
 30 31  1  0  0  0  0
 31 34  1  0  0  0  0
 33 32  1  0  0  0  0
 34 33  1  0  0  0  0
 34 32  1  0  0  0  0
 35 36  1  0  0  0  0
 35 34  1  0  0  0  0
 38 37  1  0  0  0  0
 40 39  1  0  0  0  0
 41 15  1  0  0  0  0
 42 44  1  0  0  0  0
 42 41  1  0  0  0  0
 43 42  2  0  0  0  0
 45 44  1  0  0  0  0
 46 45  2  0  0  0  0
 48 47  1  1  0  0  0
 48 49  1  0  0  0  0
 48 46  1  0  0  0  0
 50 51  1  0  0  0  0
 50 49  1  0  0  0  0
 52 50  2  0  0  0  0
M  END
>  <MODEL>
6

>  <REMARK>
 VINA RESULT:      -5.5      3.038      9.788
  Name = 
  21 active torsions:
  status: ('A' for Active; 'I' for Inactive)
    1  A    between atoms: N_1  and  C_15
    2  A    between atoms: C_4  and  C_25
    3  A    between atoms: C_5  and  C_35
    4  A    between atoms: C_5  and  C_51
    5  A    between atoms: C_7  and  C_30
    6  A    between atoms: C_7  and  C_50
    7  A    between atoms: O_8  and  P_19
    8  A    between atoms: O_8  and  C_38
    9  A    between atoms: O_10  and  P_19
   10  A    between atoms: O_10  and  C_40
   11  A    between atoms: C_11  and  C_40
   12  A    between atoms: C_11  and  C_50
   13  A    between atoms: C_12  and  C_48
   14  A    between atoms: C_13  and  N_42
   15  A    between atoms: C_15  and  C_30
   16  A    between atoms: C_17  and  N_22
   17  A    between atoms: C_21  and  C_39
   18  A    between atoms: C_31  and  O_34
   19  A    between atoms: C_31  and  C_38
   20  A    between atoms: C_43  and  C_52
   21  A    between atoms: C_48  and  C_52
                            x       y       z     vdW  Elec       q    Type
                         _______ _______ _______ _____ _____    ______ ____

>  <TORSDO>
F 21

$$$$
=
 OpenBabel11042414303D

 52 55  0  0  1  0  0  0  0  0999 V2000
  190.8270  172.6160  143.3880 C   0  0  0  0  0  2  0  0  0  0  0  0
  195.6580  171.5980  144.9160 C   0  0  1  0  0  3  0  0  0  0  0  0
  193.6330  172.8140  144.5000 C   0  0  1  0  0  3  0  0  0  0  0  0
  191.1840  173.3510  144.6430 C   0  0  0  0  0  0  0  0  0  0  0  0
  193.1610  170.4390  143.6210 C   0  0  0  0  0  2  0  0  0  0  0  0
  193.2860  171.9210  143.2710 C   0  0  1  0  0  3  0  0  0  0  0  0
  194.8820  169.0010  142.5940 C   0  0  0  0  0  3  0  0  0  0  0  0
  192.0670  172.4620  142.5050 C   0  0  1  0  0  3  0  0  0  0  0  0
  190.2180  174.0680  145.5160 C   0  0  0  0  0  2  0  0  0  0  0  0
  194.5220  169.8090  143.5880 C   0  0  0  0  0  0  0  0  0  0  0  0
  195.5110  170.0940  144.6750 C   0  0  0  0  0  2  0  0  0  0  0  0
  192.4070  173.4000  145.1530 C   0  0  0  0  0  0  0  0  0  0  0  0
  192.4010  174.2070  146.3620 C   0  0  0  0  0  3  0  0  0  0  0  0
  194.4340  172.1200  145.5130 N   0  0  0  0  0  2  0  0  0  0  0  0
  191.1440  174.5770  146.5720 C   0  0  0  0  0  0  0  0  0  0  0  0
  190.5160  171.4600  140.6890 N   0  0  0  0  0  2  0  0  0  0  0  0
  191.8240  171.7890  141.1810 C   0  0  0  0  0  0  0  0  0  0  0  0
  192.8260  171.4450  140.5010 O   0  0  0  0  0  0  0  0  0  0  0  0
  189.2600  171.9030  141.2780 C   0  0  0  0  0  2  0  0  0  0  0  0
  188.6880  173.0730  140.4900 C   0  0  0  0  0  2  0  0  0  0  0  0
  188.1610  174.1570  141.4190 C   0  0  0  0  0  2  0  0  0  0  0  0
  189.2220  175.2190  141.6480 C   0  0  0  0  0  2  0  0  0  0  0  0
  188.5840  176.5230  141.9980 C   0  0  0  0  0  0  0  0  0  0  0  0
  187.4050  176.8520  141.4730 C   0  0  0  0  0  2  0  0  0  0  0  0
  189.1690  177.3500  143.0900 C   0  0  0  0  0  2  0  0  0  0  0  0
  190.1300  176.6110  143.7840 O   0  0  0  0  0  0  0  0  0  0  0  0
  191.5400  177.5530  143.7450 P   0  0  2  0  0  0  0  0  0  0  0  0
  192.4900  177.1810  145.0960 O   0  0  0  0  0  1  0  0  0  0  0  0
  191.1760  179.0200  143.7960 O   0  0  0  0  0  0  0  0  0  0  0  0
  192.4190  177.2440  142.3270 O   0  0  0  0  0  0  0  0  0  0  0  0
  192.7370  175.8860  142.3820 C   0  0  0  0  0  2  0  0  0  0  0  0
  195.1000  176.7490  141.6110 C   0  0  0  0  0  2  0  0  0  0  0  0
  195.2210  175.6820  142.6880 C   0  0  0  0  0  2  0  0  0  0  0  0
  194.0760  175.6370  141.7040 C   0  0  0  0  0  0  0  0  0  0  0  0
  194.2050  174.5530  140.8230 O   0  0  0  0  0  0  0  0  0  0  0  0
  194.2340  175.0880  139.5300 C   0  0  0  0  0  1  0  0  0  0  0  0
  194.4080  168.8470  140.2410 O   0  0  0  0  0  1  0  0  0  0  0  0
  193.9980  168.6930  141.5200 N   0  0  0  0  0  2  0  0  0  0  0  0
  196.8600  171.8980  145.8080 C   0  0  0  0  0  2  0  0  0  0  0  0
  197.0730  173.3900  146.0140 C   0  0  0  0  0  1  0  0  0  0  0  0
  190.7080  175.4420  147.7080 C   0  0  0  0  0  2  0  0  0  0  0  0
  189.7110  176.4530  147.2550 C   0  0  0  0  0  0  0  0  0  0  0  0
  190.0440  177.6660  147.1630 O   0  0  0  0  0  0  0  0  0  0  0  0
  188.3960  176.0280  146.8950 N   0  0  0  0  0  2  0  0  0  0  0  0
  187.4110  176.9370  146.4110 C   0  0  0  0  0  3  0  0  0  0  0  0
  186.1770  176.8960  146.9010 C   0  0  0  0  0  3  0  0  0  0  0  0
  184.4020  178.3470  147.5140 O   0  0  0  0  0  1  0  0  0  0  0  0
  185.1030  177.8240  146.4250 C   0  0  1  0  0  3  0  0  0  0  0  0
  185.6700  178.9620  145.5840 C   0  0  0  0  0  2  0  0  0  0  0  0
  185.4240  178.7260  144.1340 C   0  0  0  0  0  0  0  0  0  0  0  0
  184.8110  177.6940  143.7560 O   0  0  0  0  0  1  0  0  0  0  0  0
  185.8860  179.6390  143.1950 O   0  0  0  0  0  0  0  0  0  0  0  0
  1  4  1  0  0  0  0
  2 14  1  0  0  0  0
  2 39  1  1  0  0  0
  3 12  1  1  0  0  0
  3 14  1  0  0  0  0
  4 12  2  0  0  0  0
  4  9  1  0  0  0  0
  6  5  1  1  0  0  0
  6  3  1  0  0  0  0
  7 10  2  0  0  0  0
  8 17  1  6  0  0  0
  8  6  1  0  0  0  0
  8  1  1  0  0  0  0
  9 15  1  0  0  0  0
 10  5  1  0  0  0  0
 10 11  1  0  0  0  0
 11  2  1  0  0  0  0
 12 13  1  0  0  0  0
 13 15  2  0  0  0  0
 15 41  1  0  0  0  0
 16 17  1  0  0  0  0
 16 19  1  0  0  0  0
 18 17  2  0  0  0  0
 20 19  1  0  0  0  0
 20 21  1  0  0  0  0
 21 22  1  0  0  0  0
 22 23  1  0  0  0  0
 23 25  1  0  0  0  0
 24 23  2  0  0  0  0
 25 26  1  0  0  0  0
 27 26  1  0  0  0  0
 27 29  2  1  0  0  0
 27 28  1  0  0  0  0
 30 31  1  0  0  0  0
 30 27  1  0  0  0  0
 32 34  1  0  0  0  0
 32 33  1  0  0  0  0
 34 31  1  0  0  0  0
 34 33  1  0  0  0  0
 35 34  1  0  0  0  0
 36 35  1  0  0  0  0
 37 38  1  0  0  0  0
 38  7  1  0  0  0  0
 39 40  1  0  0  0  0
 42 41  1  0  0  0  0
 43 42  2  0  0  0  0
 44 42  1  0  0  0  0
 45 44  1  0  0  0  0
 45 46  2  0  0  0  0
 48 46  1  0  0  0  0
 48 47  1  1  0  0  0
 49 48  1  0  0  0  0
 50 49  1  0  0  0  0
 51 50  1  0  0  0  0
 52 50  2  0  0  0  0
M  END
>  <MODEL>
7

>  <REMARK>
 VINA RESULT:      -5.5      2.479      4.512
  Name = 
  21 active torsions:
  status: ('A' for Active; 'I' for Inactive)
    1  A    between atoms: N_1  and  C_15
    2  A    between atoms: C_4  and  C_25
    3  A    between atoms: C_5  and  C_35
    4  A    between atoms: C_5  and  C_51
    5  A    between atoms: C_7  and  C_30
    6  A    between atoms: C_7  and  C_50
    7  A    between atoms: O_8  and  P_19
    8  A    between atoms: O_8  and  C_38
    9  A    between atoms: O_10  and  P_19
   10  A    between atoms: O_10  and  C_40
   11  A    between atoms: C_11  and  C_40
   12  A    between atoms: C_11  and  C_50
   13  A    between atoms: C_12  and  C_48
   14  A    between atoms: C_13  and  N_42
   15  A    between atoms: C_15  and  C_30
   16  A    between atoms: C_17  and  N_22
   17  A    between atoms: C_21  and  C_39
   18  A    between atoms: C_31  and  O_34
   19  A    between atoms: C_31  and  C_38
   20  A    between atoms: C_43  and  C_52
   21  A    between atoms: C_48  and  C_52
                            x       y       z     vdW  Elec       q    Type
                         _______ _______ _______ _____ _____    ______ ____

>  <TORSDO>
F 21

$$$$
=
 OpenBabel11042414303D

 52 55  0  0  1  0  0  0  0  0999 V2000
  194.3490  175.7250  142.4560 C   0  0  0  0  0  2  0  0  0  0  0  0
  196.4710  171.6700  144.8570 C   0  0  1  0  0  3  0  0  0  0  0  0
  195.6620  173.8950  144.4770 C   0  0  1  0  0  3  0  0  0  0  0  0
  193.9960  175.6880  143.9110 C   0  0  0  0  0  0  0  0  0  0  0  0
  195.2200  172.6520  142.2630 C   0  0  0  0  0  2  0  0  0  0  0  0
  195.9600  173.8000  142.9500 C   0  0  1  0  0  3  0  0  0  0  0  0
  196.6900  170.8770  141.3850 C   0  0  0  0  0  3  0  0  0  0  0  0
  195.7520  175.1530  142.2480 C   0  0  1  0  0  3  0  0  0  0  0  0
  192.9530  176.5270  144.5580 C   0  0  0  0  0  3  0  0  0  0  0  0
  196.0220  171.3920  142.4130 C   0  0  0  0  0  0  0  0  0  0  0  0
  196.0940  170.6980  143.7370 C   0  0  0  0  0  2  0  0  0  0  0  0
  194.5410  174.8550  144.7870 C   0  0  2  0  0  3  0  0  0  0  0  0
  193.9820  175.0970  146.1070 C   0  0  0  0  0  3  0  0  0  0  0  0
  195.3700  172.5970  145.0920 N   0  0  0  0  0  2  0  0  0  0  0  0
  193.0650  176.0470  145.9690 C   0  0  0  0  0  0  0  0  0  0  0  0
  195.4010  174.9830  139.6880 N   0  0  0  0  0  2  0  0  0  0  0  0
  196.2490  175.1910  140.8270 C   0  0  0  0  0  0  0  0  0  0  0  0
  197.4820  175.3560  140.6370 O   0  0  0  0  0  0  0  0  0  0  0  0
  193.9470  174.9160  139.7220 C   0  0  0  0  0  2  0  0  0  0  0  0
  193.4730  173.5030  139.4140 C   0  0  0  0  0  2  0  0  0  0  0  0
  192.4360  173.5010  138.3000 C   0  0  0  0  0  2  0  0  0  0  0  0
  191.0330  173.5170  138.8830 C   0  0  0  0  0  2  0  0  0  0  0  0
  190.6390  172.1440  139.3200 C   0  0  0  0  0  0  0  0  0  0  0  0
  190.6230  171.1420  138.4430 C   0  0  0  0  0  2  0  0  0  0  0  0
  190.4710  171.8640  140.7740 C   0  0  0  0  0  2  0  0  0  0  0  0
  189.2100  172.2890  141.1990 O   0  0  0  0  0  0  0  0  0  0  0  0
  189.4960  173.2710  142.5520 P   0  0  2  0  0  0  0  0  0  0  0  0
  191.0910  173.8340  142.4990 O   0  0  0  0  0  0  0  0  0  0  0  0
  189.3060  172.4630  143.8170 O   0  0  0  0  0  1  0  0  0  0  0  0
  188.4260  174.5880  142.5650 O   0  0  0  0  0  0  0  0  0  0  0  0
  188.9430  175.4880  141.6310 C   0  0  0  0  0  2  0  0  0  0  0  0
  186.8900  176.9470  140.8670 C   0  0  0  0  0  2  0  0  0  0  0  0
  186.8200  176.6210  142.3500 C   0  0  0  0  0  2  0  0  0  0  0  0
  188.1610  176.7920  141.6770 C   0  0  0  0  0  0  0  0  0  0  0  0
  188.8040  177.9600  142.1150 O   0  0  0  0  0  0  0  0  0  0  0  0
  189.9020  177.5510  142.8800 C   0  0  0  0  0  1  0  0  0  0  0  0
  196.0790  170.8620  139.0580 O   0  0  0  0  0  1  0  0  0  0  0  0
  196.6760  171.4880  140.0980 N   0  0  0  0  0  2  0  0  0  0  0  0
  196.8250  170.9210  146.1400 C   0  0  0  0  0  2  0  0  0  0  0  0
  196.7630  169.4110  145.9670 C   0  0  0  0  0  1  0  0  0  0  0  0
  192.2680  176.6080  147.1000 C   0  0  0  0  0  2  0  0  0  0  0  0
  190.8560  176.1350  147.0410 C   0  0  0  0  0  0  0  0  0  0  0  0
  190.5900  174.9230  147.2650 O   0  0  0  0  0  0  0  0  0  0  0  0
  189.8140  177.0710  146.7630 N   0  0  0  0  0  2  0  0  0  0  0  0
  188.4400  176.6920  146.7370 C   0  0  0  0  0  3  0  0  0  0  0  0
  187.5020  177.5910  147.0080 C   0  0  0  0  0  3  0  0  0  0  0  0
  185.3380  178.1180  147.8290 O   0  0  0  0  0  1  0  0  0  0  0  0
  186.0450  177.2450  146.9990 C   0  0  1  0  0  3  0  0  0  0  0  0
  185.4620  177.2900  145.5910 C   0  0  0  0  0  2  0  0  0  0  0  0
  185.0270  178.6710  145.2380 C   0  0  0  0  0  0  0  0  0  0  0  0
  185.8650  179.5080  144.8120 O   0  0  0  0  0  0  0  0  0  0  0  0
  183.6980  179.0400  145.3940 O   0  0  0  0  0  1  0  0  0  0  0  0
  1  4  1  0  0  0  0
  2 14  1  0  0  0  0
  2 39  1  1  0  0  0
  3 12  1  0  0  0  0
  3 14  1  6  0  0  0
  4  9  2  0  0  0  0
  4 12  1  0  0  0  0
  5 10  1  0  0  0  0
  6  5  1  6  0  0  0
  6  3  1  0  0  0  0
  7 10  2  0  0  0  0
  8 17  1  6  0  0  0
  8  1  1  0  0  0  0
  8  6  1  0  0  0  0
  9 15  1  0  0  0  0
 10 11  1  0  0  0  0
 11  2  1  0  0  0  0
 12 13  1  1  0  0  0
 15 13  2  0  0  0  0
 15 41  1  0  0  0  0
 16 19  1  0  0  0  0
 16 17  1  0  0  0  0
 18 17  2  0  0  0  0
 20 19  1  0  0  0  0
 21 22  1  0  0  0  0
 21 20  1  0  0  0  0
 22 23  1  0  0  0  0
 23 25  1  0  0  0  0
 24 23  2  0  0  0  0
 25 26  1  0  0  0  0
 26 27  1  0  0  0  0
 27 28  2  6  0  0  0
 27 30  1  0  0  0  0
 27 29  1  0  0  0  0
 31 34  1  0  0  0  0
 31 30  1  0  0  0  0
 32 34  1  0  0  0  0
 32 33  1  0  0  0  0
 34 35  1  0  0  0  0
 34 33  1  0  0  0  0
 35 36  1  0  0  0  0
 37 38  1  0  0  0  0
 38  7  1  0  0  0  0
 40 39  1  0  0  0  0
 42 41  1  0  0  0  0
 42 43  2  0  0  0  0
 44 42  1  0  0  0  0
 45 44  1  0  0  0  0
 45 46  2  0  0  0  0
 48 46  1  0  0  0  0
 48 47  1  1  0  0  0
 49 48  1  0  0  0  0
 50 52  1  0  0  0  0
 50 49  1  0  0  0  0
 51 50  2  0  0  0  0
M  END
>  <MODEL>
8

>  <REMARK>
 VINA RESULT:      -5.4      1.435      2.057
  Name = 
  21 active torsions:
  status: ('A' for Active; 'I' for Inactive)
    1  A    between atoms: N_1  and  C_15
    2  A    between atoms: C_4  and  C_25
    3  A    between atoms: C_5  and  C_35
    4  A    between atoms: C_5  and  C_51
    5  A    between atoms: C_7  and  C_30
    6  A    between atoms: C_7  and  C_50
    7  A    between atoms: O_8  and  P_19
    8  A    between atoms: O_8  and  C_38
    9  A    between atoms: O_10  and  P_19
   10  A    between atoms: O_10  and  C_40
   11  A    between atoms: C_11  and  C_40
   12  A    between atoms: C_11  and  C_50
   13  A    between atoms: C_12  and  C_48
   14  A    between atoms: C_13  and  N_42
   15  A    between atoms: C_15  and  C_30
   16  A    between atoms: C_17  and  N_22
   17  A    between atoms: C_21  and  C_39
   18  A    between atoms: C_31  and  O_34
   19  A    between atoms: C_31  and  C_38
   20  A    between atoms: C_43  and  C_52
   21  A    between atoms: C_48  and  C_52
                            x       y       z     vdW  Elec       q    Type
                         _______ _______ _______ _____ _____    ______ ____

>  <TORSDO>
F 21

$$$$
=
 OpenBabel11042414303D

 52 55  0  0  1  0  0  0  0  0999 V2000
  193.0350  176.0820  146.1380 C   0  0  0  0  0  2  0  0  0  0  0  0
  191.6570  173.1540  142.1080 C   0  0  1  0  0  3  0  0  0  0  0  0
  191.8170  173.9560  144.3630 C   0  0  1  0  0  3  0  0  0  0  0  0
  191.6240  175.5950  146.2560 C   0  0  0  0  0  0  0  0  0  0  0  0
  193.2840  175.5690  142.9890 C   0  0  0  0  0  2  0  0  0  0  0  0
  193.2430  174.5330  144.1120 C   0  0  1  0  0  3  0  0  0  0  0  0
  194.5840  174.8740  141.0110 C   0  0  0  0  0  3  0  0  0  0  0  0
  193.8860  175.0360  145.4160 C   0  0  1  0  0  3  0  0  0  0  0  0
  190.6300  176.0910  147.2440 C   0  0  0  0  0  2  0  0  0  0  0  0
  193.4310  174.8610  141.6730 C   0  0  0  0  0  0  0  0  0  0  0  0
  192.2750  174.1110  141.0880 C   0  0  0  0  0  2  0  0  0  0  0  0
  191.0780  174.6950  145.4490 C   0  0  0  0  0  0  0  0  0  0  0  0
  189.7050  174.4430  145.8540 C   0  0  0  0  0  3  0  0  0  0  0  0
  190.9880  173.9170  143.1550 N   0  0  0  0  0  2  0  0  0  0  0  0
  189.4490  175.2530  146.8740 C   0  0  0  0  0  0  0  0  0  0  0  0
  196.4030  174.4230  145.4230 N   0  0  0  0  0  2  0  0  0  0  0  0
  195.3460  175.3840  145.2870 C   0  0  0  0  0  0  0  0  0  0  0  0
  195.6500  176.5930  145.1100 O   0  0  0  0  0  0  0  0  0  0  0  0
  196.2240  172.9800  145.4920 C   0  0  0  0  0  2  0  0  0  0  0  0
  197.1430  172.2830  144.4990 C   0  0  0  0  0  2  0  0  0  0  0  0
  196.5210  172.2410  143.1110 C   0  0  0  0  0  2  0  0  0  0  0  0
  195.0650  171.8170  143.1970 C   0  0  0  0  0  2  0  0  0  0  0  0
  194.8580  170.5230  142.4790 C   0  0  0  0  0  0  0  0  0  0  0  0
  195.1850  169.3730  143.0670 C   0  0  0  0  0  2  0  0  0  0  0  0
  194.0930  170.5140  141.2010 C   0  0  0  0  0  2  0  0  0  0  0  0
  194.5900  171.4970  140.3420 O   0  0  0  0  0  0  0  0  0  0  0  0
  194.0780  171.0430  138.7900 P   0  0  2  0  0  0  0  0  0  0  0  0
  193.5180  169.4460  138.8390 O   0  0  0  0  0  1  0  0  0  0  0  0
  195.2410  171.1220  137.8250 O   0  0  0  0  0  0  0  0  0  0  0  0
  192.8360  172.0660  138.2530 O   0  0  0  0  0  0  0  0  0  0  0  0
  191.7050  171.2540  138.1630 C   0  0  0  0  0  2  0  0  0  0  0  0
  191.1500  170.2360  135.8000 C   0  0  0  0  0  2  0  0  0  0  0  0
  189.8880  170.4700  136.6160 C   0  0  0  0  0  2  0  0  0  0  0  0
  191.0770  171.3860  136.7830 C   0  0  0  0  0  0  0  0  0  0  0  0
  190.8080  172.6650  136.2740 O   0  0  0  0  0  0  0  0  0  0  0  0
  189.6650  173.1290  136.9350 C   0  0  0  0  0  1  0  0  0  0  0  0
  195.9180  176.8640  141.2200 O   0  0  0  0  0  1  0  0  0  0  0  0
  195.7300  175.5580  141.5120 N   0  0  0  0  0  2  0  0  0  0  0  0
  190.6780  172.1920  141.4380 C   0  0  0  0  0  2  0  0  0  0  0  0
  189.2910  172.2480  142.0590 C   0  0  0  0  0  1  0  0  0  0  0  0
  188.1460  175.2920  147.6020 C   0  0  0  0  0  2  0  0  0  0  0  0
  187.2440  176.3280  147.0230 C   0  0  0  0  0  0  0  0  0  0  0  0
  186.2680  176.7570  147.6950 O   0  0  0  0  0  0  0  0  0  0  0  0
  187.5190  176.8480  145.7210 N   0  0  0  0  0  2  0  0  0  0  0  0
  186.7230  177.8710  145.1300 C   0  0  0  0  0  3  0  0  0  0  0  0
  185.6000  177.5510  144.4980 C   0  0  0  0  0  3  0  0  0  0  0  0
  185.4700  179.7360  143.5810 O   0  0  0  0  0  1  0  0  0  0  0  0
  184.7280  178.5850  143.8550 C   0  0  1  0  0  3  0  0  0  0  0  0
  184.0890  178.0670  142.5720 C   0  0  0  0  0  2  0  0  0  0  0  0
  185.0910  177.9890  141.4720 C   0  0  0  0  0  0  0  0  0  0  0  0
  184.9820  178.7340  140.4630 O   0  0  0  0  0  0  0  0  0  0  0  0
  186.1390  177.0830  141.5530 O   0  0  0  0  0  1  0  0  0  0  0  0
  1  4  1  0  0  0  0
  2 39  1  6  0  0  0
  2 14  1  0  0  0  0
  3 14  1  6  0  0  0
  3 12  1  0  0  0  0
  4  9  1  0  0  0  0
  6  5  1  6  0  0  0
  6  3  1  0  0  0  0
  6  8  1  0  0  0  0
  7 38  1  0  0  0  0
  7 10  2  0  0  0  0
  8 17  1  6  0  0  0
  8  1  1  0  0  0  0
 10  5  1  0  0  0  0
 11 10  1  0  0  0  0
 11  2  1  0  0  0  0
 12 13  1  0  0  0  0
 12  4  2  0  0  0  0
 13 15  2  0  0  0  0
 15  9  1  0  0  0  0
 15 41  1  0  0  0  0
 16 19  1  0  0  0  0
 17 16  1  0  0  0  0
 18 17  2  0  0  0  0
 20 19  1  0  0  0  0
 21 22  1  0  0  0  0
 21 20  1  0  0  0  0
 23 24  2  0  0  0  0
 23 22  1  0  0  0  0
 25 23  1  0  0  0  0
 26 25  1  0  0  0  0
 27 29  2  6  0  0  0
 27 28  1  0  0  0  0
 27 26  1  0  0  0  0
 30 27  1  0  0  0  0
 31 30  1  0  0  0  0
 32 33  1  0  0  0  0
 32 34  1  0  0  0  0
 33 34  1  0  0  0  0
 34 31  1  0  0  0  0
 35 34  1  0  0  0  0
 35 36  1  0  0  0  0
 37 38  1  0  0  0  0
 39 40  1  0  0  0  0
 42 41  1  0  0  0  0
 42 43  2  0  0  0  0
 44 42  1  0  0  0  0
 45 44  1  0  0  0  0
 46 45  2  0  0  0  0
 48 47  1  6  0  0  0
 48 46  1  0  0  0  0
 49 48  1  0  0  0  0
 50 52  1  0  0  0  0
 50 49  1  0  0  0  0
 51 50  2  0  0  0  0
M  END
>  <MODEL>
9

>  <REMARK>
 VINA RESULT:      -5.4      2.645      5.088
  Name = 
  21 active torsions:
  status: ('A' for Active; 'I' for Inactive)
    1  A    between atoms: N_1  and  C_15
    2  A    between atoms: C_4  and  C_25
    3  A    between atoms: C_5  and  C_35
    4  A    between atoms: C_5  and  C_51
    5  A    between atoms: C_7  and  C_30
    6  A    between atoms: C_7  and  C_50
    7  A    between atoms: O_8  and  P_19
    8  A    between atoms: O_8  and  C_38
    9  A    between atoms: O_10  and  P_19
   10  A    between atoms: O_10  and  C_40
   11  A    between atoms: C_11  and  C_40
   12  A    between atoms: C_11  and  C_50
   13  A    between atoms: C_12  and  C_48
   14  A    between atoms: C_13  and  N_42
   15  A    between atoms: C_15  and  C_30
   16  A    between atoms: C_17  and  N_22
   17  A    between atoms: C_21  and  C_39
   18  A    between atoms: C_31  and  O_34
   19  A    between atoms: C_31  and  C_38
   20  A    between atoms: C_43  and  C_52
   21  A    between atoms: C_48  and  C_52
                            x       y       z     vdW  Elec       q    Type
                         _______ _______ _______ _____ _____    ______ ____

>  <TORSDO>
F 21

$$$$
