=
 OpenBabel11042417523D

 57 64  0  0  1  0  0  0  0  0999 V2000
  190.5290  171.3320  138.8610 C   0  0  0  0  0  2  0  0  0  0  0  0
  190.7550  172.7150  139.4660 C   0  0  2  0  0  3  0  0  0  0  0  0
  191.6170  170.9690  137.8480 C   0  0  0  0  0  2  0  0  0  0  0  0
  192.9690  171.6530  138.1060 C   0  0  0  0  0  2  0  0  0  0  0  0
  193.2300  171.9470  139.5880 C   0  0  1  0  0  3  0  0  0  0  0  0
  192.1000  172.7780  140.2130 C   0  0  1  0  0  3  0  0  0  0  0  0
  187.7790  174.5900  140.9300 C   0  0  0  0  0  3  0  0  0  0  0  0
  189.2950  172.2960  141.4470 C   0  0  0  0  0  3  0  0  0  0  0  0
  187.4650  173.7780  142.0230 C   0  0  0  0  0  3  0  0  0  0  0  0
  188.8510  174.2560  140.0940 C   0  0  0  0  0  3  0  0  0  0  0  0
  188.2220  172.6310  142.2810 C   0  0  0  0  0  3  0  0  0  0  0  0
  189.6120  173.1040  140.3500 C   0  0  0  0  0  0  0  0  0  0  0  0
  192.5910  170.4140  141.7310 S   0  0  0  0  0  0  0  0  0  0  0  0
  193.4070  170.6800  140.3650 C   0  0  0  0  0  2  0  0  0  0  0  0
  193.3880  168.9430  142.3840 C   0  0  0  0  0  2  0  0  0  0  0  0
  194.7900  170.0000  144.0710 C   0  0  0  0  0  3  0  0  0  0  0  0
  193.7900  169.1670  143.7990 C   0  0  0  0  0  3  0  0  0  0  0  0
  195.2670  170.2960  145.4750 C   0  0  2  0  0  3  0  0  0  0  0  0
  197.5910  175.1120  144.1660 F   0  0  0  0  0  0  0  0  0  0  0  0
  196.8530  172.0360  145.3190 C   0  0  0  0  0  2  0  0  0  0  0  0
  194.6320  174.4260  146.3140 C   0  0  0  0  0  2  0  0  0  0  0  0
  193.8630  173.2380  145.7330 C   0  0  0  0  0  2  0  0  0  0  0  0
  196.7960  174.5280  145.0970 C   0  0  0  0  0  0  0  0  0  0  0  0
  197.3370  173.3660  145.8850 C   0  0  0  0  0  2  0  0  0  0  0  0
  194.6690  172.4230  144.9150 O   0  0  0  0  0  0  0  0  0  0  0  0
  195.4870  171.7260  145.7500 N   0  0  0  0  0  0  0  0  0  0  0  0
  195.5700  175.0240  145.3100 C   0  0  0  0  0  3  0  0  0  0  0  0
  196.3330  169.4620  145.8910 O   0  0  0  0  0  0  0  0  0  0  0  0
  194.9680  168.4330  147.5530 C   0  0  0  0  0  1  0  0  0  0  0  0
  196.2320  169.2230  147.2710 C   0  0  0  0  0  2  0  0  0  0  0  0
  192.5290  174.1860  140.6590 C   0  0  0  0  0  2  0  0  0  0  0  0
  193.0300  174.3770  142.1140 C   0  0  2  0  0  3  0  0  0  0  0  0
  189.9060  175.7900  144.7240 C   0  0  2  0  0  3  0  0  0  0  0  0
  189.8480  176.3160  143.2790 C   0  0  0  0  0  2  0  0  0  0  0  0
  189.7020  173.4560  145.3530 O   0  0  0  0  0  0  0  0  0  0  0  0
  190.2860  174.3320  144.6630 C   0  0  0  0  0  0  0  0  0  0  0  0
  191.3010  173.9610  143.7850 O   0  0  0  0  0  0  0  0  0  0  0  0
  192.0360  174.9730  143.1060 C   0  0  2  0  0  3  0  0  0  0  0  0
  191.0880  175.9710  142.4270 C   0  0  0  0  0  2  0  0  0  0  0  0
  185.7670  179.0940  146.2320 C   0  0  0  0  0  2  0  0  0  0  0  0
  185.3110  178.1530  147.3390 C   0  0  0  0  0  2  0  0  0  0  0  0
  186.1880  176.7360  145.3590 C   0  0  0  0  0  2  0  0  0  0  0  0
  188.8330  177.1150  146.5620 C   0  0  0  0  0  3  0  0  0  0  0  0
  188.6040  176.0610  145.4980 C   0  0  1  0  0  3  0  0  0  0  0  0
  187.8390  177.8860  147.0280 C   0  0  0  0  0  3  0  0  0  0  0  0
  186.4630  177.7710  146.4420 C   0  0  0  0  0  0  0  0  0  0  0  0
  187.4630  176.4870  144.5580 C   0  0  0  0  0  2  0  0  0  0  0  0
  194.4050  176.2690  142.5350 N   0  0  0  0  0  2  0  0  0  0  0  0
  195.0340  175.0530  140.9940 C   0  0  1  0  0  3  0  0  0  0  0  0
  194.4080  174.8780  142.2990 N   0  0  0  0  0  0  0  0  0  0  0  0
  195.0520  176.5330  141.2580 C   0  0  0  0  0  2  0  0  0  0  0  0
  196.4540  174.5000  141.0040 C   0  0  1  0  0  3  0  0  0  0  0  0
  196.4820  173.0960  141.6350 C   0  0  0  0  0  2  0  0  0  0  0  0
  197.3920  172.9390  139.5280 C   0  0  0  0  0  0  0  0  0  0  0  0
  196.9700  174.3490  139.5690 C   0  0  0  0  0  2  0  0  0  0  0  0
  197.1210  172.2640  140.6900 O   0  0  0  0  0  0  0  0  0  0  0  0
  197.9410  172.4020  138.5310 O   0  0  0  0  0  0  0  0  0  0  0  0
  1  2  1  0  0  0  0
  2  6  1  0  0  0  0
  2 12  1  1  0  0  0
  3  4  1  0  0  0  0
  3  1  1  0  0  0  0
  4  5  1  0  0  0  0
  5  6  1  0  0  0  0
  5 14  1  1  0  0  0
  6 31  1  6  0  0  0
  7  9  1  0  0  0  0
  8 11  1  0  0  0  0
  9 11  2  0  0  0  0
 10 12  1  0  0  0  0
 10  7  2  0  0  0  0
 12  8  2  0  0  0  0
 13 15  1  0  0  0  0
 14 13  1  0  0  0  0
 15 17  1  0  0  0  0
 17 16  2  0  0  0  0
 18 16  1  6  0  0  0
 18 26  1  0  0  0  0
 18 28  1  0  0  0  0
 19 23  1  0  0  0  0
 20 26  1  0  0  0  0
 20 24  1  0  0  0  0
 22 21  1  0  0  0  0
 23 27  2  0  0  0  0
 23 24  1  0  0  0  0
 25 22  1  0  0  0  0
 25 26  1  0  0  0  0
 27 21  1  0  0  0  0
 28 30  1  0  0  0  0
 30 29  1  0  0  0  0
 32 31  1  6  0  0  0
 32 50  1  0  0  0  0
 33 34  1  6  0  0  0
 33 44  1  0  0  0  0
 36 33  1  0  0  0  0
 36 35  2  0  0  0  0
 37 36  1  0  0  0  0
 38 32  1  6  0  0  0
 38 37  1  0  0  0  0
 39 38  1  0  0  0  0
 39 34  1  0  0  0  0
 40 46  1  0  0  0  0
 40 41  1  0  0  0  0
 42 46  1  0  0  0  0
 43 45  2  0  0  0  0
 44 47  1  6  0  0  0
 44 43  1  0  0  0  0
 46 45  1  0  0  0  0
 46 41  1  0  0  0  0
 47 42  1  0  0  0  0
 49 52  1  0  0  0  0
 49 51  1  1  0  0  0
 49 50  1  0  0  0  0
 50 48  1  0  0  0  0
 51 48  1  0  0  0  0
 52 55  1  6  0  0  0
 52 53  1  0  0  0  0
 54 55  1  0  0  0  0
 54 56  1  0  0  0  0
 56 53  1  0  0  0  0
 57 54  2  0  0  0  0
M  END
>  <MODEL>
1

>  <REMARK>
 VINA RESULT:      -6.8      0.000      0.000
  Name = 
  14 active torsions:
  status: ('A' for Active; 'I' for Inactive)
    1  A    between atoms: C_5  and  C_34
    2  A    between atoms: C_10  and  C_14
    3  A    between atoms: C_11  and  C_26
    4  A    between atoms: C_11  and  C_38
    5  A    between atoms: C_16  and  C_56
    6  A    between atoms: S_22  and  C_36
    7  A    between atoms: C_26  and  N_37
    8  A    between atoms: C_26  and  C_51
    9  A    between atoms: C_28  and  O_40
   10  A    between atoms: C_28  and  C_41
   11  A    between atoms: C_28  and  N_47
   12  A    between atoms: C_29  and  C_43
   13  A    between atoms: C_36  and  C_44
   14  A    between atoms: O_40  and  C_48
                            x       y       z     vdW  Elec       q    Type
                         _______ _______ _______ _____ _____    ______ ____

>  <TORSDO>
F 14

$$$$
=
 OpenBabel11042417523D

 57 64  0  0  1  0  0  0  0  0999 V2000
  195.5110  172.4850  139.2780 C   0  0  0  0  0  2  0  0  0  0  0  0
  194.1930  172.0210  139.8910 C   0  0  2  0  0  3  0  0  0  0  0  0
  195.3450  173.7860  138.4890 C   0  0  0  0  0  2  0  0  0  0  0  0
  194.1930  174.6760  138.9810 C   0  0  0  0  0  2  0  0  0  0  0  0
  193.9090  174.5310  140.4810 C   0  0  1  0  0  3  0  0  0  0  0  0
  193.6410  173.0720  140.8730 C   0  0  1  0  0  3  0  0  0  0  0  0
  195.5530  169.1460  141.9900 C   0  0  0  0  0  3  0  0  0  0  0  0
  193.3850  169.6970  140.3110 C   0  0  0  0  0  3  0  0  0  0  0  0
  194.5850  168.1660  141.7570 C   0  0  0  0  0  3  0  0  0  0  0  0
  195.4380  170.4030  141.3830 C   0  0  0  0  0  3  0  0  0  0  0  0
  193.5010  168.4410  140.9170 C   0  0  0  0  0  3  0  0  0  0  0  0
  194.3500  170.6830  140.5420 C   0  0  0  0  0  0  0  0  0  0  0  0
  195.2690  176.6550  141.4780 S   0  0  0  0  0  0  0  0  0  0  0  0
  195.0420  175.0680  141.2980 C   0  0  0  0  0  2  0  0  0  0  0  0
  196.8850  176.7350  142.2580 C   0  0  0  0  0  2  0  0  0  0  0  0
  195.8110  175.6950  144.1810 C   0  0  0  0  0  3  0  0  0  0  0  0
  196.9150  175.8540  143.4570 C   0  0  0  0  0  3  0  0  0  0  0  0
  195.7410  174.8190  145.4110 C   0  0  2  0  0  3  0  0  0  0  0  0
  195.9980  169.5160  146.8680 F   0  0  0  0  0  0  0  0  0  0  0  0
  196.5630  172.6290  145.7140 C   0  0  0  0  0  2  0  0  0  0  0  0
  193.7740  171.1780  144.3920 C   0  0  0  0  0  2  0  0  0  0  0  0
  193.4180  172.5740  144.9050 C   0  0  0  0  0  2  0  0  0  0  0  0
  195.5880  170.3290  145.8620 C   0  0  0  0  0  0  0  0  0  0  0  0
  196.6030  171.2020  145.1770 C   0  0  0  0  0  2  0  0  0  0  0  0
  194.3540  173.0610  145.8370 O   0  0  0  0  0  0  0  0  0  0  0  0
  195.4650  173.4000  145.1280 N   0  0  0  0  0  0  0  0  0  0  0  0
  194.3020  170.3020  145.4870 C   0  0  0  0  0  3  0  0  0  0  0  0
  194.9370  175.3640  146.4410 O   0  0  0  0  0  0  0  0  0  0  0  0
  193.6220  177.2170  147.1620 C   0  0  0  0  0  1  0  0  0  0  0  0
  194.4500  176.6190  146.0420 C   0  0  0  0  0  2  0  0  0  0  0  0
  192.2080  172.8060  141.3680 C   0  0  0  0  0  2  0  0  0  0  0  0
  191.0380  173.5380  140.6610 C   0  0  2  0  0  3  0  0  0  0  0  0
  189.0850  176.3310  143.2980 C   0  0  2  0  0  3  0  0  0  0  0  0
  188.2630  175.0820  142.9320 C   0  0  0  0  0  2  0  0  0  0  0  0
  191.1880  176.2960  144.5070 O   0  0  0  0  0  0  0  0  0  0  0  0
  190.5080  175.8890  143.5280 C   0  0  0  0  0  0  0  0  0  0  0  0
  191.0590  174.9760  142.6320 O   0  0  0  0  0  0  0  0  0  0  0  0
  190.3260  174.6220  141.4650 C   0  0  2  0  0  3  0  0  0  0  0  0
  188.8930  174.2090  141.8260 C   0  0  0  0  0  2  0  0  0  0  0  0
  184.8580  177.6110  146.5860 C   0  0  0  0  0  2  0  0  0  0  0  0
  185.5770  178.8150  147.1780 C   0  0  0  0  0  2  0  0  0  0  0  0
  187.3200  176.9630  146.7050 C   0  0  0  0  0  2  0  0  0  0  0  0
  187.4020  178.0570  143.9880 C   0  0  0  0  0  3  0  0  0  0  0  0
  188.4760  177.1070  144.4790 C   0  0  1  0  0  3  0  0  0  0  0  0
  186.3990  178.4700  144.7770 C   0  0  0  0  0  3  0  0  0  0  0  0
  186.2730  177.9310  146.1720 C   0  0  0  0  0  0  0  0  0  0  0  0
  187.9060  176.1580  145.5470 C   0  0  0  0  0  2  0  0  0  0  0  0
  190.5610  171.3810  139.7880 N   0  0  0  0  0  2  0  0  0  0  0  0
  190.4160  172.9270  138.4330 C   0  0  1  0  0  3  0  0  0  0  0  0
  190.1180  172.7200  139.8450 N   0  0  0  0  0  0  0  0  0  0  0  0
  190.8640  171.4940  138.3680 C   0  0  0  0  0  2  0  0  0  0  0  0
  189.1300  173.1120  137.6360 C   0  0  1  0  0  3  0  0  0  0  0  0
  188.1820  174.0840  138.3610 C   0  0  0  0  0  2  0  0  0  0  0  0
  188.5530  174.9080  136.2460 C   0  0  0  0  0  0  0  0  0  0  0  0
  189.4410  173.7330  136.2710 C   0  0  0  0  0  2  0  0  0  0  0  0
  187.8560  175.0780  137.4120 O   0  0  0  0  0  0  0  0  0  0  0  0
  188.4460  175.6820  135.2590 O   0  0  0  0  0  0  0  0  0  0  0  0
  1  2  1  0  0  0  0
  2 12  1  1  0  0  0
  2  6  1  0  0  0  0
  3  4  1  0  0  0  0
  3  1  1  0  0  0  0
  4  5  1  0  0  0  0
  5  6  1  0  0  0  0
  5 14  1  1  0  0  0
  6 31  1  6  0  0  0
  8 12  2  0  0  0  0
  8 11  1  0  0  0  0
  9  7  1  0  0  0  0
 10  7  2  0  0  0  0
 11  9  2  0  0  0  0
 12 10  1  0  0  0  0
 13 15  1  0  0  0  0
 14 13  1  0  0  0  0
 15 17  1  0  0  0  0
 17 16  2  0  0  0  0
 18 16  1  6  0  0  0
 18 28  1  0  0  0  0
 21 22  1  0  0  0  0
 21 27  1  0  0  0  0
 22 25  1  0  0  0  0
 23 19  1  0  0  0  0
 24 20  1  0  0  0  0
 24 23  1  0  0  0  0
 26 18  1  0  0  0  0
 26 20  1  0  0  0  0
 26 25  1  0  0  0  0
 27 23  2  0  0  0  0
 30 28  1  0  0  0  0
 30 29  1  0  0  0  0
 32 31  1  1  0  0  0
 33 34  1  1  0  0  0
 33 36  1  0  0  0  0
 33 44  1  0  0  0  0
 36 35  2  0  0  0  0
 37 36  1  0  0  0  0
 38 32  1  1  0  0  0
 38 39  1  0  0  0  0
 38 37  1  0  0  0  0
 39 34  1  0  0  0  0
 40 41  1  0  0  0  0
 43 45  2  0  0  0  0
 44 43  1  6  0  0  0
 44 47  1  0  0  0  0
 45 46  1  0  0  0  0
 46 40  1  0  0  0  0
 46 42  1  0  0  0  0
 46 41  1  0  0  0  0
 47 42  1  0  0  0  0
 48 50  1  0  0  0  0
 49 51  1  6  0  0  0
 49 50  1  0  0  0  0
 50 32  1  0  0  0  0
 51 48  1  0  0  0  0
 52 55  1  6  0  0  0
 52 53  1  0  0  0  0
 52 49  1  0  0  0  0
 54 55  1  0  0  0  0
 54 56  1  0  0  0  0
 56 53  1  0  0  0  0
 57 54  2  0  0  0  0
M  END
>  <MODEL>
2

>  <REMARK>
 VINA RESULT:      -6.5      2.781      5.483
  Name = 
  14 active torsions:
  status: ('A' for Active; 'I' for Inactive)
    1  A    between atoms: C_5  and  C_34
    2  A    between atoms: C_10  and  C_14
    3  A    between atoms: C_11  and  C_26
    4  A    between atoms: C_11  and  C_38
    5  A    between atoms: C_16  and  C_56
    6  A    between atoms: S_22  and  C_36
    7  A    between atoms: C_26  and  N_37
    8  A    between atoms: C_26  and  C_51
    9  A    between atoms: C_28  and  O_40
   10  A    between atoms: C_28  and  C_41
   11  A    between atoms: C_28  and  N_47
   12  A    between atoms: C_29  and  C_43
   13  A    between atoms: C_36  and  C_44
   14  A    between atoms: O_40  and  C_48
                            x       y       z     vdW  Elec       q    Type
                         _______ _______ _______ _____ _____    ______ ____

>  <TORSDO>
F 14

$$$$
=
 OpenBabel11042417523D

 57 64  0  0  1  0  0  0  0  0999 V2000
  190.0680  173.8780  137.1750 C   0  0  0  0  0  2  0  0  0  0  0  0
  191.3380  173.0310  137.1910 C   0  0  2  0  0  3  0  0  0  0  0  0
  188.8680  173.1150  137.7430 C   0  0  0  0  0  2  0  0  0  0  0  0
  189.2400  172.0290  138.7640 C   0  0  0  0  0  2  0  0  0  0  0  0
  190.5160  172.3480  139.5550 C   0  0  1  0  0  3  0  0  0  0  0  0
  191.7090  172.6180  138.6280 C   0  0  1  0  0  3  0  0  0  0  0  0
  194.0520  175.5790  136.3800 C   0  0  0  0  0  3  0  0  0  0  0  0
  193.0040  173.2030  135.3400 C   0  0  0  0  0  3  0  0  0  0  0  0
  194.5890  175.0320  135.2110 C   0  0  0  0  0  3  0  0  0  0  0  0
  192.9900  174.9380  137.0290 C   0  0  0  0  0  3  0  0  0  0  0  0
  194.0660  173.8440  134.6910 C   0  0  0  0  0  3  0  0  0  0  0  0
  192.4640  173.7450  136.5110 C   0  0  0  0  0  0  0  0  0  0  0  0
  189.0110  173.6300  141.4100 S   0  0  0  0  0  0  0  0  0  0  0  0
  190.3100  173.5220  140.4590 C   0  0  0  0  0  2  0  0  0  0  0  0
  189.1110  175.3160  142.0200 C   0  0  0  0  0  2  0  0  0  0  0  0
  187.6050  177.0490  142.8340 C   0  0  0  0  0  3  0  0  0  0  0  0
  187.7500  175.8170  142.3550 C   0  0  0  0  0  3  0  0  0  0  0  0
  186.2660  177.6480  143.1980 C   0  0  2  0  0  3  0  0  0  0  0  0
  187.8230  178.8730  148.3340 F   0  0  0  0  0  0  0  0  0  0  0  0
  187.2700  177.4670  145.3250 C   0  0  0  0  0  2  0  0  0  0  0  0
  184.4070  178.3080  146.9760 C   0  0  0  0  0  2  0  0  0  0  0  0
  184.3440  178.8590  145.5500 C   0  0  0  0  0  2  0  0  0  0  0  0
  186.8030  178.3210  147.6300 C   0  0  0  0  0  0  0  0  0  0  0  0
  187.0770  177.1020  146.7930 C   0  0  0  0  0  2  0  0  0  0  0  0
  185.6150  178.9510  144.9520 O   0  0  0  0  0  0  0  0  0  0  0  0
  185.9910  177.6790  144.6450 N   0  0  0  0  0  0  0  0  0  0  0  0
  185.5800  178.8560  147.7310 C   0  0  0  0  0  3  0  0  0  0  0  0
  185.1960  177.1390  142.4220 O   0  0  0  0  0  0  0  0  0  0  0  0
  184.9290  178.2620  140.3360 C   0  0  0  0  0  1  0  0  0  0  0  0
  184.5230  178.2000  141.7960 C   0  0  0  0  0  2  0  0  0  0  0  0
  192.8360  171.5760  138.7320 C   0  0  0  0  0  2  0  0  0  0  0  0
  194.1290  171.9630  139.4950 C   0  0  2  0  0  3  0  0  0  0  0  0
  193.2110  173.1400  143.5370 C   0  0  2  0  0  3  0  0  0  0  0  0
  193.0750  174.2480  142.4780 C   0  0  0  0  0  2  0  0  0  0  0  0
  191.8950  171.1020  143.5790 O   0  0  0  0  0  0  0  0  0  0  0  0
  192.6610  171.8690  142.9390 C   0  0  0  0  0  0  0  0  0  0  0  0
  193.0010  171.5690  141.6220 O   0  0  0  0  0  0  0  0  0  0  0  0
  193.9640  172.3770  140.9540 C   0  0  2  0  0  3  0  0  0  0  0  0
  193.6110  173.8640  141.0820 C   0  0  0  0  0  2  0  0  0  0  0  0
  191.0180  176.8540  146.9600 C   0  0  0  0  0  2  0  0  0  0  0  0
  191.0720  175.9080  148.1520 C   0  0  0  0  0  2  0  0  0  0  0  0
  190.5630  174.5260  146.0240 C   0  0  0  0  0  2  0  0  0  0  0  0
  193.4690  174.4660  145.6490 C   0  0  0  0  0  3  0  0  0  0  0  0
  192.5620  173.5280  144.8770 C   0  0  1  0  0  3  0  0  0  0  0  0
  192.9930  175.3280  146.5590 C   0  0  0  0  0  3  0  0  0  0  0  0
  191.5140  175.4380  146.7870 C   0  0  0  0  0  0  0  0  0  0  0  0
  191.1770  174.1650  144.6740 C   0  0  0  0  0  2  0  0  0  0  0  0
  195.5240  172.1250  137.5780 N   0  0  0  0  0  2  0  0  0  0  0  0
  196.4420  172.5650  139.3700 C   0  0  1  0  0  3  0  0  0  0  0  0
  195.1300  172.7720  138.7690 N   0  0  0  0  0  0  0  0  0  0  0  0
  196.8670  171.8990  138.0930 C   0  0  0  0  0  2  0  0  0  0  0  0
  197.1690  173.8940  139.5370 C   0  0  1  0  0  3  0  0  0  0  0  0
  196.2030  175.0710  139.3040 C   0  0  0  0  0  2  0  0  0  0  0  0
  197.1290  175.3240  141.3940 C   0  0  0  0  0  0  0  0  0  0  0  0
  197.6930  174.0320  140.9700 C   0  0  0  0  0  2  0  0  0  0  0  0
  196.3130  175.8890  140.4500 O   0  0  0  0  0  0  0  0  0  0  0  0
  197.3650  175.8580  142.5100 O   0  0  0  0  0  0  0  0  0  0  0  0
  1  2  1  0  0  0  0
  1  3  1  0  0  0  0
  2 12  1  1  0  0  0
  2  6  1  0  0  0  0
  3  4  1  0  0  0  0
  4  5  1  0  0  0  0
  5 14  1  6  0  0  0
  6 31  1  6  0  0  0
  6  5  1  0  0  0  0
  7 10  1  0  0  0  0
  8 12  1  0  0  0  0
  9  7  2  0  0  0  0
 11  9  1  0  0  0  0
 11  8  2  0  0  0  0
 12 10  2  0  0  0  0
 13 15  1  0  0  0  0
 14 13  1  0  0  0  0
 15 17  1  0  0  0  0
 17 16  2  0  0  0  0
 18 16  1  1  0  0  0
 18 26  1  0  0  0  0
 20 24  1  0  0  0  0
 21 27  1  0  0  0  0
 22 21  1  0  0  0  0
 23 27  2  0  0  0  0
 23 19  1  0  0  0  0
 24 23  1  0  0  0  0
 25 22  1  0  0  0  0
 26 25  1  0  0  0  0
 26 20  1  0  0  0  0
 28 18  1  0  0  0  0
 29 30  1  0  0  0  0
 30 28  1  0  0  0  0
 32 31  1  6  0  0  0
 33 34  1  6  0  0  0
 33 44  1  0  0  0  0
 36 33  1  0  0  0  0
 36 35  2  0  0  0  0
 37 36  1  0  0  0  0
 38 32  1  6  0  0  0
 38 39  1  0  0  0  0
 38 37  1  0  0  0  0
 39 34  1  0  0  0  0
 40 41  1  0  0  0  0
 42 46  1  0  0  0  0
 43 45  2  0  0  0  0
 44 47  1  6  0  0  0
 44 43  1  0  0  0  0
 45 46  1  0  0  0  0
 46 40  1  0  0  0  0
 46 41  1  0  0  0  0
 47 42  1  0  0  0  0
 48 51  1  0  0  0  0
 48 50  1  0  0  0  0
 49 51  1  6  0  0  0
 49 52  1  0  0  0  0
 50 49  1  0  0  0  0
 50 32  1  0  0  0  0
 52 53  1  1  0  0  0
 52 55  1  0  0  0  0
 53 56  1  0  0  0  0
 54 57  2  0  0  0  0
 55 54  1  0  0  0  0
 56 54  1  0  0  0  0
M  END
>  <MODEL>
3

>  <REMARK>
 VINA RESULT:      -6.3      3.373      7.447
  Name = 
  14 active torsions:
  status: ('A' for Active; 'I' for Inactive)
    1  A    between atoms: C_5  and  C_34
    2  A    between atoms: C_10  and  C_14
    3  A    between atoms: C_11  and  C_26
    4  A    between atoms: C_11  and  C_38
    5  A    between atoms: C_16  and  C_56
    6  A    between atoms: S_22  and  C_36
    7  A    between atoms: C_26  and  N_37
    8  A    between atoms: C_26  and  C_51
    9  A    between atoms: C_28  and  O_40
   10  A    between atoms: C_28  and  C_41
   11  A    between atoms: C_28  and  N_47
   12  A    between atoms: C_29  and  C_43
   13  A    between atoms: C_36  and  C_44
   14  A    between atoms: O_40  and  C_48
                            x       y       z     vdW  Elec       q    Type
                         _______ _______ _______ _____ _____    ______ ____

>  <TORSDO>
F 14

$$$$
=
 OpenBabel11042417523D

 57 64  0  0  1  0  0  0  0  0999 V2000
  190.9460  171.5600  137.3350 C   0  0  0  0  0  2  0  0  0  0  0  0
  192.4490  171.6400  137.5880 C   0  0  2  0  0  3  0  0  0  0  0  0
  190.3720  170.1990  137.7340 C   0  0  0  0  0  2  0  0  0  0  0  0
  191.1580  169.4880  138.8470 C   0  0  0  0  0  2  0  0  0  0  0  0
  191.8500  170.4550  139.8180 C   0  0  1  0  0  3  0  0  0  0  0  0
  192.7680  171.4410  139.0820 C   0  0  1  0  0  3  0  0  0  0  0  0
  193.1700  175.3490  137.1050 C   0  0  0  0  0  3  0  0  0  0  0  0
  193.9520  172.8860  136.0340 C   0  0  0  0  0  3  0  0  0  0  0  0
  194.1120  175.3050  136.0730 C   0  0  0  0  0  3  0  0  0  0  0  0
  192.6190  174.1620  137.6020 C   0  0  0  0  0  3  0  0  0  0  0  0
  194.5030  174.0730  135.5370 C   0  0  0  0  0  3  0  0  0  0  0  0
  193.0110  172.9250  137.0680 C   0  0  0  0  0  0  0  0  0  0  0  0
  190.7820  171.0700  142.2330 S   0  0  0  0  0  0  0  0  0  0  0  0
  190.8460  171.2150  140.6270 C   0  0  0  0  0  2  0  0  0  0  0  0
  189.2550  171.9230  142.6420 C   0  0  0  0  0  2  0  0  0  0  0  0
  188.1790  173.8090  141.5410 C   0  0  0  0  0  3  0  0  0  0  0  0
  189.2800  173.3040  142.0870 C   0  0  0  0  0  3  0  0  0  0  0  0
  188.1040  175.2020  140.9560 C   0  0  2  0  0  3  0  0  0  0  0  0
  187.0140  178.6060  145.1420 F   0  0  0  0  0  0  0  0  0  0  0  0
  187.4670  175.9740  143.0920 C   0  0  0  0  0  2  0  0  0  0  0  0
  185.3370  178.3220  141.8350 C   0  0  0  0  0  2  0  0  0  0  0  0
  186.3860  177.9780  140.7750 C   0  0  0  0  0  2  0  0  0  0  0  0
  186.4490  178.0540  144.0400 C   0  0  0  0  0  0  0  0  0  0  0  0
  186.3490  176.5560  143.9500 C   0  0  0  0  0  2  0  0  0  0  0  0
  187.5330  177.3770  141.3280 O   0  0  0  0  0  0  0  0  0  0  0  0
  187.1790  176.1050  141.6620 N   0  0  0  0  0  0  0  0  0  0  0  0
  185.9660  178.8590  143.0840 C   0  0  0  0  0  3  0  0  0  0  0  0
  187.9490  175.2090  139.5480 O   0  0  0  0  0  0  0  0  0  0  0  0
  188.5350  174.1220  137.5090 C   0  0  0  0  0  1  0  0  0  0  0  0
  188.4280  174.0010  139.0170 C   0  0  0  0  0  2  0  0  0  0  0  0
  194.2620  171.2730  139.4100 C   0  0  0  0  0  2  0  0  0  0  0  0
  194.9380  172.3240  140.3270 C   0  0  2  0  0  3  0  0  0  0  0  0
  192.7610  174.5740  143.2870 C   0  0  2  0  0  3  0  0  0  0  0  0
  193.6740  173.4650  143.8390 C   0  0  0  0  0  2  0  0  0  0  0  0
  193.5340  176.5080  142.0420 O   0  0  0  0  0  0  0  0  0  0  0  0
  193.5000  175.2550  142.1620 C   0  0  0  0  0  0  0  0  0  0  0  0
  194.1850  174.4520  141.2550 O   0  0  0  0  0  0  0  0  0  0  0  0
  194.0360  173.0380  141.3290 C   0  0  2  0  0  3  0  0  0  0  0  0
  194.2740  172.5390  142.7600 C   0  0  0  0  0  2  0  0  0  0  0  0
  188.9980  176.2650  146.9350 C   0  0  0  0  0  2  0  0  0  0  0  0
  189.6980  177.5980  147.1610 C   0  0  0  0  0  2  0  0  0  0  0  0
  191.4950  175.7800  146.7610 C   0  0  0  0  0  2  0  0  0  0  0  0
  191.0680  176.3150  143.9110 C   0  0  0  0  0  3  0  0  0  0  0  0
  192.2790  175.5370  144.3860 C   0  0  1  0  0  3  0  0  0  0  0  0
  190.1680  176.8250  144.7650 C   0  0  0  0  0  3  0  0  0  0  0  0
  190.3020  176.5690  146.2370 C   0  0  0  0  0  0  0  0  0  0  0  0
  191.9590  174.7920  145.6940 C   0  0  0  0  0  2  0  0  0  0  0  0
  196.4960  172.6200  138.5580 N   0  0  0  0  0  2  0  0  0  0  0  0
  197.2050  173.0820  140.4370 C   0  0  1  0  0  3  0  0  0  0  0  0
  195.9460  173.2130  139.7140 N   0  0  0  0  0  0  0  0  0  0  0  0
  197.7960  172.4730  139.1970 C   0  0  0  0  0  2  0  0  0  0  0  0
  197.8200  174.4520  140.6930 C   0  0  1  0  0  3  0  0  0  0  0  0
  197.0140  175.5490  139.9730 C   0  0  0  0  0  2  0  0  0  0  0  0
  197.0930  176.0870  142.2080 C   0  0  0  0  0  0  0  0  0  0  0  0
  197.7720  174.7800  142.1890 C   0  0  0  0  0  2  0  0  0  0  0  0
  196.6910  176.5000  140.9660 O   0  0  0  0  0  0  0  0  0  0  0  0
  196.8980  176.7580  143.2550 O   0  0  0  0  0  0  0  0  0  0  0  0
  1  2  1  0  0  0  0
  1  3  1  0  0  0  0
  2 12  1  1  0  0  0
  2  6  1  0  0  0  0
  3  4  1  0  0  0  0
  4  5  1  0  0  0  0
  5 14  1  6  0  0  0
  6 31  1  6  0  0  0
  6  5  1  0  0  0  0
  7 10  1  0  0  0  0
  8 12  1  0  0  0  0
  9  7  2  0  0  0  0
 11  8  2  0  0  0  0
 11  9  1  0  0  0  0
 12 10  2  0  0  0  0
 13 15  1  0  0  0  0
 14 13  1  0  0  0  0
 16 17  2  0  0  0  0
 17 15  1  0  0  0  0
 18 16  1  1  0  0  0
 18 26  1  0  0  0  0
 20 24  1  0  0  0  0
 21 27  1  0  0  0  0
 22 25  1  0  0  0  0
 22 21  1  0  0  0  0
 23 19  1  0  0  0  0
 24 23  1  0  0  0  0
 25 26  1  0  0  0  0
 26 20  1  0  0  0  0
 27 23  2  0  0  0  0
 28 18  1  0  0  0  0
 29 30  1  0  0  0  0
 30 28  1  0  0  0  0
 32 31  1  6  0  0  0
 33 34  1  1  0  0  0
 33 44  1  0  0  0  0
 35 36  2  0  0  0  0
 36 33  1  0  0  0  0
 37 38  1  0  0  0  0
 37 36  1  0  0  0  0
 38 32  1  6  0  0  0
 38 39  1  0  0  0  0
 39 34  1  0  0  0  0
 40 41  1  0  0  0  0
 43 45  2  0  0  0  0
 44 43  1  6  0  0  0
 44 47  1  0  0  0  0
 45 46  1  0  0  0  0
 46 42  1  0  0  0  0
 46 40  1  0  0  0  0
 46 41  1  0  0  0  0
 47 42  1  0  0  0  0
 48 51  1  0  0  0  0
 48 50  1  0  0  0  0
 49 51  1  6  0  0  0
 49 52  1  0  0  0  0
 50 32  1  0  0  0  0
 50 49  1  0  0  0  0
 52 53  1  6  0  0  0
 52 55  1  0  0  0  0
 53 56  1  0  0  0  0
 54 57  2  0  0  0  0
 55 54  1  0  0  0  0
 56 54  1  0  0  0  0
M  END
>  <MODEL>
4

>  <REMARK>
 VINA RESULT:      -6.3      3.305      6.688
  Name = 
  14 active torsions:
  status: ('A' for Active; 'I' for Inactive)
    1  A    between atoms: C_5  and  C_34
    2  A    between atoms: C_10  and  C_14
    3  A    between atoms: C_11  and  C_26
    4  A    between atoms: C_11  and  C_38
    5  A    between atoms: C_16  and  C_56
    6  A    between atoms: S_22  and  C_36
    7  A    between atoms: C_26  and  N_37
    8  A    between atoms: C_26  and  C_51
    9  A    between atoms: C_28  and  O_40
   10  A    between atoms: C_28  and  C_41
   11  A    between atoms: C_28  and  N_47
   12  A    between atoms: C_29  and  C_43
   13  A    between atoms: C_36  and  C_44
   14  A    between atoms: O_40  and  C_48
                            x       y       z     vdW  Elec       q    Type
                         _______ _______ _______ _____ _____    ______ ____

>  <TORSDO>
F 14

$$$$
=
 OpenBabel11042417523D

 57 64  0  0  1  0  0  0  0  0999 V2000
  191.3360  173.0780  136.9220 C   0  0  0  0  0  2  0  0  0  0  0  0
  192.6310  173.8640  137.1060 C   0  0  2  0  0  3  0  0  0  0  0  0
  191.3680  171.7430  137.6710 C   0  0  0  0  0  2  0  0  0  0  0  0
  192.2810  171.7390  138.9070 C   0  0  0  0  0  2  0  0  0  0  0  0
  192.4030  173.1130  139.5790 C   0  0  1  0  0  3  0  0  0  0  0  0
  192.8710  174.1910  138.5920 C   0  0  1  0  0  3  0  0  0  0  0  0
  193.7730  176.9990  135.2680 C   0  0  0  0  0  3  0  0  0  0  0  0
  191.4430  175.4960  135.6370 C   0  0  0  0  0  3  0  0  0  0  0  0
  192.5850  177.3910  134.6460 C   0  0  0  0  0  3  0  0  0  0  0  0
  193.7980  175.8560  136.0750 C   0  0  0  0  0  3  0  0  0  0  0  0
  191.4200  176.6390  134.8300 C   0  0  0  0  0  3  0  0  0  0  0  0
  192.6310  175.0980  136.2600 C   0  0  0  0  0  0  0  0  0  0  0  0
  190.8380  173.3700  141.7780 S   0  0  0  0  0  0  0  0  0  0  0  0
  191.1040  173.5280  140.1950 C   0  0  0  0  0  2  0  0  0  0  0  0
  189.0810  173.7140  141.9170 C   0  0  0  0  0  2  0  0  0  0  0  0
  188.7590  175.7850  143.1570 C   0  0  0  0  0  3  0  0  0  0  0  0
  188.8060  174.4570  143.1770 C   0  0  0  0  0  3  0  0  0  0  0  0
  188.4820  176.6260  144.3830 C   0  0  2  0  0  3  0  0  0  0  0  0
  184.4020  178.6280  147.4900 F   0  0  0  0  0  0  0  0  0  0  0  0
  186.7120  176.7320  145.9400 C   0  0  0  0  0  2  0  0  0  0  0  0
  184.6420  178.3790  143.7860 C   0  0  0  0  0  2  0  0  0  0  0  0
  186.0940  178.6170  143.3670 C   0  0  0  0  0  2  0  0  0  0  0  0
  184.6560  178.1220  146.2570 C   0  0  0  0  0  0  0  0  0  0  0  0
  185.2020  176.7250  146.1470 C   0  0  0  0  0  2  0  0  0  0  0  0
  187.0050  178.3620  144.4110 O   0  0  0  0  0  0  0  0  0  0  0  0
  187.0690  177.0100  144.5470 N   0  0  0  0  0  0  0  0  0  0  0  0
  184.3800  178.8660  145.1790 C   0  0  0  0  0  3  0  0  0  0  0  0
  189.3890  177.7020  144.5390 O   0  0  0  0  0  0  0  0  0  0  0  0
  191.4590  178.5300  143.6940 C   0  0  0  0  0  1  0  0  0  0  0  0
  190.1420  177.8560  143.3640 C   0  0  0  0  0  2  0  0  0  0  0  0
  194.2580  174.7760  138.9110 C   0  0  0  0  0  2  0  0  0  0  0  0
  195.1560  174.0290  139.9300 C   0  0  2  0  0  3  0  0  0  0  0  0
  194.1640  174.8340  144.0450 C   0  0  2  0  0  3  0  0  0  0  0  0
  193.5170  175.7750  143.0130 C   0  0  0  0  0  2  0  0  0  0  0  0
  193.7730  172.4430  144.1710 O   0  0  0  0  0  0  0  0  0  0  0  0
  194.1190  173.4360  143.4790 C   0  0  0  0  0  0  0  0  0  0  0  0
  194.4460  173.2670  142.1370 O   0  0  0  0  0  0  0  0  0  0  0  0
  194.9540  174.3750  141.4020 C   0  0  2  0  0  3  0  0  0  0  0  0
  194.0520  175.6040  141.5740 C   0  0  0  0  0  2  0  0  0  0  0  0
  190.8560  177.3810  147.6350 C   0  0  0  0  0  2  0  0  0  0  0  0
  191.4130  176.6070  148.8220 C   0  0  0  0  0  2  0  0  0  0  0  0
  191.3870  175.0470  146.7580 C   0  0  0  0  0  2  0  0  0  0  0  0
  193.9880  176.2350  146.1170 C   0  0  0  0  0  3  0  0  0  0  0  0
  193.5220  174.9630  145.4370 C   0  0  1  0  0  3  0  0  0  0  0  0
  193.2590  176.8460  147.0620 C   0  0  0  0  0  3  0  0  0  0  0  0
  191.9030  176.3150  147.4250 C   0  0  0  0  0  0  0  0  0  0  0  0
  191.9860  174.9270  145.3590 C   0  0  0  0  0  2  0  0  0  0  0  0
  197.3550  174.9270  139.9890 N   0  0  0  0  0  2  0  0  0  0  0  0
  196.7650  174.1740  138.1640 C   0  0  1  0  0  3  0  0  0  0  0  0
  196.5740  173.8290  139.5680 N   0  0  0  0  0  0  0  0  0  0  0  0
  197.6160  175.3270  138.6140 C   0  0  0  0  0  2  0  0  0  0  0  0
  197.6250  173.1260  137.4680 C   0  0  1  0  0  3  0  0  0  0  0  0
  197.3310  171.7240  138.0330 C   0  0  0  0  0  2  0  0  0  0  0  0
  196.9860  171.6540  135.7590 C   0  0  0  0  0  0  0  0  0  0  0  0
  197.2920  173.0790  135.9730 C   0  0  0  0  0  2  0  0  0  0  0  0
  197.0240  170.9180  136.9140 O   0  0  0  0  0  0  0  0  0  0  0  0
  196.7140  171.1590  134.6340 O   0  0  0  0  0  0  0  0  0  0  0  0
  1  2  1  0  0  0  0
  1  3  1  0  0  0  0
  2 12  1  6  0  0  0
  2  6  1  0  0  0  0
  3  4  1  0  0  0  0
  4  5  1  0  0  0  0
  5 14  1  6  0  0  0
  6 31  1  6  0  0  0
  6  5  1  0  0  0  0
  7 10  1  0  0  0  0
  8 12  1  0  0  0  0
  9 11  1  0  0  0  0
  9  7  2  0  0  0  0
 10 12  2  0  0  0  0
 11  8  2  0  0  0  0
 13 15  1  0  0  0  0
 14 13  1  0  0  0  0
 15 17  1  0  0  0  0
 16 17  2  0  0  0  0
 18 16  1  6  0  0  0
 18 28  1  0  0  0  0
 18 26  1  0  0  0  0
 20 24  1  0  0  0  0
 21 27  1  0  0  0  0
 22 21  1  0  0  0  0
 22 25  1  0  0  0  0
 23 19  1  0  0  0  0
 24 23  1  0  0  0  0
 25 26  1  0  0  0  0
 26 20  1  0  0  0  0
 27 23  2  0  0  0  0
 30 29  1  0  0  0  0
 30 28  1  0  0  0  0
 32 31  1  6  0  0  0
 33 34  1  6  0  0  0
 33 44  1  0  0  0  0
 36 33  1  0  0  0  0
 36 35  2  0  0  0  0
 37 36  1  0  0  0  0
 38 32  1  6  0  0  0
 38 39  1  0  0  0  0
 38 37  1  0  0  0  0
 39 34  1  0  0  0  0
 40 41  1  0  0  0  0
 42 46  1  0  0  0  0
 43 45  2  0  0  0  0
 44 47  1  6  0  0  0
 44 43  1  0  0  0  0
 45 46  1  0  0  0  0
 46 40  1  0  0  0  0
 46 41  1  0  0  0  0
 47 42  1  0  0  0  0
 49 51  1  1  0  0  0
 49 50  1  0  0  0  0
 50 32  1  0  0  0  0
 50 48  1  0  0  0  0
 51 48  1  0  0  0  0
 52 55  1  6  0  0  0
 52 53  1  0  0  0  0
 52 49  1  0  0  0  0
 54 55  1  0  0  0  0
 54 56  1  0  0  0  0
 56 53  1  0  0  0  0
 57 54  2  0  0  0  0
M  END
>  <MODEL>
5

>  <REMARK>
 VINA RESULT:      -6.1      3.581      6.960
  Name = 
  14 active torsions:
  status: ('A' for Active; 'I' for Inactive)
    1  A    between atoms: C_5  and  C_34
    2  A    between atoms: C_10  and  C_14
    3  A    between atoms: C_11  and  C_26
    4  A    between atoms: C_11  and  C_38
    5  A    between atoms: C_16  and  C_56
    6  A    between atoms: S_22  and  C_36
    7  A    between atoms: C_26  and  N_37
    8  A    between atoms: C_26  and  C_51
    9  A    between atoms: C_28  and  O_40
   10  A    between atoms: C_28  and  C_41
   11  A    between atoms: C_28  and  N_47
   12  A    between atoms: C_29  and  C_43
   13  A    between atoms: C_36  and  C_44
   14  A    between atoms: O_40  and  C_48
                            x       y       z     vdW  Elec       q    Type
                         _______ _______ _______ _____ _____    ______ ____

>  <TORSDO>
F 14

$$$$
=
 OpenBabel11042417523D

 57 64  0  0  1  0  0  0  0  0999 V2000
  192.5460  173.8930  137.7330 C   0  0  0  0  0  2  0  0  0  0  0  0
  193.4540  173.0060  138.5820 C   0  0  2  0  0  3  0  0  0  0  0  0
  191.4780  173.0780  137.0000 C   0  0  0  0  0  2  0  0  0  0  0  0
  191.0900  171.7700  137.7080 C   0  0  0  0  0  2  0  0  0  0  0  0
  191.2310  171.8380  139.2340 C   0  0  1  0  0  3  0  0  0  0  0  0
  192.6460  172.2580  139.6580 C   0  0  1  0  0  3  0  0  0  0  0  0
  195.3980  175.7750  140.3340 C   0  0  0  0  0  3  0  0  0  0  0  0
  195.8670  173.2810  139.1580 C   0  0  0  0  0  3  0  0  0  0  0  0
  196.6920  175.2470  140.3100 C   0  0  0  0  0  3  0  0  0  0  0  0
  194.3380  175.0560  139.7690 C   0  0  0  0  0  3  0  0  0  0  0  0
  196.9270  174.0000  139.7220 C   0  0  0  0  0  3  0  0  0  0  0  0
  194.5700  173.8030  139.1810 C   0  0  0  0  0  0  0  0  0  0  0  0
  189.8850  172.7560  141.4020 S   0  0  0  0  0  0  0  0  0  0  0  0
  190.2320  172.7820  139.8260 C   0  0  0  0  0  2  0  0  0  0  0  0
  188.4540  173.8370  141.5060 C   0  0  0  0  0  2  0  0  0  0  0  0
  188.0370  175.9080  142.7180 C   0  0  0  0  0  3  0  0  0  0  0  0
  188.5400  174.6770  142.7310 C   0  0  0  0  0  3  0  0  0  0  0  0
  188.0720  176.8340  143.9120 C   0  0  2  0  0  3  0  0  0  0  0  0
  184.8450  178.5980  148.0090 F   0  0  0  0  0  0  0  0  0  0  0  0
  186.6950  176.8210  145.8280 C   0  0  0  0  0  2  0  0  0  0  0  0
  184.2510  178.6750  144.3380 C   0  0  0  0  0  2  0  0  0  0  0  0
  185.5810  178.9340  143.6260 C   0  0  0  0  0  2  0  0  0  0  0  0
  184.8040  178.2000  146.7120 C   0  0  0  0  0  0  0  0  0  0  0  0
  185.2690  176.8120  146.3660 C   0  0  0  0  0  2  0  0  0  0  0  0
  186.6920  178.5770  144.4150 O   0  0  0  0  0  0  0  0  0  0  0  0
  186.7430  177.2170  144.4190 N   0  0  0  0  0  0  0  0  0  0  0  0
  184.3190  179.0400  145.7890 C   0  0  0  0  0  3  0  0  0  0  0  0
  188.9590  177.9250  143.7480 O   0  0  0  0  0  0  0  0  0  0  0  0
  191.2380  178.2730  143.1410 C   0  0  0  0  0  1  0  0  0  0  0  0
  189.9260  177.6030  142.7830 C   0  0  0  0  0  2  0  0  0  0  0  0
  193.4250  171.1670  140.4130 C   0  0  0  0  0  2  0  0  0  0  0  0
  193.9810  171.5000  141.8220 C   0  0  2  0  0  3  0  0  0  0  0  0
  192.4090  174.7140  144.2220 C   0  0  2  0  0  3  0  0  0  0  0  0
  192.4050  173.3280  144.8900 C   0  0  0  0  0  2  0  0  0  0  0  0
  194.4040  175.9010  143.5150 O   0  0  0  0  0  0  0  0  0  0  0  0
  193.7080  174.8530  143.4680 C   0  0  0  0  0  0  0  0  0  0  0  0
  194.1470  173.7610  142.7230 O   0  0  0  0  0  0  0  0  0  0  0  0
  193.2920  172.6320  142.5770 C   0  0  2  0  0  3  0  0  0  0  0  0
  192.7690  172.1650  143.9420 C   0  0  0  0  0  2  0  0  0  0  0  0
  191.5650  176.5420  149.3480 C   0  0  0  0  0  2  0  0  0  0  0  0
  191.1140  177.9160  148.8710 C   0  0  0  0  0  2  0  0  0  0  0  0
  192.9630  177.0550  147.2780 C   0  0  0  0  0  2  0  0  0  0  0  0
  190.7880  175.6840  145.8710 C   0  0  0  0  0  3  0  0  0  0  0  0
  192.1510  175.8490  145.2290 C   0  0  1  0  0  3  0  0  0  0  0  0
  190.5040  176.1880  147.0810 C   0  0  0  0  0  3  0  0  0  0  0  0
  191.5740  176.8770  147.8760 C   0  0  0  0  0  0  0  0  0  0  0  0
  193.2480  175.9130  146.3060 C   0  0  0  0  0  2  0  0  0  0  0  0
  196.0360  170.4800  141.2060 N   0  0  0  0  0  2  0  0  0  0  0  0
  195.7840  170.7930  143.2270 C   0  0  1  0  0  3  0  0  0  0  0  0
  195.4480  171.4930  141.9930 N   0  0  0  0  0  0  0  0  0  0  0  0
  196.4320  169.7280  142.3870 C   0  0  0  0  0  2  0  0  0  0  0  0
  196.8430  171.5630  144.0070 C   0  0  1  0  0  3  0  0  0  0  0  0
  197.2170  172.8620  143.2710 C   0  0  0  0  0  2  0  0  0  0  0  0
  196.5260  173.4290  145.3910 C   0  0  0  0  0  0  0  0  0  0  0  0
  196.2930  171.9750  145.3770 C   0  0  0  0  0  2  0  0  0  0  0  0
  197.0500  173.8990  144.2160 O   0  0  0  0  0  0  0  0  0  0  0  0
  196.2700  174.1680  146.3770 O   0  0  0  0  0  0  0  0  0  0  0  0
  1  2  1  0  0  0  0
  2 12  1  1  0  0  0
  2  6  1  0  0  0  0
  3  4  1  0  0  0  0
  3  1  1  0  0  0  0
  4  5  1  0  0  0  0
  5  6  1  0  0  0  0
  5 14  1  6  0  0  0
  6 31  1  6  0  0  0
  8 12  2  0  0  0  0
  8 11  1  0  0  0  0
  9  7  1  0  0  0  0
 10  7  2  0  0  0  0
 11  9  2  0  0  0  0
 12 10  1  0  0  0  0
 13 15  1  0  0  0  0
 14 13  1  0  0  0  0
 15 17  1  0  0  0  0
 16 17  2  0  0  0  0
 18 16  1  6  0  0  0
 18 26  1  0  0  0  0
 20 24  1  0  0  0  0
 21 27  1  0  0  0  0
 22 21  1  0  0  0  0
 22 25  1  0  0  0  0
 23 19  1  0  0  0  0
 24 23  1  0  0  0  0
 25 26  1  0  0  0  0
 26 20  1  0  0  0  0
 27 23  2  0  0  0  0
 28 18  1  0  0  0  0
 30 29  1  0  0  0  0
 30 28  1  0  0  0  0
 32 31  1  6  0  0  0
 32 50  1  0  0  0  0
 33 34  1  1  0  0  0
 33 44  1  0  0  0  0
 36 35  2  0  0  0  0
 36 33  1  0  0  0  0
 37 36  1  0  0  0  0
 38 32  1  1  0  0  0
 38 37  1  0  0  0  0
 38 39  1  0  0  0  0
 39 34  1  0  0  0  0
 41 40  1  0  0  0  0
 42 46  1  0  0  0  0
 43 45  2  0  0  0  0
 44 43  1  1  0  0  0
 44 47  1  0  0  0  0
 45 46  1  0  0  0  0
 46 41  1  0  0  0  0
 46 40  1  0  0  0  0
 47 42  1  0  0  0  0
 48 50  1  0  0  0  0
 48 51  1  0  0  0  0
 49 51  1  6  0  0  0
 49 52  1  0  0  0  0
 50 49  1  0  0  0  0
 52 53  1  6  0  0  0
 52 55  1  0  0  0  0
 53 56  1  0  0  0  0
 54 57  2  0  0  0  0
 55 54  1  0  0  0  0
 56 54  1  0  0  0  0
M  END
>  <MODEL>
6

>  <REMARK>
 VINA RESULT:      -5.8      3.110      7.208
  Name = 
  14 active torsions:
  status: ('A' for Active; 'I' for Inactive)
    1  A    between atoms: C_5  and  C_34
    2  A    between atoms: C_10  and  C_14
    3  A    between atoms: C_11  and  C_26
    4  A    between atoms: C_11  and  C_38
    5  A    between atoms: C_16  and  C_56
    6  A    between atoms: S_22  and  C_36
    7  A    between atoms: C_26  and  N_37
    8  A    between atoms: C_26  and  C_51
    9  A    between atoms: C_28  and  O_40
   10  A    between atoms: C_28  and  C_41
   11  A    between atoms: C_28  and  N_47
   12  A    between atoms: C_29  and  C_43
   13  A    between atoms: C_36  and  C_44
   14  A    between atoms: O_40  and  C_48
                            x       y       z     vdW  Elec       q    Type
                         _______ _______ _______ _____ _____    ______ ____

>  <TORSDO>
F 14

$$$$
=
 OpenBabel11042417523D

 57 64  0  0  1  0  0  0  0  0999 V2000
  196.0850  170.9940  141.1250 C   0  0  0  0  0  2  0  0  0  0  0  0
  194.5880  170.7210  141.2430 C   0  0  2  0  0  3  0  0  0  0  0  0
  196.4510  171.5760  139.7570 C   0  0  0  0  0  2  0  0  0  0  0  0
  195.3140  172.3600  139.0830 C   0  0  0  0  0  2  0  0  0  0  0  0
  194.3600  173.0290  140.0810 C   0  0  1  0  0  3  0  0  0  0  0  0
  193.7750  172.0180  141.0760 C   0  0  1  0  0  3  0  0  0  0  0  0
  192.6940  168.9920  144.0600 C   0  0  0  0  0  3  0  0  0  0  0  0
  195.3090  169.7570  143.4300 C   0  0  0  0  0  3  0  0  0  0  0  0
  193.7340  168.7190  144.9520 C   0  0  0  0  0  3  0  0  0  0  0  0
  192.9600  169.6470  142.8530 C   0  0  0  0  0  3  0  0  0  0  0  0
  195.0420  169.1010  144.6370 C   0  0  0  0  0  3  0  0  0  0  0  0
  194.2720  170.0300  142.5330 C   0  0  0  0  0  0  0  0  0  0  0  0
  195.4790  175.4990  140.1000 S   0  0  0  0  0  0  0  0  0  0  0  0
  195.0490  174.1270  140.8300 C   0  0  0  0  0  2  0  0  0  0  0  0
  196.5050  176.2980  141.3390 C   0  0  0  0  0  2  0  0  0  0  0  0
  196.2400  174.7840  143.2280 C   0  0  0  0  0  3  0  0  0  0  0  0
  195.9970  175.9800  142.7010 C   0  0  0  0  0  3  0  0  0  0  0  0
  195.7710  174.3700  144.6040 C   0  0  2  0  0  3  0  0  0  0  0  0
  191.5170  174.7200  148.0810 F   0  0  0  0  0  0  0  0  0  0  0  0
  193.6650  173.9840  145.5950 C   0  0  0  0  0  2  0  0  0  0  0  0
  192.9270  177.3070  145.8110 C   0  0  0  0  0  2  0  0  0  0  0  0
  194.4460  177.1330  145.7450 C   0  0  0  0  0  2  0  0  0  0  0  0
  192.0390  175.2970  146.9700 C   0  0  0  0  0  0  0  0  0  0  0  0
  192.2230  174.4570  145.7360 C   0  0  0  0  0  2  0  0  0  0  0  0
  194.8550  175.8320  146.0940 O   0  0  0  0  0  0  0  0  0  0  0  0
  194.5300  175.0300  145.0440 N   0  0  0  0  0  0  0  0  0  0  0  0
  192.3390  176.6020  146.9950 C   0  0  0  0  0  3  0  0  0  0  0  0
  196.8020  174.3850  145.5750 O   0  0  0  0  0  0  0  0  0  0  0  0
  196.7940  172.0230  145.9010 C   0  0  0  0  0  1  0  0  0  0  0  0
  197.5890  173.2300  145.4410 C   0  0  0  0  0  2  0  0  0  0  0  0
  192.2550  171.8180  140.9480 C   0  0  0  0  0  2  0  0  0  0  0  0
  191.4130  172.9550  140.3110 C   0  0  2  0  0  3  0  0  0  0  0  0
  189.4230  175.3720  143.2710 C   0  0  2  0  0  3  0  0  0  0  0  0
  189.6520  173.9020  143.6630 C   0  0  0  0  0  2  0  0  0  0  0  0
  191.1920  176.9690  142.8110 O   0  0  0  0  0  0  0  0  0  0  0  0
  190.6660  175.8530  142.5620 C   0  0  0  0  0  0  0  0  0  0  0  0
  191.2500  175.0030  141.6260 O   0  0  0  0  0  0  0  0  0  0  0  0
  190.5770  173.8020  141.2650 C   0  0  2  0  0  3  0  0  0  0  0  0
  190.1680  173.0100  142.5140 C   0  0  0  0  0  2  0  0  0  0  0  0
  185.8420  176.8710  147.1760 C   0  0  0  0  0  2  0  0  0  0  0  0
  186.6150  178.1390  147.5130 C   0  0  0  0  0  2  0  0  0  0  0  0
  188.3050  176.2840  146.8820 C   0  0  0  0  0  2  0  0  0  0  0  0
  187.8380  177.1220  144.1130 C   0  0  0  0  0  3  0  0  0  0  0  0
  189.0190  176.2430  144.4740 C   0  0  1  0  0  3  0  0  0  0  0  0
  186.9860  177.5870  145.0390 C   0  0  0  0  0  3  0  0  0  0  0  0
  187.1430  177.1790  146.4740 C   0  0  0  0  0  0  0  0  0  0  0  0
  188.6930  175.3870  145.7100 C   0  0  0  0  0  2  0  0  0  0  0  0
  189.4000  172.2350  139.2760 N   0  0  0  0  0  2  0  0  0  0  0  0
  191.1160  171.3330  138.5760 C   0  0  1  0  0  3  0  0  0  0  0  0
  190.7250  172.6600  139.0380 N   0  0  0  0  0  0  0  0  0  0  0  0
  189.6990  170.8890  138.8070 C   0  0  0  0  0  2  0  0  0  0  0  0
  191.4240  171.3560  137.0840 C   0  0  1  0  0  3  0  0  0  0  0  0
  191.8350  172.7710  136.6390 C   0  0  0  0  0  2  0  0  0  0  0  0
  193.5300  171.3300  136.0560 C   0  0  0  0  0  0  0  0  0  0  0  0
  192.6090  170.4350  136.7760 C   0  0  0  0  0  2  0  0  0  0  0  0
  193.0760  172.6200  135.9820 O   0  0  0  0  0  0  0  0  0  0  0  0
  194.6250  170.9540  135.5610 O   0  0  0  0  0  0  0  0  0  0  0  0
  1  2  1  0  0  0  0
  2 12  1  1  0  0  0
  3  1  1  0  0  0  0
  4  3  1  0  0  0  0
  4  5  1  0  0  0  0
  5 14  1  1  0  0  0
  5  6  1  0  0  0  0
  6 31  1  6  0  0  0
  6  2  1  0  0  0  0
  7  9  1  0  0  0  0
  8 11  1  0  0  0  0
 10  7  2  0  0  0  0
 11  9  2  0  0  0  0
 12 10  1  0  0  0  0
 12  8  2  0  0  0  0
 13 14  1  0  0  0  0
 13 15  1  0  0  0  0
 15 17  1  0  0  0  0
 17 16  2  0  0  0  0
 18 16  1  6  0  0  0
 18 26  1  0  0  0  0
 18 28  1  0  0  0  0
 20 24  1  0  0  0  0
 21 27  1  0  0  0  0
 22 21  1  0  0  0  0
 22 25  1  0  0  0  0
 23 27  2  0  0  0  0
 23 19  1  0  0  0  0
 24 23  1  0  0  0  0
 26 20  1  0  0  0  0
 26 25  1  0  0  0  0
 30 28  1  0  0  0  0
 30 29  1  0  0  0  0
 32 31  1  1  0  0  0
 33 34  1  1  0  0  0
 33 44  1  0  0  0  0
 36 35  2  0  0  0  0
 36 33  1  0  0  0  0
 37 36  1  0  0  0  0
 38 32  1  6  0  0  0
 38 37  1  0  0  0  0
 38 39  1  0  0  0  0
 39 34  1  0  0  0  0
 40 41  1  0  0  0  0
 43 45  2  0  0  0  0
 44 43  1  6  0  0  0
 44 47  1  0  0  0  0
 45 46  1  0  0  0  0
 46 42  1  0  0  0  0
 46 40  1  0  0  0  0
 46 41  1  0  0  0  0
 47 42  1  0  0  0  0
 49 51  1  6  0  0  0
 49 50  1  0  0  0  0
 50 48  1  0  0  0  0
 50 32  1  0  0  0  0
 51 48  1  0  0  0  0
 52 53  1  1  0  0  0
 52 49  1  0  0  0  0
 54 55  1  0  0  0  0
 55 52  1  0  0  0  0
 56 54  1  0  0  0  0
 56 53  1  0  0  0  0
 57 54  2  0  0  0  0
M  END
>  <MODEL>
7

>  <REMARK>
 VINA RESULT:      -5.6      2.543      4.979
  Name = 
  14 active torsions:
  status: ('A' for Active; 'I' for Inactive)
    1  A    between atoms: C_5  and  C_34
    2  A    between atoms: C_10  and  C_14
    3  A    between atoms: C_11  and  C_26
    4  A    between atoms: C_11  and  C_38
    5  A    between atoms: C_16  and  C_56
    6  A    between atoms: S_22  and  C_36
    7  A    between atoms: C_26  and  N_37
    8  A    between atoms: C_26  and  C_51
    9  A    between atoms: C_28  and  O_40
   10  A    between atoms: C_28  and  C_41
   11  A    between atoms: C_28  and  N_47
   12  A    between atoms: C_29  and  C_43
   13  A    between atoms: C_36  and  C_44
   14  A    between atoms: O_40  and  C_48
                            x       y       z     vdW  Elec       q    Type
                         _______ _______ _______ _____ _____    ______ ____

>  <TORSDO>
F 14

$$$$
=
 OpenBabel11042417523D

 57 64  0  0  1  0  0  0  0  0999 V2000
  196.4070  169.9530  141.6770 C   0  0  0  0  0  2  0  0  0  0  0  0
  195.0430  169.5740  142.2470 C   0  0  2  0  0  3  0  0  0  0  0  0
  196.4260  169.8840  140.1480 C   0  0  0  0  0  2  0  0  0  0  0  0
  195.0560  170.1190  139.4930 C   0  0  0  0  0  2  0  0  0  0  0  0
  194.1410  171.0430  140.3070 C   0  0  1  0  0  3  0  0  0  0  0  0
  193.9490  170.5350  141.7430 C   0  0  1  0  0  3  0  0  0  0  0  0
  196.0210  170.2100  145.8730 C   0  0  0  0  0  3  0  0  0  0  0  0
  194.1730  168.6980  144.4160 C   0  0  0  0  0  3  0  0  0  0  0  0
  195.1070  169.3930  146.5430 C   0  0  0  0  0  3  0  0  0  0  0  0
  196.0120  170.2730  144.4750 C   0  0  0  0  0  3  0  0  0  0  0  0
  194.1830  168.6370  145.8140 C   0  0  0  0  0  3  0  0  0  0  0  0
  195.0840  169.5170  143.7410 C   0  0  0  0  0  0  0  0  0  0  0  0
  194.1030  173.5810  139.3540 S   0  0  0  0  0  0  0  0  0  0  0  0
  194.6770  172.4400  140.3390 C   0  0  0  0  0  2  0  0  0  0  0  0
  195.2700  174.9260  139.5890 C   0  0  0  0  0  2  0  0  0  0  0  0
  193.6950  175.6130  141.3150 C   0  0  0  0  0  3  0  0  0  0  0  0
  194.9270  175.6890  140.8200 C   0  0  0  0  0  3  0  0  0  0  0  0
  193.2520  176.3460  142.5610 C   0  0  2  0  0  3  0  0  0  0  0  0
  196.8510  173.2880  145.3890 F   0  0  0  0  0  0  0  0  0  0  0  0
  194.3560  174.4650  143.4580 C   0  0  0  0  0  2  0  0  0  0  0  0
  194.3050  175.6940  146.6390 C   0  0  0  0  0  2  0  0  0  0  0  0
  194.1950  176.8560  145.6500 C   0  0  0  0  0  2  0  0  0  0  0  0
  195.6730  173.9470  145.5220 C   0  0  0  0  0  0  0  0  0  0  0  0
  194.5120  173.5370  144.6580 C   0  0  0  0  0  2  0  0  0  0  0  0
  194.6420  176.5100  144.3600 O   0  0  0  0  0  0  0  0  0  0  0  0
  193.6810  175.7130  143.8190 N   0  0  0  0  0  0  0  0  0  0  0  0
  195.5700  174.9160  146.4410 C   0  0  0  0  0  3  0  0  0  0  0  0
  191.8840  176.7100  142.5390 O   0  0  0  0  0  0  0  0  0  0  0  0
  190.2570  178.1980  143.4460 C   0  0  0  0  0  1  0  0  0  0  0  0
  191.7240  177.9700  143.1380 C   0  0  0  0  0  2  0  0  0  0  0  0
  192.5080  170.1050  142.0700 C   0  0  0  0  0  2  0  0  0  0  0  0
  191.3420  170.8190  141.3380 C   0  0  2  0  0  3  0  0  0  0  0  0
  189.3950  173.9830  143.5200 C   0  0  2  0  0  3  0  0  0  0  0  0
  190.6750  173.4260  144.1660 C   0  0  0  0  0  2  0  0  0  0  0  0
  189.3060  175.0940  141.3640 O   0  0  0  0  0  0  0  0  0  0  0  0
  189.6390  174.0810  142.0340 C   0  0  0  0  0  0  0  0  0  0  0  0
  190.2840  173.0160  141.4100 O   0  0  0  0  0  0  0  0  0  0  0  0
  190.5410  171.8300  142.1530 C   0  0  2  0  0  3  0  0  0  0  0  0
  191.2320  172.1590  143.4820 C   0  0  0  0  0  2  0  0  0  0  0  0
  186.0180  176.8860  146.7600 C   0  0  0  0  0  2  0  0  0  0  0  0
  186.5270  178.2200  146.2320 C   0  0  0  0  0  2  0  0  0  0  0  0
  188.5040  176.5520  146.3000 C   0  0  0  0  0  2  0  0  0  0  0  0
  187.5660  175.6930  143.6600 C   0  0  0  0  0  3  0  0  0  0  0  0
  188.9420  175.3060  144.1630 C   0  0  1  0  0  3  0  0  0  0  0  0
  186.7390  176.4720  144.3730 C   0  0  0  0  0  3  0  0  0  0  0  0
  187.1360  176.9280  145.7460 C   0  0  0  0  0  0  0  0  0  0  0  0
  188.9480  175.2210  145.6990 C   0  0  0  0  0  2  0  0  0  0  0  0
  190.9690  168.6710  140.3950 N   0  0  0  0  0  2  0  0  0  0  0  0
  190.9150  170.2370  139.0560 C   0  0  1  0  0  3  0  0  0  0  0  0
  190.5040  170.0030  140.4350 N   0  0  0  0  0  0  0  0  0  0  0  0
  191.3860  168.8110  139.0070 C   0  0  0  0  0  2  0  0  0  0  0  0
  189.6960  170.4200  138.1600 C   0  0  1  0  0  3  0  0  0  0  0  0
  189.1060  171.8310  138.3310 C   0  0  0  0  0  2  0  0  0  0  0  0
  189.5870  171.5360  136.1010 C   0  0  0  0  0  0  0  0  0  0  0  0
  190.1000  170.2860  136.6880 C   0  0  0  0  0  2  0  0  0  0  0  0
  189.0300  172.3740  137.0300 O   0  0  0  0  0  0  0  0  0  0  0  0
  189.6550  171.8120  134.8750 O   0  0  0  0  0  0  0  0  0  0  0  0
  1  2  1  0  0  0  0
  2 12  1  1  0  0  0
  3  1  1  0  0  0  0
  4  3  1  0  0  0  0
  4  5  1  0  0  0  0
  5 14  1  1  0  0  0
  5  6  1  0  0  0  0
  6 31  1  6  0  0  0
  6  2  1  0  0  0  0
  7  9  1  0  0  0  0
  8 11  1  0  0  0  0
 10  7  2  0  0  0  0
 11  9  2  0  0  0  0
 12  8  2  0  0  0  0
 12 10  1  0  0  0  0
 13 15  1  0  0  0  0
 13 14  1  0  0  0  0
 15 17  1  0  0  0  0
 17 16  2  0  0  0  0
 18 16  1  6  0  0  0
 18 26  1  0  0  0  0
 19 23  1  0  0  0  0
 20 26  1  0  0  0  0
 20 24  1  0  0  0  0
 22 21  1  0  0  0  0
 23 27  2  0  0  0  0
 24 23  1  0  0  0  0
 25 22  1  0  0  0  0
 26 25  1  0  0  0  0
 27 21  1  0  0  0  0
 28 18  1  0  0  0  0
 28 30  1  0  0  0  0
 30 29  1  0  0  0  0
 32 31  1  1  0  0  0
 33 44  1  0  0  0  0
 33 34  1  1  0  0  0
 35 36  2  0  0  0  0
 36 33  1  0  0  0  0
 37 36  1  0  0  0  0
 37 38  1  0  0  0  0
 38 32  1  6  0  0  0
 38 39  1  0  0  0  0
 39 34  1  0  0  0  0
 41 40  1  0  0  0  0
 43 45  2  0  0  0  0
 44 43  1  6  0  0  0
 44 47  1  0  0  0  0
 45 46  1  0  0  0  0
 46 41  1  0  0  0  0
 46 42  1  0  0  0  0
 46 40  1  0  0  0  0
 47 42  1  0  0  0  0
 48 50  1  0  0  0  0
 49 51  1  6  0  0  0
 49 50  1  0  0  0  0
 50 32  1  0  0  0  0
 51 48  1  0  0  0  0
 52 55  1  6  0  0  0
 52 53  1  0  0  0  0
 52 49  1  0  0  0  0
 54 55  1  0  0  0  0
 54 56  1  0  0  0  0
 56 53  1  0  0  0  0
 57 54  2  0  0  0  0
M  END
>  <MODEL>
8

>  <REMARK>
 VINA RESULT:      -5.6      2.745      6.019
  Name = 
  14 active torsions:
  status: ('A' for Active; 'I' for Inactive)
    1  A    between atoms: C_5  and  C_34
    2  A    between atoms: C_10  and  C_14
    3  A    between atoms: C_11  and  C_26
    4  A    between atoms: C_11  and  C_38
    5  A    between atoms: C_16  and  C_56
    6  A    between atoms: S_22  and  C_36
    7  A    between atoms: C_26  and  N_37
    8  A    between atoms: C_26  and  C_51
    9  A    between atoms: C_28  and  O_40
   10  A    between atoms: C_28  and  C_41
   11  A    between atoms: C_28  and  N_47
   12  A    between atoms: C_29  and  C_43
   13  A    between atoms: C_36  and  C_44
   14  A    between atoms: O_40  and  C_48
                            x       y       z     vdW  Elec       q    Type
                         _______ _______ _______ _____ _____    ______ ____

>  <TORSDO>
F 14

$$$$
=
 OpenBabel11042417523D

 57 64  0  0  1  0  0  0  0  0999 V2000
  189.3180  172.0330  136.1360 C   0  0  0  0  0  2  0  0  0  0  0  0
  190.1460  173.3080  135.9960 C   0  0  2  0  0  3  0  0  0  0  0  0
  190.1960  170.7800  136.1300 C   0  0  0  0  0  2  0  0  0  0  0  0
  191.6260  171.0120  136.6440 C   0  0  0  0  0  2  0  0  0  0  0  0
  191.7240  172.1330  137.6880 C   0  0  1  0  0  3  0  0  0  0  0  0
  191.1400  173.4520  137.1640 C   0  0  1  0  0  3  0  0  0  0  0  0
  188.5950  176.5520  134.7380 C   0  0  0  0  0  3  0  0  0  0  0  0
  188.2280  174.6920  136.7950 C   0  0  0  0  0  3  0  0  0  0  0  0
  187.5630  176.7300  135.6630 C   0  0  0  0  0  3  0  0  0  0  0  0
  189.4440  175.4440  134.8400 C   0  0  0  0  0  3  0  0  0  0  0  0
  187.3790  175.7990  136.6910 C   0  0  0  0  0  3  0  0  0  0  0  0
  189.2620  174.5080  135.8700 C   0  0  0  0  0  0  0  0  0  0  0  0
  191.8080  171.7530  140.3710 S   0  0  0  0  0  0  0  0  0  0  0  0
  191.0310  171.7480  138.9570 C   0  0  0  0  0  2  0  0  0  0  0  0
  190.6370  170.9400  141.4640 C   0  0  0  0  0  2  0  0  0  0  0  0
  190.5420  172.8590  142.9600 C   0  0  0  0  0  3  0  0  0  0  0  0
  189.8800  171.9560  142.2440 C   0  0  0  0  0  3  0  0  0  0  0  0
  189.8620  173.9320  143.7800 C   0  0  2  0  0  3  0  0  0  0  0  0
  185.8540  176.9300  141.4870 F   0  0  0  0  0  0  0  0  0  0  0  0
  188.2570  174.6900  142.2260 C   0  0  0  0  0  2  0  0  0  0  0  0
  189.3240  177.9250  142.3890 C   0  0  0  0  0  2  0  0  0  0  0  0
  189.7290  177.1980  143.6720 C   0  0  0  0  0  2  0  0  0  0  0  0
  187.2030  176.8790  141.6280 C   0  0  0  0  0  0  0  0  0  0  0  0
  187.9400  175.6750  141.1070 C   0  0  0  0  0  2  0  0  0  0  0  0
  188.9750  176.0290  143.8910 O   0  0  0  0  0  0  0  0  0  0  0  0
  189.4280  175.1040  143.0010 N   0  0  0  0  0  0  0  0  0  0  0  0
  187.8380  177.9140  142.1910 C   0  0  0  0  0  3  0  0  0  0  0  0
  190.5650  174.2600  144.9650 O   0  0  0  0  0  0  0  0  0  0  0  0
  192.6370  175.3770  144.5830 C   0  0  0  0  0  1  0  0  0  0  0  0
  191.9390  174.0440  144.7710 C   0  0  0  0  0  2  0  0  0  0  0  0
  192.1770  174.5760  136.9980 C   0  0  0  0  0  2  0  0  0  0  0  0
  193.6710  174.1850  136.8570 C   0  0  2  0  0  3  0  0  0  0  0  0
  195.7360  173.9000  140.6280 C   0  0  2  0  0  3  0  0  0  0  0  0
  194.3930  174.6510  140.6640 C   0  0  0  0  0  2  0  0  0  0  0  0
  195.9940  171.5600  140.0390 O   0  0  0  0  0  0  0  0  0  0  0  0
  195.5630  172.7020  139.7280 C   0  0  0  0  0  0  0  0  0  0  0  0
  194.8740  172.8810  138.5310 O   0  0  0  0  0  0  0  0  0  0  0  0
  194.5040  174.1970  138.1340 C   0  0  2  0  0  3  0  0  0  0  0  0
  193.7800  174.9260  139.2740 C   0  0  0  0  0  2  0  0  0  0  0  0
  195.6840  174.5360  146.0970 C   0  0  0  0  0  2  0  0  0  0  0  0
  196.9860  173.7680  146.2800 C   0  0  0  0  0  2  0  0  0  0  0  0
  195.6670  172.7020  144.3260 C   0  0  0  0  0  2  0  0  0  0  0  0
  196.9330  174.7520  142.6590 C   0  0  0  0  0  3  0  0  0  0  0  0
  196.2500  173.5520  142.0350 C   0  0  1  0  0  3  0  0  0  0  0  0
  197.0260  174.9100  143.9880 C   0  0  0  0  0  3  0  0  0  0  0  0
  196.3770  173.9170  144.9070 C   0  0  0  0  0  0  0  0  0  0  0  0
  195.1170  173.0460  142.9440 C   0  0  0  0  0  2  0  0  0  0  0  0
  195.7120  174.1810  135.6400 N   0  0  0  0  0  2  0  0  0  0  0  0
  194.8940  176.0430  135.9730 C   0  0  1  0  0  3  0  0  0  0  0  0
  194.4010  174.7030  135.6810 N   0  0  0  0  0  0  0  0  0  0  0  0
  196.2890  175.4910  135.9050 C   0  0  0  0  0  2  0  0  0  0  0  0
  194.6390  176.9750  134.7940 C   0  0  1  0  0  3  0  0  0  0  0  0
  193.1890  177.4930  134.8190 C   0  0  0  0  0  2  0  0  0  0  0  0
  194.5880  179.3190  134.8070 C   0  0  0  0  0  0  0  0  0  0  0  0
  195.5480  178.2050  134.8880 C   0  0  0  0  0  2  0  0  0  0  0  0
  193.2850  178.9000  134.7590 O   0  0  0  0  0  0  0  0  0  0  0  0
  194.9250  180.5320  134.7880 O   0  0  0  0  0  0  0  0  0  0  0  0
  2 12  1  1  0  0  0
  2  1  1  0  0  0  0
  2  6  1  0  0  0  0
  3  1  1  0  0  0  0
  3  4  1  0  0  0  0
  4  5  1  0  0  0  0
  5 14  1  1  0  0  0
  6 31  1  6  0  0  0
  6  5  1  0  0  0  0
  7 10  2  0  0  0  0
  7  9  1  0  0  0  0
  9 11  2  0  0  0  0
 10 12  1  0  0  0  0
 11  8  1  0  0  0  0
 12  8  2  0  0  0  0
 13 15  1  0  0  0  0
 14 13  1  0  0  0  0
 15 17  1  0  0  0  0
 17 16  2  0  0  0  0
 18 16  1  6  0  0  0
 18 28  1  0  0  0  0
 19 23  1  0  0  0  0
 20 26  1  0  0  0  0
 21 22  1  0  0  0  0
 22 25  1  0  0  0  0
 23 27  2  0  0  0  0
 24 23  1  0  0  0  0
 24 20  1  0  0  0  0
 26 18  1  0  0  0  0
 26 25  1  0  0  0  0
 27 21  1  0  0  0  0
 29 30  1  0  0  0  0
 30 28  1  0  0  0  0
 32 31  1  1  0  0  0
 33 34  1  1  0  0  0
 33 44  1  0  0  0  0
 36 35  2  0  0  0  0
 36 33  1  0  0  0  0
 37 36  1  0  0  0  0
 38 32  1  6  0  0  0
 38 37  1  0  0  0  0
 38 39  1  0  0  0  0
 39 34  1  0  0  0  0
 40 41  1  0  0  0  0
 42 46  1  0  0  0  0
 43 45  2  0  0  0  0
 44 43  1  1  0  0  0
 44 47  1  0  0  0  0
 45 46  1  0  0  0  0
 46 40  1  0  0  0  0
 46 41  1  0  0  0  0
 47 42  1  0  0  0  0
 48 50  1  0  0  0  0
 48 51  1  0  0  0  0
 49 51  1  6  0  0  0
 50 49  1  0  0  0  0
 50 32  1  0  0  0  0
 52 53  1  1  0  0  0
 52 55  1  0  0  0  0
 52 49  1  0  0  0  0
 54 55  1  0  0  0  0
 56 54  1  0  0  0  0
 56 53  1  0  0  0  0
 57 54  2  0  0  0  0
M  END
>  <MODEL>
9

>  <REMARK>
 VINA RESULT:      -5.6      4.016      7.308
  Name = 
  14 active torsions:
  status: ('A' for Active; 'I' for Inactive)
    1  A    between atoms: C_5  and  C_34
    2  A    between atoms: C_10  and  C_14
    3  A    between atoms: C_11  and  C_26
    4  A    between atoms: C_11  and  C_38
    5  A    between atoms: C_16  and  C_56
    6  A    between atoms: S_22  and  C_36
    7  A    between atoms: C_26  and  N_37
    8  A    between atoms: C_26  and  C_51
    9  A    between atoms: C_28  and  O_40
   10  A    between atoms: C_28  and  C_41
   11  A    between atoms: C_28  and  N_47
   12  A    between atoms: C_29  and  C_43
   13  A    between atoms: C_36  and  C_44
   14  A    between atoms: O_40  and  C_48
                            x       y       z     vdW  Elec       q    Type
                         _______ _______ _______ _____ _____    ______ ____

>  <TORSDO>
F 14

$$$$
