=
 OpenBabel11042414583D

 39 41  0  0  0  0  0  0  0  0999 V2000
  190.4790  177.0900  144.9270 C   0  0  0  0  0  0  0  0  0  0  0  0
  190.9680  176.1360  145.8620 C   0  0  0  0  0  0  0  0  0  0  0  0
  189.1530  177.5290  145.0070 C   0  0  0  0  0  3  0  0  0  0  0  0
  190.0690  175.6420  146.8250 C   0  0  0  0  0  3  0  0  0  0  0  0
  188.7490  176.0870  146.8880 C   0  0  0  0  0  3  0  0  0  0  0  0
  188.2760  177.0500  145.9890 C   0  0  0  0  0  0  0  0  0  0  0  0
  192.6800  174.2590  145.7520 C   0  0  0  0  0  3  0  0  0  0  0  0
  195.0540  174.7200  145.8890 C   0  0  0  0  0  0  0  0  0  0  0  0
  194.0010  173.8050  145.7480 C   0  0  0  0  0  0  0  0  0  0  0  0
  193.4490  176.5260  146.0270 C   0  0  0  0  0  3  0  0  0  0  0  0
  194.7740  176.0800  146.0250 C   0  0  0  0  0  3  0  0  0  0  0  0
  192.3760  175.6210  145.8940 C   0  0  0  0  0  0  0  0  0  0  0  0
  196.3740  174.2850  145.8920 O   0  0  0  0  0  1  0  0  0  0  0  0
  194.2670  172.3460  145.5950 C   0  0  0  0  0  1  0  0  0  0  0  0
  185.1120  178.6270  147.3340 C   0  0  0  0  0  3  0  0  0  0  0  0
  186.4280  178.1830  147.2020 C   0  0  0  0  0  3  0  0  0  0  0  0
  184.2050  178.4380  146.2970 C   0  0  0  0  0  3  0  0  0  0  0  0
  186.8680  177.5430  146.0290 C   0  0  0  0  0  0  0  0  0  0  0  0
  185.9300  177.3550  144.9740 C   0  0  0  0  0  0  0  0  0  0  0  0
  184.6120  177.8040  145.1240 C   0  0  0  0  0  3  0  0  0  0  0  0
  186.2710  176.6700  143.6920 C   0  0  0  0  0  2  0  0  0  0  0  0
  185.4760  177.2320  142.6110 N   0  0  0  0  0  1  0  0  0  0  0  0
  191.2810  177.6480  143.8300 C   0  0  0  0  0  0  0  0  0  0  0  0
  191.7370  176.8290  142.7520 N   0  0  0  0  0  2  0  0  0  0  0  0
  191.6060  178.8640  143.8620 O   0  0  0  0  0  0  0  0  0  0  0  0
  191.2920  175.4550  142.5660 C   0  0  0  0  0  2  0  0  0  0  0  0
  192.1130  174.7830  141.4770 C   0  0  0  0  0  2  0  0  0  0  0  0
  195.3930  173.5440  142.5070 O   0  0  0  0  0  1  0  0  0  0  0  0
  193.1280  173.9020  142.0450 N   0  0  0  0  0  0  0  0  0  0  0  0
  194.4780  174.3580  142.2210 C   0  0  0  0  0  0  0  0  0  0  0  0
  194.7910  175.7040  142.0700 O   0  0  0  0  0  0  0  0  0  0  0  0
  192.7870  172.5010  142.2580 C   0  0  0  0  0  2  0  0  0  0  0  0
  192.1530  171.9220  141.0050 C   0  0  0  0  0  2  0  0  0  0  0  0
  190.8710  171.2090  141.3820 C   0  0  0  0  0  2  0  0  0  0  0  0
  187.8480  173.2690  141.9530 N   0  0  0  0  0  2  0  0  0  0  0  0
  189.7270  172.0870  141.1700 N   0  0  0  0  0  2  0  0  0  0  0  0
  188.8240  172.4630  142.2170 C   0  0  0  0  0  0  0  0  0  0  0  0
  189.0590  172.0410  143.6300 C   0  0  0  0  0  2  0  0  0  0  0  0
  189.7510  173.0430  144.3090 O   0  0  0  0  0  1  0  0  0  0  0  0
  1  3  2  0  0  0  0
  1  2  1  0  0  0  0
  2 12  1  0  0  0  0
  2  4  2  0  0  0  0
  3  6  1  0  0  0  0
  4  5  1  0  0  0  0
  6 18  1  0  0  0  0
  6  5  2  0  0  0  0
  7 12  1  0  0  0  0
  8 13  1  0  0  0  0
  8 11  2  0  0  0  0
  9  7  2  0  0  0  0
  9  8  1  0  0  0  0
 11 10  1  0  0  0  0
 12 10  2  0  0  0  0
 14  9  1  0  0  0  0
 16 15  1  0  0  0  0
 17 15  2  0  0  0  0
 18 16  2  0  0  0  0
 19 20  2  0  0  0  0
 19 18  1  0  0  0  0
 20 17  1  0  0  0  0
 21 19  1  0  0  0  0
 22 21  1  0  0  0  0
 23 25  2  0  0  0  0
 23  1  1  0  0  0  0
 24 23  1  0  0  0  0
 26 24  1  0  0  0  0
 27 29  1  0  0  0  0
 27 26  1  0  0  0  0
 29 30  1  0  0  0  0
 29 32  1  0  0  0  0
 30 28  1  0  0  0  0
 31 30  2  0  0  0  0
 33 34  1  0  0  0  0
 33 32  1  0  0  0  0
 35 37  2  0  0  0  0
 36 34  1  0  0  0  0
 36 37  1  0  0  0  0
 37 38  1  0  0  0  0
 38 39  1  0  0  0  0
M  END
>  <MODEL>
1

>  <REMARK>
 VINA RESULT:      -7.3      0.000      0.000
  Name = 
  12 active torsions:
  status: ('A' for Active; 'I' for Inactive)
    1  A    between atoms: C_1  and  C_14
    2  A    between atoms: C_2  and  C_21
    3  A    between atoms: N_8  and  C_33
    4  A    between atoms: C_9  and  C_32
    5  A    between atoms: C_13  and  C_25
    6  A    between atoms: C_13  and  C_33
    7  A    between atoms: C_18  and  N_20
    8  A    between atoms: C_18  and  C_23
    9  A    between atoms: C_19  and  C_30
   10  A    between atoms: N_22  and  C_23
   11  A    between atoms: N_22  and  C_25
   12  A    between atoms: C_27  and  C_34
                            x       y       z     vdW  Elec       q    Type
                         _______ _______ _______ _____ _____    ______ ____

>  <TORSDO>
F 12

$$$$
=
 OpenBabel11042414583D

 39 41  0  0  0  0  0  0  0  0999 V2000
  189.8520  176.3930  144.3520 C   0  0  0  0  0  0  0  0  0  0  0  0
  189.0870  176.5270  145.5450 C   0  0  0  0  0  0  0  0  0  0  0  0
  191.1240  175.8140  144.4010 C   0  0  0  0  0  3  0  0  0  0  0  0
  189.6700  176.0910  146.7490 C   0  0  0  0  0  3  0  0  0  0  0  0
  190.9420  175.5200  146.7800 C   0  0  0  0  0  3  0  0  0  0  0  0
  191.6820  175.3570  145.6030 C   0  0  0  0  0  0  0  0  0  0  0  0
  187.2990  178.1730  144.8000 C   0  0  0  0  0  3  0  0  0  0  0  0
  185.0580  178.0870  145.7160 C   0  0  0  0  0  0  0  0  0  0  0  0
  185.9930  178.6680  144.8480 C   0  0  0  0  0  0  0  0  0  0  0  0
  186.7460  176.5240  146.4680 C   0  0  0  0  0  3  0  0  0  0  0  0
  185.4380  177.0120  146.5230 C   0  0  0  0  0  3  0  0  0  0  0  0
  187.7030  177.0990  145.6070 C   0  0  0  0  0  0  0  0  0  0  0  0
  183.7560  178.5690  145.7810 O   0  0  0  0  0  1  0  0  0  0  0  0
  185.6170  179.8120  143.9710 C   0  0  0  0  0  1  0  0  0  0  0  0
  194.4090  172.7690  145.1940 C   0  0  0  0  0  3  0  0  0  0  0  0
  193.1750  173.4200  145.1740 C   0  0  0  0  0  3  0  0  0  0  0  0
  195.5420  173.4370  145.6490 C   0  0  0  0  0  3  0  0  0  0  0  0
  193.0460  174.7530  145.6050 C   0  0  0  0  0  0  0  0  0  0  0  0
  194.2130  175.4250  146.0690 C   0  0  0  0  0  0  0  0  0  0  0  0
  195.4430  174.7570  146.0850 C   0  0  0  0  0  3  0  0  0  0  0  0
  194.1980  176.8310  146.5720 C   0  0  0  0  0  2  0  0  0  0  0  0
  194.8340  177.7050  145.5990 N   0  0  0  0  0  1  0  0  0  0  0  0
  189.4020  176.8580  143.0330 C   0  0  0  0  0  0  0  0  0  0  0  0
  188.5650  176.0490  142.2050 N   0  0  0  0  0  2  0  0  0  0  0  0
  189.7960  177.9760  142.6080 O   0  0  0  0  0  0  0  0  0  0  0  0
  187.9540  174.8130  142.6750 C   0  0  0  0  0  2  0  0  0  0  0  0
  188.0750  173.7330  141.6110 C   0  0  0  0  0  2  0  0  0  0  0  0
  190.9970  173.2490  139.4700 O   0  0  0  0  0  1  0  0  0  0  0  0
  189.4650  173.5320  141.2150 N   0  0  0  0  0  0  0  0  0  0  0  0
  189.8550  173.6280  139.8360 C   0  0  0  0  0  0  0  0  0  0  0  0
  188.9720  174.1330  138.8890 O   0  0  0  0  0  0  0  0  0  0  0  0
  190.4080  173.0570  142.2190 C   0  0  0  0  0  2  0  0  0  0  0  0
  189.9070  171.7600  142.8320 C   0  0  0  0  0  2  0  0  0  0  0  0
  190.5450  170.5910  142.1100 C   0  0  0  0  0  2  0  0  0  0  0  0
  194.2440  170.7380  142.2070 N   0  0  0  0  0  2  0  0  0  0  0  0
  191.9330  170.8980  141.7870 N   0  0  0  0  0  2  0  0  0  0  0  0
  193.0400  170.4460  142.5770 C   0  0  0  0  0  0  0  0  0  0  0  0
  192.8360  169.5420  143.7490 C   0  0  0  0  0  2  0  0  0  0  0  0
  193.4840  168.3290  143.5220 O   0  0  0  0  0  1  0  0  0  0  0  0
  1  3  2  0  0  0  0
  1  2  1  0  0  0  0
  2 12  1  0  0  0  0
  2  4  2  0  0  0  0
  3  6  1  0  0  0  0
  4  5  1  0  0  0  0
  6 18  1  0  0  0  0
  6  5  2  0  0  0  0
  7  9  2  0  0  0  0
  7 12  1  0  0  0  0
  8 13  1  0  0  0  0
  8 11  2  0  0  0  0
  9  8  1  0  0  0  0
 10 11  1  0  0  0  0
 12 10  2  0  0  0  0
 14  9  1  0  0  0  0
 15 17  1  0  0  0  0
 16 15  2  0  0  0  0
 16 18  1  0  0  0  0
 17 20  2  0  0  0  0
 18 19  2  0  0  0  0
 19 20  1  0  0  0  0
 19 21  1  0  0  0  0
 22 21  1  0  0  0  0
 23  1  1  0  0  0  0
 24 26  1  0  0  0  0
 24 23  1  0  0  0  0
 25 23  2  0  0  0  0
 27 26  1  0  0  0  0
 28 30  1  0  0  0  0
 29 27  1  0  0  0  0
 29 32  1  0  0  0  0
 30 29  1  0  0  0  0
 31 30  2  0  0  0  0
 32 33  1  0  0  0  0
 34 33  1  0  0  0  0
 35 37  2  0  0  0  0
 36 34  1  0  0  0  0
 36 37  1  0  0  0  0
 37 38  1  0  0  0  0
 39 38  1  0  0  0  0
M  END
>  <MODEL>
2

>  <REMARK>
 VINA RESULT:      -7.1      2.658      6.847
  Name = 
  12 active torsions:
  status: ('A' for Active; 'I' for Inactive)
    1  A    between atoms: C_1  and  C_14
    2  A    between atoms: C_2  and  C_21
    3  A    between atoms: N_8  and  C_33
    4  A    between atoms: C_9  and  C_32
    5  A    between atoms: C_13  and  C_25
    6  A    between atoms: C_13  and  C_33
    7  A    between atoms: C_18  and  N_20
    8  A    between atoms: C_18  and  C_23
    9  A    between atoms: C_19  and  C_30
   10  A    between atoms: N_22  and  C_23
   11  A    between atoms: N_22  and  C_25
   12  A    between atoms: C_27  and  C_34
                            x       y       z     vdW  Elec       q    Type
                         _______ _______ _______ _____ _____    ______ ____

>  <TORSDO>
F 12

$$$$
=
 OpenBabel11042414583D

 39 41  0  0  0  0  0  0  0  0999 V2000
  190.2230  175.6960  145.3210 C   0  0  0  0  0  0  0  0  0  0  0  0
  189.4630  176.8700  145.0560 C   0  0  0  0  0  0  0  0  0  0  0  0
  191.5240  175.5810  144.8200 C   0  0  0  0  0  3  0  0  0  0  0  0
  190.0550  177.8680  144.2610 C   0  0  0  0  0  3  0  0  0  0  0  0
  191.3520  177.7350  143.7670 C   0  0  0  0  0  3  0  0  0  0  0  0
  192.1130  176.5960  144.0530 C   0  0  0  0  0  0  0  0  0  0  0  0
  187.8240  177.9140  146.6950 C   0  0  0  0  0  3  0  0  0  0  0  0
  185.4340  177.6060  146.4420 C   0  0  0  0  0  0  0  0  0  0  0  0
  186.5200  178.1610  147.1340 C   0  0  0  0  0  0  0  0  0  0  0  0
  186.9700  176.5750  144.8820 C   0  0  0  0  0  3  0  0  0  0  0  0
  185.6630  176.8160  145.3150 C   0  0  0  0  0  3  0  0  0  0  0  0
  188.0760  177.1170  145.5680 C   0  0  0  0  0  0  0  0  0  0  0  0
  184.1310  177.8370  146.8670 O   0  0  0  0  0  1  0  0  0  0  0  0
  186.3080  179.0130  148.3380 C   0  0  0  0  0  1  0  0  0  0  0  0
  194.9250  175.7730  141.6630 C   0  0  0  0  0  3  0  0  0  0  0  0
  193.6610  176.0050  142.2030 C   0  0  0  0  0  3  0  0  0  0  0  0
  196.0620  175.9500  142.4460 C   0  0  0  0  0  3  0  0  0  0  0  0
  193.5020  176.4220  143.5370 C   0  0  0  0  0  0  0  0  0  0  0  0
  194.6720  176.5990  144.3290 C   0  0  0  0  0  0  0  0  0  0  0  0
  195.9340  176.3600  143.7720 C   0  0  0  0  0  3  0  0  0  0  0  0
  194.6320  177.0160  145.7620 C   0  0  0  0  0  2  0  0  0  0  0  0
  194.5670  175.8380  146.6130 N   0  0  0  0  0  1  0  0  0  0  0  0
  189.7170  174.5460  146.0810 C   0  0  0  0  0  0  0  0  0  0  0  0
  189.6260  173.2480  145.4920 N   0  0  0  0  0  2  0  0  0  0  0  0
  189.3170  174.7170  147.2620 O   0  0  0  0  0  0  0  0  0  0  0  0
  190.1940  172.9350  144.1880 C   0  0  0  0  0  2  0  0  0  0  0  0
  189.2640  172.0050  143.4230 C   0  0  0  0  0  2  0  0  0  0  0  0
  190.5320  172.3260  140.0110 O   0  0  0  0  0  0  0  0  0  0  0  0
  189.2900  172.2890  141.9920 N   0  0  0  0  0  0  0  0  0  0  0  0
  190.4130  171.8990  141.1880 C   0  0  0  0  0  0  0  0  0  0  0  0
  191.3880  171.0520  141.7040 O   0  0  0  0  0  1  0  0  0  0  0  0
  188.2380  173.1310  141.4360 C   0  0  0  0  0  2  0  0  0  0  0  0
  188.0190  174.3440  142.3220 C   0  0  0  0  0  2  0  0  0  0  0  0
  188.4970  175.5840  141.5940 C   0  0  0  0  0  2  0  0  0  0  0  0
  185.9690  177.7760  140.0070 N   0  0  0  0  0  2  0  0  0  0  0  0
  187.4470  176.0860  140.7150 N   0  0  0  0  0  2  0  0  0  0  0  0
  186.8780  177.3940  140.8440 C   0  0  0  0  0  0  0  0  0  0  0  0
  187.4000  178.3700  141.8470 C   0  0  0  0  0  2  0  0  0  0  0  0
  186.3330  178.9800  142.5080 O   0  0  0  0  0  1  0  0  0  0  0  0
  1 23  1  0  0  0  0
  2  1  1  0  0  0  0
  2 12  1  0  0  0  0
  3  1  2  0  0  0  0
  4  2  2  0  0  0  0
  5  6  2  0  0  0  0
  5  4  1  0  0  0  0
  6  3  1  0  0  0  0
  7  9  1  0  0  0  0
  8 13  1  0  0  0  0
  8  9  2  0  0  0  0
  9 14  1  0  0  0  0
 10 11  2  0  0  0  0
 10 12  1  0  0  0  0
 11  8  1  0  0  0  0
 12  7  2  0  0  0  0
 15 16  2  0  0  0  0
 15 17  1  0  0  0  0
 16 18  1  0  0  0  0
 17 20  2  0  0  0  0
 18  6  1  0  0  0  0
 18 19  2  0  0  0  0
 19 21  1  0  0  0  0
 20 19  1  0  0  0  0
 21 22  1  0  0  0  0
 23 25  2  0  0  0  0
 24 23  1  0  0  0  0
 26 24  1  0  0  0  0
 27 26  1  0  0  0  0
 28 30  2  0  0  0  0
 29 27  1  0  0  0  0
 30 31  1  0  0  0  0
 30 29  1  0  0  0  0
 32 29  1  0  0  0  0
 32 33  1  0  0  0  0
 34 33  1  0  0  0  0
 35 37  2  0  0  0  0
 36 37  1  0  0  0  0
 36 34  1  0  0  0  0
 37 38  1  0  0  0  0
 38 39  1  0  0  0  0
M  END
>  <MODEL>
3

>  <REMARK>
 VINA RESULT:      -7.1      2.706      7.128
  Name = 
  12 active torsions:
  status: ('A' for Active; 'I' for Inactive)
    1  A    between atoms: C_1  and  C_14
    2  A    between atoms: C_2  and  C_21
    3  A    between atoms: N_8  and  C_33
    4  A    between atoms: C_9  and  C_32
    5  A    between atoms: C_13  and  C_25
    6  A    between atoms: C_13  and  C_33
    7  A    between atoms: C_18  and  N_20
    8  A    between atoms: C_18  and  C_23
    9  A    between atoms: C_19  and  C_30
   10  A    between atoms: N_22  and  C_23
   11  A    between atoms: N_22  and  C_25
   12  A    between atoms: C_27  and  C_34
                            x       y       z     vdW  Elec       q    Type
                         _______ _______ _______ _____ _____    ______ ____

>  <TORSDO>
F 12

$$$$
=
 OpenBabel11042414583D

 39 41  0  0  0  0  0  0  0  0999 V2000
  189.9710  176.5390  144.5390 C   0  0  0  0  0  0  0  0  0  0  0  0
  189.1460  176.5110  145.6980 C   0  0  0  0  0  0  0  0  0  0  0  0
  191.2410  175.9550  144.5730 C   0  0  0  0  0  3  0  0  0  0  0  0
  189.6680  175.9130  146.8590 C   0  0  0  0  0  3  0  0  0  0  0  0
  190.9380  175.3390  146.8770 C   0  0  0  0  0  3  0  0  0  0  0  0
  191.7380  175.3360  145.7290 C   0  0  0  0  0  0  0  0  0  0  0  0
  187.3280  178.1140  144.9290 C   0  0  0  0  0  3  0  0  0  0  0  0
  185.1070  178.0430  145.8940 C   0  0  0  0  0  0  0  0  0  0  0  0
  186.0190  178.5990  144.9850 C   0  0  0  0  0  0  0  0  0  0  0  0
  186.8240  176.5230  146.6680 C   0  0  0  0  0  3  0  0  0  0  0  0
  185.5120  177.0030  146.7310 C   0  0  0  0  0  3  0  0  0  0  0  0
  187.7580  177.0740  145.7670 C   0  0  0  0  0  0  0  0  0  0  0  0
  183.8020  178.5170  145.9670 O   0  0  0  0  0  1  0  0  0  0  0  0
  185.6150  179.7070  144.0740 C   0  0  0  0  0  1  0  0  0  0  0  0
  194.4540  172.7280  145.3790 C   0  0  0  0  0  3  0  0  0  0  0  0
  193.2190  173.3760  145.3650 C   0  0  0  0  0  3  0  0  0  0  0  0
  195.6020  173.4210  145.7500 C   0  0  0  0  0  3  0  0  0  0  0  0
  193.1030  174.7330  145.7170 C   0  0  0  0  0  0  0  0  0  0  0  0
  194.2840  175.4320  146.0960 C   0  0  0  0  0  0  0  0  0  0  0  0
  195.5160  174.7660  146.1070 C   0  0  0  0  0  3  0  0  0  0  0  0
  194.2860  176.8660  146.5120 C   0  0  0  0  0  2  0  0  0  0  0  0
  194.9030  177.6760  145.4730 N   0  0  0  0  0  1  0  0  0  0  0  0
  189.5870  177.1820  143.2750 C   0  0  0  0  0  0  0  0  0  0  0  0
  188.9510  176.4450  142.2290 N   0  0  0  0  0  2  0  0  0  0  0  0
  189.8610  178.3970  143.0950 O   0  0  0  0  0  0  0  0  0  0  0  0
  188.4750  175.0800  142.4070 C   0  0  0  0  0  2  0  0  0  0  0  0
  188.4440  174.3590  141.0690 C   0  0  0  0  0  2  0  0  0  0  0  0
  190.3510  171.4030  140.0780 O   0  0  0  0  0  1  0  0  0  0  0  0
  189.5610  173.4290  140.9410 N   0  0  0  0  0  0  0  0  0  0  0  0
  189.4880  172.3170  140.0350 C   0  0  0  0  0  0  0  0  0  0  0  0
  188.4590  172.2340  139.1050 O   0  0  0  0  0  0  0  0  0  0  0  0
  190.6700  173.5470  141.8790 C   0  0  0  0  0  2  0  0  0  0  0  0
  191.7820  174.3820  141.2670 C   0  0  0  0  0  2  0  0  0  0  0  0
  193.1160  173.7350  141.5780 C   0  0  0  0  0  2  0  0  0  0  0  0
  195.6750  176.3260  142.2500 N   0  0  0  0  0  2  0  0  0  0  0  0
  193.9880  174.6850  142.2600 N   0  0  0  0  0  2  0  0  0  0  0  0
  194.9590  175.4860  141.5770 C   0  0  0  0  0  0  0  0  0  0  0  0
  195.0750  175.4600  140.0880 C   0  0  0  0  0  2  0  0  0  0  0  0
  196.3080  174.9200  139.7230 O   0  0  0  0  0  1  0  0  0  0  0  0
  1  3  2  0  0  0  0
  1  2  1  0  0  0  0
  2 12  1  0  0  0  0
  2  4  2  0  0  0  0
  3  6  1  0  0  0  0
  4  5  1  0  0  0  0
  6  5  2  0  0  0  0
  7  9  2  0  0  0  0
  7 12  1  0  0  0  0
  8 13  1  0  0  0  0
  8 11  2  0  0  0  0
  9  8  1  0  0  0  0
 10 11  1  0  0  0  0
 12 10  2  0  0  0  0
 14  9  1  0  0  0  0
 15 17  1  0  0  0  0
 16 15  2  0  0  0  0
 16 18  1  0  0  0  0
 17 20  2  0  0  0  0
 18  6  1  0  0  0  0
 18 19  2  0  0  0  0
 19 20  1  0  0  0  0
 19 21  1  0  0  0  0
 22 21  1  0  0  0  0
 23  1  1  0  0  0  0
 24 26  1  0  0  0  0
 24 23  1  0  0  0  0
 25 23  2  0  0  0  0
 27 26  1  0  0  0  0
 29 27  1  0  0  0  0
 29 32  1  0  0  0  0
 30 28  1  0  0  0  0
 30 29  1  0  0  0  0
 31 30  2  0  0  0  0
 33 34  1  0  0  0  0
 33 32  1  0  0  0  0
 34 36  1  0  0  0  0
 37 35  2  0  0  0  0
 37 36  1  0  0  0  0
 38 37  1  0  0  0  0
 39 38  1  0  0  0  0
M  END
>  <MODEL>
4

>  <REMARK>
 VINA RESULT:      -7.0      2.426      7.138
  Name = 
  12 active torsions:
  status: ('A' for Active; 'I' for Inactive)
    1  A    between atoms: C_1  and  C_14
    2  A    between atoms: C_2  and  C_21
    3  A    between atoms: N_8  and  C_33
    4  A    between atoms: C_9  and  C_32
    5  A    between atoms: C_13  and  C_25
    6  A    between atoms: C_13  and  C_33
    7  A    between atoms: C_18  and  N_20
    8  A    between atoms: C_18  and  C_23
    9  A    between atoms: C_19  and  C_30
   10  A    between atoms: N_22  and  C_23
   11  A    between atoms: N_22  and  C_25
   12  A    between atoms: C_27  and  C_34
                            x       y       z     vdW  Elec       q    Type
                         _______ _______ _______ _____ _____    ______ ____

>  <TORSDO>
F 12

$$$$
=
 OpenBabel11042414583D

 39 41  0  0  0  0  0  0  0  0999 V2000
  189.5250  175.7810  145.3830 C   0  0  0  0  0  0  0  0  0  0  0  0
  190.6740  176.4910  144.9360 C   0  0  0  0  0  0  0  0  0  0  0  0
  188.2480  176.2980  145.1410 C   0  0  0  0  0  3  0  0  0  0  0  0
  190.4710  177.7210  144.2850 C   0  0  0  0  0  3  0  0  0  0  0  0
  189.1920  178.2240  144.0560 C   0  0  0  0  0  3  0  0  0  0  0  0
  188.0590  177.5110  144.4660 C   0  0  0  0  0  0  0  0  0  0  0  0
  192.7930  175.3750  144.0810 C   0  0  0  0  0  3  0  0  0  0  0  0
  194.7700  175.2120  145.4700 C   0  0  0  0  0  0  0  0  0  0  0  0
  194.1210  174.9740  144.2510 C   0  0  0  0  0  0  0  0  0  0  0  0
  192.7590  176.2540  146.3240 C   0  0  0  0  0  3  0  0  0  0  0  0
  194.0870  175.8550  146.5040 C   0  0  0  0  0  3  0  0  0  0  0  0
  192.0860  176.0170  145.1090 C   0  0  0  0  0  0  0  0  0  0  0  0
  196.0890  174.8150  145.6600 O   0  0  0  0  0  1  0  0  0  0  0  0
  194.8240  174.2950  143.1270 C   0  0  0  0  0  1  0  0  0  0  0  0
  184.7100  179.1100  145.1930 C   0  0  0  0  0  3  0  0  0  0  0  0
  186.0210  178.6500  145.3140 C   0  0  0  0  0  3  0  0  0  0  0  0
  184.0230  178.9530  143.9930 C   0  0  0  0  0  3  0  0  0  0  0  0
  186.6770  178.0250  144.2370 C   0  0  0  0  0  0  0  0  0  0  0  0
  185.9630  177.8690  143.0140 C   0  0  0  0  0  0  0  0  0  0  0  0
  184.6470  178.3350  142.9110 C   0  0  0  0  0  3  0  0  0  0  0  0
  186.5430  177.2030  141.8110 C   0  0  0  0  0  2  0  0  0  0  0  0
  185.8440  177.6530  140.6180 N   0  0  0  0  0  1  0  0  0  0  0  0
  189.5810  174.5170  146.1300 C   0  0  0  0  0  0  0  0  0  0  0  0
  189.7470  173.2650  145.4610 N   0  0  0  0  0  2  0  0  0  0  0  0
  189.4400  174.5350  147.3810 O   0  0  0  0  0  0  0  0  0  0  0  0
  190.0580  173.1680  144.0420 C   0  0  0  0  0  2  0  0  0  0  0  0
  189.2430  172.0530  143.4050 C   0  0  0  0  0  2  0  0  0  0  0  0
  189.3170  172.1240  139.7520 O   0  0  0  0  0  0  0  0  0  0  0  0
  189.6810  171.7890  142.0380 N   0  0  0  0  0  0  0  0  0  0  0  0
  189.0970  172.4960  140.9330 C   0  0  0  0  0  0  0  0  0  0  0  0
  188.2760  173.5960  141.1560 O   0  0  0  0  0  1  0  0  0  0  0  0
  190.5870  170.6720  141.8060 C   0  0  0  0  0  2  0  0  0  0  0  0
  192.0230  171.1640  141.7730 C   0  0  0  0  0  2  0  0  0  0  0  0
  192.8610  170.3140  142.7060 C   0  0  0  0  0  2  0  0  0  0  0  0
  194.3100  171.6670  145.8340 N   0  0  0  0  0  2  0  0  0  0  0  0
  193.0120  170.9820  143.9930 N   0  0  0  0  0  2  0  0  0  0  0  0
  194.2510  171.0290  144.7110 C   0  0  0  0  0  0  0  0  0  0  0  0
  195.5050  170.4630  144.1280 C   0  0  0  0  0  2  0  0  0  0  0  0
  196.5510  171.3680  144.3000 O   0  0  0  0  0  1  0  0  0  0  0  0
  1 23  1  0  0  0  0
  2 12  1  0  0  0  0
  2  1  2  0  0  0  0
  3  1  1  0  0  0  0
  4  2  1  0  0  0  0
  5  4  2  0  0  0  0
  5  6  1  0  0  0  0
  6  3  2  0  0  0  0
  7  9  2  0  0  0  0
  7 12  1  0  0  0  0
  8 13  1  0  0  0  0
  8 11  2  0  0  0  0
  9  8  1  0  0  0  0
 10 11  1  0  0  0  0
 12 10  2  0  0  0  0
 14  9  1  0  0  0  0
 15 16  1  0  0  0  0
 17 15  2  0  0  0  0
 18  6  1  0  0  0  0
 18 16  2  0  0  0  0
 19 18  1  0  0  0  0
 20 19  2  0  0  0  0
 20 17  1  0  0  0  0
 21 19  1  0  0  0  0
 22 21  1  0  0  0  0
 23 25  2  0  0  0  0
 24 23  1  0  0  0  0
 26 24  1  0  0  0  0
 27 26  1  0  0  0  0
 28 30  2  0  0  0  0
 29 27  1  0  0  0  0
 30 31  1  0  0  0  0
 30 29  1  0  0  0  0
 32 29  1  0  0  0  0
 33 32  1  0  0  0  0
 33 34  1  0  0  0  0
 34 36  1  0  0  0  0
 36 37  1  0  0  0  0
 37 35  2  0  0  0  0
 38 39  1  0  0  0  0
 38 37  1  0  0  0  0
M  END
>  <MODEL>
5

>  <REMARK>
 VINA RESULT:      -7.0      2.142      3.811
  Name = 
  12 active torsions:
  status: ('A' for Active; 'I' for Inactive)
    1  A    between atoms: C_1  and  C_14
    2  A    between atoms: C_2  and  C_21
    3  A    between atoms: N_8  and  C_33
    4  A    between atoms: C_9  and  C_32
    5  A    between atoms: C_13  and  C_25
    6  A    between atoms: C_13  and  C_33
    7  A    between atoms: C_18  and  N_20
    8  A    between atoms: C_18  and  C_23
    9  A    between atoms: C_19  and  C_30
   10  A    between atoms: N_22  and  C_23
   11  A    between atoms: N_22  and  C_25
   12  A    between atoms: C_27  and  C_34
                            x       y       z     vdW  Elec       q    Type
                         _______ _______ _______ _____ _____    ______ ____

>  <TORSDO>
F 12

$$$$
=
 OpenBabel11042414583D

 39 41  0  0  0  0  0  0  0  0999 V2000
  189.5700  175.6500  145.1580 C   0  0  0  0  0  0  0  0  0  0  0  0
  190.7240  176.4160  144.8320 C   0  0  0  0  0  0  0  0  0  0  0  0
  188.2950  176.1650  144.8970 C   0  0  0  0  0  3  0  0  0  0  0  0
  190.5270  177.6950  144.2810 C   0  0  0  0  0  3  0  0  0  0  0  0
  189.2490  178.1940  144.0310 C   0  0  0  0  0  3  0  0  0  0  0  0
  188.1140  177.4290  144.3210 C   0  0  0  0  0  0  0  0  0  0  0  0
  192.8630  175.3040  144.0260 C   0  0  0  0  0  3  0  0  0  0  0  0
  194.8180  175.1700  145.4510 C   0  0  0  0  0  0  0  0  0  0  0  0
  194.1910  174.9130  144.2240 C   0  0  0  0  0  0  0  0  0  0  0  0
  192.7860  176.2090  146.2590 C   0  0  0  0  0  3  0  0  0  0  0  0
  194.1140  175.8210  146.4650 C   0  0  0  0  0  3  0  0  0  0  0  0
  192.1350  175.9530  145.0350 C   0  0  0  0  0  0  0  0  0  0  0  0
  196.1360  174.7830  145.6680 O   0  0  0  0  0  1  0  0  0  0  0  0
  194.9170  174.2250  143.1200 C   0  0  0  0  0  1  0  0  0  0  0  0
  184.7930  179.1260  144.9520 C   0  0  0  0  0  3  0  0  0  0  0  0
  186.1010  178.6630  145.0940 C   0  0  0  0  0  3  0  0  0  0  0  0
  184.0860  178.8720  143.7810 C   0  0  0  0  0  3  0  0  0  0  0  0
  186.7330  177.9370  144.0680 C   0  0  0  0  0  0  0  0  0  0  0  0
  185.9990  177.6820  142.8740 C   0  0  0  0  0  0  0  0  0  0  0  0
  184.6870  178.1520  142.7490 C   0  0  0  0  0  3  0  0  0  0  0  0
  186.5530  176.9050  141.7260 C   0  0  0  0  0  2  0  0  0  0  0  0
  186.7390  177.7850  140.5830 N   0  0  0  0  0  1  0  0  0  0  0  0
  189.6170  174.3270  145.7950 C   0  0  0  0  0  0  0  0  0  0  0  0
  189.7290  173.1330  145.0190 N   0  0  0  0  0  2  0  0  0  0  0  0
  189.5150  174.2440  147.0470 O   0  0  0  0  0  0  0  0  0  0  0  0
  189.9920  173.1470  143.5870 C   0  0  0  0  0  2  0  0  0  0  0  0
  189.4280  171.8930  142.9400 C   0  0  0  0  0  2  0  0  0  0  0  0
  191.1660  170.6060  139.9940 O   0  0  0  0  0  0  0  0  0  0  0  0
  189.8660  171.7670  141.5540 N   0  0  0  0  0  0  0  0  0  0  0  0
  190.6100  170.6180  141.1220 C   0  0  0  0  0  0  0  0  0  0  0  0
  190.7300  169.5060  141.9490 O   0  0  0  0  0  1  0  0  0  0  0  0
  189.6890  172.9100  140.6670 C   0  0  0  0  0  2  0  0  0  0  0  0
  188.3530  172.8130  139.9520 C   0  0  0  0  0  2  0  0  0  0  0  0
  188.5700  173.0090  138.4650 C   0  0  0  0  0  2  0  0  0  0  0  0
  191.5730  174.4750  136.8690 N   0  0  0  0  0  2  0  0  0  0  0  0
  189.9410  173.4350  138.2100 N   0  0  0  0  0  2  0  0  0  0  0  0
  190.3420  174.1030  137.0080 C   0  0  0  0  0  0  0  0  0  0  0  0
  189.3430  174.4890  135.9670 C   0  0  0  0  0  2  0  0  0  0  0  0
  189.3490  173.5460  134.9390 O   0  0  0  0  0  1  0  0  0  0  0  0
  1 23  1  0  0  0  0
  2 12  1  0  0  0  0
  2  1  2  0  0  0  0
  3  1  1  0  0  0  0
  4  2  1  0  0  0  0
  5  4  2  0  0  0  0
  5  6  1  0  0  0  0
  6  3  2  0  0  0  0
  7  9  2  0  0  0  0
  7 12  1  0  0  0  0
  8 13  1  0  0  0  0
  8 11  2  0  0  0  0
  9  8  1  0  0  0  0
 10 11  1  0  0  0  0
 12 10  2  0  0  0  0
 14  9  1  0  0  0  0
 15 16  1  0  0  0  0
 17 15  2  0  0  0  0
 18  6  1  0  0  0  0
 18 16  2  0  0  0  0
 19 18  1  0  0  0  0
 20 19  2  0  0  0  0
 20 17  1  0  0  0  0
 21 19  1  0  0  0  0
 22 21  1  0  0  0  0
 23 25  2  0  0  0  0
 24 23  1  0  0  0  0
 26 24  1  0  0  0  0
 27 26  1  0  0  0  0
 28 30  2  0  0  0  0
 29 27  1  0  0  0  0
 30 29  1  0  0  0  0
 30 31  1  0  0  0  0
 32 29  1  0  0  0  0
 33 32  1  0  0  0  0
 34 33  1  0  0  0  0
 35 37  2  0  0  0  0
 36 34  1  0  0  0  0
 37 36  1  0  0  0  0
 38 37  1  0  0  0  0
 39 38  1  0  0  0  0
M  END
>  <MODEL>
6

>  <REMARK>
 VINA RESULT:      -6.9      2.903      3.968
  Name = 
  12 active torsions:
  status: ('A' for Active; 'I' for Inactive)
    1  A    between atoms: C_1  and  C_14
    2  A    between atoms: C_2  and  C_21
    3  A    between atoms: N_8  and  C_33
    4  A    between atoms: C_9  and  C_32
    5  A    between atoms: C_13  and  C_25
    6  A    between atoms: C_13  and  C_33
    7  A    between atoms: C_18  and  N_20
    8  A    between atoms: C_18  and  C_23
    9  A    between atoms: C_19  and  C_30
   10  A    between atoms: N_22  and  C_23
   11  A    between atoms: N_22  and  C_25
   12  A    between atoms: C_27  and  C_34
                            x       y       z     vdW  Elec       q    Type
                         _______ _______ _______ _____ _____    ______ ____

>  <TORSDO>
F 12

$$$$
=
 OpenBabel11042414583D

 39 41  0  0  0  0  0  0  0  0999 V2000
  190.2420  176.8360  144.6500 C   0  0  0  0  0  0  0  0  0  0  0  0
  190.7920  176.1640  145.7770 C   0  0  0  0  0  0  0  0  0  0  0  0
  188.9370  177.3370  144.7050 C   0  0  0  0  0  3  0  0  0  0  0  0
  189.9710  176.0020  146.9080 C   0  0  0  0  0  3  0  0  0  0  0  0
  188.6710  176.5050  146.9440 C   0  0  0  0  0  3  0  0  0  0  0  0
  188.1400  177.1950  145.8480 C   0  0  0  0  0  0  0  0  0  0  0  0
  192.4730  174.2630  145.6140 C   0  0  0  0  0  3  0  0  0  0  0  0
  194.8440  174.6600  145.9110 C   0  0  0  0  0  0  0  0  0  0  0  0
  193.7840  173.7810  145.6450 C   0  0  0  0  0  0  0  0  0  0  0  0
  193.2670  176.4860  146.1010 C   0  0  0  0  0  3  0  0  0  0  0  0
  194.5820  176.0120  146.1360 C   0  0  0  0  0  3  0  0  0  0  0  0
  192.1860  175.6170  145.8430 C   0  0  0  0  0  0  0  0  0  0  0  0
  196.1540  174.1970  145.9520 O   0  0  0  0  0  1  0  0  0  0  0  0
  194.0320  172.3330  145.3960 C   0  0  0  0  0  1  0  0  0  0  0  0
  184.7780  178.3060  147.1780 C   0  0  0  0  0  3  0  0  0  0  0  0
  186.0940  177.8510  147.0950 C   0  0  0  0  0  3  0  0  0  0  0  0
  184.0870  178.6570  146.0230 C   0  0  0  0  0  3  0  0  0  0  0  0
  186.7510  177.7410  145.8560 C   0  0  0  0  0  0  0  0  0  0  0  0
  186.0340  178.1030  144.6800 C   0  0  0  0  0  0  0  0  0  0  0  0
  184.7120  178.5550  144.7810 C   0  0  0  0  0  3  0  0  0  0  0  0
  186.6140  178.0080  143.3080 C   0  0  0  0  0  2  0  0  0  0  0  0
  186.0410  176.8660  142.6120 N   0  0  0  0  0  1  0  0  0  0  0  0
  190.9560  177.0250  143.3790 C   0  0  0  0  0  0  0  0  0  0  0  0
  190.9630  176.0110  142.3730 N   0  0  0  0  0  2  0  0  0  0  0  0
  191.6080  178.0860  143.1920 O   0  0  0  0  0  0  0  0  0  0  0  0
  190.1250  174.8220  142.4490 C   0  0  0  0  0  2  0  0  0  0  0  0
  190.4020  173.9110  141.2640 C   0  0  0  0  0  2  0  0  0  0  0  0
  191.6480  170.9930  143.0770 O   0  0  0  0  0  1  0  0  0  0  0  0
  191.2690  172.8000  141.6400 N   0  0  0  0  0  0  0  0  0  0  0  0
  190.8330  171.8220  142.5960 C   0  0  0  0  0  0  0  0  0  0  0  0
  189.5060  171.7840  143.0080 O   0  0  0  0  0  0  0  0  0  0  0  0
  192.6470  172.8050  141.1640 C   0  0  0  0  0  2  0  0  0  0  0  0
  193.5090  173.6620  142.0740 C   0  0  0  0  0  2  0  0  0  0  0  0
  194.0940  174.8070  141.2720 C   0  0  0  0  0  2  0  0  0  0  0  0
  196.4270  176.8180  143.3260 N   0  0  0  0  0  2  0  0  0  0  0  0
  194.6370  175.8210  142.1670 N   0  0  0  0  0  2  0  0  0  0  0  0
  196.0170  175.8680  142.5500 C   0  0  0  0  0  0  0  0  0  0  0  0
  197.0140  174.9170  141.9730 C   0  0  0  0  0  2  0  0  0  0  0  0
  197.8300  174.4210  142.9890 O   0  0  0  0  0  1  0  0  0  0  0  0
  1  3  2  0  0  0  0
  1  2  1  0  0  0  0
  2 12  1  0  0  0  0
  2  4  2  0  0  0  0
  3  6  1  0  0  0  0
  4  5  1  0  0  0  0
  6 18  1  0  0  0  0
  6  5  2  0  0  0  0
  7  9  2  0  0  0  0
  7 12  1  0  0  0  0
  8 13  1  0  0  0  0
  8 11  2  0  0  0  0
  9  8  1  0  0  0  0
 10 11  1  0  0  0  0
 12 10  2  0  0  0  0
 14  9  1  0  0  0  0
 16 15  1  0  0  0  0
 17 15  2  0  0  0  0
 18 16  2  0  0  0  0
 19 20  2  0  0  0  0
 19 18  1  0  0  0  0
 20 17  1  0  0  0  0
 21 19  1  0  0  0  0
 22 21  1  0  0  0  0
 23  1  1  0  0  0  0
 24 26  1  0  0  0  0
 24 23  1  0  0  0  0
 25 23  2  0  0  0  0
 27 29  1  0  0  0  0
 27 26  1  0  0  0  0
 29 30  1  0  0  0  0
 30 31  2  0  0  0  0
 30 28  1  0  0  0  0
 32 29  1  0  0  0  0
 32 33  1  0  0  0  0
 34 33  1  0  0  0  0
 34 36  1  0  0  0  0
 36 37  1  0  0  0  0
 37 35  2  0  0  0  0
 38 37  1  0  0  0  0
 38 39  1  0  0  0  0
M  END
>  <MODEL>
7

>  <REMARK>
 VINA RESULT:      -6.9      1.444      3.466
  Name = 
  12 active torsions:
  status: ('A' for Active; 'I' for Inactive)
    1  A    between atoms: C_1  and  C_14
    2  A    between atoms: C_2  and  C_21
    3  A    between atoms: N_8  and  C_33
    4  A    between atoms: C_9  and  C_32
    5  A    between atoms: C_13  and  C_25
    6  A    between atoms: C_13  and  C_33
    7  A    between atoms: C_18  and  N_20
    8  A    between atoms: C_18  and  C_23
    9  A    between atoms: C_19  and  C_30
   10  A    between atoms: N_22  and  C_23
   11  A    between atoms: N_22  and  C_25
   12  A    between atoms: C_27  and  C_34
                            x       y       z     vdW  Elec       q    Type
                         _______ _______ _______ _____ _____    ______ ____

>  <TORSDO>
F 12

$$$$
=
 OpenBabel11042414583D

 39 41  0  0  0  0  0  0  0  0999 V2000
  190.3480  177.0690  144.9430 C   0  0  0  0  0  0  0  0  0  0  0  0
  190.7960  176.1280  145.9120 C   0  0  0  0  0  0  0  0  0  0  0  0
  189.0300  177.5370  144.9820 C   0  0  0  0  0  3  0  0  0  0  0  0
  189.8650  175.6770  146.8660 C   0  0  0  0  0  3  0  0  0  0  0  0
  188.5540  176.1520  146.8880 C   0  0  0  0  0  3  0  0  0  0  0  0
  188.1210  177.1010  145.9560 C   0  0  0  0  0  0  0  0  0  0  0  0
  192.4890  174.2430  145.7050 C   0  0  0  0  0  3  0  0  0  0  0  0
  194.8500  174.6350  146.0750 C   0  0  0  0  0  0  0  0  0  0  0  0
  193.8020  173.7650  145.7460 C   0  0  0  0  0  0  0  0  0  0  0  0
  193.2600  176.4450  146.3090 C   0  0  0  0  0  3  0  0  0  0  0  0
  194.5760  175.9750  146.3530 C   0  0  0  0  0  3  0  0  0  0  0  0
  192.1910  175.5840  145.9870 C   0  0  0  0  0  0  0  0  0  0  0  0
  196.1620  174.1770  146.1260 O   0  0  0  0  0  1  0  0  0  0  0  0
  194.0620  172.3310  145.4390 C   0  0  0  0  0  1  0  0  0  0  0  0
  184.9590  178.7640  147.1970 C   0  0  0  0  0  3  0  0  0  0  0  0
  186.2680  178.2900  147.1060 C   0  0  0  0  0  3  0  0  0  0  0  0
  184.0750  178.5800  146.1390 C   0  0  0  0  0  3  0  0  0  0  0  0
  186.7240  177.6250  145.9530 C   0  0  0  0  0  0  0  0  0  0  0  0
  185.8100  177.4430  144.8760 C   0  0  0  0  0  0  0  0  0  0  0  0
  184.4990  177.9220  144.9850 C   0  0  0  0  0  3  0  0  0  0  0  0
  186.1690  176.7350  143.6120 C   0  0  0  0  0  2  0  0  0  0  0  0
  186.4360  177.7080  142.5640 N   0  0  0  0  0  1  0  0  0  0  0  0
  191.1850  177.5810  143.8500 C   0  0  0  0  0  0  0  0  0  0  0  0
  191.5620  176.7510  142.7500 N   0  0  0  0  0  2  0  0  0  0  0  0
  191.6120  178.7650  143.9050 O   0  0  0  0  0  0  0  0  0  0  0  0
  191.0010  175.4240  142.5390 C   0  0  0  0  0  2  0  0  0  0  0  0
  192.1150  174.3920  142.4630 C   0  0  0  0  0  2  0  0  0  0  0  0
  190.4080  171.1840  142.0770 O   0  0  0  0  0  0  0  0  0  0  0  0
  191.6500  173.1530  141.8490 N   0  0  0  0  0  0  0  0  0  0  0  0
  190.6530  172.3450  142.4930 C   0  0  0  0  0  0  0  0  0  0  0  0
  189.9520  172.8350  143.5900 O   0  0  0  0  0  1  0  0  0  0  0  0
  192.3460  172.6640  140.6650 C   0  0  0  0  0  2  0  0  0  0  0  0
  191.9400  173.4790  139.4490 C   0  0  0  0  0  2  0  0  0  0  0  0
  190.9460  172.6840  138.6280 C   0  0  0  0  0  2  0  0  0  0  0  0
  187.8380  174.5830  137.9590 N   0  0  0  0  0  2  0  0  0  0  0  0
  189.9660  173.5780  138.0230 N   0  0  0  0  0  2  0  0  0  0  0  0
  188.6400  173.7490  138.5370 C   0  0  0  0  0  0  0  0  0  0  0  0
  188.2060  173.0760  139.7980 C   0  0  0  0  0  2  0  0  0  0  0  0
  188.1900  174.0020  140.8410 O   0  0  0  0  0  1  0  0  0  0  0  0
  1  3  2  0  0  0  0
  1  2  1  0  0  0  0
  2 12  1  0  0  0  0
  2  4  2  0  0  0  0
  3  6  1  0  0  0  0
  4  5  1  0  0  0  0
  6  5  2  0  0  0  0
  7  9  2  0  0  0  0
  7 12  1  0  0  0  0
  8 13  1  0  0  0  0
  8 11  2  0  0  0  0
  9  8  1  0  0  0  0
 10 11  1  0  0  0  0
 12 10  2  0  0  0  0
 14  9  1  0  0  0  0
 16 15  1  0  0  0  0
 17 15  2  0  0  0  0
 18  6  1  0  0  0  0
 18 16  2  0  0  0  0
 19 20  2  0  0  0  0
 19 18  1  0  0  0  0
 20 17  1  0  0  0  0
 21 19  1  0  0  0  0
 22 21  1  0  0  0  0
 23 25  2  0  0  0  0
 23  1  1  0  0  0  0
 24 23  1  0  0  0  0
 26 24  1  0  0  0  0
 27 26  1  0  0  0  0
 28 30  2  0  0  0  0
 29 27  1  0  0  0  0
 29 30  1  0  0  0  0
 30 31  1  0  0  0  0
 32 29  1  0  0  0  0
 33 32  1  0  0  0  0
 34 33  1  0  0  0  0
 35 37  2  0  0  0  0
 36 37  1  0  0  0  0
 36 34  1  0  0  0  0
 37 38  1  0  0  0  0
 38 39  1  0  0  0  0
M  END
>  <MODEL>
8

>  <REMARK>
 VINA RESULT:      -6.9      1.591      2.172
  Name = 
  12 active torsions:
  status: ('A' for Active; 'I' for Inactive)
    1  A    between atoms: C_1  and  C_14
    2  A    between atoms: C_2  and  C_21
    3  A    between atoms: N_8  and  C_33
    4  A    between atoms: C_9  and  C_32
    5  A    between atoms: C_13  and  C_25
    6  A    between atoms: C_13  and  C_33
    7  A    between atoms: C_18  and  N_20
    8  A    between atoms: C_18  and  C_23
    9  A    between atoms: C_19  and  C_30
   10  A    between atoms: N_22  and  C_23
   11  A    between atoms: N_22  and  C_25
   12  A    between atoms: C_27  and  C_34
                            x       y       z     vdW  Elec       q    Type
                         _______ _______ _______ _____ _____    ______ ____

>  <TORSDO>
F 12

$$$$
=
 OpenBabel11042414583D

 39 41  0  0  0  0  0  0  0  0999 V2000
  190.3330  177.0670  144.7340 C   0  0  0  0  0  0  0  0  0  0  0  0
  190.7260  176.1460  145.7450 C   0  0  0  0  0  0  0  0  0  0  0  0
  189.0150  177.5320  144.6870 C   0  0  0  0  0  3  0  0  0  0  0  0
  189.7420  175.7120  146.6530 C   0  0  0  0  0  3  0  0  0  0  0  0
  188.4320  176.1830  146.5900 C   0  0  0  0  0  3  0  0  0  0  0  0
  188.0520  177.1140  145.6160 C   0  0  0  0  0  0  0  0  0  0  0  0
  192.4470  174.2810  145.6020 C   0  0  0  0  0  3  0  0  0  0  0  0
  194.7670  174.6710  146.1780 C   0  0  0  0  0  0  0  0  0  0  0  0
  193.7560  173.8090  145.7310 C   0  0  0  0  0  0  0  0  0  0  0  0
  193.1470  176.4610  146.3520 C   0  0  0  0  0  3  0  0  0  0  0  0
  194.4600  175.9970  146.4850 C   0  0  0  0  0  3  0  0  0  0  0  0
  192.1150  175.6080  145.9120 C   0  0  0  0  0  0  0  0  0  0  0  0
  196.0740  174.2180  146.3170 O   0  0  0  0  0  1  0  0  0  0  0  0
  194.0530  172.3890  145.3900 C   0  0  0  0  0  1  0  0  0  0  0  0
  184.7740  178.1990  144.0730 C   0  0  0  0  0  3  0  0  0  0  0  0
  186.0560  177.6790  144.2500 C   0  0  0  0  0  3  0  0  0  0  0  0
  184.0630  178.6880  145.1650 C   0  0  0  0  0  3  0  0  0  0  0  0
  186.6560  177.6340  145.5210 C   0  0  0  0  0  0  0  0  0  0  0  0
  185.9190  178.1380  146.6310 C   0  0  0  0  0  0  0  0  0  0  0  0
  184.6340  178.6580  146.4360 C   0  0  0  0  0  3  0  0  0  0  0  0
  186.4570  178.1650  148.0240 C   0  0  0  0  0  2  0  0  0  0  0  0
  186.7270  179.5380  148.4180 N   0  0  0  0  0  1  0  0  0  0  0  0
  191.2320  177.5600  143.6810 C   0  0  0  0  0  0  0  0  0  0  0  0
  191.8170  176.6720  142.7270 N   0  0  0  0  0  2  0  0  0  0  0  0
  191.5230  178.7840  143.6450 O   0  0  0  0  0  0  0  0  0  0  0  0
  191.4250  175.2740  142.6110 C   0  0  0  0  0  2  0  0  0  0  0  0
  190.2890  175.1320  141.6110 C   0  0  0  0  0  2  0  0  0  0  0  0
  186.8020  175.0940  142.7050 O   0  0  0  0  0  1  0  0  0  0  0  0
  189.0620  174.6840  142.2610 N   0  0  0  0  0  0  0  0  0  0  0  0
  187.8110  175.3360  141.9930 C   0  0  0  0  0  0  0  0  0  0  0  0
  187.7020  176.2480  140.9500 O   0  0  0  0  0  0  0  0  0  0  0  0
  189.1650  173.6850  143.3180 C   0  0  0  0  0  2  0  0  0  0  0  0
  189.0750  172.2890  142.7250 C   0  0  0  0  0  2  0  0  0  0  0  0
  190.4310  171.6220  142.8200 C   0  0  0  0  0  2  0  0  0  0  0  0
  190.8640  169.3220  139.9500 N   0  0  0  0  0  2  0  0  0  0  0  0
  190.4590  170.4220  141.9910 N   0  0  0  0  0  2  0  0  0  0  0  0
  190.8380  170.4340  140.6100 C   0  0  0  0  0  0  0  0  0  0  0  0
  191.3220  171.6840  139.9500 C   0  0  0  0  0  2  0  0  0  0  0  0
  190.4990  171.9900  138.8660 O   0  0  0  0  0  1  0  0  0  0  0  0
  1  2  1  0  0  0  0
  2 12  1  0  0  0  0
  2  4  2  0  0  0  0
  3  1  2  0  0  0  0
  3  6  1  0  0  0  0
  5  4  1  0  0  0  0
  6  5  2  0  0  0  0
  7  9  2  0  0  0  0
  7 12  1  0  0  0  0
  8 13  1  0  0  0  0
  8 11  2  0  0  0  0
  9  8  1  0  0  0  0
 10 11  1  0  0  0  0
 12 10  2  0  0  0  0
 14  9  1  0  0  0  0
 15 16  2  0  0  0  0
 15 17  1  0  0  0  0
 16 18  1  0  0  0  0
 17 20  2  0  0  0  0
 18  6  1  0  0  0  0
 18 19  2  0  0  0  0
 19 21  1  0  0  0  0
 20 19  1  0  0  0  0
 21 22  1  0  0  0  0
 23  1  1  0  0  0  0
 24 23  1  0  0  0  0
 25 23  2  0  0  0  0
 26 24  1  0  0  0  0
 27 29  1  0  0  0  0
 27 26  1  0  0  0  0
 29 32  1  0  0  0  0
 30 29  1  0  0  0  0
 30 28  1  0  0  0  0
 31 30  2  0  0  0  0
 33 34  1  0  0  0  0
 33 32  1  0  0  0  0
 35 37  2  0  0  0  0
 36 34  1  0  0  0  0
 37 36  1  0  0  0  0
 38 37  1  0  0  0  0
 39 38  1  0  0  0  0
M  END
>  <MODEL>
9

>  <REMARK>
 VINA RESULT:      -6.8      1.999      3.241
  Name = 
  12 active torsions:
  status: ('A' for Active; 'I' for Inactive)
    1  A    between atoms: C_1  and  C_14
    2  A    between atoms: C_2  and  C_21
    3  A    between atoms: N_8  and  C_33
    4  A    between atoms: C_9  and  C_32
    5  A    between atoms: C_13  and  C_25
    6  A    between atoms: C_13  and  C_33
    7  A    between atoms: C_18  and  N_20
    8  A    between atoms: C_18  and  C_23
    9  A    between atoms: C_19  and  C_30
   10  A    between atoms: N_22  and  C_23
   11  A    between atoms: N_22  and  C_25
   12  A    between atoms: C_27  and  C_34
                            x       y       z     vdW  Elec       q    Type
                         _______ _______ _______ _____ _____    ______ ____

>  <TORSDO>
F 12

$$$$
