=
 OpenBabel11042417213D

 26 29  0  0  1  0  0  0  0  0999 V2000
  188.3020  175.9390  142.6180 C   0  0  0  0  0  3  0  0  0  0  0  0
  186.8510  177.0400  147.1170 C   0  0  0  0  0  3  0  0  0  0  0  0
  188.0980  175.9760  141.2380 C   0  0  0  0  0  3  0  0  0  0  0  0
  184.3910  178.4950  143.3250 O   0  0  0  0  0  0  0  0  0  0  0  0
  185.3800  177.8830  143.8180 C   0  0  0  0  0  0  0  0  0  0  0  0
  185.5720  177.8260  145.2130 C   0  0  2  0  0  3  0  0  0  0  0  0
  184.8710  178.3070  147.4660 N   0  0  0  0  0  0  0  0  0  0  0  0
  187.4050  176.5690  143.5070 C   0  0  0  0  0  0  0  0  0  0  0  0
  186.2870  177.2480  142.9660 C   0  0  0  0  0  0  0  0  0  0  0  0
  186.0950  177.2790  141.5750 C   0  0  0  0  0  3  0  0  0  0  0  0
  186.7040  177.1340  145.7230 C   0  0  0  0  0  0  0  0  0  0  0  0
  184.6650  178.4210  146.1290 C   0  0  0  0  0  0  0  0  0  0  0  0
  186.9930  176.6470  140.7160 C   0  0  0  0  0  0  0  0  0  0  0  0
  185.9310  177.6330  147.9740 C   0  0  0  0  0  3  0  0  0  0  0  0
  187.6170  176.5410  144.8670 N   0  0  0  0  0  0  0  0  0  0  0  0
  183.6540  179.0590  145.7290 O   0  0  0  0  0  0  0  0  0  0  0  0
  186.6120  176.7200  138.1530 N   0  0  0  0  0  0  0  0  0  0  0  0
  186.7820  176.6880  139.2970 C   0  0  0  0  0  0  0  0  0  0  0  0
  189.9680  176.4390  145.5850 C   0  0  0  0  0  3  0  0  0  0  0  0
  188.8010  175.8480  145.3410 C   0  0  0  0  0  3  0  0  0  0  0  0
  191.8080  176.3470  147.1870 C   0  0  0  0  0  0  0  0  0  0  0  0
  193.3580  176.2630  145.5330 C   0  0  0  0  0  3  0  0  0  0  0  0
  191.1370  175.6520  146.0780 C   0  0  2  0  0  3  0  0  0  0  0  0
  191.3000  176.5770  148.3150 O   0  0  0  0  0  0  0  0  0  0  0  0
  193.0860  176.6940  146.8520 O   0  0  0  0  0  0  0  0  0  0  0  0
  192.1520  175.5820  145.0240 N   0  0  0  0  0  0  0  0  0  0  0  0
  1  8  1  0  0  0  0
  2 14  1  0  0  0  0
  3  1  2  0  0  0  0
  4  5  2  0  0  0  0
  6  5  1  1  0  0  0
  6 11  1  0  0  0  0
  6 12  1  0  0  0  0
  7 14  2  0  0  0  0
  8 15  1  0  0  0  0
  9  8  2  0  0  0  0
  9  5  1  0  0  0  0
 10  9  1  0  0  0  0
 11  2  2  0  0  0  0
 12  7  1  0  0  0  0
 13  3  1  0  0  0  0
 13 10  2  0  0  0  0
 15 20  1  0  0  0  0
 15 11  1  0  0  0  0
 16 12  2  0  0  0  0
 17 18  3  0  0  0  0
 18 13  1  0  0  0  0
 20 19  2  0  0  0  0
 21 24  2  0  0  0  0
 22 25  1  0  0  0  0
 23 19  1  6  0  0  0
 23 21  1  0  0  0  0
 25 21  1  0  0  0  0
 26 22  2  0  0  0  0
 26 23  1  0  0  0  0
M  END
>  <MODEL>
1

>  <REMARK>
 VINA RESULT:      -7.3      0.000      0.000
  Name = 
  3 active torsions:
  status: ('A' for Active; 'I' for Inactive)
    1  A    between atoms: C_4  and  C_5
    2  A    between atoms: C_8  and  C_23
    3  A    between atoms: C_11  and  N_25
                            x       y       z     vdW  Elec       q    Type
                         _______ _______ _______ _____ _____    ______ ____

>  <TORSDO>
F 3

$$$$
=
 OpenBabel11042417213D

 26 29  0  0  1  0  0  0  0  0999 V2000
  189.5100  175.5240  143.5460 C   0  0  0  0  0  3  0  0  0  0  0  0
  187.3040  177.8420  147.1960 C   0  0  0  0  0  3  0  0  0  0  0  0
  189.4850  175.0090  142.2490 C   0  0  0  0  0  3  0  0  0  0  0  0
  185.1370  177.2320  143.0150 O   0  0  0  0  0  0  0  0  0  0  0  0
  186.1490  177.0760  143.7550 C   0  0  0  0  0  0  0  0  0  0  0  0
  186.1630  177.5760  145.0720 C   0  0  2  0  0  3  0  0  0  0  0  0
  185.0960  178.6790  146.9280 N   0  0  0  0  0  0  0  0  0  0  0  0
  188.4040  176.2200  144.0770 C   0  0  0  0  0  0  0  0  0  0  0  0
  187.2610  176.3910  143.2600 C   0  0  0  0  0  0  0  0  0  0  0  0
  187.2510  175.8690  141.9560 C   0  0  0  0  0  3  0  0  0  0  0  0
  187.3270  177.3850  145.8670 C   0  0  0  0  0  0  0  0  0  0  0  0
  185.0500  178.2490  145.6410 C   0  0  0  0  0  0  0  0  0  0  0  0
  188.3550  175.1820  141.4540 C   0  0  0  0  0  0  0  0  0  0  0  0
  186.1860  178.4880  147.7100 C   0  0  0  0  0  3  0  0  0  0  0  0
  188.4370  176.7380  145.3520 N   0  0  0  0  0  0  0  0  0  0  0  0
  183.9990  178.4580  144.9750 O   0  0  0  0  0  0  0  0  0  0  0  0
  188.3060  174.2290  139.0430 N   0  0  0  0  0  0  0  0  0  0  0  0
  188.3270  174.6540  140.1190 C   0  0  0  0  0  0  0  0  0  0  0  0
  189.8900  175.4970  146.9020 C   0  0  0  0  0  3  0  0  0  0  0  0
  189.6560  176.5450  146.1160 C   0  0  0  0  0  3  0  0  0  0  0  0
  191.7360  176.6960  147.9560 C   0  0  0  0  0  0  0  0  0  0  0  0
  193.2620  175.7240  146.5880 C   0  0  0  0  0  3  0  0  0  0  0  0
  191.1760  175.3710  147.6490 C   0  0  2  0  0  3  0  0  0  0  0  0
  191.2100  177.5510  148.7160 O   0  0  0  0  0  0  0  0  0  0  0  0
  192.9380  176.8820  147.3330 O   0  0  0  0  0  0  0  0  0  0  0  0
  192.1780  174.7430  146.7840 N   0  0  0  0  0  0  0  0  0  0  0  0
  1  8  1  0  0  0  0
  2 14  1  0  0  0  0
  3  1  2  0  0  0  0
  4  5  2  0  0  0  0
  6  5  1  1  0  0  0
  6 12  1  0  0  0  0
  6 11  1  0  0  0  0
  7 14  2  0  0  0  0
  8 15  1  0  0  0  0
  9  5  1  0  0  0  0
  9  8  2  0  0  0  0
 10  9  1  0  0  0  0
 11  2  2  0  0  0  0
 12  7  1  0  0  0  0
 13 10  2  0  0  0  0
 13  3  1  0  0  0  0
 15 11  1  0  0  0  0
 15 20  1  0  0  0  0
 16 12  2  0  0  0  0
 17 18  3  0  0  0  0
 18 13  1  0  0  0  0
 20 19  2  0  0  0  0
 21 24  2  0  0  0  0
 22 26  2  0  0  0  0
 22 25  1  0  0  0  0
 23 19  1  6  0  0  0
 23 21  1  0  0  0  0
 25 21  1  0  0  0  0
 26 23  1  0  0  0  0
M  END
>  <MODEL>
2

>  <REMARK>
 VINA RESULT:      -7.3      1.339      1.494
  Name = 
  3 active torsions:
  status: ('A' for Active; 'I' for Inactive)
    1  A    between atoms: C_4  and  C_5
    2  A    between atoms: C_8  and  C_23
    3  A    between atoms: C_11  and  N_25
                            x       y       z     vdW  Elec       q    Type
                         _______ _______ _______ _____ _____    ______ ____

>  <TORSDO>
F 3

$$$$
=
 OpenBabel11042417213D

 26 29  0  0  1  0  0  0  0  0999 V2000
  187.9030  176.4430  142.1900 C   0  0  0  0  0  3  0  0  0  0  0  0
  190.1510  177.0320  146.4520 C   0  0  0  0  0  3  0  0  0  0  0  0
  187.7700  175.7690  140.9760 C   0  0  0  0  0  3  0  0  0  0  0  0
  191.3720  173.5150  143.5030 O   0  0  0  0  0  0  0  0  0  0  0  0
  190.6450  174.5120  143.7740 C   0  0  0  0  0  0  0  0  0  0  0  0
  190.7960  175.2070  144.9920 C   0  0  2  0  0  3  0  0  0  0  0  0
  191.9090  175.5680  147.0960 N   0  0  0  0  0  0  0  0  0  0  0  0
  188.8600  176.0440  143.1470 C   0  0  0  0  0  0  0  0  0  0  0  0
  189.6870  174.9350  142.8490 C   0  0  0  0  0  0  0  0  0  0  0  0
  189.5420  174.2650  141.6230 C   0  0  0  0  0  3  0  0  0  0  0  0
  189.9500  176.3180  145.2590 C   0  0  0  0  0  0  0  0  0  0  0  0
  191.7750  174.8460  145.9550 C   0  0  0  0  0  0  0  0  0  0  0  0
  188.5900  174.6790  140.6920 C   0  0  0  0  0  0  0  0  0  0  0  0
  191.1290  176.6440  147.3600 C   0  0  0  0  0  3  0  0  0  0  0  0
  188.9790  176.7030  144.3500 N   0  0  0  0  0  0  0  0  0  0  0  0
  192.5400  173.8600  145.7740 O   0  0  0  0  0  0  0  0  0  0  0  0
  188.3460  173.4220  138.4370 N   0  0  0  0  0  0  0  0  0  0  0  0
  188.4550  173.9830  139.4430 C   0  0  0  0  0  0  0  0  0  0  0  0
  186.9600  177.7280  145.3130 C   0  0  0  0  0  3  0  0  0  0  0  0
  188.0750  177.8120  144.5910 C   0  0  0  0  0  3  0  0  0  0  0  0
  184.9060  178.5770  146.3210 C   0  0  0  0  0  0  0  0  0  0  0  0
  184.0750  179.2070  144.3070 C   0  0  0  0  0  3  0  0  0  0  0  0
  186.0880  178.9230  145.5180 C   0  0  2  0  0  3  0  0  0  0  0  0
  184.9260  178.2030  147.5230 O   0  0  0  0  0  0  0  0  0  0  0  0
  183.7550  178.7450  145.6040 O   0  0  0  0  0  0  0  0  0  0  0  0
  185.5410  179.3490  144.2280 N   0  0  0  0  0  0  0  0  0  0  0  0
  1  8  1  0  0  0  0
  2 14  1  0  0  0  0
  3  1  2  0  0  0  0
  4  5  2  0  0  0  0
  6  5  1  6  0  0  0
  6 11  1  0  0  0  0
  6 12  1  0  0  0  0
  7 14  2  0  0  0  0
  8 15  1  0  0  0  0
  9  8  2  0  0  0  0
  9  5  1  0  0  0  0
 10  9  1  0  0  0  0
 11  2  2  0  0  0  0
 12  7  1  0  0  0  0
 13  3  1  0  0  0  0
 13 10  2  0  0  0  0
 15 20  1  0  0  0  0
 15 11  1  0  0  0  0
 16 12  2  0  0  0  0
 17 18  3  0  0  0  0
 18 13  1  0  0  0  0
 20 19  2  0  0  0  0
 21 24  2  0  0  0  0
 22 25  1  0  0  0  0
 23 19  1  6  0  0  0
 23 21  1  0  0  0  0
 25 21  1  0  0  0  0
 26 22  2  0  0  0  0
 26 23  1  0  0  0  0
M  END
>  <MODEL>
3

>  <REMARK>
 VINA RESULT:      -7.0      2.070      5.869
  Name = 
  3 active torsions:
  status: ('A' for Active; 'I' for Inactive)
    1  A    between atoms: C_4  and  C_5
    2  A    between atoms: C_8  and  C_23
    3  A    between atoms: C_11  and  N_25
                            x       y       z     vdW  Elec       q    Type
                         _______ _______ _______ _____ _____    ______ ____

>  <TORSDO>
F 3

$$$$
=
 OpenBabel11042417213D

 26 29  0  0  1  0  0  0  0  0999 V2000
  185.3550  177.4730  141.4030 C   0  0  0  0  0  3  0  0  0  0  0  0
  188.1180  177.1530  145.3810 C   0  0  0  0  0  3  0  0  0  0  0  0
  184.1400  177.7960  140.7970 C   0  0  0  0  0  3  0  0  0  0  0  0
  183.7240  178.9410  145.5880 O   0  0  0  0  0  0  0  0  0  0  0  0
  184.6710  178.4420  144.9170 C   0  0  0  0  0  0  0  0  0  0  0  0
  185.8890  178.0940  145.5350 C   0  0  2  0  0  3  0  0  0  0  0  0
  187.2830  177.8730  147.4860 N   0  0  0  0  0  0  0  0  0  0  0  0
  185.5600  177.6780  142.7840 C   0  0  0  0  0  0  0  0  0  0  0  0
  184.5010  178.2250  143.5470 C   0  0  0  0  0  0  0  0  0  0  0  0
  183.2840  178.5480  142.9230 C   0  0  0  0  0  3  0  0  0  0  0  0
  186.9310  177.5440  144.7390 C   0  0  0  0  0  0  0  0  0  0  0  0
  186.1060  178.2580  146.9290 C   0  0  0  0  0  0  0  0  0  0  0  0
  183.1040  178.3340  141.5580 C   0  0  0  0  0  0  0  0  0  0  0  0
  188.2800  177.3250  146.7500 C   0  0  0  0  0  3  0  0  0  0  0  0
  186.7640  177.3700  143.3760 N   0  0  0  0  0  0  0  0  0  0  0  0
  185.2210  178.7550  147.6770 O   0  0  0  0  0  0  0  0  0  0  0  0
  180.8470  178.9380  140.4340 N   0  0  0  0  0  0  0  0  0  0  0  0
  181.8540  178.6680  140.9360 C   0  0  0  0  0  0  0  0  0  0  0  0
  188.1090  175.5460  142.4190 C   0  0  0  0  0  3  0  0  0  0  0  0
  187.8080  176.8380  142.5200 C   0  0  0  0  0  3  0  0  0  0  0  0
  188.6370  174.3960  140.3310 C   0  0  0  0  0  0  0  0  0  0  0  0
  189.8410  172.8060  141.4120 C   0  0  0  0  0  3  0  0  0  0  0  0
  189.1960  175.0810  141.5060 C   0  0  2  0  0  3  0  0  0  0  0  0
  187.9230  174.9350  139.4450 O   0  0  0  0  0  0  0  0  0  0  0  0
  189.0180  173.0840  140.2960 O   0  0  0  0  0  0  0  0  0  0  0  0
  189.9900  174.0530  142.1850 N   0  0  0  0  0  0  0  0  0  0  0  0
  1  8  1  0  0  0  0
  2 14  1  0  0  0  0
  3  1  2  0  0  0  0
  3 13  1  0  0  0  0
  5  6  1  0  0  0  0
  5  4  2  0  0  0  0
  6 11  1  1  0  0  0
  6 12  1  0  0  0  0
  8 15  1  0  0  0  0
  8  9  2  0  0  0  0
  9  5  1  0  0  0  0
 10  9  1  0  0  0  0
 11  2  2  0  0  0  0
 12  7  1  0  0  0  0
 12 16  2  0  0  0  0
 13 10  2  0  0  0  0
 14  7  2  0  0  0  0
 15 11  1  0  0  0  0
 17 18  3  0  0  0  0
 18 13  1  0  0  0  0
 19 20  2  0  0  0  0
 20 15  1  0  0  0  0
 21 23  1  0  0  0  0
 22 26  2  0  0  0  0
 23 26  1  0  0  0  0
 23 19  1  1  0  0  0
 24 21  2  0  0  0  0
 25 21  1  0  0  0  0
 25 22  1  0  0  0  0
M  END
>  <MODEL>
4

>  <REMARK>
 VINA RESULT:      -7.0      3.097      4.459
  Name = 
  3 active torsions:
  status: ('A' for Active; 'I' for Inactive)
    1  A    between atoms: C_4  and  C_5
    2  A    between atoms: C_8  and  C_23
    3  A    between atoms: C_11  and  N_25
                            x       y       z     vdW  Elec       q    Type
                         _______ _______ _______ _____ _____    ______ ____

>  <TORSDO>
F 3

$$$$
=
 OpenBabel11042417213D

 26 29  0  0  1  0  0  0  0  0999 V2000
  190.0070  176.4030  144.2940 C   0  0  0  0  0  3  0  0  0  0  0  0
  185.9290  177.3290  141.8300 C   0  0  0  0  0  3  0  0  0  0  0  0
  190.7440  176.4570  145.4780 C   0  0  0  0  0  3  0  0  0  0  0  0
  186.2740  178.3270  146.4600 O   0  0  0  0  0  0  0  0  0  0  0  0
  186.7850  177.8690  145.3990 C   0  0  0  0  0  0  0  0  0  0  0  0
  186.0470  177.8360  144.1990 C   0  0  2  0  0  3  0  0  0  0  0  0
  184.0630  178.3170  142.9220 N   0  0  0  0  0  0  0  0  0  0  0  0
  188.6770  176.8710  144.2390 C   0  0  0  0  0  0  0  0  0  0  0  0
  188.1000  177.3970  145.4190 C   0  0  0  0  0  0  0  0  0  0  0  0
  188.8520  177.4440  146.6040 C   0  0  0  0  0  3  0  0  0  0  0  0
  186.6580  177.3030  143.0310 C   0  0  0  0  0  0  0  0  0  0  0  0
  184.7200  178.3340  144.1090 C   0  0  0  0  0  0  0  0  0  0  0  0
  190.1650  176.9770  146.6340 C   0  0  0  0  0  0  0  0  0  0  0  0
  184.6350  177.8350  141.7920 C   0  0  0  0  0  3  0  0  0  0  0  0
  187.9490  176.8040  143.0720 N   0  0  0  0  0  0  0  0  0  0  0  0
  184.1270  178.8030  145.1180 O   0  0  0  0  0  0  0  0  0  0  0  0
  191.5300  177.0770  148.8360 N   0  0  0  0  0  0  0  0  0  0  0  0
  190.9210  177.0330  147.8530 C   0  0  0  0  0  0  0  0  0  0  0  0
  188.3870  174.9900  141.4690 C   0  0  0  0  0  3  0  0  0  0  0  0
  188.6030  176.2250  141.9130 C   0  0  0  0  0  3  0  0  0  0  0  0
  188.1670  174.3040  139.1360 C   0  0  0  0  0  0  0  0  0  0  0  0
  188.9150  172.2110  139.5920 C   0  0  0  0  0  3  0  0  0  0  0  0
  189.0980  174.4740  140.2620 C   0  0  2  0  0  3  0  0  0  0  0  0
  187.5500  175.2350  138.5550 O   0  0  0  0  0  0  0  0  0  0  0  0
  188.0720  172.9920  138.7660 O   0  0  0  0  0  0  0  0  0  0  0  0
  189.5930  173.1210  140.5340 N   0  0  0  0  0  0  0  0  0  0  0  0
  1  3  1  0  0  0  0
  2 11  2  0  0  0  0
  3 13  2  0  0  0  0
  5  9  1  0  0  0  0
  5  4  2  0  0  0  0
  6 11  1  6  0  0  0
  6  5  1  0  0  0  0
  7 12  1  0  0  0  0
  8  1  2  0  0  0  0
  8  9  1  0  0  0  0
  9 10  2  0  0  0  0
 10 13  1  0  0  0  0
 11 15  1  0  0  0  0
 12  6  1  0  0  0  0
 12 16  2  0  0  0  0
 13 18  1  0  0  0  0
 14  2  1  0  0  0  0
 14  7  2  0  0  0  0
 15  8  1  0  0  0  0
 18 17  3  0  0  0  0
 19 20  2  0  0  0  0
 20 15  1  0  0  0  0
 21 23  1  0  0  0  0
 22 26  2  0  0  0  0
 23 26  1  0  0  0  0
 23 19  1  1  0  0  0
 24 21  2  0  0  0  0
 25 21  1  0  0  0  0
 25 22  1  0  0  0  0
M  END
>  <MODEL>
5

>  <REMARK>
 VINA RESULT:      -6.9      2.992      6.042
  Name = 
  3 active torsions:
  status: ('A' for Active; 'I' for Inactive)
    1  A    between atoms: C_4  and  C_5
    2  A    between atoms: C_8  and  C_23
    3  A    between atoms: C_11  and  N_25
                            x       y       z     vdW  Elec       q    Type
                         _______ _______ _______ _____ _____    ______ ____

>  <TORSDO>
F 3

$$$$
=
 OpenBabel11042417213D

 26 29  0  0  1  0  0  0  0  0999 V2000
  188.6700  177.3810  145.7130 C   0  0  0  0  0  3  0  0  0  0  0  0
  187.8860  174.3880  141.9740 C   0  0  0  0  0  3  0  0  0  0  0  0
  189.3770  177.7130  146.8700 C   0  0  0  0  0  3  0  0  0  0  0  0
  191.4140  173.5920  145.0510 O   0  0  0  0  0  0  0  0  0  0  0  0
  190.4430  174.2990  144.6600 C   0  0  0  0  0  0  0  0  0  0  0  0
  189.7150  173.9500  143.5050 C   0  0  2  0  0  3  0  0  0  0  0  0
  189.2560  172.4720  141.6600 N   0  0  0  0  0  0  0  0  0  0  0  0
  189.0060  176.2410  144.9530 C   0  0  0  0  0  0  0  0  0  0  0  0
  190.0840  175.4360  145.3890 C   0  0  0  0  0  0  0  0  0  0  0  0
  190.7890  175.7820  146.5540 C   0  0  0  0  0  3  0  0  0  0  0  0
  188.6350  174.7800  143.0960 C   0  0  0  0  0  0  0  0  0  0  0  0
  190.0100  172.7880  142.7440 C   0  0  0  0  0  0  0  0  0  0  0  0
  190.4380  176.9130  147.2900 C   0  0  0  0  0  0  0  0  0  0  0  0
  188.2090  173.2360  141.2670 C   0  0  0  0  0  3  0  0  0  0  0  0
  188.3140  175.9240  143.8060 N   0  0  0  0  0  0  0  0  0  0  0  0
  190.9660  172.0270  143.0540 O   0  0  0  0  0  0  0  0  0  0  0  0
  191.7560  177.5270  149.4370 N   0  0  0  0  0  0  0  0  0  0  0  0
  191.1680  177.2530  148.4790 C   0  0  0  0  0  0  0  0  0  0  0  0
  187.4180  177.9730  142.7780 C   0  0  0  0  0  3  0  0  0  0  0  0
  187.2390  176.8160  143.4110 C   0  0  0  0  0  3  0  0  0  0  0  0
  185.4320  179.1440  143.5780 C   0  0  0  0  0  0  0  0  0  0  0  0
  184.0700  177.9360  142.2250 C   0  0  0  0  0  3  0  0  0  0  0  0
  186.2550  178.8290  142.4010 C   0  0  2  0  0  3  0  0  0  0  0  0
  185.8050  179.8310  144.5640 O   0  0  0  0  0  0  0  0  0  0  0  0
  184.1760  178.6180  143.4590 O   0  0  0  0  0  0  0  0  0  0  0  0
  185.3600  178.0690  141.5240 N   0  0  0  0  0  0  0  0  0  0  0  0
  1  3  1  0  0  0  0
  2 11  2  0  0  0  0
  3 13  2  0  0  0  0
  5  4  2  0  0  0  0
  5  9  1  0  0  0  0
  6 12  1  1  0  0  0
  6  5  1  0  0  0  0
  7 12  1  0  0  0  0
  8  9  1  0  0  0  0
  8  1  2  0  0  0  0
  9 10  2  0  0  0  0
 10 13  1  0  0  0  0
 11  6  1  0  0  0  0
 11 15  1  0  0  0  0
 12 16  2  0  0  0  0
 13 18  1  0  0  0  0
 14  7  2  0  0  0  0
 14  2  1  0  0  0  0
 15  8  1  0  0  0  0
 18 17  3  0  0  0  0
 19 20  2  0  0  0  0
 20 15  1  0  0  0  0
 21 24  2  0  0  0  0
 22 25  1  0  0  0  0
 23 19  1  1  0  0  0
 23 21  1  0  0  0  0
 25 21  1  0  0  0  0
 26 22  2  0  0  0  0
 26 23  1  0  0  0  0
M  END
>  <MODEL>
6

>  <REMARK>
 VINA RESULT:      -6.9      2.711      7.410
  Name = 
  3 active torsions:
  status: ('A' for Active; 'I' for Inactive)
    1  A    between atoms: C_4  and  C_5
    2  A    between atoms: C_8  and  C_23
    3  A    between atoms: C_11  and  N_25
                            x       y       z     vdW  Elec       q    Type
                         _______ _______ _______ _____ _____    ______ ____

>  <TORSDO>
F 3

$$$$
=
 OpenBabel11042417213D

 26 29  0  0  1  0  0  0  0  0999 V2000
  190.0160  176.8200  145.9110 C   0  0  0  0  0  3  0  0  0  0  0  0
  191.9010  174.4890  142.0940 C   0  0  0  0  0  3  0  0  0  0  0  0
  188.9150  177.3590  146.5760 C   0  0  0  0  0  3  0  0  0  0  0  0
  187.2240  175.2310  142.4470 O   0  0  0  0  0  0  0  0  0  0  0  0
  188.3880  175.3480  142.9220 C   0  0  0  0  0  0  0  0  0  0  0  0
  189.5030  174.8230  142.2380 C   0  0  2  0  0  3  0  0  0  0  0  0
  190.4920  173.7120  140.3440 N   0  0  0  0  0  0  0  0  0  0  0  0
  189.8690  176.1410  144.6830 C   0  0  0  0  0  0  0  0  0  0  0  0
  188.5700  176.0150  144.1370 C   0  0  0  0  0  0  0  0  0  0  0  0
  187.4690  176.5610  144.8170 C   0  0  0  0  0  3  0  0  0  0  0  0
  190.7950  174.9700  142.8150 C   0  0  0  0  0  0  0  0  0  0  0  0
  189.3850  174.1670  140.9840 C   0  0  0  0  0  0  0  0  0  0  0  0
  187.6400  177.2300  146.0280 C   0  0  0  0  0  0  0  0  0  0  0  0
  191.7340  173.8620  140.8650 C   0  0  0  0  0  3  0  0  0  0  0  0
  190.9570  175.5980  144.0370 N   0  0  0  0  0  0  0  0  0  0  0  0
  188.2610  173.9980  140.4360 O   0  0  0  0  0  0  0  0  0  0  0  0
  185.5890  178.2290  147.2610 N   0  0  0  0  0  0  0  0  0  0  0  0
  186.5040  177.7830  146.7110 C   0  0  0  0  0  0  0  0  0  0  0  0
  193.1530  176.6660  144.3410 C   0  0  0  0  0  3  0  0  0  0  0  0
  192.2510  175.7470  144.6770 C   0  0  0  0  0  3  0  0  0  0  0  0
  195.5430  176.1810  144.2440 C   0  0  0  0  0  0  0  0  0  0  0  0
  195.4370  174.8620  146.0860 C   0  0  0  0  0  3  0  0  0  0  0  0
  194.4600  176.7560  145.0560 C   0  0  2  0  0  3  0  0  0  0  0  0
  195.9470  176.6380  143.1430 O   0  0  0  0  0  0  0  0  0  0  0  0
  196.0920  175.0880  144.8530 O   0  0  0  0  0  0  0  0  0  0  0  0
  194.4140  175.9110  146.2530 N   0  0  0  0  0  0  0  0  0  0  0  0
  1  3  1  0  0  0  0
  2 11  2  0  0  0  0
  4  5  2  0  0  0  0
  5  9  1  0  0  0  0
  6 12  1  6  0  0  0
  6 11  1  0  0  0  0
  6  5  1  0  0  0  0
  7 14  2  0  0  0  0
  7 12  1  0  0  0  0
  8  1  2  0  0  0  0
  9  8  1  0  0  0  0
  9 10  2  0  0  0  0
 10 13  1  0  0  0  0
 11 15  1  0  0  0  0
 13  3  2  0  0  0  0
 13 18  1  0  0  0  0
 14  2  1  0  0  0  0
 15 20  1  0  0  0  0
 15  8  1  0  0  0  0
 16 12  2  0  0  0  0
 18 17  3  0  0  0  0
 19 20  2  0  0  0  0
 21 25  1  0  0  0  0
 21 23  1  0  0  0  0
 22 26  2  0  0  0  0
 23 19  1  6  0  0  0
 23 26  1  0  0  0  0
 24 21  2  0  0  0  0
 25 22  1  0  0  0  0
M  END
>  <MODEL>
7

>  <REMARK>
 VINA RESULT:      -6.7      2.976      5.869
  Name = 
  3 active torsions:
  status: ('A' for Active; 'I' for Inactive)
    1  A    between atoms: C_4  and  C_5
    2  A    between atoms: C_8  and  C_23
    3  A    between atoms: C_11  and  N_25
                            x       y       z     vdW  Elec       q    Type
                         _______ _______ _______ _____ _____    ______ ____

>  <TORSDO>
F 3

$$$$
=
 OpenBabel11042417213D

 26 29  0  0  1  0  0  0  0  0999 V2000
  187.1360  176.0940  143.1910 C   0  0  0  0  0  3  0  0  0  0  0  0
  191.4770  174.5340  144.7000 C   0  0  0  0  0  3  0  0  0  0  0  0
  185.9820  176.8510  143.4000 C   0  0  0  0  0  3  0  0  0  0  0  0
  188.9640  177.6430  147.2630 O   0  0  0  0  0  0  0  0  0  0  0  0
  189.0870  176.9210  146.2330 C   0  0  0  0  0  0  0  0  0  0  0  0
  190.2430  176.1390  146.0340 C   0  0  2  0  0  3  0  0  0  0  0  0
  192.3800  175.3010  146.7600 N   0  0  0  0  0  0  0  0  0  0  0  0
  188.1930  176.0980  144.1250 C   0  0  0  0  0  0  0  0  0  0  0  0
  188.0600  176.8940  145.2870 C   0  0  0  0  0  0  0  0  0  0  0  0
  186.8940  177.6520  145.4850 C   0  0  0  0  0  3  0  0  0  0  0  0
  190.3430  175.3490  144.8560 C   0  0  0  0  0  0  0  0  0  0  0  0
  191.3040  176.0990  146.9770 C   0  0  0  0  0  0  0  0  0  0  0  0
  185.8620  177.6310  144.5490 C   0  0  0  0  0  0  0  0  0  0  0  0
  192.4860  174.5220  145.6560 C   0  0  0  0  0  3  0  0  0  0  0  0
  189.3350  175.3600  143.9080 N   0  0  0  0  0  0  0  0  0  0  0  0
  191.2720  176.7920  148.0300 O   0  0  0  0  0  0  0  0  0  0  0  0
  183.7210  179.0400  144.9420 N   0  0  0  0  0  0  0  0  0  0  0  0
  184.6760  178.4110  144.7660 C   0  0  0  0  0  0  0  0  0  0  0  0
  189.1780  173.2830  142.5990 C   0  0  0  0  0  3  0  0  0  0  0  0
  189.4050  174.5920  142.6790 C   0  0  0  0  0  3  0  0  0  0  0  0
  190.5030  172.9240  140.5800 C   0  0  0  0  0  0  0  0  0  0  0  0
  188.8310  173.6780  139.2460 C   0  0  0  0  0  3  0  0  0  0  0  0
  189.2650  172.5690  141.2910 C   0  0  2  0  0  3  0  0  0  0  0  0
  191.6690  172.6550  140.9710 O   0  0  0  0  0  0  0  0  0  0  0  0
  190.2320  173.5650  139.4040 O   0  0  0  0  0  0  0  0  0  0  0  0
  188.1920  173.0390  140.4110 N   0  0  0  0  0  0  0  0  0  0  0  0
  1  3  2  0  0  0  0
  1  8  1  0  0  0  0
  2 11  2  0  0  0  0
  2 14  1  0  0  0  0
  3 13  1  0  0  0  0
  5  4  2  0  0  0  0
  6 11  1  1  0  0  0
  6  5  1  0  0  0  0
  6 12  1  0  0  0  0
  7 12  1  0  0  0  0
  8  9  2  0  0  0  0
  9 10  1  0  0  0  0
  9  5  1  0  0  0  0
 12 16  2  0  0  0  0
 13 18  1  0  0  0  0
 13 10  2  0  0  0  0
 14  7  2  0  0  0  0
 15  8  1  0  0  0  0
 15 11  1  0  0  0  0
 18 17  3  0  0  0  0
 19 20  2  0  0  0  0
 20 15  1  0  0  0  0
 21 24  2  0  0  0  0
 21 23  1  0  0  0  0
 22 25  1  0  0  0  0
 22 26  2  0  0  0  0
 23 19  1  1  0  0  0
 25 21  1  0  0  0  0
 26 23  1  0  0  0  0
M  END
>  <MODEL>
8

>  <REMARK>
 VINA RESULT:      -6.7      3.023      5.909
  Name = 
  3 active torsions:
  status: ('A' for Active; 'I' for Inactive)
    1  A    between atoms: C_4  and  C_5
    2  A    between atoms: C_8  and  C_23
    3  A    between atoms: C_11  and  N_25
                            x       y       z     vdW  Elec       q    Type
                         _______ _______ _______ _____ _____    ______ ____

>  <TORSDO>
F 3

$$$$
=
 OpenBabel11042417213D

 26 29  0  0  1  0  0  0  0  0999 V2000
  188.9350  177.4180  144.6880 C   0  0  0  0  0  3  0  0  0  0  0  0
  188.1910  174.9110  140.5990 C   0  0  0  0  0  3  0  0  0  0  0  0
  189.5430  177.5410  145.9380 C   0  0  0  0  0  3  0  0  0  0  0  0
  191.2070  173.3470  143.9170 O   0  0  0  0  0  0  0  0  0  0  0  0
  190.3900  174.2180  143.5050 C   0  0  0  0  0  0  0  0  0  0  0  0
  189.7590  174.0810  142.2520 C   0  0  2  0  0  3  0  0  0  0  0  0
  189.3210  172.8530  140.2280 N   0  0  0  0  0  0  0  0  0  0  0  0
  189.2000  176.3120  143.8510 C   0  0  0  0  0  0  0  0  0  0  0  0
  190.1050  175.3250  144.3080 C   0  0  0  0  0  0  0  0  0  0  0  0
  190.7110  175.4630  145.5680 C   0  0  0  0  0  3  0  0  0  0  0  0
  188.8530  175.0900  141.8250 C   0  0  0  0  0  0  0  0  0  0  0  0
  189.9820  172.9610  141.4090 C   0  0  0  0  0  0  0  0  0  0  0  0
  190.4330  176.5620  146.3780 C   0  0  0  0  0  0  0  0  0  0  0  0
  188.4370  173.7920  139.8120 C   0  0  0  0  0  3  0  0  0  0  0  0
  188.6080  176.2020  142.6130 N   0  0  0  0  0  0  0  0  0  0  0  0
  190.7860  172.0450  141.7330 O   0  0  0  0  0  0  0  0  0  0  0  0
  191.5660  176.7880  148.6980 N   0  0  0  0  0  0  0  0  0  0  0  0
  191.0600  176.6870  147.6630 C   0  0  0  0  0  0  0  0  0  0  0  0
  186.4160  177.3130  142.4980 C   0  0  0  0  0  3  0  0  0  0  0  0
  187.7140  177.2700  142.2070 C   0  0  0  0  0  3  0  0  0  0  0  0
  184.2570  178.4300  142.7140 C   0  0  0  0  0  0  0  0  0  0  0  0
  183.7900  178.1420  140.5130 C   0  0  0  0  0  3  0  0  0  0  0  0
  185.5660  178.4540  142.0460 C   0  0  2  0  0  3  0  0  0  0  0  0
  184.0660  178.5850  143.9490 O   0  0  0  0  0  0  0  0  0  0  0  0
  183.2450  178.2460  141.8140 O   0  0  0  0  0  0  0  0  0  0  0  0
  185.2530  178.2900  140.6240 N   0  0  0  0  0  0  0  0  0  0  0  0
  1  3  1  0  0  0  0
  2 11  2  0  0  0  0
  3 13  2  0  0  0  0
  5  4  2  0  0  0  0
  5  9  1  0  0  0  0
  6 12  1  1  0  0  0
  6  5  1  0  0  0  0
  7 12  1  0  0  0  0
  8  9  1  0  0  0  0
  8  1  2  0  0  0  0
  9 10  2  0  0  0  0
 10 13  1  0  0  0  0
 11  6  1  0  0  0  0
 11 15  1  0  0  0  0
 12 16  2  0  0  0  0
 13 18  1  0  0  0  0
 14  7  2  0  0  0  0
 14  2  1  0  0  0  0
 15  8  1  0  0  0  0
 18 17  3  0  0  0  0
 20 19  2  0  0  0  0
 20 15  1  0  0  0  0
 21 24  2  0  0  0  0
 22 26  2  0  0  0  0
 22 25  1  0  0  0  0
 23 19  1  1  0  0  0
 23 21  1  0  0  0  0
 25 21  1  0  0  0  0
 26 23  1  0  0  0  0
M  END
>  <MODEL>
9

>  <REMARK>
 VINA RESULT:      -6.6      2.878      7.720
  Name = 
  3 active torsions:
  status: ('A' for Active; 'I' for Inactive)
    1  A    between atoms: C_4  and  C_5
    2  A    between atoms: C_8  and  C_23
    3  A    between atoms: C_11  and  N_25
                            x       y       z     vdW  Elec       q    Type
                         _______ _______ _______ _____ _____    ______ ____

>  <TORSDO>
F 3

$$$$
