=
 OpenBabel11042416583D

 67 73  0  0  1  0  0  0  0  0999 V2000
  192.7960  171.4510  144.2540 C   0  0  0  0  0  0  0  0  0  0  0  0
  191.3150  171.4020  144.0040 C   0  0  2  0  0  3  0  0  0  0  0  0
  191.3740  170.0640  141.9230 C   0  0  0  0  0  0  0  0  0  0  0  0
  193.5360  170.3590  144.0540 C   0  0  0  0  0  3  0  0  0  0  0  0
  192.6360  173.7230  145.1030 C   0  0  0  0  0  3  0  0  0  0  0  0
  192.0820  169.0020  142.5930 N   0  0  0  0  0  0  0  0  0  0  0  0
  191.0360  171.2190  142.5370 C   0  0  0  0  0  0  0  0  0  0  0  0
  191.1610  173.6260  145.0470 C   0  0  0  0  0  0  0  0  0  0  0  0
  193.0190  169.0950  143.4960 C   0  0  0  0  0  3  0  0  0  0  0  0
  190.5950  172.5540  144.5670 N   0  0  0  0  0  0  0  0  0  0  0  0
  193.4110  172.7040  144.7430 C   0  0  0  0  0  0  0  0  0  0  0  0
  188.5750  176.8310  146.5020 C   0  0  0  0  0  0  0  0  0  0  0  0
  189.5950  177.0700  145.4680 C   0  0  0  0  0  0  0  0  0  0  0  0
  189.7520  178.2160  144.9690 O   0  0  0  0  0  0  0  0  0  0  0  0
  190.3140  174.7320  145.5420 C   0  0  0  0  0  0  0  0  0  0  0  0
  188.4530  175.6180  147.0430 C   0  0  0  0  0  3  0  0  0  0  0  0
  189.3780  174.4750  146.7060 C   0  0  0  0  0  2  0  0  0  0  0  0
  190.4200  175.9530  144.9980 C   0  0  0  0  0  3  0  0  0  0  0  0
  187.6250  177.9080  146.9030 C   0  0  0  0  0  2  0  0  0  0  0  0
  186.4790  177.3420  147.4620 O   0  0  0  0  0  1  0  0  0  0  0  0
  189.8800  173.1940  141.1920 C   0  0  0  0  0  0  0  0  0  0  0  0
  190.4000  172.2940  141.8010 C   0  0  0  0  0  0  0  0  0  0  0  0
  189.2490  174.2990  140.4650 C   0  0  0  0  0  2  0  0  0  0  0  0
  186.8380  175.4940  142.8870 O   0  0  0  0  0  0  0  0  0  0  0  0
  186.5000  176.2110  141.7230 C   0  0  2  0  0  3  0  0  0  0  0  0
  187.6880  176.1930  140.7740 C   0  0  0  0  0  2  0  0  0  0  0  0
  188.6860  175.3090  141.4480 C   0  0  1  0  0  3  0  0  0  0  0  0
  187.8710  174.6250  142.5150 C   0  0  0  0  0  2  0  0  0  0  0  0
  184.1890  178.6470  143.3230 C   0  0  0  0  0  2  0  0  0  0  0  0
  186.6420  178.0190  143.4530 C   0  0  0  0  0  2  0  0  0  0  0  0
  184.5960  177.8330  142.1010 C   0  0  2  0  0  3  0  0  0  0  0  0
  185.6680  179.4230  144.0330 S   0  0  0  0  0  0  0  0  0  0  0  0
  186.1110  177.6470  142.0820 C   0  0  2  0  0  3  0  0  0  0  0  0
  182.9410  178.6240  140.5990 O   0  0  0  0  0  0  0  0  0  0  0  0
  184.1300  178.5020  140.8440 C   0  0  0  0  0  3  0  0  0  0  0  0
  190.6610  169.6150  139.4610 N   0  0  0  0  0  0  0  0  0  0  0  0
  190.9770  169.8150  140.5570 C   0  0  0  0  0  0  0  0  0  0  0  0
  194.8960  172.8700  144.7960 C   0  0  0  0  0  2  0  0  0  0  0  0
  195.2540  173.9940  145.7560 C   0  0  0  0  0  2  0  0  0  0  0  0
  196.2690  174.9350  145.1270 C   0  0  0  0  0  2  0  0  0  0  0  0
  194.8400  176.8270  144.8600 O   0  0  0  0  0  0  0  0  0  0  0  0
  195.5820  175.9780  144.3000 C   0  0  0  0  0  0  0  0  0  0  0  0
  195.7450  176.0170  142.8830 N   0  0  0  0  0  2  0  0  0  0  0  0
  196.6980  175.1700  142.1830 C   0  0  0  0  0  2  0  0  0  0  0  0
  196.5440  174.2040  138.4520 C   0  0  2  0  0  3  0  0  0  0  0  0
  194.8800  172.9420  139.8370 C   0  0  0  0  0  2  0  0  0  0  0  0
  197.1430  174.7250  139.7610 C   0  0  1  0  0  3  0  0  0  0  0  0
  197.5950  176.0330  139.5730 O   0  0  0  0  0  1  0  0  0  0  0  0
  196.0930  174.6900  140.8760 C   0  0  1  0  0  3  0  0  0  0  0  0
  195.8530  172.8520  138.6650 C   0  0  1  0  0  3  0  0  0  0  0  0
  195.5950  173.3270  141.0500 N   0  0  0  0  0  2  0  0  0  0  0  0
  197.5640  174.0710  137.5000 O   0  0  0  0  0  0  0  0  0  0  0  0
  197.9010  175.3060  137.1810 O   0  0  0  0  0  0  0  0  0  0  0  0
  197.7850  175.3690  135.7880 C   0  0  0  0  0  2  0  0  0  0  0  0
  196.5130  176.1000  135.3930 C   0  0  0  0  0  2  0  0  0  0  0  0
  195.5500  175.1550  134.7000 C   0  0  0  0  0  2  0  0  0  0  0  0
  194.2140  175.8430  134.5130 C   0  0  0  0  0  2  0  0  0  0  0  0
  193.9270  176.7120  135.7190 C   0  0  0  0  0  1  0  0  0  0  0  0
  195.0840  172.4560  137.4160 C   0  0  0  0  0  2  0  0  0  0  0  0
  194.0170  173.3660  137.1860 O   0  0  0  0  0  0  0  0  0  0  0  0
  192.5030  172.6120  135.3550 C   0  0  0  0  0  2  0  0  0  0  0  0
  189.0390  171.3600  135.7780 F   0  0  0  0  0  0  0  0  0  0  0  0
  191.8070  172.7760  137.7070 N   0  0  0  0  0  0  0  0  0  0  0  0
  190.4320  172.3760  137.4070 C   0  0  0  0  0  2  0  0  0  0  0  0
  190.3610  171.5850  136.1100 C   0  0  2  0  0  3  0  0  0  0  0  0
  191.0260  172.4100  135.0230 C   0  0  0  0  0  2  0  0  0  0  0  0
  192.7390  172.9440  136.8070 C   0  0  0  0  0  0  0  0  0  0  0  0
  1 11  1  0  0  0  0
  2  7  1  6  0  0  0
  2  1  1  0  0  0  0
  2 10  1  0  0  0  0
  3  7  2  0  0  0  0
  3  6  1  0  0  0  0
  4  1  2  0  0  0  0
  6  9  2  0  0  0  0
  8  5  1  0  0  0  0
  8 15  1  0  0  0  0
  9  4  1  0  0  0  0
 10  8  2  0  0  0  0
 11 38  1  0  0  0  0
 11  5  2  0  0  0  0
 12 19  1  0  0  0  0
 12 16  2  0  0  0  0
 13 12  1  0  0  0  0
 14 13  2  0  0  0  0
 15 17  1  0  0  0  0
 17 16  1  0  0  0  0
 18 13  1  0  0  0  0
 18 15  2  0  0  0  0
 19 20  1  0  0  0  0
 21 22  3  0  0  0  0
 22  7  1  0  0  0  0
 23 21  1  0  0  0  0
 25 26  1  6  0  0  0
 25 33  1  0  0  0  0
 25 24  1  0  0  0  0
 26 27  1  0  0  0  0
 27 23  1  6  0  0  0
 27 28  1  0  0  0  0
 28 24  1  0  0  0  0
 29 32  1  0  0  0  0
 30 32  1  0  0  0  0
 31 35  1  6  0  0  0
 31 29  1  0  0  0  0
 33 31  1  0  0  0  0
 33 30  1  1  0  0  0
 34 35  2  0  0  0  0
 36 37  3  0  0  0  0
 37  3  1  0  0  0  0
 38 39  1  0  0  0  0
 40 39  1  0  0  0  0
 42 41  2  0  0  0  0
 42 40  1  0  0  0  0
 43 42  1  0  0  0  0
 44 43  1  0  0  0  0
 45 52  1  6  0  0  0
 45 50  1  0  0  0  0
 45 47  1  0  0  0  0
 46 51  1  0  0  0  0
 47 48  1  6  0  0  0
 47 49  1  0  0  0  0
 49 51  1  0  0  0  0
 49 44  1  1  0  0  0
 50 59  1  6  0  0  0
 50 46  1  0  0  0  0
 53 52  1  0  0  0  0
 54 53  1  0  0  0  0
 55 54  1  0  0  0  0
 56 55  1  0  0  0  0
 57 56  1  0  0  0  0
 57 58  1  0  0  0  0
 60 59  1  0  0  0  0
 61 67  1  0  0  0  0
 64 63  1  0  0  0  0
 65 62  1  6  0  0  0
 65 64  1  0  0  0  0
 66 61  1  0  0  0  0
 66 65  1  0  0  0  0
 67 60  1  0  0  0  0
 67 63  2  0  0  0  0
M  END
>  <MODEL>
1

>  <REMARK>
 VINA RESULT:      -6.4      0.000      0.000
  Name = 
  23 active torsions:
  status: ('A' for Active; 'I' for Inactive)
    1  A    between atoms: C_1  and  C_32
    2  A    between atoms: C_1  and  C_52
    3  A    between atoms: C_3  and  C_13
    4  A    between atoms: C_4  and  C_60
    5  A    between atoms: C_5  and  O_63
    6  A    between atoms: C_7  and  C_31
    7  A    between atoms: C_7  and  O_47
    8  A    between atoms: C_12  and  C_59
    9  A    between atoms: C_12  and  C_66
   10  A    between atoms: O_19  and  C_22
   11  A    between atoms: O_19  and  O_63
   12  A    between atoms: C_20  and  C_41
   13  A    between atoms: C_21  and  C_50
   14  A    between atoms: C_22  and  C_52
   15  A    between atoms: C_24  and  C_29
   16  A    between atoms: C_25  and  C_42
   17  A    between atoms: C_37  and  C_53
   18  A    between atoms: C_37  and  C_59
   19  A    between atoms: C_41  and  N_56
   20  A    between atoms: C_44  and  C_51
   21  A    between atoms: C_45  and  C_60
   22  A    between atoms: C_46  and  C_49
   23  A    between atoms: O_47  and  C_62
                            x       y       z     vdW  Elec       q    Type
                         _______ _______ _______ _____ _____    ______ ____

>  <TORSDO>
F 23

$$$$
=
 OpenBabel11042416583D

 67 73  0  0  1  0  0  0  0  0999 V2000
  193.1800  172.4350  143.9030 C   0  0  0  0  0  0  0  0  0  0  0  0
  194.3890  172.2390  143.0320 C   0  0  2  0  0  3  0  0  0  0  0  0
  195.6730  174.2110  143.7970 C   0  0  0  0  0  0  0  0  0  0  0  0
  193.3360  172.8150  145.1730 C   0  0  0  0  0  3  0  0  0  0  0  0
  191.7090  171.6330  142.1420 C   0  0  0  0  0  3  0  0  0  0  0  0
  195.6190  173.7520  145.1620 N   0  0  0  0  0  0  0  0  0  0  0  0
  195.0730  173.5540  142.7800 C   0  0  0  0  0  0  0  0  0  0  0  0
  192.8940  171.2520  141.3440 C   0  0  0  0  0  0  0  0  0  0  0  0
  194.6330  173.1660  145.7830 C   0  0  0  0  0  3  0  0  0  0  0  0
  194.0910  171.5180  141.7850 N   0  0  0  0  0  0  0  0  0  0  0  0
  191.8330  172.1790  143.3490 C   0  0  0  0  0  0  0  0  0  0  0  0
  192.4830  169.2820  137.4680 C   0  0  0  0  0  0  0  0  0  0  0  0
  191.3520  169.3870  138.4050 C   0  0  0  0  0  0  0  0  0  0  0  0
  190.2260  168.9080  138.1130 O   0  0  0  0  0  0  0  0  0  0  0  0
  192.7380  170.5580  140.0480 C   0  0  0  0  0  0  0  0  0  0  0  0
  193.6780  169.7630  137.8150 C   0  0  0  0  0  3  0  0  0  0  0  0
  193.9600  170.3470  139.1770 C   0  0  0  0  0  2  0  0  0  0  0  0
  191.5390  170.0800  139.6830 C   0  0  0  0  0  3  0  0  0  0  0  0
  192.2950  168.7090  136.1040 C   0  0  0  0  0  2  0  0  0  0  0  0
  193.5010  168.7530  135.4040 O   0  0  0  0  0  1  0  0  0  0  0  0
  195.0930  174.5610  140.3240 C   0  0  0  0  0  0  0  0  0  0  0  0
  195.0820  174.0980  141.4360 C   0  0  0  0  0  0  0  0  0  0  0  0
  195.0960  175.1380  138.9770 C   0  0  0  0  0  2  0  0  0  0  0  0
  192.7390  174.6040  136.2810 O   0  0  0  0  0  0  0  0  0  0  0  0
  191.9580  174.3880  137.4330 C   0  0  2  0  0  3  0  0  0  0  0  0
  192.8820  174.0990  138.6050 C   0  0  0  0  0  2  0  0  0  0  0  0
  194.2560  174.2830  138.0460 C   0  0  1  0  0  3  0  0  0  0  0  0
  194.0010  174.9940  136.7430 C   0  0  0  0  0  2  0  0  0  0  0  0
  188.9070  172.9660  135.8500 C   0  0  0  0  0  2  0  0  0  0  0  0
  191.3840  172.4350  135.9700 C   0  0  0  0  0  2  0  0  0  0  0  0
  189.5570  173.7150  137.0070 C   0  0  2  0  0  3  0  0  0  0  0  0
  189.9220  171.5170  135.4420 S   0  0  0  0  0  0  0  0  0  0  0  0
  190.9900  173.2250  137.2030 C   0  0  2  0  0  3  0  0  0  0  0  0
  188.5020  172.4230  138.6920 O   0  0  0  0  0  0  0  0  0  0  0  0
  188.7610  173.5360  138.2630 C   0  0  0  0  0  3  0  0  0  0  0  0
  197.0930  176.3430  143.3420 N   0  0  0  0  0  0  0  0  0  0  0  0
  196.4610  175.3950  143.5430 C   0  0  0  0  0  0  0  0  0  0  0  0
  190.5990  172.5680  144.0980 C   0  0  0  0  0  2  0  0  0  0  0  0
  189.9410  173.7600  143.4220 C   0  0  0  0  0  2  0  0  0  0  0  0
  190.6020  175.0580  143.8560 C   0  0  0  0  0  2  0  0  0  0  0  0
  191.8100  175.4600  141.8380 O   0  0  0  0  0  0  0  0  0  0  0  0
  190.9640  175.8910  142.6660 C   0  0  0  0  0  0  0  0  0  0  0  0
  190.3730  177.1740  142.4590 N   0  0  0  0  0  2  0  0  0  0  0  0
  189.2840  177.6730  143.2830 C   0  0  0  0  0  2  0  0  0  0  0  0
  185.4680  177.2240  142.9400 C   0  0  2  0  0  3  0  0  0  0  0  0
  186.5470  177.9270  140.7900 C   0  0  0  0  0  2  0  0  0  0  0  0
  186.8120  177.4860  143.6250 C   0  0  1  0  0  3  0  0  0  0  0  0
  186.9950  176.5560  144.6510 O   0  0  0  0  0  1  0  0  0  0  0  0
  187.9560  177.3760  142.6120 C   0  0  1  0  0  3  0  0  0  0  0  0
  185.3180  178.0850  141.6810 C   0  0  1  0  0  3  0  0  0  0  0  0
  187.7470  178.3250  141.5200 N   0  0  0  0  0  2  0  0  0  0  0  0
  184.4310  177.5100  143.8370 O   0  0  0  0  0  0  0  0  0  0  0  0
  184.3610  178.8260  143.8760 O   0  0  0  0  0  0  0  0  0  0  0  0
  183.8020  179.1270  145.1230 C   0  0  0  0  0  2  0  0  0  0  0  0
  184.8760  179.1400  146.1980 C   0  0  0  0  0  2  0  0  0  0  0  0
  184.5990  178.0740  147.2410 C   0  0  0  0  0  2  0  0  0  0  0  0
  185.9040  177.6210  147.8590 C   0  0  0  0  0  2  0  0  0  0  0  0
  186.8170  178.8170  148.0300 C   0  0  0  0  0  1  0  0  0  0  0  0
  184.0860  177.6610  140.9000 C   0  0  0  0  0  2  0  0  0  0  0  0
  183.2870  178.7950  140.5880 O   0  0  0  0  0  0  0  0  0  0  0  0
  181.1550  180.0770  140.4420 C   0  0  0  0  0  2  0  0  0  0  0  0
  177.7880  178.8010  141.3290 F   0  0  0  0  0  0  0  0  0  0  0  0
  181.3090  177.8070  141.3710 N   0  0  0  0  0  0  0  0  0  0  0  0
  179.8890  177.7700  141.7200 C   0  0  0  0  0  2  0  0  0  0  0  0
  179.0900  178.7470  140.8700 C   0  0  2  0  0  3  0  0  0  0  0  0
  179.7350  180.1160  141.0020 C   0  0  0  0  0  2  0  0  0  0  0  0
  181.9150  178.8400  140.8520 C   0  0  0  0  0  0  0  0  0  0  0  0
  1  4  2  0  0  0  0
  2 10  1  6  0  0  0
  2  1  1  0  0  0  0
  3  6  1  0  0  0  0
  4  9  1  0  0  0  0
  5 11  2  0  0  0  0
  6  9  2  0  0  0  0
  7  2  1  0  0  0  0
  7  3  2  0  0  0  0
  8 10  2  0  0  0  0
  8  5  1  0  0  0  0
 11  1  1  0  0  0  0
 11 38  1  0  0  0  0
 12 16  2  0  0  0  0
 12 13  1  0  0  0  0
 13 18  1  0  0  0  0
 14 13  2  0  0  0  0
 15  8  1  0  0  0  0
 16 17  1  0  0  0  0
 17 15  1  0  0  0  0
 18 15  2  0  0  0  0
 19 12  1  0  0  0  0
 20 19  1  0  0  0  0
 21 22  3  0  0  0  0
 22  7  1  0  0  0  0
 23 21  1  0  0  0  0
 24 28  1  0  0  0  0
 24 25  1  0  0  0  0
 25 26  1  1  0  0  0
 27 26  1  0  0  0  0
 27 23  1  1  0  0  0
 28 27  1  0  0  0  0
 29 31  1  0  0  0  0
 31 33  1  0  0  0  0
 31 35  1  1  0  0  0
 32 29  1  0  0  0  0
 32 30  1  0  0  0  0
 33 30  1  6  0  0  0
 33 25  1  0  0  0  0
 35 34  2  0  0  0  0
 36 37  3  0  0  0  0
 37  3  1  0  0  0  0
 39 40  1  0  0  0  0
 39 38  1  0  0  0  0
 41 42  2  0  0  0  0
 42 40  1  0  0  0  0
 43 42  1  0  0  0  0
 43 44  1  0  0  0  0
 45 47  1  0  0  0  0
 45 52  1  1  0  0  0
 46 51  1  0  0  0  0
 46 50  1  0  0  0  0
 47 48  1  1  0  0  0
 49 44  1  1  0  0  0
 49 47  1  0  0  0  0
 50 59  1  6  0  0  0
 50 45  1  0  0  0  0
 51 49  1  0  0  0  0
 52 53  1  0  0  0  0
 53 54  1  0  0  0  0
 54 55  1  0  0  0  0
 55 56  1  0  0  0  0
 56 57  1  0  0  0  0
 57 58  1  0  0  0  0
 60 67  1  0  0  0  0
 60 59  1  0  0  0  0
 61 67  1  0  0  0  0
 61 66  1  0  0  0  0
 63 64  1  0  0  0  0
 65 66  1  0  0  0  0
 65 62  1  1  0  0  0
 65 64  1  0  0  0  0
 67 63  2  0  0  0  0
M  END
>  <MODEL>
2

>  <REMARK>
 VINA RESULT:      -5.8      3.815     10.289
  Name = 
  23 active torsions:
  status: ('A' for Active; 'I' for Inactive)
    1  A    between atoms: C_1  and  C_32
    2  A    between atoms: C_1  and  C_52
    3  A    between atoms: C_3  and  C_13
    4  A    between atoms: C_4  and  C_60
    5  A    between atoms: C_5  and  O_63
    6  A    between atoms: C_7  and  C_31
    7  A    between atoms: C_7  and  O_47
    8  A    between atoms: C_12  and  C_59
    9  A    between atoms: C_12  and  C_66
   10  A    between atoms: O_19  and  C_22
   11  A    between atoms: O_19  and  O_63
   12  A    between atoms: C_20  and  C_41
   13  A    between atoms: C_21  and  C_50
   14  A    between atoms: C_22  and  C_52
   15  A    between atoms: C_24  and  C_29
   16  A    between atoms: C_25  and  C_42
   17  A    between atoms: C_37  and  C_53
   18  A    between atoms: C_37  and  C_59
   19  A    between atoms: C_41  and  N_56
   20  A    between atoms: C_44  and  C_51
   21  A    between atoms: C_45  and  C_60
   22  A    between atoms: C_46  and  C_49
   23  A    between atoms: O_47  and  C_62
                            x       y       z     vdW  Elec       q    Type
                         _______ _______ _______ _____ _____    ______ ____

>  <TORSDO>
F 23

$$$$
=
 OpenBabel11042416583D

 67 73  0  0  1  0  0  0  0  0999 V2000
  185.9240  177.0860  142.2120 C   0  0  2  0  0  3  0  0  0  0  0  0
  186.1310  176.3210  143.4890 C   0  0  0  0  0  0  0  0  0  0  0  0
  185.5630  178.1420  145.0630 C   0  0  0  0  0  0  0  0  0  0  0  0
  184.8830  177.9140  142.0980 C   0  0  0  0  0  3  0  0  0  0  0  0
  187.7870  175.9370  141.1540 C   0  0  0  0  0  3  0  0  0  0  0  0
  184.2650  178.3010  144.4560 N   0  0  0  0  0  0  0  0  0  0  0  0
  186.4790  177.2580  144.6120 C   0  0  0  0  0  0  0  0  0  0  0  0
  187.8830  175.0410  142.3270 C   0  0  0  0  0  0  0  0  0  0  0  0
  183.9450  178.2240  143.1940 C   0  0  0  0  0  3  0  0  0  0  0  0
  187.1040  175.2260  143.3550 N   0  0  0  0  0  0  0  0  0  0  0  0
  186.8640  176.8930  141.0870 C   0  0  0  0  0  0  0  0  0  0  0  0
  190.6730  171.6810  142.3220 C   0  0  0  0  0  0  0  0  0  0  0  0
  190.4100  172.4650  143.5400 C   0  0  0  0  0  0  0  0  0  0  0  0
  190.9870  172.1870  144.6230 O   0  0  0  0  0  0  0  0  0  0  0  0
  188.8510  173.9230  142.3430 C   0  0  0  0  0  0  0  0  0  0  0  0
  190.0790  172.0180  141.1760 C   0  0  0  0  0  3  0  0  0  0  0  0
  189.1990  173.2360  141.0380 C   0  0  0  0  0  2  0  0  0  0  0  0
  189.4450  173.5680  143.4910 C   0  0  0  0  0  3  0  0  0  0  0  0
  191.5390  170.4680  142.3650 C   0  0  0  0  0  2  0  0  0  0  0  0
  191.6230  169.9030  141.0930 O   0  0  0  0  0  1  0  0  0  0  0  0
  188.8990  177.1490  145.6960 C   0  0  0  0  0  0  0  0  0  0  0  0
  187.8020  177.1930  145.2010 C   0  0  0  0  0  0  0  0  0  0  0  0
  190.2370  177.1120  146.2940 C   0  0  0  0  0  2  0  0  0  0  0  0
  192.8720  174.6350  146.1540 O   0  0  0  0  0  0  0  0  0  0  0  0
  193.4350  175.7350  145.4800 C   0  0  2  0  0  3  0  0  0  0  0  0
  192.3160  176.6610  145.0320 C   0  0  0  0  0  2  0  0  0  0  0  0
  191.0800  176.0520  145.6100 C   0  0  1  0  0  3  0  0  0  0  0  0
  191.6220  175.0660  146.6120 C   0  0  0  0  0  2  0  0  0  0  0  0
  196.5780  174.3680  144.0340 C   0  0  0  0  0  2  0  0  0  0  0  0
  194.1180  173.7560  144.1030 C   0  0  0  0  0  2  0  0  0  0  0  0
  195.7410  175.5710  144.4520 C   0  0  2  0  0  3  0  0  0  0  0  0
  195.5270  173.2090  143.1140 S   0  0  0  0  0  0  0  0  0  0  0  0
  194.2570  175.2550  144.2810 C   0  0  2  0  0  3  0  0  0  0  0  0
  196.7520  176.6740  142.6120 O   0  0  0  0  0  0  0  0  0  0  0  0
  196.1190  176.7790  143.6500 C   0  0  0  0  0  3  0  0  0  0  0  0
  186.0410  179.5820  147.1780 N   0  0  0  0  0  0  0  0  0  0  0  0
  185.8290  178.9420  146.2370 C   0  0  0  0  0  0  0  0  0  0  0  0
  186.8330  177.7850  139.8880 C   0  0  0  0  0  2  0  0  0  0  0  0
  186.2420  177.0360  138.7040 C   0  0  0  0  0  2  0  0  0  0  0  0
  187.1830  177.0870  137.5110 C   0  0  0  0  0  2  0  0  0  0  0  0
  185.8920  176.2770  135.6750 O   0  0  0  0  0  0  0  0  0  0  0  0
  186.8130  176.0440  136.5010 C   0  0  0  0  0  0  0  0  0  0  0  0
  187.4820  174.7840  136.4670 N   0  0  0  0  0  2  0  0  0  0  0  0
  188.6510  174.4980  137.2840 C   0  0  0  0  0  2  0  0  0  0  0  0
  191.6830  172.8000  135.6090 C   0  0  2  0  0  3  0  0  0  0  0  0
  190.2750  171.1830  136.9050 C   0  0  0  0  0  2  0  0  0  0  0  0
  190.8440  173.9240  136.2230 C   0  0  1  0  0  3  0  0  0  0  0  0
  190.6940  174.9520  135.2890 O   0  0  0  0  0  1  0  0  0  0  0  0
  189.4680  173.3930  136.6400 C   0  0  1  0  0  3  0  0  0  0  0  0
  191.7000  171.5680  136.5200 C   0  0  1  0  0  3  0  0  0  0  0  0
  189.6240  172.2950  137.5910 N   0  0  0  0  0  2  0  0  0  0  0  0
  192.9900  173.2610  135.4080 O   0  0  0  0  0  0  0  0  0  0  0  0
  193.4170  173.6230  136.6020 O   0  0  0  0  0  0  0  0  0  0  0  0
  194.7340  174.0540  136.4060 C   0  0  0  0  0  2  0  0  0  0  0  0
  195.0150  175.2970  137.2350 C   0  0  0  0  0  2  0  0  0  0  0  0
  194.4120  175.1600  138.6210 C   0  0  0  0  0  2  0  0  0  0  0  0
  195.3910  174.4450  139.5270 C   0  0  0  0  0  2  0  0  0  0  0  0
  196.7410  175.1220  139.4390 C   0  0  0  0  0  1  0  0  0  0  0  0
  192.3510  170.3970  135.8040 C   0  0  0  0  0  2  0  0  0  0  0  0
  193.7460  170.3690  136.0760 O   0  0  0  0  0  0  0  0  0  0  0  0
  194.2050  170.8770  138.4730 C   0  0  0  0  0  2  0  0  0  0  0  0
  195.4830  168.4780  140.9950 F   0  0  0  0  0  0  0  0  0  0  0  0
  194.7120  168.7110  137.4260 N   0  0  0  0  0  0  0  0  0  0  0  0
  195.3070  168.1730  138.6490 C   0  0  0  0  0  2  0  0  0  0  0  0
  194.7880  168.9020  139.8790 C   0  0  2  0  0  3  0  0  0  0  0  0
  195.0170  170.3890  139.6700 C   0  0  0  0  0  2  0  0  0  0  0  0
  194.2630  169.9310  137.2990 C   0  0  0  0  0  0  0  0  0  0  0  0
  1  4  1  6  0  0  0
  1  2  1  0  0  0  0
  2  7  2  0  0  0  0
  3 37  1  0  0  0  0
  4  9  2  0  0  0  0
  5  8  1  0  0  0  0
  6  3  2  0  0  0  0
  7  3  1  0  0  0  0
  7 22  1  0  0  0  0
  8 15  1  0  0  0  0
  8 10  2  0  0  0  0
  9  6  1  0  0  0  0
 10  2  1  0  0  0  0
 11  5  2  0  0  0  0
 11  1  1  0  0  0  0
 12 19  1  0  0  0  0
 12 13  1  0  0  0  0
 13 14  2  0  0  0  0
 15 18  2  0  0  0  0
 16 12  2  0  0  0  0
 17 16  1  0  0  0  0
 17 15  1  0  0  0  0
 18 13  1  0  0  0  0
 20 19  1  0  0  0  0
 21 23  1  0  0  0  0
 22 21  3  0  0  0  0
 24 28  1  0  0  0  0
 25 26  1  6  0  0  0
 25 24  1  0  0  0  0
 26 27  1  0  0  0  0
 27 23  1  1  0  0  0
 27 28  1  0  0  0  0
 29 31  1  0  0  0  0
 31 35  1  6  0  0  0
 32 29  1  0  0  0  0
 32 30  1  0  0  0  0
 33 30  1  1  0  0  0
 33 31  1  0  0  0  0
 33 25  1  0  0  0  0
 34 35  2  0  0  0  0
 37 36  3  0  0  0  0
 38 11  1  0  0  0  0
 39 38  1  0  0  0  0
 40 39  1  0  0  0  0
 41 42  2  0  0  0  0
 42 40  1  0  0  0  0
 43 42  1  0  0  0  0
 43 44  1  0  0  0  0
 45 52  1  1  0  0  0
 45 47  1  0  0  0  0
 45 50  1  0  0  0  0
 46 51  1  0  0  0  0
 47 48  1  6  0  0  0
 47 49  1  0  0  0  0
 49 44  1  1  0  0  0
 49 51  1  0  0  0  0
 50 59  1  6  0  0  0
 50 46  1  0  0  0  0
 52 53  1  0  0  0  0
 54 53  1  0  0  0  0
 54 55  1  0  0  0  0
 55 56  1  0  0  0  0
 56 57  1  0  0  0  0
 58 57  1  0  0  0  0
 59 60  1  0  0  0  0
 60 67  1  0  0  0  0
 61 66  1  0  0  0  0
 63 64  1  0  0  0  0
 64 65  1  0  0  0  0
 65 62  1  1  0  0  0
 66 65  1  0  0  0  0
 67 63  2  0  0  0  0
 67 61  1  0  0  0  0
M  END
>  <MODEL>
3

>  <REMARK>
 VINA RESULT:      -5.7      3.400      8.272
  Name = 
  23 active torsions:
  status: ('A' for Active; 'I' for Inactive)
    1  A    between atoms: C_1  and  C_32
    2  A    between atoms: C_1  and  C_52
    3  A    between atoms: C_3  and  C_13
    4  A    between atoms: C_4  and  C_60
    5  A    between atoms: C_5  and  O_63
    6  A    between atoms: C_7  and  C_31
    7  A    between atoms: C_7  and  O_47
    8  A    between atoms: C_12  and  C_59
    9  A    between atoms: C_12  and  C_66
   10  A    between atoms: O_19  and  C_22
   11  A    between atoms: O_19  and  O_63
   12  A    between atoms: C_20  and  C_41
   13  A    between atoms: C_21  and  C_50
   14  A    between atoms: C_22  and  C_52
   15  A    between atoms: C_24  and  C_29
   16  A    between atoms: C_25  and  C_42
   17  A    between atoms: C_37  and  C_53
   18  A    between atoms: C_37  and  C_59
   19  A    between atoms: C_41  and  N_56
   20  A    between atoms: C_44  and  C_51
   21  A    between atoms: C_45  and  C_60
   22  A    between atoms: C_46  and  C_49
   23  A    between atoms: O_47  and  C_62
                            x       y       z     vdW  Elec       q    Type
                         _______ _______ _______ _____ _____    ______ ____

>  <TORSDO>
F 23

$$$$
=
 OpenBabel11042416583D

 67 73  0  0  1  0  0  0  0  0999 V2000
  192.5400  171.5820  137.3520 C   0  0  2  0  0  3  0  0  0  0  0  0
  193.9270  172.0330  136.9920 C   0  0  0  0  0  0  0  0  0  0  0  0
  194.5850  170.0550  135.6590 C   0  0  0  0  0  0  0  0  0  0  0  0
  191.7820  170.9770  136.4340 C   0  0  0  0  0  3  0  0  0  0  0  0
  192.7210  172.5920  139.5560 C   0  0  0  0  0  3  0  0  0  0  0  0
  193.4580  170.2370  134.7800 N   0  0  0  0  0  0  0  0  0  0  0  0
  194.8140  170.8470  136.7290 C   0  0  0  0  0  0  0  0  0  0  0  0
  194.0030  173.2090  139.1520 C   0  0  0  0  0  0  0  0  0  0  0  0
  192.2460  170.6160  135.0810 C   0  0  0  0  0  3  0  0  0  0  0  0
  194.5090  172.9560  137.9790 N   0  0  0  0  0  0  0  0  0  0  0  0
  192.0220  171.8350  138.7140 C   0  0  0  0  0  0  0  0  0  0  0  0
  196.1970  175.8490  141.8540 C   0  0  0  0  0  0  0  0  0  0  0  0
  194.7790  175.5220  142.0750 C   0  0  0  0  0  0  0  0  0  0  0  0
  194.1530  176.0000  143.0570 O   0  0  0  0  0  0  0  0  0  0  0  0
  194.7180  174.1250  140.0670 C   0  0  0  0  0  0  0  0  0  0  0  0
  196.8290  175.3620  140.7840 C   0  0  0  0  0  3  0  0  0  0  0  0
  196.1330  174.5470  139.7230 C   0  0  0  0  0  2  0  0  0  0  0  0
  194.0970  174.6120  141.1500 C   0  0  0  0  0  3  0  0  0  0  0  0
  196.9600  176.6570  142.8470 C   0  0  0  0  0  2  0  0  0  0  0  0
  197.9210  175.8580  143.4680 O   0  0  0  0  0  1  0  0  0  0  0  0
  196.8240  170.3580  138.3920 C   0  0  0  0  0  0  0  0  0  0  0  0
  195.9130  170.5740  137.6350 C   0  0  0  0  0  0  0  0  0  0  0  0
  197.9410  170.1100  139.3080 C   0  0  0  0  0  2  0  0  0  0  0  0
  195.5060  169.4950  141.9140 O   0  0  0  0  0  0  0  0  0  0  0  0
  195.4150  170.8860  141.7180 C   0  0  2  0  0  3  0  0  0  0  0  0
  196.6800  171.3670  141.0250 C   0  0  0  0  0  2  0  0  0  0  0  0
  197.4440  170.1150  140.7420 C   0  0  1  0  0  3  0  0  0  0  0  0
  196.4200  169.0320  140.9600 C   0  0  0  0  0  2  0  0  0  0  0  0
  194.3520  170.8680  145.2820 C   0  0  0  0  0  2  0  0  0  0  0  0
  196.4400  171.4030  143.9450 C   0  0  0  0  0  2  0  0  0  0  0  0
  194.0070  171.0660  143.8110 C   0  0  2  0  0  3  0  0  0  0  0  0
  195.9120  171.7230  145.6420 S   0  0  0  0  0  0  0  0  0  0  0  0
  195.2250  171.5970  143.0590 C   0  0  2  0  0  3  0  0  0  0  0  0
  191.6980  171.6030  143.7700 O   0  0  0  0  0  0  0  0  0  0  0  0
  192.8460  172.0020  143.6660 C   0  0  0  0  0  3  0  0  0  0  0  0
  196.2590  168.1660  135.0280 N   0  0  0  0  0  0  0  0  0  0  0  0
  195.5140  169.0060  135.3090 C   0  0  0  0  0  0  0  0  0  0  0  0
  190.7460  171.2170  139.1860 C   0  0  0  0  0  2  0  0  0  0  0  0
  189.7880  172.3030  139.6510 C   0  0  0  0  0  2  0  0  0  0  0  0
  188.6010  172.4130  138.7070 C   0  0  0  0  0  2  0  0  0  0  0  0
  189.4890  173.3870  136.7180 O   0  0  0  0  0  0  0  0  0  0  0  0
  188.7890  173.5510  137.7520 C   0  0  0  0  0  0  0  0  0  0  0  0
  188.1950  174.8250  138.0000 N   0  0  0  0  0  2  0  0  0  0  0  0
  187.2550  175.0500  139.0870 C   0  0  0  0  0  2  0  0  0  0  0  0
  187.5080  177.8840  141.6910 C   0  0  2  0  0  3  0  0  0  0  0  0
  189.0640  175.9840  142.1890 C   0  0  0  0  0  2  0  0  0  0  0  0
  186.8830  177.0030  140.6060 C   0  0  1  0  0  3  0  0  0  0  0  0
  186.4950  177.8040  139.5290 O   0  0  0  0  0  1  0  0  0  0  0  0
  187.8870  175.9470  140.1350 C   0  0  1  0  0  3  0  0  0  0  0  0
  188.1340  177.0290  142.7980 C   0  0  1  0  0  3  0  0  0  0  0  0
  188.3210  175.1310  141.2670 N   0  0  0  0  0  2  0  0  0  0  0  0
  186.5210  178.7170  142.2330 O   0  0  0  0  0  0  0  0  0  0  0  0
  185.4110  178.0060  142.1930 O   0  0  0  0  0  0  0  0  0  0  0  0
  185.0520  177.8100  143.5320 C   0  0  0  0  0  2  0  0  0  0  0  0
  185.2020  179.1030  144.3160 C   0  0  0  0  0  2  0  0  0  0  0  0
  185.0410  178.8450  145.8030 C   0  0  0  0  0  2  0  0  0  0  0  0
  186.3590  178.3750  146.3790 C   0  0  0  0  0  2  0  0  0  0  0  0
  186.3050  178.4660  147.8890 C   0  0  0  0  0  1  0  0  0  0  0  0
  188.9320  177.9050  143.7480 C   0  0  0  0  0  2  0  0  0  0  0  0
  190.1920  177.3090  144.0250 O   0  0  0  0  0  0  0  0  0  0  0  0
  189.4570  175.8940  145.9400 C   0  0  0  0  0  2  0  0  0  0  0  0
  191.5760  174.8240  148.7890 F   0  0  0  0  0  0  0  0  0  0  0  0
  191.6880  176.9140  145.7870 N   0  0  0  0  0  0  0  0  0  0  0  0
  192.0950  176.4050  147.0970 C   0  0  0  0  0  2  0  0  0  0  0  0
  191.2780  175.1830  147.4890 C   0  0  2  0  0  3  0  0  0  0  0  0
  189.8080  175.5530  147.3870 C   0  0  0  0  0  2  0  0  0  0  0  0
  190.5010  176.7510  145.2690 C   0  0  0  0  0  0  0  0  0  0  0  0
  1  4  1  6  0  0  0
  1 11  1  0  0  0  0
  2  1  1  0  0  0  0
  2 10  1  0  0  0  0
  3  7  1  0  0  0  0
  6  9  1  0  0  0  0
  6  3  2  0  0  0  0
  7  2  2  0  0  0  0
  7 22  1  0  0  0  0
  8  5  1  0  0  0  0
  8 15  1  0  0  0  0
  9  4  2  0  0  0  0
 10  8  2  0  0  0  0
 11 38  1  0  0  0  0
 11  5  2  0  0  0  0
 12 13  1  0  0  0  0
 12 19  1  0  0  0  0
 13 14  2  0  0  0  0
 15 18  2  0  0  0  0
 16 12  2  0  0  0  0
 17 15  1  0  0  0  0
 17 16  1  0  0  0  0
 18 13  1  0  0  0  0
 19 20  1  0  0  0  0
 21 23  1  0  0  0  0
 22 21  3  0  0  0  0
 25 26  1  1  0  0  0
 25 24  1  0  0  0  0
 25 33  1  0  0  0  0
 27 23  1  6  0  0  0
 27 28  1  0  0  0  0
 27 26  1  0  0  0  0
 28 24  1  0  0  0  0
 29 32  1  0  0  0  0
 30 32  1  0  0  0  0
 31 35  1  1  0  0  0
 31 29  1  0  0  0  0
 33 31  1  0  0  0  0
 33 30  1  1  0  0  0
 35 34  2  0  0  0  0
 36 37  3  0  0  0  0
 37  3  1  0  0  0  0
 38 39  1  0  0  0  0
 40 39  1  0  0  0  0
 41 42  2  0  0  0  0
 42 43  1  0  0  0  0
 42 40  1  0  0  0  0
 43 44  1  0  0  0  0
 45 52  1  1  0  0  0
 45 50  1  0  0  0  0
 46 50  1  0  0  0  0
 47 48  1  6  0  0  0
 47 45  1  0  0  0  0
 49 44  1  6  0  0  0
 49 47  1  0  0  0  0
 49 51  1  0  0  0  0
 50 59  1  1  0  0  0
 51 46  1  0  0  0  0
 53 52  1  0  0  0  0
 53 54  1  0  0  0  0
 54 55  1  0  0  0  0
 55 56  1  0  0  0  0
 56 57  1  0  0  0  0
 57 58  1  0  0  0  0
 59 60  1  0  0  0  0
 60 67  1  0  0  0  0
 61 66  1  0  0  0  0
 63 64  1  0  0  0  0
 64 65  1  0  0  0  0
 65 62  1  1  0  0  0
 66 65  1  0  0  0  0
 67 63  2  0  0  0  0
 67 61  1  0  0  0  0
M  END
>  <MODEL>
4

>  <REMARK>
 VINA RESULT:      -5.6      3.677     10.139
  Name = 
  23 active torsions:
  status: ('A' for Active; 'I' for Inactive)
    1  A    between atoms: C_1  and  C_32
    2  A    between atoms: C_1  and  C_52
    3  A    between atoms: C_3  and  C_13
    4  A    between atoms: C_4  and  C_60
    5  A    between atoms: C_5  and  O_63
    6  A    between atoms: C_7  and  C_31
    7  A    between atoms: C_7  and  O_47
    8  A    between atoms: C_12  and  C_59
    9  A    between atoms: C_12  and  C_66
   10  A    between atoms: O_19  and  C_22
   11  A    between atoms: O_19  and  O_63
   12  A    between atoms: C_20  and  C_41
   13  A    between atoms: C_21  and  C_50
   14  A    between atoms: C_22  and  C_52
   15  A    between atoms: C_24  and  C_29
   16  A    between atoms: C_25  and  C_42
   17  A    between atoms: C_37  and  C_53
   18  A    between atoms: C_37  and  C_59
   19  A    between atoms: C_41  and  N_56
   20  A    between atoms: C_44  and  C_51
   21  A    between atoms: C_45  and  C_60
   22  A    between atoms: C_46  and  C_49
   23  A    between atoms: O_47  and  C_62
                            x       y       z     vdW  Elec       q    Type
                         _______ _______ _______ _____ _____    ______ ____

>  <TORSDO>
F 23

$$$$
=
 OpenBabel11042416583D

 67 73  0  0  1  0  0  0  0  0999 V2000
  191.6780  171.3840  140.0040 C   0  0  2  0  0  3  0  0  0  0  0  0
  191.9820  172.5700  140.8750 C   0  0  0  0  0  0  0  0  0  0  0  0
  193.4280  171.4160  142.5180 C   0  0  0  0  0  0  0  0  0  0  0  0
  192.6480  170.5150  139.7090 C   0  0  0  0  0  3  0  0  0  0  0  0
  189.4100  172.1710  139.6220 C   0  0  0  0  0  3  0  0  0  0  0  0
  194.3150  170.9770  141.4700 N   0  0  0  0  0  0  0  0  0  0  0  0
  192.3040  172.1260  142.2750 C   0  0  0  0  0  0  0  0  0  0  0  0
  189.7480  173.4350  140.3120 C   0  0  0  0  0  0  0  0  0  0  0  0
  194.0130  170.5730  140.2660 C   0  0  0  0  0  3  0  0  0  0  0  0
  190.9250  173.5930  140.8460 N   0  0  0  0  0  0  0  0  0  0  0  0
  190.3130  171.2070  139.4640 C   0  0  0  0  0  0  0  0  0  0  0  0
  186.7890  176.6320  140.6330 C   0  0  0  0  0  0  0  0  0  0  0  0
  187.1720  176.0620  139.3310 C   0  0  0  0  0  0  0  0  0  0  0  0
  186.6530  176.4840  138.2650 O   0  0  0  0  0  0  0  0  0  0  0  0
  188.7620  174.5350  140.3940 C   0  0  0  0  0  0  0  0  0  0  0  0
  187.3800  176.1960  141.7470 C   0  0  0  0  0  3  0  0  0  0  0  0
  188.5030  175.1890  141.7360 C   0  0  0  0  0  2  0  0  0  0  0  0
  188.1530  174.9730  139.2830 C   0  0  0  0  0  3  0  0  0  0  0  0
  185.6950  177.6410  140.7350 C   0  0  0  0  0  2  0  0  0  0  0  0
  186.0350  178.6120  141.6770 O   0  0  0  0  0  1  0  0  0  0  0  0
  190.6500  172.7720  144.2470 C   0  0  0  0  0  0  0  0  0  0  0  0
  191.3980  172.4720  143.3520 C   0  0  0  0  0  0  0  0  0  0  0  0
  189.7530  173.1420  145.3460 C   0  0  0  0  0  2  0  0  0  0  0  0
  189.8820  176.2430  147.2090 O   0  0  0  0  0  0  0  0  0  0  0  0
  188.5040  176.0710  146.9750 C   0  0  2  0  0  3  0  0  0  0  0  0
  188.3210  175.1030  145.8170 C   0  0  0  0  0  2  0  0  0  0  0  0
  189.7070  174.6520  145.4900 C   0  0  1  0  0  3  0  0  0  0  0  0
  190.5040  175.1040  146.6860 C   0  0  0  0  0  2  0  0  0  0  0  0
  185.8990  178.1010  145.2650 C   0  0  0  0  0  2  0  0  0  0  0  0
  186.7130  177.6950  147.6320 C   0  0  0  0  0  2  0  0  0  0  0  0
  187.2810  177.4590  145.2500 C   0  0  2  0  0  3  0  0  0  0  0  0
  185.6520  178.9340  146.8580 S   0  0  0  0  0  0  0  0  0  0  0  0
  187.8490  177.4190  146.6670 C   0  0  2  0  0  3  0  0  0  0  0  0
  189.3520  177.8460  144.1620 O   0  0  0  0  0  0  0  0  0  0  0  0
  188.1990  178.2090  144.3340 C   0  0  0  0  0  3  0  0  0  0  0  0
  194.1480  170.8690  144.9570 N   0  0  0  0  0  0  0  0  0  0  0  0
  193.8280  171.1130  143.8720 C   0  0  0  0  0  0  0  0  0  0  0  0
  189.9070  169.9400  138.7820 C   0  0  0  0  0  2  0  0  0  0  0  0
  189.6280  170.2130  137.3130 C   0  0  0  0  0  2  0  0  0  0  0  0
  190.9280  170.3790  136.5410 C   0  0  0  0  0  2  0  0  0  0  0  0
  190.2500  172.6630  136.4280 O   0  0  0  0  0  0  0  0  0  0  0  0
  191.0980  171.7970  136.0900 C   0  0  0  0  0  0  0  0  0  0  0  0
  192.2030  172.1810  135.2720 N   0  0  0  0  0  2  0  0  0  0  0  0
  193.3000  171.2750  134.9660 C   0  0  0  0  0  2  0  0  0  0  0  0
  195.5790  173.5560  137.0830 C   0  0  2  0  0  3  0  0  0  0  0  0
  196.3380  171.1680  137.0940 C   0  0  0  0  0  2  0  0  0  0  0  0
  194.3080  173.0820  136.3740 C   0  0  1  0  0  3  0  0  0  0  0  0
  193.8920  174.0610  135.4680 O   0  0  0  0  0  1  0  0  0  0  0  0
  194.5700  171.7650  135.6360 C   0  0  1  0  0  3  0  0  0  0  0  0
  196.1840  172.4340  137.9330 C   0  0  1  0  0  3  0  0  0  0  0  0
  195.0380  170.7500  136.5780 N   0  0  0  0  0  2  0  0  0  0  0  0
  195.2700  174.6540  137.8960 O   0  0  0  0  0  0  0  0  0  0  0  0
  194.9420  174.1370  139.0640 O   0  0  0  0  0  0  0  0  0  0  0  0
  194.1620  175.1140  139.6930 C   0  0  0  0  0  2  0  0  0  0  0  0
  194.5430  175.2370  141.1590 C   0  0  0  0  0  2  0  0  0  0  0  0
  193.7980  176.3880  141.8080 C   0  0  0  0  0  2  0  0  0  0  0  0
  192.7890  175.8420  142.7950 C   0  0  0  0  0  2  0  0  0  0  0  0
  193.4520  175.6700  144.1450 C   0  0  0  0  0  1  0  0  0  0  0  0
  197.5500  172.8490  138.4520 C   0  0  0  0  0  2  0  0  0  0  0  0
  197.8110  172.2240  139.7020 O   0  0  0  0  0  0  0  0  0  0  0  0
  197.2810  172.0890  142.1340 C   0  0  0  0  0  2  0  0  0  0  0  0
  197.6030  174.8550  144.5830 F   0  0  0  0  0  0  0  0  0  0  0  0
  197.9410  174.1700  141.0050 N   0  0  0  0  0  0  0  0  0  0  0  0
  197.7880  174.9690  142.2210 C   0  0  0  0  0  2  0  0  0  0  0  0
  197.9070  174.1030  143.4650 C   0  0  2  0  0  3  0  0  0  0  0  0
  196.9150  172.9590  143.3340 C   0  0  0  0  0  2  0  0  0  0  0  0
  197.6700  172.8960  140.9200 C   0  0  0  0  0  0  0  0  0  0  0  0
  1  4  1  6  0  0  0
  1  2  1  0  0  0  0
  2  7  2  0  0  0  0
  3 37  1  0  0  0  0
  4  9  2  0  0  0  0
  5  8  1  0  0  0  0
  6  3  2  0  0  0  0
  7  3  1  0  0  0  0
  7 22  1  0  0  0  0
  8 15  1  0  0  0  0
  8 10  2  0  0  0  0
  9  6  1  0  0  0  0
 10  2  1  0  0  0  0
 11  5  2  0  0  0  0
 11  1  1  0  0  0  0
 12 19  1  0  0  0  0
 12 16  2  0  0  0  0
 13 12  1  0  0  0  0
 14 13  2  0  0  0  0
 15 17  1  0  0  0  0
 17 16  1  0  0  0  0
 18 13  1  0  0  0  0
 18 15  2  0  0  0  0
 19 20  1  0  0  0  0
 21 23  1  0  0  0  0
 22 21  3  0  0  0  0
 25 26  1  6  0  0  0
 25 24  1  0  0  0  0
 27 23  1  1  0  0  0
 27 26  1  0  0  0  0
 27 28  1  0  0  0  0
 28 24  1  0  0  0  0
 29 32  1  0  0  0  0
 31 35  1  6  0  0  0
 31 29  1  0  0  0  0
 31 33  1  0  0  0  0
 32 30  1  0  0  0  0
 33 25  1  0  0  0  0
 33 30  1  1  0  0  0
 34 35  2  0  0  0  0
 37 36  3  0  0  0  0
 38 11  1  0  0  0  0
 39 38  1  0  0  0  0
 40 39  1  0  0  0  0
 42 41  2  0  0  0  0
 42 40  1  0  0  0  0
 43 42  1  0  0  0  0
 44 43  1  0  0  0  0
 45 52  1  1  0  0  0
 45 50  1  0  0  0  0
 46 50  1  0  0  0  0
 47 48  1  6  0  0  0
 47 45  1  0  0  0  0
 49 44  1  1  0  0  0
 49 47  1  0  0  0  0
 49 51  1  0  0  0  0
 50 59  1  6  0  0  0
 51 46  1  0  0  0  0
 52 53  1  0  0  0  0
 53 54  1  0  0  0  0
 54 55  1  0  0  0  0
 55 56  1  0  0  0  0
 56 57  1  0  0  0  0
 57 58  1  0  0  0  0
 59 60  1  0  0  0  0
 60 67  1  0  0  0  0
 61 66  1  0  0  0  0
 63 64  1  0  0  0  0
 64 65  1  0  0  0  0
 65 62  1  1  0  0  0
 66 65  1  0  0  0  0
 67 63  2  0  0  0  0
 67 61  1  0  0  0  0
M  END
>  <MODEL>
5

>  <REMARK>
 VINA RESULT:      -5.5      2.748      6.355
  Name = 
  23 active torsions:
  status: ('A' for Active; 'I' for Inactive)
    1  A    between atoms: C_1  and  C_32
    2  A    between atoms: C_1  and  C_52
    3  A    between atoms: C_3  and  C_13
    4  A    between atoms: C_4  and  C_60
    5  A    between atoms: C_5  and  O_63
    6  A    between atoms: C_7  and  C_31
    7  A    between atoms: C_7  and  O_47
    8  A    between atoms: C_12  and  C_59
    9  A    between atoms: C_12  and  C_66
   10  A    between atoms: O_19  and  C_22
   11  A    between atoms: O_19  and  O_63
   12  A    between atoms: C_20  and  C_41
   13  A    between atoms: C_21  and  C_50
   14  A    between atoms: C_22  and  C_52
   15  A    between atoms: C_24  and  C_29
   16  A    between atoms: C_25  and  C_42
   17  A    between atoms: C_37  and  C_53
   18  A    between atoms: C_37  and  C_59
   19  A    between atoms: C_41  and  N_56
   20  A    between atoms: C_44  and  C_51
   21  A    between atoms: C_45  and  C_60
   22  A    between atoms: C_46  and  C_49
   23  A    between atoms: O_47  and  C_62
                            x       y       z     vdW  Elec       q    Type
                         _______ _______ _______ _____ _____    ______ ____

>  <TORSDO>
F 23

$$$$
=
 OpenBabel11042416583D

 67 73  0  0  1  0  0  0  0  0999 V2000
  196.2820  173.0440  144.9770 C   0  0  0  0  0  0  0  0  0  0  0  0
  195.1400  172.2060  145.4800 C   0  0  0  0  0  0  0  0  0  0  0  0
  195.6050  170.1750  144.1450 C   0  0  0  0  0  0  0  0  0  0  0  0
  197.4830  172.4880  144.8020 C   0  0  0  0  0  3  0  0  0  0  0  0
  194.9160  175.0530  145.0530 C   0  0  0  0  0  3  0  0  0  0  0  0
  196.9340  170.0840  144.6950 N   0  0  0  0  0  0  0  0  0  0  0  0
  194.7530  171.1770  144.4540 C   0  0  0  0  0  0  0  0  0  0  0  0
  193.8480  174.2850  145.7290 C   0  0  0  0  0  0  0  0  0  0  0  0
  197.7660  171.0500  144.9730 C   0  0  0  0  0  3  0  0  0  0  0  0
  193.9900  173.0060  145.9280 N   0  0  0  0  0  0  0  0  0  0  0  0
  196.0660  174.4810  144.7060 C   0  0  2  0  0  3  0  0  0  0  0  0
  190.1780  176.2810  147.0030 C   0  0  0  0  0  0  0  0  0  0  0  0
  191.4910  176.6510  147.5560 C   0  0  0  0  0  0  0  0  0  0  0  0
  191.5930  177.5610  148.4200 O   0  0  0  0  0  0  0  0  0  0  0  0
  192.6160  174.9580  146.1940 C   0  0  0  0  0  0  0  0  0  0  0  0
  190.0890  175.2870  146.1170 C   0  0  0  0  0  3  0  0  0  0  0  0
  191.2740  174.4500  145.7060 C   0  0  0  0  0  2  0  0  0  0  0  0
  192.6940  175.9650  147.0760 C   0  0  0  0  0  3  0  0  0  0  0  0
  188.9520  177.0490  147.3640 C   0  0  0  0  0  2  0  0  0  0  0  0
  189.3100  178.2850  147.9030 O   0  0  0  0  0  1  0  0  0  0  0  0
  192.3850  171.3610  143.2680 C   0  0  0  0  0  0  0  0  0  0  0  0
  193.4570  171.2740  143.8120 C   0  0  0  0  0  0  0  0  0  0  0  0
  191.0840  171.4850  142.6060 C   0  0  0  0  0  2  0  0  0  0  0  0
  191.9540  168.7780  140.3650 O   0  0  0  0  0  0  0  0  0  0  0  0
  192.8970  169.7720  140.0430 C   0  0  2  0  0  3  0  0  0  0  0  0
  192.3810  171.1160  140.5320 C   0  0  0  0  0  2  0  0  0  0  0  0
  191.1190  170.7830  141.2610 C   0  0  1  0  0  3  0  0  0  0  0  0
  191.2100  169.2890  141.4350 C   0  0  0  0  0  2  0  0  0  0  0  0
  192.6220  171.4570  136.7380 C   0  0  0  0  0  2  0  0  0  0  0  0
  194.4480  170.4960  138.2120 C   0  0  0  0  0  2  0  0  0  0  0  0
  192.0240  170.5360  137.7950 C   0  0  2  0  0  3  0  0  0  0  0  0
  194.3620  171.0110  136.4840 S   0  0  0  0  0  0  0  0  0  0  0  0
  193.1400  169.7990  138.5320 C   0  0  2  0  0  3  0  0  0  0  0  0
  189.8660  169.7270  137.2390 O   0  0  0  0  0  0  0  0  0  0  0  0
  191.0730  169.5620  137.1670 C   0  0  0  0  0  3  0  0  0  0  0  0
  194.8560  168.2350  142.5810 N   0  0  0  0  0  0  0  0  0  0  0  0
  195.1900  169.0980  143.2770 C   0  0  0  0  0  0  0  0  0  0  0  0
  197.0990  175.3020  144.0020 C   0  0  0  0  0  2  0  0  0  0  0  0
  197.1120  174.9530  142.5220 C   0  0  0  0  0  2  0  0  0  0  0  0
  195.9680  175.6420  141.7970 C   0  0  0  0  0  2  0  0  0  0  0  0
  195.2560  173.6430  140.7060 O   0  0  0  0  0  0  0  0  0  0  0  0
  194.9250  174.6480  141.3890 C   0  0  0  0  0  0  0  0  0  0  0  0
  193.5560  174.8260  141.7530 N   0  0  0  0  0  2  0  0  0  0  0  0
  193.1210  175.8750  142.6630 C   0  0  0  0  0  2  0  0  0  0  0  0
  189.3890  175.5700  141.7390 C   0  0  2  0  0  3  0  0  0  0  0  0
  189.9110  177.7170  142.9200 C   0  0  0  0  0  2  0  0  0  0  0  0
  190.8110  175.1140  142.0760 C   0  0  1  0  0  3  0  0  0  0  0  0
  191.3030  174.3290  141.0300 O   0  0  0  0  0  1  0  0  0  0  0  0
  191.7210  176.3270  142.2910 C   0  0  1  0  0  3  0  0  0  0  0  0
  188.8870  176.5980  142.7590 C   0  0  1  0  0  3  0  0  0  0  0  0
  191.1880  177.1670  143.3620 N   0  0  0  0  0  2  0  0  0  0  0  0
  188.5390  174.4560  141.7290 O   0  0  0  0  0  0  0  0  0  0  0  0
  189.0230  173.6610  140.7950 O   0  0  0  0  0  0  0  0  0  0  0  0
  187.9720  172.7970  140.4670 C   0  0  0  0  0  2  0  0  0  0  0  0
  188.1170  172.3030  139.0370 C   0  0  0  0  0  2  0  0  0  0  0  0
  189.3400  172.9180  138.3830 C   0  0  0  0  0  2  0  0  0  0  0  0
  188.9240  174.1220  137.5670 C   0  0  0  0  0  2  0  0  0  0  0  0
  189.3250  173.9110  136.1230 C   0  0  0  0  0  1  0  0  0  0  0  0
  187.5710  177.1970  142.2940 C   0  0  0  0  0  2  0  0  0  0  0  0
  187.2440  178.3350  143.0800 O   0  0  0  0  0  0  0  0  0  0  0  0
  186.4560  177.0910  145.0920 C   0  0  0  0  0  2  0  0  0  0  0  0
  183.9460  178.2930  147.5430 F   0  0  0  0  0  0  0  0  0  0  0  0
  185.5200  179.2510  144.3810 N   0  0  0  0  0  0  0  0  0  0  0  0
  184.5280  179.2610  145.4560 C   0  0  0  0  0  2  0  0  0  0  0  0
  184.9700  178.3850  146.6190 C   0  0  2  0  0  3  0  0  0  0  0  0
  185.2860  177.0050  146.0700 C   0  0  0  0  0  2  0  0  0  0  0  0
  186.3560  178.2720  144.1590 C   0  0  0  0  0  0  0  0  0  0  0  0
  1  2  1  0  0  0  0
  2 10  2  0  0  0  0
  3  7  2  0  0  0  0
  3  6  1  0  0  0  0
  4  9  1  0  0  0  0
  4  1  2  0  0  0  0
  5  8  2  0  0  0  0
  6  9  2  0  0  0  0
  7  2  1  0  0  0  0
  8 10  1  0  0  0  0
  8 15  1  0  0  0  0
 11 38  1  6  0  0  0
 11  1  1  0  0  0  0
 11  5  1  0  0  0  0
 12 19  1  0  0  0  0
 12 13  1  0  0  0  0
 13 14  2  0  0  0  0
 15 18  2  0  0  0  0
 16 12  2  0  0  0  0
 17 16  1  0  0  0  0
 17 15  1  0  0  0  0
 18 13  1  0  0  0  0
 19 20  1  0  0  0  0
 21 22  3  0  0  0  0
 22  7  1  0  0  0  0
 23 21  1  0  0  0  0
 24 28  1  0  0  0  0
 25 24  1  0  0  0  0
 25 26  1  6  0  0  0
 26 27  1  0  0  0  0
 27 28  1  0  0  0  0
 27 23  1  1  0  0  0
 29 31  1  0  0  0  0
 31 35  1  6  0  0  0
 31 33  1  0  0  0  0
 32 29  1  0  0  0  0
 32 30  1  0  0  0  0
 33 30  1  1  0  0  0
 33 25  1  0  0  0  0
 35 34  2  0  0  0  0
 36 37  3  0  0  0  0
 37  3  1  0  0  0  0
 39 38  1  0  0  0  0
 40 39  1  0  0  0  0
 41 42  2  0  0  0  0
 42 43  1  0  0  0  0
 42 40  1  0  0  0  0
 43 44  1  0  0  0  0
 45 52  1  1  0  0  0
 45 47  1  0  0  0  0
 45 50  1  0  0  0  0
 46 51  1  0  0  0  0
 47 48  1  6  0  0  0
 47 49  1  0  0  0  0
 49 44  1  1  0  0  0
 49 51  1  0  0  0  0
 50 59  1  6  0  0  0
 50 46  1  0  0  0  0
 53 52  1  0  0  0  0
 54 53  1  0  0  0  0
 55 54  1  0  0  0  0
 56 55  1  0  0  0  0
 57 56  1  0  0  0  0
 58 57  1  0  0  0  0
 59 60  1  0  0  0  0
 60 67  1  0  0  0  0
 61 66  1  0  0  0  0
 63 64  1  0  0  0  0
 64 65  1  0  0  0  0
 65 62  1  1  0  0  0
 66 65  1  0  0  0  0
 67 63  2  0  0  0  0
 67 61  1  0  0  0  0
M  END
>  <MODEL>
6

>  <REMARK>
 VINA RESULT:      -5.3      3.754      7.726
  Name = 
  23 active torsions:
  status: ('A' for Active; 'I' for Inactive)
    1  A    between atoms: C_1  and  C_32
    2  A    between atoms: C_1  and  C_52
    3  A    between atoms: C_3  and  C_13
    4  A    between atoms: C_4  and  C_60
    5  A    between atoms: C_5  and  O_63
    6  A    between atoms: C_7  and  C_31
    7  A    between atoms: C_7  and  O_47
    8  A    between atoms: C_12  and  C_59
    9  A    between atoms: C_12  and  C_66
   10  A    between atoms: O_19  and  C_22
   11  A    between atoms: O_19  and  O_63
   12  A    between atoms: C_20  and  C_41
   13  A    between atoms: C_21  and  C_50
   14  A    between atoms: C_22  and  C_52
   15  A    between atoms: C_24  and  C_29
   16  A    between atoms: C_25  and  C_42
   17  A    between atoms: C_37  and  C_53
   18  A    between atoms: C_37  and  C_59
   19  A    between atoms: C_41  and  N_56
   20  A    between atoms: C_44  and  C_51
   21  A    between atoms: C_45  and  C_60
   22  A    between atoms: C_46  and  C_49
   23  A    between atoms: O_47  and  C_62
                            x       y       z     vdW  Elec       q    Type
                         _______ _______ _______ _____ _____    ______ ____

>  <TORSDO>
F 23

$$$$
=
 OpenBabel11042416583D

 67 73  0  0  1  0  0  0  0  0999 V2000
  191.3840  172.7860  144.1320 C   0  0  2  0  0  3  0  0  0  0  0  0
  189.9060  172.9650  143.9220 C   0  0  0  0  0  0  0  0  0  0  0  0
  189.8020  172.1530  141.5870 C   0  0  0  0  0  0  0  0  0  0  0  0
  191.9900  171.6940  143.6630 C   0  0  0  0  0  3  0  0  0  0  0  0
  191.4940  174.8000  145.4900 C   0  0  0  0  0  3  0  0  0  0  0  0
  190.3820  170.8910  141.9710 N   0  0  0  0  0  0  0  0  0  0  0  0
  189.6040  173.1630  142.4620 C   0  0  0  0  0  0  0  0  0  0  0  0
  190.0170  174.8860  145.4570 C   0  0  0  0  0  0  0  0  0  0  0  0
  191.3270  170.6630  142.8420 C   0  0  0  0  0  3  0  0  0  0  0  0
  189.3290  174.0280  144.7590 N   0  0  0  0  0  0  0  0  0  0  0  0
  192.1430  173.8110  144.8800 C   0  0  0  0  0  0  0  0  0  0  0  0
  187.8620  178.0040  147.6270 C   0  0  0  0  0  0  0  0  0  0  0  0
  189.3280  177.8860  147.6970 C   0  0  0  0  0  0  0  0  0  0  0  0
  190.0070  178.6880  148.3900 O   0  0  0  0  0  0  0  0  0  0  0  0
  189.3070  175.9340  146.2210 C   0  0  0  0  0  0  0  0  0  0  0  0
  187.1600  177.1200  146.9160 C   0  0  0  0  0  3  0  0  0  0  0  0
  187.7920  175.9320  146.2350 C   0  0  0  0  0  2  0  0  0  0  0  0
  190.0030  176.8350  146.9290 C   0  0  0  0  0  3  0  0  0  0  0  0
  187.1540  179.1420  148.2800 C   0  0  0  0  0  2  0  0  0  0  0  0
  185.9590  179.4020  147.6100 O   0  0  0  0  0  1  0  0  0  0  0  0
  188.6850  175.5150  141.6450 C   0  0  0  0  0  0  0  0  0  0  0  0
  189.0960  174.4450  142.0150 C   0  0  0  0  0  0  0  0  0  0  0  0
  188.1900  176.8240  141.2100 C   0  0  0  0  0  2  0  0  0  0  0  0
  185.0070  178.1240  140.0760 O   0  0  0  0  0  0  0  0  0  0  0  0
  184.9470  178.3100  141.4700 C   0  0  2  0  0  3  0  0  0  0  0  0
  185.9670  177.3970  142.1310 C   0  0  0  0  0  2  0  0  0  0  0  0
  186.6900  176.7620  140.9880 C   0  0  1  0  0  3  0  0  0  0  0  0
  186.2840  177.6120  139.8130 C   0  0  0  0  0  2  0  0  0  0  0  0
  181.5900  179.4520  142.5950 C   0  0  0  0  0  2  0  0  0  0  0  0
  182.5570  177.9120  140.8270 C   0  0  0  0  0  2  0  0  0  0  0  0
  183.0360  179.1020  142.9260 C   0  0  2  0  0  3  0  0  0  0  0  0
  180.9060  178.1660  141.5110 S   0  0  0  0  0  0  0  0  0  0  0  0
  183.5360  178.0110  141.9810 C   0  0  2  0  0  3  0  0  0  0  0  0
  184.0680  179.0590  145.0600 O   0  0  0  0  0  0  0  0  0  0  0  0
  183.1570  178.6600  144.3530 C   0  0  0  0  0  3  0  0  0  0  0  0
  189.0340  172.3760  139.1110 N   0  0  0  0  0  0  0  0  0  0  0  0
  189.3750  172.2770  140.2130 C   0  0  0  0  0  0  0  0  0  0  0  0
  193.6370  173.7910  144.9250 C   0  0  0  0  0  2  0  0  0  0  0  0
  194.1240  174.5430  146.1540 C   0  0  0  0  0  2  0  0  0  0  0  0
  195.4020  175.3080  145.8440 C   0  0  0  0  0  2  0  0  0  0  0  0
  194.2750  177.3260  145.2510 O   0  0  0  0  0  0  0  0  0  0  0  0
  195.1210  176.4530  144.9210 C   0  0  0  0  0  0  0  0  0  0  0  0
  195.7880  176.5660  143.6640 N   0  0  0  0  0  2  0  0  0  0  0  0
  196.8810  175.6860  143.2800 C   0  0  0  0  0  2  0  0  0  0  0  0
  196.6640  173.7420  139.9550 C   0  0  2  0  0  3  0  0  0  0  0  0
  195.9620  172.3570  141.9220 C   0  0  0  0  0  2  0  0  0  0  0  0
  197.1370  174.8030  140.9530 C   0  0  1  0  0  3  0  0  0  0  0  0
  196.9170  176.0730  140.4140 O   0  0  0  0  0  1  0  0  0  0  0  0
  196.3840  174.6600  142.2790 C   0  0  1  0  0  3  0  0  0  0  0  0
  196.6960  172.3450  140.5840 C   0  0  1  0  0  3  0  0  0  0  0  0
  196.5860  173.3190  142.8250 N   0  0  0  0  0  2  0  0  0  0  0  0
  197.4890  173.7730  138.8240 O   0  0  0  0  0  0  0  0  0  0  0  0
  196.8940  172.9950  137.9410 O   0  0  0  0  0  0  0  0  0  0  0  0
  197.5080  173.2910  136.7190 C   0  0  0  0  0  2  0  0  0  0  0  0
  196.7570  174.4020  136.0030 C   0  0  0  0  0  2  0  0  0  0  0  0
  197.5770  175.6780  135.9940 C   0  0  0  0  0  2  0  0  0  0  0  0
  196.8170  176.7610  135.2600 C   0  0  0  0  0  2  0  0  0  0  0  0
  195.5290  176.1840  134.7130 C   0  0  0  0  0  1  0  0  0  0  0  0
  196.0240  171.3410  139.6630 C   0  0  0  0  0  2  0  0  0  0  0  0
  194.8530  170.8190  140.2760 O   0  0  0  0  0  0  0  0  0  0  0  0
  192.9550  169.2100  140.1240 C   0  0  0  0  0  2  0  0  0  0  0  0
  190.3610  169.1570  137.4750 F   0  0  0  0  0  0  0  0  0  0  0  0
  193.4430  170.8970  138.4040 N   0  0  0  0  0  0  0  0  0  0  0  0
  192.3550  170.4400  137.5380 C   0  0  0  0  0  2  0  0  0  0  0  0
  191.2880  169.7080  138.3380 C   0  0  2  0  0  3  0  0  0  0  0  0
  191.9710  168.6040  139.1260 C   0  0  0  0  0  2  0  0  0  0  0  0
  193.7710  170.3340  139.5350 C   0  0  0  0  0  0  0  0  0  0  0  0
  1  4  1  1  0  0  0
  1 11  1  0  0  0  0
  2  1  1  0  0  0  0
  2 10  1  0  0  0  0
  3  6  2  0  0  0  0
  3  7  1  0  0  0  0
  6  9  1  0  0  0  0
  7  2  2  0  0  0  0
  8  5  1  0  0  0  0
  8 15  1  0  0  0  0
  9  4  2  0  0  0  0
 10  8  2  0  0  0  0
 11 38  1  0  0  0  0
 11  5  2  0  0  0  0
 12 13  1  0  0  0  0
 12 19  1  0  0  0  0
 13 14  2  0  0  0  0
 15 17  1  0  0  0  0
 15 18  2  0  0  0  0
 16 12  2  0  0  0  0
 17 16  1  0  0  0  0
 18 13  1  0  0  0  0
 20 19  1  0  0  0  0
 21 22  3  0  0  0  0
 22  7  1  0  0  0  0
 23 21  1  0  0  0  0
 24 25  1  0  0  0  0
 25 33  1  0  0  0  0
 25 26  1  1  0  0  0
 27 23  1  1  0  0  0
 27 26  1  0  0  0  0
 28 24  1  0  0  0  0
 28 27  1  0  0  0  0
 29 31  1  0  0  0  0
 30 32  1  0  0  0  0
 31 35  1  1  0  0  0
 32 29  1  0  0  0  0
 33 30  1  6  0  0  0
 33 31  1  0  0  0  0
 35 34  2  0  0  0  0
 36 37  3  0  0  0  0
 37  3  1  0  0  0  0
 38 39  1  0  0  0  0
 40 39  1  0  0  0  0
 42 41  2  0  0  0  0
 42 40  1  0  0  0  0
 43 42  1  0  0  0  0
 44 43  1  0  0  0  0
 45 52  1  6  0  0  0
 45 50  1  0  0  0  0
 45 47  1  0  0  0  0
 46 51  1  0  0  0  0
 47 48  1  6  0  0  0
 47 49  1  0  0  0  0
 49 51  1  0  0  0  0
 49 44  1  1  0  0  0
 50 59  1  6  0  0  0
 50 46  1  0  0  0  0
 53 52  1  0  0  0  0
 54 53  1  0  0  0  0
 55 54  1  0  0  0  0
 56 55  1  0  0  0  0
 57 56  1  0  0  0  0
 58 57  1  0  0  0  0
 59 60  1  0  0  0  0
 63 67  2  0  0  0  0
 64 65  1  0  0  0  0
 64 63  1  0  0  0  0
 65 62  1  6  0  0  0
 65 66  1  0  0  0  0
 66 61  1  0  0  0  0
 67 61  1  0  0  0  0
 67 60  1  0  0  0  0
M  END
>  <MODEL>
7

>  <REMARK>
 VINA RESULT:      -5.1      1.922      2.750
  Name = 
  23 active torsions:
  status: ('A' for Active; 'I' for Inactive)
    1  A    between atoms: C_1  and  C_32
    2  A    between atoms: C_1  and  C_52
    3  A    between atoms: C_3  and  C_13
    4  A    between atoms: C_4  and  C_60
    5  A    between atoms: C_5  and  O_63
    6  A    between atoms: C_7  and  C_31
    7  A    between atoms: C_7  and  O_47
    8  A    between atoms: C_12  and  C_59
    9  A    between atoms: C_12  and  C_66
   10  A    between atoms: O_19  and  C_22
   11  A    between atoms: O_19  and  O_63
   12  A    between atoms: C_20  and  C_41
   13  A    between atoms: C_21  and  C_50
   14  A    between atoms: C_22  and  C_52
   15  A    between atoms: C_24  and  C_29
   16  A    between atoms: C_25  and  C_42
   17  A    between atoms: C_37  and  C_53
   18  A    between atoms: C_37  and  C_59
   19  A    between atoms: C_41  and  N_56
   20  A    between atoms: C_44  and  C_51
   21  A    between atoms: C_45  and  C_60
   22  A    between atoms: C_46  and  C_49
   23  A    between atoms: O_47  and  C_62
                            x       y       z     vdW  Elec       q    Type
                         _______ _______ _______ _____ _____    ______ ____

>  <TORSDO>
F 23

$$$$
=
 OpenBabel11042416583D

 67 73  0  0  1  0  0  0  0  0999 V2000
  188.6610  175.9400  144.6620 C   0  0  0  0  0  0  0  0  0  0  0  0
  189.3400  174.9540  145.5700 C   0  0  0  0  0  0  0  0  0  0  0  0
  190.0800  176.5540  147.3060 C   0  0  0  0  0  0  0  0  0  0  0  0
  187.9170  176.9170  145.1860 C   0  0  0  0  0  3  0  0  0  0  0  0
  189.4020  174.7240  142.6920 C   0  0  0  0  0  3  0  0  0  0  0  0
  188.7250  176.9960  147.5170 N   0  0  0  0  0  0  0  0  0  0  0  0
  190.4130  175.6330  146.3750 C   0  0  0  0  0  0  0  0  0  0  0  0
  189.9070  173.6440  143.5660 C   0  0  0  0  0  0  0  0  0  0  0  0
  187.7820  177.1750  146.6320 C   0  0  0  0  0  3  0  0  0  0  0  0
  189.8420  173.7670  144.8610 N   0  0  0  0  0  0  0  0  0  0  0  0
  188.8060  175.8010  143.1970 C   0  0  2  0  0  3  0  0  0  0  0  0
  191.6910  170.0290  141.8820 C   0  0  0  0  0  0  0  0  0  0  0  0
  190.7450  170.8550  141.1140 C   0  0  0  0  0  0  0  0  0  0  0  0
  190.4210  170.5390  139.9390 O   0  0  0  0  0  0  0  0  0  0  0  0
  190.4790  172.4100  142.9840 C   0  0  0  0  0  0  0  0  0  0  0  0
  191.9900  170.3620  143.1400 C   0  0  0  0  0  3  0  0  0  0  0  0
  191.3340  171.5150  143.8580 C   0  0  0  0  0  2  0  0  0  0  0  0
  190.1940  172.0710  141.7180 C   0  0  0  0  0  3  0  0  0  0  0  0
  192.3770  168.8650  141.2530 C   0  0  0  0  0  2  0  0  0  0  0  0
  193.5920  168.6290  141.8970 O   0  0  0  0  0  1  0  0  0  0  0  0
  192.9550  175.0020  145.9450 C   0  0  0  0  0  0  0  0  0  0  0  0
  191.8000  175.2820  146.1400 C   0  0  0  0  0  0  0  0  0  0  0  0
  194.3610  174.6720  145.6930 C   0  0  0  0  0  2  0  0  0  0  0  0
  194.0170  176.4570  142.5620 O   0  0  0  0  0  0  0  0  0  0  0  0
  193.3620  175.2380  142.3060 C   0  0  2  0  0  3  0  0  0  0  0  0
  193.8260  174.2080  143.3230 C   0  0  0  0  0  2  0  0  0  0  0  0
  194.7120  174.9760  144.2480 C   0  0  1  0  0  3  0  0  0  0  0  0
  194.3990  176.4100  143.9080 C   0  0  0  0  0  2  0  0  0  0  0  0
  194.5830  172.6530  139.9250 C   0  0  0  0  0  2  0  0  0  0  0  0
  192.4770  174.0130  140.3060 C   0  0  0  0  0  2  0  0  0  0  0  0
  194.8730  173.8420  140.8330 C   0  0  2  0  0  3  0  0  0  0  0  0
  193.1010  173.0120  138.9400 S   0  0  0  0  0  0  0  0  0  0  0  0
  193.6600  174.7680  140.8800 C   0  0  2  0  0  3  0  0  0  0  0  0
  197.2080  174.2190  140.6680 O   0  0  0  0  0  0  0  0  0  0  0  0
  196.0850  174.5840  140.3580 C   0  0  0  0  0  3  0  0  0  0  0  0
  191.8880  177.5410  148.8960 N   0  0  0  0  0  0  0  0  0  0  0  0
  191.0840  177.1030  148.1890 C   0  0  0  0  0  0  0  0  0  0  0  0
  188.3390  176.8740  142.2660 C   0  0  0  0  0  2  0  0  0  0  0  0
  187.3110  177.7500  142.9650 C   0  0  0  0  0  2  0  0  0  0  0  0
  185.9620  177.6550  142.2700 C   0  0  0  0  0  2  0  0  0  0  0  0
  185.0530  177.7410  144.4740 O   0  0  0  0  0  0  0  0  0  0  0  0
  184.8490  177.8970  143.2410 C   0  0  0  0  0  0  0  0  0  0  0  0
  183.5530  178.2930  142.7920 N   0  0  0  0  0  2  0  0  0  0  0  0
  183.2800  178.6390  141.4050 C   0  0  0  0  0  2  0  0  0  0  0  0
  179.5200  178.3740  140.5880 C   0  0  2  0  0  3  0  0  0  0  0  0
  180.9080  176.7890  139.2330 C   0  0  0  0  0  2  0  0  0  0  0  0
  180.8280  179.0070  141.0700 C   0  0  1  0  0  3  0  0  0  0  0  0
  180.6790  179.4230  142.3950 O   0  0  0  0  0  1  0  0  0  0  0  0
  181.9770  177.9990  140.9650 C   0  0  1  0  0  3  0  0  0  0  0  0
  179.7000  177.7210  139.2140 C   0  0  1  0  0  3  0  0  0  0  0  0
  182.1110  177.5370  139.5850 N   0  0  0  0  0  2  0  0  0  0  0  0
  178.5290  179.3620  140.5190 O   0  0  0  0  0  0  0  0  0  0  0  0
  179.0660  180.3410  139.8170 O   0  0  0  0  0  0  0  0  0  0  0  0
  178.1450  181.3920  139.8880 C   0  0  0  0  0  2  0  0  0  0  0  0
  178.8540  182.7300  139.7610 C   0  0  0  0  0  2  0  0  0  0  0  0
  178.6860  183.2910  138.3610 C   0  0  0  0  0  2  0  0  0  0  0  0
  179.8610  182.8730  137.5050 C   0  0  0  0  0  2  0  0  0  0  0  0
  180.7250  184.0820  137.2170 C   0  0  0  0  0  1  0  0  0  0  0  0
  178.4640  176.9170  138.8500 C   0  0  0  0  0  2  0  0  0  0  0  0
  178.4510  176.6390  137.4560 O   0  0  0  0  0  0  0  0  0  0  0  0
  178.8120  174.2060  137.8620 C   0  0  0  0  0  2  0  0  0  0  0  0
  179.6050  171.6680  135.2770 F   0  0  0  0  0  0  0  0  0  0  0  0
  179.1070  175.2720  135.6660 N   0  0  0  0  0  0  0  0  0  0  0  0
  179.5470  174.0270  135.0350 C   0  0  0  0  0  2  0  0  0  0  0  0
  179.0450  172.8150  135.8050 C   0  0  2  0  0  3  0  0  0  0  0  0
  179.4740  172.9720  137.2540 C   0  0  0  0  0  2  0  0  0  0  0  0
  178.8260  175.3960  136.9350 C   0  0  0  0  0  0  0  0  0  0  0  0
  1  4  2  0  0  0  0
  1  2  1  0  0  0  0
  2  7  1  0  0  0  0
  3  6  1  0  0  0  0
  3 37  1  0  0  0  0
  4  9  1  0  0  0  0
  5 11  1  0  0  0  0
  5  8  2  0  0  0  0
  7  3  2  0  0  0  0
  8 10  1  0  0  0  0
  9  6  2  0  0  0  0
 10  2  2  0  0  0  0
 11 38  1  1  0  0  0
 11  1  1  0  0  0  0
 12 16  2  0  0  0  0
 13 18  1  0  0  0  0
 13 12  1  0  0  0  0
 14 13  2  0  0  0  0
 15  8  1  0  0  0  0
 15 17  1  0  0  0  0
 16 17  1  0  0  0  0
 18 15  2  0  0  0  0
 19 12  1  0  0  0  0
 19 20  1  0  0  0  0
 21 22  3  0  0  0  0
 22  7  1  0  0  0  0
 23 21  1  0  0  0  0
 24 28  1  0  0  0  0
 25 24  1  0  0  0  0
 25 26  1  1  0  0  0
 26 27  1  0  0  0  0
 27 23  1  1  0  0  0
 28 27  1  0  0  0  0
 29 31  1  0  0  0  0
 31 35  1  6  0  0  0
 31 33  1  0  0  0  0
 32 29  1  0  0  0  0
 32 30  1  0  0  0  0
 33 30  1  1  0  0  0
 33 25  1  0  0  0  0
 35 34  2  0  0  0  0
 37 36  3  0  0  0  0
 38 39  1  0  0  0  0
 40 39  1  0  0  0  0
 40 42  1  0  0  0  0
 42 41  2  0  0  0  0
 43 42  1  0  0  0  0
 44 43  1  0  0  0  0
 45 52  1  6  0  0  0
 45 47  1  0  0  0  0
 46 51  1  0  0  0  0
 47 48  1  1  0  0  0
 49 47  1  0  0  0  0
 49 44  1  6  0  0  0
 50 59  1  1  0  0  0
 50 46  1  0  0  0  0
 50 45  1  0  0  0  0
 51 49  1  0  0  0  0
 53 54  1  0  0  0  0
 53 52  1  0  0  0  0
 55 54  1  0  0  0  0
 56 55  1  0  0  0  0
 57 56  1  0  0  0  0
 58 57  1  0  0  0  0
 60 59  1  0  0  0  0
 63 67  2  0  0  0  0
 64 63  1  0  0  0  0
 64 65  1  0  0  0  0
 65 62  1  6  0  0  0
 65 66  1  0  0  0  0
 66 61  1  0  0  0  0
 67 60  1  0  0  0  0
 67 61  1  0  0  0  0
M  END
>  <MODEL>
8

>  <REMARK>
 VINA RESULT:      -5.0      4.932     11.825
  Name = 
  23 active torsions:
  status: ('A' for Active; 'I' for Inactive)
    1  A    between atoms: C_1  and  C_32
    2  A    between atoms: C_1  and  C_52
    3  A    between atoms: C_3  and  C_13
    4  A    between atoms: C_4  and  C_60
    5  A    between atoms: C_5  and  O_63
    6  A    between atoms: C_7  and  C_31
    7  A    between atoms: C_7  and  O_47
    8  A    between atoms: C_12  and  C_59
    9  A    between atoms: C_12  and  C_66
   10  A    between atoms: O_19  and  C_22
   11  A    between atoms: O_19  and  O_63
   12  A    between atoms: C_20  and  C_41
   13  A    between atoms: C_21  and  C_50
   14  A    between atoms: C_22  and  C_52
   15  A    between atoms: C_24  and  C_29
   16  A    between atoms: C_25  and  C_42
   17  A    between atoms: C_37  and  C_53
   18  A    between atoms: C_37  and  C_59
   19  A    between atoms: C_41  and  N_56
   20  A    between atoms: C_44  and  C_51
   21  A    between atoms: C_45  and  C_60
   22  A    between atoms: C_46  and  C_49
   23  A    between atoms: O_47  and  C_62
                            x       y       z     vdW  Elec       q    Type
                         _______ _______ _______ _____ _____    ______ ____

>  <TORSDO>
F 23

$$$$
=
 OpenBabel11042416583D

 67 73  0  0  1  0  0  0  0  0999 V2000
  190.9400  172.0380  136.3060 C   0  0  2  0  0  3  0  0  0  0  0  0
  190.0000  171.7800  137.4510 C   0  0  0  0  0  0  0  0  0  0  0  0
  188.5080  173.7220  137.1000 C   0  0  0  0  0  0  0  0  0  0  0  0
  190.4530  172.4410  135.1300 C   0  0  0  0  0  3  0  0  0  0  0  0
  192.8350  171.2490  137.6080 C   0  0  0  0  0  3  0  0  0  0  0  0
  188.2230  173.2960  135.7530 N   0  0  0  0  0  0  0  0  0  0  0  0
  189.3670  173.0640  137.9100 C   0  0  0  0  0  0  0  0  0  0  0  0
  191.9050  170.8090  138.6700 C   0  0  0  0  0  0  0  0  0  0  0  0
  189.0340  172.7590  134.8830 C   0  0  0  0  0  3  0  0  0  0  0  0
  190.6280  171.0420  138.5570 N   0  0  0  0  0  0  0  0  0  0  0  0
  192.3900  171.8170  136.4900 C   0  0  0  0  0  0  0  0  0  0  0  0
  193.3410  168.7610  142.2510 C   0  0  0  0  0  0  0  0  0  0  0  0
  194.2340  169.0570  141.1190 C   0  0  0  0  0  0  0  0  0  0  0  0
  195.4480  168.7240  141.1520 O   0  0  0  0  0  0  0  0  0  0  0  0
  192.4080  170.0920  139.8620 C   0  0  0  0  0  0  0  0  0  0  0  0
  192.0490  169.0880  142.1780 C   0  0  0  0  0  3  0  0  0  0  0  0
  191.4250  169.6810  140.9400 C   0  0  0  0  0  2  0  0  0  0  0  0
  193.7060  169.7680  139.9510 C   0  0  0  0  0  3  0  0  0  0  0  0
  193.8720  168.1660  143.5100 C   0  0  0  0  0  2  0  0  0  0  0  0
  192.9310  168.3030  144.5310 O   0  0  0  0  0  1  0  0  0  0  0  0
  189.9630  174.0100  140.3170 C   0  0  0  0  0  0  0  0  0  0  0  0
  189.6870  173.5780  139.2270 C   0  0  0  0  0  0  0  0  0  0  0  0
  190.3150  174.5310  141.6410 C   0  0  0  0  0  2  0  0  0  0  0  0
  188.9350  177.0500  143.8430 O   0  0  0  0  0  0  0  0  0  0  0  0
  187.8670  176.1460  143.6880 C   0  0  2  0  0  3  0  0  0  0  0  0
  188.1080  175.3130  142.4390 C   0  0  0  0  0  2  0  0  0  0  0  0
  189.4590  175.7410  141.9650 C   0  0  1  0  0  3  0  0  0  0  0  0
  190.0140  176.4930  143.1470 C   0  0  0  0  0  2  0  0  0  0  0  0
  185.9610  179.2920  143.1330 C   0  0  0  0  0  2  0  0  0  0  0  0
  186.0610  176.9560  142.1510 C   0  0  0  0  0  2  0  0  0  0  0  0
  186.6780  178.3430  144.0860 C   0  0  2  0  0  3  0  0  0  0  0  0
  184.8880  178.3230  142.0340 S   0  0  0  0  0  0  0  0  0  0  0  0
  186.5430  176.9060  143.5880 C   0  0  2  0  0  3  0  0  0  0  0  0
  185.0990  179.0960  145.6860 O   0  0  0  0  0  0  0  0  0  0  0  0
  186.1280  178.4750  145.4730 C   0  0  0  0  0  3  0  0  0  0  0  0
  187.1930  175.7920  137.9690 N   0  0  0  0  0  0  0  0  0  0  0  0
  187.7780  174.8720  137.5820 C   0  0  0  0  0  0  0  0  0  0  0  0
  193.3800  172.2660  135.4630 C   0  0  0  0  0  2  0  0  0  0  0  0
  194.3760  173.2260  136.0930 C   0  0  0  0  0  2  0  0  0  0  0  0
  194.3600  174.5660  135.3740 C   0  0  0  0  0  2  0  0  0  0  0  0
  192.9720  176.4410  135.8760 O   0  0  0  0  0  0  0  0  0  0  0  0
  193.8610  175.6470  136.2820 C   0  0  0  0  0  0  0  0  0  0  0  0
  194.3860  175.8010  137.6010 N   0  0  0  0  0  2  0  0  0  0  0  0
  195.3000  174.8360  138.1940 C   0  0  0  0  0  2  0  0  0  0  0  0
  195.1920  172.9560  141.5600 C   0  0  2  0  0  3  0  0  0  0  0  0
  193.7230  174.9860  141.5500 C   0  0  0  0  0  2  0  0  0  0  0  0
  195.7480  173.4310  140.2150 C   0  0  1  0  0  3  0  0  0  0  0  0
  196.0320  172.3200  139.4160 O   0  0  0  0  0  1  0  0  0  0  0  0
  194.7330  174.3350  139.5090 C   0  0  1  0  0  3  0  0  0  0  0  0
  194.6760  174.1390  142.3870 C   0  0  1  0  0  3  0  0  0  0  0  0
  194.4090  175.4790  140.3590 N   0  0  0  0  0  2  0  0  0  0  0  0
  196.2010  172.2880  142.2650 O   0  0  0  0  0  0  0  0  0  0  0  0
  196.9000  173.2390  142.8530 O   0  0  0  0  0  0  0  0  0  0  0  0
  197.9240  172.5730  143.5360 C   0  0  0  0  0  2  0  0  0  0  0  0
  197.3800  171.8980  144.7840 C   0  0  0  0  0  2  0  0  0  0  0  0
  197.3820  170.3900  144.6170 C   0  0  0  0  0  2  0  0  0  0  0  0
  197.3210  169.7330  145.9790 C   0  0  0  0  0  2  0  0  0  0  0  0
  195.9310  169.1780  146.2040 C   0  0  0  0  0  1  0  0  0  0  0  0
  193.9370  173.6350  143.6150 C   0  0  0  0  0  2  0  0  0  0  0  0
  193.7560  174.6930  144.5480 O   0  0  0  0  0  0  0  0  0  0  0  0
  192.8290  175.4670  146.7290 C   0  0  0  0  0  2  0  0  0  0  0  0
  189.2890  175.2090  147.7980 F   0  0  0  0  0  0  0  0  0  0  0  0
  191.5050  174.2590  145.0470 N   0  0  0  0  0  0  0  0  0  0  0  0
  190.3110  174.2350  145.8920 C   0  0  0  0  0  2  0  0  0  0  0  0
  190.3460  175.3550  146.9220 C   0  0  2  0  0  3  0  0  0  0  0  0
  191.6570  175.2490  147.6820 C   0  0  0  0  0  2  0  0  0  0  0  0
  192.6580  174.7500  145.4120 C   0  0  0  0  0  0  0  0  0  0  0  0
  1  4  1  6  0  0  0
  1 11  1  0  0  0  0
  1  2  1  0  0  0  0
  2  7  2  0  0  0  0
  2 10  1  0  0  0  0
  3 37  1  0  0  0  0
  3  7  1  0  0  0  0
  5  8  1  0  0  0  0
  6  3  2  0  0  0  0
  7 22  1  0  0  0  0
  8 15  1  0  0  0  0
  9  4  2  0  0  0  0
  9  6  1  0  0  0  0
 10  8  2  0  0  0  0
 11  5  2  0  0  0  0
 12 19  1  0  0  0  0
 13 14  2  0  0  0  0
 13 12  1  0  0  0  0
 15 18  2  0  0  0  0
 15 17  1  0  0  0  0
 16 12  2  0  0  0  0
 17 16  1  0  0  0  0
 18 13  1  0  0  0  0
 19 20  1  0  0  0  0
 21 23  1  0  0  0  0
 22 21  3  0  0  0  0
 25 26  1  6  0  0  0
 25 24  1  0  0  0  0
 27 23  1  1  0  0  0
 27 26  1  0  0  0  0
 27 28  1  0  0  0  0
 28 24  1  0  0  0  0
 29 31  1  0  0  0  0
 31 35  1  1  0  0  0
 32 30  1  0  0  0  0
 32 29  1  0  0  0  0
 33 30  1  6  0  0  0
 33 25  1  0  0  0  0
 33 31  1  0  0  0  0
 35 34  2  0  0  0  0
 37 36  3  0  0  0  0
 38 39  1  0  0  0  0
 38 11  1  0  0  0  0
 40 39  1  0  0  0  0
 40 42  1  0  0  0  0
 41 42  2  0  0  0  0
 42 43  1  0  0  0  0
 43 44  1  0  0  0  0
 45 52  1  1  0  0  0
 45 50  1  0  0  0  0
 46 50  1  0  0  0  0
 47 48  1  6  0  0  0
 47 45  1  0  0  0  0
 49 44  1  6  0  0  0
 49 47  1  0  0  0  0
 49 51  1  0  0  0  0
 50 59  1  1  0  0  0
 51 46  1  0  0  0  0
 52 53  1  0  0  0  0
 53 54  1  0  0  0  0
 54 55  1  0  0  0  0
 56 55  1  0  0  0  0
 56 57  1  0  0  0  0
 57 58  1  0  0  0  0
 59 60  1  0  0  0  0
 60 67  1  0  0  0  0
 61 66  1  0  0  0  0
 63 67  2  0  0  0  0
 63 64  1  0  0  0  0
 64 65  1  0  0  0  0
 65 66  1  0  0  0  0
 65 62  1  1  0  0  0
 67 61  1  0  0  0  0
M  END
>  <MODEL>
9

>  <REMARK>
 VINA RESULT:      -4.7      3.046      7.691
  Name = 
  23 active torsions:
  status: ('A' for Active; 'I' for Inactive)
    1  A    between atoms: C_1  and  C_32
    2  A    between atoms: C_1  and  C_52
    3  A    between atoms: C_3  and  C_13
    4  A    between atoms: C_4  and  C_60
    5  A    between atoms: C_5  and  O_63
    6  A    between atoms: C_7  and  C_31
    7  A    between atoms: C_7  and  O_47
    8  A    between atoms: C_12  and  C_59
    9  A    between atoms: C_12  and  C_66
   10  A    between atoms: O_19  and  C_22
   11  A    between atoms: O_19  and  O_63
   12  A    between atoms: C_20  and  C_41
   13  A    between atoms: C_21  and  C_50
   14  A    between atoms: C_22  and  C_52
   15  A    between atoms: C_24  and  C_29
   16  A    between atoms: C_25  and  C_42
   17  A    between atoms: C_37  and  C_53
   18  A    between atoms: C_37  and  C_59
   19  A    between atoms: C_41  and  N_56
   20  A    between atoms: C_44  and  C_51
   21  A    between atoms: C_45  and  C_60
   22  A    between atoms: C_46  and  C_49
   23  A    between atoms: O_47  and  C_62
                            x       y       z     vdW  Elec       q    Type
                         _______ _______ _______ _____ _____    ______ ____

>  <TORSDO>
F 23

$$$$
