=
 OpenBabel11042415083D

 69 77  0  0  1  0  0  0  0  0999 V2000
  188.0790  178.0170  144.4430 C   0  0  2  0  0  3  0  0  0  0  0  0
  183.0230  178.3140  140.5990 C   0  0  0  0  0  2  0  0  0  0  0  0
  186.4390  178.0420  140.8300 S   0  0  0  0  0  0  0  0  0  0  0  0
  187.1690  178.1690  143.2630 C   0  0  0  0  0  0  0  0  0  0  0  0
  185.7820  178.3210  143.2720 C   0  0  0  0  0  0  0  0  0  0  0  0
  187.6710  178.0100  141.9850 C   0  0  0  0  0  0  0  0  0  0  0  0
  183.5640  178.6310  144.2160 C   0  0  0  0  0  3  0  0  0  0  0  0
  184.9590  178.5070  144.3990 C   0  0  0  0  0  3  0  0  0  0  0  0
  183.8610  178.3780  141.8190 C   0  0  0  0  0  0  0  0  0  0  0  0
  185.2320  178.2630  141.9900 C   0  0  0  0  0  0  0  0  0  0  0  0
  180.4550  178.5020  140.4860 N   0  0  0  0  0  2  0  0  0  0  0  0
  183.0510  178.5620  142.9120 C   0  0  0  0  0  0  0  0  0  0  0  0
  189.4490  178.1870  144.0390 O   0  0  0  0  0  0  0  0  0  0  0  0
  189.9100  177.9950  142.7220 C   0  0  0  0  0  0  0  0  0  0  0  0
  181.6700  178.5050  141.2390 C   0  0  0  0  0  0  0  0  0  0  0  0
  181.6920  178.6480  142.5310 N   0  0  0  0  0  0  0  0  0  0  0  0
  189.0700  177.9020  141.7290 N   0  0  0  0  0  0  0  0  0  0  0  0
  179.1560  178.7800  141.0880 C   0  0  2  0  0  3  0  0  0  0  0  0
  178.3170  177.5070  141.0940 C   0  0  0  0  0  1  0  0  0  0  0  0
  178.8520  181.0170  138.2130 C   0  0  0  0  0  2  0  0  0  0  0  0
  179.1460  181.2820  140.5880 C   0  0  0  0  0  2  0  0  0  0  0  0
  179.7140  181.7100  139.2480 C   0  0  0  0  0  2  0  0  0  0  0  0
  178.4460  179.7020  138.8430 C   0  0  0  0  0  2  0  0  0  0  0  0
  178.4670  179.9360  140.3470 C   0  0  0  0  0  3  0  0  0  0  0  0
  191.3750  177.9330  142.4530 C   0  0  0  0  0  2  0  0  0  0  0  0
  191.8870  176.5280  142.7120 C   0  0  0  0  0  2  0  0  0  0  0  0
  193.3370  176.4310  142.2630 C   0  0  0  0  0  2  0  0  0  0  0  0
  193.6220  175.0550  141.6730 C   0  0  0  0  0  2  0  0  0  0  0  0
  194.4880  175.1430  140.4240 C   0  0  0  0  0  2  0  0  0  0  0  0
  193.7400  174.6760  139.2680 N   0  0  0  0  0  2  0  0  0  0  0  0
  194.5430  173.6450  138.6270 C   0  0  0  0  0  2  0  0  0  0  0  0
  193.7630  171.8990  140.0580 O   0  0  0  0  0  1  0  0  0  0  0  0
  193.8510  172.2890  138.7180 C   0  0  1  0  0  3  0  0  0  0  0  0
  192.4610  172.3310  138.0760 C   0  0  2  0  0  3  0  0  0  0  0  0
  190.6460  170.9070  138.7620 O   0  0  0  0  0  1  0  0  0  0  0  0
  191.3630  172.0580  139.1090 C   0  0  2  0  0  3  0  0  0  0  0  0
  189.9180  173.6870  137.8830 C   0  0  0  0  0  2  0  0  0  0  0  0
  188.4820  173.4830  137.8580 N   0  0  0  0  0  0  0  0  0  0  0  0
  189.2610  172.8990  140.0350 N   0  0  0  0  0  2  0  0  0  0  0  0
  187.8700  174.8020  137.9380 C   0  0  0  0  0  1  0  0  0  0  0  0
  190.4250  173.2560  139.2420 C   0  0  1  0  0  3  0  0  0  0  0  0
  188.1530  172.7790  139.0920 C   0  0  0  0  0  2  0  0  0  0  0  0
  193.5350  170.7650  137.0610 O   0  0  0  0  0  1  0  0  0  0  0  0
  192.3800  171.4000  137.0350 O   0  0  0  0  0  0  0  0  0  0  0  0
  187.8790  176.6200  145.0220 C   0  0  0  0  0  2  0  0  0  0  0  0
  190.2180  173.1200  143.3970 C   0  0  1  0  0  3  0  0  0  0  0  0
  189.0650  172.9570  144.3720 C   0  0  0  0  0  2  0  0  0  0  0  0
  190.2960  175.0880  147.5680 C   0  0  0  0  0  2  0  0  0  0  0  0
  189.1620  175.9400  145.4860 C   0  0  1  0  0  3  0  0  0  0  0  0
  190.1700  173.9470  144.6830 C   0  0  1  0  0  0  0  0  0  0  0  0
  188.9760  175.1640  146.7950 C   0  0  0  0  0  2  0  0  0  0  0  0
  191.4540  174.6200  146.7890 N   0  0  0  0  0  0  0  0  0  0  0  0
  191.1600  173.5590  145.8110 C   0  0  0  0  0  2  0  0  0  0  0  0
  189.8620  175.3040  144.4190 O   0  0  0  0  0  0  0  0  0  0  0  0
  192.1480  175.7360  146.1640 C   0  0  0  0  0  2  0  0  0  0  0  0
  194.4200  175.9810  146.8040 O   0  0  0  0  0  0  0  0  0  0  0  0
  194.0080  174.4080  145.1060 N   0  0  0  0  0  2  0  0  0  0  0  0
  193.5930  175.4100  146.0440 C   0  0  0  0  0  0  0  0  0  0  0  0
  196.2990  174.5680  144.2930 C   0  0  0  0  0  3  0  0  0  0  0  0
  196.9380  172.0770  145.3830 C   0  0  0  0  0  3  0  0  0  0  0  0
  197.5850  174.0460  144.1370 C   0  0  0  0  0  3  0  0  0  0  0  0
  195.6500  172.5970  145.5320 C   0  0  0  0  0  3  0  0  0  0  0  0
  195.3230  173.8490  144.9870 C   0  0  0  0  0  0  0  0  0  0  0  0
  197.9030  172.8020  144.6840 C   0  0  0  0  0  3  0  0  0  0  0  0
  191.1220  171.8990  143.4880 C   0  0  0  0  0  2  0  0  0  0  0  0
  190.6940  170.9000  142.5230 N   0  0  0  0  0  2  0  0  0  0  0  0
  192.8360  169.7260  142.6580 O   0  0  0  0  0  1  0  0  0  0  0  0
  191.1130  168.9270  141.3660 O   0  0  0  0  0  0  0  0  0  0  0  0
  191.5410  169.8140  142.1550 C   0  0  0  0  0  0  0  0  0  0  0  0
  1 45  1  6  0  0  0
  2 15  1  0  0  0  0
  2  9  1  0  0  0  0
  3  6  1  0  0  0  0
  3 10  1  0  0  0  0
  4  5  1  0  0  0  0
  4  1  1  0  0  0  0
  5  8  1  0  0  0  0
  6  4  2  0  0  0  0
  7  8  2  0  0  0  0
  9 10  1  0  0  0  0
  9 12  2  0  0  0  0
 10  5  2  0  0  0  0
 11 18  1  0  0  0  0
 11 15  1  0  0  0  0
 12  7  1  0  0  0  0
 13  1  1  0  0  0  0
 14 13  1  0  0  0  0
 15 16  2  0  0  0  0
 16 12  1  0  0  0  0
 17  6  1  0  0  0  0
 17 14  2  0  0  0  0
 18 19  1  6  0  0  0
 20 23  1  0  0  0  0
 20 22  1  0  0  0  0
 22 21  1  0  0  0  0
 23 24  1  0  0  0  0
 24 21  1  0  0  0  0
 24 18  1  0  0  0  0
 25 26  1  0  0  0  0
 25 14  1  0  0  0  0
 27 26  1  0  0  0  0
 28 27  1  0  0  0  0
 29 28  1  0  0  0  0
 30 29  1  0  0  0  0
 31 33  1  0  0  0  0
 31 30  1  0  0  0  0
 33 32  1  1  0  0  0
 34 44  1  6  0  0  0
 34 33  1  0  0  0  0
 34 36  1  0  0  0  0
 36 35  1  6  0  0  0
 37 41  1  0  0  0  0
 38 37  1  0  0  0  0
 38 40  1  0  0  0  0
 38 42  1  0  0  0  0
 41 36  1  6  0  0  0
 41 39  1  0  0  0  0
 42 39  1  0  0  0  0
 44 43  1  0  0  0  0
 46 65  1  1  0  0  0
 46 47  1  0  0  0  0
 46 50  1  0  0  0  0
 49 45  1  6  0  0  0
 49 51  1  0  0  0  0
 50 47  1  1  0  0  0
 50 53  1  0  0  0  0
 51 48  1  0  0  0  0
 52 48  1  0  0  0  0
 53 52  1  0  0  0  0
 54 50  1  0  0  0  0
 54 49  1  0  0  0  0
 55 52  1  0  0  0  0
 57 58  1  0  0  0  0
 58 55  1  0  0  0  0
 58 56  2  0  0  0  0
 59 63  1  0  0  0  0
 60 62  1  0  0  0  0
 61 59  2  0  0  0  0
 61 64  1  0  0  0  0
 63 57  1  0  0  0  0
 63 62  2  0  0  0  0
 64 60  2  0  0  0  0
 66 65  1  0  0  0  0
 68 69  2  0  0  0  0
 69 66  1  0  0  0  0
 69 67  1  0  0  0  0
M  END
>  <MODEL>
1

>  <REMARK>
 VINA RESULT:      -6.4      0.000      0.000
  Name = 
  21 active torsions:
  status: ('A' for Active; 'I' for Inactive)
    1  A    between atoms: C_1  and  C_32
    2  A    between atoms: C_2  and  C_8
    3  A    between atoms: C_8  and  N_16
    4  A    between atoms: C_12  and  C_35
    5  A    between atoms: C_12  and  O_58
    6  A    between atoms: C_12  and  C_61
    7  A    between atoms: C_15  and  C_32
    8  A    between atoms: N_25  and  C_49
    9  A    between atoms: C_28  and  N_50
   10  A    between atoms: C_28  and  C_52
   11  A    between atoms: C_29  and  N_46
   12  A    between atoms: C_29  and  C_61
   13  A    between atoms: C_33  and  N_44
   14  A    between atoms: C_33  and  C_67
   15  A    between atoms: C_34  and  C_40
   16  A    between atoms: C_34  and  N_46
   17  A    between atoms: C_35  and  C_59
   18  A    between atoms: C_40  and  C_56
   19  A    between atoms: C_55  and  C_62
   20  A    between atoms: C_56  and  C_69
   21  A    between atoms: C_62  and  C_69
                            x       y       z     vdW  Elec       q    Type
                         _______ _______ _______ _____ _____    ______ ____

>  <TORSDO>
F 21

$$$$
=
 OpenBabel11042415083D

 69 77  0  0  1  0  0  0  0  0999 V2000
  188.6130  178.1160  144.7010 C   0  0  2  0  0  3  0  0  0  0  0  0
  183.5910  178.1460  140.8020 C   0  0  0  0  0  2  0  0  0  0  0  0
  186.9970  177.8130  141.0910 S   0  0  0  0  0  0  0  0  0  0  0  0
  187.7150  178.1690  143.5040 C   0  0  0  0  0  0  0  0  0  0  0  0
  186.3320  178.3570  143.4850 C   0  0  0  0  0  0  0  0  0  0  0  0
  188.2210  177.8670  142.2540 C   0  0  0  0  0  0  0  0  0  0  0  0
  184.1170  178.8180  144.3730 C   0  0  0  0  0  3  0  0  0  0  0  0
  185.5080  178.6780  144.5800 C   0  0  0  0  0  3  0  0  0  0  0  0
  184.4230  178.3130  142.0170 C   0  0  0  0  0  0  0  0  0  0  0  0
  185.7890  178.1810  142.2110 C   0  0  0  0  0  0  0  0  0  0  0  0
  181.0300  178.3870  140.6480 N   0  0  0  0  0  2  0  0  0  0  0  0
  183.6110  178.6290  143.0780 C   0  0  0  0  0  0  0  0  0  0  0  0
  189.9900  178.2090  144.2950 O   0  0  0  0  0  0  0  0  0  0  0  0
  190.4540  177.8710  143.0080 C   0  0  0  0  0  0  0  0  0  0  0  0
  182.2390  178.4360  141.4070 C   0  0  0  0  0  0  0  0  0  0  0  0
  182.2570  178.7100  142.6780 N   0  0  0  0  0  0  0  0  0  0  0  0
  189.6180  177.6990  142.0230 N   0  0  0  0  0  0  0  0  0  0  0  0
  179.7340  178.7580  141.2060 C   0  0  2  0  0  3  0  0  0  0  0  0
  178.9540  177.4970  141.5580 C   0  0  0  0  0  1  0  0  0  0  0  0
  178.9340  182.0610  139.8610 C   0  0  0  0  0  2  0  0  0  0  0  0
  177.6920  180.2360  140.8220 C   0  0  0  0  0  2  0  0  0  0  0  0
  177.9070  181.7350  140.9260 C   0  0  0  0  0  2  0  0  0  0  0  0
  179.8310  180.8440  139.7810 C   0  0  0  0  0  2  0  0  0  0  0  0
  178.9760  179.6660  140.2260 C   0  0  0  0  0  3  0  0  0  0  0  0
  191.9180  177.7460  142.7600 C   0  0  0  0  0  2  0  0  0  0  0  0
  192.3230  176.2830  142.8050 C   0  0  0  0  0  2  0  0  0  0  0  0
  193.3930  176.0260  141.7530 C   0  0  0  0  0  2  0  0  0  0  0  0
  194.7800  176.0700  142.3820 C   0  0  0  0  0  2  0  0  0  0  0  0
  195.8190  175.3780  141.5090 C   0  0  0  0  0  2  0  0  0  0  0  0
  195.6360  175.7640  140.1190 N   0  0  0  0  0  2  0  0  0  0  0  0
  195.1360  174.5940  139.4120 C   0  0  0  0  0  2  0  0  0  0  0  0
  196.2120  172.5750  138.7290 O   0  0  0  0  0  1  0  0  0  0  0  0
  196.2380  173.9630  138.5680 C   0  0  1  0  0  3  0  0  0  0  0  0
  196.0880  174.3380  137.0900 C   0  0  2  0  0  3  0  0  0  0  0  0
  196.2010  172.6420  135.3870 O   0  0  0  0  0  1  0  0  0  0  0  0
  195.3450  173.2470  136.3130 C   0  0  2  0  0  3  0  0  0  0  0  0
  192.8470  173.3420  136.2960 C   0  0  0  0  0  2  0  0  0  0  0  0
  192.1770  174.5040  136.8490 N   0  0  0  0  0  0  0  0  0  0  0  0
  194.1160  175.2670  135.6870 N   0  0  0  0  0  2  0  0  0  0  0  0
  191.0170  174.7600  136.0060 C   0  0  0  0  0  1  0  0  0  0  0  0
  194.1120  173.8160  135.6130 C   0  0  1  0  0  3  0  0  0  0  0  0
  193.0960  175.6230  136.6700 C   0  0  0  0  0  2  0  0  0  0  0  0
  197.4100  175.8660  136.3470 O   0  0  0  0  0  1  0  0  0  0  0  0
  197.3450  174.5610  136.5170 O   0  0  0  0  0  0  0  0  0  0  0  0
  188.3730  176.7910  145.4180 C   0  0  0  0  0  2  0  0  0  0  0  0
  190.4120  173.0430  143.9490 C   0  0  1  0  0  3  0  0  0  0  0  0
  189.3150  173.0250  144.9990 C   0  0  0  0  0  2  0  0  0  0  0  0
  190.8570  175.3200  147.9360 C   0  0  0  0  0  2  0  0  0  0  0  0
  189.6430  176.0740  145.8620 C   0  0  1  0  0  3  0  0  0  0  0  0
  190.4900  173.9690  145.1640 C   0  0  1  0  0  0  0  0  0  0  0  0
  189.4980  175.4140  147.2370 C   0  0  0  0  0  2  0  0  0  0  0  0
  191.9360  174.7250  147.1310 N   0  0  0  0  0  0  0  0  0  0  0  0
  191.5250  173.6110  146.2620 C   0  0  0  0  0  2  0  0  0  0  0  0
  190.2400  175.3170  144.8100 O   0  0  0  0  0  0  0  0  0  0  0  0
  192.6510  175.7470  146.3800 C   0  0  0  0  0  2  0  0  0  0  0  0
  195.0060  175.9060  146.6190 O   0  0  0  0  0  0  0  0  0  0  0  0
  194.2380  174.0940  145.3340 N   0  0  0  0  0  2  0  0  0  0  0  0
  194.0370  175.2810  146.1130 C   0  0  0  0  0  0  0  0  0  0  0  0
  195.5380  172.0340  145.3610 C   0  0  0  0  0  3  0  0  0  0  0  0
  197.8430  173.3920  144.5590 C   0  0  0  0  0  3  0  0  0  0  0  0
  196.7370  171.3380  145.1970 C   0  0  0  0  0  3  0  0  0  0  0  0
  196.6440  174.0880  144.7310 C   0  0  0  0  0  3  0  0  0  0  0  0
  195.4820  173.4110  145.1320 C   0  0  0  0  0  0  0  0  0  0  0  0
  197.8880  172.0180  144.7940 C   0  0  0  0  0  3  0  0  0  0  0  0
  191.2520  171.7810  144.0870 C   0  0  0  0  0  2  0  0  0  0  0  0
  192.1320  171.6530  142.9370 N   0  0  0  0  0  2  0  0  0  0  0  0
  190.3980  170.5320  141.6260 O   0  0  0  0  0  1  0  0  0  0  0  0
  192.4470  171.0320  140.7190 O   0  0  0  0  0  0  0  0  0  0  0  0
  191.6790  171.0660  141.7190 C   0  0  0  0  0  0  0  0  0  0  0  0
  1 45  1  6  0  0  0
  2 15  1  0  0  0  0
  2  9  1  0  0  0  0
  3 10  1  0  0  0  0
  3  6  1  0  0  0  0
  4  1  1  0  0  0  0
  5  4  1  0  0  0  0
  5  8  1  0  0  0  0
  6  4  2  0  0  0  0
  7  8  2  0  0  0  0
  9 10  1  0  0  0  0
  9 12  2  0  0  0  0
 10  5  2  0  0  0  0
 11 18  1  0  0  0  0
 11 15  1  0  0  0  0
 12  7  1  0  0  0  0
 13  1  1  0  0  0  0
 14 13  1  0  0  0  0
 15 16  2  0  0  0  0
 16 12  1  0  0  0  0
 17  6  1  0  0  0  0
 17 14  2  0  0  0  0
 18 19  1  6  0  0  0
 20 22  1  0  0  0  0
 21 22  1  0  0  0  0
 23 20  1  0  0  0  0
 23 24  1  0  0  0  0
 24 21  1  0  0  0  0
 24 18  1  0  0  0  0
 25 26  1  0  0  0  0
 25 14  1  0  0  0  0
 27 28  1  0  0  0  0
 27 26  1  0  0  0  0
 29 28  1  0  0  0  0
 30 29  1  0  0  0  0
 31 30  1  0  0  0  0
 33 32  1  6  0  0  0
 33 31  1  0  0  0  0
 34 44  1  6  0  0  0
 34 33  1  0  0  0  0
 36 35  1  6  0  0  0
 36 34  1  0  0  0  0
 37 38  1  0  0  0  0
 39 42  1  0  0  0  0
 40 38  1  0  0  0  0
 41 39  1  0  0  0  0
 41 37  1  0  0  0  0
 41 36  1  1  0  0  0
 42 38  1  0  0  0  0
 43 44  1  0  0  0  0
 46 65  1  1  0  0  0
 46 47  1  0  0  0  0
 46 50  1  0  0  0  0
 49 45  1  6  0  0  0
 49 51  1  0  0  0  0
 50 47  1  1  0  0  0
 50 53  1  0  0  0  0
 51 48  1  0  0  0  0
 52 48  1  0  0  0  0
 53 52  1  0  0  0  0
 54 50  1  0  0  0  0
 54 49  1  0  0  0  0
 55 52  1  0  0  0  0
 57 58  1  0  0  0  0
 58 55  1  0  0  0  0
 58 56  2  0  0  0  0
 60 62  2  0  0  0  0
 60 64  1  0  0  0  0
 61 59  1  0  0  0  0
 62 63  1  0  0  0  0
 63 57  1  0  0  0  0
 63 59  2  0  0  0  0
 64 61  2  0  0  0  0
 66 65  1  0  0  0  0
 67 69  1  0  0  0  0
 68 69  2  0  0  0  0
 69 66  1  0  0  0  0
M  END
>  <MODEL>
2

>  <REMARK>
 VINA RESULT:      -6.0      1.715      2.481
  Name = 
  21 active torsions:
  status: ('A' for Active; 'I' for Inactive)
    1  A    between atoms: C_1  and  C_32
    2  A    between atoms: C_2  and  C_8
    3  A    between atoms: C_8  and  N_16
    4  A    between atoms: C_12  and  C_35
    5  A    between atoms: C_12  and  O_58
    6  A    between atoms: C_12  and  C_61
    7  A    between atoms: C_15  and  C_32
    8  A    between atoms: N_25  and  C_49
    9  A    between atoms: C_28  and  N_50
   10  A    between atoms: C_28  and  C_52
   11  A    between atoms: C_29  and  N_46
   12  A    between atoms: C_29  and  C_61
   13  A    between atoms: C_33  and  N_44
   14  A    between atoms: C_33  and  C_67
   15  A    between atoms: C_34  and  C_40
   16  A    between atoms: C_34  and  N_46
   17  A    between atoms: C_35  and  C_59
   18  A    between atoms: C_40  and  C_56
   19  A    between atoms: C_55  and  C_62
   20  A    between atoms: C_56  and  C_69
   21  A    between atoms: C_62  and  C_69
                            x       y       z     vdW  Elec       q    Type
                         _______ _______ _______ _____ _____    ______ ____

>  <TORSDO>
F 21

$$$$
=
 OpenBabel11042415083D

 69 77  0  0  1  0  0  0  0  0999 V2000
  188.2240  175.3020  142.1010 C   0  0  2  0  0  3  0  0  0  0  0  0
  189.5010  172.3940  136.5930 C   0  0  0  0  0  2  0  0  0  0  0  0
  187.9000  174.9980  138.1590 S   0  0  0  0  0  0  0  0  0  0  0  0
  188.2150  174.8390  140.6780 C   0  0  0  0  0  0  0  0  0  0  0  0
  188.8680  173.7290  140.1390 C   0  0  0  0  0  0  0  0  0  0  0  0
  187.6310  175.6270  139.7040 C   0  0  0  0  0  0  0  0  0  0  0  0
  190.1720  171.6780  140.1300 C   0  0  0  0  0  3  0  0  0  0  0  0
  189.5580  172.7280  140.8500 C   0  0  0  0  0  3  0  0  0  0  0  0
  189.3990  172.6580  138.0470 C   0  0  0  0  0  0  0  0  0  0  0  0
  188.7870  173.6870  138.7460 C   0  0  0  0  0  0  0  0  0  0  0  0
  190.7370  170.4320  135.4700 N   0  0  0  0  0  2  0  0  0  0  0  0
  190.0710  171.6760  138.7310 C   0  0  0  0  0  0  0  0  0  0  0  0
  187.2030  176.2930  142.3080 O   0  0  0  0  0  0  0  0  0  0  0  0
  186.6540  177.0830  141.2790 C   0  0  0  0  0  0  0  0  0  0  0  0
  190.3170  171.1270  136.6460 C   0  0  0  0  0  0  0  0  0  0  0  0
  190.6290  170.7270  137.8430 N   0  0  0  0  0  0  0  0  0  0  0  0
  186.8550  176.7790  140.0270 N   0  0  0  0  0  0  0  0  0  0  0  0
  191.4440  169.1570  135.5190 C   0  0  2  0  0  3  0  0  0  0  0  0
  191.4140  168.6160  136.9430 C   0  0  0  0  0  1  0  0  0  0  0  0
  195.0090  169.7820  136.0350 C   0  0  0  0  0  2  0  0  0  0  0  0
  193.2460  170.7830  134.7350 C   0  0  0  0  0  2  0  0  0  0  0  0
  194.3470  171.1100  135.7270 C   0  0  0  0  0  2  0  0  0  0  0  0
  193.9020  168.7520  135.9490 C   0  0  0  0  0  2  0  0  0  0  0  0
  192.8740  169.3240  134.9830 C   0  0  0  0  0  3  0  0  0  0  0  0
  185.8020  178.2560  141.6220 C   0  0  0  0  0  2  0  0  0  0  0  0
  184.5750  178.2800  140.7270 C   0  0  0  0  0  2  0  0  0  0  0  0
  183.3260  178.1350  141.5840 C   0  0  0  0  0  2  0  0  0  0  0  0
  182.0930  177.9650  140.7050 C   0  0  0  0  0  2  0  0  0  0  0  0
  182.4010  177.1610  139.4480 C   0  0  0  0  0  2  0  0  0  0  0  0
  181.1750  176.9030  138.7110 N   0  0  0  0  0  2  0  0  0  0  0  0
  181.4940  175.9280  137.6780 C   0  0  0  0  0  2  0  0  0  0  0  0
  180.6350  176.2350  135.4720 O   0  0  0  0  0  1  0  0  0  0  0  0
  180.3110  175.7330  136.7360 C   0  0  1  0  0  3  0  0  0  0  0  0
  179.9100  174.2570  136.6450 C   0  0  2  0  0  3  0  0  0  0  0  0
  180.8700  173.2330  134.6910 O   0  0  0  0  0  1  0  0  0  0  0  0
  181.0470  173.4080  136.0680 C   0  0  2  0  0  3  0  0  0  0  0  0
  180.3710  172.0890  138.0810 C   0  0  0  0  0  2  0  0  0  0  0  0
  179.2690  171.1510  137.9780 N   0  0  0  0  0  0  0  0  0  0  0  0
  180.5270  171.0200  135.9560 N   0  0  0  0  0  2  0  0  0  0  0  0
  179.6180  170.0020  138.8010 C   0  0  0  0  0  1  0  0  0  0  0  0
  181.1330  172.0560  136.7750 C   0  0  1  0  0  3  0  0  0  0  0  0
  179.2520  170.7000  136.5910 C   0  0  0  0  0  2  0  0  0  0  0  0
  177.8240  174.7720  136.5140 O   0  0  0  0  0  1  0  0  0  0  0  0
  178.7610  174.1160  135.8600 O   0  0  0  0  0  0  0  0  0  0  0  0
  189.5950  175.9010  142.3990 C   0  0  0  0  0  2  0  0  0  0  0  0
  193.8040  175.5260  143.9830 C   0  0  1  0  0  3  0  0  0  0  0  0
  193.0630  174.3690  143.3350 C   0  0  0  0  0  2  0  0  0  0  0  0
  189.8170  173.9610  145.6940 C   0  0  0  0  0  2  0  0  0  0  0  0
  190.1450  175.5660  143.7810 C   0  0  1  0  0  3  0  0  0  0  0  0
  192.3900  175.1620  144.4380 C   0  0  1  0  0  0  0  0  0  0  0  0
  189.9040  174.1030  144.1720 C   0  0  0  0  0  2  0  0  0  0  0  0
  190.9220  174.5750  146.4460 N   0  0  0  0  0  0  0  0  0  0  0  0
  192.2460  174.4630  145.8140 C   0  0  0  0  0  2  0  0  0  0  0  0
  191.4400  176.1190  144.0040 O   0  0  0  0  0  0  0  0  0  0  0  0
  190.6150  175.9560  146.7890 C   0  0  0  0  0  2  0  0  0  0  0  0
  188.4860  175.3360  147.6320 O   0  0  0  0  0  0  0  0  0  0  0  0
  188.5070  177.2060  146.2060 N   0  0  0  0  0  2  0  0  0  0  0  0
  189.1420  176.1210  146.8960 C   0  0  0  0  0  0  0  0  0  0  0  0
  186.7470  178.2700  147.5110 C   0  0  0  0  0  3  0  0  0  0  0  0
  184.8580  177.7570  145.5180 C   0  0  0  0  0  3  0  0  0  0  0  0
  185.4190  178.6630  147.6890 C   0  0  0  0  0  3  0  0  0  0  0  0
  186.1860  177.3580  145.3440 C   0  0  0  0  0  3  0  0  0  0  0  0
  187.1400  177.6140  146.3420 C   0  0  0  0  0  0  0  0  0  0  0  0
  184.4760  178.4080  146.6910 C   0  0  0  0  0  3  0  0  0  0  0  0
  194.8980  174.9720  144.8850 C   0  0  0  0  0  2  0  0  0  0  0  0
  196.0950  174.7160  144.1010 N   0  0  0  0  0  2  0  0  0  0  0  0
  196.3680  177.0920  143.5850 O   0  0  0  0  0  1  0  0  0  0  0  0
  197.8990  175.5320  142.8820 O   0  0  0  0  0  0  0  0  0  0  0  0
  196.8270  175.7810  143.4980 C   0  0  0  0  0  0  0  0  0  0  0  0
  1 13  1  0  0  0  0
  1 45  1  6  0  0  0
  2 15  1  0  0  0  0
  2  9  1  0  0  0  0
  3 10  1  0  0  0  0
  3  6  1  0  0  0  0
  4  1  1  0  0  0  0
  5  4  1  0  0  0  0
  5  8  1  0  0  0  0
  6 17  1  0  0  0  0
  6  4  2  0  0  0  0
  7  8  2  0  0  0  0
  9 12  2  0  0  0  0
  9 10  1  0  0  0  0
 10  5  2  0  0  0  0
 11 18  1  0  0  0  0
 11 15  1  0  0  0  0
 12  7  1  0  0  0  0
 14 25  1  0  0  0  0
 14 13  1  0  0  0  0
 15 16  2  0  0  0  0
 16 12  1  0  0  0  0
 17 14  2  0  0  0  0
 18 19  1  1  0  0  0
 21 24  1  0  0  0  0
 21 22  1  0  0  0  0
 22 20  1  0  0  0  0
 23 20  1  0  0  0  0
 24 18  1  0  0  0  0
 24 23  1  0  0  0  0
 26 27  1  0  0  0  0
 26 25  1  0  0  0  0
 28 27  1  0  0  0  0
 29 28  1  0  0  0  0
 30 29  1  0  0  0  0
 31 30  1  0  0  0  0
 33 32  1  6  0  0  0
 33 31  1  0  0  0  0
 34 44  1  6  0  0  0
 34 33  1  0  0  0  0
 36 35  1  6  0  0  0
 36 34  1  0  0  0  0
 38 37  1  0  0  0  0
 38 40  1  0  0  0  0
 39 42  1  0  0  0  0
 39 41  1  0  0  0  0
 41 36  1  6  0  0  0
 41 37  1  0  0  0  0
 42 38  1  0  0  0  0
 44 43  1  0  0  0  0
 46 50  1  0  0  0  0
 46 65  1  1  0  0  0
 47 46  1  0  0  0  0
 48 52  1  0  0  0  0
 49 45  1  6  0  0  0
 49 54  1  0  0  0  0
 49 51  1  0  0  0  0
 50 47  1  6  0  0  0
 50 53  1  0  0  0  0
 51 48  1  0  0  0  0
 52 55  1  0  0  0  0
 53 52  1  0  0  0  0
 54 50  1  0  0  0  0
 55 58  1  0  0  0  0
 57 63  1  0  0  0  0
 57 58  1  0  0  0  0
 58 56  2  0  0  0  0
 59 61  1  0  0  0  0
 60 64  1  0  0  0  0
 62 60  2  0  0  0  0
 62 63  1  0  0  0  0
 63 59  2  0  0  0  0
 64 61  2  0  0  0  0
 66 65  1  0  0  0  0
 68 69  2  0  0  0  0
 69 67  1  0  0  0  0
 69 66  1  0  0  0  0
M  END
>  <MODEL>
3

>  <REMARK>
 VINA RESULT:      -5.8      4.615     10.424
  Name = 
  21 active torsions:
  status: ('A' for Active; 'I' for Inactive)
    1  A    between atoms: C_1  and  C_32
    2  A    between atoms: C_2  and  C_8
    3  A    between atoms: C_8  and  N_16
    4  A    between atoms: C_12  and  C_35
    5  A    between atoms: C_12  and  O_58
    6  A    between atoms: C_12  and  C_61
    7  A    between atoms: C_15  and  C_32
    8  A    between atoms: N_25  and  C_49
    9  A    between atoms: C_28  and  N_50
   10  A    between atoms: C_28  and  C_52
   11  A    between atoms: C_29  and  N_46
   12  A    between atoms: C_29  and  C_61
   13  A    between atoms: C_33  and  N_44
   14  A    between atoms: C_33  and  C_67
   15  A    between atoms: C_34  and  C_40
   16  A    between atoms: C_34  and  N_46
   17  A    between atoms: C_35  and  C_59
   18  A    between atoms: C_40  and  C_56
   19  A    between atoms: C_55  and  C_62
   20  A    between atoms: C_56  and  C_69
   21  A    between atoms: C_62  and  C_69
                            x       y       z     vdW  Elec       q    Type
                         _______ _______ _______ _____ _____    ______ ____

>  <TORSDO>
F 21

$$$$
=
 OpenBabel11042415083D

 69 77  0  0  1  0  0  0  0  0999 V2000
  188.3580  176.0040  143.5550 C   0  0  2  0  0  3  0  0  0  0  0  0
  182.7050  178.8990  143.2480 C   0  0  0  0  0  2  0  0  0  0  0  0
  185.2100  177.7030  145.2710 S   0  0  0  0  0  0  0  0  0  0  0  0
  187.0140  176.5840  143.8700 C   0  0  0  0  0  0  0  0  0  0  0  0
  186.0350  177.0020  142.9690 C   0  0  0  0  0  0  0  0  0  0  0  0
  186.6930  176.8980  145.1770 C   0  0  0  0  0  0  0  0  0  0  0  0
  184.9660  177.3400  140.8120 C   0  0  0  0  0  3  0  0  0  0  0  0
  186.0470  176.8370  141.5700 C   0  0  0  0  0  3  0  0  0  0  0  0
  183.9190  178.1490  142.8490 C   0  0  0  0  0  0  0  0  0  0  0  0
  184.9720  177.6510  143.6010 C   0  0  0  0  0  0  0  0  0  0  0  0
  180.8660  179.7940  141.6810 N   0  0  0  0  0  2  0  0  0  0  0  0
  183.9200  177.9900  141.4850 C   0  0  0  0  0  0  0  0  0  0  0  0
  188.9420  175.4290  144.7370 O   0  0  0  0  0  0  0  0  0  0  0  0
  188.5870  175.8010  146.0490 C   0  0  0  0  0  0  0  0  0  0  0  0
  182.0900  179.0840  141.8830 C   0  0  0  0  0  0  0  0  0  0  0  0
  182.7700  178.5700  140.9020 N   0  0  0  0  0  0  0  0  0  0  0  0
  187.5160  176.5090  146.2740 N   0  0  0  0  0  0  0  0  0  0  0  0
  180.2200  179.8930  140.3770 C   0  0  2  0  0  3  0  0  0  0  0  0
  179.8240  181.3420  140.1170 C   0  0  0  0  0  1  0  0  0  0  0  0
  178.2840  177.3060  138.6680 C   0  0  0  0  0  2  0  0  0  0  0  0
  177.8460  179.5140  139.5240 C   0  0  0  0  0  2  0  0  0  0  0  0
  177.6980  178.6500  138.2850 C   0  0  0  0  0  2  0  0  0  0  0  0
  179.4010  177.6170  139.6410 C   0  0  0  0  0  2  0  0  0  0  0  0
  179.0220  178.9340  140.3050 C   0  0  0  0  0  3  0  0  0  0  0  0
  189.4240  175.3480  147.1960 C   0  0  0  0  0  2  0  0  0  0  0  0
  190.7010  176.1680  147.2560 C   0  0  0  0  0  2  0  0  0  0  0  0
  191.8300  175.3010  147.7940 C   0  0  0  0  0  2  0  0  0  0  0  0
  192.7760  174.9000  146.6680 C   0  0  0  0  0  2  0  0  0  0  0  0
  194.0240  175.7730  146.6410 C   0  0  0  0  0  2  0  0  0  0  0  0
  195.2100  174.9390  146.5350 N   0  0  0  0  0  2  0  0  0  0  0  0
  195.7420  175.1210  145.1920 C   0  0  0  0  0  2  0  0  0  0  0  0
  197.6250  173.9380  146.0620 O   0  0  0  0  0  1  0  0  0  0  0  0
  196.8510  174.1130  144.9100 C   0  0  1  0  0  3  0  0  0  0  0  0
  196.2770  172.7730  144.4380 C   0  0  2  0  0  3  0  0  0  0  0  0
  197.3500  170.8450  143.4780 O   0  0  0  0  0  1  0  0  0  0  0  0
  197.2870  171.6380  144.6290 C   0  0  2  0  0  3  0  0  0  0  0  0
  195.4370  170.8020  146.0880 C   0  0  0  0  0  2  0  0  0  0  0  0
  194.9430  169.4500  145.9030 N   0  0  0  0  0  0  0  0  0  0  0  0
  197.3120  169.4030  145.6250 N   0  0  0  0  0  2  0  0  0  0  0  0
  194.6350  168.9320  147.2280 C   0  0  0  0  0  1  0  0  0  0  0  0
  196.9310  170.7880  145.8480 C   0  0  1  0  0  3  0  0  0  0  0  0
  196.0670  168.6770  145.3870 C   0  0  0  0  0  2  0  0  0  0  0  0
  196.8100  173.6290  142.5350 O   0  0  0  0  0  1  0  0  0  0  0  0
  195.9000  172.8560  143.0930 O   0  0  0  0  0  0  0  0  0  0  0  0
  189.2490  177.1260  143.0310 C   0  0  0  0  0  2  0  0  0  0  0  0
  191.3030  173.1400  142.5280 C   0  0  1  0  0  3  0  0  0  0  0  0
  190.9910  173.7380  143.8890 C   0  0  0  0  0  2  0  0  0  0  0  0
  193.0000  177.2350  143.8010 C   0  0  0  0  0  2  0  0  0  0  0  0
  190.7150  176.7420  142.8630 C   0  0  1  0  0  3  0  0  0  0  0  0
  191.7000  174.5820  142.8470 C   0  0  1  0  0  0  0  0  0  0  0  0
  191.5320  176.9620  144.1410 C   0  0  0  0  0  2  0  0  0  0  0  0
  193.6240  176.2640  142.8880 N   0  0  0  0  0  0  0  0  0  0  0  0
  193.2050  174.8660  143.0830 C   0  0  0  0  0  2  0  0  0  0  0  0
  190.8810  175.5120  142.1600 O   0  0  0  0  0  0  0  0  0  0  0  0
  193.4650  176.6750  141.5010 C   0  0  0  0  0  2  0  0  0  0  0  0
  195.7790  176.4040  141.0530 O   0  0  0  0  0  0  0  0  0  0  0  0
  194.3230  175.3010  139.5720 N   0  0  0  0  0  2  0  0  0  0  0  0
  194.5980  176.1450  140.6990 C   0  0  0  0  0  0  0  0  0  0  0  0
  195.5650  173.2450  139.1640 C   0  0  0  0  0  3  0  0  0  0  0  0
  196.9120  174.4010  137.0080 C   0  0  0  0  0  3  0  0  0  0  0  0
  196.5140  172.5060  138.4550 C   0  0  0  0  0  3  0  0  0  0  0  0
  195.9680  175.1430  137.7220 C   0  0  0  0  0  3  0  0  0  0  0  0
  195.2870  174.5670  138.8060 C   0  0  0  0  0  0  0  0  0  0  0  0
  197.1850  173.0840  137.3760 C   0  0  0  0  0  3  0  0  0  0  0  0
  192.4460  172.1440  142.6730 C   0  0  0  0  0  2  0  0  0  0  0  0
  192.3140  171.1000  141.6710 N   0  0  0  0  0  2  0  0  0  0  0  0
  194.2230  169.8690  142.5790 O   0  0  0  0  0  1  0  0  0  0  0  0
  192.9940  169.0440  140.8240 O   0  0  0  0  0  0  0  0  0  0  0  0
  193.1790  169.9650  141.6650 C   0  0  0  0  0  0  0  0  0  0  0  0
  1 45  1  1  0  0  0
  1  4  1  0  0  0  0
  1 13  1  0  0  0  0
  4  6  2  0  0  0  0
  5 10  1  0  0  0  0
  5  4  1  0  0  0  0
  6  3  1  0  0  0  0
  6 17  1  0  0  0  0
  7 12  2  0  0  0  0
  7  8  1  0  0  0  0
  8  5  2  0  0  0  0
  9  2  1  0  0  0  0
  9 10  2  0  0  0  0
 10  3  1  0  0  0  0
 11 15  1  0  0  0  0
 12  9  1  0  0  0  0
 13 14  1  0  0  0  0
 14 17  2  0  0  0  0
 14 25  1  0  0  0  0
 15  2  1  0  0  0  0
 16 12  1  0  0  0  0
 16 15  2  0  0  0  0
 18 19  1  1  0  0  0
 18 11  1  0  0  0  0
 20 23  1  0  0  0  0
 21 24  1  0  0  0  0
 22 20  1  0  0  0  0
 22 21  1  0  0  0  0
 23 24  1  0  0  0  0
 24 18  1  0  0  0  0
 25 26  1  0  0  0  0
 26 27  1  0  0  0  0
 28 27  1  0  0  0  0
 29 28  1  0  0  0  0
 30 29  1  0  0  0  0
 31 30  1  0  0  0  0
 33 31  1  0  0  0  0
 33 32  1  1  0  0  0
 34 44  1  6  0  0  0
 34 36  1  0  0  0  0
 34 33  1  0  0  0  0
 36 35  1  6  0  0  0
 38 37  1  0  0  0  0
 38 40  1  0  0  0  0
 39 41  1  0  0  0  0
 41 36  1  6  0  0  0
 41 37  1  0  0  0  0
 42 39  1  0  0  0  0
 42 38  1  0  0  0  0
 43 44  1  0  0  0  0
 46 65  1  1  0  0  0
 46 50  1  0  0  0  0
 46 47  1  0  0  0  0
 48 51  1  0  0  0  0
 49 45  1  1  0  0  0
 49 51  1  0  0  0  0
 50 53  1  1  0  0  0
 50 47  1  0  0  0  0
 52 53  1  0  0  0  0
 52 48  1  0  0  0  0
 54 50  1  0  0  0  0
 54 49  1  0  0  0  0
 55 52  1  0  0  0  0
 57 58  1  0  0  0  0
 58 56  2  0  0  0  0
 58 55  1  0  0  0  0
 60 64  2  0  0  0  0
 60 62  1  0  0  0  0
 61 59  2  0  0  0  0
 62 63  2  0  0  0  0
 63 59  1  0  0  0  0
 63 57  1  0  0  0  0
 64 61  1  0  0  0  0
 66 65  1  0  0  0  0
 68 69  2  0  0  0  0
 69 66  1  0  0  0  0
 69 67  1  0  0  0  0
M  END
>  <MODEL>
4

>  <REMARK>
 VINA RESULT:      -5.7      2.389      5.545
  Name = 
  21 active torsions:
  status: ('A' for Active; 'I' for Inactive)
    1  A    between atoms: C_1  and  C_32
    2  A    between atoms: C_2  and  C_8
    3  A    between atoms: C_8  and  N_16
    4  A    between atoms: C_12  and  C_35
    5  A    between atoms: C_12  and  O_58
    6  A    between atoms: C_12  and  C_61
    7  A    between atoms: C_15  and  C_32
    8  A    between atoms: N_25  and  C_49
    9  A    between atoms: C_28  and  N_50
   10  A    between atoms: C_28  and  C_52
   11  A    between atoms: C_29  and  N_46
   12  A    between atoms: C_29  and  C_61
   13  A    between atoms: C_33  and  N_44
   14  A    between atoms: C_33  and  C_67
   15  A    between atoms: C_34  and  C_40
   16  A    between atoms: C_34  and  N_46
   17  A    between atoms: C_35  and  C_59
   18  A    between atoms: C_40  and  C_56
   19  A    between atoms: C_55  and  C_62
   20  A    between atoms: C_56  and  C_69
   21  A    between atoms: C_62  and  C_69
                            x       y       z     vdW  Elec       q    Type
                         _______ _______ _______ _____ _____    ______ ____

>  <TORSDO>
F 21

$$$$
=
 OpenBabel11042415083D

 69 78  0  0  1  0  0  0  0  0999 V2000
  192.1090  173.6800  141.2050 C   0  0  2  0  0  3  0  0  0  0  0  0
  186.2780  175.6910  142.7500 C   0  0  0  0  0  2  0  0  0  0  0  0
  188.1580  173.3290  141.1110 S   0  0  0  0  0  0  0  0  0  0  0  0
  190.6300  173.9060  141.2720 C   0  0  0  0  0  0  0  0  0  0  0  0
  189.9550  174.9320  141.9330 C   0  0  0  0  0  0  0  0  0  0  0  0
  189.7680  172.9530  140.7630 C   0  0  0  0  0  0  0  0  0  0  0  0
  189.6830  176.9920  143.1940 C   0  0  0  0  0  3  0  0  0  0  0  0
  190.5290  176.0550  142.5590 C   0  0  0  0  0  3  0  0  0  0  0  0
  187.7490  175.6640  142.5660 C   0  0  0  0  0  0  0  0  0  0  0  0
  188.5710  174.7440  141.9350 C   0  0  0  0  0  0  0  0  0  0  0  0
  184.9200  177.4800  144.0120 N   0  0  0  0  0  2  0  0  0  0  0  0
  188.2980  176.7640  143.1770 C   0  0  0  0  0  0  0  0  0  0  0  0
  192.4180  172.7060  140.1930 O   0  0  0  0  0  0  0  0  0  0  0  0
  191.5030  171.7440  139.7220 C   0  0  0  0  0  0  0  0  0  0  0  0
  186.1680  176.9740  143.5360 C   0  0  0  0  0  0  0  0  0  0  0  0
  187.3000  177.5720  143.7670 N   0  0  0  0  0  0  0  0  0  0  0  0
  190.2320  171.8460  139.9930 N   0  0  0  0  0  0  0  0  0  0  0  0
  184.7990  178.7670  144.6890 C   0  0  2  0  0  3  0  0  0  0  0  0
  185.8960  179.7040  144.1960 C   0  0  0  0  0  1  0  0  0  0  0  0
  186.6270  178.2770  147.8160 C   0  0  0  0  0  2  0  0  0  0  0  0
  184.9040  177.0990  146.6160 C   0  0  0  0  0  2  0  0  0  0  0  0
  186.2550  176.9100  147.2800 C   0  0  0  0  0  2  0  0  0  0  0  0
  186.0330  179.2680  146.8380 C   0  0  0  0  0  2  0  0  0  0  0  0
  184.8340  178.5690  146.2120 C   0  0  0  0  0  3  0  0  0  0  0  0
  191.9860  170.6170  138.8750 C   0  0  0  0  0  2  0  0  0  0  0  0
  193.2600  170.0390  139.4650 C   0  0  0  0  0  2  0  0  0  0  0  0
  194.4440  170.4450  138.6000 C   0  0  0  0  0  2  0  0  0  0  0  0
  193.9620  170.9960  137.2630 C   0  0  0  0  0  2  0  0  0  0  0  0
  193.7580  169.8900  136.2360 C   0  0  0  0  0  2  0  0  0  0  0  0
  192.9290  170.3740  135.1440 N   0  0  0  0  0  2  0  0  0  0  0  0
  192.1430  171.4840  135.6630 C   0  0  0  0  0  2  0  0  0  0  0  0
  189.7830  171.1760  135.4650 O   0  0  0  0  0  1  0  0  0  0  0  0
  190.8990  171.7080  134.8110 C   0  0  1  0  0  3  0  0  0  0  0  0
  190.6900  173.1960  134.5130 C   0  0  2  0  0  3  0  0  0  0  0  0
  190.8180  174.5850  136.4730 O   0  0  0  0  0  0  0  0  0  0  0  0
  191.5700  174.0710  135.4120 C   0  0  2  0  0  3  0  0  0  0  0  0
  191.6730  176.5430  135.0560 C   0  0  0  0  0  2  0  0  0  0  0  0
  192.7680  177.2980  135.6340 N   0  0  0  0  0  0  0  0  0  0  0  0
  193.6500  175.2270  134.8460 N   0  0  0  0  0  2  0  0  0  0  0  0
  193.1180  178.3330  134.6710 C   0  0  0  0  0  1  0  0  0  0  0  0
  192.2160  175.2020  134.6130 C   0  0  1  0  0  3  0  0  0  0  0  0
  193.8970  176.3780  135.7100 C   0  0  0  0  0  2  0  0  0  0  0  0
  189.2570  173.9620  135.9260 O   0  0  0  0  0  0  0  0  0  0  0  0
  189.3440  173.5400  134.6810 O   0  0  0  0  0  0  0  0  0  0  0  0
  192.5770  173.1780  142.5670 C   0  0  0  0  0  2  0  0  0  0  0  0
  196.2070  174.7390  140.3890 C   0  0  1  0  0  3  0  0  0  0  0  0
  196.0530  173.2820  140.7920 C   0  0  0  0  0  2  0  0  0  0  0  0
  195.6710  173.5070  144.8010 C   0  0  0  0  0  2  0  0  0  0  0  0
  193.8770  173.8050  143.0590 C   0  0  1  0  0  3  0  0  0  0  0  0
  195.8230  174.3700  141.8230 C   0  0  1  0  0  0  0  0  0  0  0  0
  194.7830  172.7970  143.7760 C   0  0  0  0  0  2  0  0  0  0  0  0
  196.4100  174.6730  144.2920 N   0  0  0  0  0  0  0  0  0  0  0  0
  196.9100  174.5420  142.9140 C   0  0  0  0  0  2  0  0  0  0  0  0
  194.4660  174.6730  142.0930 O   0  0  0  0  0  0  0  0  0  0  0  0
  195.6360  175.8950  144.4590 C   0  0  0  0  0  2  0  0  0  0  0  0
  194.8530  175.4130  146.6460 O   0  0  0  0  0  0  0  0  0  0  0  0
  193.1860  175.7740  145.0290 N   0  0  0  0  0  2  0  0  0  0  0  0
  194.5520  175.6590  145.4480 C   0  0  0  0  0  0  0  0  0  0  0  0
  191.8410  176.8120  146.7750 C   0  0  0  0  0  3  0  0  0  0  0  0
  190.0000  174.7130  146.7070 C   0  0  0  0  0  3  0  0  0  0  0  0
  190.7410  176.8190  147.6360 C   0  0  0  0  0  3  0  0  0  0  0  0
  191.1050  174.7040  145.8510 C   0  0  0  0  0  3  0  0  0  0  0  0
  192.0320  175.7560  145.8800 C   0  0  0  0  0  0  0  0  0  0  0  0
  189.8210  175.7700  147.5990 C   0  0  0  0  0  3  0  0  0  0  0  0
  197.6870  175.0520  140.2140 C   0  0  0  0  0  2  0  0  0  0  0  0
  197.8940  175.7480  138.9550 N   0  0  0  0  0  2  0  0  0  0  0  0
  197.6260  173.6840  137.6710 O   0  0  0  0  0  1  0  0  0  0  0  0
  197.9390  175.7070  136.6310 O   0  0  0  0  0  0  0  0  0  0  0  0
  197.8230  175.0600  137.7080 C   0  0  0  0  0  0  0  0  0  0  0  0
  1  4  1  0  0  0  0
  1 45  1  1  0  0  0
  2 15  1  0  0  0  0
  3 10  1  0  0  0  0
  4  5  1  0  0  0  0
  5 10  2  0  0  0  0
  5  8  1  0  0  0  0
  6  3  1  0  0  0  0
  6  4  2  0  0  0  0
  8  7  2  0  0  0  0
  9  2  1  0  0  0  0
  9 12  2  0  0  0  0
 10  9  1  0  0  0  0
 11 18  1  0  0  0  0
 12  7  1  0  0  0  0
 12 16  1  0  0  0  0
 13  1  1  0  0  0  0
 14 17  2  0  0  0  0
 14 13  1  0  0  0  0
 15 16  2  0  0  0  0
 15 11  1  0  0  0  0
 17  6  1  0  0  0  0
 18 19  1  6  0  0  0
 18 24  1  0  0  0  0
 21 22  1  0  0  0  0
 22 20  1  0  0  0  0
 23 20  1  0  0  0  0
 24 21  1  0  0  0  0
 24 23  1  0  0  0  0
 25 26  1  0  0  0  0
 25 14  1  0  0  0  0
 27 26  1  0  0  0  0
 28 27  1  0  0  0  0
 29 28  1  0  0  0  0
 30 31  1  0  0  0  0
 30 29  1  0  0  0  0
 33 32  1  1  0  0  0
 33 31  1  0  0  0  0
 34 44  1  0  0  0  0
 34 33  1  1  0  0  0
 34 36  1  0  0  0  0
 36 35  1  1  0  0  0
 37 38  1  0  0  0  0
 38 42  1  0  0  0  0
 39 42  1  0  0  0  0
 40 38  1  0  0  0  0
 41 39  1  0  0  0  0
 41 37  1  1  0  0  0
 41 36  1  0  0  0  0
 43 35  1  0  0  0  0
 44 43  1  0  0  0  0
 46 65  1  1  0  0  0
 46 47  1  0  0  0  0
 46 50  1  0  0  0  0
 49 45  1  6  0  0  0
 49 51  1  0  0  0  0
 50 47  1  6  0  0  0
 50 54  1  0  0  0  0
 50 53  1  0  0  0  0
 51 48  1  0  0  0  0
 52 55  1  0  0  0  0
 52 48  1  0  0  0  0
 53 52  1  0  0  0  0
 54 49  1  0  0  0  0
 55 58  1  0  0  0  0
 57 58  1  0  0  0  0
 57 63  1  0  0  0  0
 58 56  2  0  0  0  0
 59 61  1  0  0  0  0
 60 64  1  0  0  0  0
 62 63  1  0  0  0  0
 62 60  2  0  0  0  0
 63 59  2  0  0  0  0
 64 61  2  0  0  0  0
 66 65  1  0  0  0  0
 67 69  1  0  0  0  0
 68 69  2  0  0  0  0
 69 66  1  0  0  0  0
M  END
>  <MODEL>
5

>  <REMARK>
 VINA RESULT:      -5.3      3.625      6.728
  Name = 
  21 active torsions:
  status: ('A' for Active; 'I' for Inactive)
    1  A    between atoms: C_1  and  C_32
    2  A    between atoms: C_2  and  C_8
    3  A    between atoms: C_8  and  N_16
    4  A    between atoms: C_12  and  C_35
    5  A    between atoms: C_12  and  O_58
    6  A    between atoms: C_12  and  C_61
    7  A    between atoms: C_15  and  C_32
    8  A    between atoms: N_25  and  C_49
    9  A    between atoms: C_28  and  N_50
   10  A    between atoms: C_28  and  C_52
   11  A    between atoms: C_29  and  N_46
   12  A    between atoms: C_29  and  C_61
   13  A    between atoms: C_33  and  N_44
   14  A    between atoms: C_33  and  C_67
   15  A    between atoms: C_34  and  C_40
   16  A    between atoms: C_34  and  N_46
   17  A    between atoms: C_35  and  C_59
   18  A    between atoms: C_40  and  C_56
   19  A    between atoms: C_55  and  C_62
   20  A    between atoms: C_56  and  C_69
   21  A    between atoms: C_62  and  C_69
                            x       y       z     vdW  Elec       q    Type
                         _______ _______ _______ _____ _____    ______ ____

>  <TORSDO>
F 21

$$$$
=
 OpenBabel11042415083D

 69 77  0  0  1  0  0  0  0  0999 V2000
  191.7780  174.2380  142.8250 C   0  0  2  0  0  3  0  0  0  0  0  0
  187.0340  178.4140  142.1290 C   0  0  0  0  0  2  0  0  0  0  0  0
  190.3790  177.9500  142.7570 S   0  0  0  0  0  0  0  0  0  0  0  0
  190.9220  175.4670  142.8400 C   0  0  0  0  0  0  0  0  0  0  0  0
  189.5480  175.5500  142.6160 C   0  0  0  0  0  0  0  0  0  0  0  0
  191.5130  176.7120  142.9440 C   0  0  0  0  0  0  0  0  0  0  0  0
  187.2840  174.7530  142.2320 C   0  0  0  0  0  3  0  0  0  0  0  0
  188.6490  174.4760  142.4670 C   0  0  0  0  0  3  0  0  0  0  0  0
  187.7600  177.1330  142.2970 C   0  0  0  0  0  0  0  0  0  0  0  0
  189.1000  176.8700  142.5360 C   0  0  0  0  0  0  0  0  0  0  0  0
  184.5210  178.7020  141.6360 N   0  0  0  0  0  2  0  0  0  0  0  0
  186.8760  176.0930  142.1540 C   0  0  0  0  0  0  0  0  0  0  0  0
  193.0690  174.5240  143.3920 O   0  0  0  0  0  0  0  0  0  0  0  0
  193.6310  175.8140  143.4560 C   0  0  0  0  0  0  0  0  0  0  0  0
  185.6490  177.8630  141.8900 C   0  0  0  0  0  0  0  0  0  0  0  0
  185.5660  176.5660  141.9100 N   0  0  0  0  0  0  0  0  0  0  0  0
  192.8990  176.8710  143.2380 N   0  0  0  0  0  0  0  0  0  0  0  0
  183.1660  178.1790  141.4990 C   0  0  2  0  0  3  0  0  0  0  0  0
  183.0020  177.5540  140.1180 C   0  0  0  0  0  1  0  0  0  0  0  0
  179.9220  179.3130  142.7440 C   0  0  0  0  0  2  0  0  0  0  0  0
  181.1080  179.4250  140.6510 C   0  0  0  0  0  2  0  0  0  0  0  0
  179.7760  179.0320  141.2620 C   0  0  0  0  0  2  0  0  0  0  0  0
  181.3770  179.0450  143.0620 C   0  0  0  0  0  2  0  0  0  0  0  0
  182.1400  179.2900  141.7680 C   0  0  0  0  0  3  0  0  0  0  0  0
  195.0690  175.9770  143.8130 C   0  0  0  0  0  2  0  0  0  0  0  0
  195.2400  177.1810  144.7220 C   0  0  0  0  0  2  0  0  0  0  0  0
  194.3140  177.0400  145.9220 C   0  0  0  0  0  2  0  0  0  0  0  0
  194.4040  175.6330  146.5020 C   0  0  0  0  0  2  0  0  0  0  0  0
  193.0320  175.0830  146.8680 C   0  0  0  0  0  2  0  0  0  0  0  0
  192.0000  176.0350  146.4930 N   0  0  0  0  0  2  0  0  0  0  0  0
  191.1360  176.2070  147.6530 C   0  0  0  0  0  2  0  0  0  0  0  0
  190.1660  177.8630  146.2320 O   0  0  0  0  0  1  0  0  0  0  0  0
  189.8760  176.9800  147.2760 C   0  0  1  0  0  3  0  0  0  0  0  0
  188.7410  176.0300  146.8800 C   0  0  2  0  0  3  0  0  0  0  0  0
  186.7560  175.6240  148.1780 O   0  0  0  0  0  1  0  0  0  0  0  0
  187.3830  176.5620  147.3500 C   0  0  2  0  0  3  0  0  0  0  0  0
  185.1020  177.2890  146.6310 C   0  0  0  0  0  2  0  0  0  0  0  0
  184.8780  178.6800  146.2840 N   0  0  0  0  0  0  0  0  0  0  0  0
  187.0250  178.0610  145.4510 N   0  0  0  0  0  2  0  0  0  0  0  0
  183.9460  178.6880  145.1660 C   0  0  0  0  0  1  0  0  0  0  0  0
  186.4900  176.9120  146.1610 C   0  0  1  0  0  3  0  0  0  0  0  0
  186.1530  179.1830  145.7880 C   0  0  0  0  0  2  0  0  0  0  0  0
  189.3240  174.0180  146.3820 O   0  0  0  0  0  1  0  0  0  0  0  0
  188.9670  174.7570  147.4140 O   0  0  0  0  0  0  0  0  0  0  0  0
  191.9370  173.7870  141.3760 C   0  0  0  0  0  2  0  0  0  0  0  0
  191.0530  171.2470  137.7530 C   0  0  1  0  0  3  0  0  0  0  0  0
  189.9650  171.7790  138.6690 C   0  0  0  0  0  2  0  0  0  0  0  0
  190.9540  170.1870  142.2410 C   0  0  0  0  0  2  0  0  0  0  0  0
  191.8690  172.2770  141.1740 C   0  0  1  0  0  3  0  0  0  0  0  0
  191.1570  171.0570  139.2670 C   0  0  1  0  0  0  0  0  0  0  0  0
  190.6600  171.6440  141.8710 C   0  0  0  0  0  2  0  0  0  0  0  0
  191.4800  169.3550  141.1470 N   0  0  0  0  0  0  0  0  0  0  0  0
  190.9040  169.6310  139.8210 C   0  0  0  0  0  2  0  0  0  0  0  0
  192.1520  171.8920  139.8310 O   0  0  0  0  0  0  0  0  0  0  0  0
  192.9350  169.4000  141.1110 C   0  0  0  0  0  2  0  0  0  0  0  0
  192.8280  168.6930  143.3730 O   0  0  0  0  0  0  0  0  0  0  0  0
  194.7150  169.9710  142.7980 N   0  0  0  0  0  2  0  0  0  0  0  0
  193.4630  169.3400  142.4990 C   0  0  0  0  0  0  0  0  0  0  0  0
  196.0120  168.6270  144.3620 C   0  0  0  0  0  3  0  0  0  0  0  0
  196.3140  170.7980  146.0930 C   0  0  0  0  0  3  0  0  0  0  0  0
  196.7150  168.4740  145.5590 C   0  0  0  0  0  3  0  0  0  0  0  0
  195.6040  170.9480  144.8980 C   0  0  0  0  0  3  0  0  0  0  0  0
  195.4500  169.8610  144.0240 C   0  0  0  0  0  0  0  0  0  0  0  0
  196.8670  169.5610  146.4220 C   0  0  0  0  0  3  0  0  0  0  0  0
  190.5280  170.0220  137.0170 C   0  0  0  0  0  2  0  0  0  0  0  0
  191.3510  169.7630  135.8490 N   0  0  0  0  0  2  0  0  0  0  0  0
  193.0980  168.7170  137.2040 O   0  0  0  0  0  1  0  0  0  0  0  0
  193.2590  168.8150  134.9160 O   0  0  0  0  0  0  0  0  0  0  0  0
  192.6010  169.0840  135.9580 C   0  0  0  0  0  0  0  0  0  0  0  0
  1 45  1  6  0  0  0
  1  4  1  0  0  0  0
  1 13  1  0  0  0  0
  2  9  1  0  0  0  0
  3  6  1  0  0  0  0
  4  6  2  0  0  0  0
  5  4  1  0  0  0  0
  6 17  1  0  0  0  0
  7  8  1  0  0  0  0
  8  5  2  0  0  0  0
  9 10  2  0  0  0  0
 10  5  1  0  0  0  0
 10  3  1  0  0  0  0
 11 15  1  0  0  0  0
 12  7  2  0  0  0  0
 12  9  1  0  0  0  0
 13 14  1  0  0  0  0
 14 25  1  0  0  0  0
 15 16  2  0  0  0  0
 15  2  1  0  0  0  0
 16 12  1  0  0  0  0
 17 14  2  0  0  0  0
 18 19  1  6  0  0  0
 18 11  1  0  0  0  0
 18 24  1  0  0  0  0
 20 23  1  0  0  0  0
 21 22  1  0  0  0  0
 21 24  1  0  0  0  0
 22 20  1  0  0  0  0
 24 23  1  0  0  0  0
 25 26  1  0  0  0  0
 26 27  1  0  0  0  0
 27 28  1  0  0  0  0
 28 29  1  0  0  0  0
 30 29  1  0  0  0  0
 30 31  1  0  0  0  0
 33 32  1  6  0  0  0
 33 31  1  0  0  0  0
 34 33  1  0  0  0  0
 34 36  1  0  0  0  0
 34 44  1  1  0  0  0
 36 35  1  6  0  0  0
 38 37  1  0  0  0  0
 39 42  1  0  0  0  0
 39 41  1  0  0  0  0
 40 38  1  0  0  0  0
 41 37  1  0  0  0  0
 41 36  1  1  0  0  0
 42 38  1  0  0  0  0
 43 44  1  0  0  0  0
 46 65  1  6  0  0  0
 46 47  1  0  0  0  0
 46 50  1  0  0  0  0
 49 45  1  6  0  0  0
 49 51  1  0  0  0  0
 50 47  1  1  0  0  0
 50 53  1  0  0  0  0
 50 54  1  0  0  0  0
 51 48  1  0  0  0  0
 52 48  1  0  0  0  0
 53 52  1  0  0  0  0
 54 49  1  0  0  0  0
 55 52  1  0  0  0  0
 55 58  1  0  0  0  0
 57 63  1  0  0  0  0
 58 57  1  0  0  0  0
 58 56  2  0  0  0  0
 59 61  1  0  0  0  0
 60 64  1  0  0  0  0
 61 64  2  0  0  0  0
 62 60  2  0  0  0  0
 63 59  2  0  0  0  0
 63 62  1  0  0  0  0
 66 69  1  0  0  0  0
 66 65  1  0  0  0  0
 68 69  2  0  0  0  0
 69 67  1  0  0  0  0
M  END
>  <MODEL>
6

>  <REMARK>
 VINA RESULT:      -5.2      2.458      6.631
  Name = 
  21 active torsions:
  status: ('A' for Active; 'I' for Inactive)
    1  A    between atoms: C_1  and  C_32
    2  A    between atoms: C_2  and  C_8
    3  A    between atoms: C_8  and  N_16
    4  A    between atoms: C_12  and  C_35
    5  A    between atoms: C_12  and  O_58
    6  A    between atoms: C_12  and  C_61
    7  A    between atoms: C_15  and  C_32
    8  A    between atoms: N_25  and  C_49
    9  A    between atoms: C_28  and  N_50
   10  A    between atoms: C_28  and  C_52
   11  A    between atoms: C_29  and  N_46
   12  A    between atoms: C_29  and  C_61
   13  A    between atoms: C_33  and  N_44
   14  A    between atoms: C_33  and  C_67
   15  A    between atoms: C_34  and  C_40
   16  A    between atoms: C_34  and  N_46
   17  A    between atoms: C_35  and  C_59
   18  A    between atoms: C_40  and  C_56
   19  A    between atoms: C_55  and  C_62
   20  A    between atoms: C_56  and  C_69
   21  A    between atoms: C_62  and  C_69
                            x       y       z     vdW  Elec       q    Type
                         _______ _______ _______ _____ _____    ______ ____

>  <TORSDO>
F 21

$$$$
=
 OpenBabel11042415083D

 69 77  0  0  1  0  0  0  0  0999 V2000
  191.4140  170.1570  141.7760 C   0  0  2  0  0  3  0  0  0  0  0  0
  188.8770  175.2440  144.6240 C   0  0  0  0  0  2  0  0  0  0  0  0
  191.1310  172.6620  144.8400 S   0  0  0  0  0  0  0  0  0  0  0  0
  190.9830  171.1890  142.7720 C   0  0  0  0  0  0  0  0  0  0  0  0
  190.0150  172.1800  142.6060 C   0  0  0  0  0  0  0  0  0  0  0  0
  191.6750  171.3260  143.9610 C   0  0  0  0  0  0  0  0  0  0  0  0
  188.2240  173.4080  141.5130 C   0  0  0  0  0  3  0  0  0  0  0  0
  189.1370  172.3290  141.5150 C   0  0  0  0  0  3  0  0  0  0  0  0
  189.0920  174.1400  143.6600 C   0  0  0  0  0  0  0  0  0  0  0  0
  189.9850  173.0800  143.6730 C   0  0  0  0  0  0  0  0  0  0  0  0
  187.1820  177.1730  144.3990 N   0  0  0  0  0  2  0  0  0  0  0  0
  188.2300  174.2920  142.6020 C   0  0  0  0  0  0  0  0  0  0  0  0
  192.2080  169.1450  142.4210 O   0  0  0  0  0  0  0  0  0  0  0  0
  192.9080  169.3450  143.6280 C   0  0  0  0  0  0  0  0  0  0  0  0
  187.7710  175.9700  143.8990 C   0  0  0  0  0  0  0  0  0  0  0  0
  187.4100  175.4310  142.7720 N   0  0  0  0  0  0  0  0  0  0  0  0
  192.6670  170.3880  144.3720 N   0  0  0  0  0  0  0  0  0  0  0  0
  186.0500  177.8240  143.7500 C   0  0  2  0  0  3  0  0  0  0  0  0
  186.5420  179.0390  142.9720 C   0  0  0  0  0  1  0  0  0  0  0  0
  185.0680  179.1680  147.0040 C   0  0  0  0  0  2  0  0  0  0  0  0
  184.7710  177.0870  145.8310 C   0  0  0  0  0  2  0  0  0  0  0  0
  185.2310  177.6700  147.1540 C   0  0  0  0  0  2  0  0  0  0  0  0
  185.3400  179.4590  145.5430 C   0  0  0  0  0  2  0  0  0  0  0  0
  184.9790  178.1850  144.7910 C   0  0  0  0  0  3  0  0  0  0  0  0
  193.9070  168.3360  144.0780 C   0  0  0  0  0  2  0  0  0  0  0  0
  195.3110  168.8820  143.8870 C   0  0  0  0  0  2  0  0  0  0  0  0
  195.8010  169.4780  145.1990 C   0  0  0  0  0  2  0  0  0  0  0  0
  197.2430  169.9530  145.0630 C   0  0  0  0  0  2  0  0  0  0  0  0
  197.3900  171.4250  145.4290 C   0  0  0  0  0  2  0  0  0  0  0  0
  196.3000  172.1920  144.8480 N   0  0  0  0  0  2  0  0  0  0  0  0
  196.1430  173.3910  145.6580 C   0  0  0  0  0  2  0  0  0  0  0  0
  197.2410  175.1250  144.4370 O   0  0  0  0  0  1  0  0  0  0  0  0
  195.9800  174.6220  144.7720 C   0  0  1  0  0  3  0  0  0  0  0  0
  195.1770  174.2950  143.5080 C   0  0  2  0  0  3  0  0  0  0  0  0
  194.7190  175.5890  141.5330 O   0  0  0  0  0  1  0  0  0  0  0  0
  195.7500  175.0150  142.2840 C   0  0  2  0  0  3  0  0  0  0  0  0
  196.0140  172.6550  141.5020 C   0  0  0  0  0  2  0  0  0  0  0  0
  195.5420  172.2890  140.1800 N   0  0  0  0  0  0  0  0  0  0  0  0
  196.5150  174.4610  140.0270 N   0  0  0  0  0  2  0  0  0  0  0  0
  196.4970  171.3290  139.6440 C   0  0  0  0  0  1  0  0  0  0  0  0
  196.5740  174.0590  141.4220 C   0  0  1  0  0  3  0  0  0  0  0  0
  195.6400  173.4960  139.3670 C   0  0  0  0  0  2  0  0  0  0  0  0
  193.8580  175.6610  144.5240 O   0  0  0  0  0  1  0  0  0  0  0  0
  193.8340  174.6450  143.6850 O   0  0  0  0  0  0  0  0  0  0  0  0
  192.2390  170.8520  140.6970 C   0  0  0  0  0  2  0  0  0  0  0  0
  193.3320  172.6030  136.6850 C   0  0  1  0  0  3  0  0  0  0  0  0
  192.1390  173.0830  137.4940 C   0  0  0  0  0  2  0  0  0  0  0  0
  189.9140  169.7390  137.8640 C   0  0  0  0  0  2  0  0  0  0  0  0
  191.8770  170.4520  139.2710 C   0  0  1  0  0  3  0  0  0  0  0  0
  192.3210  171.5990  137.2410 C   0  0  1  0  0  0  0  0  0  0  0  0
  190.4020  170.7090  138.9430 C   0  0  0  0  0  2  0  0  0  0  0  0
  190.7580  169.6610  136.6610 N   0  0  0  0  0  0  0  0  0  0  0  0
  191.3490  170.9380  136.2300 C   0  0  0  0  0  2  0  0  0  0  0  0
  192.8610  170.8600  138.3220 O   0  0  0  0  0  0  0  0  0  0  0  0
  191.7760  168.6290  136.8040 C   0  0  0  0  0  2  0  0  0  0  0  0
  192.8110  169.5550  134.8810 O   0  0  0  0  0  0  0  0  0  0  0  0
  194.2770  168.7760  136.5460 N   0  0  0  0  0  2  0  0  0  0  0  0
  192.9690  169.0010  136.0010 C   0  0  0  0  0  0  0  0  0  0  0  0
  195.7720  170.6070  135.9570 C   0  0  0  0  0  3  0  0  0  0  0  0
  197.6620  168.8280  134.9240 C   0  0  0  0  0  3  0  0  0  0  0  0
  196.9600  171.0920  135.4050 C   0  0  0  0  0  3  0  0  0  0  0  0
  196.4700  168.3450  135.4700 C   0  0  0  0  0  3  0  0  0  0  0  0
  195.5170  169.2340  135.9920 C   0  0  0  0  0  0  0  0  0  0  0  0
  197.9040  170.2010  134.8910 C   0  0  0  0  0  3  0  0  0  0  0  0
  193.1080  172.9470  135.2180 C   0  0  0  0  0  2  0  0  0  0  0  0
  193.9990  174.0270  134.8290 N   0  0  0  0  0  2  0  0  0  0  0  0
  192.2650  175.7100  135.2100 O   0  0  0  0  0  1  0  0  0  0  0  0
  194.3940  176.3060  134.5890 O   0  0  0  0  0  0  0  0  0  0  0  0
  193.5750  175.3890  134.8680 C   0  0  0  0  0  0  0  0  0  0  0  0
  1 45  1  6  0  0  0
  1 13  1  0  0  0  0
  1  4  1  0  0  0  0
  4  6  2  0  0  0  0
  5  4  1  0  0  0  0
  5 10  1  0  0  0  0
  6 17  1  0  0  0  0
  6  3  1  0  0  0  0
  7  8  1  0  0  0  0
  7 12  2  0  0  0  0
  8  5  2  0  0  0  0
  9 10  2  0  0  0  0
  9  2  1  0  0  0  0
 10  3  1  0  0  0  0
 12 16  1  0  0  0  0
 12  9  1  0  0  0  0
 13 14  1  0  0  0  0
 14 25  1  0  0  0  0
 14 17  2  0  0  0  0
 15 11  1  0  0  0  0
 15  2  1  0  0  0  0
 16 15  2  0  0  0  0
 18 19  1  1  0  0  0
 18 11  1  0  0  0  0
 18 24  1  0  0  0  0
 20 22  1  0  0  0  0
 21 22  1  0  0  0  0
 23 20  1  0  0  0  0
 24 23  1  0  0  0  0
 24 21  1  0  0  0  0
 26 25  1  0  0  0  0
 26 27  1  0  0  0  0
 28 27  1  0  0  0  0
 28 29  1  0  0  0  0
 30 29  1  0  0  0  0
 30 31  1  0  0  0  0
 33 32  1  6  0  0  0
 33 31  1  0  0  0  0
 34 44  1  1  0  0  0
 34 33  1  0  0  0  0
 36 35  1  6  0  0  0
 36 34  1  0  0  0  0
 38 37  1  0  0  0  0
 39 41  1  0  0  0  0
 40 38  1  0  0  0  0
 41 37  1  0  0  0  0
 41 36  1  1  0  0  0
 42 39  1  0  0  0  0
 42 38  1  0  0  0  0
 44 43  1  0  0  0  0
 46 65  1  6  0  0  0
 46 50  1  0  0  0  0
 46 47  1  0  0  0  0
 48 51  1  0  0  0  0
 49 45  1  1  0  0  0
 50 53  1  6  0  0  0
 50 47  1  0  0  0  0
 50 54  1  0  0  0  0
 51 49  1  0  0  0  0
 52 55  1  0  0  0  0
 52 48  1  0  0  0  0
 53 52  1  0  0  0  0
 54 49  1  0  0  0  0
 56 58  2  0  0  0  0
 58 57  1  0  0  0  0
 58 55  1  0  0  0  0
 59 63  1  0  0  0  0
 60 62  1  0  0  0  0
 61 59  2  0  0  0  0
 62 63  2  0  0  0  0
 63 57  1  0  0  0  0
 64 60  2  0  0  0  0
 64 61  1  0  0  0  0
 66 69  1  0  0  0  0
 66 65  1  0  0  0  0
 68 69  2  0  0  0  0
 69 67  1  0  0  0  0
M  END
>  <MODEL>
7

>  <REMARK>
 VINA RESULT:      -4.6      3.870      8.719
  Name = 
  21 active torsions:
  status: ('A' for Active; 'I' for Inactive)
    1  A    between atoms: C_1  and  C_32
    2  A    between atoms: C_2  and  C_8
    3  A    between atoms: C_8  and  N_16
    4  A    between atoms: C_12  and  C_35
    5  A    between atoms: C_12  and  O_58
    6  A    between atoms: C_12  and  C_61
    7  A    between atoms: C_15  and  C_32
    8  A    between atoms: N_25  and  C_49
    9  A    between atoms: C_28  and  N_50
   10  A    between atoms: C_28  and  C_52
   11  A    between atoms: C_29  and  N_46
   12  A    between atoms: C_29  and  C_61
   13  A    between atoms: C_33  and  N_44
   14  A    between atoms: C_33  and  C_67
   15  A    between atoms: C_34  and  C_40
   16  A    between atoms: C_34  and  N_46
   17  A    between atoms: C_35  and  C_59
   18  A    between atoms: C_40  and  C_56
   19  A    between atoms: C_55  and  C_62
   20  A    between atoms: C_56  and  C_69
   21  A    between atoms: C_62  and  C_69
                            x       y       z     vdW  Elec       q    Type
                         _______ _______ _______ _____ _____    ______ ____

>  <TORSDO>
F 21

$$$$
=
 OpenBabel11042415083D

 69 77  0  0  1  0  0  0  0  0999 V2000
  191.7440  177.5350  142.9930 C   0  0  2  0  0  3  0  0  0  0  0  0
  185.5600  176.6750  141.7900 C   0  0  0  0  0  2  0  0  0  0  0  0
  188.6940  175.2710  141.8470 S   0  0  0  0  0  0  0  0  0  0  0  0
  190.4260  177.0100  142.5150 C   0  0  0  0  0  0  0  0  0  0  0  0
  189.2020  177.6800  142.4880 C   0  0  0  0  0  0  0  0  0  0  0  0
  190.3000  175.6750  142.1780 C   0  0  0  0  0  0  0  0  0  0  0  0
  187.6590  179.5440  142.7070 C   0  0  0  0  0  3  0  0  0  0  0  0
  188.9770  179.0400  142.7740 C   0  0  0  0  0  3  0  0  0  0  0  0
  186.8510  177.3400  142.0870 C   0  0  0  0  0  0  0  0  0  0  0  0
  188.1420  176.8390  142.1420 C   0  0  0  0  0  0  0  0  0  0  0  0
  183.2300  177.7760  141.7840 N   0  0  0  0  0  2  0  0  0  0  0  0
  186.6210  178.6650  142.3600 C   0  0  0  0  0  0  0  0  0  0  0  0
  192.8070  176.6570  142.5820 O   0  0  0  0  0  0  0  0  0  0  0  0
  192.6250  175.2960  142.2660 C   0  0  0  0  0  0  0  0  0  0  0  0
  184.6470  177.8660  141.9440 C   0  0  0  0  0  0  0  0  0  0  0  0
  185.2460  178.9770  142.2580 N   0  0  0  0  0  0  0  0  0  0  0  0
  191.4300  174.8110  142.0760 N   0  0  0  0  0  0  0  0  0  0  0  0
  182.3560  178.9420  141.8390 C   0  0  2  0  0  3  0  0  0  0  0  0
  181.9840  179.2290  143.2890 C   0  0  0  0  0  1  0  0  0  0  0  0
  179.0120  179.8860  140.7030 C   0  0  0  0  0  2  0  0  0  0  0  0
  180.0290  177.9160  141.6420 C   0  0  0  0  0  2  0  0  0  0  0  0
  178.8520  178.8600  141.8070 C   0  0  0  0  0  2  0  0  0  0  0  0
  180.5060  180.0440  140.5140 C   0  0  0  0  0  2  0  0  0  0  0  0
  181.1230  178.7220  140.9480 C   0  0  0  0  0  3  0  0  0  0  0  0
  193.8120  174.4080  142.1110 C   0  0  0  0  0  2  0  0  0  0  0  0
  194.6210  174.4020  143.3960 C   0  0  0  0  0  2  0  0  0  0  0  0
  195.8670  173.5510  143.2010 C   0  0  0  0  0  2  0  0  0  0  0  0
  195.8680  172.9180  141.8140 C   0  0  0  0  0  2  0  0  0  0  0  0
  197.2690  172.8630  141.2180 C   0  0  0  0  0  2  0  0  0  0  0  0
  197.3340  173.6950  140.0290 N   0  0  0  0  0  2  0  0  0  0  0  0
  196.0220  173.6480  139.4000 C   0  0  0  0  0  2  0  0  0  0  0  0
  195.8610  172.5130  137.3060 O   0  0  0  0  0  1  0  0  0  0  0  0
  196.1460  173.7530  137.8840 C   0  0  1  0  0  3  0  0  0  0  0  0
  195.2170  174.8360  137.3250 C   0  0  2  0  0  3  0  0  0  0  0  0
  193.9940  174.5730  135.2700 O   0  0  0  0  0  1  0  0  0  0  0  0
  194.0040  174.2180  136.6230 C   0  0  2  0  0  3  0  0  0  0  0  0
  191.5110  174.0350  136.5940 C   0  0  0  0  0  2  0  0  0  0  0  0
  190.8550  173.1350  137.5240 N   0  0  0  0  0  0  0  0  0  0  0  0
  192.6710  174.1700  138.6740 N   0  0  0  0  0  2  0  0  0  0  0  0
  189.6240  173.7910  137.9430 C   0  0  0  0  0  1  0  0  0  0  0  0
  192.7030  174.6440  137.3000 C   0  0  1  0  0  3  0  0  0  0  0  0
  191.7240  173.0580  138.6930 C   0  0  0  0  0  2  0  0  0  0  0  0
  197.1570  175.6560  136.8780 O   0  0  0  0  0  1  0  0  0  0  0  0
  195.9150  175.6610  136.4370 O   0  0  0  0  0  0  0  0  0  0  0  0
  191.7000  177.6180  144.5150 C   0  0  0  0  0  2  0  0  0  0  0  0
  187.7100  177.6070  146.6230 C   0  0  1  0  0  3  0  0  0  0  0  0
  189.0160  177.9170  147.3350 C   0  0  0  0  0  2  0  0  0  0  0  0
  191.1670  174.5550  146.7520 C   0  0  0  0  0  2  0  0  0  0  0  0
  190.8970  176.5080  145.1850 C   0  0  1  0  0  3  0  0  0  0  0  0
  188.9120  176.6720  146.4760 C   0  0  1  0  0  0  0  0  0  0  0  0
  191.5460  176.0140  146.4830 C   0  0  0  0  0  2  0  0  0  0  0  0
  189.7270  174.2590  146.6880 N   0  0  0  0  0  0  0  0  0  0  0  0
  188.8480  175.3140  147.2190 C   0  0  0  0  0  2  0  0  0  0  0  0
  189.4960  176.7720  145.1890 O   0  0  0  0  0  0  0  0  0  0  0  0
  189.3330  173.8720  145.3410 C   0  0  0  0  0  2  0  0  0  0  0  0
  189.3960  171.5280  144.9820 O   0  0  0  0  0  0  0  0  0  0  0  0
  191.4000  172.6760  144.5400 N   0  0  0  0  0  2  0  0  0  0  0  0
  190.0320  172.6150  144.9670 C   0  0  0  0  0  0  0  0  0  0  0  0
  193.3260  171.1870  144.6360 C   0  0  0  0  0  3  0  0  0  0  0  0
  192.5630  169.9270  142.2630 C   0  0  0  0  0  3  0  0  0  0  0  0
  194.1070  170.1570  144.1090 C   0  0  0  0  0  3  0  0  0  0  0  0
  191.7850  170.9640  142.7870 C   0  0  0  0  0  3  0  0  0  0  0  0
  192.1630  171.5990  143.9800 C   0  0  0  0  0  0  0  0  0  0  0  0
  193.7240  169.5270  142.9240 C   0  0  0  0  0  3  0  0  0  0  0  0
  186.6880  177.1310  147.6460 C   0  0  0  0  0  2  0  0  0  0  0  0
  185.5100  177.9810  147.5910 N   0  0  0  0  0  2  0  0  0  0  0  0
  184.9240  177.1720  145.3590 O   0  0  0  0  0  0  0  0  0  0  0  0
  183.5820  178.6580  146.4820 O   0  0  0  0  0  1  0  0  0  0  0  0
  184.6310  177.9590  146.4680 C   0  0  0  0  0  0  0  0  0  0  0  0
  1 45  1  1  0  0  0
  2 15  1  0  0  0  0
  2  9  1  0  0  0  0
  3 10  1  0  0  0  0
  3  6  1  0  0  0  0
  4  1  1  0  0  0  0
  5  4  1  0  0  0  0
  5  8  1  0  0  0  0
  6  4  2  0  0  0  0
  7  8  2  0  0  0  0
  9 10  1  0  0  0  0
  9 12  2  0  0  0  0
 10  5  2  0  0  0  0
 11 18  1  0  0  0  0
 11 15  1  0  0  0  0
 12  7  1  0  0  0  0
 13  1  1  0  0  0  0
 14 13  1  0  0  0  0
 15 16  2  0  0  0  0
 16 12  1  0  0  0  0
 17  6  1  0  0  0  0
 17 14  2  0  0  0  0
 18 19  1  1  0  0  0
 20 22  1  0  0  0  0
 21 22  1  0  0  0  0
 23 20  1  0  0  0  0
 23 24  1  0  0  0  0
 24 21  1  0  0  0  0
 24 18  1  0  0  0  0
 25 14  1  0  0  0  0
 25 26  1  0  0  0  0
 27 26  1  0  0  0  0
 28 27  1  0  0  0  0
 29 28  1  0  0  0  0
 30 29  1  0  0  0  0
 31 30  1  0  0  0  0
 33 32  1  6  0  0  0
 33 31  1  0  0  0  0
 34 44  1  6  0  0  0
 34 33  1  0  0  0  0
 36 35  1  6  0  0  0
 36 34  1  0  0  0  0
 37 41  1  0  0  0  0
 37 38  1  0  0  0  0
 38 40  1  0  0  0  0
 38 42  1  0  0  0  0
 39 42  1  0  0  0  0
 41 36  1  6  0  0  0
 41 39  1  0  0  0  0
 44 43  1  0  0  0  0
 46 47  1  0  0  0  0
 46 65  1  1  0  0  0
 49 45  1  1  0  0  0
 49 54  1  0  0  0  0
 49 51  1  0  0  0  0
 50 46  1  0  0  0  0
 50 53  1  1  0  0  0
 50 47  1  0  0  0  0
 51 48  1  0  0  0  0
 52 48  1  0  0  0  0
 52 53  1  0  0  0  0
 54 50  1  0  0  0  0
 55 52  1  0  0  0  0
 57 58  1  0  0  0  0
 58 56  2  0  0  0  0
 58 55  1  0  0  0  0
 60 62  2  0  0  0  0
 60 64  1  0  0  0  0
 61 59  1  0  0  0  0
 62 63  1  0  0  0  0
 63 57  1  0  0  0  0
 63 59  2  0  0  0  0
 64 61  2  0  0  0  0
 66 65  1  0  0  0  0
 67 69  2  0  0  0  0
 69 68  1  0  0  0  0
 69 66  1  0  0  0  0
M  END
>  <MODEL>
8

>  <REMARK>
 VINA RESULT:      -4.5      2.544      4.795
  Name = 
  21 active torsions:
  status: ('A' for Active; 'I' for Inactive)
    1  A    between atoms: C_1  and  C_32
    2  A    between atoms: C_2  and  C_8
    3  A    between atoms: C_8  and  N_16
    4  A    between atoms: C_12  and  C_35
    5  A    between atoms: C_12  and  O_58
    6  A    between atoms: C_12  and  C_61
    7  A    between atoms: C_15  and  C_32
    8  A    between atoms: N_25  and  C_49
    9  A    between atoms: C_28  and  N_50
   10  A    between atoms: C_28  and  C_52
   11  A    between atoms: C_29  and  N_46
   12  A    between atoms: C_29  and  C_61
   13  A    between atoms: C_33  and  N_44
   14  A    between atoms: C_33  and  C_67
   15  A    between atoms: C_34  and  C_40
   16  A    between atoms: C_34  and  N_46
   17  A    between atoms: C_35  and  C_59
   18  A    between atoms: C_40  and  C_56
   19  A    between atoms: C_55  and  C_62
   20  A    between atoms: C_56  and  C_69
   21  A    between atoms: C_62  and  C_69
                            x       y       z     vdW  Elec       q    Type
                         _______ _______ _______ _____ _____    ______ ____

>  <TORSDO>
F 21

$$$$
=
 OpenBabel11042415083D

 69 77  0  0  1  0  0  0  0  0999 V2000
  191.0840  173.0490  140.2650 C   0  0  2  0  0  3  0  0  0  0  0  0
  186.1400  176.8560  141.4860 C   0  0  0  0  0  2  0  0  0  0  0  0
  187.9210  175.1420  139.1010 S   0  0  0  0  0  0  0  0  0  0  0  0
  189.9360  174.0050  140.1560 C   0  0  0  0  0  0  0  0  0  0  0  0
  189.3020  174.6950  141.1900 C   0  0  0  0  0  0  0  0  0  0  0  0
  189.2880  174.1630  138.9460 C   0  0  0  0  0  0  0  0  0  0  0  0
  188.9240  175.4940  143.4540 C   0  0  0  0  0  3  0  0  0  0  0  0
  189.7010  174.7490  142.5400 C   0  0  0  0  0  3  0  0  0  0  0  0
  187.3970  176.0920  141.6620 C   0  0  0  0  0  0  0  0  0  0  0  0
  188.1580  175.3690  140.7570 C   0  0  0  0  0  0  0  0  0  0  0  0
  184.8310  178.1070  143.3200 N   0  0  0  0  0  2  0  0  0  0  0  0
  187.7790  176.1530  142.9790 C   0  0  0  0  0  0  0  0  0  0  0  0
  191.6360  172.7850  138.9630 O   0  0  0  0  0  0  0  0  0  0  0  0
  190.9230  172.9480  137.7590 C   0  0  0  0  0  0  0  0  0  0  0  0
  185.9510  177.3200  142.9090 C   0  0  0  0  0  0  0  0  0  0  0  0
  186.8720  176.9280  143.7390 N   0  0  0  0  0  0  0  0  0  0  0  0
  189.7940  173.6000  137.7370 N   0  0  0  0  0  0  0  0  0  0  0  0
  184.6950  178.6360  144.6730 C   0  0  2  0  0  3  0  0  0  0  0  0
  184.9310  180.1420  144.6540 C   0  0  0  0  0  1  0  0  0  0  0  0
  185.5740  177.3880  147.9940 C   0  0  0  0  0  2  0  0  0  0  0  0
  186.5870  178.8500  146.3700 C   0  0  0  0  0  2  0  0  0  0  0  0
  186.2000  178.7590  147.8350 C   0  0  0  0  0  2  0  0  0  0  0  0
  184.8860  177.1050  146.6760 C   0  0  0  0  0  2  0  0  0  0  0  0
  185.6490  177.9020  145.6270 C   0  0  0  0  0  3  0  0  0  0  0  0
  191.4810  172.4010  136.4900 C   0  0  0  0  0  2  0  0  0  0  0  0
  192.6540  173.2510  136.0370 C   0  0  0  0  0  2  0  0  0  0  0  0
  193.9490  172.6350  136.5470 C   0  0  0  0  0  2  0  0  0  0  0  0
  195.0960  173.6320  136.4310 C   0  0  0  0  0  2  0  0  0  0  0  0
  195.7970  173.8450  137.7660 C   0  0  0  0  0  2  0  0  0  0  0  0
  195.7380  172.6280  138.5580 N   0  0  0  0  0  2  0  0  0  0  0  0
  196.0850  172.9890  139.9250 C   0  0  0  0  0  2  0  0  0  0  0  0
  194.0840  173.3280  141.1830 O   0  0  0  0  0  1  0  0  0  0  0  0
  195.0900  174.0010  140.4830 C   0  0  1  0  0  3  0  0  0  0  0  0
  195.7860  175.0230  141.3880 C   0  0  2  0  0  3  0  0  0  0  0  0
  194.9880  173.4320  143.0070 O   0  0  0  0  0  1  0  0  0  0  0  0
  195.5500  174.7060  142.8680 C   0  0  2  0  0  3  0  0  0  0  0  0
  193.4300  175.1170  144.1280 C   0  0  0  0  0  2  0  0  0  0  0  0
  193.4870  175.3230  145.5630 N   0  0  0  0  0  0  0  0  0  0  0  0
  195.3660  176.4280  144.5960 N   0  0  0  0  0  2  0  0  0  0  0  0
  192.4860  176.3320  145.8810 C   0  0  0  0  0  1  0  0  0  0  0  0
  194.6560  175.7610  143.5180 C   0  0  1  0  0  3  0  0  0  0  0  0
  194.7940  175.9100  145.8350 C   0  0  0  0  0  2  0  0  0  0  0  0
  196.4300  177.0380  140.9860 O   0  0  0  0  0  1  0  0  0  0  0  0
  195.3340  176.3140  141.0970 O   0  0  0  0  0  0  0  0  0  0  0  0
  190.5680  171.7530  140.8820 C   0  0  0  0  0  2  0  0  0  0  0  0
  193.1320  169.6420  137.8280 C   0  0  1  0  0  3  0  0  0  0  0  0
  191.7300  169.1790  138.1850 C   0  0  0  0  0  2  0  0  0  0  0  0
  192.0210  168.4400  142.1400 C   0  0  0  0  0  2  0  0  0  0  0  0
  191.6160  170.6520  141.0080 C   0  0  1  0  0  3  0  0  0  0  0  0
  192.7310  169.4510  139.2910 C   0  0  1  0  0  0  0  0  0  0  0  0
  191.0040  169.2970  141.3810 C   0  0  0  0  0  2  0  0  0  0  0  0
  193.3380  168.3110  141.4970 N   0  0  0  0  0  0  0  0  0  0  0  0
  193.3100  168.2160  140.0280 C   0  0  0  0  0  2  0  0  0  0  0  0
  192.5790  170.6920  139.9570 O   0  0  0  0  0  0  0  0  0  0  0  0
  194.2400  169.3640  141.9410 C   0  0  0  0  0  2  0  0  0  0  0  0
  195.9820  168.1660  143.0180 O   0  0  0  0  0  0  0  0  0  0  0  0
  194.5460  169.3670  144.4410 N   0  0  0  0  0  2  0  0  0  0  0  0
  194.9710  168.9060  143.1510 C   0  0  0  0  0  0  0  0  0  0  0  0
  196.5050  169.7350  145.8410 C   0  0  0  0  0  3  0  0  0  0  0  0
  195.3920  168.2370  147.9200 C   0  0  0  0  0  3  0  0  0  0  0  0
  197.2180  169.5480  147.0270 C   0  0  0  0  0  3  0  0  0  0  0  0
  194.6830  168.4190  146.7290 C   0  0  0  0  0  3  0  0  0  0  0  0
  195.2370  169.1710  145.6820 C   0  0  0  0  0  0  0  0  0  0  0  0
  196.6600  168.8000  148.0660 C   0  0  0  0  0  3  0  0  0  0  0  0
  193.9090  168.4680  137.2480 C   0  0  0  0  0  2  0  0  0  0  0  0
  195.0200  168.9630  136.4520 N   0  0  0  0  0  2  0  0  0  0  0  0
  196.5190  168.9580  138.3840 O   0  0  0  0  0  1  0  0  0  0  0  0
  197.2690  169.5280  136.2900 O   0  0  0  0  0  0  0  0  0  0  0  0
  196.3110  169.1630  137.0240 C   0  0  0  0  0  0  0  0  0  0  0  0
  1 45  1  6  0  0  0
  2  9  1  0  0  0  0
  2 15  1  0  0  0  0
  3 10  1  0  0  0  0
  4  1  1  0  0  0  0
  4  5  1  0  0  0  0
  5  8  1  0  0  0  0
  6  3  1  0  0  0  0
  6  4  2  0  0  0  0
  8  7  2  0  0  0  0
  9 12  2  0  0  0  0
 10  5  2  0  0  0  0
 10  9  1  0  0  0  0
 11 18  1  0  0  0  0
 12  7  1  0  0  0  0
 12 16  1  0  0  0  0
 13  1  1  0  0  0  0
 14 13  1  0  0  0  0
 15 11  1  0  0  0  0
 15 16  2  0  0  0  0
 17 14  2  0  0  0  0
 17  6  1  0  0  0  0
 18 19  1  6  0  0  0
 18 24  1  0  0  0  0
 21 22  1  0  0  0  0
 22 20  1  0  0  0  0
 23 20  1  0  0  0  0
 24 21  1  0  0  0  0
 24 23  1  0  0  0  0
 25 14  1  0  0  0  0
 26 25  1  0  0  0  0
 26 27  1  0  0  0  0
 28 27  1  0  0  0  0
 28 29  1  0  0  0  0
 29 30  1  0  0  0  0
 30 31  1  0  0  0  0
 31 33  1  0  0  0  0
 33 32  1  1  0  0  0
 33 34  1  0  0  0  0
 34 44  1  6  0  0  0
 34 36  1  0  0  0  0
 36 35  1  6  0  0  0
 37 38  1  0  0  0  0
 38 42  1  0  0  0  0
 38 40  1  0  0  0  0
 39 42  1  0  0  0  0
 41 36  1  1  0  0  0
 41 37  1  0  0  0  0
 41 39  1  0  0  0  0
 43 44  1  0  0  0  0
 46 65  1  6  0  0  0
 46 47  1  0  0  0  0
 46 50  1  0  0  0  0
 49 45  1  6  0  0  0
 49 51  1  0  0  0  0
 50 47  1  6  0  0  0
 50 54  1  0  0  0  0
 50 53  1  0  0  0  0
 51 48  1  0  0  0  0
 52 55  1  0  0  0  0
 52 48  1  0  0  0  0
 53 52  1  0  0  0  0
 54 49  1  0  0  0  0
 55 58  1  0  0  0  0
 56 58  2  0  0  0  0
 57 63  1  0  0  0  0
 58 57  1  0  0  0  0
 59 61  1  0  0  0  0
 60 64  1  0  0  0  0
 61 64  2  0  0  0  0
 62 60  2  0  0  0  0
 63 59  2  0  0  0  0
 63 62  1  0  0  0  0
 66 69  1  0  0  0  0
 66 65  1  0  0  0  0
 68 69  2  0  0  0  0
 69 67  1  0  0  0  0
M  END
>  <MODEL>
9

>  <REMARK>
 VINA RESULT:      -4.4      3.589      6.963
  Name = 
  21 active torsions:
  status: ('A' for Active; 'I' for Inactive)
    1  A    between atoms: C_1  and  C_32
    2  A    between atoms: C_2  and  C_8
    3  A    between atoms: C_8  and  N_16
    4  A    between atoms: C_12  and  C_35
    5  A    between atoms: C_12  and  O_58
    6  A    between atoms: C_12  and  C_61
    7  A    between atoms: C_15  and  C_32
    8  A    between atoms: N_25  and  C_49
    9  A    between atoms: C_28  and  N_50
   10  A    between atoms: C_28  and  C_52
   11  A    between atoms: C_29  and  N_46
   12  A    between atoms: C_29  and  C_61
   13  A    between atoms: C_33  and  N_44
   14  A    between atoms: C_33  and  C_67
   15  A    between atoms: C_34  and  C_40
   16  A    between atoms: C_34  and  N_46
   17  A    between atoms: C_35  and  C_59
   18  A    between atoms: C_40  and  C_56
   19  A    between atoms: C_55  and  C_62
   20  A    between atoms: C_56  and  C_69
   21  A    between atoms: C_62  and  C_69
                            x       y       z     vdW  Elec       q    Type
                         _______ _______ _______ _____ _____    ______ ____

>  <TORSDO>
F 21

$$$$
