=
 OpenBabel11042416113D

 26 29  0  0  1  0  0  0  0  0999 V2000
  187.5010  177.5740  141.3790 C   0  0  0  0  0  0  0  0  0  0  0  0
  188.1040  176.3500  141.7470 C   0  0  0  0  0  0  0  0  0  0  0  0
  187.5200  175.4920  139.5890 N   0  0  0  0  0  0  0  0  0  0  0  0
  186.9380  177.7000  140.1460 N   0  0  0  0  0  0  0  0  0  0  0  0
  188.0890  175.3120  140.8080 C   0  0  0  0  0  3  0  0  0  0  0  0
  186.9480  176.6760  139.2570 C   0  0  0  0  0  3  0  0  0  0  0  0
  190.0490  176.6230  143.3210 N   0  0  0  0  0  2  0  0  0  0  0  0
  188.7340  176.1090  143.0650 C   0  0  0  0  0  0  0  0  0  0  0  0
  188.1320  175.4400  143.9470 O   0  0  0  0  0  0  0  0  0  0  0  0
  192.0030  175.5060  147.1610 C   0  0  0  0  0  3  0  0  0  0  0  0
  191.8910  176.0060  144.7390 C   0  0  0  0  0  3  0  0  0  0  0  0
  190.1270  177.1340  146.9910 C   0  0  0  0  0  3  0  0  0  0  0  0
  190.7230  176.6450  144.5880 C   0  0  0  0  0  0  0  0  0  0  0  0
  192.7240  176.0550  145.9760 C   0  0  0  0  0  2  0  0  0  0  0  0
  190.8700  176.0290  147.6260 C   0  0  0  0  0  3  0  0  0  0  0  0
  190.0680  177.3960  145.6790 C   0  0  0  0  0  3  0  0  0  0  0  0
  187.3970  178.7260  142.3310 C   0  0  0  0  0  2  0  0  0  0  0  0
  186.5510  178.2100  145.4870 C   0  0  0  0  0  3  0  0  0  0  0  0
  186.0950  178.7040  143.0600 C   0  0  0  0  0  0  0  0  0  0  0  0
  185.8890  179.1090  144.4750 C   0  0  1  0  0  3  0  0  0  0  0  0
  183.8700  178.5940  143.4340 N   0  0  0  0  0  0  0  0  0  0  0  0
  183.7710  178.7120  145.8110 N   0  0  0  0  0  0  0  0  0  0  0  0
  184.4680  178.2110  146.7910 C   0  0  0  0  0  3  0  0  0  0  0  0
  184.4110  178.9400  144.5550 C   0  0  0  0  0  0  0  0  0  0  0  0
  184.9210  178.4930  142.4790 C   0  0  0  0  0  3  0  0  0  0  0  0
  185.8960  177.8430  146.5990 C   0  0  0  0  0  3  0  0  0  0  0  0
  1  2  1  0  0  0  0
  1 17  1  0  0  0  0
  2  8  1  0  0  0  0
  3  5  1  0  0  0  0
  4  1  2  0  0  0  0
  5  2  2  0  0  0  0
  6  3  2  0  0  0  0
  6  4  1  0  0  0  0
  7 13  1  0  0  0  0
  8  7  1  0  0  0  0
  8  9  2  0  0  0  0
 10 15  2  0  0  0  0
 11 14  1  0  0  0  0
 12 15  1  0  0  0  0
 13 11  2  0  0  0  0
 13 16  1  0  0  0  0
 14 10  1  0  0  0  0
 16 12  2  0  0  0  0
 17 19  1  0  0  0  0
 18 26  2  0  0  0  0
 19 20  1  0  0  0  0
 20 24  1  0  0  0  0
 20 18  1  1  0  0  0
 21 24  2  0  0  0  0
 22 23  2  0  0  0  0
 24 22  1  0  0  0  0
 25 19  2  0  0  0  0
 25 21  1  0  0  0  0
 26 23  1  0  0  0  0
M  END
>  <MODEL>
1

>  <REMARK>
 VINA RESULT:      -7.5      0.000      0.000
  Name = 
  4 active torsions:
  status: ('A' for Active; 'I' for Inactive)
    1  A    between atoms: C_2  and  C_18
    2  A    between atoms: C_4  and  C_13
    3  A    between atoms: N_5  and  C_20
    4  A    between atoms: C_7  and  C_18
                            x       y       z     vdW  Elec       q    Type
                         _______ _______ _______ _____ _____    ______ ____

>  <TORSDO>
F 4

$$$$
=
 OpenBabel11042416113D

 26 29  0  0  1  0  0  0  0  0999 V2000
  189.8410  174.0560  144.0490 C   0  0  0  0  0  0  0  0  0  0  0  0
  189.3330  175.1790  143.3580 C   0  0  0  0  0  0  0  0  0  0  0  0
  189.9710  174.1220  141.3070 N   0  0  0  0  0  0  0  0  0  0  0  0
  190.3880  173.0270  143.3450 N   0  0  0  0  0  0  0  0  0  0  0  0
  189.4210  175.1760  141.9610 C   0  0  0  0  0  3  0  0  0  0  0  0
  190.4520  173.0530  141.9900 C   0  0  0  0  0  3  0  0  0  0  0  0
  187.3250  176.3420  144.3360 N   0  0  0  0  0  2  0  0  0  0  0  0
  188.7270  176.3510  144.0300 C   0  0  0  0  0  0  0  0  0  0  0  0
  189.4300  177.3580  144.3130 O   0  0  0  0  0  0  0  0  0  0  0  0
  184.4600  178.3640  147.0770 C   0  0  0  0  0  3  0  0  0  0  0  0
  186.5020  177.1060  146.4620 C   0  0  0  0  0  3  0  0  0  0  0  0
  184.9630  179.1640  144.7730 C   0  0  0  0  0  3  0  0  0  0  0  0
  186.6230  177.2990  145.1420 C   0  0  0  0  0  0  0  0  0  0  0  0
  185.8890  178.0870  147.4040 C   0  0  0  0  0  2  0  0  0  0  0  0
  184.0710  178.8870  145.9160 C   0  0  0  0  0  3  0  0  0  0  0  0
  186.0640  178.4760  144.4450 C   0  0  0  0  0  3  0  0  0  0  0  0
  189.8620  173.9860  145.5450 C   0  0  0  0  0  2  0  0  0  0  0  0
  193.1650  174.0220  145.3590 C   0  0  0  0  0  3  0  0  0  0  0  0
  190.9180  174.8770  146.1090 C   0  0  0  0  0  0  0  0  0  0  0  0
  192.2210  175.1910  145.4650 C   0  0  1  0  0  3  0  0  0  0  0  0
  191.9200  176.4190  147.4200 N   0  0  0  0  0  0  0  0  0  0  0  0
  194.1520  176.3870  146.5900 N   0  0  0  0  0  0  0  0  0  0  0  0
  194.9750  175.4610  146.1880 C   0  0  0  0  0  3  0  0  0  0  0  0
  192.7470  176.1640  146.4610 C   0  0  0  0  0  0  0  0  0  0  0  0
  190.7480  175.6480  147.1750 C   0  0  0  0  0  3  0  0  0  0  0  0
  194.4670  174.1740  145.6440 C   0  0  0  0  0  3  0  0  0  0  0  0
  1 17  1  0  0  0  0
  2  8  1  0  0  0  0
  2  1  1  0  0  0  0
  3  5  1  0  0  0  0
  3  6  2  0  0  0  0
  4  1  2  0  0  0  0
  5  2  2  0  0  0  0
  6  4  1  0  0  0  0
  7 13  1  0  0  0  0
  8  9  2  0  0  0  0
  8  7  1  0  0  0  0
 10 14  1  0  0  0  0
 11 14  1  0  0  0  0
 12 15  1  0  0  0  0
 13 11  2  0  0  0  0
 15 10  2  0  0  0  0
 16 12  2  0  0  0  0
 16 13  1  0  0  0  0
 17 19  1  0  0  0  0
 18 26  2  0  0  0  0
 19 25  2  0  0  0  0
 20 18  1  1  0  0  0
 20 19  1  0  0  0  0
 20 24  1  0  0  0  0
 23 22  2  0  0  0  0
 24 22  1  0  0  0  0
 24 21  2  0  0  0  0
 25 21  1  0  0  0  0
 26 23  1  0  0  0  0
M  END
>  <MODEL>
2

>  <REMARK>
 VINA RESULT:      -7.5      2.381      6.710
  Name = 
  4 active torsions:
  status: ('A' for Active; 'I' for Inactive)
    1  A    between atoms: C_2  and  C_18
    2  A    between atoms: C_4  and  C_13
    3  A    between atoms: N_5  and  C_20
    4  A    between atoms: C_7  and  C_18
                            x       y       z     vdW  Elec       q    Type
                         _______ _______ _______ _____ _____    ______ ____

>  <TORSDO>
F 4

$$$$
=
 OpenBabel11042416113D

 26 29  0  0  1  0  0  0  0  0999 V2000
  188.7790  176.6190  142.9360 C   0  0  0  0  0  0  0  0  0  0  0  0
  189.4240  175.3630  142.8740 C   0  0  0  0  0  0  0  0  0  0  0  0
  188.3020  174.9660  140.7970 N   0  0  0  0  0  0  0  0  0  0  0  0
  187.9320  176.9880  141.9370 N   0  0  0  0  0  0  0  0  0  0  0  0
  189.1510  174.5480  141.7690 C   0  0  0  0  0  3  0  0  0  0  0  0
  187.6950  176.1760  140.8760 C   0  0  0  0  0  3  0  0  0  0  0  0
  191.7700  175.0150  143.7200 N   0  0  0  0  0  2  0  0  0  0  0  0
  190.3550  174.8670  143.9130 C   0  0  0  0  0  0  0  0  0  0  0  0
  189.9120  174.2990  144.9470 O   0  0  0  0  0  0  0  0  0  0  0  0
  195.6240  174.7910  145.9340 C   0  0  0  0  0  3  0  0  0  0  0  0
  193.4660  175.7870  145.2390 C   0  0  0  0  0  3  0  0  0  0  0  0
  194.2040  172.8080  145.4330 C   0  0  0  0  0  3  0  0  0  0  0  0
  192.7920  174.7650  144.6950 C   0  0  0  0  0  0  0  0  0  0  0  0
  194.4680  175.6460  146.3360 C   0  0  0  0  0  2  0  0  0  0  0  0
  195.4920  173.5150  145.5790 C   0  0  0  0  0  3  0  0  0  0  0  0
  193.0420  173.3520  145.0530 C   0  0  0  0  0  3  0  0  0  0  0  0
  188.9430  177.5390  144.1070 C   0  0  0  0  0  2  0  0  0  0  0  0
  185.9490  178.9080  144.4290 C   0  0  0  0  0  3  0  0  0  0  0  0
  187.8290  177.3670  145.0850 C   0  0  0  0  0  0  0  0  0  0  0  0
  186.3810  177.5080  144.7810 C   0  0  1  0  0  3  0  0  0  0  0  0
  186.7260  176.7880  146.9690 N   0  0  0  0  0  0  0  0  0  0  0  0
  184.5300  177.5910  146.5120 N   0  0  0  0  0  0  0  0  0  0  0  0
  184.0340  178.6550  145.9490 C   0  0  0  0  0  3  0  0  0  0  0  0
  185.8250  177.1380  146.1120 C   0  0  0  0  0  0  0  0  0  0  0  0
  187.9850  176.8830  146.3100 C   0  0  0  0  0  3  0  0  0  0  0  0
  184.8150  179.4150  144.9360 C   0  0  0  0  0  3  0  0  0  0  0  0
  1 17  1  0  0  0  0
  2  1  1  0  0  0  0
  2  8  1  0  0  0  0
  3  6  2  0  0  0  0
  3  5  1  0  0  0  0
  4  1  2  0  0  0  0
  5  2  2  0  0  0  0
  6  4  1  0  0  0  0
  7  8  1  0  0  0  0
  7 13  1  0  0  0  0
  8  9  2  0  0  0  0
 10 14  1  0  0  0  0
 11 14  1  0  0  0  0
 12 15  1  0  0  0  0
 13 16  1  0  0  0  0
 13 11  2  0  0  0  0
 15 10  2  0  0  0  0
 16 12  2  0  0  0  0
 17 19  1  0  0  0  0
 18 26  2  0  0  0  0
 19 25  2  0  0  0  0
 20 18  1  1  0  0  0
 20 19  1  0  0  0  0
 20 24  1  0  0  0  0
 23 22  2  0  0  0  0
 24 22  1  0  0  0  0
 24 21  2  0  0  0  0
 25 21  1  0  0  0  0
 26 23  1  0  0  0  0
M  END
>  <MODEL>
3

>  <REMARK>
 VINA RESULT:      -7.4      2.048      3.108
  Name = 
  4 active torsions:
  status: ('A' for Active; 'I' for Inactive)
    1  A    between atoms: C_2  and  C_18
    2  A    between atoms: C_4  and  C_13
    3  A    between atoms: N_5  and  C_20
    4  A    between atoms: C_7  and  C_18
                            x       y       z     vdW  Elec       q    Type
                         _______ _______ _______ _____ _____    ______ ____

>  <TORSDO>
F 4

$$$$
=
 OpenBabel11042416113D

 26 29  0  0  1  0  0  0  0  0999 V2000
  189.8760  175.3140  142.3650 C   0  0  0  0  0  0  0  0  0  0  0  0
  188.5010  174.9870  142.3870 C   0  0  0  0  0  0  0  0  0  0  0  0
  189.0680  172.8310  141.5160 N   0  0  0  0  0  0  0  0  0  0  0  0
  190.7760  174.3940  141.9210 N   0  0  0  0  0  0  0  0  0  0  0  0
  188.1290  173.7140  141.9430 C   0  0  0  0  0  3  0  0  0  0  0  0
  190.3820  173.1650  141.5040 C   0  0  0  0  0  3  0  0  0  0  0  0
  187.3210  176.2170  144.2410 N   0  0  0  0  0  2  0  0  0  0  0  0
  187.4440  175.9190  142.8420 C   0  0  0  0  0  0  0  0  0  0  0  0
  186.6440  176.4300  142.0130 O   0  0  0  0  0  0  0  0  0  0  0  0
  183.8650  178.6620  145.6160 C   0  0  0  0  0  3  0  0  0  0  0  0
  185.5980  176.9000  145.7730 C   0  0  0  0  0  3  0  0  0  0  0  0
  185.7400  179.5690  144.2510 C   0  0  0  0  0  3  0  0  0  0  0  0
  186.4880  177.2280  144.8250 C   0  0  0  0  0  0  0  0  0  0  0  0
  184.7630  177.8850  146.5200 C   0  0  0  0  0  2  0  0  0  0  0  0
  184.3220  179.4430  144.6390 C   0  0  0  0  0  3  0  0  0  0  0  0
  186.6710  178.6100  144.3350 C   0  0  0  0  0  3  0  0  0  0  0  0
  190.3760  176.6720  142.7500 C   0  0  0  0  0  2  0  0  0  0  0  0
  189.9180  176.9950  146.0100 C   0  0  0  0  0  3  0  0  0  0  0  0
  191.2830  176.5950  143.9320 C   0  0  0  0  0  0  0  0  0  0  0  0
  190.9020  176.1130  145.2860 C   0  0  1  0  0  3  0  0  0  0  0  0
  193.1800  176.5770  145.1570 N   0  0  0  0  0  0  0  0  0  0  0  0
  192.3280  176.3410  147.3690 N   0  0  0  0  0  0  0  0  0  0  0  0
  191.3140  176.8280  148.0250 C   0  0  0  0  0  3  0  0  0  0  0  0
  192.2310  176.2050  145.9500 C   0  0  0  0  0  0  0  0  0  0  0  0
  192.5960  176.7750  143.8740 C   0  0  0  0  0  3  0  0  0  0  0  0
  190.0880  177.2760  147.3100 C   0  0  0  0  0  3  0  0  0  0  0  0
  1  2  1  0  0  0  0
  1 17  1  0  0  0  0
  2  8  1  0  0  0  0
  3  5  1  0  0  0  0
  4  1  2  0  0  0  0
  5  2  2  0  0  0  0
  6  3  2  0  0  0  0
  6  4  1  0  0  0  0
  7 13  1  0  0  0  0
  8  7  1  0  0  0  0
  9  8  2  0  0  0  0
 10 14  1  0  0  0  0
 11 14  1  0  0  0  0
 12 16  2  0  0  0  0
 12 15  1  0  0  0  0
 13 11  2  0  0  0  0
 15 10  2  0  0  0  0
 16 13  1  0  0  0  0
 17 19  1  0  0  0  0
 18 26  2  0  0  0  0
 19 20  1  0  0  0  0
 20 24  1  0  0  0  0
 20 18  1  1  0  0  0
 21 24  2  0  0  0  0
 22 23  2  0  0  0  0
 24 22  1  0  0  0  0
 25 19  2  0  0  0  0
 25 21  1  0  0  0  0
 26 23  1  0  0  0  0
M  END
>  <MODEL>
4

>  <REMARK>
 VINA RESULT:      -7.4      2.252      5.864
  Name = 
  4 active torsions:
  status: ('A' for Active; 'I' for Inactive)
    1  A    between atoms: C_2  and  C_18
    2  A    between atoms: C_4  and  C_13
    3  A    between atoms: N_5  and  C_20
    4  A    between atoms: C_7  and  C_18
                            x       y       z     vdW  Elec       q    Type
                         _______ _______ _______ _____ _____    ______ ____

>  <TORSDO>
F 4

$$$$
=
 OpenBabel11042416113D

 26 29  0  0  1  0  0  0  0  0999 V2000
  191.6840  175.6060  145.0470 C   0  0  0  0  0  0  0  0  0  0  0  0
  191.2370  176.0460  146.3140 C   0  0  0  0  0  0  0  0  0  0  0  0
  193.5200  176.4630  146.9000 N   0  0  0  0  0  0  0  0  0  0  0  0
  193.0160  175.6120  144.7680 N   0  0  0  0  0  0  0  0  0  0  0  0
  192.2040  176.4710  147.2320 C   0  0  0  0  0  3  0  0  0  0  0  0
  193.9270  176.0370  145.6780 C   0  0  0  0  0  3  0  0  0  0  0  0
  189.0260  177.2430  146.4600 N   0  0  0  0  0  2  0  0  0  0  0  0
  189.8130  176.0700  146.7180 C   0  0  0  0  0  0  0  0  0  0  0  0
  189.2990  175.0790  147.3040 O   0  0  0  0  0  0  0  0  0  0  0  0
  184.6890  177.9900  145.7990 C   0  0  0  0  0  3  0  0  0  0  0  0
  186.7810  176.6660  145.8190 C   0  0  0  0  0  3  0  0  0  0  0  0
  185.9910  178.9920  147.6700 C   0  0  0  0  0  3  0  0  0  0  0  0
  187.6050  177.3650  146.6130 C   0  0  0  0  0  0  0  0  0  0  0  0
  185.2970  176.6370  145.9640 C   0  0  0  0  0  2  0  0  0  0  0  0
  184.9770  179.0150  146.5980 C   0  0  0  0  0  3  0  0  0  0  0  0
  187.1230  178.2770  147.6710 C   0  0  0  0  0  3  0  0  0  0  0  0
  190.7420  175.0630  144.0170 C   0  0  0  0  0  2  0  0  0  0  0  0
  188.4350  175.1460  141.6480 C   0  0  0  0  0  3  0  0  0  0  0  0
  190.0710  176.1650  143.2680 C   0  0  0  0  0  0  0  0  0  0  0  0
  188.6760  176.1390  142.7550 C   0  0  1  0  0  3  0  0  0  0  0  0
  189.6710  178.2170  142.4150 N   0  0  0  0  0  0  0  0  0  0  0  0
  187.6760  177.8440  141.1670 N   0  0  0  0  0  0  0  0  0  0  0  0
  187.2290  176.8880  140.4030 C   0  0  0  0  0  3  0  0  0  0  0  0
  188.6030  177.5210  142.2050 C   0  0  0  0  0  0  0  0  0  0  0  0
  190.5780  177.3830  143.1270 C   0  0  0  0  0  3  0  0  0  0  0  0
  187.7040  175.4890  140.5770 C   0  0  0  0  0  3  0  0  0  0  0  0
  1  2  1  0  0  0  0
  2  8  1  0  0  0  0
  2  5  2  0  0  0  0
  3  5  1  0  0  0  0
  4  1  2  0  0  0  0
  4  6  1  0  0  0  0
  6  3  2  0  0  0  0
  7 13  1  0  0  0  0
  7  8  1  0  0  0  0
  8  9  2  0  0  0  0
 10 14  1  0  0  0  0
 10 15  2  0  0  0  0
 11 14  1  0  0  0  0
 11 13  2  0  0  0  0
 12 16  2  0  0  0  0
 13 16  1  0  0  0  0
 15 12  1  0  0  0  0
 17  1  1  0  0  0  0
 19 17  1  0  0  0  0
 20 18  1  6  0  0  0
 20 19  1  0  0  0  0
 21 25  1  0  0  0  0
 22 24  1  0  0  0  0
 23 26  1  0  0  0  0
 23 22  2  0  0  0  0
 24 21  2  0  0  0  0
 24 20  1  0  0  0  0
 25 19  2  0  0  0  0
 26 18  2  0  0  0  0
M  END
>  <MODEL>
5

>  <REMARK>
 VINA RESULT:      -7.2      2.213      6.104
  Name = 
  4 active torsions:
  status: ('A' for Active; 'I' for Inactive)
    1  A    between atoms: C_2  and  C_18
    2  A    between atoms: C_4  and  C_13
    3  A    between atoms: N_5  and  C_20
    4  A    between atoms: C_7  and  C_18
                            x       y       z     vdW  Elec       q    Type
                         _______ _______ _______ _____ _____    ______ ____

>  <TORSDO>
F 4

$$$$
=
 OpenBabel11042416113D

 26 29  0  0  1  0  0  0  0  0999 V2000
  190.8590  173.8570  145.3860 C   0  0  0  0  0  0  0  0  0  0  0  0
  190.6610  174.9570  146.2510 C   0  0  0  0  0  0  0  0  0  0  0  0
  193.0200  175.3560  146.1760 N   0  0  0  0  0  0  0  0  0  0  0  0
  192.1170  173.5580  144.9610 N   0  0  0  0  0  0  0  0  0  0  0  0
  191.7870  175.6940  146.6330 C   0  0  0  0  0  3  0  0  0  0  0  0
  193.1870  174.2970  145.3450 C   0  0  0  0  0  3  0  0  0  0  0  0
  188.7340  176.5770  146.3130 N   0  0  0  0  0  2  0  0  0  0  0  0
  189.3360  175.3590  146.7760 C   0  0  0  0  0  0  0  0  0  0  0  0
  188.7500  174.6510  147.6390 O   0  0  0  0  0  0  0  0  0  0  0  0
  184.6280  178.2580  145.9620 C   0  0  0  0  0  3  0  0  0  0  0  0
  186.3720  176.5030  145.8680 C   0  0  0  0  0  3  0  0  0  0  0  0
  186.2700  178.9800  147.6890 C   0  0  0  0  0  3  0  0  0  0  0  0
  187.3920  177.0150  146.5700 C   0  0  0  0  0  0  0  0  0  0  0  0
  184.9340  176.8070  146.1280 C   0  0  0  0  0  2  0  0  0  0  0  0
  185.2000  179.2080  146.6990 C   0  0  0  0  0  3  0  0  0  0  0  0
  187.2130  178.0300  147.6290 C   0  0  0  0  0  3  0  0  0  0  0  0
  189.7350  172.9590  144.9720 C   0  0  0  0  0  2  0  0  0  0  0  0
  188.2650  175.2630  143.1070 C   0  0  0  0  0  3  0  0  0  0  0  0
  189.4580  173.0820  143.5110 C   0  0  0  0  0  0  0  0  0  0  0  0
  189.4110  174.3540  142.7430 C   0  0  1  0  0  3  0  0  0  0  0  0
  189.1830  172.5060  141.3440 N   0  0  0  0  0  0  0  0  0  0  0  0
  188.5730  174.5890  140.3620 N   0  0  0  0  0  0  0  0  0  0  0  0
  187.8180  175.5900  140.7130 C   0  0  0  0  0  3  0  0  0  0  0  0
  189.1880  173.7970  141.3800 C   0  0  0  0  0  0  0  0  0  0  0  0
  189.4030  172.0530  142.6760 C   0  0  0  0  0  3  0  0  0  0  0  0
  187.5620  175.8840  142.1490 C   0  0  0  0  0  3  0  0  0  0  0  0
  1  2  1  0  0  0  0
  2  5  2  0  0  0  0
  2  8  1  0  0  0  0
  3  5  1  0  0  0  0
  4  6  1  0  0  0  0
  4  1  2  0  0  0  0
  6  3  2  0  0  0  0
  7 13  1  0  0  0  0
  7  8  1  0  0  0  0
  8  9  2  0  0  0  0
 10 14  1  0  0  0  0
 10 15  2  0  0  0  0
 11 14  1  0  0  0  0
 11 13  2  0  0  0  0
 13 16  1  0  0  0  0
 15 12  1  0  0  0  0
 16 12  2  0  0  0  0
 17  1  1  0  0  0  0
 19 17  1  0  0  0  0
 20 18  1  1  0  0  0
 20 19  1  0  0  0  0
 21 24  2  0  0  0  0
 21 25  1  0  0  0  0
 22 23  2  0  0  0  0
 22 24  1  0  0  0  0
 23 26  1  0  0  0  0
 24 20  1  0  0  0  0
 25 19  2  0  0  0  0
 26 18  2  0  0  0  0
M  END
>  <MODEL>
6

>  <REMARK>
 VINA RESULT:      -7.2      2.645      6.540
  Name = 
  4 active torsions:
  status: ('A' for Active; 'I' for Inactive)
    1  A    between atoms: C_2  and  C_18
    2  A    between atoms: C_4  and  C_13
    3  A    between atoms: N_5  and  C_20
    4  A    between atoms: C_7  and  C_18
                            x       y       z     vdW  Elec       q    Type
                         _______ _______ _______ _____ _____    ______ ____

>  <TORSDO>
F 4

$$$$
=
 OpenBabel11042416113D

 26 29  0  0  1  0  0  0  0  0999 V2000
  189.6700  174.0530  142.3900 C   0  0  0  0  0  0  0  0  0  0  0  0
  188.7320  174.7670  141.6110 C   0  0  0  0  0  0  0  0  0  0  0  0
  189.1730  173.2510  139.8110 N   0  0  0  0  0  0  0  0  0  0  0  0
  190.3130  172.9830  141.8490 N   0  0  0  0  0  0  0  0  0  0  0  0
  188.5090  174.3300  140.3010 C   0  0  0  0  0  3  0  0  0  0  0  0
  190.0690  172.5800  140.5770 C   0  0  0  0  0  3  0  0  0  0  0  0
  186.7110  175.7660  142.7330 N   0  0  0  0  0  2  0  0  0  0  0  0
  187.9880  175.9490  142.1030 C   0  0  0  0  0  0  0  0  0  0  0  0
  188.4580  177.1080  141.9500 O   0  0  0  0  0  0  0  0  0  0  0  0
  184.9130  179.5970  144.1110 C   0  0  0  0  0  3  0  0  0  0  0  0
  185.0780  177.5300  142.7570 C   0  0  0  0  0  3  0  0  0  0  0  0
  186.0960  178.0080  145.6190 C   0  0  0  0  0  3  0  0  0  0  0  0
  185.9530  176.7680  143.4260 C   0  0  0  0  0  0  0  0  0  0  0  0
  184.1640  178.5220  143.3960 C   0  0  0  0  0  2  0  0  0  0  0  0
  185.7340  179.3530  145.1290 C   0  0  0  0  0  3  0  0  0  0  0  0
  186.1880  176.8960  144.8800 C   0  0  0  0  0  3  0  0  0  0  0  0
  190.0380  174.4780  143.7780 C   0  0  0  0  0  2  0  0  0  0  0  0
  192.0400  175.5450  146.1860 C   0  0  0  0  0  3  0  0  0  0  0  0
  191.3420  175.2030  143.7910 C   0  0  0  0  0  0  0  0  0  0  0  0
  192.4100  175.0470  144.8130 C   0  0  1  0  0  3  0  0  0  0  0  0
  193.0870  176.4490  143.0820 N   0  0  0  0  0  0  0  0  0  0  0  0
  194.4420  176.5450  145.0390 N   0  0  0  0  0  0  0  0  0  0  0  0
  194.2150  176.6820  146.3140 C   0  0  0  0  0  3  0  0  0  0  0  0
  193.4370  175.9460  144.2190 C   0  0  0  0  0  0  0  0  0  0  0  0
  191.7900  175.9440  142.7850 C   0  0  0  0  0  3  0  0  0  0  0  0
  192.9160  176.2610  146.9060 C   0  0  0  0  0  3  0  0  0  0  0  0
  1 17  1  0  0  0  0
  2  8  1  0  0  0  0
  2  1  2  0  0  0  0
  3  5  2  0  0  0  0
  3  6  1  0  0  0  0
  4  1  1  0  0  0  0
  5  2  1  0  0  0  0
  6  4  2  0  0  0  0
  7 13  1  0  0  0  0
  8  7  1  0  0  0  0
  9  8  2  0  0  0  0
 10 15  2  0  0  0  0
 11 14  1  0  0  0  0
 11 13  2  0  0  0  0
 13 16  1  0  0  0  0
 14 10  1  0  0  0  0
 15 12  1  0  0  0  0
 16 12  2  0  0  0  0
 17 19  1  0  0  0  0
 18 26  2  0  0  0  0
 19 20  1  0  0  0  0
 20 18  1  1  0  0  0
 21 24  2  0  0  0  0
 22 23  2  0  0  0  0
 23 26  1  0  0  0  0
 24 20  1  0  0  0  0
 24 22  1  0  0  0  0
 25 21  1  0  0  0  0
 25 19  2  0  0  0  0
M  END
>  <MODEL>
7

>  <REMARK>
 VINA RESULT:      -7.1      2.277      6.505
  Name = 
  4 active torsions:
  status: ('A' for Active; 'I' for Inactive)
    1  A    between atoms: C_2  and  C_18
    2  A    between atoms: C_4  and  C_13
    3  A    between atoms: N_5  and  C_20
    4  A    between atoms: C_7  and  C_18
                            x       y       z     vdW  Elec       q    Type
                         _______ _______ _______ _____ _____    ______ ____

>  <TORSDO>
F 4

$$$$
=
 OpenBabel11042416113D

 26 29  0  0  1  0  0  0  0  0999 V2000
  189.1690  176.7280  145.0840 C   0  0  0  0  0  0  0  0  0  0  0  0
  190.0720  175.7870  145.6300 C   0  0  0  0  0  0  0  0  0  0  0  0
  188.4560  175.3270  147.3350 N   0  0  0  0  0  0  0  0  0  0  0  0
  187.9640  176.9260  145.6840 N   0  0  0  0  0  0  0  0  0  0  0  0
  189.6720  175.0960  146.7800 C   0  0  0  0  0  3  0  0  0  0  0  0
  187.6050  176.2340  146.7940 C   0  0  0  0  0  3  0  0  0  0  0  0
  192.5230  176.3260  145.4360 N   0  0  0  0  0  2  0  0  0  0  0  0
  191.4080  175.5050  145.0590 C   0  0  0  0  0  0  0  0  0  0  0  0
  191.5630  174.5680  144.2310 O   0  0  0  0  0  0  0  0  0  0  0  0
  196.3260  174.9310  143.5910 C   0  0  0  0  0  3  0  0  0  0  0  0
  194.4030  176.4510  143.9420 C   0  0  0  0  0  3  0  0  0  0  0  0
  195.7550  174.6010  145.9930 C   0  0  0  0  0  3  0  0  0  0  0  0
  193.9030  176.0810  145.1290 C   0  0  0  0  0  0  0  0  0  0  0  0
  195.8430  176.3420  143.5640 C   0  0  0  0  0  2  0  0  0  0  0  0
  196.3210  174.1860  144.6940 C   0  0  0  0  0  3  0  0  0  0  0  0
  194.7130  175.4210  146.1740 C   0  0  0  0  0  3  0  0  0  0  0  0
  189.5230  177.5730  143.9000 C   0  0  0  0  0  2  0  0  0  0  0  0
  186.5670  178.6160  142.8420 C   0  0  0  0  0  3  0  0  0  0  0  0
  188.6690  177.2350  142.7240 C   0  0  0  0  0  0  0  0  0  0  0  0
  187.7500  178.1700  142.0230 C   0  0  1  0  0  3  0  0  0  0  0  0
  187.8540  176.1090  140.9440 N   0  0  0  0  0  0  0  0  0  0  0  0
  186.0330  177.4970  140.2840 N   0  0  0  0  0  0  0  0  0  0  0  0
  185.1150  178.1750  140.9100 C   0  0  0  0  0  3  0  0  0  0  0  0
  187.2860  177.2690  140.9320 C   0  0  0  0  0  0  0  0  0  0  0  0
  188.7610  176.1010  142.0400 C   0  0  0  0  0  3  0  0  0  0  0  0
  185.3440  178.6720  142.2930 C   0  0  0  0  0  3  0  0  0  0  0  0
  1  2  2  0  0  0  0
  1  4  1  0  0  0  0
  2  5  1  0  0  0  0
  4  6  2  0  0  0  0
  5  3  2  0  0  0  0
  6  3  1  0  0  0  0
  8  7  1  0  0  0  0
  8  2  1  0  0  0  0
  9  8  2  0  0  0  0
 10 15  2  0  0  0  0
 11 13  2  0  0  0  0
 12 16  2  0  0  0  0
 13  7  1  0  0  0  0
 13 16  1  0  0  0  0
 14 10  1  0  0  0  0
 14 11  1  0  0  0  0
 15 12  1  0  0  0  0
 17  1  1  0  0  0  0
 19 17  1  0  0  0  0
 20 19  1  0  0  0  0
 20 18  1  1  0  0  0
 21 25  1  0  0  0  0
 22 23  2  0  0  0  0
 22 24  1  0  0  0  0
 23 26  1  0  0  0  0
 24 21  2  0  0  0  0
 24 20  1  0  0  0  0
 25 19  2  0  0  0  0
 26 18  2  0  0  0  0
M  END
>  <MODEL>
8

>  <REMARK>
 VINA RESULT:      -7.0      2.459      4.928
  Name = 
  4 active torsions:
  status: ('A' for Active; 'I' for Inactive)
    1  A    between atoms: C_2  and  C_18
    2  A    between atoms: C_4  and  C_13
    3  A    between atoms: N_5  and  C_20
    4  A    between atoms: C_7  and  C_18
                            x       y       z     vdW  Elec       q    Type
                         _______ _______ _______ _____ _____    ______ ____

>  <TORSDO>
F 4

$$$$
=
 OpenBabel11042416113D

 26 29  0  0  1  0  0  0  0  0999 V2000
  192.0930  176.6590  144.6030 C   0  0  0  0  0  0  0  0  0  0  0  0
  191.3080  176.4010  145.7490 C   0  0  0  0  0  0  0  0  0  0  0  0
  193.3040  176.5310  147.0640 N   0  0  0  0  0  0  0  0  0  0  0  0
  193.4360  176.8380  144.7370 N   0  0  0  0  0  0  0  0  0  0  0  0
  191.9630  176.3390  146.9840 C   0  0  0  0  0  3  0  0  0  0  0  0
  194.0390  176.7790  145.9510 C   0  0  0  0  0  3  0  0  0  0  0  0
  188.9630  177.3170  145.7050 N   0  0  0  0  0  2  0  0  0  0  0  0
  189.8440  176.1840  145.7080 C   0  0  0  0  0  0  0  0  0  0  0  0
  189.3720  175.0150  145.6990 O   0  0  0  0  0  0  0  0  0  0  0  0
  184.7440  178.4040  144.7970 C   0  0  0  0  0  3  0  0  0  0  0  0
  187.0480  177.6530  144.2900 C   0  0  0  0  0  3  0  0  0  0  0  0
  185.4510  177.2530  146.8880 C   0  0  0  0  0  3  0  0  0  0  0  0
  187.5460  177.2930  145.4810 C   0  0  0  0  0  0  0  0  0  0  0  0
  185.6060  177.5610  143.9180 C   0  0  0  0  0  2  0  0  0  0  0  0
  184.6530  178.2220  146.1120 C   0  0  0  0  0  3  0  0  0  0  0  0
  186.6990  176.8540  146.6100 C   0  0  0  0  0  3  0  0  0  0  0  0
  191.5070  176.6750  143.2250 C   0  0  0  0  0  2  0  0  0  0  0  0
  188.7540  175.1230  142.2460 C   0  0  0  0  0  3  0  0  0  0  0  0
  191.2160  175.2910  142.7490 C   0  0  0  0  0  0  0  0  0  0  0  0
  190.1670  174.9160  141.7650 C   0  0  1  0  0  3  0  0  0  0  0  0
  191.4670  173.0800  142.3640 N   0  0  0  0  0  0  0  0  0  0  0  0
  189.4290  172.5450  141.2520 N   0  0  0  0  0  0  0  0  0  0  0  0
  188.1810  172.8900  141.3950 C   0  0  0  0  0  3  0  0  0  0  0  0
  190.4480  173.4570  141.6660 C   0  0  0  0  0  0  0  0  0  0  0  0
  191.9830  174.2400  143.0090 C   0  0  0  0  0  3  0  0  0  0  0  0
  187.8160  174.1920  142.0150 C   0  0  0  0  0  3  0  0  0  0  0  0
  1  4  2  0  0  0  0
  1  2  1  0  0  0  0
  2  5  2  0  0  0  0
  4  6  1  0  0  0  0
  5  3  1  0  0  0  0
  6  3  2  0  0  0  0
  7  8  1  0  0  0  0
  8  2  1  0  0  0  0
  9  8  2  0  0  0  0
 10 15  2  0  0  0  0
 11 13  2  0  0  0  0
 13  7  1  0  0  0  0
 13 16  1  0  0  0  0
 14 11  1  0  0  0  0
 14 10  1  0  0  0  0
 15 12  1  0  0  0  0
 16 12  2  0  0  0  0
 17  1  1  0  0  0  0
 19 25  2  0  0  0  0
 19 17  1  0  0  0  0
 20 18  1  1  0  0  0
 20 19  1  0  0  0  0
 21 25  1  0  0  0  0
 22 23  2  0  0  0  0
 22 24  1  0  0  0  0
 23 26  1  0  0  0  0
 24 20  1  0  0  0  0
 24 21  2  0  0  0  0
 26 18  2  0  0  0  0
M  END
>  <MODEL>
9

>  <REMARK>
 VINA RESULT:      -7.0      2.622      6.751
  Name = 
  4 active torsions:
  status: ('A' for Active; 'I' for Inactive)
    1  A    between atoms: C_2  and  C_18
    2  A    between atoms: C_4  and  C_13
    3  A    between atoms: N_5  and  C_20
    4  A    between atoms: C_7  and  C_18
                            x       y       z     vdW  Elec       q    Type
                         _______ _______ _______ _____ _____    ______ ____

>  <TORSDO>
F 4

$$$$
