=
 OpenBabel11042418173D

 68 76  0  0  1  0  0  0  0  0999 V2000
  183.8410  179.0930  145.0370 C   0  0  0  0  0  1  0  0  0  0  0  0
  184.4520  178.1380  141.4610 O   0  0  0  0  0  0  0  0  0  0  0  0
  186.0270  178.6860  143.7330 C   0  0  2  0  0  3  0  0  0  0  0  0
  184.5170  178.6770  143.7760 C   0  0  0  0  0  0  0  0  0  0  0  0
  186.5680  178.4980  142.3860 N   0  0  0  0  0  0  0  0  0  0  0  0
  183.8010  178.4140  142.6730 C   0  0  0  0  0  0  0  0  0  0  0  0
  185.8450  178.2330  141.3450 C   0  0  0  0  0  0  0  0  0  0  0  0
  186.4840  178.0710  140.1170 O   0  0  0  0  0  0  0  0  0  0  0  0
  186.9900  176.8240  139.6640 C   0  0  0  0  0  2  0  0  0  0  0  0
  187.6420  176.0820  140.8280 C   0  0  0  0  0  2  0  0  0  0  0  0
  188.3220  174.7920  140.3910 C   0  0  0  0  0  2  0  0  0  0  0  0
  189.8400  172.9820  141.3110 C   0  0  1  0  0  0  0  0  0  0  0  0
  188.4840  172.6470  141.4350 O   0  0  0  0  0  0  0  0  0  0  0  0
  188.8040  174.0080  141.6100 C   0  0  2  0  0  3  0  0  0  0  0  0
  190.6230  172.4550  142.5230 C   0  0  1  0  0  0  0  0  0  0  0  0
  189.7810  171.8930  143.4940 O   0  0  0  0  0  0  0  0  0  0  0  0
  190.4660  170.9970  142.6550 C   0  0  2  0  0  3  0  0  0  0  0  0
  191.6330  171.5690  142.1330 O   0  0  0  0  0  0  0  0  0  0  0  0
  190.3160  172.7160  139.8790 C   0  0  0  0  0  2  0  0  0  0  0  0
  189.7020  171.5680  139.3720 O   0  0  0  0  0  0  0  0  0  0  0  0
  191.3760  172.4080  136.6100 C   0  0  0  0  0  2  0  0  0  0  0  0
  191.8880  170.4110  135.5110 C   0  0  0  0  0  2  0  0  0  0  0  0
  190.6500  170.9990  138.5180 C   0  0  1  0  0  3  0  0  0  0  0  0
  190.5460  169.4870  138.5760 C   0  0  0  0  0  2  0  0  0  0  0  0
  190.5670  170.1900  136.2240 C   0  0  1  0  0  3  0  0  0  0  0  0
  192.4440  171.7110  135.8930 N   0  0  2  0  0  0  0  0  0  0  0  0
  190.6640  168.9860  137.1410 C   0  0  0  0  0  2  0  0  0  0  0  0
  190.3550  171.4020  137.0860 C   0  0  2  0  0  3  0  0  0  0  0  0
  195.1010  169.9230  135.6880 C   0  0  0  0  0  3  0  0  0  0  0  0
  194.7080  172.5690  136.6150 C   0  0  2  0  0  3  0  0  0  0  0  0
  194.2690  173.9440  136.4350 N   0  0  0  0  0  0  0  0  0  0  0  0
  194.1880  170.1700  136.5920 N   0  0  0  0  0  0  0  0  0  0  0  0
  195.4110  173.3380  134.5590 N   0  0  0  0  0  0  0  0  0  0  0  0
  195.3850  172.3100  135.3350 C   0  0  0  0  0  0  0  0  0  0  0  0
  194.7240  174.3480  135.2890 C   0  0  0  0  0  3  0  0  0  0  0  0
  193.5930  171.5100  136.8030 C   0  0  2  0  0  3  0  0  0  0  0  0
  195.6580  170.9850  134.9020 N   0  0  0  0  0  2  0  0  0  0  0  0
  186.6090  177.6330  144.6750 C   0  0  0  0  0  2  0  0  0  0  0  0
  188.1290  177.5470  144.5570 C   0  0  0  0  0  2  0  0  0  0  0  0
  188.6550  176.1590  144.9020 C   0  0  2  0  0  3  0  0  0  0  0  0
  188.3550  175.7900  146.3470 C   0  0  0  0  0  1  0  0  0  0  0  0
  190.1410  176.0120  144.5690 C   0  0  0  0  0  2  0  0  0  0  0  0
  191.0450  176.2560  145.7390 C   0  0  0  0  0  0  0  0  0  0  0  0
  190.7340  177.0790  146.5860 O   0  0  0  0  0  0  0  0  0  0  0  0
  192.1950  174.2830  145.1420 O   0  0  0  0  0  1  0  0  0  0  0  0
  192.3030  175.4630  145.8780 C   0  0  1  0  0  3  0  0  0  0  0  0
  193.5290  176.2560  145.4230 C   0  0  1  0  0  3  0  0  0  0  0  0
  194.1640  176.8780  146.5050 O   0  0  0  0  0  1  0  0  0  0  0  0
  194.5050  175.3630  144.6460 C   0  0  2  0  0  3  0  0  0  0  0  0
  196.8230  174.7370  144.8520 O   0  0  0  0  0  1  0  0  0  0  0  0
  195.5960  174.7200  145.5190 C   0  0  2  0  0  3  0  0  0  0  0  0
  195.2480  173.2830  145.8850 C   0  0  0  0  0  2  0  0  0  0  0  0
  194.4320  171.5780  144.2810 C   0  0  0  0  0  1  0  0  0  0  0  0
  196.6010  171.4090  145.2430 O   0  0  0  0  0  1  0  0  0  0  0  0
  195.6550  172.3270  144.7730 C   0  0  2  0  0  3  0  0  0  0  0  0
  195.1270  176.1840  143.5290 C   0  0  0  0  0  2  0  0  0  0  0  0
  194.5550  175.7810  142.2150 C   0  0  0  0  0  0  0  0  0  0  0  0
  193.6970  174.6900  142.1340 O   0  0  0  0  0  1  0  0  0  0  0  0
  194.8150  176.4510  141.1790 O   0  0  0  0  0  0  0  0  0  0  0  0
  182.4050  178.4240  142.7340 O   0  0  0  0  0  0  0  0  0  0  0  0
  181.5830  178.3120  141.5780 C   0  0  0  0  0  2  0  0  0  0  0  0
  179.5610  179.2040  142.6810 C   0  0  0  0  0  2  0  0  0  0  0  0
  180.5270  179.4110  141.5350 C   0  0  2  0  0  3  0  0  0  0  0  0
  178.3050  178.8730  140.8550 C   0  0  1  0  0  3  0  0  0  0  0  0
  178.4420  178.5010  142.2020 O   0  0  0  0  0  0  0  0  0  0  0  0
  179.6630  179.2540  140.3140 C   0  0  0  0  0  2  0  0  0  0  0  0
  177.7600  177.7110  140.0490 C   0  0  0  0  0  2  0  0  0  0  0  0
  178.4940  177.5510  138.8750 O   0  0  0  0  0  1  0  0  0  0  0  0
  2  6  1  0  0  0  0
  3  4  1  0  0  0  0
  3 38  1  1  0  0  0
  4  1  1  0  0  0  0
  5  3  1  0  0  0  0
  6 60  1  0  0  0  0
  6  4  2  0  0  0  0
  7  2  1  0  0  0  0
  7  5  2  0  0  0  0
  8  7  1  0  0  0  0
  9  8  1  0  0  0  0
  9 10  1  0  0  0  0
 11 10  1  0  0  0  0
 12 19  1  6  0  0  0
 12 13  1  0  0  0  0
 12 14  1  0  0  0  0
 12 15  1  0  0  0  0
 13 14  1  0  0  0  0
 14 11  1  6  0  0  0
 15 18  1  1  0  0  0
 15 17  1  0  0  0  0
 15 16  1  0  0  0  0
 17 18  1  1  0  0  0
 17 16  1  0  0  0  0
 20 19  1  0  0  0  0
 23 24  1  0  0  0  0
 23 20  1  1  0  0  0
 25 22  1  1  0  0  0
 25 28  1  0  0  0  0
 25 27  1  0  0  0  0
 26 22  1  1  0  0  0
 26 21  1  0  0  0  0
 26 36  1  0  0  0  0
 27 24  1  0  0  0  0
 28 21  1  6  0  0  0
 28 23  1  0  0  0  0
 29 32  2  0  0  0  0
 30 34  1  6  0  0  0
 30 36  1  0  0  0  0
 31 30  1  0  0  0  0
 33 35  1  0  0  0  0
 33 34  2  0  0  0  0
 35 31  2  0  0  0  0
 36 32  1  6  0  0  0
 37 34  1  0  0  0  0
 37 29  1  0  0  0  0
 39 38  1  0  0  0  0
 39 40  1  0  0  0  0
 40 41  1  1  0  0  0
 42 40  1  0  0  0  0
 42 43  1  0  0  0  0
 43 46  1  0  0  0  0
 43 44  2  0  0  0  0
 46 45  1  6  0  0  0
 47 46  1  0  0  0  0
 47 48  1  1  0  0  0
 49 56  1  6  0  0  0
 49 47  1  0  0  0  0
 49 51  1  0  0  0  0
 51 50  1  6  0  0  0
 51 52  1  0  0  0  0
 55 53  1  1  0  0  0
 55 54  1  0  0  0  0
 55 52  1  0  0  0  0
 57 56  1  0  0  0  0
 58 57  1  0  0  0  0
 59 57  2  0  0  0  0
 61 60  1  0  0  0  0
 63 61  1  6  0  0  0
 63 62  1  0  0  0  0
 64 67  1  6  0  0  0
 64 65  1  0  0  0  0
 65 62  1  0  0  0  0
 66 64  1  0  0  0  0
 66 63  1  0  0  0  0
 68 67  1  0  0  0  0
M  END
>  <MODEL>
1

>  <REMARK>
 VINA RESULT:      -6.1      0.000      0.000
  Name = 
  27 active torsions:
  status: ('A' for Active; 'I' for Inactive)
    1  A    between atoms: C_2  and  C_39
    2  A    between atoms: C_5  and  C_22
    3  A    between atoms: C_5  and  C_42
    4  A    between atoms: C_6  and  C_31
    5  A    between atoms: C_8  and  C_22
    6  A    between atoms: C_8  and  C_59
    7  A    between atoms: C_11  and  C_46
    8  A    between atoms: C_11  and  C_57
    9  A    between atoms: C_15  and  C_63
   10  A    between atoms: C_16  and  C_32
   11  A    between atoms: C_18  and  C_59
   12  A    between atoms: C_21  and  O_66
   13  A    between atoms: C_24  and  C_25
   14  A    between atoms: C_24  and  C_60
   15  A    between atoms: O_26  and  C_53
   16  A    between atoms: O_26  and  C_63
   17  A    between atoms: C_31  and  C_33
   18  A    between atoms: C_33  and  O_66
   19  A    between atoms: O_35  and  C_58
   20  A    between atoms: O_35  and  C_67
   21  A    between atoms: C_39  and  C_65
   22  A    between atoms: N_41  and  C_50
   23  A    between atoms: C_42  and  C_49
   24  A    between atoms: C_45  and  C_49
   25  A    between atoms: C_45  and  C_65
   26  A    between atoms: C_46  and  C_58
   27  A    between atoms: C_60  and  C_65
                            x       y       z     vdW  Elec       q    Type
                         _______ _______ _______ _____ _____    ______ ____

>  <TORSDO>
F 27

$$$$
=
 OpenBabel11042418173D

 68 76  0  0  1  0  0  0  0  0999 V2000
  185.7380  178.4110  143.1930 C   0  0  0  0  0  1  0  0  0  0  0  0
  184.7700  177.5030  139.6840 O   0  0  0  0  0  0  0  0  0  0  0  0
  187.0610  177.2540  141.3060 C   0  0  2  0  0  3  0  0  0  0  0  0
  185.7640  177.8370  141.8180 C   0  0  0  0  0  0  0  0  0  0  0  0
  187.0320  176.9470  139.8760 N   0  0  0  0  0  0  0  0  0  0  0  0
  184.6960  177.9420  141.0150 C   0  0  0  0  0  0  0  0  0  0  0  0
  185.9760  177.0490  139.1340 C   0  0  0  0  0  0  0  0  0  0  0  0
  186.0790  176.7210  137.7830 O   0  0  0  0  0  0  0  0  0  0  0  0
  187.3180  176.4530  137.1420 C   0  0  0  0  0  2  0  0  0  0  0  0
  187.4790  174.9480  136.9480 C   0  0  0  0  0  2  0  0  0  0  0  0
  188.8440  174.4430  137.3940 C   0  0  0  0  0  2  0  0  0  0  0  0
  190.1450  172.2680  137.4370 C   0  0  1  0  0  0  0  0  0  0  0  0
  189.2320  172.3170  136.3730 O   0  0  0  0  0  0  0  0  0  0  0  0
  188.8170  172.9280  137.5730 C   0  0  2  0  0  3  0  0  0  0  0  0
  190.2330  170.8360  137.9850 C   0  0  1  0  0  0  0  0  0  0  0  0
  190.4010  169.8870  136.9660 O   0  0  0  0  0  0  0  0  0  0  0  0
  191.5500  170.2440  137.6930 C   0  0  2  0  0  3  0  0  0  0  0  0
  191.2250  170.7260  138.9670 O   0  0  0  0  0  0  0  0  0  0  0  0
  191.4040  173.0660  137.0850 C   0  0  0  0  0  2  0  0  0  0  0  0
  191.7840  173.8670  138.1650 O   0  0  0  0  0  0  0  0  0  0  0  0
  194.0890  174.3300  140.5330 C   0  0  0  0  0  2  0  0  0  0  0  0
  196.1560  174.3760  139.4470 C   0  0  0  0  0  2  0  0  0  0  0  0
  193.1360  173.5810  138.3690 C   0  0  1  0  0  3  0  0  0  0  0  0
  193.8390  173.4580  137.0310 C   0  0  0  0  0  2  0  0  0  0  0  0
  195.1430  174.9540  138.4780 C   0  0  1  0  0  3  0  0  0  0  0  0
  195.4680  173.8520  140.6290 N   0  0  2  0  0  0  0  0  0  0  0  0
  195.1720  174.1840  137.1710 C   0  0  0  0  0  2  0  0  0  0  0  0
  193.7970  174.7300  139.1060 C   0  0  2  0  0  3  0  0  0  0  0  0
  197.8330  171.6840  140.5250 C   0  0  0  0  0  3  0  0  0  0  0  0
  195.4150  171.7290  141.9980 C   0  0  2  0  0  3  0  0  0  0  0  0
  194.4980  172.3380  142.9480 N   0  0  0  0  0  0  0  0  0  0  0  0
  196.6950  171.8820  139.9090 N   0  0  0  0  0  0  0  0  0  0  0  0
  196.5970  172.5100  143.8150 N   0  0  0  0  0  0  0  0  0  0  0  0
  196.7090  171.9450  142.6640 C   0  0  0  0  0  0  0  0  0  0  0  0
  195.1990  172.7210  143.9700 C   0  0  0  0  0  3  0  0  0  0  0  0
  195.4750  172.3730  140.5900 C   0  0  2  0  0  3  0  0  0  0  0  0
  197.9320  171.8430  141.9470 N   0  0  0  0  0  2  0  0  0  0  0  0
  187.4490  176.0040  142.0950 C   0  0  0  0  0  2  0  0  0  0  0  0
  188.8180  175.4730  141.6750 C   0  0  0  0  0  2  0  0  0  0  0  0
  188.7360  174.0640  141.1000 C   0  0  2  0  0  3  0  0  0  0  0  0
  187.6550  173.2420  141.7850 C   0  0  0  0  0  1  0  0  0  0  0  0
  190.0930  173.3590  141.1210 C   0  0  0  0  0  2  0  0  0  0  0  0
  190.3720  172.6330  142.4010 C   0  0  0  0  0  0  0  0  0  0  0  0
  190.1240  171.4390  142.4890 O   0  0  0  0  0  0  0  0  0  0  0  0
  191.6630  174.4890  143.0750 O   0  0  0  0  0  1  0  0  0  0  0  0
  190.9870  173.3650  143.5480 C   0  0  1  0  0  3  0  0  0  0  0  0
  189.9410  173.7790  144.5850 C   0  0  1  0  0  3  0  0  0  0  0  0
  189.7390  172.7700  145.5360 O   0  0  0  0  0  1  0  0  0  0  0  0
  190.3250  175.1040  145.2560 C   0  0  2  0  0  3  0  0  0  0  0  0
  191.4010  175.1050  147.4110 O   0  0  0  0  0  1  0  0  0  0  0  0
  191.6480  175.0500  146.0380 C   0  0  2  0  0  3  0  0  0  0  0  0
  192.5760  176.1940  145.6520 C   0  0  0  0  0  2  0  0  0  0  0  0
  194.5850  177.5000  146.2860 C   0  0  0  0  0  1  0  0  0  0  0  0
  194.6030  175.1230  146.3560 O   0  0  0  0  0  1  0  0  0  0  0  0
  193.7890  176.2410  146.5680 C   0  0  2  0  0  3  0  0  0  0  0  0
  189.1840  175.5370  146.1610 C   0  0  0  0  0  2  0  0  0  0  0  0
  188.9710  177.0060  146.0540 C   0  0  0  0  0  0  0  0  0  0  0  0
  189.0960  177.8120  147.1810 O   0  0  0  0  0  1  0  0  0  0  0  0
  188.7160  177.5300  144.9360 O   0  0  0  0  0  0  0  0  0  0  0  0
  183.5110  178.4960  141.5060 O   0  0  0  0  0  0  0  0  0  0  0  0
  182.2320  177.9220  141.2610 C   0  0  0  0  0  2  0  0  0  0  0  0
  180.5970  179.4550  142.2980 C   0  0  0  0  0  2  0  0  0  0  0  0
  181.1830  178.9920  140.9820 C   0  0  2  0  0  3  0  0  0  0  0  0
  178.8730  178.4680  141.2620 C   0  0  1  0  0  3  0  0  0  0  0  0
  179.4040  178.7480  142.5300 O   0  0  0  0  0  0  0  0  0  0  0  0
  180.0060  178.3930  140.2650 C   0  0  0  0  0  2  0  0  0  0  0  0
  178.1450  177.1390  141.2860 C   0  0  0  0  0  2  0  0  0  0  0  0
  178.0840  176.5990  140.0020 O   0  0  0  0  0  1  0  0  0  0  0  0
  2  6  1  0  0  0  0
  3  4  1  0  0  0  0
  3 38  1  1  0  0  0
  4  1  1  0  0  0  0
  5  3  1  0  0  0  0
  6 60  1  0  0  0  0
  6  4  2  0  0  0  0
  7  2  1  0  0  0  0
  7  5  2  0  0  0  0
  8  7  1  0  0  0  0
  9  8  1  0  0  0  0
 10  9  1  0  0  0  0
 10 11  1  0  0  0  0
 12 19  1  6  0  0  0
 12 14  1  0  0  0  0
 12 15  1  0  0  0  0
 13 12  1  0  0  0  0
 13 14  1  0  0  0  0
 14 11  1  6  0  0  0
 15 16  1  1  0  0  0
 15 18  1  0  0  0  0
 17 16  1  1  0  0  0
 17 15  1  0  0  0  0
 17 18  1  0  0  0  0
 19 20  1  0  0  0  0
 21 26  1  0  0  0  0
 23 20  1  6  0  0  0
 23 28  1  0  0  0  0
 24 27  1  0  0  0  0
 24 23  1  0  0  0  0
 25 27  1  6  0  0  0
 25 28  1  0  0  0  0
 25 22  1  0  0  0  0
 26 22  1  6  0  0  0
 28 21  1  1  0  0  0
 29 37  1  0  0  0  0
 30 34  1  1  0  0  0
 30 31  1  0  0  0  0
 31 35  2  0  0  0  0
 32 29  2  0  0  0  0
 33 35  1  0  0  0  0
 34 33  2  0  0  0  0
 36 32  1  1  0  0  0
 36 26  1  0  0  0  0
 36 30  1  0  0  0  0
 37 34  1  0  0  0  0
 39 38  1  0  0  0  0
 40 42  1  0  0  0  0
 40 39  1  0  0  0  0
 40 41  1  1  0  0  0
 42 43  1  0  0  0  0
 43 44  2  0  0  0  0
 43 46  1  0  0  0  0
 46 45  1  6  0  0  0
 46 47  1  0  0  0  0
 47 49  1  0  0  0  0
 47 48  1  1  0  0  0
 49 51  1  0  0  0  0
 49 56  1  1  0  0  0
 51 50  1  1  0  0  0
 52 51  1  0  0  0  0
 52 55  1  0  0  0  0
 54 55  1  0  0  0  0
 55 53  1  6  0  0  0
 57 56  1  0  0  0  0
 57 58  1  0  0  0  0
 59 57  2  0  0  0  0
 61 60  1  0  0  0  0
 62 65  1  0  0  0  0
 63 61  1  1  0  0  0
 63 62  1  0  0  0  0
 64 67  1  1  0  0  0
 64 65  1  0  0  0  0
 66 63  1  0  0  0  0
 66 64  1  0  0  0  0
 68 67  1  0  0  0  0
M  END
>  <MODEL>
2

>  <REMARK>
 VINA RESULT:      -6.1      2.574      4.831
  Name = 
  27 active torsions:
  status: ('A' for Active; 'I' for Inactive)
    1  A    between atoms: C_2  and  C_39
    2  A    between atoms: C_5  and  C_22
    3  A    between atoms: C_5  and  C_42
    4  A    between atoms: C_6  and  C_31
    5  A    between atoms: C_8  and  C_22
    6  A    between atoms: C_8  and  C_59
    7  A    between atoms: C_11  and  C_46
    8  A    between atoms: C_11  and  C_57
    9  A    between atoms: C_15  and  C_63
   10  A    between atoms: C_16  and  C_32
   11  A    between atoms: C_18  and  C_59
   12  A    between atoms: C_21  and  O_66
   13  A    between atoms: C_24  and  C_25
   14  A    between atoms: C_24  and  C_60
   15  A    between atoms: O_26  and  C_53
   16  A    between atoms: O_26  and  C_63
   17  A    between atoms: C_31  and  C_33
   18  A    between atoms: C_33  and  O_66
   19  A    between atoms: O_35  and  C_58
   20  A    between atoms: O_35  and  C_67
   21  A    between atoms: C_39  and  C_65
   22  A    between atoms: N_41  and  C_50
   23  A    between atoms: C_42  and  C_49
   24  A    between atoms: C_45  and  C_49
   25  A    between atoms: C_45  and  C_65
   26  A    between atoms: C_46  and  C_58
   27  A    between atoms: C_60  and  C_65
                            x       y       z     vdW  Elec       q    Type
                         _______ _______ _______ _____ _____    ______ ____

>  <TORSDO>
F 27

$$$$
=
 OpenBabel11042418173D

 68 76  0  0  1  0  0  0  0  0999 V2000
  183.4970  178.9200  143.8680 C   0  0  0  0  0  1  0  0  0  0  0  0
  184.0740  177.7570  140.3490 O   0  0  0  0  0  0  0  0  0  0  0  0
  185.6680  178.3820  142.5870 C   0  0  2  0  0  3  0  0  0  0  0  0
  184.1580  178.4170  142.6310 C   0  0  0  0  0  0  0  0  0  0  0  0
  186.2010  178.1060  141.2520 N   0  0  0  0  0  0  0  0  0  0  0  0
  183.4330  178.1160  141.5450 C   0  0  0  0  0  0  0  0  0  0  0  0
  185.4680  177.8060  140.2270 C   0  0  0  0  0  0  0  0  0  0  0  0
  186.0990  177.5590  139.0100 O   0  0  0  0  0  0  0  0  0  0  0  0
  186.1790  176.2680  138.4240 C   0  0  0  0  0  2  0  0  0  0  0  0
  187.6430  175.8710  138.2580 C   0  0  0  0  0  2  0  0  0  0  0  0
  187.8660  174.3730  138.4240 C   0  0  0  0  0  2  0  0  0  0  0  0
  189.7390  172.8420  137.6680 C   0  0  1  0  0  0  0  0  0  0  0  0
  190.0470  174.1950  137.4620 O   0  0  0  0  0  0  0  0  0  0  0  0
  188.6990  173.8300  137.2670 C   0  0  2  0  0  3  0  0  0  0  0  0
  190.3230  171.9930  136.5290 C   0  0  1  0  0  0  0  0  0  0  0  0
  191.3020  171.0980  136.9830 O   0  0  0  0  0  0  0  0  0  0  0  0
  190.0260  170.5650  136.7350 C   0  0  2  0  0  3  0  0  0  0  0  0
  189.3140  171.3400  135.8110 O   0  0  0  0  0  0  0  0  0  0  0  0
  189.9670  172.4710  139.1370 C   0  0  0  0  0  2  0  0  0  0  0  0
  191.1700  173.0190  139.5900 O   0  0  0  0  0  0  0  0  0  0  0  0
  192.8210  170.2020  140.2800 C   0  0  0  0  0  2  0  0  0  0  0  0
  191.9270  169.3800  142.2760 C   0  0  0  0  0  2  0  0  0  0  0  0
  191.5110  172.2620  140.7150 C   0  0  1  0  0  3  0  0  0  0  0  0
  190.5060  172.5150  141.8220 C   0  0  0  0  0  2  0  0  0  0  0  0
  190.7980  170.0920  141.5530 C   0  0  1  0  0  3  0  0  0  0  0  0
  193.1870  169.6000  141.5620 N   0  0  2  0  0  0  0  0  0  0  0  0
  190.1970  171.1590  142.4470 C   0  0  0  0  0  2  0  0  0  0  0  0
  191.4310  170.7850  140.3800 C   0  0  2  0  0  3  0  0  0  0  0  0
  194.2380  169.6320  144.5940 C   0  0  0  0  0  3  0  0  0  0  0  0
  195.5450  170.2760  142.1660 C   0  0  2  0  0  3  0  0  0  0  0  0
  196.0060  169.9470  140.8270 N   0  0  0  0  0  0  0  0  0  0  0  0
  193.6950  170.4880  143.7660 N   0  0  0  0  0  0  0  0  0  0  0  0
  196.4740  168.1670  142.1680 N   0  0  0  0  0  0  0  0  0  0  0  0
  195.8740  169.0430  142.8980 C   0  0  0  0  0  0  0  0  0  0  0  0
  196.5600  168.7760  140.8850 C   0  0  0  0  0  3  0  0  0  0  0  0
  194.0280  170.5480  142.3240 C   0  0  2  0  0  3  0  0  0  0  0  0
  195.2820  168.7530  144.1570 N   0  0  0  0  0  2  0  0  0  0  0  0
  186.2220  177.3640  143.5840 C   0  0  0  0  0  2  0  0  0  0  0  0
  186.8910  178.0480  144.7750 C   0  0  0  0  0  2  0  0  0  0  0  0
  188.0550  177.2320  145.3260 C   0  0  2  0  0  3  0  0  0  0  0  0
  187.9910  177.1170  146.8410 C   0  0  0  0  0  1  0  0  0  0  0  0
  189.4050  177.7700  144.8470 C   0  0  0  0  0  2  0  0  0  0  0  0
  189.7240  177.4120  143.4280 C   0  0  0  0  0  0  0  0  0  0  0  0
  189.6400  178.2610  142.5530 O   0  0  0  0  0  0  0  0  0  0  0  0
  189.5320  175.5850  141.9460 O   0  0  0  0  0  1  0  0  0  0  0  0
  190.1790  176.0280  143.1000 C   0  0  1  0  0  3  0  0  0  0  0  0
  191.6960  175.9560  142.9130 C   0  0  1  0  0  3  0  0  0  0  0  0
  192.2400  177.2230  142.6660 O   0  0  0  0  0  1  0  0  0  0  0  0
  192.3680  175.2890  144.1190 C   0  0  2  0  0  3  0  0  0  0  0  0
  194.6490  174.6890  144.6130 O   0  0  0  0  0  1  0  0  0  0  0  0
  193.5800  174.4140  143.7580 C   0  0  2  0  0  3  0  0  0  0  0  0
  194.0230  174.6360  142.3170 C   0  0  0  0  0  2  0  0  0  0  0  0
  195.9370  175.1690  140.8360 C   0  0  0  0  0  1  0  0  0  0  0  0
  196.0960  173.4380  142.4600 O   0  0  0  0  0  1  0  0  0  0  0  0
  195.5400  174.7000  142.2220 C   0  0  2  0  0  3  0  0  0  0  0  0
  191.3240  174.4760  144.8670 C   0  0  0  0  0  2  0  0  0  0  0  0
  191.1430  175.0120  146.2440 C   0  0  0  0  0  0  0  0  0  0  0  0
  192.0450  175.9400  146.7540 O   0  0  0  0  0  0  0  0  0  0  0  0
  190.1520  174.6570  146.9370 O   0  0  0  0  0  1  0  0  0  0  0  0
  182.0380  178.1700  141.6060 O   0  0  0  0  0  0  0  0  0  0  0  0
  181.2760  179.1700  140.9400 C   0  0  0  0  0  2  0  0  0  0  0  0
  178.9320  179.7250  140.3950 C   0  0  0  0  0  2  0  0  0  0  0  0
  179.9570  178.6120  140.4180 C   0  0  2  0  0  3  0  0  0  0  0  0
  178.1380  178.2980  141.9290 C   0  0  1  0  0  3  0  0  0  0  0  0
  178.1690  179.6550  141.5730 O   0  0  0  0  0  0  0  0  0  0  0  0
  179.3840  177.6270  141.3980 C   0  0  0  0  0  2  0  0  0  0  0  0
  178.1060  178.1570  143.4380 C   0  0  0  0  0  2  0  0  0  0  0  0
  178.2040  179.4100  144.0410 O   0  0  0  0  0  1  0  0  0  0  0  0
  2  6  1  0  0  0  0
  3  4  1  0  0  0  0
  3 38  1  1  0  0  0
  4  1  1  0  0  0  0
  5  3  1  0  0  0  0
  6 60  1  0  0  0  0
  6  4  2  0  0  0  0
  7  2  1  0  0  0  0
  7  5  2  0  0  0  0
  8  7  1  0  0  0  0
  9  8  1  0  0  0  0
 10  9  1  0  0  0  0
 10 11  1  0  0  0  0
 12 19  1  1  0  0  0
 13 12  1  0  0  0  0
 14 13  1  0  0  0  0
 14 12  1  0  0  0  0
 14 11  1  1  0  0  0
 15 18  1  6  0  0  0
 15 17  1  0  0  0  0
 15 16  1  0  0  0  0
 15 12  1  0  0  0  0
 17 18  1  6  0  0  0
 17 16  1  0  0  0  0
 19 20  1  0  0  0  0
 23 20  1  6  0  0  0
 23 24  1  0  0  0  0
 24 27  1  0  0  0  0
 25 22  1  1  0  0  0
 25 27  1  0  0  0  0
 26 21  1  6  0  0  0
 26 22  1  0  0  0  0
 26 36  1  0  0  0  0
 28 21  1  1  0  0  0
 28 23  1  0  0  0  0
 28 25  1  0  0  0  0
 30 31  1  6  0  0  0
 30 36  1  0  0  0  0
 30 34  1  0  0  0  0
 31 35  2  0  0  0  0
 32 29  2  0  0  0  0
 33 34  2  0  0  0  0
 34 37  1  0  0  0  0
 35 33  1  0  0  0  0
 36 32  1  1  0  0  0
 37 29  1  0  0  0  0
 38 39  1  0  0  0  0
 39 40  1  0  0  0  0
 40 41  1  1  0  0  0
 42 40  1  0  0  0  0
 43 42  1  0  0  0  0
 44 43  2  0  0  0  0
 46 45  1  6  0  0  0
 46 43  1  0  0  0  0
 47 48  1  1  0  0  0
 47 46  1  0  0  0  0
 47 49  1  0  0  0  0
 49 56  1  6  0  0  0
 51 49  1  0  0  0  0
 51 50  1  1  0  0  0
 52 51  1  0  0  0  0
 55 53  1  6  0  0  0
 55 52  1  0  0  0  0
 55 54  1  0  0  0  0
 56 57  1  0  0  0  0
 57 58  2  0  0  0  0
 57 59  1  0  0  0  0
 61 60  1  0  0  0  0
 62 63  1  0  0  0  0
 62 65  1  0  0  0  0
 63 61  1  1  0  0  0
 63 66  1  0  0  0  0
 64 67  1  1  0  0  0
 65 64  1  0  0  0  0
 66 64  1  0  0  0  0
 67 68  1  0  0  0  0
M  END
>  <MODEL>
3

>  <REMARK>
 VINA RESULT:      -6.1      2.737      4.495
  Name = 
  27 active torsions:
  status: ('A' for Active; 'I' for Inactive)
    1  A    between atoms: C_2  and  C_39
    2  A    between atoms: C_5  and  C_22
    3  A    between atoms: C_5  and  C_42
    4  A    between atoms: C_6  and  C_31
    5  A    between atoms: C_8  and  C_22
    6  A    between atoms: C_8  and  C_59
    7  A    between atoms: C_11  and  C_46
    8  A    between atoms: C_11  and  C_57
    9  A    between atoms: C_15  and  C_63
   10  A    between atoms: C_16  and  C_32
   11  A    between atoms: C_18  and  C_59
   12  A    between atoms: C_21  and  O_66
   13  A    between atoms: C_24  and  C_25
   14  A    between atoms: C_24  and  C_60
   15  A    between atoms: O_26  and  C_53
   16  A    between atoms: O_26  and  C_63
   17  A    between atoms: C_31  and  C_33
   18  A    between atoms: C_33  and  O_66
   19  A    between atoms: O_35  and  C_58
   20  A    between atoms: O_35  and  C_67
   21  A    between atoms: C_39  and  C_65
   22  A    between atoms: N_41  and  C_50
   23  A    between atoms: C_42  and  C_49
   24  A    between atoms: C_45  and  C_49
   25  A    between atoms: C_45  and  C_65
   26  A    between atoms: C_46  and  C_58
   27  A    between atoms: C_60  and  C_65
                            x       y       z     vdW  Elec       q    Type
                         _______ _______ _______ _____ _____    ______ ____

>  <TORSDO>
F 27

$$$$
=
 OpenBabel11042418173D

 68 76  0  0  1  0  0  0  0  0999 V2000
  188.7300  174.8220  140.2220 C   0  0  0  0  0  1  0  0  0  0  0  0
  191.3940  172.4720  139.0180 O   0  0  0  0  0  0  0  0  0  0  0  0
  190.4350  173.3780  141.5080 C   0  0  2  0  0  3  0  0  0  0  0  0
  189.8110  173.7970  140.1970 C   0  0  0  0  0  0  0  0  0  0  0  0
  191.6370  172.5600  141.3410 N   0  0  0  0  0  0  0  0  0  0  0  0
  190.2980  173.3470  139.0320 C   0  0  0  0  0  0  0  0  0  0  0  0
  192.0690  172.1330  140.1980 C   0  0  0  0  0  0  0  0  0  0  0  0
  193.2260  171.3550  140.1740 O   0  0  0  0  0  0  0  0  0  0  0  0
  193.5040  170.4090  139.1530 C   0  0  0  0  0  2  0  0  0  0  0  0
  193.9540  171.1360  137.8890 C   0  0  0  0  0  2  0  0  0  0  0  0
  195.2160  171.9600  138.1060 C   0  0  0  0  0  2  0  0  0  0  0  0
  196.0460  174.1100  137.0500 C   0  0  1  0  0  0  0  0  0  0  0  0
  194.7240  173.8180  136.6850 O   0  0  0  0  0  0  0  0  0  0  0  0
  195.5850  172.7110  136.8300 C   0  0  2  0  0  3  0  0  0  0  0  0
  196.7840  174.7590  135.8700 C   0  0  1  0  0  0  0  0  0  0  0  0
  195.9030  175.3470  134.9520 O   0  0  0  0  0  0  0  0  0  0  0  0
  196.5550  176.2130  135.8450 C   0  0  2  0  0  3  0  0  0  0  0  0
  197.7560  175.6640  136.3120 O   0  0  0  0  0  0  0  0  0  0  0  0
  196.0780  174.7320  138.4500 C   0  0  0  0  0  2  0  0  0  0  0  0
  197.2850  174.4290  139.0840 O   0  0  0  0  0  0  0  0  0  0  0  0
  195.9250  172.7880  141.6520 C   0  0  0  0  0  2  0  0  0  0  0  0
  195.1510  174.4110  143.1420 C   0  0  0  0  0  2  0  0  0  0  0  0
  197.0430  174.6430  140.4440 C   0  0  1  0  0  3  0  0  0  0  0  0
  196.9400  176.1310  140.7150 C   0  0  0  0  0  2  0  0  0  0  0  0
  195.0210  175.0010  141.7500 C   0  0  1  0  0  3  0  0  0  0  0  0
  195.8550  173.1290  143.0730 N   0  0  2  0  0  0  0  0  0  0  0  0
  195.7670  176.3200  141.6700 C   0  0  0  0  0  2  0  0  0  0  0  0
  195.7080  174.0350  140.8270 C   0  0  2  0  0  3  0  0  0  0  0  0
  196.9940  173.8450  145.9870 C   0  0  0  0  0  3  0  0  0  0  0  0
  197.8560  171.9500  144.0670 C   0  0  2  0  0  3  0  0  0  0  0  0
  197.6350  170.8000  143.2050 N   0  0  0  0  0  0  0  0  0  0  0  0
  197.2270  174.2210  144.7550 N   0  0  0  0  0  0  0  0  0  0  0  0
  196.7050  170.3270  145.2300 N   0  0  0  0  0  0  0  0  0  0  0  0
  197.1810  171.5210  145.3020 C   0  0  0  0  0  0  0  0  0  0  0  0
  197.0260  169.8990  143.9120 C   0  0  0  0  0  3  0  0  0  0  0  0
  197.2260  173.2880  143.6050 C   0  0  2  0  0  3  0  0  0  0  0  0
  196.8190  172.4580  146.3070 N   0  0  0  0  0  2  0  0  0  0  0  0
  189.4240  172.6380  142.3840 C   0  0  0  0  0  2  0  0  0  0  0  0
  190.0100  172.2870  143.7500 C   0  0  0  0  0  2  0  0  0  0  0  0
  190.2120  173.5210  144.6210 C   0  0  2  0  0  3  0  0  0  0  0  0
  191.6870  173.8280  144.8240 C   0  0  0  0  0  1  0  0  0  0  0  0
  189.4610  173.4110  145.9500 C   0  0  0  0  0  2  0  0  0  0  0  0
  189.3400  174.7130  146.6800 C   0  0  0  0  0  0  0  0  0  0  0  0
  189.9610  174.8880  147.7180 O   0  0  0  0  0  0  0  0  0  0  0  0
  187.3980  176.0250  146.9570 O   0  0  0  0  0  1  0  0  0  0  0  0
  188.4870  175.8010  146.1150 C   0  0  1  0  0  3  0  0  0  0  0  0
  189.2740  177.0970  145.9170 C   0  0  1  0  0  3  0  0  0  0  0  0
  190.5960  176.9640  146.3620 O   0  0  0  0  0  1  0  0  0  0  0  0
  189.2250  177.5530  144.4540 C   0  0  2  0  0  3  0  0  0  0  0  0
  187.9710  177.3990  142.4030 O   0  0  0  0  0  1  0  0  0  0  0  0
  187.8460  177.3930  143.7930 C   0  0  2  0  0  3  0  0  0  0  0  0
  186.8900  178.5030  144.2130 C   0  0  0  0  0  2  0  0  0  0  0  0
  184.9350  177.9060  145.6130 C   0  0  0  0  0  1  0  0  0  0  0  0
  185.3710  176.7600  143.5750 O   0  0  0  0  0  1  0  0  0  0  0  0
  185.4500  178.0130  144.1910 C   0  0  2  0  0  3  0  0  0  0  0  0
  190.2850  176.7920  143.6740 C   0  0  0  0  0  2  0  0  0  0  0  0
  191.3780  177.7120  143.2570 C   0  0  0  0  0  0  0  0  0  0  0  0
  192.4070  177.2480  142.4450 O   0  0  0  0  0  0  0  0  0  0  0  0
  191.3540  178.9240  143.6050 O   0  0  0  0  0  1  0  0  0  0  0  0
  189.7140  173.7600  137.8320 O   0  0  0  0  0  0  0  0  0  0  0  0
  190.4670  174.3100  136.7580 C   0  0  0  0  0  2  0  0  0  0  0  0
  190.0740  175.4950  134.6260 C   0  0  0  0  0  2  0  0  0  0  0  0
  189.6780  174.2910  135.4530 C   0  0  2  0  0  3  0  0  0  0  0  0
  187.9220  175.8720  135.1230 C   0  0  1  0  0  3  0  0  0  0  0  0
  189.1370  176.5190  134.8480 O   0  0  0  0  0  0  0  0  0  0  0  0
  188.2170  174.5170  135.7250 C   0  0  0  0  0  2  0  0  0  0  0  0
  187.1130  176.6870  136.1120 C   0  0  0  0  0  2  0  0  0  0  0  0
  187.0090  176.0090  137.3250 O   0  0  0  0  0  1  0  0  0  0  0  0
  2  6  1  0  0  0  0
  2  7  1  0  0  0  0
  3 38  1  1  0  0  0
  4  1  1  0  0  0  0
  4  3  1  0  0  0  0
  5  3  1  0  0  0  0
  6  4  2  0  0  0  0
  7  5  2  0  0  0  0
  8  7  1  0  0  0  0
  9  8  1  0  0  0  0
 10 11  1  0  0  0  0
 10  9  1  0  0  0  0
 12 19  1  1  0  0  0
 13 14  1  0  0  0  0
 13 12  1  0  0  0  0
 14 12  1  0  0  0  0
 14 11  1  1  0  0  0
 15 16  1  6  0  0  0
 15 18  1  0  0  0  0
 15 12  1  0  0  0  0
 17 16  1  6  0  0  0
 17 15  1  0  0  0  0
 17 18  1  0  0  0  0
 19 20  1  0  0  0  0
 23 20  1  6  0  0  0
 23 24  1  0  0  0  0
 23 28  1  0  0  0  0
 24 27  1  0  0  0  0
 25 27  1  1  0  0  0
 25 22  1  0  0  0  0
 26 21  1  6  0  0  0
 26 22  1  0  0  0  0
 26 36  1  0  0  0  0
 28 21  1  1  0  0  0
 28 25  1  0  0  0  0
 29 37  1  0  0  0  0
 30 31  1  6  0  0  0
 30 34  1  0  0  0  0
 31 35  2  0  0  0  0
 32 29  2  0  0  0  0
 33 34  2  0  0  0  0
 34 37  1  0  0  0  0
 35 33  1  0  0  0  0
 36 30  1  0  0  0  0
 36 32  1  1  0  0  0
 38 39  1  0  0  0  0
 39 40  1  0  0  0  0
 40 41  1  1  0  0  0
 40 42  1  0  0  0  0
 42 43  1  0  0  0  0
 43 44  2  0  0  0  0
 46 43  1  0  0  0  0
 46 45  1  1  0  0  0
 47 46  1  0  0  0  0
 47 48  1  6  0  0  0
 49 56  1  6  0  0  0
 49 47  1  0  0  0  0
 51 50  1  6  0  0  0
 51 52  1  0  0  0  0
 51 49  1  0  0  0  0
 54 55  1  0  0  0  0
 55 52  1  0  0  0  0
 55 53  1  1  0  0  0
 57 59  1  0  0  0  0
 57 56  1  0  0  0  0
 58 57  2  0  0  0  0
 60  6  1  0  0  0  0
 61 60  1  0  0  0  0
 62 65  1  0  0  0  0
 62 63  1  0  0  0  0
 63 66  1  0  0  0  0
 63 61  1  1  0  0  0
 64 66  1  0  0  0  0
 64 67  1  1  0  0  0
 65 64  1  0  0  0  0
 67 68  1  0  0  0  0
M  END
>  <MODEL>
4

>  <REMARK>
 VINA RESULT:      -6.0      3.917      8.650
  Name = 
  27 active torsions:
  status: ('A' for Active; 'I' for Inactive)
    1  A    between atoms: C_2  and  C_39
    2  A    between atoms: C_5  and  C_22
    3  A    between atoms: C_5  and  C_42
    4  A    between atoms: C_6  and  C_31
    5  A    between atoms: C_8  and  C_22
    6  A    between atoms: C_8  and  C_59
    7  A    between atoms: C_11  and  C_46
    8  A    between atoms: C_11  and  C_57
    9  A    between atoms: C_15  and  C_63
   10  A    between atoms: C_16  and  C_32
   11  A    between atoms: C_18  and  C_59
   12  A    between atoms: C_21  and  O_66
   13  A    between atoms: C_24  and  C_25
   14  A    between atoms: C_24  and  C_60
   15  A    between atoms: O_26  and  C_53
   16  A    between atoms: O_26  and  C_63
   17  A    between atoms: C_31  and  C_33
   18  A    between atoms: C_33  and  O_66
   19  A    between atoms: O_35  and  C_58
   20  A    between atoms: O_35  and  C_67
   21  A    between atoms: C_39  and  C_65
   22  A    between atoms: N_41  and  C_50
   23  A    between atoms: C_42  and  C_49
   24  A    between atoms: C_45  and  C_49
   25  A    between atoms: C_45  and  C_65
   26  A    between atoms: C_46  and  C_58
   27  A    between atoms: C_60  and  C_65
                            x       y       z     vdW  Elec       q    Type
                         _______ _______ _______ _____ _____    ______ ____

>  <TORSDO>
F 27

$$$$
=
 OpenBabel11042418173D

 68 76  0  0  1  0  0  0  0  0999 V2000
  183.7130  178.8470  143.3650 C   0  0  0  0  0  1  0  0  0  0  0  0
  184.7490  177.7450  139.9330 O   0  0  0  0  0  0  0  0  0  0  0  0
  185.8740  177.7260  142.5160 C   0  0  2  0  0  3  0  0  0  0  0  0
  184.4750  178.2280  142.2440 C   0  0  0  0  0  0  0  0  0  0  0  0
  186.6060  177.3680  141.3000 N   0  0  0  0  0  0  0  0  0  0  0  0
  183.9750  178.2230  141.0000 C   0  0  0  0  0  0  0  0  0  0  0  0
  186.0840  177.3630  140.1150 C   0  0  0  0  0  0  0  0  0  0  0  0
  186.8880  176.9960  139.0370 O   0  0  0  0  0  0  0  0  0  0  0  0
  186.9820  175.6630  138.5580 C   0  0  0  0  0  2  0  0  0  0  0  0
  188.1180  174.9390  139.2760 C   0  0  0  0  0  2  0  0  0  0  0  0
  188.1760  173.4570  138.9320 C   0  0  0  0  0  2  0  0  0  0  0  0
  190.1780  172.7100  137.5680 C   0  0  1  0  0  0  0  0  0  0  0  0
  189.9290  174.0830  137.4320 O   0  0  0  0  0  0  0  0  0  0  0  0
  188.7930  173.2570  137.5510 C   0  0  2  0  0  3  0  0  0  0  0  0
  190.6820  172.1340  136.2360 C   0  0  1  0  0  0  0  0  0  0  0  0
  190.0510  170.9250  135.9090 O   0  0  0  0  0  0  0  0  0  0  0  0
  189.5940  172.0770  135.2460 C   0  0  2  0  0  3  0  0  0  0  0  0
  190.5770  173.0720  135.2030 O   0  0  0  0  0  0  0  0  0  0  0  0
  190.9160  172.4400  138.8830 C   0  0  0  0  0  2  0  0  0  0  0  0
  191.6430  171.2510  138.7920 O   0  0  0  0  0  0  0  0  0  0  0  0
  194.6260  172.5920  139.4600 C   0  0  0  0  0  2  0  0  0  0  0  0
  195.6140  171.2370  141.0850 C   0  0  0  0  0  2  0  0  0  0  0  0
  192.5480  171.2970  139.8570 C   0  0  1  0  0  3  0  0  0  0  0  0
  192.3610  170.0780  140.7380 C   0  0  0  0  0  2  0  0  0  0  0  0
  194.7500  170.3300  140.2290 C   0  0  1  0  0  3  0  0  0  0  0  0
  195.3970  172.6340  140.7010 N   0  0  2  0  0  0  0  0  0  0  0  0
  193.7570  169.5830  141.0990 C   0  0  0  0  0  2  0  0  0  0  0  0
  193.9670  171.2390  139.3250 C   0  0  2  0  0  3  0  0  0  0  0  0
  195.7360  172.8840  143.8830 C   0  0  0  0  0  3  0  0  0  0  0  0
  194.9960  174.8010  141.9360 C   0  0  2  0  0  3  0  0  0  0  0  0
  195.2420  175.5640  140.7220 N   0  0  0  0  0  0  0  0  0  0  0  0
  194.7620  172.6250  143.0470 N   0  0  0  0  0  0  0  0  0  0  0  0
  197.1730  175.5600  141.9310 N   0  0  0  0  0  0  0  0  0  0  0  0
  196.3160  174.8530  142.5840 C   0  0  0  0  0  0  0  0  0  0  0  0
  196.4600  176.0070  140.7840 C   0  0  0  0  0  3  0  0  0  0  0  0
  194.6020  173.3150  141.7470 C   0  0  2  0  0  3  0  0  0  0  0  0
  196.6640  173.9450  143.6200 N   0  0  0  0  0  2  0  0  0  0  0  0
  185.8530  176.5370  143.4760 C   0  0  0  0  0  2  0  0  0  0  0  0
  186.2560  176.9480  144.8910 C   0  0  0  0  0  2  0  0  0  0  0  0
  187.6880  176.5440  145.2210 C   0  0  2  0  0  3  0  0  0  0  0  0
  187.8090  176.0190  146.6430 C   0  0  0  0  0  1  0  0  0  0  0  0
  188.6790  177.6750  144.9400 C   0  0  0  0  0  2  0  0  0  0  0  0
  189.7240  177.3200  143.9270 C   0  0  0  0  0  0  0  0  0  0  0  0
  190.7740  177.9450  143.8920 O   0  0  0  0  0  0  0  0  0  0  0  0
  189.4210  176.6570  141.6830 O   0  0  0  0  0  1  0  0  0  0  0  0
  189.4890  176.1800  142.9910 C   0  0  1  0  0  3  0  0  0  0  0  0
  190.5810  175.1150  143.1060 C   0  0  1  0  0  3  0  0  0  0  0  0
  191.7000  175.4460  142.3320 O   0  0  0  0  0  1  0  0  0  0  0  0
  190.9710  174.8820  144.5710 C   0  0  2  0  0  3  0  0  0  0  0  0
  192.7530  173.8640  145.8340 O   0  0  0  0  0  1  0  0  0  0  0  0
  192.4860  174.7720  144.8070 C   0  0  2  0  0  3  0  0  0  0  0  0
  193.0980  176.1210  145.1630 C   0  0  0  0  0  2  0  0  0  0  0  0
  191.9690  176.7260  147.2840 C   0  0  0  0  0  1  0  0  0  0  0  0
  194.2810  177.1820  146.9600 O   0  0  0  0  0  1  0  0  0  0  0  0
  193.2720  176.2570  146.6680 C   0  0  2  0  0  3  0  0  0  0  0  0
  190.2590  173.6340  145.0690 C   0  0  0  0  0  2  0  0  0  0  0  0
  190.2100  172.6060  143.9930 C   0  0  0  0  0  0  0  0  0  0  0  0
  191.3240  171.8120  143.7380 O   0  0  0  0  0  1  0  0  0  0  0  0
  189.1490  172.4240  143.3380 O   0  0  0  0  0  0  0  0  0  0  0  0
  182.6830  178.7050  140.7720 O   0  0  0  0  0  0  0  0  0  0  0  0
  181.5200  178.0560  141.2720 C   0  0  0  0  0  2  0  0  0  0  0  0
  179.2590  178.3290  142.2280 C   0  0  0  0  0  2  0  0  0  0  0  0
  180.3930  179.0500  141.5330 C   0  0  2  0  0  3  0  0  0  0  0  0
  178.3890  178.9130  140.2470 C   0  0  1  0  0  3  0  0  0  0  0  0
  178.3130  177.9450  141.2610 O   0  0  0  0  0  0  0  0  0  0  0  0
  179.7830  179.4970  140.2340 C   0  0  0  0  0  2  0  0  0  0  0  0
  178.1080  178.2770  138.9000 C   0  0  0  0  0  2  0  0  0  0  0  0
  178.9760  177.2090  138.6800 O   0  0  0  0  0  1  0  0  0  0  0  0
  2  7  1  0  0  0  0
  2  6  1  0  0  0  0
  3 38  1  1  0  0  0
  4  3  1  0  0  0  0
  4  1  1  0  0  0  0
  5  3  1  0  0  0  0
  6  4  2  0  0  0  0
  7  5  2  0  0  0  0
  8  7  1  0  0  0  0
  9  8  1  0  0  0  0
  9 10  1  0  0  0  0
 11 10  1  0  0  0  0
 12 19  1  1  0  0  0
 13 14  1  0  0  0  0
 13 12  1  0  0  0  0
 14 12  1  0  0  0  0
 14 11  1  1  0  0  0
 15 18  1  6  0  0  0
 15 12  1  0  0  0  0
 16 15  1  0  0  0  0
 17 18  1  6  0  0  0
 17 16  1  0  0  0  0
 17 15  1  0  0  0  0
 20 19  1  0  0  0  0
 23 20  1  6  0  0  0
 23 24  1  0  0  0  0
 24 27  1  0  0  0  0
 25 22  1  1  0  0  0
 25 27  1  0  0  0  0
 26 21  1  6  0  0  0
 26 22  1  0  0  0  0
 26 36  1  0  0  0  0
 28 21  1  1  0  0  0
 28 23  1  0  0  0  0
 28 25  1  0  0  0  0
 30 31  1  6  0  0  0
 30 34  1  0  0  0  0
 31 35  2  0  0  0  0
 32 29  2  0  0  0  0
 33 34  2  0  0  0  0
 34 37  1  0  0  0  0
 35 33  1  0  0  0  0
 36 30  1  0  0  0  0
 36 32  1  1  0  0  0
 37 29  1  0  0  0  0
 38 39  1  0  0  0  0
 39 40  1  0  0  0  0
 40 41  1  1  0  0  0
 42 40  1  0  0  0  0
 43 42  1  0  0  0  0
 44 43  2  0  0  0  0
 46 45  1  6  0  0  0
 46 47  1  0  0  0  0
 46 43  1  0  0  0  0
 47 48  1  6  0  0  0
 47 49  1  0  0  0  0
 49 51  1  0  0  0  0
 49 56  1  6  0  0  0
 51 52  1  0  0  0  0
 51 50  1  1  0  0  0
 52 55  1  0  0  0  0
 55 54  1  0  0  0  0
 55 53  1  1  0  0  0
 57 56  1  0  0  0  0
 58 57  1  0  0  0  0
 59 57  2  0  0  0  0
 60  6  1  0  0  0  0
 60 61  1  0  0  0  0
 63 61  1  6  0  0  0
 63 62  1  0  0  0  0
 64 67  1  6  0  0  0
 64 65  1  0  0  0  0
 65 62  1  0  0  0  0
 66 64  1  0  0  0  0
 66 63  1  0  0  0  0
 68 67  1  0  0  0  0
M  END
>  <MODEL>
5

>  <REMARK>
 VINA RESULT:      -6.0      2.515      4.458
  Name = 
  27 active torsions:
  status: ('A' for Active; 'I' for Inactive)
    1  A    between atoms: C_2  and  C_39
    2  A    between atoms: C_5  and  C_22
    3  A    between atoms: C_5  and  C_42
    4  A    between atoms: C_6  and  C_31
    5  A    between atoms: C_8  and  C_22
    6  A    between atoms: C_8  and  C_59
    7  A    between atoms: C_11  and  C_46
    8  A    between atoms: C_11  and  C_57
    9  A    between atoms: C_15  and  C_63
   10  A    between atoms: C_16  and  C_32
   11  A    between atoms: C_18  and  C_59
   12  A    between atoms: C_21  and  O_66
   13  A    between atoms: C_24  and  C_25
   14  A    between atoms: C_24  and  C_60
   15  A    between atoms: O_26  and  C_53
   16  A    between atoms: O_26  and  C_63
   17  A    between atoms: C_31  and  C_33
   18  A    between atoms: C_33  and  O_66
   19  A    between atoms: O_35  and  C_58
   20  A    between atoms: O_35  and  C_67
   21  A    between atoms: C_39  and  C_65
   22  A    between atoms: N_41  and  C_50
   23  A    between atoms: C_42  and  C_49
   24  A    between atoms: C_45  and  C_49
   25  A    between atoms: C_45  and  C_65
   26  A    between atoms: C_46  and  C_58
   27  A    between atoms: C_60  and  C_65
                            x       y       z     vdW  Elec       q    Type
                         _______ _______ _______ _____ _____    ______ ____

>  <TORSDO>
F 27

$$$$
=
 OpenBabel11042418173D

 68 76  0  0  1  0  0  0  0  0999 V2000
  197.9410  171.6950  140.4220 C   0  0  0  0  0  1  0  0  0  0  0  0
  194.2680  170.9380  140.3910 O   0  0  0  0  0  0  0  0  0  0  0  0
  196.5530  169.9380  141.7000 C   0  0  2  0  0  3  0  0  0  0  0  0
  196.6090  171.1200  140.7600 C   0  0  0  0  0  0  0  0  0  0  0  0
  195.2320  169.3120  141.7640 N   0  0  0  0  0  0  0  0  0  0  0  0
  195.5000  171.5650  140.1530 C   0  0  0  0  0  0  0  0  0  0  0  0
  194.1790  169.7800  141.1730 C   0  0  0  0  0  0  0  0  0  0  0  0
  192.9760  169.0910  141.3170 O   0  0  0  0  0  0  0  0  0  0  0  0
  192.1650  169.1800  142.4790 C   0  0  0  0  0  2  0  0  0  0  0  0
  190.7630  169.6410  142.0910 C   0  0  0  0  0  2  0  0  0  0  0  0
  190.4620  171.0580  142.5590 C   0  0  0  0  0  2  0  0  0  0  0  0
  189.4710  173.2190  141.6790 C   0  0  1  0  0  0  0  0  0  0  0  0
  188.8340  172.0900  141.1450 O   0  0  0  0  0  0  0  0  0  0  0  0
  190.2220  171.9730  141.3620 C   0  0  2  0  0  3  0  0  0  0  0  0
  189.5470  174.3280  140.6190 C   0  0  1  0  0  0  0  0  0  0  0  0
  189.6000  173.8140  139.3160 O   0  0  0  0  0  0  0  0  0  0  0  0
  188.3580  174.3060  139.7520 C   0  0  2  0  0  3  0  0  0  0  0  0
  188.5070  175.2520  140.7730 O   0  0  0  0  0  0  0  0  0  0  0  0
  188.9440  173.4990  143.0900 C   0  0  0  0  0  2  0  0  0  0  0  0
  189.7690  174.4220  143.7380 O   0  0  0  0  0  0  0  0  0  0  0  0
  188.3420  177.3510  144.4610 C   0  0  0  0  0  2  0  0  0  0  0  0
  188.1290  177.4310  146.7850 C   0  0  0  0  0  2  0  0  0  0  0  0
  188.9740  174.9700  144.7490 C   0  0  1  0  0  3  0  0  0  0  0  0
  189.2020  174.2130  146.0430 C   0  0  0  0  0  2  0  0  0  0  0  0
  189.3790  176.6220  146.4890 C   0  0  1  0  0  3  0  0  0  0  0  0
  187.4240  177.7260  145.5360 N   0  0  2  0  0  0  0  0  0  0  0  0
  189.2870  175.2590  147.1490 C   0  0  0  0  0  2  0  0  0  0  0  0
  189.3890  176.4070  145.0030 C   0  0  2  0  0  3  0  0  0  0  0  0
  184.4890  178.0180  146.8020 C   0  0  0  0  0  3  0  0  0  0  0  0
  185.3280  177.2280  144.2160 C   0  0  2  0  0  3  0  0  0  0  0  0
  186.0340  177.4600  142.9650 N   0  0  0  0  0  0  0  0  0  0  0  0
  185.3760  177.0650  146.6650 N   0  0  0  0  0  0  0  0  0  0  0  0
  184.9150  179.3750  143.4840 N   0  0  0  0  0  0  0  0  0  0  0  0
  184.6940  178.5370  144.4380 C   0  0  0  0  0  0  0  0  0  0  0  0
  185.7370  178.6590  142.5700 C   0  0  0  0  0  3  0  0  0  0  0  0
  186.2040  176.8930  145.4490 C   0  0  2  0  0  3  0  0  0  0  0  0
  184.1970  178.9070  145.7170 N   0  0  0  0  0  2  0  0  0  0  0  0
  197.0060  170.3340  143.1050 C   0  0  0  0  0  2  0  0  0  0  0  0
  196.6880  169.2450  144.1280 C   0  0  0  0  0  2  0  0  0  0  0  0
  196.6790  169.7830  145.5550 C   0  0  2  0  0  3  0  0  0  0  0  0
  196.8070  168.6630  146.5760 C   0  0  0  0  0  1  0  0  0  0  0  0
  195.4620  170.6690  145.8230 C   0  0  0  0  0  2  0  0  0  0  0  0
  195.7540  172.1350  145.7290 C   0  0  0  0  0  0  0  0  0  0  0  0
  196.9030  172.5350  145.8460 O   0  0  0  0  0  0  0  0  0  0  0  0
  195.0320  174.3790  145.8340 O   0  0  0  0  0  1  0  0  0  0  0  0
  194.6430  173.0940  145.4560 C   0  0  1  0  0  3  0  0  0  0  0  0
  194.2290  173.0820  143.9830 C   0  0  1  0  0  3  0  0  0  0  0  0
  192.8890  172.7030  143.8330 O   0  0  0  0  0  1  0  0  0  0  0  0
  194.4970  174.4410  143.3250 C   0  0  2  0  0  3  0  0  0  0  0  0
  193.3110  174.3370  141.2300 O   0  0  0  0  0  1  0  0  0  0  0  0
  193.3280  174.9680  142.4760 C   0  0  2  0  0  3  0  0  0  0  0  0
  193.4170  176.4750  142.2700 C   0  0  0  0  0  2  0  0  0  0  0  0
  192.4880  176.2200  144.5540 C   0  0  0  0  0  1  0  0  0  0  0  0
  191.7670  177.9860  143.1330 O   0  0  0  0  0  1  0  0  0  0  0  0
  192.8840  177.2190  143.4840 C   0  0  2  0  0  3  0  0  0  0  0  0
  195.7610  174.3330  142.4890 C   0  0  0  0  0  2  0  0  0  0  0  0
  196.8500  175.1490  143.0940 C   0  0  0  0  0  0  0  0  0  0  0  0
  196.6530  176.5040  143.3350 O   0  0  0  0  0  0  0  0  0  0  0  0
  197.9390  174.6050  143.4260 O   0  0  0  0  0  1  0  0  0  0  0  0
  195.5780  172.6510  139.2770 O   0  0  0  0  0  0  0  0  0  0  0  0
  194.9830  172.6430  137.9850 C   0  0  0  0  0  2  0  0  0  0  0  0
  195.0950  175.1100  138.0180 C   0  0  0  0  0  2  0  0  0  0  0  0
  195.3720  173.8800  137.1820 C   0  0  2  0  0  3  0  0  0  0  0  0
  193.6610  175.2920  136.3060 C   0  0  1  0  0  3  0  0  0  0  0  0
  193.8350  175.6210  137.6590 O   0  0  0  0  0  0  0  0  0  0  0  0
  194.4560  174.0430  136.0020 C   0  0  0  0  0  2  0  0  0  0  0  0
  192.1960  175.0280  136.0200 C   0  0  0  0  0  2  0  0  0  0  0  0
  191.5890  174.4320  137.1240 O   0  0  0  0  0  1  0  0  0  0  0  0
  1  4  1  0  0  0  0
  2  7  1  0  0  0  0
  3  5  1  0  0  0  0
  3 38  1  1  0  0  0
  4  3  1  0  0  0  0
  6  2  1  0  0  0  0
  6  4  2  0  0  0  0
  7  8  1  0  0  0  0
  7  5  2  0  0  0  0
  8  9  1  0  0  0  0
 10  9  1  0  0  0  0
 10 11  1  0  0  0  0
 12 19  1  1  0  0  0
 13 14  1  0  0  0  0
 13 12  1  0  0  0  0
 14 12  1  0  0  0  0
 14 11  1  1  0  0  0
 15 16  1  6  0  0  0
 15 18  1  0  0  0  0
 15 12  1  0  0  0  0
 17 16  1  6  0  0  0
 17 15  1  0  0  0  0
 17 18  1  0  0  0  0
 19 20  1  0  0  0  0
 23 20  1  6  0  0  0
 23 28  1  0  0  0  0
 23 24  1  0  0  0  0
 24 27  1  0  0  0  0
 25 22  1  6  0  0  0
 25 27  1  0  0  0  0
 26 21  1  6  0  0  0
 26 22  1  0  0  0  0
 28 21  1  6  0  0  0
 28 25  1  0  0  0  0
 30 31  1  6  0  0  0
 30 34  1  0  0  0  0
 30 36  1  0  0  0  0
 32 29  2  0  0  0  0
 33 34  2  0  0  0  0
 34 37  1  0  0  0  0
 35 31  2  0  0  0  0
 35 33  1  0  0  0  0
 36 26  1  0  0  0  0
 36 32  1  1  0  0  0
 37 29  1  0  0  0  0
 38 39  1  0  0  0  0
 39 40  1  0  0  0  0
 40 42  1  0  0  0  0
 40 41  1  1  0  0  0
 43 42  1  0  0  0  0
 43 44  2  0  0  0  0
 46 43  1  0  0  0  0
 46 45  1  6  0  0  0
 47 48  1  1  0  0  0
 47 46  1  0  0  0  0
 49 56  1  6  0  0  0
 49 47  1  0  0  0  0
 51 50  1  6  0  0  0
 51 49  1  0  0  0  0
 52 51  1  0  0  0  0
 52 55  1  0  0  0  0
 54 55  1  0  0  0  0
 55 53  1  1  0  0  0
 56 57  1  0  0  0  0
 57 58  2  0  0  0  0
 57 59  1  0  0  0  0
 60  6  1  0  0  0  0
 61 60  1  0  0  0  0
 63 61  1  1  0  0  0
 63 62  1  0  0  0  0
 64 67  1  1  0  0  0
 64 65  1  0  0  0  0
 65 62  1  0  0  0  0
 66 64  1  0  0  0  0
 66 63  1  0  0  0  0
 67 68  1  0  0  0  0
M  END
>  <MODEL>
6

>  <REMARK>
 VINA RESULT:      -5.9      3.933     10.708
  Name = 
  27 active torsions:
  status: ('A' for Active; 'I' for Inactive)
    1  A    between atoms: C_2  and  C_39
    2  A    between atoms: C_5  and  C_22
    3  A    between atoms: C_5  and  C_42
    4  A    between atoms: C_6  and  C_31
    5  A    between atoms: C_8  and  C_22
    6  A    between atoms: C_8  and  C_59
    7  A    between atoms: C_11  and  C_46
    8  A    between atoms: C_11  and  C_57
    9  A    between atoms: C_15  and  C_63
   10  A    between atoms: C_16  and  C_32
   11  A    between atoms: C_18  and  C_59
   12  A    between atoms: C_21  and  O_66
   13  A    between atoms: C_24  and  C_25
   14  A    between atoms: C_24  and  C_60
   15  A    between atoms: O_26  and  C_53
   16  A    between atoms: O_26  and  C_63
   17  A    between atoms: C_31  and  C_33
   18  A    between atoms: C_33  and  O_66
   19  A    between atoms: O_35  and  C_58
   20  A    between atoms: O_35  and  C_67
   21  A    between atoms: C_39  and  C_65
   22  A    between atoms: N_41  and  C_50
   23  A    between atoms: C_42  and  C_49
   24  A    between atoms: C_45  and  C_49
   25  A    between atoms: C_45  and  C_65
   26  A    between atoms: C_46  and  C_58
   27  A    between atoms: C_60  and  C_65
                            x       y       z     vdW  Elec       q    Type
                         _______ _______ _______ _____ _____    ______ ____

>  <TORSDO>
F 27

$$$$
=
 OpenBabel11042418173D

 68 76  0  0  1  0  0  0  0  0999 V2000
  190.0870  178.1870  144.9850 C   0  0  0  0  0  1  0  0  0  0  0  0
  192.2310  175.9360  142.8870 O   0  0  0  0  0  0  0  0  0  0  0  0
  189.5090  176.6550  142.9940 C   0  0  2  0  0  3  0  0  0  0  0  0
  190.5460  177.2650  143.9090 C   0  0  0  0  0  0  0  0  0  0  0  0
  190.0430  175.5900  142.1440 N   0  0  0  0  0  0  0  0  0  0  0  0
  191.8320  176.8950  143.8300 C   0  0  0  0  0  0  0  0  0  0  0  0
  191.2960  175.2690  142.0860 C   0  0  0  0  0  0  0  0  0  0  0  0
  191.6780  174.2370  141.2310 O   0  0  0  0  0  0  0  0  0  0  0  0
  192.9670  174.1540  140.6410 C   0  0  0  0  0  2  0  0  0  0  0  0
  193.1990  172.7410  140.1150 C   0  0  0  0  0  2  0  0  0  0  0  0
  194.0810  171.9110  141.0390 C   0  0  0  0  0  2  0  0  0  0  0  0
  192.8950  169.9890  142.1890 C   0  0  1  0  0  0  0  0  0  0  0  0
  192.0070  171.0050  141.8070 O   0  0  0  0  0  0  0  0  0  0  0  0
  193.2790  171.4260  142.2440 C   0  0  2  0  0  3  0  0  0  0  0  0
  192.4430  169.3720  143.5210 C   0  0  1  0  0  0  0  0  0  0  0  0
  193.1460  168.1980  143.8280 O   0  0  0  0  0  0  0  0  0  0  0  0
  193.5450  169.3680  144.4970 C   0  0  2  0  0  3  0  0  0  0  0  0
  192.5060  170.3040  144.5630 O   0  0  0  0  0  0  0  0  0  0  0  0
  193.2390  169.1130  140.9810 C   0  0  0  0  0  2  0  0  0  0  0  0
  192.0720  168.5940  140.4140 O   0  0  0  0  0  0  0  0  0  0  0  0
  189.7200  170.4060  138.8900 C   0  0  0  0  0  2  0  0  0  0  0  0
  190.1230  170.2220  136.5970 C   0  0  0  0  0  2  0  0  0  0  0  0
  191.9120  169.2910  139.2130 C   0  0  1  0  0  3  0  0  0  0  0  0
  192.8260  168.7020  138.1560 C   0  0  0  0  0  2  0  0  0  0  0  0
  190.5640  168.9120  137.2230 C   0  0  1  0  0  3  0  0  0  0  0  0
  189.7650  171.1770  137.6480 N   0  0  2  0  0  0  0  0  0  0  0  0
  192.0120  168.6270  136.8690 C   0  0  0  0  0  2  0  0  0  0  0  0
  190.4920  169.1200  138.7080 C   0  0  2  0  0  3  0  0  0  0  0  0
  191.2210  173.0370  135.4760 C   0  0  0  0  0  3  0  0  0  0  0  0
  190.2520  173.6200  138.0710 C   0  0  2  0  0  3  0  0  0  0  0  0
  189.1920  173.6820  139.0650 N   0  0  0  0  0  0  0  0  0  0  0  0
  191.5860  172.2960  136.4920 N   0  0  0  0  0  0  0  0  0  0  0  0
  188.3430  174.4810  137.1080 N   0  0  0  0  0  0  0  0  0  0  0  0
  189.5580  174.1220  136.8750 C   0  0  0  0  0  0  0  0  0  0  0  0
  188.1560  174.2120  138.4930 C   0  0  0  0  0  3  0  0  0  0  0  0
  190.8170  172.2120  137.7540 C   0  0  2  0  0  3  0  0  0  0  0  0
  190.0830  173.9030  135.5730 N   0  0  0  0  0  2  0  0  0  0  0  0
  188.8470  177.7250  142.1260 C   0  0  0  0  0  2  0  0  0  0  0  0
  188.2250  177.1250  140.8660 C   0  0  0  0  0  2  0  0  0  0  0  0
  186.7020  177.1730  140.8990 C   0  0  2  0  0  3  0  0  0  0  0  0
  186.1130  177.2150  139.4980 C   0  0  0  0  0  1  0  0  0  0  0  0
  186.1860  178.3180  141.7730 C   0  0  0  0  0  2  0  0  0  0  0  0
  185.1120  177.9030  142.7320 C   0  0  0  0  0  0  0  0  0  0  0  0
  183.9450  177.8970  142.3720 O   0  0  0  0  0  0  0  0  0  0  0  0
  186.0880  176.2090  144.0550 O   0  0  0  0  0  1  0  0  0  0  0  0
  185.4820  177.4640  144.1110 C   0  0  1  0  0  3  0  0  0  0  0  0
  186.4120  178.4670  144.7980 C   0  0  1  0  0  3  0  0  0  0  0  0
  185.8610  179.7550  144.7990 O   0  0  0  0  0  1  0  0  0  0  0  0
  186.7580  178.0110  146.2200 C   0  0  2  0  0  3  0  0  0  0  0  0
  186.2510  176.1880  147.7120 O   0  0  0  0  0  1  0  0  0  0  0  0
  186.6960  176.4880  146.4230 C   0  0  2  0  0  3  0  0  0  0  0  0
  188.0550  175.8360  146.2010 C   0  0  0  0  0  2  0  0  0  0  0  0
  190.2410  175.5050  147.3200 C   0  0  0  0  0  1  0  0  0  0  0  0
  188.3110  174.3150  148.0370 O   0  0  0  0  0  1  0  0  0  0  0  0
  188.7400  175.5450  147.5270 C   0  0  2  0  0  3  0  0  0  0  0  0
  185.8320  178.7190  147.1950 C   0  0  0  0  0  2  0  0  0  0  0  0
  186.6220  179.5510  148.1440 C   0  0  0  0  0  0  0  0  0  0  0  0
  186.2980  180.8900  148.3340 O   0  0  0  0  0  0  0  0  0  0  0  0
  187.5620  179.0350  148.8080 O   0  0  0  0  0  1  0  0  0  0  0  0
  192.7700  177.4630  144.6960 O   0  0  0  0  0  0  0  0  0  0  0  0
  193.2620  176.7880  145.8480 C   0  0  0  0  0  2  0  0  0  0  0  0
  195.2520  176.7380  144.3860 C   0  0  0  0  0  2  0  0  0  0  0  0
  194.7820  176.6740  145.8230 C   0  0  2  0  0  3  0  0  0  0  0  0
  195.7940  174.6630  145.0350 C   0  0  1  0  0  3  0  0  0  0  0  0
  195.4300  175.4260  143.9140 O   0  0  0  0  0  0  0  0  0  0  0  0
  195.2090  175.3050  146.2720 C   0  0  0  0  0  2  0  0  0  0  0  0
  195.2480  173.2550  144.9030 C   0  0  0  0  0  2  0  0  0  0  0  0
  196.1210  172.4680  144.1550 O   0  0  0  0  0  1  0  0  0  0  0  0
  2  6  1  0  0  0  0
  3 38  1  6  0  0  0
  3  4  1  0  0  0  0
  4  1  1  0  0  0  0
  5  3  1  0  0  0  0
  6  4  2  0  0  0  0
  6 60  1  0  0  0  0
  7  5  2  0  0  0  0
  7  2  1  0  0  0  0
  8  7  1  0  0  0  0
  9  8  1  0  0  0  0
 10  9  1  0  0  0  0
 10 11  1  0  0  0  0
 12 19  1  6  0  0  0
 12 14  1  0  0  0  0
 12 15  1  0  0  0  0
 13 12  1  0  0  0  0
 13 14  1  0  0  0  0
 14 11  1  6  0  0  0
 15 16  1  1  0  0  0
 15 17  1  0  0  0  0
 15 18  1  0  0  0  0
 17 16  1  1  0  0  0
 17 18  1  0  0  0  0
 20 19  1  0  0  0  0
 23 20  1  1  0  0  0
 24 23  1  0  0  0  0
 25 22  1  6  0  0  0
 25 28  1  0  0  0  0
 26 22  1  6  0  0  0
 26 36  1  0  0  0  0
 26 21  1  0  0  0  0
 27 25  1  0  0  0  0
 27 24  1  0  0  0  0
 28 21  1  6  0  0  0
 28 23  1  0  0  0  0
 29 37  1  0  0  0  0
 29 32  2  0  0  0  0
 30 34  1  6  0  0  0
 30 31  1  0  0  0  0
 33 35  1  0  0  0  0
 34 33  2  0  0  0  0
 35 31  2  0  0  0  0
 36 32  1  6  0  0  0
 36 30  1  0  0  0  0
 37 34  1  0  0  0  0
 39 40  1  0  0  0  0
 39 38  1  0  0  0  0
 40 41  1  6  0  0  0
 40 42  1  0  0  0  0
 42 43  1  0  0  0  0
 43 46  1  0  0  0  0
 44 43  2  0  0  0  0
 46 45  1  6  0  0  0
 46 47  1  0  0  0  0
 47 48  1  1  0  0  0
 47 49  1  0  0  0  0
 49 51  1  0  0  0  0
 49 56  1  1  0  0  0
 51 50  1  1  0  0  0
 52 51  1  0  0  0  0
 52 55  1  0  0  0  0
 55 53  1  6  0  0  0
 55 54  1  0  0  0  0
 56 57  1  0  0  0  0
 57 58  2  0  0  0  0
 57 59  1  0  0  0  0
 60 61  1  0  0  0  0
 62 63  1  0  0  0  0
 63 61  1  6  0  0  0
 63 66  1  0  0  0  0
 64 67  1  6  0  0  0
 64 66  1  0  0  0  0
 65 62  1  0  0  0  0
 65 64  1  0  0  0  0
 68 67  1  0  0  0  0
M  END
>  <MODEL>
7

>  <REMARK>
 VINA RESULT:      -5.6      3.039      8.431
  Name = 
  27 active torsions:
  status: ('A' for Active; 'I' for Inactive)
    1  A    between atoms: C_2  and  C_39
    2  A    between atoms: C_5  and  C_22
    3  A    between atoms: C_5  and  C_42
    4  A    between atoms: C_6  and  C_31
    5  A    between atoms: C_8  and  C_22
    6  A    between atoms: C_8  and  C_59
    7  A    between atoms: C_11  and  C_46
    8  A    between atoms: C_11  and  C_57
    9  A    between atoms: C_15  and  C_63
   10  A    between atoms: C_16  and  C_32
   11  A    between atoms: C_18  and  C_59
   12  A    between atoms: C_21  and  O_66
   13  A    between atoms: C_24  and  C_25
   14  A    between atoms: C_24  and  C_60
   15  A    between atoms: O_26  and  C_53
   16  A    between atoms: O_26  and  C_63
   17  A    between atoms: C_31  and  C_33
   18  A    between atoms: C_33  and  O_66
   19  A    between atoms: O_35  and  C_58
   20  A    between atoms: O_35  and  C_67
   21  A    between atoms: C_39  and  C_65
   22  A    between atoms: N_41  and  C_50
   23  A    between atoms: C_42  and  C_49
   24  A    between atoms: C_45  and  C_49
   25  A    between atoms: C_45  and  C_65
   26  A    between atoms: C_46  and  C_58
   27  A    between atoms: C_60  and  C_65
                            x       y       z     vdW  Elec       q    Type
                         _______ _______ _______ _____ _____    ______ ____

>  <TORSDO>
F 27

$$$$
=
 OpenBabel11042418173D

 68 76  0  0  1  0  0  0  0  0999 V2000
  190.4140  178.1350  144.4640 C   0  0  0  0  0  1  0  0  0  0  0  0
  191.4270  174.6980  143.3520 O   0  0  0  0  0  0  0  0  0  0  0  0
  189.1120  176.2990  143.2070 C   0  0  2  0  0  3  0  0  0  0  0  0
  190.4050  176.7950  143.8120 C   0  0  0  0  0  0  0  0  0  0  0  0
  189.1600  174.8890  142.8180 N   0  0  0  0  0  0  0  0  0  0  0  0
  191.4850  176.0020  143.8660 C   0  0  0  0  0  0  0  0  0  0  0  0
  190.2270  174.1580  142.8730 C   0  0  0  0  0  0  0  0  0  0  0  0
  190.1410  172.8270  142.4680 O   0  0  0  0  0  0  0  0  0  0  0  0
  190.8840  172.2970  141.3800 C   0  0  0  0  0  2  0  0  0  0  0  0
  190.9690  170.7780  141.5100 C   0  0  0  0  0  2  0  0  0  0  0  0
  192.4040  170.2780  141.6040 C   0  0  0  0  0  2  0  0  0  0  0  0
  194.1350  169.6990  143.3630 C   0  0  1  0  0  0  0  0  0  0  0  0
  193.4480  168.5650  142.9040 O   0  0  0  0  0  0  0  0  0  0  0  0
  192.6900  169.7490  143.0070 C   0  0  2  0  0  3  0  0  0  0  0  0
  194.4450  169.5530  144.8610 C   0  0  1  0  0  0  0  0  0  0  0  0
  195.2260  168.4200  145.1330 O   0  0  0  0  0  0  0  0  0  0  0  0
  195.8930  169.6570  145.1080 C   0  0  2  0  0  3  0  0  0  0  0  0
  195.0200  170.7190  145.3780 O   0  0  0  0  0  0  0  0  0  0  0  0
  195.2220  170.0950  142.3590 C   0  0  0  0  0  2  0  0  0  0  0  0
  194.7600  169.9150  141.0530 O   0  0  0  0  0  0  0  0  0  0  0  0
  194.5190  171.5640  138.1610 C   0  0  0  0  0  2  0  0  0  0  0  0
  196.6970  171.8160  137.3570 C   0  0  0  0  0  2  0  0  0  0  0  0
  195.5480  170.7630  140.2710 C   0  0  1  0  0  3  0  0  0  0  0  0
  197.0150  170.5000  140.5530 C   0  0  0  0  0  2  0  0  0  0  0  0
  196.6640  170.5060  138.1230 C   0  0  1  0  0  3  0  0  0  0  0  0
  195.4250  172.5220  137.5310 N   0  0  2  0  0  0  0  0  0  0  0  0
  197.7270  170.5080  139.2050 C   0  0  0  0  0  2  0  0  0  0  0  0
  195.3250  170.4590  138.8020 C   0  0  2  0  0  3  0  0  0  0  0  0
  197.3740  175.0700  137.4240 C   0  0  0  0  0  3  0  0  0  0  0  0
  194.6460  174.8450  138.1460 C   0  0  2  0  0  3  0  0  0  0  0  0
  193.2660  174.4800  137.8650 N   0  0  0  0  0  0  0  0  0  0  0  0
  197.0050  174.1910  138.3210 N   0  0  0  0  0  0  0  0  0  0  0  0
  194.0810  175.5470  136.0250 N   0  0  0  0  0  0  0  0  0  0  0  0
  195.0420  175.4790  136.8790 C   0  0  0  0  0  0  0  0  0  0  0  0
  192.9800  174.9330  136.6840 C   0  0  0  0  0  3  0  0  0  0  0  0
  195.6210  173.6760  138.4350 C   0  0  2  0  0  3  0  0  0  0  0  0
  196.4110  175.6690  136.5480 N   0  0  0  0  0  2  0  0  0  0  0  0
  188.7070  177.1530  142.0050 C   0  0  0  0  0  2  0  0  0  0  0  0
  187.8470  176.3650  141.0180 C   0  0  0  0  0  2  0  0  0  0  0  0
  186.5120  177.0490  140.7480 C   0  0  2  0  0  3  0  0  0  0  0  0
  186.3670  177.4360  139.2840 C   0  0  0  0  0  1  0  0  0  0  0  0
  186.2800  178.2380  141.6810 C   0  0  0  0  0  2  0  0  0  0  0  0
  185.1090  178.0620  142.5980 C   0  0  0  0  0  0  0  0  0  0  0  0
  183.9740  178.2100  142.1690 O   0  0  0  0  0  0  0  0  0  0  0  0
  185.9690  176.4300  144.0690 O   0  0  0  0  0  1  0  0  0  0  0  0
  185.3360  177.6720  144.0210 C   0  0  1  0  0  3  0  0  0  0  0  0
  186.1660  178.7140  144.7730 C   0  0  1  0  0  3  0  0  0  0  0  0
  185.5890  179.9870  144.6810 O   0  0  0  0  0  1  0  0  0  0  0  0
  186.3720  178.3030  146.2360 C   0  0  2  0  0  3  0  0  0  0  0  0
  184.8450  176.6290  147.0540 O   0  0  0  0  0  1  0  0  0  0  0  0
  186.1170  176.8120  146.5100 C   0  0  2  0  0  3  0  0  0  0  0  0
  187.1550  176.2300  147.4610 C   0  0  0  0  0  2  0  0  0  0  0  0
  189.0570  174.7960  146.7770 C   0  0  0  0  0  1  0  0  0  0  0  0
  189.4190  177.0160  147.5500 O   0  0  0  0  0  1  0  0  0  0  0  0
  188.5330  176.2180  146.8180 C   0  0  2  0  0  3  0  0  0  0  0  0
  185.4820  179.1690  147.1120 C   0  0  0  0  0  2  0  0  0  0  0  0
  186.2980  179.8730  148.1390 C   0  0  0  0  0  0  0  0  0  0  0  0
  187.4940  179.3160  148.5800 O   0  0  0  0  0  0  0  0  0  0  0  0
  185.9290  180.9940  148.5820 O   0  0  0  0  0  1  0  0  0  0  0  0
  192.6650  176.4780  144.4430 O   0  0  0  0  0  0  0  0  0  0  0  0
  193.2070  175.9390  145.6430 C   0  0  0  0  0  2  0  0  0  0  0  0
  195.1660  176.9170  144.4990 C   0  0  0  0  0  2  0  0  0  0  0  0
  194.6960  176.2430  145.7700 C   0  0  2  0  0  3  0  0  0  0  0  0
  196.2640  174.9650  144.5060 C   0  0  1  0  0  3  0  0  0  0  0  0
  195.7260  175.9430  143.6560 O   0  0  0  0  0  0  0  0  0  0  0  0
  195.4880  174.9660  145.8030 C   0  0  0  0  0  2  0  0  0  0  0  0
  196.1510  173.5970  143.8630 C   0  0  0  0  0  2  0  0  0  0  0  0
  195.1040  173.5830  142.9430 O   0  0  0  0  0  1  0  0  0  0  0  0
  2  6  1  0  0  0  0
  3 38  1  6  0  0  0
  3  4  1  0  0  0  0
  4  6  2  0  0  0  0
  4  1  1  0  0  0  0
  5  7  2  0  0  0  0
  5  3  1  0  0  0  0
  6 60  1  0  0  0  0
  7  2  1  0  0  0  0
  8  7  1  0  0  0  0
  9 10  1  0  0  0  0
  9  8  1  0  0  0  0
 10 11  1  0  0  0  0
 12 19  1  6  0  0  0
 12 15  1  0  0  0  0
 13 14  1  0  0  0  0
 13 12  1  0  0  0  0
 14 11  1  6  0  0  0
 14 12  1  0  0  0  0
 15 17  1  0  0  0  0
 15 16  1  1  0  0  0
 15 18  1  0  0  0  0
 17 16  1  1  0  0  0
 17 18  1  0  0  0  0
 20 19  1  0  0  0  0
 23 24  1  0  0  0  0
 23 20  1  1  0  0  0
 25 22  1  1  0  0  0
 25 28  1  0  0  0  0
 25 27  1  0  0  0  0
 26 22  1  1  0  0  0
 26 21  1  0  0  0  0
 26 36  1  0  0  0  0
 27 24  1  0  0  0  0
 28 21  1  6  0  0  0
 28 23  1  0  0  0  0
 29 32  2  0  0  0  0
 30 34  1  6  0  0  0
 30 36  1  0  0  0  0
 31 30  1  0  0  0  0
 33 35  1  0  0  0  0
 33 34  2  0  0  0  0
 35 31  2  0  0  0  0
 36 32  1  6  0  0  0
 37 34  1  0  0  0  0
 37 29  1  0  0  0  0
 39 38  1  0  0  0  0
 40 41  1  6  0  0  0
 40 39  1  0  0  0  0
 40 42  1  0  0  0  0
 42 43  1  0  0  0  0
 43 46  1  0  0  0  0
 44 43  2  0  0  0  0
 46 45  1  6  0  0  0
 46 47  1  0  0  0  0
 47 48  1  1  0  0  0
 47 49  1  0  0  0  0
 49 51  1  0  0  0  0
 49 56  1  1  0  0  0
 51 50  1  1  0  0  0
 51 52  1  0  0  0  0
 55 53  1  1  0  0  0
 55 52  1  0  0  0  0
 55 54  1  0  0  0  0
 56 57  1  0  0  0  0
 57 58  2  0  0  0  0
 57 59  1  0  0  0  0
 60 61  1  0  0  0  0
 62 63  1  0  0  0  0
 63 61  1  6  0  0  0
 63 66  1  0  0  0  0
 64 67  1  6  0  0  0
 64 66  1  0  0  0  0
 65 62  1  0  0  0  0
 65 64  1  0  0  0  0
 68 67  1  0  0  0  0
M  END
>  <MODEL>
8

>  <REMARK>
 VINA RESULT:      -5.4      2.992      8.686
  Name = 
  27 active torsions:
  status: ('A' for Active; 'I' for Inactive)
    1  A    between atoms: C_2  and  C_39
    2  A    between atoms: C_5  and  C_22
    3  A    between atoms: C_5  and  C_42
    4  A    between atoms: C_6  and  C_31
    5  A    between atoms: C_8  and  C_22
    6  A    between atoms: C_8  and  C_59
    7  A    between atoms: C_11  and  C_46
    8  A    between atoms: C_11  and  C_57
    9  A    between atoms: C_15  and  C_63
   10  A    between atoms: C_16  and  C_32
   11  A    between atoms: C_18  and  C_59
   12  A    between atoms: C_21  and  O_66
   13  A    between atoms: C_24  and  C_25
   14  A    between atoms: C_24  and  C_60
   15  A    between atoms: O_26  and  C_53
   16  A    between atoms: O_26  and  C_63
   17  A    between atoms: C_31  and  C_33
   18  A    between atoms: C_33  and  O_66
   19  A    between atoms: O_35  and  C_58
   20  A    between atoms: O_35  and  C_67
   21  A    between atoms: C_39  and  C_65
   22  A    between atoms: N_41  and  C_50
   23  A    between atoms: C_42  and  C_49
   24  A    between atoms: C_45  and  C_49
   25  A    between atoms: C_45  and  C_65
   26  A    between atoms: C_46  and  C_58
   27  A    between atoms: C_60  and  C_65
                            x       y       z     vdW  Elec       q    Type
                         _______ _______ _______ _____ _____    ______ ____

>  <TORSDO>
F 27

$$$$
=
 OpenBabel11042418173D

 68 76  0  0  1  0  0  0  0  0999 V2000
  184.0190  178.8530  143.5310 C   0  0  0  0  0  1  0  0  0  0  0  0
  184.9450  177.7260  140.0760 O   0  0  0  0  0  0  0  0  0  0  0  0
  186.1210  177.6600  142.6360 C   0  0  2  0  0  3  0  0  0  0  0  0
  184.7350  178.2110  142.3930 C   0  0  0  0  0  0  0  0  0  0  0  0
  186.8150  177.2790  141.4050 N   0  0  0  0  0  0  0  0  0  0  0  0
  184.2100  178.2280  141.1600 C   0  0  0  0  0  0  0  0  0  0  0  0
  186.2700  177.2970  140.2300 C   0  0  0  0  0  0  0  0  0  0  0  0
  187.0380  176.9050  139.1360 O   0  0  0  0  0  0  0  0  0  0  0  0
  186.9960  175.5960  138.5860 C   0  0  0  0  0  2  0  0  0  0  0  0
  188.2010  174.7970  139.0740 C   0  0  0  0  0  2  0  0  0  0  0  0
  188.3950  173.5010  138.2990 C   0  0  0  0  0  2  0  0  0  0  0  0
  190.5840  173.1880  137.0580 C   0  0  1  0  0  0  0  0  0  0  0  0
  190.3350  174.5350  137.3600 O   0  0  0  0  0  0  0  0  0  0  0  0
  189.2080  173.7560  137.0320 C   0  0  2  0  0  3  0  0  0  0  0  0
  191.2820  173.0780  135.6950 C   0  0  1  0  0  0  0  0  0  0  0  0
  191.4500  174.3280  135.0820 O   0  0  0  0  0  0  0  0  0  0  0  0
  192.5790  173.7760  135.7120 C   0  0  2  0  0  3  0  0  0  0  0  0
  192.4920  172.3810  135.7960 O   0  0  0  0  0  0  0  0  0  0  0  0
  191.1290  172.4670  138.2940 C   0  0  0  0  0  2  0  0  0  0  0  0
  191.0660  171.0830  138.1110 O   0  0  0  0  0  0  0  0  0  0  0  0
  194.4000  171.2330  138.1200 C   0  0  0  0  0  2  0  0  0  0  0  0
  195.1510  169.2620  139.1240 C   0  0  0  0  0  2  0  0  0  0  0  0
  192.1280  170.5700  138.8610 C   0  0  1  0  0  3  0  0  0  0  0  0
  191.7030  169.2760  139.5270 C   0  0  0  0  0  2  0  0  0  0  0  0
  193.8580  168.9210  138.4060 C   0  0  1  0  0  3  0  0  0  0  0  0
  195.3760  170.7090  139.0740 N   0  0  2  0  0  0  0  0  0  0  0  0
  192.8690  168.3050  139.3770 C   0  0  0  0  0  2  0  0  0  0  0  0
  193.2850  170.2290  137.9420 C   0  0  2  0  0  3  0  0  0  0  0  0
  197.1930  171.0390  141.6990 C   0  0  0  0  0  3  0  0  0  0  0  0
  195.3770  172.8220  140.4590 C   0  0  2  0  0  3  0  0  0  0  0  0
  194.9080  173.5950  139.3190 N   0  0  0  0  0  0  0  0  0  0  0  0
  195.9730  170.6470  141.4290 N   0  0  0  0  0  0  0  0  0  0  0  0
  197.1680  173.8530  139.4380 N   0  0  0  0  0  0  0  0  0  0  0  0
  196.8290  173.0510  140.3870 C   0  0  0  0  0  0  0  0  0  0  0  0
  195.9390  174.1900  138.8050 C   0  0  0  0  0  3  0  0  0  0  0  0
  195.1190  171.2950  140.4080 C   0  0  2  0  0  3  0  0  0  0  0  0
  197.7420  172.2070  141.0740 N   0  0  0  0  0  2  0  0  0  0  0  0
  186.0780  176.4690  143.5940 C   0  0  0  0  0  2  0  0  0  0  0  0
  186.5750  176.8480  144.9870 C   0  0  0  0  0  2  0  0  0  0  0  0
  188.0410  176.4860  145.1910 C   0  0  2  0  0  3  0  0  0  0  0  0
  188.2700  175.8140  146.5360 C   0  0  0  0  0  1  0  0  0  0  0  0
  188.9610  177.6910  144.9880 C   0  0  0  0  0  2  0  0  0  0  0  0
  189.9810  177.4930  143.9080 C   0  0  0  0  0  0  0  0  0  0  0  0
  190.4570  178.4620  143.3360 O   0  0  0  0  0  0  0  0  0  0  0  0
  190.1080  175.8300  142.2390 O   0  0  0  0  0  1  0  0  0  0  0  0
  190.4340  176.1120  143.5650 C   0  0  1  0  0  3  0  0  0  0  0  0
  191.9380  175.9350  143.7860 C   0  0  1  0  0  3  0  0  0  0  0  0
  192.3240  176.3920  145.0530 O   0  0  0  0  0  1  0  0  0  0  0  0
  192.3580  174.4760  143.5700 C   0  0  2  0  0  3  0  0  0  0  0  0
  193.0940  173.0280  145.3500 O   0  0  0  0  0  1  0  0  0  0  0  0
  191.9570  173.5320  144.7160 C   0  0  2  0  0  3  0  0  0  0  0  0
  191.1080  172.3700  144.2160 C   0  0  0  0  0  2  0  0  0  0  0  0
  189.9200  171.6030  142.1810 C   0  0  0  0  0  1  0  0  0  0  0  0
  192.2910  171.4850  142.3270 O   0  0  0  0  0  1  0  0  0  0  0  0
  191.1850  172.2570  142.7020 C   0  0  2  0  0  3  0  0  0  0  0  0
  193.8600  174.4330  143.3420 C   0  0  0  0  0  2  0  0  0  0  0  0
  194.3440  175.7530  142.8510 C   0  0  0  0  0  0  0  0  0  0  0  0
  193.9940  176.1940  141.5800 O   0  0  0  0  0  0  0  0  0  0  0  0
  195.0400  176.4910  143.6010 O   0  0  0  0  0  1  0  0  0  0  0  0
  182.9320  178.7550  140.9590 O   0  0  0  0  0  0  0  0  0  0  0  0
  181.7480  177.9790  141.1020 C   0  0  0  0  0  2  0  0  0  0  0  0
  179.4390  177.8770  141.9730 C   0  0  0  0  0  2  0  0  0  0  0  0
  180.6230  178.7880  141.7400 C   0  0  2  0  0  3  0  0  0  0  0  0
  178.6970  179.3390  140.4450 C   0  0  1  0  0  3  0  0  0  0  0  0
  178.5460  178.0180  140.8960 O   0  0  0  0  0  0  0  0  0  0  0  0
  180.0980  179.8060  140.7660 C   0  0  0  0  0  2  0  0  0  0  0  0
  178.4860  179.4030  138.9460 C   0  0  0  0  0  2  0  0  0  0  0  0
  177.9790  178.1920  138.4780 O   0  0  0  0  0  1  0  0  0  0  0  0
  2  7  1  0  0  0  0
  2  6  1  0  0  0  0
  3 38  1  1  0  0  0
  4  3  1  0  0  0  0
  4  1  1  0  0  0  0
  5  3  1  0  0  0  0
  6  4  2  0  0  0  0
  7  5  2  0  0  0  0
  8  7  1  0  0  0  0
  9 10  1  0  0  0  0
  9  8  1  0  0  0  0
 11 10  1  0  0  0  0
 12 13  1  0  0  0  0
 12 19  1  1  0  0  0
 14 12  1  0  0  0  0
 14 13  1  0  0  0  0
 14 11  1  1  0  0  0
 15 16  1  6  0  0  0
 15 17  1  0  0  0  0
 15 18  1  0  0  0  0
 15 12  1  0  0  0  0
 17 16  1  6  0  0  0
 17 18  1  0  0  0  0
 20 19  1  0  0  0  0
 23 20  1  6  0  0  0
 23 24  1  0  0  0  0
 25 22  1  1  0  0  0
 25 27  1  0  0  0  0
 26 21  1  6  0  0  0
 26 22  1  0  0  0  0
 26 36  1  0  0  0  0
 27 24  1  0  0  0  0
 28 21  1  1  0  0  0
 28 25  1  0  0  0  0
 28 23  1  0  0  0  0
 30 31  1  6  0  0  0
 32 29  2  0  0  0  0
 33 34  2  0  0  0  0
 34 30  1  0  0  0  0
 34 37  1  0  0  0  0
 35 31  2  0  0  0  0
 35 33  1  0  0  0  0
 36 30  1  0  0  0  0
 36 32  1  1  0  0  0
 37 29  1  0  0  0  0
 38 39  1  0  0  0  0
 39 40  1  0  0  0  0
 40 41  1  1  0  0  0
 42 40  1  0  0  0  0
 43 42  1  0  0  0  0
 44 43  2  0  0  0  0
 46 45  1  6  0  0  0
 46 47  1  0  0  0  0
 46 43  1  0  0  0  0
 47 48  1  1  0  0  0
 49 56  1  1  0  0  0
 49 47  1  0  0  0  0
 49 51  1  0  0  0  0
 51 50  1  6  0  0  0
 52 51  1  0  0  0  0
 54 55  1  0  0  0  0
 55 53  1  1  0  0  0
 55 52  1  0  0  0  0
 57 56  1  0  0  0  0
 57 59  1  0  0  0  0
 58 57  2  0  0  0  0
 60 61  1  0  0  0  0
 60  6  1  0  0  0  0
 63 61  1  6  0  0  0
 63 62  1  0  0  0  0
 64 67  1  6  0  0  0
 64 66  1  0  0  0  0
 64 65  1  0  0  0  0
 65 62  1  0  0  0  0
 66 63  1  0  0  0  0
 68 67  1  0  0  0  0
M  END
>  <MODEL>
9

>  <REMARK>
 VINA RESULT:      -5.4      2.415      3.605
  Name = 
  27 active torsions:
  status: ('A' for Active; 'I' for Inactive)
    1  A    between atoms: C_2  and  C_39
    2  A    between atoms: C_5  and  C_22
    3  A    between atoms: C_5  and  C_42
    4  A    between atoms: C_6  and  C_31
    5  A    between atoms: C_8  and  C_22
    6  A    between atoms: C_8  and  C_59
    7  A    between atoms: C_11  and  C_46
    8  A    between atoms: C_11  and  C_57
    9  A    between atoms: C_15  and  C_63
   10  A    between atoms: C_16  and  C_32
   11  A    between atoms: C_18  and  C_59
   12  A    between atoms: C_21  and  O_66
   13  A    between atoms: C_24  and  C_25
   14  A    between atoms: C_24  and  C_60
   15  A    between atoms: O_26  and  C_53
   16  A    between atoms: O_26  and  C_63
   17  A    between atoms: C_31  and  C_33
   18  A    between atoms: C_33  and  O_66
   19  A    between atoms: O_35  and  C_58
   20  A    between atoms: O_35  and  C_67
   21  A    between atoms: C_39  and  C_65
   22  A    between atoms: N_41  and  C_50
   23  A    between atoms: C_42  and  C_49
   24  A    between atoms: C_45  and  C_49
   25  A    between atoms: C_45  and  C_65
   26  A    between atoms: C_46  and  C_58
   27  A    between atoms: C_60  and  C_65
                            x       y       z     vdW  Elec       q    Type
                         _______ _______ _______ _____ _____    ______ ____

>  <TORSDO>
F 27

$$$$
