=
 OpenBabel11042416023D

 58 61  0  0  1  0  0  0  0  0999 V2000
  190.8620  176.2970  146.5760 C   0  0  2  0  0  3  0  0  0  0  0  0
  189.8970  176.8210  147.6210 C   0  0  0  0  0  2  0  0  0  0  0  0
  188.6680  177.4160  146.9590 C   0  0  0  0  0  2  0  0  0  0  0  0
  187.5040  176.4650  147.1370 C   0  0  0  0  0  2  0  0  0  0  0  0
  186.2180  177.2520  147.2940 C   0  0  0  0  0  2  0  0  0  0  0  0
  185.3140  176.9730  146.1110 C   0  0  0  0  0  2  0  0  0  0  0  0
  185.5220  177.9420  145.1250 O   0  0  0  0  0  0  0  0  0  0  0  0
  188.4510  178.6340  141.2700 O   0  0  0  0  0  0  0  0  0  0  0  0
  187.7510  177.6540  141.0600 C   0  0  0  0  0  0  0  0  0  0  0  0
  186.4040  176.4480  139.4900 O   0  0  0  0  0  1  0  0  0  0  0  0
  187.9910  176.3930  141.8420 C   0  0  0  0  0  2  0  0  0  0  0  0
  188.0460  177.6530  143.9430 O   0  0  0  0  0  1  0  0  0  0  0  0
  185.1740  177.3150  143.9220 C   0  0  2  0  0  3  0  0  0  0  0  0
  186.1260  176.1470  143.5990 C   0  0  0  0  0  2  0  0  0  0  0  0
  186.0080  179.2910  142.8230 O   0  0  0  0  0  1  0  0  0  0  0  0
  184.8790  177.6370  141.5540 O   0  0  0  0  0  0  0  0  0  0  0  0
  185.4250  178.3910  140.5030 C   0  0  0  0  0  2  0  0  0  0  0  0
  184.9850  178.3280  142.7870 C   0  0  1  0  0  3  0  0  0  0  0  0
  186.6980  177.7200  139.9870 C   0  0  1  0  0  3  0  0  0  0  0  0
  187.6020  176.4790  143.3250 C   0  0  1  0  0  3  0  0  0  0  0  0
  190.1290  175.4950  145.6020 N   0  0  0  0  0  2  0  0  0  0  0  0
  192.2420  174.0870  141.8460 C   0  0  0  0  0  3  0  0  0  0  0  0
  192.4110  173.0070  142.8650 C   0  0  1  0  0  3  0  0  0  0  0  0
  191.7780  175.3000  142.1480 C   0  0  0  0  0  3  0  0  0  0  0  0
  191.3110  175.7430  143.4800 C   0  0  0  0  0  0  0  0  0  0  0  0
  190.6550  174.9560  144.3770 C   0  0  0  0  0  0  0  0  0  0  0  0
  191.4860  177.0690  143.7330 F   0  0  0  0  0  0  0  0  0  0  0  0
  191.0920  172.6520  143.4610 C   0  0  0  0  0  3  0  0  0  0  0  0
  190.3500  173.5230  144.1450 C   0  0  0  0  0  3  0  0  0  0  0  0
  193.0090  171.7750  142.2090 C   0  0  0  0  0  2  0  0  0  0  0  0
  192.2480  170.9270  140.1330 N   0  0  0  0  0  0  0  0  0  0  0  0
  192.0180  171.1190  141.3720 N   0  0  0  0  0  0  0  0  0  0  0  0
  191.3250  170.3190  139.2970 O   0  0  0  0  0  0  0  0  0  0  0  0
  190.8900  170.8700  138.0410 C   0  0  2  0  0  0  0  0  0  0  0  0
  189.9470  169.8880  137.3340 C   0  0  0  0  0  1  0  0  0  0  0  0
  192.9130  170.0900  136.7640 O   0  0  0  0  0  1  0  0  0  0  0  0
  192.3010  172.2980  136.7200 O   0  0  0  0  0  0  0  0  0  0  0  0
  192.0800  171.1340  137.1550 C   0  0  0  0  0  0  0  0  0  0  0  0
  190.2380  172.1100  138.2480 O   0  0  0  0  0  0  0  0  0  0  0  0
  189.0340  171.8970  138.9430 C   0  0  0  0  0  2  0  0  0  0  0  0
  188.7100  173.0960  139.7640 C   0  0  0  0  0  0  0  0  0  0  0  0
  188.8360  174.2490  139.2710 O   0  0  0  0  0  0  0  0  0  0  0  0
  188.3160  172.9460  141.0870 O   0  0  0  0  0  1  0  0  0  0  0  0
  191.9440  175.4550  147.2440 C   0  0  0  0  0  2  0  0  0  0  0  0
  195.4750  175.3760  144.8040 C   0  0  0  0  0  0  0  0  0  0  0  0
  194.8740  174.1800  145.2150 C   0  0  0  0  0  3  0  0  0  0  0  0
  193.7300  174.2070  146.0190 C   0  0  0  0  0  3  0  0  0  0  0  0
  193.1910  175.4340  146.4230 C   0  0  0  0  0  0  0  0  0  0  0  0
  194.9380  176.6050  145.2110 C   0  0  0  0  0  3  0  0  0  0  0  0
  193.7940  176.6330  146.0150 C   0  0  0  0  0  3  0  0  0  0  0  0
  196.6990  175.3340  143.9580 C   0  0  0  0  0  2  0  0  0  0  0  0
  196.5180  176.2130  142.7330 C   0  0  0  0  0  2  0  0  0  0  0  0
  196.0270  175.3980  141.5880 C   0  0  0  0  0  0  0  0  0  0  0  0
  196.3310  174.0350  141.5230 C   0  0  0  0  0  3  0  0  0  0  0  0
  195.2410  175.9860  140.5910 C   0  0  0  0  0  3  0  0  0  0  0  0
  195.0790  173.8500  139.4620 C   0  0  0  0  0  3  0  0  0  0  0  0
  195.8590  173.2620  140.4600 C   0  0  0  0  0  3  0  0  0  0  0  0
  194.7690  175.2120  139.5270 C   0  0  0  0  0  3  0  0  0  0  0  0
  1 44  1  1  0  0  0
  1  2  1  0  0  0  0
  3  4  1  0  0  0  0
  3  2  1  0  0  0  0
  4  5  1  0  0  0  0
  6  5  1  0  0  0  0
  7  6  1  0  0  0  0
  9  8  2  0  0  0  0
  9 11  1  0  0  0  0
 11 20  1  0  0  0  0
 13  7  1  1  0  0  0
 14 13  1  0  0  0  0
 16 18  1  0  0  0  0
 17 16  1  0  0  0  0
 18 15  1  6  0  0  0
 18 13  1  0  0  0  0
 19 10  1  1  0  0  0
 19 17  1  0  0  0  0
 19  9  1  0  0  0  0
 20 14  1  0  0  0  0
 20 12  1  6  0  0  0
 21  1  1  0  0  0  0
 22 24  2  0  0  0  0
 22 23  1  0  0  0  0
 23 30  1  6  0  0  0
 23 28  1  0  0  0  0
 24 25  1  0  0  0  0
 25 27  1  0  0  0  0
 25 26  2  0  0  0  0
 26 21  1  0  0  0  0
 28 29  2  0  0  0  0
 29 26  1  0  0  0  0
 31 32  2  0  0  0  0
 32 30  1  0  0  0  0
 33 31  1  0  0  0  0
 34 35  1  6  0  0  0
 34 39  1  0  0  0  0
 34 33  1  0  0  0  0
 36 38  1  0  0  0  0
 37 38  2  0  0  0  0
 38 34  1  0  0  0  0
 39 40  1  0  0  0  0
 40 41  1  0  0  0  0
 41 43  1  0  0  0  0
 42 41  2  0  0  0  0
 45 49  2  0  0  0  0
 45 46  1  0  0  0  0
 46 47  2  0  0  0  0
 47 48  1  0  0  0  0
 48 44  1  0  0  0  0
 49 50  1  0  0  0  0
 50 48  2  0  0  0  0
 51 45  1  0  0  0  0
 52 51  1  0  0  0  0
 53 52  1  0  0  0  0
 54 53  1  0  0  0  0
 55 53  2  0  0  0  0
 56 58  2  0  0  0  0
 56 57  1  0  0  0  0
 57 54  2  0  0  0  0
 58 55  1  0  0  0  0
M  END
>  <MODEL>
1

>  <REMARK>
 VINA RESULT:      -6.4      0.000      0.000
  Name = 
  22 active torsions:
  status: ('A' for Active; 'I' for Inactive)
    1  A    between atoms: C_3  and  C_5
    2  A    between atoms: C_3  and  C_27
    3  A    between atoms: C_4  and  C_5
    4  A    between atoms: C_4  and  C_40
    5  A    between atoms: C_6  and  C_32
    6  A    between atoms: N_7  and  O_10
    7  A    between atoms: C_8  and  O_10
    8  A    between atoms: C_8  and  O_37
    9  A    between atoms: C_8  and  C_43
   10  A    between atoms: C_12  and  C_24
   11  A    between atoms: C_13  and  O_37
   12  A    between atoms: C_13  and  C_39
   13  A    between atoms: C_15  and  C_17
   14  A    between atoms: C_17  and  C_24
   15  A    between atoms: C_25  and  C_33
   16  A    between atoms: C_25  and  C_54
   17  A    between atoms: N_26  and  C_41
   18  A    between atoms: N_26  and  C_54
   19  A    between atoms: C_27  and  O_56
   20  A    between atoms: C_28  and  O_56
   21  A    between atoms: N_31  and  C_32
   22  A    between atoms: C_40  and  C_54
                            x       y       z     vdW  Elec       q    Type
                         _______ _______ _______ _____ _____    ______ ____

>  <TORSDO>
F 22

$$$$
=
 OpenBabel11042416023D

 58 61  0  0  1  0  0  0  0  0999 V2000
  189.6710  174.0100  143.0010 C   0  0  2  0  0  3  0  0  0  0  0  0
  189.1250  172.5960  143.0540 C   0  0  0  0  0  2  0  0  0  0  0  0
  189.4600  171.8490  141.7770 C   0  0  0  0  0  2  0  0  0  0  0  0
  190.6770  170.9820  142.0200 C   0  0  0  0  0  2  0  0  0  0  0  0
  191.5420  170.9550  140.7750 C   0  0  0  0  0  2  0  0  0  0  0  0
  192.1080  172.3390  140.5300 C   0  0  0  0  0  2  0  0  0  0  0  0
  192.6050  172.4170  139.2260 O   0  0  0  0  0  0  0  0  0  0  0  0
  191.2710  172.4600  134.5220 O   0  0  0  0  0  0  0  0  0  0  0  0
  190.7430  173.4050  135.0880 C   0  0  0  0  0  0  0  0  0  0  0  0
  190.1610  175.7270  135.0030 O   0  0  0  0  0  1  0  0  0  0  0  0
  189.6390  173.1520  136.0760 C   0  0  0  0  0  2  0  0  0  0  0  0
  190.9670  171.4180  137.1850 O   0  0  0  0  0  1  0  0  0  0  0  0
  192.0810  173.6080  138.7100 C   0  0  2  0  0  3  0  0  0  0  0  0
  190.5660  173.4930  138.4520 C   0  0  0  0  0  2  0  0  0  0  0  0
  193.2350  173.0560  136.6670 O   0  0  0  0  0  1  0  0  0  0  0  0
  192.1990  175.1770  136.8860 O   0  0  0  0  0  0  0  0  0  0  0  0
  192.4470  175.1910  135.5040 C   0  0  0  0  0  2  0  0  0  0  0  0
  192.9010  174.1210  137.5200 C   0  0  1  0  0  3  0  0  0  0  0  0
  191.1780  174.8040  134.7430 C   0  0  1  0  0  3  0  0  0  0  0  0
  190.0930  172.4910  137.3850 C   0  0  1  0  0  3  0  0  0  0  0  0
  189.2260  174.7430  144.1820 N   0  0  0  0  0  2  0  0  0  0  0  0
  191.9650  176.0440  147.5520 C   0  0  0  0  0  3  0  0  0  0  0  0
  192.8030  175.9820  146.3170 C   0  0  1  0  0  3  0  0  0  0  0  0
  190.7310  175.5440  147.6140 C   0  0  0  0  0  3  0  0  0  0  0  0
  189.9880  174.9260  146.4940 C   0  0  0  0  0  0  0  0  0  0  0  0
  190.0710  175.3190  145.1930 C   0  0  0  0  0  0  0  0  0  0  0  0
  189.0960  173.9660  146.8630 F   0  0  0  0  0  0  0  0  0  0  0  0
  192.1490  176.7410  145.2140 C   0  0  0  0  0  3  0  0  0  0  0  0
  190.9550  176.4110  144.7190 C   0  0  0  0  0  3  0  0  0  0  0  0
  194.1680  176.5880  146.5950 C   0  0  0  0  0  2  0  0  0  0  0  0
  195.4430  175.7130  144.8010 N   0  0  0  0  0  0  0  0  0  0  0  0
  195.2160  175.7370  146.0550 N   0  0  0  0  0  0  0  0  0  0  0  0
  196.4210  174.9070  144.2420 O   0  0  0  0  0  0  0  0  0  0  0  0
  196.1490  173.7900  143.3780 C   0  0  2  0  0  0  0  0  0  0  0  0
  194.6410  173.6890  143.1100 C   0  0  0  0  0  1  0  0  0  0  0  0
  195.8420  171.3620  143.9610 O   0  0  0  0  0  0  0  0  0  0  0  0
  197.7510  172.4650  144.5830 O   0  0  0  0  0  1  0  0  0  0  0  0
  196.6210  172.5130  144.0240 C   0  0  0  0  0  0  0  0  0  0  0  0
  196.8530  173.9290  142.1580 O   0  0  0  0  0  0  0  0  0  0  0  0
  196.0160  174.5220  141.1970 C   0  0  0  0  0  2  0  0  0  0  0  0
  196.5810  175.8350  140.7810 C   0  0  0  0  0  0  0  0  0  0  0  0
  197.4940  175.8820  139.9140 O   0  0  0  0  0  0  0  0  0  0  0  0
  196.1350  177.0050  141.3830 O   0  0  0  0  0  1  0  0  0  0  0  0
  189.1850  174.7070  141.7340 C   0  0  0  0  0  2  0  0  0  0  0  0
  186.4020  177.8650  142.5730 C   0  0  0  0  0  0  0  0  0  0  0  0
  187.7100  178.1650  142.1750 C   0  0  0  0  0  3  0  0  0  0  0  0
  188.6190  177.1350  141.9120 C   0  0  0  0  0  3  0  0  0  0  0  0
  188.2220  175.8010  142.0600 C   0  0  0  0  0  0  0  0  0  0  0  0
  186.0050  176.5300  142.7240 C   0  0  0  0  0  3  0  0  0  0  0  0
  186.9130  175.4990  142.4620 C   0  0  0  0  0  3  0  0  0  0  0  0
  185.4470  178.9710  142.8610 C   0  0  0  0  0  2  0  0  0  0  0  0
  185.7980  179.6360  144.1800 C   0  0  0  0  0  2  0  0  0  0  0  0
  185.8980  178.6140  145.2570 C   0  0  0  0  0  0  0  0  0  0  0  0
  187.1520  178.2530  145.7600 C   0  0  0  0  0  3  0  0  0  0  0  0
  184.7410  178.0330  145.7880 C   0  0  0  0  0  3  0  0  0  0  0  0
  186.0970  176.7220  147.3070 C   0  0  0  0  0  3  0  0  0  0  0  0
  187.2520  177.3060  146.7820 C   0  0  0  0  0  3  0  0  0  0  0  0
  184.8410  177.0860  146.8110 C   0  0  0  0  0  3  0  0  0  0  0  0
  1 44  1  6  0  0  0
  1  2  1  0  0  0  0
  1 21  1  0  0  0  0
  3  4  1  0  0  0  0
  3  2  1  0  0  0  0
  5  4  1  0  0  0  0
  6  5  1  0  0  0  0
  7  6  1  0  0  0  0
  8  9  2  0  0  0  0
  9 11  1  0  0  0  0
 11 20  1  0  0  0  0
 13  7  1  6  0  0  0
 14 13  1  0  0  0  0
 16 18  1  0  0  0  0
 17 16  1  0  0  0  0
 18 15  1  6  0  0  0
 18 13  1  0  0  0  0
 19 10  1  1  0  0  0
 19  9  1  0  0  0  0
 19 17  1  0  0  0  0
 20 12  1  6  0  0  0
 20 14  1  0  0  0  0
 21 26  1  0  0  0  0
 22 24  2  0  0  0  0
 23 30  1  1  0  0  0
 23 22  1  0  0  0  0
 25 27  1  0  0  0  0
 25 24  1  0  0  0  0
 26 25  2  0  0  0  0
 28 23  1  0  0  0  0
 29 26  1  0  0  0  0
 29 28  2  0  0  0  0
 31 32  2  0  0  0  0
 32 30  1  0  0  0  0
 33 31  1  0  0  0  0
 34 35  1  6  0  0  0
 34 38  1  0  0  0  0
 34 33  1  0  0  0  0
 36 38  2  0  0  0  0
 38 37  1  0  0  0  0
 39 34  1  0  0  0  0
 40 39  1  0  0  0  0
 41 40  1  0  0  0  0
 41 43  1  0  0  0  0
 42 41  2  0  0  0  0
 44 48  1  0  0  0  0
 45 49  1  0  0  0  0
 45 51  1  0  0  0  0
 46 45  2  0  0  0  0
 47 48  2  0  0  0  0
 47 46  1  0  0  0  0
 48 50  1  0  0  0  0
 50 49  2  0  0  0  0
 51 52  1  0  0  0  0
 52 53  1  0  0  0  0
 53 54  2  0  0  0  0
 53 55  1  0  0  0  0
 54 57  1  0  0  0  0
 55 58  2  0  0  0  0
 57 56  2  0  0  0  0
 58 56  1  0  0  0  0
M  END
>  <MODEL>
2

>  <REMARK>
 VINA RESULT:      -6.2      3.488      8.439
  Name = 
  22 active torsions:
  status: ('A' for Active; 'I' for Inactive)
    1  A    between atoms: C_3  and  C_5
    2  A    between atoms: C_3  and  C_27
    3  A    between atoms: C_4  and  C_5
    4  A    between atoms: C_4  and  C_40
    5  A    between atoms: C_6  and  C_32
    6  A    between atoms: N_7  and  O_10
    7  A    between atoms: C_8  and  O_10
    8  A    between atoms: C_8  and  O_37
    9  A    between atoms: C_8  and  C_43
   10  A    between atoms: C_12  and  C_24
   11  A    between atoms: C_13  and  O_37
   12  A    between atoms: C_13  and  C_39
   13  A    between atoms: C_15  and  C_17
   14  A    between atoms: C_17  and  C_24
   15  A    between atoms: C_25  and  C_33
   16  A    between atoms: C_25  and  C_54
   17  A    between atoms: N_26  and  C_41
   18  A    between atoms: N_26  and  C_54
   19  A    between atoms: C_27  and  O_56
   20  A    between atoms: C_28  and  O_56
   21  A    between atoms: N_31  and  C_32
   22  A    between atoms: C_40  and  C_54
                            x       y       z     vdW  Elec       q    Type
                         _______ _______ _______ _____ _____    ______ ____

>  <TORSDO>
F 22

$$$$
=
 OpenBabel11042416023D

 58 61  0  0  1  0  0  0  0  0999 V2000
  186.7270  177.5190  140.6360 C   0  0  2  0  0  3  0  0  0  0  0  0
  186.6780  177.5490  139.1210 C   0  0  0  0  0  2  0  0  0  0  0  0
  186.6190  176.1400  138.5620 C   0  0  0  0  0  2  0  0  0  0  0  0
  186.9560  176.1810  137.0870 C   0  0  0  0  0  2  0  0  0  0  0  0
  187.9310  175.0680  136.7540 C   0  0  0  0  0  2  0  0  0  0  0  0
  188.0840  174.1610  137.9570 C   0  0  0  0  0  2  0  0  0  0  0  0
  188.8620  173.0530  137.6110 O   0  0  0  0  0  0  0  0  0  0  0  0
  193.3880  171.2000  137.6250 O   0  0  0  0  0  0  0  0  0  0  0  0
  193.0670  171.4600  138.7750 C   0  0  0  0  0  0  0  0  0  0  0  0
  193.0540  170.7570  141.0640 O   0  0  0  0  0  1  0  0  0  0  0  0
  192.9500  172.8970  139.2030 C   0  0  0  0  0  2  0  0  0  0  0  0
  191.6110  173.4250  137.2200 O   0  0  0  0  0  1  0  0  0  0  0  0
  189.3640  172.5690  138.8260 C   0  0  2  0  0  3  0  0  0  0  0  0
  190.4540  173.4970  139.3950 C   0  0  0  0  0  2  0  0  0  0  0  0
  190.4410  170.8500  137.5270 O   0  0  0  0  0  1  0  0  0  0  0  0
  190.4790  170.7210  139.8940 O   0  0  0  0  0  0  0  0  0  0  0  0
  191.4430  169.7440  139.6010 C   0  0  0  0  0  2  0  0  0  0  0  0
  189.7580  171.0910  138.7300 C   0  0  1  0  0  3  0  0  0  0  0  0
  192.8460  170.3340  139.7490 C   0  0  1  0  0  3  0  0  0  0  0  0
  191.7580  173.6480  138.5930 C   0  0  1  0  0  3  0  0  0  0  0  0
  187.0580  176.1690  141.0810 N   0  0  0  0  0  2  0  0  0  0  0  0
  190.6360  174.6220  143.3960 C   0  0  0  0  0  3  0  0  0  0  0  0
  191.0970  175.8310  142.6500 C   0  0  1  0  0  3  0  0  0  0  0  0
  189.4630  174.0320  143.1630 C   0  0  0  0  0  3  0  0  0  0  0  0
  188.4340  174.4960  142.2060 C   0  0  0  0  0  0  0  0  0  0  0  0
  188.1560  175.8000  141.9340 C   0  0  0  0  0  0  0  0  0  0  0  0
  187.6720  173.5060  141.6650 F   0  0  0  0  0  0  0  0  0  0  0  0
  190.1670  176.9700  142.8940 C   0  0  0  0  0  3  0  0  0  0  0  0
  188.8810  176.9410  142.5440 C   0  0  0  0  0  3  0  0  0  0  0  0
  192.4900  176.2180  143.1150 C   0  0  0  0  0  2  0  0  0  0  0  0
  194.0460  175.1710  144.5610 N   0  0  0  0  0  0  0  0  0  0  0  0
  193.1940  175.0510  143.6210 N   0  0  0  0  0  0  0  0  0  0  0  0
  194.7490  174.0880  145.0630 O   0  0  0  0  0  0  0  0  0  0  0  0
  196.0560  173.6950  144.6070 C   0  0  2  0  0  0  0  0  0  0  0  0
  195.9350  172.8380  143.3400 C   0  0  0  0  0  1  0  0  0  0  0  0
  197.0460  171.5520  145.4760 O   0  0  0  0  0  0  0  0  0  0  0  0
  197.1290  173.4580  146.7440 O   0  0  0  0  0  1  0  0  0  0  0  0
  196.7550  172.8980  145.6770 C   0  0  0  0  0  0  0  0  0  0  0  0
  196.8510  174.8380  144.3490 O   0  0  0  0  0  0  0  0  0  0  0  0
  197.1340  174.9130  142.9740 C   0  0  0  0  0  2  0  0  0  0  0  0
  196.8460  176.2860  142.4770 C   0  0  0  0  0  0  0  0  0  0  0  0
  196.4780  176.4600  141.2830 O   0  0  0  0  0  0  0  0  0  0  0  0
  197.0270  177.3800  143.3130 O   0  0  0  0  0  1  0  0  0  0  0  0
  185.3800  177.9470  141.2080 C   0  0  0  0  0  2  0  0  0  0  0  0
  185.5650  178.6810  145.4340 C   0  0  0  0  0  0  0  0  0  0  0  0
  186.0140  179.6510  144.5280 C   0  0  0  0  0  3  0  0  0  0  0  0
  185.9630  179.4050  143.1520 C   0  0  0  0  0  3  0  0  0  0  0  0
  185.4720  178.1830  142.6800 C   0  0  0  0  0  0  0  0  0  0  0  0
  185.0760  177.4560  144.9610 C   0  0  0  0  0  3  0  0  0  0  0  0
  185.0250  177.2100  143.5850 C   0  0  0  0  0  3  0  0  0  0  0  0
  185.6350  178.9490  146.8960 C   0  0  0  0  0  2  0  0  0  0  0  0
  186.0010  177.6790  147.6440 C   0  0  0  0  0  2  0  0  0  0  0  0
  187.3730  177.2410  147.2670 C   0  0  0  0  0  0  0  0  0  0  0  0
  188.4450  178.1310  147.3890 C   0  0  0  0  0  3  0  0  0  0  0  0
  187.5980  175.9360  146.8170 C   0  0  0  0  0  3  0  0  0  0  0  0
  189.9600  176.4200  146.5980 C   0  0  0  0  0  3  0  0  0  0  0  0
  189.7370  177.7220  147.0530 C   0  0  0  0  0  3  0  0  0  0  0  0
  188.8910  175.5260  146.4810 C   0  0  0  0  0  3  0  0  0  0  0  0
  1  2  1  6  0  0  0
  1 21  1  0  0  0  0
  1 44  1  0  0  0  0
  3  2  1  0  0  0  0
  4  3  1  0  0  0  0
  5  4  1  0  0  0  0
  5  6  1  0  0  0  0
  7  6  1  0  0  0  0
  8  9  2  0  0  0  0
  9 11  1  0  0  0  0
  9 19  1  0  0  0  0
 13  7  1  6  0  0  0
 13 14  1  0  0  0  0
 17 19  1  0  0  0  0
 17 16  1  0  0  0  0
 18 15  1  6  0  0  0
 18 13  1  0  0  0  0
 18 16  1  0  0  0  0
 19 10  1  1  0  0  0
 20 12  1  6  0  0  0
 20 11  1  0  0  0  0
 20 14  1  0  0  0  0
 21 26  1  0  0  0  0
 23 28  1  0  0  0  0
 23 30  1  1  0  0  0
 23 22  1  0  0  0  0
 24 22  2  0  0  0  0
 25 24  1  0  0  0  0
 26 25  2  0  0  0  0
 26 29  1  0  0  0  0
 27 25  1  0  0  0  0
 29 28  2  0  0  0  0
 30 32  1  0  0  0  0
 31 33  1  0  0  0  0
 32 31  2  0  0  0  0
 34 35  1  6  0  0  0
 34 33  1  0  0  0  0
 34 38  1  0  0  0  0
 36 38  2  0  0  0  0
 38 37  1  0  0  0  0
 39 34  1  0  0  0  0
 40 39  1  0  0  0  0
 41 40  1  0  0  0  0
 41 43  1  0  0  0  0
 42 41  2  0  0  0  0
 44 48  1  0  0  0  0
 45 51  1  0  0  0  0
 46 45  2  0  0  0  0
 47 46  1  0  0  0  0
 48 47  2  0  0  0  0
 48 50  1  0  0  0  0
 49 45  1  0  0  0  0
 50 49  2  0  0  0  0
 51 52  1  0  0  0  0
 53 54  1  0  0  0  0
 53 52  1  0  0  0  0
 55 53  2  0  0  0  0
 56 57  1  0  0  0  0
 57 54  2  0  0  0  0
 58 56  2  0  0  0  0
 58 55  1  0  0  0  0
M  END
>  <MODEL>
3

>  <REMARK>
 VINA RESULT:      -6.0      3.404      8.662
  Name = 
  22 active torsions:
  status: ('A' for Active; 'I' for Inactive)
    1  A    between atoms: C_3  and  C_5
    2  A    between atoms: C_3  and  C_27
    3  A    between atoms: C_4  and  C_5
    4  A    between atoms: C_4  and  C_40
    5  A    between atoms: C_6  and  C_32
    6  A    between atoms: N_7  and  O_10
    7  A    between atoms: C_8  and  O_10
    8  A    between atoms: C_8  and  O_37
    9  A    between atoms: C_8  and  C_43
   10  A    between atoms: C_12  and  C_24
   11  A    between atoms: C_13  and  O_37
   12  A    between atoms: C_13  and  C_39
   13  A    between atoms: C_15  and  C_17
   14  A    between atoms: C_17  and  C_24
   15  A    between atoms: C_25  and  C_33
   16  A    between atoms: C_25  and  C_54
   17  A    between atoms: N_26  and  C_41
   18  A    between atoms: N_26  and  C_54
   19  A    between atoms: C_27  and  O_56
   20  A    between atoms: C_28  and  O_56
   21  A    between atoms: N_31  and  C_32
   22  A    between atoms: C_40  and  C_54
                            x       y       z     vdW  Elec       q    Type
                         _______ _______ _______ _____ _____    ______ ____

>  <TORSDO>
F 22

$$$$
=
 OpenBabel11042416023D

 58 61  0  0  1  0  0  0  0  0999 V2000
  186.7130  177.5730  140.6390 C   0  0  2  0  0  3  0  0  0  0  0  0
  186.6550  177.6090  139.1240 C   0  0  0  0  0  2  0  0  0  0  0  0
  186.6030  176.2020  138.5600 C   0  0  0  0  0  2  0  0  0  0  0  0
  186.9070  176.2550  137.0780 C   0  0  0  0  0  2  0  0  0  0  0  0
  187.8080  175.0960  136.6980 C   0  0  0  0  0  2  0  0  0  0  0  0
  188.1260  174.2840  137.9380 C   0  0  0  0  0  2  0  0  0  0  0  0
  188.7270  173.0780  137.5650 O   0  0  0  0  0  0  0  0  0  0  0  0
  193.2140  171.1430  137.3690 O   0  0  0  0  0  0  0  0  0  0  0  0
  192.9420  171.3850  138.5350 C   0  0  0  0  0  0  0  0  0  0  0  0
  193.0020  170.6360  140.8090 O   0  0  0  0  0  1  0  0  0  0  0  0
  192.8690  172.8150  138.9950 C   0  0  0  0  0  2  0  0  0  0  0  0
  191.4660  173.4080  137.0760 O   0  0  0  0  0  1  0  0  0  0  0  0
  189.2650  172.5610  138.7500 C   0  0  2  0  0  3  0  0  0  0  0  0
  190.3950  173.4570  139.2950 C   0  0  0  0  0  2  0  0  0  0  0  0
  190.2590  170.8490  137.3770 O   0  0  0  0  0  1  0  0  0  0  0  0
  190.3850  170.6720  139.7380 O   0  0  0  0  0  0  0  0  0  0  0  0
  191.3180  169.6830  139.3890 C   0  0  0  0  0  2  0  0  0  0  0  0
  189.6270  171.0780  138.6100 C   0  0  1  0  0  3  0  0  0  0  0  0
  192.7370  170.2440  139.4950 C   0  0  1  0  0  3  0  0  0  0  0  0
  191.6700  173.6000  138.4470 C   0  0  1  0  0  3  0  0  0  0  0  0
  187.1140  176.2390  141.0740 N   0  0  0  0  0  2  0  0  0  0  0  0
  190.7500  174.8790  143.4150 C   0  0  0  0  0  3  0  0  0  0  0  0
  191.1410  176.1340  142.7040 C   0  0  1  0  0  3  0  0  0  0  0  0
  189.6230  174.2190  143.1490 C   0  0  0  0  0  3  0  0  0  0  0  0
  188.5810  174.6360  142.1860 C   0  0  0  0  0  0  0  0  0  0  0  0
  188.2200  175.9240  141.9370 C   0  0  0  0  0  0  0  0  0  0  0  0
  187.8950  173.6100  141.6100 F   0  0  0  0  0  0  0  0  0  0  0  0
  190.1340  177.2030  142.9570 C   0  0  0  0  0  3  0  0  0  0  0  0
  188.8580  177.0970  142.5850 C   0  0  0  0  0  3  0  0  0  0  0  0
  192.4980  176.6010  143.2020 C   0  0  0  0  0  2  0  0  0  0  0  0
  194.1710  175.8280  144.6890 N   0  0  0  0  0  0  0  0  0  0  0  0
  193.1160  175.5720  144.0220 N   0  0  0  0  0  0  0  0  0  0  0  0
  194.8000  174.8730  145.4710 O   0  0  0  0  0  0  0  0  0  0  0  0
  195.7700  173.9340  144.9720 C   0  0  2  0  0  0  0  0  0  0  0  0
  196.8110  173.6280  146.0570 C   0  0  0  0  0  1  0  0  0  0  0  0
  195.9910  174.2450  142.4860 O   0  0  0  0  0  0  0  0  0  0  0  0
  197.4600  175.2730  143.9120 O   0  0  0  0  0  1  0  0  0  0  0  0
  196.4670  174.5070  143.7660 C   0  0  0  0  0  0  0  0  0  0  0  0
  195.1300  172.7400  144.5590 O   0  0  0  0  0  0  0  0  0  0  0  0
  195.6630  171.6510  145.2730 C   0  0  0  0  0  2  0  0  0  0  0  0
  194.5840  170.6680  145.5650 C   0  0  0  0  0  0  0  0  0  0  0  0
  194.7100  169.8610  146.5250 O   0  0  0  0  0  1  0  0  0  0  0  0
  193.4590  170.6080  144.7520 O   0  0  0  0  0  0  0  0  0  0  0  0
  185.3470  177.9280  141.2190 C   0  0  0  0  0  2  0  0  0  0  0  0
  185.5300  178.7190  145.4340 C   0  0  0  0  0  0  0  0  0  0  0  0
  185.9800  179.6760  144.5160 C   0  0  0  0  0  3  0  0  0  0  0  0
  185.9300  179.4130  143.1440 C   0  0  0  0  0  3  0  0  0  0  0  0
  185.4390  178.1840  142.6870 C   0  0  0  0  0  0  0  0  0  0  0  0
  185.0410  177.4880  144.9780 C   0  0  0  0  0  3  0  0  0  0  0  0
  184.9910  177.2240  143.6050 C   0  0  0  0  0  3  0  0  0  0  0  0
  185.5990  179.0070  146.8930 C   0  0  0  0  0  2  0  0  0  0  0  0
  185.9540  177.7450  147.6590 C   0  0  0  0  0  2  0  0  0  0  0  0
  187.3220  177.2900  147.2890 C   0  0  0  0  0  0  0  0  0  0  0  0
  188.4020  178.1720  147.3990 C   0  0  0  0  0  3  0  0  0  0  0  0
  187.5360  175.9760  146.8580 C   0  0  0  0  0  3  0  0  0  0  0  0
  189.9030  176.4370  146.6330 C   0  0  0  0  0  3  0  0  0  0  0  0
  189.6900  177.7470  147.0690 C   0  0  0  0  0  3  0  0  0  0  0  0
  188.8260  175.5510  146.5280 C   0  0  0  0  0  3  0  0  0  0  0  0
  1  2  1  6  0  0  0
  1 21  1  0  0  0  0
  1 44  1  0  0  0  0
  3  2  1  0  0  0  0
  4  3  1  0  0  0  0
  5  4  1  0  0  0  0
  5  6  1  0  0  0  0
  7  6  1  0  0  0  0
  8  9  2  0  0  0  0
  9 11  1  0  0  0  0
  9 19  1  0  0  0  0
 13  7  1  6  0  0  0
 13 14  1  0  0  0  0
 17 19  1  0  0  0  0
 17 16  1  0  0  0  0
 18 15  1  6  0  0  0
 18 13  1  0  0  0  0
 18 16  1  0  0  0  0
 19 10  1  1  0  0  0
 20 12  1  6  0  0  0
 20 11  1  0  0  0  0
 20 14  1  0  0  0  0
 21 26  1  0  0  0  0
 23 28  1  0  0  0  0
 23 30  1  1  0  0  0
 23 22  1  0  0  0  0
 24 22  2  0  0  0  0
 25 24  1  0  0  0  0
 26 25  2  0  0  0  0
 26 29  1  0  0  0  0
 27 25  1  0  0  0  0
 29 28  2  0  0  0  0
 30 32  1  0  0  0  0
 31 33  1  0  0  0  0
 32 31  2  0  0  0  0
 34 33  1  0  0  0  0
 34 35  1  1  0  0  0
 36 38  2  0  0  0  0
 38 37  1  0  0  0  0
 38 34  1  0  0  0  0
 39 34  1  0  0  0  0
 39 40  1  0  0  0  0
 40 41  1  0  0  0  0
 41 42  1  0  0  0  0
 43 41  2  0  0  0  0
 44 48  1  0  0  0  0
 45 51  1  0  0  0  0
 46 45  2  0  0  0  0
 47 46  1  0  0  0  0
 48 47  2  0  0  0  0
 48 50  1  0  0  0  0
 49 45  1  0  0  0  0
 50 49  2  0  0  0  0
 51 52  1  0  0  0  0
 53 54  1  0  0  0  0
 53 52  1  0  0  0  0
 55 53  2  0  0  0  0
 56 57  1  0  0  0  0
 57 54  2  0  0  0  0
 58 56  2  0  0  0  0
 58 55  1  0  0  0  0
M  END
>  <MODEL>
4

>  <REMARK>
 VINA RESULT:      -6.0      3.269      8.618
  Name = 
  22 active torsions:
  status: ('A' for Active; 'I' for Inactive)
    1  A    between atoms: C_3  and  C_5
    2  A    between atoms: C_3  and  C_27
    3  A    between atoms: C_4  and  C_5
    4  A    between atoms: C_4  and  C_40
    5  A    between atoms: C_6  and  C_32
    6  A    between atoms: N_7  and  O_10
    7  A    between atoms: C_8  and  O_10
    8  A    between atoms: C_8  and  O_37
    9  A    between atoms: C_8  and  C_43
   10  A    between atoms: C_12  and  C_24
   11  A    between atoms: C_13  and  O_37
   12  A    between atoms: C_13  and  C_39
   13  A    between atoms: C_15  and  C_17
   14  A    between atoms: C_17  and  C_24
   15  A    between atoms: C_25  and  C_33
   16  A    between atoms: C_25  and  C_54
   17  A    between atoms: N_26  and  C_41
   18  A    between atoms: N_26  and  C_54
   19  A    between atoms: C_27  and  O_56
   20  A    between atoms: C_28  and  O_56
   21  A    between atoms: N_31  and  C_32
   22  A    between atoms: C_40  and  C_54
                            x       y       z     vdW  Elec       q    Type
                         _______ _______ _______ _____ _____    ______ ____

>  <TORSDO>
F 22

$$$$
=
 OpenBabel11042416023D

 58 61  0  0  1  0  0  0  0  0999 V2000
  189.6840  174.0880  142.8630 C   0  0  2  0  0  3  0  0  0  0  0  0
  189.2070  172.6490  142.8320 C   0  0  0  0  0  2  0  0  0  0  0  0
  189.4830  172.0260  141.4760 C   0  0  0  0  0  2  0  0  0  0  0  0
  190.6890  171.1180  141.5890 C   0  0  0  0  0  2  0  0  0  0  0  0
  191.9390  171.8750  141.1820 C   0  0  0  0  0  2  0  0  0  0  0  0
  192.5940  171.1650  140.0150 C   0  0  0  0  0  2  0  0  0  0  0  0
  192.5370  171.9800  138.8810 O   0  0  0  0  0  0  0  0  0  0  0  0
  194.1030  174.0960  134.7590 O   0  0  0  0  0  0  0  0  0  0  0  0
  194.6030  174.6750  135.7120 C   0  0  0  0  0  0  0  0  0  0  0  0
  196.5720  175.6600  136.6560 O   0  0  0  0  0  1  0  0  0  0  0  0
  193.7380  175.5300  136.5950 C   0  0  0  0  0  2  0  0  0  0  0  0
  192.0650  173.7470  136.7580 O   0  0  0  0  0  1  0  0  0  0  0  0
  193.6800  172.7860  138.9560 C   0  0  2  0  0  3  0  0  0  0  0  0
  193.3280  174.2790  138.8060 C   0  0  0  0  0  2  0  0  0  0  0  0
  194.2500  171.9250  136.7790 O   0  0  0  0  0  1  0  0  0  0  0  0
  195.8170  173.2620  137.9540 O   0  0  0  0  0  0  0  0  0  0  0  0
  196.4250  173.2640  136.6880 C   0  0  0  0  0  2  0  0  0  0  0  0
  194.7900  172.2870  138.0240 C   0  0  1  0  0  3  0  0  0  0  0  0
  196.0850  174.5580  135.9480 C   0  0  1  0  0  3  0  0  0  0  0  0
  192.7430  174.7470  137.4630 C   0  0  1  0  0  3  0  0  0  0  0  0
  189.1830  174.7360  144.0710 N   0  0  0  0  0  2  0  0  0  0  0  0
  191.7940  176.0030  147.5530 C   0  0  0  0  0  3  0  0  0  0  0  0
  192.6580  176.0320  146.3350 C   0  0  1  0  0  3  0  0  0  0  0  0
  190.5810  175.4490  147.5670 C   0  0  0  0  0  3  0  0  0  0  0  0
  189.8900  174.8490  146.4050 C   0  0  0  0  0  0  0  0  0  0  0  0
  189.9820  175.3020  145.1240 C   0  0  0  0  0  0  0  0  0  0  0  0
  189.0330  173.8370  146.7130 F   0  0  0  0  0  0  0  0  0  0  0  0
  191.9940  176.8100  145.2520 C   0  0  0  0  0  3  0  0  0  0  0  0
  190.8260  176.4510  144.7170 C   0  0  0  0  0  3  0  0  0  0  0  0
  193.9900  176.6830  146.6690 C   0  0  0  0  0  2  0  0  0  0  0  0
  195.4690  175.6250  145.1520 N   0  0  0  0  0  0  0  0  0  0  0  0
  195.0850  175.7790  146.3570 N   0  0  0  0  0  0  0  0  0  0  0  0
  196.4980  174.7640  144.8090 O   0  0  0  0  0  0  0  0  0  0  0  0
  196.3450  173.6350  143.9310 C   0  0  2  0  0  0  0  0  0  0  0  0
  194.8560  173.3210  143.7330 C   0  0  0  0  0  1  0  0  0  0  0  0
  197.0200  172.2150  145.8950 O   0  0  0  0  0  1  0  0  0  0  0  0
  197.5710  171.5750  143.7650 O   0  0  0  0  0  0  0  0  0  0  0  0
  197.0290  172.4280  144.5200 C   0  0  0  0  0  0  0  0  0  0  0  0
  196.9590  173.8970  142.6820 O   0  0  0  0  0  0  0  0  0  0  0  0
  195.9770  174.2630  141.7440 C   0  0  0  0  0  2  0  0  0  0  0  0
  196.2960  175.6040  141.1830 C   0  0  0  0  0  0  0  0  0  0  0  0
  196.3340  175.7730  139.9340 O   0  0  0  0  0  0  0  0  0  0  0  0
  196.5980  176.6600  142.0340 O   0  0  0  0  0  1  0  0  0  0  0  0
  189.1860  174.8270  141.6240 C   0  0  0  0  0  2  0  0  0  0  0  0
  186.3430  177.8960  142.5870 C   0  0  0  0  0  0  0  0  0  0  0  0
  187.6330  178.2360  142.1610 C   0  0  0  0  0  3  0  0  0  0  0  0
  188.5610  177.2350  141.8580 C   0  0  0  0  0  3  0  0  0  0  0  0
  188.2030  175.8890  141.9920 C   0  0  0  0  0  0  0  0  0  0  0  0
  185.9850  176.5480  142.7240 C   0  0  0  0  0  3  0  0  0  0  0  0
  186.9130  175.5460  142.4210 C   0  0  0  0  0  3  0  0  0  0  0  0
  185.3670  178.9700  142.9170 C   0  0  0  0  0  2  0  0  0  0  0  0
  185.7470  179.6360  144.2280 C   0  0  0  0  0  2  0  0  0  0  0  0
  185.8810  178.6140  145.3010 C   0  0  0  0  0  0  0  0  0  0  0  0
  187.1470  178.2870  145.7960 C   0  0  0  0  0  3  0  0  0  0  0  0
  184.7430  177.9980  145.8340 C   0  0  0  0  0  3  0  0  0  0  0  0
  186.1430  176.7210  147.3420 C   0  0  0  0  0  3  0  0  0  0  0  0
  187.2790  177.3400  146.8140 C   0  0  0  0  0  3  0  0  0  0  0  0
  184.8750  177.0510  146.8530 C   0  0  0  0  0  3  0  0  0  0  0  0
  1 44  1  6  0  0  0
  1 21  1  0  0  0  0
  2  1  1  0  0  0  0
  3  4  1  0  0  0  0
  3  2  1  0  0  0  0
  5  4  1  0  0  0  0
  6  5  1  0  0  0  0
  7  6  1  0  0  0  0
  8  9  2  0  0  0  0
  9 19  1  0  0  0  0
  9 11  1  0  0  0  0
 11 20  1  0  0  0  0
 13  7  1  6  0  0  0
 14 13  1  0  0  0  0
 16 18  1  0  0  0  0
 17 16  1  0  0  0  0
 18 15  1  6  0  0  0
 18 13  1  0  0  0  0
 19 10  1  1  0  0  0
 19 17  1  0  0  0  0
 20 12  1  6  0  0  0
 20 14  1  0  0  0  0
 21 26  1  0  0  0  0
 22 24  2  0  0  0  0
 23 30  1  1  0  0  0
 23 22  1  0  0  0  0
 25 27  1  0  0  0  0
 25 24  1  0  0  0  0
 26 25  2  0  0  0  0
 28 23  1  0  0  0  0
 29 26  1  0  0  0  0
 29 28  2  0  0  0  0
 31 32  2  0  0  0  0
 32 30  1  0  0  0  0
 33 31  1  0  0  0  0
 34 35  1  6  0  0  0
 34 38  1  0  0  0  0
 34 33  1  0  0  0  0
 37 38  2  0  0  0  0
 38 36  1  0  0  0  0
 39 34  1  0  0  0  0
 40 39  1  0  0  0  0
 41 40  1  0  0  0  0
 41 43  1  0  0  0  0
 42 41  2  0  0  0  0
 44 48  1  0  0  0  0
 45 49  1  0  0  0  0
 45 51  1  0  0  0  0
 46 45  2  0  0  0  0
 47 48  2  0  0  0  0
 47 46  1  0  0  0  0
 48 50  1  0  0  0  0
 50 49  2  0  0  0  0
 51 52  1  0  0  0  0
 52 53  1  0  0  0  0
 53 54  2  0  0  0  0
 53 55  1  0  0  0  0
 54 57  1  0  0  0  0
 55 58  2  0  0  0  0
 57 56  2  0  0  0  0
 58 56  1  0  0  0  0
M  END
>  <MODEL>
5

>  <REMARK>
 VINA RESULT:      -6.0      3.683      8.979
  Name = 
  22 active torsions:
  status: ('A' for Active; 'I' for Inactive)
    1  A    between atoms: C_3  and  C_5
    2  A    between atoms: C_3  and  C_27
    3  A    between atoms: C_4  and  C_5
    4  A    between atoms: C_4  and  C_40
    5  A    between atoms: C_6  and  C_32
    6  A    between atoms: N_7  and  O_10
    7  A    between atoms: C_8  and  O_10
    8  A    between atoms: C_8  and  O_37
    9  A    between atoms: C_8  and  C_43
   10  A    between atoms: C_12  and  C_24
   11  A    between atoms: C_13  and  O_37
   12  A    between atoms: C_13  and  C_39
   13  A    between atoms: C_15  and  C_17
   14  A    between atoms: C_17  and  C_24
   15  A    between atoms: C_25  and  C_33
   16  A    between atoms: C_25  and  C_54
   17  A    between atoms: N_26  and  C_41
   18  A    between atoms: N_26  and  C_54
   19  A    between atoms: C_27  and  O_56
   20  A    between atoms: C_28  and  O_56
   21  A    between atoms: N_31  and  C_32
   22  A    between atoms: C_40  and  C_54
                            x       y       z     vdW  Elec       q    Type
                         _______ _______ _______ _____ _____    ______ ____

>  <TORSDO>
F 22

$$$$
=
 OpenBabel11042416023D

 58 61  0  0  1  0  0  0  0  0999 V2000
  189.6210  174.1360  142.9360 C   0  0  2  0  0  3  0  0  0  0  0  0
  189.1560  172.6950  143.0170 C   0  0  0  0  0  2  0  0  0  0  0  0
  189.4740  171.9600  141.7280 C   0  0  0  0  0  2  0  0  0  0  0  0
  190.4200  170.8180  142.0340 C   0  0  0  0  0  2  0  0  0  0  0  0
  191.7420  171.0460  141.3280 C   0  0  0  0  0  2  0  0  0  0  0  0
  191.7030  170.3790  139.9680 C   0  0  0  0  0  2  0  0  0  0  0  0
  191.5680  171.3530  138.9740 O   0  0  0  0  0  0  0  0  0  0  0  0
  193.6370  173.4770  135.0850 O   0  0  0  0  0  0  0  0  0  0  0  0
  193.9210  174.1230  136.0830 C   0  0  0  0  0  0  0  0  0  0  0  0
  195.6180  175.2970  137.2990 O   0  0  0  0  0  1  0  0  0  0  0  0
  192.8540  174.9260  136.7730 C   0  0  0  0  0  2  0  0  0  0  0  0
  191.3240  173.0130  136.7300 O   0  0  0  0  0  1  0  0  0  0  0  0
  192.6140  172.2540  139.2050 C   0  0  2  0  0  3  0  0  0  0  0  0
  192.1760  173.7070  138.9360 C   0  0  0  0  0  2  0  0  0  0  0  0
  193.6100  171.3840  137.1910 O   0  0  0  0  0  1  0  0  0  0  0  0
  194.8460  172.8810  138.5520 O   0  0  0  0  0  0  0  0  0  0  0  0
  195.6570  172.8990  137.4070 C   0  0  0  0  0  2  0  0  0  0  0  0
  193.9020  171.8250  138.4920 C   0  0  1  0  0  3  0  0  0  0  0  0
  195.3460  174.1380  136.5660 C   0  0  1  0  0  3  0  0  0  0  0  0
  191.7920  174.0860  137.4960 C   0  0  1  0  0  3  0  0  0  0  0  0
  189.1840  174.8510  144.1310 N   0  0  0  0  0  2  0  0  0  0  0  0
  191.9550  176.0170  147.5230 C   0  0  0  0  0  3  0  0  0  0  0  0
  192.7700  176.0510  146.2720 C   0  0  1  0  0  3  0  0  0  0  0  0
  190.7340  175.4840  147.5770 C   0  0  0  0  0  3  0  0  0  0  0  0
  189.9860  174.9150  146.4350 C   0  0  0  0  0  0  0  0  0  0  0  0
  190.0340  175.3870  145.1600 C   0  0  0  0  0  0  0  0  0  0  0  0
  189.1240  173.9130  146.7620 F   0  0  0  0  0  0  0  0  0  0  0  0
  192.0760  176.8570  145.2280 C   0  0  0  0  0  3  0  0  0  0  0  0
  190.8820  176.5280  144.7360 C   0  0  0  0  0  3  0  0  0  0  0  0
  194.1260  176.6730  146.5610 C   0  0  0  0  0  2  0  0  0  0  0  0
  195.3970  175.5670  144.8980 N   0  0  0  0  0  0  0  0  0  0  0  0
  195.1910  175.7790  146.1370 N   0  0  0  0  0  0  0  0  0  0  0  0
  196.3920  174.7130  144.4510 O   0  0  0  0  0  0  0  0  0  0  0  0
  196.1650  173.6130  143.5510 C   0  0  2  0  0  0  0  0  0  0  0  0
  197.4820  172.8720  143.2840 C   0  0  0  0  0  1  0  0  0  0  0  0
  194.3390  173.7530  141.8260 O   0  0  0  0  0  1  0  0  0  0  0  0
  196.2840  174.9310  141.5450 O   0  0  0  0  0  0  0  0  0  0  0  0
  195.6130  174.1230  142.2450 C   0  0  0  0  0  0  0  0  0  0  0  0
  195.2060  172.7240  144.0930 O   0  0  0  0  0  0  0  0  0  0  0  0
  195.7960  171.4650  144.3000 C   0  0  0  0  0  2  0  0  0  0  0  0
  194.7660  170.4990  144.7720 C   0  0  0  0  0  0  0  0  0  0  0  0
  194.0470  169.8880  143.9370 O   0  0  0  0  0  0  0  0  0  0  0  0
  194.5640  170.3080  146.1330 O   0  0  0  0  0  1  0  0  0  0  0  0
  189.0470  174.7970  141.6860 C   0  0  0  0  0  2  0  0  0  0  0  0
  186.3680  178.0160  142.6260 C   0  0  0  0  0  0  0  0  0  0  0  0
  187.6840  178.2850  142.2310 C   0  0  0  0  0  3  0  0  0  0  0  0
  188.5590  177.2360  141.9360 C   0  0  0  0  0  3  0  0  0  0  0  0
  188.1210  175.9110  142.0460 C   0  0  0  0  0  0  0  0  0  0  0  0
  185.9290  176.6900  142.7390 C   0  0  0  0  0  3  0  0  0  0  0  0
  186.8040  175.6390  142.4440 C   0  0  0  0  0  3  0  0  0  0  0  0
  185.4490  179.1420  142.9480 C   0  0  0  0  0  2  0  0  0  0  0  0
  185.8370  179.7700  144.2750 C   0  0  0  0  0  2  0  0  0  0  0  0
  185.9090  178.7260  145.3330 C   0  0  0  0  0  0  0  0  0  0  0  0
  187.1550  178.2890  145.7960 C   0  0  0  0  0  3  0  0  0  0  0  0
  184.7370  178.1980  145.8850 C   0  0  0  0  0  3  0  0  0  0  0  0
  186.0590  176.7910  147.3470 C   0  0  0  0  0  3  0  0  0  0  0  0
  187.2300  177.3210  146.8000 C   0  0  0  0  0  3  0  0  0  0  0  0
  184.8120  177.2300  146.8900 C   0  0  0  0  0  3  0  0  0  0  0  0
  1 44  1  6  0  0  0
  1  2  1  0  0  0  0
  1 21  1  0  0  0  0
  3  4  1  0  0  0  0
  3  2  1  0  0  0  0
  5  4  1  0  0  0  0
  6  5  1  0  0  0  0
  7  6  1  0  0  0  0
  8  9  2  0  0  0  0
  9 19  1  0  0  0  0
  9 11  1  0  0  0  0
 11 20  1  0  0  0  0
 13  7  1  6  0  0  0
 14 13  1  0  0  0  0
 17 16  1  0  0  0  0
 18 15  1  6  0  0  0
 18 16  1  0  0  0  0
 18 13  1  0  0  0  0
 19 10  1  1  0  0  0
 19 17  1  0  0  0  0
 20 12  1  6  0  0  0
 20 14  1  0  0  0  0
 21 26  1  0  0  0  0
 22 24  2  0  0  0  0
 23 30  1  1  0  0  0
 23 22  1  0  0  0  0
 25 27  1  0  0  0  0
 25 24  1  0  0  0  0
 26 25  2  0  0  0  0
 28 23  1  0  0  0  0
 29 26  1  0  0  0  0
 29 28  2  0  0  0  0
 31 32  2  0  0  0  0
 32 30  1  0  0  0  0
 33 31  1  0  0  0  0
 34 35  1  6  0  0  0
 34 39  1  0  0  0  0
 34 33  1  0  0  0  0
 36 38  1  0  0  0  0
 37 38  2  0  0  0  0
 38 34  1  0  0  0  0
 39 40  1  0  0  0  0
 40 41  1  0  0  0  0
 41 43  1  0  0  0  0
 42 41  2  0  0  0  0
 44 48  1  0  0  0  0
 45 49  1  0  0  0  0
 45 51  1  0  0  0  0
 46 45  2  0  0  0  0
 47 48  2  0  0  0  0
 47 46  1  0  0  0  0
 48 50  1  0  0  0  0
 50 49  2  0  0  0  0
 51 52  1  0  0  0  0
 52 53  1  0  0  0  0
 53 54  2  0  0  0  0
 53 55  1  0  0  0  0
 54 57  1  0  0  0  0
 55 58  2  0  0  0  0
 57 56  2  0  0  0  0
 58 56  1  0  0  0  0
M  END
>  <MODEL>
6

>  <REMARK>
 VINA RESULT:      -5.8      3.585      8.712
  Name = 
  22 active torsions:
  status: ('A' for Active; 'I' for Inactive)
    1  A    between atoms: C_3  and  C_5
    2  A    between atoms: C_3  and  C_27
    3  A    between atoms: C_4  and  C_5
    4  A    between atoms: C_4  and  C_40
    5  A    between atoms: C_6  and  C_32
    6  A    between atoms: N_7  and  O_10
    7  A    between atoms: C_8  and  O_10
    8  A    between atoms: C_8  and  O_37
    9  A    between atoms: C_8  and  C_43
   10  A    between atoms: C_12  and  C_24
   11  A    between atoms: C_13  and  O_37
   12  A    between atoms: C_13  and  C_39
   13  A    between atoms: C_15  and  C_17
   14  A    between atoms: C_17  and  C_24
   15  A    between atoms: C_25  and  C_33
   16  A    between atoms: C_25  and  C_54
   17  A    between atoms: N_26  and  C_41
   18  A    between atoms: N_26  and  C_54
   19  A    between atoms: C_27  and  O_56
   20  A    between atoms: C_28  and  O_56
   21  A    between atoms: N_31  and  C_32
   22  A    between atoms: C_40  and  C_54
                            x       y       z     vdW  Elec       q    Type
                         _______ _______ _______ _____ _____    ______ ____

>  <TORSDO>
F 22

$$$$
=
 OpenBabel11042416023D

 58 61  0  0  1  0  0  0  0  0999 V2000
  191.3510  171.3400  142.2200 C   0  0  2  0  0  3  0  0  0  0  0  0
  191.4980  171.4400  140.7140 C   0  0  0  0  0  2  0  0  0  0  0  0
  190.1630  171.2100  140.0320 C   0  0  0  0  0  2  0  0  0  0  0  0
  189.9630  172.2710  138.9710 C   0  0  0  0  0  2  0  0  0  0  0  0
  191.0240  172.1270  137.8970 C   0  0  0  0  0  2  0  0  0  0  0  0
  191.5560  173.4980  137.5340 C   0  0  0  0  0  2  0  0  0  0  0  0
  192.8480  173.3760  137.0150 O   0  0  0  0  0  0  0  0  0  0  0  0
  197.3190  175.2480  137.6630 O   0  0  0  0  0  0  0  0  0  0  0  0
  196.9790  174.6780  138.6890 C   0  0  0  0  0  0  0  0  0  0  0  0
  197.6140  173.2230  140.4820 O   0  0  0  0  0  1  0  0  0  0  0  0
  195.8940  175.2750  139.5410 C   0  0  0  0  0  2  0  0  0  0  0  0
  194.4650  175.5930  137.5760 O   0  0  0  0  0  1  0  0  0  0  0  0
  193.6160  172.8740  138.0720 C   0  0  2  0  0  3  0  0  0  0  0  0
  193.7430  173.9000  139.2140 C   0  0  0  0  0  2  0  0  0  0  0  0
  195.5190  173.1320  136.6150 O   0  0  0  0  0  1  0  0  0  0  0  0
  195.7810  172.0210  138.6940 O   0  0  0  0  0  0  0  0  0  0  0  0
  197.1340  172.2020  138.3640 C   0  0  0  0  0  2  0  0  0  0  0  0
  194.9450  172.2870  137.5800 C   0  0  1  0  0  3  0  0  0  0  0  0
  197.6930  173.4190  139.1010 C   0  0  1  0  0  3  0  0  0  0  0  0
  194.4910  175.2120  138.9220 C   0  0  1  0  0  3  0  0  0  0  0  0
  191.9140  170.0730  142.6770 N   0  0  0  0  0  2  0  0  0  0  0  0
  196.2430  169.7510  143.9860 C   0  0  0  0  0  3  0  0  0  0  0  0
  195.6330  170.8560  144.7860 C   0  0  1  0  0  3  0  0  0  0  0  0
  195.6370  169.2000  142.9340 C   0  0  0  0  0  3  0  0  0  0  0  0
  194.2840  169.5360  142.4390 C   0  0  0  0  0  0  0  0  0  0  0  0
  193.2290  169.8780  143.2280 C   0  0  0  0  0  0  0  0  0  0  0  0
  194.1120  169.3750  141.0980 F   0  0  0  0  0  0  0  0  0  0  0  0
  194.3630  170.3950  145.4150 C   0  0  0  0  0  3  0  0  0  0  0  0
  193.3080  169.9940  144.7040 C   0  0  0  0  0  3  0  0  0  0  0  0
  196.5980  171.2910  145.8750 C   0  0  0  0  0  2  0  0  0  0  0  0
  195.9140  173.5510  145.7010 N   0  0  0  0  0  0  0  0  0  0  0  0
  196.8730  172.7140  145.7660 N   0  0  0  0  0  0  0  0  0  0  0  0
  196.1310  174.9140  145.5830 O   0  0  0  0  0  0  0  0  0  0  0  0
  195.3090  175.7950  144.7960 C   0  0  2  0  0  0  0  0  0  0  0  0
  196.1750  176.5620  143.7890 C   0  0  0  0  0  1  0  0  0  0  0  0
  193.6010  176.3560  146.5570 O   0  0  0  0  0  1  0  0  0  0  0  0
  194.9620  177.9920  145.7060 O   0  0  0  0  0  0  0  0  0  0  0  0
  194.6070  176.7810  145.6930 C   0  0  0  0  0  0  0  0  0  0  0  0
  194.3080  175.0590  144.1180 O   0  0  0  0  0  0  0  0  0  0  0  0
  194.0680  175.6400  142.8600 C   0  0  0  0  0  2  0  0  0  0  0  0
  192.6070  175.8580  142.6790 C   0  0  0  0  0  0  0  0  0  0  0  0
  192.0290  176.7950  143.2940 O   0  0  0  0  0  1  0  0  0  0  0  0
  191.8710  175.0020  141.8700 O   0  0  0  0  0  0  0  0  0  0  0  0
  189.8770  171.4300  142.6040 C   0  0  0  0  0  2  0  0  0  0  0  0
  189.1000  175.2040  144.4970 C   0  0  0  0  0  0  0  0  0  0  0  0
  189.8260  174.2120  145.1690 C   0  0  0  0  0  3  0  0  0  0  0  0
  190.0690  172.9800  144.5560 C   0  0  0  0  0  3  0  0  0  0  0  0
  189.5750  172.7320  143.2690 C   0  0  0  0  0  0  0  0  0  0  0  0
  188.6040  174.9550  143.2100 C   0  0  0  0  0  3  0  0  0  0  0  0
  188.8460  173.7220  142.5960 C   0  0  0  0  0  3  0  0  0  0  0  0
  188.8380  176.5080  145.1650 C   0  0  0  0  0  2  0  0  0  0  0  0
  187.7990  176.3360  146.2580 C   0  0  0  0  0  2  0  0  0  0  0  0
  186.6450  177.2440  146.0140 C   0  0  0  0  0  0  0  0  0  0  0  0
  186.7350  178.2330  145.0290 C   0  0  0  0  0  3  0  0  0  0  0  0
  185.4630  177.0950  146.7470 C   0  0  0  0  0  3  0  0  0  0  0  0
  184.4720  178.9330  145.5210 C   0  0  0  0  0  3  0  0  0  0  0  0
  185.6500  179.0790  144.7850 C   0  0  0  0  0  3  0  0  0  0  0  0
  184.3780  177.9410  146.5020 C   0  0  0  0  0  3  0  0  0  0  0  0
  1  2  1  6  0  0  0
  1 44  1  0  0  0  0
  1 21  1  0  0  0  0
  3  2  1  0  0  0  0
  4  3  1  0  0  0  0
  5  4  1  0  0  0  0
  6  5  1  0  0  0  0
  7  6  1  0  0  0  0
  8  9  2  0  0  0  0
  9 19  1  0  0  0  0
  9 11  1  0  0  0  0
 13  7  1  6  0  0  0
 13 14  1  0  0  0  0
 17 16  1  0  0  0  0
 17 19  1  0  0  0  0
 18 15  1  6  0  0  0
 18 13  1  0  0  0  0
 18 16  1  0  0  0  0
 19 10  1  1  0  0  0
 20 12  1  6  0  0  0
 20 14  1  0  0  0  0
 20 11  1  0  0  0  0
 21 26  1  0  0  0  0
 22 23  1  0  0  0  0
 23 28  1  0  0  0  0
 23 30  1  1  0  0  0
 24 22  2  0  0  0  0
 25 24  1  0  0  0  0
 25 26  2  0  0  0  0
 26 29  1  0  0  0  0
 27 25  1  0  0  0  0
 29 28  2  0  0  0  0
 31 32  2  0  0  0  0
 32 30  1  0  0  0  0
 33 31  1  0  0  0  0
 34 35  1  6  0  0  0
 34 33  1  0  0  0  0
 34 38  1  0  0  0  0
 38 37  2  0  0  0  0
 38 36  1  0  0  0  0
 39 34  1  0  0  0  0
 40 39  1  0  0  0  0
 41 40  1  0  0  0  0
 41 42  1  0  0  0  0
 43 41  2  0  0  0  0
 44 48  1  0  0  0  0
 45 51  1  0  0  0  0
 45 46  1  0  0  0  0
 47 46  2  0  0  0  0
 48 47  1  0  0  0  0
 49 45  2  0  0  0  0
 50 49  1  0  0  0  0
 50 48  2  0  0  0  0
 51 52  1  0  0  0  0
 53 52  1  0  0  0  0
 53 55  1  0  0  0  0
 54 53  2  0  0  0  0
 56 58  1  0  0  0  0
 57 54  1  0  0  0  0
 57 56  2  0  0  0  0
 58 55  2  0  0  0  0
M  END
>  <MODEL>
7

>  <REMARK>
 VINA RESULT:      -5.7      3.518      9.173
  Name = 
  22 active torsions:
  status: ('A' for Active; 'I' for Inactive)
    1  A    between atoms: C_3  and  C_5
    2  A    between atoms: C_3  and  C_27
    3  A    between atoms: C_4  and  C_5
    4  A    between atoms: C_4  and  C_40
    5  A    between atoms: C_6  and  C_32
    6  A    between atoms: N_7  and  O_10
    7  A    between atoms: C_8  and  O_10
    8  A    between atoms: C_8  and  O_37
    9  A    between atoms: C_8  and  C_43
   10  A    between atoms: C_12  and  C_24
   11  A    between atoms: C_13  and  O_37
   12  A    between atoms: C_13  and  C_39
   13  A    between atoms: C_15  and  C_17
   14  A    between atoms: C_17  and  C_24
   15  A    between atoms: C_25  and  C_33
   16  A    between atoms: C_25  and  C_54
   17  A    between atoms: N_26  and  C_41
   18  A    between atoms: N_26  and  C_54
   19  A    between atoms: C_27  and  O_56
   20  A    between atoms: C_28  and  O_56
   21  A    between atoms: N_31  and  C_32
   22  A    between atoms: C_40  and  C_54
                            x       y       z     vdW  Elec       q    Type
                         _______ _______ _______ _____ _____    ______ ____

>  <TORSDO>
F 22

$$$$
=
 OpenBabel11042416023D

 58 61  0  0  1  0  0  0  0  0999 V2000
  188.4050  173.3290  140.9020 C   0  0  2  0  0  3  0  0  0  0  0  0
  189.5480  172.6050  141.5870 C   0  0  0  0  0  2  0  0  0  0  0  0
  189.0770  171.9770  142.8850 C   0  0  0  0  0  2  0  0  0  0  0  0
  189.9830  172.4320  144.0090 C   0  0  0  0  0  2  0  0  0  0  0  0
  189.6690  173.8720  144.3690 C   0  0  0  0  0  2  0  0  0  0  0  0
  190.8510  174.4710  145.1030 C   0  0  0  0  0  2  0  0  0  0  0  0
  192.0160  173.7820  144.7550 O   0  0  0  0  0  0  0  0  0  0  0  0
  196.8890  173.9360  145.1410 O   0  0  0  0  0  0  0  0  0  0  0  0
  196.5650  174.4170  144.0660 C   0  0  0  0  0  0  0  0  0  0  0  0
  196.8990  176.1710  142.4690 O   0  0  0  0  0  1  0  0  0  0  0  0
  196.0260  173.5200  142.9870 C   0  0  0  0  0  2  0  0  0  0  0  0
  194.4840  172.4660  144.5730 O   0  0  0  0  0  1  0  0  0  0  0  0
  192.7100  174.6500  143.9030 C   0  0  2  0  0  3  0  0  0  0  0  0
  193.4820  173.8770  142.8170 C   0  0  0  0  0  2  0  0  0  0  0  0
  194.2020  175.0390  145.7550 O   0  0  0  0  0  1  0  0  0  0  0  0
  194.4060  176.3560  143.7940 O   0  0  0  0  0  0  0  0  0  0  0  0
  195.6120  176.7030  144.4240 C   0  0  0  0  0  2  0  0  0  0  0  0
  193.5440  175.6700  144.6870 C   0  0  1  0  0  3  0  0  0  0  0  0
  196.7630  175.8900  143.8310 C   0  0  1  0  0  3  0  0  0  0  0  0
  194.6270  172.9540  143.2690 C   0  0  1  0  0  3  0  0  0  0  0  0
  188.1020  172.6640  139.6390 N   0  0  0  0  0  2  0  0  0  0  0  0
  191.2620  172.0860  136.4400 C   0  0  0  0  0  3  0  0  0  0  0  0
  191.8400  171.5610  137.7140 C   0  0  1  0  0  3  0  0  0  0  0  0
  190.1400  172.8040  136.3960 C   0  0  0  0  0  3  0  0  0  0  0  0
  189.2770  173.1350  137.5510 C   0  0  0  0  0  0  0  0  0  0  0  0
  189.0490  172.3150  138.6140 C   0  0  0  0  0  0  0  0  0  0  0  0
  188.6080  174.3160  137.4420 F   0  0  0  0  0  0  0  0  0  0  0  0
  190.8870  170.6140  138.3580 C   0  0  0  0  0  3  0  0  0  0  0  0
  189.6720  170.9780  138.7700 C   0  0  0  0  0  3  0  0  0  0  0  0
  193.1430  170.8370  137.4240 C   0  0  0  0  0  2  0  0  0  0  0  0
  194.8180  172.4820  137.7320 N   0  0  0  0  0  0  0  0  0  0  0  0
  194.1380  171.7700  136.9230 N   0  0  0  0  0  0  0  0  0  0  0  0
  195.7650  173.3940  137.2970 O   0  0  0  0  0  0  0  0  0  0  0  0
  195.6680  174.8150  137.4970 C   0  0  2  0  0  0  0  0  0  0  0  0
  196.5970  175.5490  136.5210 C   0  0  0  0  0  1  0  0  0  0  0  0
  197.3300  175.6700  139.1820 O   0  0  0  0  0  0  0  0  0  0  0  0
  195.2290  175.0450  139.8490 O   0  0  0  0  0  1  0  0  0  0  0  0
  196.0630  175.1630  138.9090 C   0  0  0  0  0  0  0  0  0  0  0  0
  194.3320  175.2460  137.3170 O   0  0  0  0  0  0  0  0  0  0  0  0
  194.2470  176.0450  136.1630 C   0  0  0  0  0  2  0  0  0  0  0  0
  192.8280  176.4180  135.9140 C   0  0  0  0  0  0  0  0  0  0  0  0
  191.9000  175.6530  136.2930 O   0  0  0  0  0  1  0  0  0  0  0  0
  192.5270  177.5840  135.2220 O   0  0  0  0  0  0  0  0  0  0  0  0
  188.7870  174.7850  140.6520 C   0  0  0  0  0  2  0  0  0  0  0  0
  185.8660  177.4820  142.2720 C   0  0  0  0  0  0  0  0  0  0  0  0
  186.1610  176.2810  142.9300 C   0  0  0  0  0  3  0  0  0  0  0  0
  187.1040  175.3990  142.3960 C   0  0  0  0  0  3  0  0  0  0  0  0
  187.7480  175.7110  141.1930 C   0  0  0  0  0  0  0  0  0  0  0  0
  186.5090  177.7940  141.0670 C   0  0  0  0  0  3  0  0  0  0  0  0
  187.4530  176.9120  140.5320 C   0  0  0  0  0  3  0  0  0  0  0  0
  184.8520  178.4080  142.8460 C   0  0  0  0  0  2  0  0  0  0  0  0
  185.5140  179.3810  143.8050 C   0  0  0  0  0  2  0  0  0  0  0  0
  185.5980  178.7810  145.1640 C   0  0  0  0  0  0  0  0  0  0  0  0
  186.8210  178.2920  145.6340 C   0  0  0  0  0  3  0  0  0  0  0  0
  184.4650  178.7280  145.9830 C   0  0  0  0  0  3  0  0  0  0  0  0
  185.7780  177.6850  147.7300 C   0  0  0  0  0  3  0  0  0  0  0  0
  186.9110  177.7420  146.9150 C   0  0  0  0  0  3  0  0  0  0  0  0
  184.5550  178.1790  147.2650 C   0  0  0  0  0  3  0  0  0  0  0  0
  1 44  1  6  0  0  0
  1  2  1  0  0  0  0
  2  3  1  0  0  0  0
  3  4  1  0  0  0  0
  4  5  1  0  0  0  0
  5  6  1  0  0  0  0
  7  6  1  0  0  0  0
  9  8  2  0  0  0  0
 11 20  1  0  0  0  0
 11  9  1  0  0  0  0
 13 18  1  0  0  0  0
 13  7  1  1  0  0  0
 14 20  1  0  0  0  0
 14 13  1  0  0  0  0
 16 17  1  0  0  0  0
 16 18  1  0  0  0  0
 18 15  1  1  0  0  0
 19 10  1  6  0  0  0
 19  9  1  0  0  0  0
 19 17  1  0  0  0  0
 20 12  1  1  0  0  0
 21  1  1  0  0  0  0
 22 23  1  0  0  0  0
 23 30  1  6  0  0  0
 23 28  1  0  0  0  0
 24 22  2  0  0  0  0
 24 25  1  0  0  0  0
 25 26  2  0  0  0  0
 26 29  1  0  0  0  0
 26 21  1  0  0  0  0
 27 25  1  0  0  0  0
 28 29  2  0  0  0  0
 32 30  1  0  0  0  0
 32 31  2  0  0  0  0
 33 34  1  0  0  0  0
 33 31  1  0  0  0  0
 34 35  1  6  0  0  0
 34 38  1  0  0  0  0
 38 36  2  0  0  0  0
 38 37  1  0  0  0  0
 39 34  1  0  0  0  0
 40 39  1  0  0  0  0
 41 40  1  0  0  0  0
 41 42  1  0  0  0  0
 43 41  2  0  0  0  0
 44 48  1  0  0  0  0
 45 51  1  0  0  0  0
 45 46  1  0  0  0  0
 47 46  2  0  0  0  0
 48 47  1  0  0  0  0
 49 45  2  0  0  0  0
 50 49  1  0  0  0  0
 50 48  2  0  0  0  0
 51 52  1  0  0  0  0
 52 53  1  0  0  0  0
 53 54  2  0  0  0  0
 53 55  1  0  0  0  0
 54 57  1  0  0  0  0
 55 58  2  0  0  0  0
 57 56  2  0  0  0  0
 58 56  1  0  0  0  0
M  END
>  <MODEL>
8

>  <REMARK>
 VINA RESULT:      -5.7      3.480      8.392
  Name = 
  22 active torsions:
  status: ('A' for Active; 'I' for Inactive)
    1  A    between atoms: C_3  and  C_5
    2  A    between atoms: C_3  and  C_27
    3  A    between atoms: C_4  and  C_5
    4  A    between atoms: C_4  and  C_40
    5  A    between atoms: C_6  and  C_32
    6  A    between atoms: N_7  and  O_10
    7  A    between atoms: C_8  and  O_10
    8  A    between atoms: C_8  and  O_37
    9  A    between atoms: C_8  and  C_43
   10  A    between atoms: C_12  and  C_24
   11  A    between atoms: C_13  and  O_37
   12  A    between atoms: C_13  and  C_39
   13  A    between atoms: C_15  and  C_17
   14  A    between atoms: C_17  and  C_24
   15  A    between atoms: C_25  and  C_33
   16  A    between atoms: C_25  and  C_54
   17  A    between atoms: N_26  and  C_41
   18  A    between atoms: N_26  and  C_54
   19  A    between atoms: C_27  and  O_56
   20  A    between atoms: C_28  and  O_56
   21  A    between atoms: N_31  and  C_32
   22  A    between atoms: C_40  and  C_54
                            x       y       z     vdW  Elec       q    Type
                         _______ _______ _______ _____ _____    ______ ____

>  <TORSDO>
F 22

$$$$
=
 OpenBabel11042416023D

 58 61  0  0  1  0  0  0  0  0999 V2000
  189.9900  176.2410  146.5020 C   0  0  2  0  0  3  0  0  0  0  0  0
  188.8780  176.9990  147.2000 C   0  0  0  0  0  2  0  0  0  0  0  0
  187.5270  176.4000  146.8530 C   0  0  0  0  0  2  0  0  0  0  0  0
  186.5020  176.8870  147.8550 C   0  0  0  0  0  2  0  0  0  0  0  0
  185.7060  178.0310  147.2580 C   0  0  0  0  0  2  0  0  0  0  0  0
  184.9870  177.5440  146.0170 C   0  0  0  0  0  2  0  0  0  0  0  0
  185.3010  178.3750  144.9380 O   0  0  0  0  0  0  0  0  0  0  0  0
  188.4330  178.5870  141.1870 O   0  0  0  0  0  0  0  0  0  0  0  0
  187.7280  177.5980  141.0550 C   0  0  0  0  0  0  0  0  0  0  0  0
  186.4430  176.2320  139.5650 O   0  0  0  0  0  1  0  0  0  0  0  0
  187.9070  176.4320  141.9880 C   0  0  0  0  0  2  0  0  0  0  0  0
  187.8770  177.9250  143.9300 O   0  0  0  0  0  1  0  0  0  0  0  0
  185.0040  177.6170  143.7980 C   0  0  2  0  0  3  0  0  0  0  0  0
  185.9520  176.4100  143.6610 C   0  0  0  0  0  2  0  0  0  0  0  0
  185.9250  179.4440  142.5250 O   0  0  0  0  0  1  0  0  0  0  0  0
  184.8340  177.6670  141.3970 O   0  0  0  0  0  0  0  0  0  0  0  0
  185.4460  178.2890  140.2970 C   0  0  0  0  0  2  0  0  0  0  0  0
  184.8900  178.4950  142.5470 C   0  0  1  0  0  3  0  0  0  0  0  0
  186.7320  177.5500  139.9280 C   0  0  1  0  0  3  0  0  0  0  0  0
  187.4460  176.6930  143.4290 C   0  0  1  0  0  3  0  0  0  0  0  0
  189.4120  175.1690  145.6980 N   0  0  0  0  0  2  0  0  0  0  0  0
  191.8390  173.3830  142.3110 C   0  0  0  0  0  3  0  0  0  0  0  0
  191.9080  172.4140  143.4470 C   0  0  1  0  0  3  0  0  0  0  0  0
  191.3600  174.6200  142.4440 C   0  0  0  0  0  3  0  0  0  0  0  0
  190.7800  175.1970  143.6760 C   0  0  0  0  0  0  0  0  0  0  0  0
  190.0410  174.5060  144.5870 C   0  0  0  0  0  0  0  0  0  0  0  0
  190.9420  176.5420  143.8050 F   0  0  0  0  0  0  0  0  0  0  0  0
  190.5390  172.1200  143.9560 C   0  0  0  0  0  3  0  0  0  0  0  0
  189.7460  173.0570  144.4780 C   0  0  0  0  0  3  0  0  0  0  0  0
  192.5520  171.1210  142.9770 C   0  0  0  0  0  2  0  0  0  0  0  0
  191.4880  170.5110  140.9510 N   0  0  0  0  0  0  0  0  0  0  0  0
  192.4990  171.0300  141.5270 N   0  0  0  0  0  0  0  0  0  0  0  0
  191.4030  170.3910  139.5730 O   0  0  0  0  0  0  0  0  0  0  0  0
  190.6690  171.2970  138.7300 C   0  0  2  0  0  0  0  0  0  0  0  0
  189.6030  172.0330  139.5510 C   0  0  0  0  0  1  0  0  0  0  0  0
  189.3480  171.2090  136.5910 O   0  0  0  0  0  0  0  0  0  0  0  0
  190.0580  169.2730  137.5880 O   0  0  0  0  0  1  0  0  0  0  0  0
  189.9950  170.5330  137.6200 C   0  0  0  0  0  0  0  0  0  0  0  0
  191.5480  172.2270  138.1250 O   0  0  0  0  0  0  0  0  0  0  0  0
  192.7740  171.5990  137.8400 C   0  0  0  0  0  2  0  0  0  0  0  0
  193.7440  172.6030  137.3240 C   0  0  0  0  0  0  0  0  0  0  0  0
  193.6120  173.0650  136.1590 O   0  0  0  0  0  0  0  0  0  0  0  0
  194.8210  172.9960  138.1080 O   0  0  0  0  0  1  0  0  0  0  0  0
  190.9540  175.6650  147.5350 C   0  0  0  0  0  2  0  0  0  0  0  0
  194.8080  175.0480  145.7490 C   0  0  0  0  0  0  0  0  0  0  0  0
  193.9430  173.9660  145.9540 C   0  0  0  0  0  3  0  0  0  0  0  0
  192.6930  174.1670  146.5460 C   0  0  0  0  0  3  0  0  0  0  0  0
  192.3080  175.4520  146.9450 C   0  0  0  0  0  0  0  0  0  0  0  0
  194.4250  176.3350  146.1500 C   0  0  0  0  0  3  0  0  0  0  0  0
  193.1740  176.5360  146.7430 C   0  0  0  0  0  3  0  0  0  0  0  0
  196.1420  174.8200  145.1280 C   0  0  0  0  0  2  0  0  0  0  0  0
  196.9220  173.7920  145.9270 C   0  0  0  0  0  2  0  0  0  0  0  0
  196.7630  172.4430  145.3180 C   0  0  0  0  0  0  0  0  0  0  0  0
  196.8220  171.3030  146.1270 C   0  0  0  0  0  3  0  0  0  0  0  0
  196.5290  172.3130  143.9450 C   0  0  0  0  0  3  0  0  0  0  0  0
  196.4300  169.9060  144.1920 C   0  0  0  0  0  3  0  0  0  0  0  0
  196.6580  170.0360  145.5640 C   0  0  0  0  0  3  0  0  0  0  0  0
  196.3650  171.0440  143.3820 C   0  0  0  0  0  3  0  0  0  0  0  0
  1  2  1  1  0  0  0
  1 44  1  0  0  0  0
  3  2  1  0  0  0  0
  3  4  1  0  0  0  0
  5  4  1  0  0  0  0
  6  5  1  0  0  0  0
  7  6  1  0  0  0  0
  9  8  2  0  0  0  0
  9 11  1  0  0  0  0
 11 20  1  0  0  0  0
 13  7  1  1  0  0  0
 14 13  1  0  0  0  0
 16 18  1  0  0  0  0
 17 16  1  0  0  0  0
 18 15  1  6  0  0  0
 18 13  1  0  0  0  0
 19 10  1  1  0  0  0
 19 17  1  0  0  0  0
 19  9  1  0  0  0  0
 20 14  1  0  0  0  0
 20 12  1  6  0  0  0
 21  1  1  0  0  0  0
 22 24  2  0  0  0  0
 22 23  1  0  0  0  0
 23 30  1  6  0  0  0
 23 28  1  0  0  0  0
 24 25  1  0  0  0  0
 25 27  1  0  0  0  0
 25 26  2  0  0  0  0
 26 21  1  0  0  0  0
 28 29  2  0  0  0  0
 29 26  1  0  0  0  0
 31 32  2  0  0  0  0
 32 30  1  0  0  0  0
 33 31  1  0  0  0  0
 34 35  1  1  0  0  0
 34 33  1  0  0  0  0
 36 38  2  0  0  0  0
 37 38  1  0  0  0  0
 38 34  1  0  0  0  0
 39 34  1  0  0  0  0
 40 39  1  0  0  0  0
 41 40  1  0  0  0  0
 41 43  1  0  0  0  0
 42 41  2  0  0  0  0
 45 46  2  0  0  0  0
 45 49  1  0  0  0  0
 46 47  1  0  0  0  0
 47 48  2  0  0  0  0
 48 44  1  0  0  0  0
 49 50  2  0  0  0  0
 50 48  1  0  0  0  0
 51 45  1  0  0  0  0
 51 52  1  0  0  0  0
 53 52  1  0  0  0  0
 53 54  1  0  0  0  0
 55 53  2  0  0  0  0
 56 57  1  0  0  0  0
 57 54  2  0  0  0  0
 58 55  1  0  0  0  0
 58 56  2  0  0  0  0
M  END
>  <MODEL>
9

>  <REMARK>
 VINA RESULT:      -5.6      1.601      2.668
  Name = 
  22 active torsions:
  status: ('A' for Active; 'I' for Inactive)
    1  A    between atoms: C_3  and  C_5
    2  A    between atoms: C_3  and  C_27
    3  A    between atoms: C_4  and  C_5
    4  A    between atoms: C_4  and  C_40
    5  A    between atoms: C_6  and  C_32
    6  A    between atoms: N_7  and  O_10
    7  A    between atoms: C_8  and  O_10
    8  A    between atoms: C_8  and  O_37
    9  A    between atoms: C_8  and  C_43
   10  A    between atoms: C_12  and  C_24
   11  A    between atoms: C_13  and  O_37
   12  A    between atoms: C_13  and  C_39
   13  A    between atoms: C_15  and  C_17
   14  A    between atoms: C_17  and  C_24
   15  A    between atoms: C_25  and  C_33
   16  A    between atoms: C_25  and  C_54
   17  A    between atoms: N_26  and  C_41
   18  A    between atoms: N_26  and  C_54
   19  A    between atoms: C_27  and  O_56
   20  A    between atoms: C_28  and  O_56
   21  A    between atoms: N_31  and  C_32
   22  A    between atoms: C_40  and  C_54
                            x       y       z     vdW  Elec       q    Type
                         _______ _______ _______ _____ _____    ______ ____

>  <TORSDO>
F 22

$$$$
