=
 OpenBabel11042417583D

 36 41  0  0  1  0  0  0  0  0999 V2000
  189.9350  175.9030  145.2880 C   0  0  0  0  0  0  0  0  0  0  0  0
  189.7240  175.2400  142.8620 C   0  0  0  0  0  0  0  0  0  0  0  0
  188.1410  177.5740  144.7180 C   0  0  0  0  0  0  0  0  0  0  0  0
  188.9430  178.0700  143.5680 C   0  0  0  0  0  2  0  0  0  0  0  0
  190.2870  173.9660  142.4040 C   0  0  0  0  0  0  0  0  0  0  0  0
  186.1270  177.7250  146.0740 C   0  0  0  0  0  0  0  0  0  0  0  0
  188.3970  173.4900  139.3890 N   0  0  0  0  0  0  0  0  0  0  0  0
  186.8990  178.1600  144.9890 C   0  0  0  0  0  3  0  0  0  0  0  0
  190.4750  172.1360  140.7660 C   0  0  0  0  0  3  0  0  0  0  0  0
  190.7550  175.3270  146.4030 C   0  0  0  0  0  3  0  0  0  0  0  0
  188.8660  175.9550  142.0910 C   0  0  0  0  0  0  0  0  0  0  0  0
  189.8750  173.3680  141.2830 C   0  0  0  0  0  0  0  0  0  0  0  0
  188.8430  174.0410  140.4790 C   0  0  0  0  0  0  0  0  0  0  0  0
  188.4800  177.3980  142.2900 C   0  0  0  0  0  2  0  0  0  0  0  0
  188.6170  176.5260  145.5220 C   0  0  0  0  0  0  0  0  0  0  0  0
  189.9870  171.5830  139.6560 C   0  0  0  0  0  3  0  0  0  0  0  0
  190.4300  175.5070  144.1170 C   0  0  2  0  0  3  0  0  0  0  0  0
  191.3880  173.5100  143.3130 C   0  0  0  0  0  2  0  0  0  0  0  0
  191.7440  174.3900  145.6990 C   0  0  1  0  0  3  0  0  0  0  0  0
  188.7800  172.1430  138.9360 C   0  0  0  0  0  2  0  0  0  0  0  0
  187.8500  176.1080  146.6200 C   0  0  0  0  0  3  0  0  0  0  0  0
  188.3890  175.3420  140.8790 N   0  0  0  0  0  2  0  0  0  0  0  0
  186.6140  176.6990  146.8910 C   0  0  0  0  0  3  0  0  0  0  0  0
  191.4910  174.5930  144.2860 N   0  0  2  0  0  0  0  0  0  0  0  0
  184.4330  178.4930  147.5460 O   0  0  0  0  0  1  0  0  0  0  0  0
  184.0080  178.7750  145.3160 O   0  0  0  0  0  0  0  0  0  0  0  0
  184.8220  178.3430  146.3580 C   0  0  0  0  0  0  0  0  0  0  0  0
  193.1690  174.7940  146.0250 C   0  0  0  0  0  2  0  0  0  0  0  0
  193.2190  176.2660  146.3830 C   0  0  0  0  0  2  0  0  0  0  0  0
  194.0310  176.9740  145.4080 N   0  0  0  0  0  2  0  0  0  0  0  0
  195.1350  176.0990  145.0520 C   0  0  0  0  0  2  0  0  0  0  0  0
  195.5480  176.3500  143.6100 C   0  0  0  0  0  2  0  0  0  0  0  0
  194.4930  175.9220  142.7030 N   0  0  0  0  0  0  0  0  0  0  0  0
  194.6560  174.5890  142.5280 O   0  0  0  0  0  1  0  0  0  0  0  0
  196.1210  176.6850  141.4650 C   0  0  0  0  0  1  0  0  0  0  0  0
  194.7360  176.5090  141.5040 O   0  0  0  0  0  0  0  0  0  0  0  0
  1 15  1  0  0  0  0
  1 10  2  0  0  0  0
  3  8  2  0  0  0  0
  3 15  1  0  0  0  0
  4  3  1  0  0  0  0
  5  2  1  0  0  0  0
  5 18  1  0  0  0  0
  6 27  1  0  0  0  0
  6 23  2  0  0  0  0
  7 13  2  0  0  0  0
  8  6  1  0  0  0  0
  9 12  1  0  0  0  0
 11 14  1  0  0  0  0
 11  2  2  0  0  0  0
 12  5  2  0  0  0  0
 13 22  1  0  0  0  0
 13 12  1  0  0  0  0
 14  4  1  0  0  0  0
 15 21  2  0  0  0  0
 16  9  2  0  0  0  0
 17  2  1  6  0  0  0
 17 24  1  0  0  0  0
 17  1  1  0  0  0  0
 19 28  1  6  0  0  0
 19 10  1  0  0  0  0
 20  7  1  0  0  0  0
 20 16  1  0  0  0  0
 21 23  1  0  0  0  0
 22 11  1  0  0  0  0
 24 18  1  1  0  0  0
 24 19  1  0  0  0  0
 26 27  2  0  0  0  0
 27 25  1  0  0  0  0
 28 29  1  0  0  0  0
 30 29  1  0  0  0  0
 31 30  1  0  0  0  0
 32 31  1  0  0  0  0
 33 32  1  0  0  0  0
 34 33  1  0  0  0  0
 35 36  1  0  0  0  0
 36 33  1  0  0  0  0
M  END
>  <MODEL>
1

>  <REMARK>
 VINA RESULT:      -7.8      0.000      0.000
  Name = 
  8 active torsions:
  status: ('A' for Active; 'I' for Inactive)
    1  A    between atoms: N_2  and  C_16
    2  A    between atoms: N_2  and  O_24
    3  A    between atoms: C_8  and  C_33
    4  A    between atoms: N_9  and  C_22
    5  A    between atoms: N_9  and  C_29
    6  A    between atoms: C_16  and  C_29
    7  A    between atoms: C_22  and  C_31
    8  A    between atoms: C_27  and  C_31
                            x       y       z     vdW  Elec       q    Type
                         _______ _______ _______ _____ _____    ______ ____

>  <TORSDO>
F 8

$$$$
=
 OpenBabel11042417583D

 36 41  0  0  1  0  0  0  0  0999 V2000
  189.4150  176.0590  143.1630 C   0  0  0  0  0  0  0  0  0  0  0  0
  189.5160  173.7040  142.2610 C   0  0  0  0  0  0  0  0  0  0  0  0
  190.8810  175.1440  144.9930 C   0  0  0  0  0  0  0  0  0  0  0  0
  189.9170  174.0370  145.2350 C   0  0  0  0  0  2  0  0  0  0  0  0
  189.1160  173.4370  140.8760 C   0  0  0  0  0  0  0  0  0  0  0  0
  192.9560  176.2670  145.5830 C   0  0  0  0  0  0  0  0  0  0  0  0
  190.7920  170.3110  140.3270 N   0  0  0  0  0  0  0  0  0  0  0  0
  192.0380  175.2270  145.7760 C   0  0  0  0  0  3  0  0  0  0  0  0
  189.0680  172.0210  138.8610 C   0  0  0  0  0  3  0  0  0  0  0  0
  188.7900  177.3040  142.6100 C   0  0  0  0  0  3  0  0  0  0  0  0
  190.1880  172.7820  142.9970 C   0  0  0  0  0  0  0  0  0  0  0  0
  189.5170  172.3470  140.2170 C   0  0  0  0  0  0  0  0  0  0  0  0
  190.3630  171.3790  140.9310 C   0  0  0  0  0  0  0  0  0  0  0  0
  190.3660  172.7940  144.4930 C   0  0  0  0  0  2  0  0  0  0  0  0
  190.6390  176.0950  143.9890 C   0  0  0  0  0  0  0  0  0  0  0  0
  189.5380  170.9290  138.2580 C   0  0  0  0  0  3  0  0  0  0  0  0
  188.8880  174.9910  142.5690 C   0  0  2  0  0  3  0  0  0  0  0  0
  188.1770  174.4940  140.3770 C   0  0  0  0  0  2  0  0  0  0  0  0
  187.8970  176.8020  141.4680 C   0  0  1  0  0  3  0  0  0  0  0  0
  190.5800  170.0380  138.8970 C   0  0  0  0  0  2  0  0  0  0  0  0
  191.5500  177.1460  143.8130 C   0  0  0  0  0  3  0  0  0  0  0  0
  190.6470  171.5960  142.3210 N   0  0  0  0  0  2  0  0  0  0  0  0
  192.7020  177.2290  144.5990 C   0  0  0  0  0  3  0  0  0  0  0  0
  187.9950  175.3580  141.5400 N   0  0  2  0  0  0  0  0  0  0  0  0
  194.4560  177.4190  147.0150 O   0  0  0  0  0  1  0  0  0  0  0  0
  195.0170  175.2550  146.5290 O   0  0  0  0  0  0  0  0  0  0  0  0
  194.1720  176.3540  146.4070 C   0  0  0  0  0  0  0  0  0  0  0  0
  186.4600  177.2290  141.7010 C   0  0  0  0  0  2  0  0  0  0  0  0
  186.3220  177.8380  143.0830 C   0  0  0  0  0  2  0  0  0  0  0  0
  185.8110  179.1940  142.9640 N   0  0  0  0  0  2  0  0  0  0  0  0
  185.3230  179.5850  144.2750 C   0  0  0  0  0  2  0  0  0  0  0  0
  184.2970  178.5750  144.7660 C   0  0  0  0  0  2  0  0  0  0  0  0
  184.4280  178.3830  146.2030 N   0  0  0  0  0  0  0  0  0  0  0  0
  185.4830  179.1370  146.5950 O   0  0  0  0  0  1  0  0  0  0  0  0
  186.0160  177.1410  147.0420 C   0  0  0  0  0  1  0  0  0  0  0  0
  184.7770  177.0860  146.4010 O   0  0  0  0  0  0  0  0  0  0  0  0
  1 15  1  0  0  0  0
  2 11  2  0  0  0  0
  3  4  1  0  0  0  0
  3  8  1  0  0  0  0
  5  2  1  0  0  0  0
  6  8  2  0  0  0  0
  6 27  1  0  0  0  0
  7 13  2  0  0  0  0
  9 12  1  0  0  0  0
 10  1  2  0  0  0  0
 11 14  1  0  0  0  0
 12  5  2  0  0  0  0
 12 13  1  0  0  0  0
 13 22  1  0  0  0  0
 14  4  1  0  0  0  0
 15  3  2  0  0  0  0
 16  9  2  0  0  0  0
 16 20  1  0  0  0  0
 17  2  1  6  0  0  0
 17  1  1  0  0  0  0
 18  5  1  0  0  0  0
 19 24  1  0  0  0  0
 19 28  1  1  0  0  0
 19 10  1  0  0  0  0
 20  7  1  0  0  0  0
 21 15  1  0  0  0  0
 21 23  2  0  0  0  0
 22 11  1  0  0  0  0
 23  6  1  0  0  0  0
 24 18  1  6  0  0  0
 24 17  1  0  0  0  0
 27 26  2  0  0  0  0
 27 25  1  0  0  0  0
 28 29  1  0  0  0  0
 30 29  1  0  0  0  0
 30 31  1  0  0  0  0
 31 32  1  0  0  0  0
 32 33  1  0  0  0  0
 33 36  1  0  0  0  0
 33 34  1  0  0  0  0
 36 35  1  0  0  0  0
M  END
>  <MODEL>
2

>  <REMARK>
 VINA RESULT:      -7.4      2.537      6.857
  Name = 
  8 active torsions:
  status: ('A' for Active; 'I' for Inactive)
    1  A    between atoms: N_2  and  C_16
    2  A    between atoms: N_2  and  O_24
    3  A    between atoms: C_8  and  C_33
    4  A    between atoms: N_9  and  C_22
    5  A    between atoms: N_9  and  C_29
    6  A    between atoms: C_16  and  C_29
    7  A    between atoms: C_22  and  C_31
    8  A    between atoms: C_27  and  C_31
                            x       y       z     vdW  Elec       q    Type
                         _______ _______ _______ _____ _____    ______ ____

>  <TORSDO>
F 8

$$$$
=
 OpenBabel11042417583D

 36 41  0  0  1  0  0  0  0  0999 V2000
  190.1320  176.8160  144.7660 C   0  0  0  0  0  0  0  0  0  0  0  0
  189.8060  175.6870  142.5320 C   0  0  0  0  0  0  0  0  0  0  0  0
  187.9590  177.9600  144.2120 C   0  0  0  0  0  0  0  0  0  0  0  0
  188.4990  178.3850  142.8930 C   0  0  0  0  0  2  0  0  0  0  0  0
  190.5830  174.4890  142.2020 C   0  0  0  0  0  0  0  0  0  0  0  0
  186.1260  177.9550  145.8110 C   0  0  0  0  0  0  0  0  0  0  0  0
  188.5230  173.0960  139.6130 N   0  0  0  0  0  0  0  0  0  0  0  0
  186.6570  178.3270  144.5690 C   0  0  0  0  0  3  0  0  0  0  0  0
  190.9890  172.4620  140.8620 C   0  0  0  0  0  3  0  0  0  0  0  0
  191.1780  176.6320  145.8230 C   0  0  0  0  0  3  0  0  0  0  0  0
  188.7300  176.0620  141.7940 C   0  0  0  0  0  0  0  0  0  0  0  0
  190.1920  173.6240  141.2620 C   0  0  0  0  0  0  0  0  0  0  0  0
  188.9540  173.9170  140.5250 C   0  0  0  0  0  0  0  0  0  0  0  0
  188.0570  177.4100  141.8200 C   0  0  0  0  0  2  0  0  0  0  0  0
  188.7430  177.1960  145.0920 C   0  0  0  0  0  0  0  0  0  0  0  0
  190.5160  171.6270  139.9370 C   0  0  0  0  0  3  0  0  0  0  0  0
  190.5690  176.3180  143.6120 C   0  0  2  0  0  3  0  0  0  0  0  0
  191.8520  174.4390  142.9970 C   0  0  0  0  0  2  0  0  0  0  0  0
  192.2660  175.7980  145.1360 C   0  0  1  0  0  3  0  0  0  0  0  0
  189.1430  171.7930  139.3250 C   0  0  0  0  0  2  0  0  0  0  0  0
  188.2150  176.8450  146.3430 C   0  0  0  0  0  3  0  0  0  0  0  0
  188.2680  175.1520  140.7780 N   0  0  0  0  0  2  0  0  0  0  0  0
  186.9170  177.2160  146.6990 C   0  0  0  0  0  3  0  0  0  0  0  0
  191.8190  175.6810  143.7620 N   0  0  2  0  0  0  0  0  0  0  0  0
  184.4000  178.3390  147.3930 O   0  0  0  0  0  1  0  0  0  0  0  0
  183.8430  178.7220  145.2080 O   0  0  0  0  0  0  0  0  0  0  0  0
  184.7560  178.3420  146.1860 C   0  0  0  0  0  0  0  0  0  0  0  0
  193.5930  176.5310  145.1800 C   0  0  0  0  0  2  0  0  0  0  0  0
  194.6590  175.6340  145.7790 C   0  0  0  0  0  2  0  0  0  0  0  0
  195.7270  175.4390  144.8130 N   0  0  0  0  0  2  0  0  0  0  0  0
  195.5290  174.1310  144.2130 C   0  0  0  0  0  2  0  0  0  0  0  0
  195.7420  173.0460  145.2570 C   0  0  0  0  0  2  0  0  0  0  0  0
  194.8600  171.9170  144.9960 N   0  0  0  0  0  0  0  0  0  0  0  0
  193.6380  172.2710  145.4610 O   0  0  0  0  0  1  0  0  0  0  0  0
  196.6370  171.1680  146.0200 C   0  0  0  0  0  1  0  0  0  0  0  0
  195.2920  170.8880  145.7680 O   0  0  0  0  0  0  0  0  0  0  0  0
  1 15  1  0  0  0  0
  1 10  2  0  0  0  0
  3  8  2  0  0  0  0
  3 15  1  0  0  0  0
  4  3  1  0  0  0  0
  5  2  1  0  0  0  0
  5 18  1  0  0  0  0
  6 27  1  0  0  0  0
  6 23  2  0  0  0  0
  7 13  2  0  0  0  0
  8  6  1  0  0  0  0
  9 12  1  0  0  0  0
 11 14  1  0  0  0  0
 11  2  2  0  0  0  0
 12  5  2  0  0  0  0
 13 22  1  0  0  0  0
 13 12  1  0  0  0  0
 14  4  1  0  0  0  0
 15 21  2  0  0  0  0
 16  9  2  0  0  0  0
 17  2  1  1  0  0  0
 17 24  1  0  0  0  0
 17  1  1  0  0  0  0
 19 28  1  6  0  0  0
 19 10  1  0  0  0  0
 20  7  1  0  0  0  0
 20 16  1  0  0  0  0
 21 23  1  0  0  0  0
 22 11  1  0  0  0  0
 24 18  1  1  0  0  0
 24 19  1  0  0  0  0
 26 27  2  0  0  0  0
 27 25  1  0  0  0  0
 28 29  1  0  0  0  0
 30 29  1  0  0  0  0
 31 30  1  0  0  0  0
 31 32  1  0  0  0  0
 33 32  1  0  0  0  0
 33 34  1  0  0  0  0
 33 36  1  0  0  0  0
 36 35  1  0  0  0  0
M  END
>  <MODEL>
3

>  <REMARK>
 VINA RESULT:      -7.1      1.844      2.265
  Name = 
  8 active torsions:
  status: ('A' for Active; 'I' for Inactive)
    1  A    between atoms: N_2  and  C_16
    2  A    between atoms: N_2  and  O_24
    3  A    between atoms: C_8  and  C_33
    4  A    between atoms: N_9  and  C_22
    5  A    between atoms: N_9  and  C_29
    6  A    between atoms: C_16  and  C_29
    7  A    between atoms: C_22  and  C_31
    8  A    between atoms: C_27  and  C_31
                            x       y       z     vdW  Elec       q    Type
                         _______ _______ _______ _____ _____    ______ ____

>  <TORSDO>
F 8

$$$$
=
 OpenBabel11042417583D

 36 41  0  0  1  0  0  0  0  0999 V2000
  188.7810  175.2130  143.5360 C   0  0  0  0  0  0  0  0  0  0  0  0
  191.2340  175.2510  144.1310 C   0  0  0  0  0  0  0  0  0  0  0  0
  188.4500  175.7970  145.9620 C   0  0  0  0  0  0  0  0  0  0  0  0
  189.3020  174.6490  146.3730 C   0  0  0  0  0  2  0  0  0  0  0  0
  192.2400  175.3150  143.0670 C   0  0  0  0  0  0  0  0  0  0  0  0
  187.0590  177.6900  146.5910 C   0  0  0  0  0  0  0  0  0  0  0  0
  195.0430  176.5700  144.9260 N   0  0  0  0  0  0  0  0  0  0  0  0
  187.8790  176.6110  146.9460 C   0  0  0  0  0  3  0  0  0  0  0  0
  194.5280  175.7450  142.2620 C   0  0  0  0  0  3  0  0  0  0  0  0
  188.0860  175.0180  142.2220 C   0  0  0  0  0  3  0  0  0  0  0  0
  191.5580  175.4750  145.4300 C   0  0  0  0  0  0  0  0  0  0  0  0
  193.4850  175.7430  143.2910 C   0  0  0  0  0  0  0  0  0  0  0  0
  193.8480  176.1300  144.6620 C   0  0  0  0  0  0  0  0  0  0  0  0
  190.7170  175.1270  146.6310 C   0  0  0  0  0  2  0  0  0  0  0  0
  188.2220  176.0670  144.6030 C   0  0  0  0  0  0  0  0  0  0  0  0
  195.7400  176.2170  142.5550 C   0  0  0  0  0  3  0  0  0  0  0  0
  190.0310  174.7630  143.4520 C   0  0  2  0  0  3  0  0  0  0  0  0
  191.6910  174.7830  141.7780 C   0  0  0  0  0  2  0  0  0  0  0  0
  189.1860  174.5070  141.2840 C   0  0  1  0  0  3  0  0  0  0  0  0
  196.0670  176.8230  143.9010 C   0  0  0  0  0  2  0  0  0  0  0  0
  187.3840  177.1350  144.2520 C   0  0  0  0  0  3  0  0  0  0  0  0
  192.8880  175.9490  145.7130 N   0  0  0  0  0  2  0  0  0  0  0  0
  186.8100  177.9430  145.2370 C   0  0  0  0  0  3  0  0  0  0  0  0
  190.3460  174.3480  142.1400 N   0  0  2  0  0  0  0  0  0  0  0  0
  187.1820  179.1100  148.4870 O   0  0  0  0  0  1  0  0  0  0  0  0
  185.0810  178.7430  147.6610 O   0  0  0  0  0  0  0  0  0  0  0  0
  186.4570  178.5450  147.6270 C   0  0  0  0  0  0  0  0  0  0  0  0
  188.7930  173.1630  140.7020 C   0  0  0  0  0  2  0  0  0  0  0  0
  189.2070  173.0920  139.2450 C   0  0  0  0  0  2  0  0  0  0  0  0
  190.5280  172.4940  139.1450 N   0  0  0  0  0  2  0  0  0  0  0  0
  190.5360  171.3240  140.0060 C   0  0  0  0  0  2  0  0  0  0  0  0
  191.8850  171.2010  140.6970 C   0  0  0  0  0  2  0  0  0  0  0  0
  191.7280  170.5650  141.9970 N   0  0  0  0  0  0  0  0  0  0  0  0
  190.4020  170.3340  142.1520 O   0  0  0  0  0  1  0  0  0  0  0  0
  193.4500  171.6760  142.7500 C   0  0  0  0  0  1  0  0  0  0  0  0
  192.0790  171.4830  142.9330 O   0  0  0  0  0  0  0  0  0  0  0  0
  1 15  1  0  0  0  0
  2 11  2  0  0  0  0
  3  4  1  0  0  0  0
  3  8  1  0  0  0  0
  4 14  1  0  0  0  0
  5 12  2  0  0  0  0
  5  2  1  0  0  0  0
  6  8  2  0  0  0  0
  6 27  1  0  0  0  0
  9 16  2  0  0  0  0
  9 12  1  0  0  0  0
 10  1  2  0  0  0  0
 11 22  1  0  0  0  0
 11 14  1  0  0  0  0
 12 13  1  0  0  0  0
 13  7  2  0  0  0  0
 13 22  1  0  0  0  0
 15  3  2  0  0  0  0
 16 20  1  0  0  0  0
 17  1  1  6  0  0  0
 17  2  1  0  0  0  0
 18  5  1  0  0  0  0
 19 28  1  1  0  0  0
 19 24  1  0  0  0  0
 19 10  1  0  0  0  0
 20  7  1  0  0  0  0
 21 15  1  0  0  0  0
 21 23  2  0  0  0  0
 23  6  1  0  0  0  0
 24 18  1  6  0  0  0
 24 17  1  0  0  0  0
 27 26  2  0  0  0  0
 27 25  1  0  0  0  0
 29 28  1  0  0  0  0
 30 29  1  0  0  0  0
 30 31  1  0  0  0  0
 31 32  1  0  0  0  0
 32 33  1  0  0  0  0
 33 34  1  0  0  0  0
 33 36  1  0  0  0  0
 35 36  1  0  0  0  0
M  END
>  <MODEL>
4

>  <REMARK>
 VINA RESULT:      -7.1      2.027      5.374
  Name = 
  8 active torsions:
  status: ('A' for Active; 'I' for Inactive)
    1  A    between atoms: N_2  and  C_16
    2  A    between atoms: N_2  and  O_24
    3  A    between atoms: C_8  and  C_33
    4  A    between atoms: N_9  and  C_22
    5  A    between atoms: N_9  and  C_29
    6  A    between atoms: C_16  and  C_29
    7  A    between atoms: C_22  and  C_31
    8  A    between atoms: C_27  and  C_31
                            x       y       z     vdW  Elec       q    Type
                         _______ _______ _______ _____ _____    ______ ____

>  <TORSDO>
F 8

$$$$
=
 OpenBabel11042417583D

 36 41  0  0  1  0  0  0  0  0999 V2000
  188.8940  175.0170  143.6700 C   0  0  0  0  0  0  0  0  0  0  0  0
  191.3490  175.1610  144.2360 C   0  0  0  0  0  0  0  0  0  0  0  0
  188.5670  175.7420  146.0580 C   0  0  0  0  0  0  0  0  0  0  0  0
  189.4550  174.6470  146.5310 C   0  0  0  0  0  2  0  0  0  0  0  0
  192.3440  175.1870  143.1600 C   0  0  0  0  0  0  0  0  0  0  0  0
  187.1270  177.6310  146.5820 C   0  0  0  0  0  0  0  0  0  0  0  0
  195.1250  176.6330  144.9070 N   0  0  0  0  0  0  0  0  0  0  0  0
  187.9810  176.6000  146.9950 C   0  0  0  0  0  3  0  0  0  0  0  0
  194.6120  175.6290  142.3050 C   0  0  0  0  0  3  0  0  0  0  0  0
  188.1930  174.7210  142.3780 C   0  0  0  0  0  3  0  0  0  0  0  0
  191.6780  175.4750  145.5150 C   0  0  0  0  0  0  0  0  0  0  0  0
  193.5780  175.6630  143.3430 C   0  0  0  0  0  0  0  0  0  0  0  0
  193.9420  176.1440  144.6840 C   0  0  0  0  0  0  0  0  0  0  0  0
  190.8580  175.1790  146.7440 C   0  0  0  0  0  2  0  0  0  0  0  0
  188.3190  175.9200  144.6870 C   0  0  0  0  0  0  0  0  0  0  0  0
  195.8120  176.1530  142.5560 C   0  0  0  0  0  3  0  0  0  0  0  0
  190.1550  174.5980  143.6010 C   0  0  2  0  0  3  0  0  0  0  0  0
  191.7990  174.5590  141.9120 C   0  0  0  0  0  2  0  0  0  0  0  0
  189.2990  174.1830  141.4630 C   0  0  1  0  0  3  0  0  0  0  0  0
  196.1330  176.8500  143.8580 C   0  0  0  0  0  2  0  0  0  0  0  0
  187.4480  176.9400  144.2800 C   0  0  0  0  0  3  0  0  0  0  0  0
  192.9960  176.0020  145.7540 N   0  0  0  0  0  2  0  0  0  0  0  0
  186.8600  177.7920  145.2170 C   0  0  0  0  0  3  0  0  0  0  0  0
  190.4700  174.1110  142.3140 N   0  0  2  0  0  0  0  0  0  0  0  0
  187.1950  179.0110  148.5110 O   0  0  0  0  0  1  0  0  0  0  0  0
  185.1650  178.8700  147.4660 O   0  0  0  0  0  0  0  0  0  0  0  0
  186.5110  178.5330  147.5690 C   0  0  0  0  0  0  0  0  0  0  0  0
  188.9400  172.7950  140.9690 C   0  0  0  0  0  2  0  0  0  0  0  0
  189.4330  172.6100  139.5470 C   0  0  0  0  0  2  0  0  0  0  0  0
  189.3670  173.8790  138.8430 N   0  0  0  0  0  2  0  0  0  0  0  0
  188.6270  173.6510  137.6140 C   0  0  0  0  0  2  0  0  0  0  0  0
  189.3280  174.3390  136.4530 C   0  0  0  0  0  2  0  0  0  0  0  0
  188.3900  175.1860  135.7310 N   0  0  0  0  0  0  0  0  0  0  0  0
  189.1040  176.2410  135.2700 O   0  0  0  0  0  1  0  0  0  0  0  0
  186.4490  176.1750  135.8870 C   0  0  0  0  0  1  0  0  0  0  0  0
  187.5110  175.6740  136.6430 O   0  0  0  0  0  0  0  0  0  0  0  0
  1 15  1  0  0  0  0
  2 11  2  0  0  0  0
  3  4  1  0  0  0  0
  3  8  1  0  0  0  0
  4 14  1  0  0  0  0
  5 12  2  0  0  0  0
  5  2  1  0  0  0  0
  6  8  2  0  0  0  0
  6 27  1  0  0  0  0
  9 16  2  0  0  0  0
  9 12  1  0  0  0  0
 10  1  2  0  0  0  0
 11 22  1  0  0  0  0
 11 14  1  0  0  0  0
 12 13  1  0  0  0  0
 13  7  2  0  0  0  0
 13 22  1  0  0  0  0
 15  3  2  0  0  0  0
 16 20  1  0  0  0  0
 17  1  1  6  0  0  0
 17  2  1  0  0  0  0
 18  5  1  0  0  0  0
 19 28  1  1  0  0  0
 19 24  1  0  0  0  0
 19 10  1  0  0  0  0
 20  7  1  0  0  0  0
 21 15  1  0  0  0  0
 21 23  2  0  0  0  0
 23  6  1  0  0  0  0
 24 18  1  6  0  0  0
 24 17  1  0  0  0  0
 26 27  2  0  0  0  0
 27 25  1  0  0  0  0
 29 28  1  0  0  0  0
 30 29  1  0  0  0  0
 31 30  1  0  0  0  0
 32 31  1  0  0  0  0
 33 32  1  0  0  0  0
 33 36  1  0  0  0  0
 34 33  1  0  0  0  0
 35 36  1  0  0  0  0
M  END
>  <MODEL>
5

>  <REMARK>
 VINA RESULT:      -6.9      2.726      6.132
  Name = 
  8 active torsions:
  status: ('A' for Active; 'I' for Inactive)
    1  A    between atoms: N_2  and  C_16
    2  A    between atoms: N_2  and  O_24
    3  A    between atoms: C_8  and  C_33
    4  A    between atoms: N_9  and  C_22
    5  A    between atoms: N_9  and  C_29
    6  A    between atoms: C_16  and  C_29
    7  A    between atoms: C_22  and  C_31
    8  A    between atoms: C_27  and  C_31
                            x       y       z     vdW  Elec       q    Type
                         _______ _______ _______ _____ _____    ______ ____

>  <TORSDO>
F 8

$$$$
=
 OpenBabel11042417583D

 36 41  0  0  1  0  0  0  0  0999 V2000
  188.7160  175.1360  143.5230 C   0  0  0  0  0  0  0  0  0  0  0  0
  191.1880  175.1540  144.0340 C   0  0  0  0  0  0  0  0  0  0  0  0
  188.4750  175.7680  145.9480 C   0  0  0  0  0  0  0  0  0  0  0  0
  189.3270  174.6170  146.3500 C   0  0  0  0  0  2  0  0  0  0  0  0
  192.1580  175.1880  142.9350 C   0  0  0  0  0  0  0  0  0  0  0  0
  187.1280  177.6890  146.5890 C   0  0  0  0  0  0  0  0  0  0  0  0
  195.0370  176.4400  144.6740 N   0  0  0  0  0  0  0  0  0  0  0  0
  187.9470  176.6070  146.9360 C   0  0  0  0  0  3  0  0  0  0  0  0
  194.4220  175.5740  142.0450 C   0  0  0  0  0  3  0  0  0  0  0  0
  187.9740  174.9270  142.2380 C   0  0  0  0  0  3  0  0  0  0  0  0
  191.5590  175.3980  145.3160 C   0  0  0  0  0  0  0  0  0  0  0  0
  193.4150  175.6040  143.1080 C   0  0  0  0  0  0  0  0  0  0  0  0
  193.8290  176.0110  144.4590 C   0  0  0  0  0  0  0  0  0  0  0  0
  190.7560  175.0820  146.5520 C   0  0  0  0  0  2  0  0  0  0  0  0
  188.2040  176.0160  144.5930 C   0  0  0  0  0  0  0  0  0  0  0  0
  195.6480  176.0370  142.2880 C   0  0  0  0  0  3  0  0  0  0  0  0
  189.9570  174.6700  143.4050 C   0  0  2  0  0  3  0  0  0  0  0  0
  191.5580  174.6390  141.6750 C   0  0  0  0  0  2  0  0  0  0  0  0
  189.0350  174.3850  141.2730 C   0  0  1  0  0  3  0  0  0  0  0  0
  196.0290  176.6630  143.6110 C   0  0  0  0  0  2  0  0  0  0  0  0
  187.3660  177.0880  144.2510 C   0  0  0  0  0  3  0  0  0  0  0  0
  192.9030  175.8600  145.5460 N   0  0  0  0  0  2  0  0  0  0  0  0
  186.8370  177.9210  145.2390 C   0  0  0  0  0  3  0  0  0  0  0  0
  190.2210  174.2270  142.0910 N   0  0  2  0  0  0  0  0  0  0  0  0
  185.3410  178.8300  147.6540 O   0  0  0  0  0  0  0  0  0  0  0  0
  187.4040  179.1200  148.5990 O   0  0  0  0  0  1  0  0  0  0  0  0
  186.5730  178.5700  147.6290 C   0  0  0  0  0  0  0  0  0  0  0  0
  188.6070  173.0360  140.7280 C   0  0  0  0  0  2  0  0  0  0  0  0
  188.2930  173.1520  139.2500 C   0  0  0  0  0  2  0  0  0  0  0  0
  189.4440  173.7000  138.5520 N   0  0  0  0  0  2  0  0  0  0  0  0
  190.0100  172.6300  137.7500 C   0  0  0  0  0  2  0  0  0  0  0  0
  191.4600  172.3980  138.1470 C   0  0  0  0  0  2  0  0  0  0  0  0
  191.5960  171.1200  138.8300 N   0  0  0  0  0  0  0  0  0  0  0  0
  190.4610  170.4280  138.5760 O   0  0  0  0  0  1  0  0  0  0  0  0
  191.0690  170.2380  140.7570 C   0  0  0  0  0  1  0  0  0  0  0  0
  191.6090  171.3810  140.1620 O   0  0  0  0  0  0  0  0  0  0  0  0
  1 15  1  0  0  0  0
  2 11  2  0  0  0  0
  3  4  1  0  0  0  0
  3  8  1  0  0  0  0
  4 14  1  0  0  0  0
  5 12  2  0  0  0  0
  5  2  1  0  0  0  0
  6  8  2  0  0  0  0
  6 27  1  0  0  0  0
  9 16  2  0  0  0  0
  9 12  1  0  0  0  0
 10  1  2  0  0  0  0
 11 22  1  0  0  0  0
 11 14  1  0  0  0  0
 12 13  1  0  0  0  0
 13  7  2  0  0  0  0
 13 22  1  0  0  0  0
 15  3  2  0  0  0  0
 16 20  1  0  0  0  0
 17  1  1  6  0  0  0
 17  2  1  0  0  0  0
 18  5  1  0  0  0  0
 19 28  1  1  0  0  0
 19 24  1  0  0  0  0
 19 10  1  0  0  0  0
 20  7  1  0  0  0  0
 21 15  1  0  0  0  0
 21 23  2  0  0  0  0
 23  6  1  0  0  0  0
 24 18  1  6  0  0  0
 24 17  1  0  0  0  0
 27 25  2  0  0  0  0
 27 26  1  0  0  0  0
 29 28  1  0  0  0  0
 30 29  1  0  0  0  0
 31 32  1  0  0  0  0
 31 30  1  0  0  0  0
 32 33  1  0  0  0  0
 33 36  1  0  0  0  0
 34 33  1  0  0  0  0
 36 35  1  0  0  0  0
M  END
>  <MODEL>
6

>  <REMARK>
 VINA RESULT:      -6.9      2.155      5.631
  Name = 
  8 active torsions:
  status: ('A' for Active; 'I' for Inactive)
    1  A    between atoms: N_2  and  C_16
    2  A    between atoms: N_2  and  O_24
    3  A    between atoms: C_8  and  C_33
    4  A    between atoms: N_9  and  C_22
    5  A    between atoms: N_9  and  C_29
    6  A    between atoms: C_16  and  C_29
    7  A    between atoms: C_22  and  C_31
    8  A    between atoms: C_27  and  C_31
                            x       y       z     vdW  Elec       q    Type
                         _______ _______ _______ _____ _____    ______ ____

>  <TORSDO>
F 8

$$$$
=
 OpenBabel11042417583D

 36 41  0  0  1  0  0  0  0  0999 V2000
  190.4680  175.2670  144.5980 C   0  0  0  0  0  0  0  0  0  0  0  0
  190.0440  173.9700  142.4740 C   0  0  0  0  0  0  0  0  0  0  0  0
  192.4690  173.7550  144.8130 C   0  0  0  0  0  0  0  0  0  0  0  0
  191.6050  172.5570  144.6390 C   0  0  0  0  0  2  0  0  0  0  0  0
  189.1140  174.4990  141.4720 C   0  0  0  0  0  0  0  0  0  0  0  0
  194.6810  174.6910  145.1970 C   0  0  0  0  0  0  0  0  0  0  0  0
  190.2190  172.6940  138.5730 N   0  0  0  0  0  0  0  0  0  0  0  0
  193.8430  173.5830  145.0130 C   0  0  0  0  0  3  0  0  0  0  0  0
  188.1800  174.5650  139.1940 C   0  0  0  0  0  3  0  0  0  0  0  0
  189.7630  176.4480  145.1920 C   0  0  0  0  0  3  0  0  0  0  0  0
  190.8850  172.9430  142.1910 C   0  0  0  0  0  0  0  0  0  0  0  0
  189.1470  174.1090  140.1960 C   0  0  0  0  0  0  0  0  0  0  0  0
  190.1360  173.0920  139.8080 C   0  0  0  0  0  0  0  0  0  0  0  0
  191.6380  172.1060  143.1920 C   0  0  0  0  0  2  0  0  0  0  0  0
  191.9180  175.0450  144.7750 C   0  0  0  0  0  0  0  0  0  0  0  0
  188.2980  174.1540  137.9310 C   0  0  0  0  0  3  0  0  0  0  0  0
  189.6780  174.6760  143.7040 C   0  0  2  0  0  3  0  0  0  0  0  0
  188.1300  175.4400  142.0990 C   0  0  0  0  0  2  0  0  0  0  0  0
  188.4610  176.5540  144.3890 C   0  0  1  0  0  3  0  0  0  0  0  0
  189.4430  173.2810  137.4690 C   0  0  0  0  0  2  0  0  0  0  0  0
  192.7560  176.1500  144.9800 C   0  0  0  0  0  3  0  0  0  0  0  0
  190.9590  172.5000  140.8230 N   0  0  0  0  0  2  0  0  0  0  0  0
  194.1270  175.9760  145.1840 C   0  0  0  0  0  3  0  0  0  0  0  0
  188.4800  175.3970  143.5150 N   0  0  2  0  0  0  0  0  0  0  0  0
  196.9480  174.8410  144.5140 O   0  0  0  0  0  0  0  0  0  0  0  0
  196.5990  173.9740  146.6010 O   0  0  0  0  0  1  0  0  0  0  0  0
  196.1260  174.5090  145.4080 C   0  0  0  0  0  0  0  0  0  0  0  0
  187.2650  176.4730  145.3180 C   0  0  0  0  0  2  0  0  0  0  0  0
  187.5950  177.1350  146.6420 C   0  0  0  0  0  2  0  0  0  0  0  0
  186.3700  177.6020  147.2680 N   0  0  0  0  0  2  0  0  0  0  0  0
  185.2940  177.3930  146.3150 C   0  0  0  0  0  2  0  0  0  0  0  0
  184.4560  178.6570  146.1970 C   0  0  0  0  0  2  0  0  0  0  0  0
  184.3430  179.0570  144.8020 N   0  0  0  0  0  0  0  0  0  0  0  0
  184.4540  177.9230  144.0690 O   0  0  0  0  0  1  0  0  0  0  0  0
  185.9030  179.3250  143.2980 C   0  0  0  0  0  1  0  0  0  0  0  0
  185.4320  179.8170  144.5170 O   0  0  0  0  0  0  0  0  0  0  0  0
  1 15  1  0  0  0  0
  1 10  2  0  0  0  0
  3  8  1  0  0  0  0
  4  3  1  0  0  0  0
  5 18  1  0  0  0  0
  5  2  1  0  0  0  0
  6 27  1  0  0  0  0
  7 13  2  0  0  0  0
  8  6  2  0  0  0  0
  9 12  1  0  0  0  0
 11  2  2  0  0  0  0
 11 14  1  0  0  0  0
 12  5  2  0  0  0  0
 13 12  1  0  0  0  0
 13 22  1  0  0  0  0
 14  4  1  0  0  0  0
 15  3  2  0  0  0  0
 15 21  1  0  0  0  0
 16  9  2  0  0  0  0
 17  2  1  6  0  0  0
 17  1  1  0  0  0  0
 19 10  1  0  0  0  0
 19 28  1  1  0  0  0
 20 16  1  0  0  0  0
 20  7  1  0  0  0  0
 21 23  2  0  0  0  0
 22 11  1  0  0  0  0
 23  6  1  0  0  0  0
 24 18  1  6  0  0  0
 24 17  1  0  0  0  0
 24 19  1  0  0  0  0
 25 27  2  0  0  0  0
 27 26  1  0  0  0  0
 28 29  1  0  0  0  0
 29 30  1  0  0  0  0
 31 30  1  0  0  0  0
 32 31  1  0  0  0  0
 33 32  1  0  0  0  0
 34 33  1  0  0  0  0
 35 36  1  0  0  0  0
 36 33  1  0  0  0  0
M  END
>  <MODEL>
7

>  <REMARK>
 VINA RESULT:      -6.8      2.336      7.101
  Name = 
  8 active torsions:
  status: ('A' for Active; 'I' for Inactive)
    1  A    between atoms: N_2  and  C_16
    2  A    between atoms: N_2  and  O_24
    3  A    between atoms: C_8  and  C_33
    4  A    between atoms: N_9  and  C_22
    5  A    between atoms: N_9  and  C_29
    6  A    between atoms: C_16  and  C_29
    7  A    between atoms: C_22  and  C_31
    8  A    between atoms: C_27  and  C_31
                            x       y       z     vdW  Elec       q    Type
                         _______ _______ _______ _____ _____    ______ ____

>  <TORSDO>
F 8

$$$$
=
 OpenBabel11042417583D

 36 41  0  0  1  0  0  0  0  0999 V2000
  188.8170  175.0730  143.5860 C   0  0  0  0  0  0  0  0  0  0  0  0
  191.2670  175.1880  144.1780 C   0  0  0  0  0  0  0  0  0  0  0  0
  188.4730  175.8030  145.9700 C   0  0  0  0  0  0  0  0  0  0  0  0
  189.3430  174.6980  146.4520 C   0  0  0  0  0  2  0  0  0  0  0  0
  192.2730  175.2030  143.1120 C   0  0  0  0  0  0  0  0  0  0  0  0
  187.0500  177.7090  146.4780 C   0  0  0  0  0  0  0  0  0  0  0  0
  195.0530  176.6170  144.8880 N   0  0  0  0  0  0  0  0  0  0  0  0
  187.8870  176.6690  146.9010 C   0  0  0  0  0  3  0  0  0  0  0  0
  194.5550  175.6180  142.2810 C   0  0  0  0  0  3  0  0  0  0  0  0
  188.1260  174.7840  142.2870 C   0  0  0  0  0  3  0  0  0  0  0  0
  191.5860  175.5000  145.4600 C   0  0  0  0  0  0  0  0  0  0  0  0
  193.5110  175.6640  143.3080 C   0  0  0  0  0  0  0  0  0  0  0  0
  193.8660  176.1420  144.6530 C   0  0  0  0  0  0  0  0  0  0  0  0
  190.7500  175.2140  146.6810 C   0  0  0  0  0  2  0  0  0  0  0  0
  188.2420  175.9830  144.5970 C   0  0  0  0  0  0  0  0  0  0  0  0
  195.7580  176.1280  142.5440 C   0  0  0  0  0  3  0  0  0  0  0  0
  190.0730  174.6390  143.5300 C   0  0  2  0  0  3  0  0  0  0  0  0
  191.7350  174.5810  141.8590 C   0  0  0  0  0  2  0  0  0  0  0  0
  189.2350  174.2330  141.3830 C   0  0  1  0  0  3  0  0  0  0  0  0
  196.0750  176.8220  143.8490 C   0  0  0  0  0  2  0  0  0  0  0  0
  187.3870  177.0130  144.1800 C   0  0  0  0  0  3  0  0  0  0  0  0
  192.9080  176.0120  145.7130 N   0  0  0  0  0  2  0  0  0  0  0  0
  186.7990  177.8720  145.1110 C   0  0  0  0  0  3  0  0  0  0  0  0
  190.3960  174.1480  142.2480 N   0  0  2  0  0  0  0  0  0  0  0  0
  185.2400  178.9930  147.3180 O   0  0  0  0  0  0  0  0  0  0  0  0
  187.1630  179.0670  148.5530 O   0  0  0  0  0  1  0  0  0  0  0  0
  186.4340  178.6180  147.4580 C   0  0  0  0  0  0  0  0  0  0  0  0
  188.8650  172.8490  140.8870 C   0  0  0  0  0  2  0  0  0  0  0  0
  189.5030  172.5990  139.5340 C   0  0  0  0  0  2  0  0  0  0  0  0
  189.5010  173.8320  138.7630 N   0  0  0  0  0  2  0  0  0  0  0  0
  190.0030  173.5110  137.4390 C   0  0  0  0  0  2  0  0  0  0  0  0
  191.4920  173.2080  137.5110 C   0  0  0  0  0  2  0  0  0  0  0  0
  192.2590  174.4440  137.4760 N   0  0  0  0  0  0  0  0  0  0  0  0
  193.1160  174.3340  136.4340 O   0  0  0  0  0  1  0  0  0  0  0  0
  194.2040  175.1000  138.2230 C   0  0  0  0  0  1  0  0  0  0  0  0
  193.0140  174.4760  138.6040 O   0  0  0  0  0  0  0  0  0  0  0  0
  1 15  1  0  0  0  0
  2 11  2  0  0  0  0
  3  4  1  0  0  0  0
  3  8  1  0  0  0  0
  4 14  1  0  0  0  0
  5 12  2  0  0  0  0
  5  2  1  0  0  0  0
  6  8  2  0  0  0  0
  6 27  1  0  0  0  0
  9 16  2  0  0  0  0
  9 12  1  0  0  0  0
 10  1  2  0  0  0  0
 11 22  1  0  0  0  0
 11 14  1  0  0  0  0
 12 13  1  0  0  0  0
 13  7  2  0  0  0  0
 13 22  1  0  0  0  0
 15  3  2  0  0  0  0
 16 20  1  0  0  0  0
 17  1  1  6  0  0  0
 17  2  1  0  0  0  0
 18  5  1  0  0  0  0
 19 28  1  1  0  0  0
 19 24  1  0  0  0  0
 19 10  1  0  0  0  0
 20  7  1  0  0  0  0
 21 15  1  0  0  0  0
 21 23  2  0  0  0  0
 23  6  1  0  0  0  0
 24 18  1  6  0  0  0
 24 17  1  0  0  0  0
 25 27  2  0  0  0  0
 27 26  1  0  0  0  0
 29 28  1  0  0  0  0
 30 29  1  0  0  0  0
 31 32  1  0  0  0  0
 31 30  1  0  0  0  0
 33 32  1  0  0  0  0
 33 36  1  0  0  0  0
 34 33  1  0  0  0  0
 35 36  1  0  0  0  0
M  END
>  <MODEL>
8

>  <REMARK>
 VINA RESULT:      -6.7      2.099      5.380
  Name = 
  8 active torsions:
  status: ('A' for Active; 'I' for Inactive)
    1  A    between atoms: N_2  and  C_16
    2  A    between atoms: N_2  and  O_24
    3  A    between atoms: C_8  and  C_33
    4  A    between atoms: N_9  and  C_22
    5  A    between atoms: N_9  and  C_29
    6  A    between atoms: C_16  and  C_29
    7  A    between atoms: C_22  and  C_31
    8  A    between atoms: C_27  and  C_31
                            x       y       z     vdW  Elec       q    Type
                         _______ _______ _______ _____ _____    ______ ____

>  <TORSDO>
F 8

$$$$
=
 OpenBabel11042417583D

 36 41  0  0  1  0  0  0  0  0999 V2000
  188.7680  175.0950  143.6190 C   0  0  0  0  0  0  0  0  0  0  0  0
  191.2080  175.2010  144.2540 C   0  0  0  0  0  0  0  0  0  0  0  0
  188.3860  175.8630  145.9850 C   0  0  0  0  0  0  0  0  0  0  0  0
  189.2390  174.7580  146.5000 C   0  0  0  0  0  2  0  0  0  0  0  0
  192.2330  175.1920  143.2060 C   0  0  0  0  0  0  0  0  0  0  0  0
  186.9690  177.7870  146.4400 C   0  0  0  0  0  0  0  0  0  0  0  0
  194.9920  176.6110  145.0130 N   0  0  0  0  0  0  0  0  0  0  0  0
  187.7910  176.7460  146.8930 C   0  0  0  0  0  3  0  0  0  0  0  0
  194.5330  175.5770  142.4120 C   0  0  0  0  0  3  0  0  0  0  0  0
  188.0980  174.7930  142.3120 C   0  0  0  0  0  3  0  0  0  0  0  0
  191.5060  175.5280  145.5370 C   0  0  0  0  0  0  0  0  0  0  0  0
  193.4710  175.6460  143.4180 C   0  0  0  0  0  0  0  0  0  0  0  0
  193.8050  176.1410  144.7620 C   0  0  0  0  0  0  0  0  0  0  0  0
  190.6460  175.2670  146.7460 C   0  0  0  0  0  2  0  0  0  0  0  0
  188.1820  176.0250  144.6060 C   0  0  0  0  0  0  0  0  0  0  0  0
  195.7350  176.0820  142.6890 C   0  0  0  0  0  3  0  0  0  0  0  0
  190.0220  174.6510  143.5930 C   0  0  2  0  0  3  0  0  0  0  0  0
  191.7130  174.5550  141.9530 C   0  0  0  0  0  2  0  0  0  0  0  0
  189.2200  174.2200  141.4370 C   0  0  1  0  0  3  0  0  0  0  0  0
  196.0330  176.7930  143.9900 C   0  0  0  0  0  2  0  0  0  0  0  0
  187.3420  177.0550  144.1580 C   0  0  0  0  0  3  0  0  0  0  0  0
  192.8270  176.0340  145.8070 N   0  0  0  0  0  2  0  0  0  0  0  0
  186.7450  177.9320  145.0660 C   0  0  0  0  0  3  0  0  0  0  0  0
  190.3640  174.1380  142.3230 N   0  0  2  0  0  0  0  0  0  0  0  0
  185.1310  179.0360  147.2710 O   0  0  0  0  0  0  0  0  0  0  0  0
  187.0810  179.2410  148.4490 O   0  0  0  0  0  1  0  0  0  0  0  0
  186.3430  178.7150  147.3950 C   0  0  0  0  0  0  0  0  0  0  0  0
  188.8480  172.8310  140.9540 C   0  0  0  0  0  2  0  0  0  0  0  0
  189.2580  172.6630  139.5030 C   0  0  0  0  0  2  0  0  0  0  0  0
  190.6210  172.1650  139.4400 N   0  0  0  0  0  2  0  0  0  0  0  0
  191.2900  172.8780  138.3660 C   0  0  0  0  0  2  0  0  0  0  0  0
  190.9790  172.2140  137.0330 C   0  0  0  0  0  2  0  0  0  0  0  0
  190.6780  173.2220  136.0270 N   0  0  0  0  0  0  0  0  0  0  0  0
  190.5660  174.3990  136.6870 O   0  0  0  0  0  1  0  0  0  0  0  0
  189.4260  171.5400  135.4180 C   0  0  0  0  0  1  0  0  0  0  0  0
  189.4490  172.9320  135.5300 O   0  0  0  0  0  0  0  0  0  0  0  0
  1 15  1  0  0  0  0
  2 11  2  0  0  0  0
  3  4  1  0  0  0  0
  3  8  1  0  0  0  0
  4 14  1  0  0  0  0
  5 12  2  0  0  0  0
  5  2  1  0  0  0  0
  6  8  2  0  0  0  0
  6 27  1  0  0  0  0
  9 16  2  0  0  0  0
  9 12  1  0  0  0  0
 10  1  2  0  0  0  0
 11 22  1  0  0  0  0
 11 14  1  0  0  0  0
 12 13  1  0  0  0  0
 13  7  2  0  0  0  0
 13 22  1  0  0  0  0
 15  3  2  0  0  0  0
 16 20  1  0  0  0  0
 17  1  1  6  0  0  0
 17  2  1  0  0  0  0
 18  5  1  0  0  0  0
 19 28  1  1  0  0  0
 19 10  1  0  0  0  0
 19 24  1  0  0  0  0
 20  7  1  0  0  0  0
 21 15  1  0  0  0  0
 21 23  2  0  0  0  0
 23  6  1  0  0  0  0
 24 18  1  6  0  0  0
 24 17  1  0  0  0  0
 25 27  2  0  0  0  0
 27 26  1  0  0  0  0
 29 28  1  0  0  0  0
 30 29  1  0  0  0  0
 31 30  1  0  0  0  0
 32 31  1  0  0  0  0
 33 34  1  0  0  0  0
 33 32  1  0  0  0  0
 35 36  1  0  0  0  0
 36 33  1  0  0  0  0
M  END
>  <MODEL>
9

>  <REMARK>
 VINA RESULT:      -6.7      2.511      5.845
  Name = 
  8 active torsions:
  status: ('A' for Active; 'I' for Inactive)
    1  A    between atoms: N_2  and  C_16
    2  A    between atoms: N_2  and  O_24
    3  A    between atoms: C_8  and  C_33
    4  A    between atoms: N_9  and  C_22
    5  A    between atoms: N_9  and  C_29
    6  A    between atoms: C_16  and  C_29
    7  A    between atoms: C_22  and  C_31
    8  A    between atoms: C_27  and  C_31
                            x       y       z     vdW  Elec       q    Type
                         _______ _______ _______ _____ _____    ______ ____

>  <TORSDO>
F 8

$$$$
