=
 OpenBabel11042417323D

 39 43  0  0  1  0  0  0  0  0999 V2000
  189.3930  172.5020  143.3620 C   0  0  0  0  0  3  0  0  0  0  0  0
  189.5400  174.1610  145.1150 C   0  0  0  0  0  0  0  0  0  0  0  0
  188.8560  173.4510  142.4810 C   0  0  0  0  0  0  0  0  0  0  0  0
  189.7320  172.8510  144.6700 C   0  0  0  0  0  3  0  0  0  0  0  0
  188.6530  174.7700  142.9340 C   0  0  0  0  0  0  0  0  0  0  0  0
  188.9970  175.1140  144.2520 C   0  0  0  0  0  3  0  0  0  0  0  0
  188.9340  176.9720  141.9130 N   0  0  0  0  0  0  0  0  0  0  0  0
  186.7750  176.3500  142.5440 C   0  0  0  0  0  3  0  0  0  0  0  0
  186.9430  177.6510  142.6790 C   0  0  0  0  0  0  0  0  0  0  0  0
  188.2880  178.0260  142.2870 C   0  0  0  0  0  3  0  0  0  0  0  0
  188.0660  175.8030  142.0110 C   0  0  2  0  0  3  0  0  0  0  0  0
  185.9370  178.5390  143.1650 N   0  0  0  0  0  2  0  0  0  0  0  0
  184.7010  178.0490  143.7540 C   0  0  0  0  0  2  0  0  0  0  0  0
  184.4020  178.7940  145.0440 C   0  0  0  0  0  2  0  0  0  0  0  0
  184.7150  177.9590  146.2410 C   0  0  0  0  0  0  0  0  0  0  0  0
  185.1960  176.6630  146.0890 O   0  0  0  0  0  0  0  0  0  0  0  0
  184.5140  178.4200  147.3940 O   0  0  0  0  0  1  0  0  0  0  0  0
  188.4980  173.1080  141.1300 N   0  0  0  0  0  2  0  0  0  0  0  0
  190.6670  173.8280  137.6220 N   0  0  0  0  0  0  0  0  0  0  0  0
  191.3330  173.5060  138.7630 C   0  0  0  0  0  3  0  0  0  0  0  0
  190.6150  173.2680  139.9330 C   0  0  0  0  0  3  0  0  0  0  0  0
  189.2250  173.3650  139.9180 C   0  0  0  0  0  0  0  0  0  0  0  0
  188.5920  173.6990  138.7160 C   0  0  0  0  0  3  0  0  0  0  0  0
  189.3360  173.9210  137.6000 N   0  0  0  0  0  0  0  0  0  0  0  0
  189.8890  174.5320  146.5140 C   0  0  0  0  0  2  0  0  0  0  0  0
  189.2730  175.8730  146.8650 C   0  0  0  0  0  2  0  0  0  0  0  0
  190.3700  176.8660  147.1890 C   0  0  0  0  0  2  0  0  0  0  0  0
  192.2770  176.5520  145.5570 C   0  0  0  0  0  0  0  0  0  0  0  0
  191.6650  176.3090  146.8280 N   0  0  0  0  0  2  0  0  0  0  0  0
  191.7230  177.3090  144.7160 O   0  0  0  0  0  0  0  0  0  0  0  0
  194.5660  175.9460  146.3480 C   0  0  0  0  0  1  0  0  0  0  0  0
  193.5700  175.8870  145.1990 C   0  0  1  0  0  3  0  0  0  0  0  0
  193.6910  173.1170  142.6440 C   0  0  2  0  0  3  0  0  0  0  0  0
  192.8820  174.2450  143.3100 C   0  0  0  0  0  2  0  0  0  0  0  0
  193.3610  174.4810  144.7120 C   0  0  0  0  0  0  0  0  0  0  0  0
  192.9020  171.8910  142.5890 C   0  0  0  0  0  2  0  0  0  0  0  0
  193.6220  173.4160  145.4790 C   0  0  0  0  0  3  0  0  0  0  0  0
  193.4090  172.0570  144.8840 C   0  0  0  0  0  2  0  0  0  0  0  0
  194.0160  171.9700  143.5480 N   0  0  2  0  0  0  0  0  0  0  0  0
  1  4  1  0  0  0  0
  2 25  1  0  0  0  0
  3  5  1  0  0  0  0
  3  1  2  0  0  0  0
  4  2  2  0  0  0  0
  5  6  2  0  0  0  0
  6  2  1  0  0  0  0
  7 11  1  0  0  0  0
  7 10  2  0  0  0  0
  8  9  2  0  0  0  0
  9 12  1  0  0  0  0
 10  9  1  0  0  0  0
 11  8  1  0  0  0  0
 11  5  1  1  0  0  0
 12 13  1  0  0  0  0
 13 14  1  0  0  0  0
 14 15  1  0  0  0  0
 15 17  1  0  0  0  0
 16 15  2  0  0  0  0
 18  3  1  0  0  0  0
 19 20  1  0  0  0  0
 20 21  2  0  0  0  0
 22 21  1  0  0  0  0
 22 18  1  0  0  0  0
 23 22  2  0  0  0  0
 24 19  2  0  0  0  0
 24 23  1  0  0  0  0
 25 26  1  0  0  0  0
 26 27  1  0  0  0  0
 28 29  1  0  0  0  0
 29 27  1  0  0  0  0
 30 28  2  0  0  0  0
 32 28  1  0  0  0  0
 32 31  1  1  0  0  0
 33 36  1  6  0  0  0
 33 34  1  0  0  0  0
 33 39  1  0  0  0  0
 34 35  1  0  0  0  0
 35 32  1  0  0  0  0
 35 37  2  0  0  0  0
 38 37  1  0  0  0  0
 39 36  1  6  0  0  0
 39 38  1  0  0  0  0
M  END
>  <MODEL>
1

>  <REMARK>
 VINA RESULT:      -6.9      0.000      0.000
  Name = 
  13 active torsions:
  status: ('A' for Active; 'I' for Inactive)
    1  A    between atoms: C_6  and  C_33
    2  A    between atoms: C_7  and  C_31
    3  A    between atoms: C_8  and  C_22
    4  A    between atoms: C_11  and  N_35
    5  A    between atoms: C_13  and  C_31
    6  A    between atoms: N_15  and  C_16
    7  A    between atoms: N_15  and  C_21
    8  A    between atoms: C_18  and  N_25
    9  A    between atoms: C_18  and  C_34
   10  A    between atoms: C_20  and  C_23
   11  A    between atoms: C_22  and  C_34
   12  A    between atoms: C_29  and  C_33
   13  A    between atoms: C_29  and  N_35
                            x       y       z     vdW  Elec       q    Type
                         _______ _______ _______ _____ _____    ______ ____

>  <TORSDO>
F 13

$$$$
=
 OpenBabel11042417323D

 39 43  0  0  1  0  0  0  0  0999 V2000
  189.8720  174.1750  143.5840 C   0  0  0  0  0  3  0  0  0  0  0  0
  189.7200  176.2540  144.8090 C   0  0  0  0  0  0  0  0  0  0  0  0
  188.7710  174.5360  142.7940 C   0  0  0  0  0  0  0  0  0  0  0  0
  190.3450  175.0250  144.5850 C   0  0  0  0  0  3  0  0  0  0  0  0
  188.1360  175.7720  143.0280 C   0  0  0  0  0  0  0  0  0  0  0  0
  188.6170  176.6230  144.0370 C   0  0  0  0  0  3  0  0  0  0  0  0
  187.2610  177.3160  141.3480 N   0  0  0  0  0  0  0  0  0  0  0  0
  185.8180  176.6660  143.0620 C   0  0  0  0  0  3  0  0  0  0  0  0
  185.5600  177.9020  142.6800 C   0  0  0  0  0  0  0  0  0  0  0  0
  186.4640  178.2960  141.6170 C   0  0  0  0  0  3  0  0  0  0  0  0
  186.9450  176.1750  142.2030 C   0  0  2  0  0  3  0  0  0  0  0  0
  184.5470  178.7210  143.2600 N   0  0  0  0  0  2  0  0  0  0  0  0
  184.7560  179.4290  144.5130 C   0  0  0  0  0  2  0  0  0  0  0  0
  183.9000  178.8200  145.6110 C   0  0  0  0  0  2  0  0  0  0  0  0
  184.7340  178.0800  146.6030 C   0  0  0  0  0  0  0  0  0  0  0  0
  184.9130  176.7060  146.4880 O   0  0  0  0  0  0  0  0  0  0  0  0
  185.2540  178.6990  147.5670 O   0  0  0  0  0  1  0  0  0  0  0  0
  188.2690  173.6710  141.7600 N   0  0  0  0  0  2  0  0  0  0  0  0
  190.0290  172.7990  138.0620 N   0  0  0  0  0  0  0  0  0  0  0  0
  190.7800  173.3750  139.0380 C   0  0  0  0  0  3  0  0  0  0  0  0
  190.1980  173.6690  140.2690 C   0  0  0  0  0  3  0  0  0  0  0  0
  188.8530  173.3700  140.4820 C   0  0  0  0  0  0  0  0  0  0  0  0
  188.1280  172.7770  139.4430 C   0  0  0  0  0  3  0  0  0  0  0  0
  188.7410  172.5090  138.2600 N   0  0  0  0  0  0  0  0  0  0  0  0
  190.2140  177.1560  145.8850 C   0  0  0  0  0  2  0  0  0  0  0  0
  190.1880  176.4370  147.2200 C   0  0  0  0  0  2  0  0  0  0  0  0
  191.5810  176.4210  147.8150 C   0  0  0  0  0  2  0  0  0  0  0  0
  193.7040  175.9840  146.5110 C   0  0  0  0  0  0  0  0  0  0  0  0
  192.4440  175.5500  147.0330 N   0  0  0  0  0  2  0  0  0  0  0  0
  194.1330  177.1420  146.7620 O   0  0  0  0  0  0  0  0  0  0  0  0
  193.9530  173.6650  145.6240 C   0  0  0  0  0  1  0  0  0  0  0  0
  194.5160  175.0780  145.6390 C   0  0  1  0  0  3  0  0  0  0  0  0
  196.3900  175.7350  142.4340 C   0  0  2  0  0  3  0  0  0  0  0  0
  195.9920  176.2250  143.8380 C   0  0  0  0  0  2  0  0  0  0  0  0
  194.6780  175.6310  144.2520 C   0  0  0  0  0  0  0  0  0  0  0  0
  196.1700  176.7890  141.4480 C   0  0  0  0  0  2  0  0  0  0  0  0
  193.6930  175.5840  143.3480 C   0  0  0  0  0  3  0  0  0  0  0  0
  193.9700  176.1370  141.9830 C   0  0  0  0  0  2  0  0  0  0  0  0
  195.2520  175.6370  141.4660 N   0  0  2  0  0  0  0  0  0  0  0  0
  1  4  1  0  0  0  0
  2 25  1  0  0  0  0
  3  5  1  0  0  0  0
  3  1  2  0  0  0  0
  4  2  2  0  0  0  0
  5  6  2  0  0  0  0
  6  2  1  0  0  0  0
  7 10  2  0  0  0  0
  7 11  1  0  0  0  0
  9  8  2  0  0  0  0
  9 12  1  0  0  0  0
 10  9  1  0  0  0  0
 11  5  1  1  0  0  0
 11  8  1  0  0  0  0
 12 13  1  0  0  0  0
 13 14  1  0  0  0  0
 14 15  1  0  0  0  0
 15 17  1  0  0  0  0
 16 15  2  0  0  0  0
 18  3  1  0  0  0  0
 19 24  2  0  0  0  0
 19 20  1  0  0  0  0
 20 21  2  0  0  0  0
 21 22  1  0  0  0  0
 22 18  1  0  0  0  0
 23 22  2  0  0  0  0
 24 23  1  0  0  0  0
 25 26  1  0  0  0  0
 26 27  1  0  0  0  0
 28 30  2  0  0  0  0
 28 29  1  0  0  0  0
 29 27  1  0  0  0  0
 32 31  1  6  0  0  0
 32 28  1  0  0  0  0
 33 36  1  6  0  0  0
 33 34  1  0  0  0  0
 34 35  1  0  0  0  0
 35 32  1  0  0  0  0
 37 35  2  0  0  0  0
 38 37  1  0  0  0  0
 39 36  1  6  0  0  0
 39 38  1  0  0  0  0
 39 33  1  0  0  0  0
M  END
>  <MODEL>
2

>  <REMARK>
 VINA RESULT:      -6.6      1.763      2.253
  Name = 
  13 active torsions:
  status: ('A' for Active; 'I' for Inactive)
    1  A    between atoms: C_6  and  C_33
    2  A    between atoms: C_7  and  C_31
    3  A    between atoms: C_8  and  C_22
    4  A    between atoms: C_11  and  N_35
    5  A    between atoms: C_13  and  C_31
    6  A    between atoms: N_15  and  C_16
    7  A    between atoms: N_15  and  C_21
    8  A    between atoms: C_18  and  N_25
    9  A    between atoms: C_18  and  C_34
   10  A    between atoms: C_20  and  C_23
   11  A    between atoms: C_22  and  C_34
   12  A    between atoms: C_29  and  C_33
   13  A    between atoms: C_29  and  N_35
                            x       y       z     vdW  Elec       q    Type
                         _______ _______ _______ _____ _____    ______ ____

>  <TORSDO>
F 13

$$$$
=
 OpenBabel11042417323D

 39 43  0  0  1  0  0  0  0  0999 V2000
  193.3900  172.5690  144.4390 C   0  0  0  0  0  3  0  0  0  0  0  0
  190.9750  172.6580  144.3630 C   0  0  0  0  0  0  0  0  0  0  0  0
  193.4340  173.7990  145.1120 C   0  0  0  0  0  0  0  0  0  0  0  0
  192.1710  172.0010  144.0650 C   0  0  0  0  0  3  0  0  0  0  0  0
  192.2270  174.4650  145.4040 C   0  0  0  0  0  0  0  0  0  0  0  0
  191.0030  173.8870  145.0240 C   0  0  0  0  0  3  0  0  0  0  0  0
  192.1950  175.6120  147.5610 N   0  0  0  0  0  0  0  0  0  0  0  0
  191.0300  176.6060  145.8000 C   0  0  0  0  0  3  0  0  0  0  0  0
  190.4300  176.8460  146.9500 C   0  0  0  0  0  0  0  0  0  0  0  0
  191.1610  176.2220  148.0360 C   0  0  0  0  0  3  0  0  0  0  0  0
  192.2490  175.7910  146.1130 C   0  0  2  0  0  3  0  0  0  0  0  0
  189.2240  177.5960  147.0780 N   0  0  0  0  0  2  0  0  0  0  0  0
  188.1650  177.5240  146.0840 C   0  0  0  0  0  2  0  0  0  0  0  0
  187.0950  176.5390  146.5270 C   0  0  0  0  0  2  0  0  0  0  0  0
  185.8320  177.2410  146.9010 C   0  0  0  0  0  0  0  0  0  0  0  0
  185.8650  178.3560  147.7310 O   0  0  0  0  0  1  0  0  0  0  0  0
  184.7270  176.8040  146.4860 O   0  0  0  0  0  0  0  0  0  0  0  0
  194.6820  174.3990  145.5030 N   0  0  0  0  0  2  0  0  0  0  0  0
  197.6920  175.9970  143.0710 N   0  0  0  0  0  0  0  0  0  0  0  0
  196.5990  176.7510  143.3590 C   0  0  0  0  0  3  0  0  0  0  0  0
  195.5930  176.2230  144.1660 C   0  0  0  0  0  3  0  0  0  0  0  0
  195.7230  174.9280  144.6650 C   0  0  0  0  0  0  0  0  0  0  0  0
  196.8700  174.1970  144.3360 C   0  0  0  0  0  3  0  0  0  0  0  0
  197.8230  174.7570  143.5470 N   0  0  0  0  0  0  0  0  0  0  0  0
  189.6740  172.0610  143.9540 C   0  0  0  0  0  2  0  0  0  0  0  0
  189.6740  171.7860  142.4620 C   0  0  0  0  0  2  0  0  0  0  0  0
  188.3990  172.3260  141.8470 C   0  0  0  0  0  2  0  0  0  0  0  0
  188.7730  174.8210  142.0320 C   0  0  0  0  0  0  0  0  0  0  0  0
  188.0850  173.6270  142.4180 N   0  0  0  0  0  2  0  0  0  0  0  0
  189.6550  174.7860  141.1320 O   0  0  0  0  0  0  0  0  0  0  0  0
  189.6450  177.0870  142.6080 C   0  0  0  0  0  1  0  0  0  0  0  0
  188.4740  176.1210  142.7100 C   0  0  1  0  0  3  0  0  0  0  0  0
  185.2230  177.9950  143.0810 C   0  0  2  0  0  3  0  0  0  0  0  0
  185.9520  176.6390  143.0400 C   0  0  0  0  0  2  0  0  0  0  0  0
  187.1980  176.7350  142.2090 C   0  0  0  0  0  0  0  0  0  0  0  0
  184.0490  177.9660  142.2140 C   0  0  0  0  0  2  0  0  0  0  0  0
  187.1350  177.4010  141.0500 C   0  0  0  0  0  3  0  0  0  0  0  0
  185.8190  178.0010  140.6590 C   0  0  0  0  0  2  0  0  0  0  0  0
  185.2260  178.7400  141.7830 N   0  0  2  0  0  0  0  0  0  0  0  0
  1  3  1  0  0  0  0
  2  6  2  0  0  0  0
  3  5  2  0  0  0  0
  3 18  1  0  0  0  0
  4  2  1  0  0  0  0
  4  1  2  0  0  0  0
  6  5  1  0  0  0  0
  7 10  2  0  0  0  0
  8 11  1  0  0  0  0
  8  9  2  0  0  0  0
  9 12  1  0  0  0  0
  9 10  1  0  0  0  0
 11  5  1  6  0  0  0
 11  7  1  0  0  0  0
 13 14  1  0  0  0  0
 13 12  1  0  0  0  0
 14 15  1  0  0  0  0
 15 16  1  0  0  0  0
 17 15  2  0  0  0  0
 19 20  2  0  0  0  0
 19 24  1  0  0  0  0
 20 21  1  0  0  0  0
 21 22  2  0  0  0  0
 22 18  1  0  0  0  0
 23 22  1  0  0  0  0
 24 23  2  0  0  0  0
 25  2  1  0  0  0  0
 26 25  1  0  0  0  0
 27 29  1  0  0  0  0
 27 26  1  0  0  0  0
 28 29  1  0  0  0  0
 28 32  1  0  0  0  0
 30 28  2  0  0  0  0
 32 31  1  6  0  0  0
 33 36  1  6  0  0  0
 34 33  1  0  0  0  0
 35 32  1  0  0  0  0
 35 34  1  0  0  0  0
 37 35  2  0  0  0  0
 38 37  1  0  0  0  0
 39 38  1  6  0  0  0
 39 36  1  0  0  0  0
 39 33  1  0  0  0  0
M  END
>  <MODEL>
3

>  <REMARK>
 VINA RESULT:      -6.6      2.289      6.715
  Name = 
  13 active torsions:
  status: ('A' for Active; 'I' for Inactive)
    1  A    between atoms: C_6  and  C_33
    2  A    between atoms: C_7  and  C_31
    3  A    between atoms: C_8  and  C_22
    4  A    between atoms: C_11  and  N_35
    5  A    between atoms: C_13  and  C_31
    6  A    between atoms: N_15  and  C_16
    7  A    between atoms: N_15  and  C_21
    8  A    between atoms: C_18  and  N_25
    9  A    between atoms: C_18  and  C_34
   10  A    between atoms: C_20  and  C_23
   11  A    between atoms: C_22  and  C_34
   12  A    between atoms: C_29  and  C_33
   13  A    between atoms: C_29  and  N_35
                            x       y       z     vdW  Elec       q    Type
                         _______ _______ _______ _____ _____    ______ ____

>  <TORSDO>
F 13

$$$$
=
 OpenBabel11042417323D

 39 43  0  0  1  0  0  0  0  0999 V2000
  188.1750  174.5340  140.9820 C   0  0  0  0  0  3  0  0  0  0  0  0
  189.2360  173.1050  142.6190 C   0  0  0  0  0  0  0  0  0  0  0  0
  188.2410  175.6240  141.8620 C   0  0  0  0  0  0  0  0  0  0  0  0
  188.6670  173.2830  141.3550 C   0  0  0  0  0  3  0  0  0  0  0  0
  188.8060  175.4420  143.1390 C   0  0  0  0  0  0  0  0  0  0  0  0
  189.3000  174.1790  143.5080 C   0  0  0  0  0  3  0  0  0  0  0  0
  189.9690  176.4130  145.0560 N   0  0  0  0  0  0  0  0  0  0  0  0
  187.6500  176.6650  144.9670 C   0  0  0  0  0  3  0  0  0  0  0  0
  188.0610  176.5650  146.2170 C   0  0  0  0  0  0  0  0  0  0  0  0
  189.5010  176.4060  146.2600 C   0  0  0  0  0  3  0  0  0  0  0  0
  188.8750  176.5920  144.1050 C   0  0  2  0  0  3  0  0  0  0  0  0
  187.1890  176.5900  147.3460 N   0  0  0  0  0  2  0  0  0  0  0  0
  185.8120  177.0450  147.2430 C   0  0  0  0  0  2  0  0  0  0  0  0
  185.7590  178.5640  147.2400 C   0  0  0  0  0  2  0  0  0  0  0  0
  185.0960  179.0820  146.0070 C   0  0  0  0  0  0  0  0  0  0  0  0
  183.7450  178.8450  145.7800 O   0  0  0  0  0  1  0  0  0  0  0  0
  185.7720  179.7120  145.1520 O   0  0  0  0  0  0  0  0  0  0  0  0
  187.7350  176.9200  141.4940 N   0  0  0  0  0  2  0  0  0  0  0  0
  183.7680  178.2490  141.3640 N   0  0  0  0  0  0  0  0  0  0  0  0
  184.5210  178.2910  140.2330 C   0  0  0  0  0  3  0  0  0  0  0  0
  185.8420  177.8510  140.2730 C   0  0  0  0  0  3  0  0  0  0  0  0
  186.3740  177.3780  141.4710 C   0  0  0  0  0  0  0  0  0  0  0  0
  185.5530  177.3580  142.6040 C   0  0  0  0  0  3  0  0  0  0  0  0
  184.2690  177.7960  142.5150 N   0  0  0  0  0  0  0  0  0  0  0  0
  189.7510  171.7680  143.0240 C   0  0  0  0  0  2  0  0  0  0  0  0
  190.6440  171.2030  141.9370 C   0  0  0  0  0  2  0  0  0  0  0  0
  191.6450  170.2440  142.5490 C   0  0  0  0  0  2  0  0  0  0  0  0
  193.4500  171.3020  143.9710 C   0  0  0  0  0  0  0  0  0  0  0  0
  192.1290  170.7750  143.8150 N   0  0  0  0  0  2  0  0  0  0  0  0
  194.2320  171.3670  142.9850 O   0  0  0  0  0  0  0  0  0  0  0  0
  195.1830  171.0060  145.7420 C   0  0  0  0  0  1  0  0  0  0  0  0
  193.9310  171.7560  145.3140 C   0  0  1  0  0  3  0  0  0  0  0  0
  193.1220  175.2570  146.4570 C   0  0  2  0  0  3  0  0  0  0  0  0
  192.9290  174.1490  145.4060 C   0  0  0  0  0  2  0  0  0  0  0  0
  194.1250  173.2450  145.3660 C   0  0  0  0  0  0  0  0  0  0  0  0
  193.4360  176.5250  145.8060 C   0  0  0  0  0  2  0  0  0  0  0  0
  195.3410  173.8030  145.4120 C   0  0  0  0  0  3  0  0  0  0  0  0
  195.4220  175.2970  145.4930 C   0  0  0  0  0  2  0  0  0  0  0  0
  194.5090  175.8150  146.5220 N   0  0  2  0  0  0  0  0  0  0  0  0
  1  4  2  0  0  0  0
  1  3  1  0  0  0  0
  2 25  1  0  0  0  0
  2  6  2  0  0  0  0
  3  5  2  0  0  0  0
  4  2  1  0  0  0  0
  5  6  1  0  0  0  0
  7 10  2  0  0  0  0
  8  9  2  0  0  0  0
  9 10  1  0  0  0  0
  9 12  1  0  0  0  0
 11  5  1  6  0  0  0
 11  8  1  0  0  0  0
 11  7  1  0  0  0  0
 13 12  1  0  0  0  0
 14 13  1  0  0  0  0
 15 14  1  0  0  0  0
 16 15  1  0  0  0  0
 17 15  2  0  0  0  0
 18  3  1  0  0  0  0
 19 24  1  0  0  0  0
 20 21  1  0  0  0  0
 20 19  2  0  0  0  0
 21 22  2  0  0  0  0
 22 18  1  0  0  0  0
 22 23  1  0  0  0  0
 24 23  2  0  0  0  0
 26 27  1  0  0  0  0
 26 25  1  0  0  0  0
 27 29  1  0  0  0  0
 28 32  1  0  0  0  0
 29 28  1  0  0  0  0
 30 28  2  0  0  0  0
 32 35  1  0  0  0  0
 32 31  1  6  0  0  0
 33 34  1  6  0  0  0
 33 39  1  0  0  0  0
 35 34  1  0  0  0  0
 35 37  2  0  0  0  0
 36 33  1  0  0  0  0
 36 39  1  0  0  0  0
 37 38  1  0  0  0  0
 39 38  1  6  0  0  0
M  END
>  <MODEL>
4

>  <REMARK>
 VINA RESULT:      -6.5      2.369      4.783
  Name = 
  13 active torsions:
  status: ('A' for Active; 'I' for Inactive)
    1  A    between atoms: C_6  and  C_33
    2  A    between atoms: C_7  and  C_31
    3  A    between atoms: C_8  and  C_22
    4  A    between atoms: C_11  and  N_35
    5  A    between atoms: C_13  and  C_31
    6  A    between atoms: N_15  and  C_16
    7  A    between atoms: N_15  and  C_21
    8  A    between atoms: C_18  and  N_25
    9  A    between atoms: C_18  and  C_34
   10  A    between atoms: C_20  and  C_23
   11  A    between atoms: C_22  and  C_34
   12  A    between atoms: C_29  and  C_33
   13  A    between atoms: C_29  and  N_35
                            x       y       z     vdW  Elec       q    Type
                         _______ _______ _______ _____ _____    ______ ____

>  <TORSDO>
F 13

$$$$
=
 OpenBabel11042417323D

 39 43  0  0  1  0  0  0  0  0999 V2000
  188.2410  176.3190  141.3040 C   0  0  0  0  0  3  0  0  0  0  0  0
  189.3720  176.8690  143.3690 C   0  0  0  0  0  0  0  0  0  0  0  0
  188.7360  175.0070  141.3590 C   0  0  0  0  0  0  0  0  0  0  0  0
  188.5550  177.2440  142.2990 C   0  0  0  0  0  3  0  0  0  0  0  0
  189.5670  174.6330  142.4330 C   0  0  0  0  0  0  0  0  0  0  0  0
  189.8800  175.5700  143.4320 C   0  0  0  0  0  3  0  0  0  0  0  0
  189.4210  172.4470  143.5160 N   0  0  0  0  0  0  0  0  0  0  0  0
  191.5490  173.2320  142.9660 C   0  0  0  0  0  3  0  0  0  0  0  0
  191.5900  172.5030  144.0660 C   0  0  0  0  0  0  0  0  0  0  0  0
  190.2630  172.0240  144.3990 C   0  0  0  0  0  3  0  0  0  0  0  0
  190.1210  173.2360  142.5070 C   0  0  2  0  0  3  0  0  0  0  0  0
  192.7790  172.2570  144.8140 N   0  0  0  0  0  2  0  0  0  0  0  0
  194.0880  172.6730  144.3350 C   0  0  0  0  0  2  0  0  0  0  0  0
  194.8510  173.3840  145.4410 C   0  0  0  0  0  2  0  0  0  0  0  0
  194.5980  174.8550  145.4170 C   0  0  0  0  0  0  0  0  0  0  0  0
  194.1020  175.4660  144.2710 O   0  0  0  0  0  0  0  0  0  0  0  0
  194.8630  175.5510  146.4310 O   0  0  0  0  0  1  0  0  0  0  0  0
  188.4240  174.0410  140.3400 N   0  0  0  0  0  2  0  0  0  0  0  0
  189.9590  173.7500  136.4550 N   0  0  0  0  0  0  0  0  0  0  0  0
  190.7250  173.3520  137.5050 C   0  0  0  0  0  3  0  0  0  0  0  0
  190.2190  173.4490  138.8000 C   0  0  0  0  0  3  0  0  0  0  0  0
  188.9350  173.9550  139.0000 C   0  0  0  0  0  0  0  0  0  0  0  0
  188.1910  174.3500  137.8820 C   0  0  0  0  0  3  0  0  0  0  0  0
  188.7280  174.2340  136.6390 N   0  0  0  0  0  0  0  0  0  0  0  0
  189.7190  177.8590  144.4250 C   0  0  0  0  0  2  0  0  0  0  0  0
  190.7700  177.2810  145.3540 C   0  0  0  0  0  2  0  0  0  0  0  0
  190.2160  177.2050  146.7620 C   0  0  0  0  0  2  0  0  0  0  0  0
  187.7540  176.6390  146.8960 C   0  0  0  0  0  0  0  0  0  0  0  0
  188.8130  177.5920  146.7640 N   0  0  0  0  0  2  0  0  0  0  0  0
  188.0120  175.4170  147.0670 O   0  0  0  0  0  0  0  0  0  0  0  0
  185.9050  177.8700  148.0350 C   0  0  0  0  0  1  0  0  0  0  0  0
  186.3250  177.0760  146.8060 C   0  0  1  0  0  3  0  0  0  0  0  0
  184.7100  177.5810  143.4370 C   0  0  2  0  0  3  0  0  0  0  0  0
  185.9200  177.0740  144.2420 C   0  0  0  0  0  2  0  0  0  0  0  0
  186.0470  177.8250  145.5340 C   0  0  0  0  0  0  0  0  0  0  0  0
  185.1550  178.4200  142.3280 C   0  0  0  0  0  2  0  0  0  0  0  0
  185.8720  179.1520  145.5130 C   0  0  0  0  0  3  0  0  0  0  0  0
  185.5690  179.7970  144.1950 C   0  0  0  0  0  2  0  0  0  0  0  0
  184.5100  179.0640  143.4860 N   0  0  2  0  0  0  0  0  0  0  0  0
  1  3  2  0  0  0  0
  1  4  1  0  0  0  0
  2  6  1  0  0  0  0
  2 25  1  0  0  0  0
  3  5  1  0  0  0  0
  4  2  2  0  0  0  0
  5  6  2  0  0  0  0
  7 10  2  0  0  0  0
  8  9  2  0  0  0  0
  9 10  1  0  0  0  0
  9 12  1  0  0  0  0
 11  5  1  1  0  0  0
 11  8  1  0  0  0  0
 11  7  1  0  0  0  0
 13 12  1  0  0  0  0
 13 14  1  0  0  0  0
 15 14  1  0  0  0  0
 15 17  1  0  0  0  0
 16 15  2  0  0  0  0
 18  3  1  0  0  0  0
 19 24  2  0  0  0  0
 19 20  1  0  0  0  0
 20 21  2  0  0  0  0
 21 22  1  0  0  0  0
 22 18  1  0  0  0  0
 23 22  2  0  0  0  0
 24 23  1  0  0  0  0
 25 26  1  0  0  0  0
 26 27  1  0  0  0  0
 27 29  1  0  0  0  0
 28 30  2  0  0  0  0
 29 28  1  0  0  0  0
 32 28  1  0  0  0  0
 32 31  1  1  0  0  0
 33 36  1  6  0  0  0
 33 39  1  0  0  0  0
 33 34  1  0  0  0  0
 34 35  1  0  0  0  0
 35 32  1  0  0  0  0
 37 35  2  0  0  0  0
 38 37  1  0  0  0  0
 39 36  1  6  0  0  0
 39 38  1  0  0  0  0
M  END
>  <MODEL>
5

>  <REMARK>
 VINA RESULT:      -6.4      1.856      6.767
  Name = 
  13 active torsions:
  status: ('A' for Active; 'I' for Inactive)
    1  A    between atoms: C_6  and  C_33
    2  A    between atoms: C_7  and  C_31
    3  A    between atoms: C_8  and  C_22
    4  A    between atoms: C_11  and  N_35
    5  A    between atoms: C_13  and  C_31
    6  A    between atoms: N_15  and  C_16
    7  A    between atoms: N_15  and  C_21
    8  A    between atoms: C_18  and  N_25
    9  A    between atoms: C_18  and  C_34
   10  A    between atoms: C_20  and  C_23
   11  A    between atoms: C_22  and  C_34
   12  A    between atoms: C_29  and  C_33
   13  A    between atoms: C_29  and  N_35
                            x       y       z     vdW  Elec       q    Type
                         _______ _______ _______ _____ _____    ______ ____

>  <TORSDO>
F 13

$$$$
=
 OpenBabel11042417323D

 39 43  0  0  1  0  0  0  0  0999 V2000
  190.1500  176.3760  146.9290 C   0  0  0  0  0  3  0  0  0  0  0  0
  191.6620  176.3180  145.0430 C   0  0  0  0  0  0  0  0  0  0  0  0
  189.0630  176.0840  146.0910 C   0  0  0  0  0  0  0  0  0  0  0  0
  191.4400  176.4940  146.4110 C   0  0  0  0  0  3  0  0  0  0  0  0
  189.2870  175.9160  144.7110 C   0  0  0  0  0  0  0  0  0  0  0  0
  190.5890  176.0360  144.1960 C   0  0  0  0  0  3  0  0  0  0  0  0
  188.5710  174.8170  142.6490 N   0  0  0  0  0  0  0  0  0  0  0  0
  187.5810  176.8640  143.1720 C   0  0  0  0  0  3  0  0  0  0  0  0
  187.6890  176.7190  141.8650 C   0  0  0  0  0  0  0  0  0  0  0  0
  188.3080  175.4470  141.5520 C   0  0  0  0  0  3  0  0  0  0  0  0
  188.1350  175.6150  143.7910 C   0  0  2  0  0  3  0  0  0  0  0  0
  187.2710  177.7000  140.9180 N   0  0  0  0  0  2  0  0  0  0  0  0
  186.0400  177.5560  140.1560 C   0  0  0  0  0  2  0  0  0  0  0  0
  185.0640  178.6620  140.5220 C   0  0  0  0  0  2  0  0  0  0  0  0
  184.0030  178.1670  141.4480 C   0  0  0  0  0  0  0  0  0  0  0  0
  184.2970  177.9090  142.7820 O   0  0  0  0  0  1  0  0  0  0  0  0
  182.8420  177.9550  141.0110 O   0  0  0  0  0  0  0  0  0  0  0  0
  187.7250  175.9610  146.6080 N   0  0  0  0  0  2  0  0  0  0  0  0
  184.7610  178.8900  147.0080 N   0  0  0  0  0  0  0  0  0  0  0  0
  184.4840  177.7540  146.3160 C   0  0  0  0  0  3  0  0  0  0  0  0
  185.4690  176.7770  146.1790 C   0  0  0  0  0  3  0  0  0  0  0  0
  186.7230  176.9810  146.7510 C   0  0  0  0  0  0  0  0  0  0  0  0
  186.9520  178.1700  147.4520 C   0  0  0  0  0  3  0  0  0  0  0  0
  185.9590  179.0920  147.5600 N   0  0  0  0  0  0  0  0  0  0  0  0
  193.0360  176.4560  144.4870 C   0  0  0  0  0  2  0  0  0  0  0  0
  193.8680  177.3630  145.3730 C   0  0  0  0  0  2  0  0  0  0  0  0
  195.3250  176.9580  145.2890 C   0  0  0  0  0  2  0  0  0  0  0  0
  196.4070  174.7680  144.6300 C   0  0  0  0  0  0  0  0  0  0  0  0
  195.4440  175.5100  145.3830 N   0  0  0  0  0  2  0  0  0  0  0  0
  197.2300  175.3640  143.8840 O   0  0  0  0  0  0  0  0  0  0  0  0
  196.8050  172.7810  146.0870 C   0  0  0  0  0  1  0  0  0  0  0  0
  196.4320  173.2730  144.6960 C   0  0  1  0  0  3  0  0  0  0  0  0
  192.7060  172.7030  144.7630 C   0  0  2  0  0  3  0  0  0  0  0  0
  194.1060  172.2440  145.2110 C   0  0  0  0  0  2  0  0  0  0  0  0
  195.1440  172.6680  144.2150 C   0  0  0  0  0  0  0  0  0  0  0  0
  191.9460  171.5720  144.2380 C   0  0  0  0  0  2  0  0  0  0  0  0
  194.8690  172.5210  142.9140 C   0  0  0  0  0  3  0  0  0  0  0  0
  193.5410  171.9340  142.5420 C   0  0  0  0  0  2  0  0  0  0  0  0
  192.4550  172.5810  143.2920 N   0  0  2  0  0  0  0  0  0  0  0  0
  2  4  2  0  0  0  0
  3 18  1  0  0  0  0
  3  1  2  0  0  0  0
  4  1  1  0  0  0  0
  5  3  1  0  0  0  0
  6  5  2  0  0  0  0
  6  2  1  0  0  0  0
  7 11  1  0  0  0  0
  8 11  1  0  0  0  0
  9  8  2  0  0  0  0
 10  9  1  0  0  0  0
 10  7  2  0  0  0  0
 11  5  1  1  0  0  0
 12  9  1  0  0  0  0
 13 14  1  0  0  0  0
 13 12  1  0  0  0  0
 14 15  1  0  0  0  0
 15 16  1  0  0  0  0
 17 15  2  0  0  0  0
 18 22  1  0  0  0  0
 19 24  1  0  0  0  0
 20 19  2  0  0  0  0
 21 20  1  0  0  0  0
 21 22  2  0  0  0  0
 22 23  1  0  0  0  0
 23 24  2  0  0  0  0
 25  2  1  0  0  0  0
 25 26  1  0  0  0  0
 27 26  1  0  0  0  0
 27 29  1  0  0  0  0
 28 32  1  0  0  0  0
 28 29  1  0  0  0  0
 30 28  2  0  0  0  0
 32 31  1  1  0  0  0
 33 36  1  1  0  0  0
 33 34  1  0  0  0  0
 35 32  1  0  0  0  0
 35 34  1  0  0  0  0
 37 35  2  0  0  0  0
 38 37  1  0  0  0  0
 39 38  1  6  0  0  0
 39 36  1  0  0  0  0
 39 33  1  0  0  0  0
M  END
>  <MODEL>
6

>  <REMARK>
 VINA RESULT:      -6.3      2.661      5.394
  Name = 
  13 active torsions:
  status: ('A' for Active; 'I' for Inactive)
    1  A    between atoms: C_6  and  C_33
    2  A    between atoms: C_7  and  C_31
    3  A    between atoms: C_8  and  C_22
    4  A    between atoms: C_11  and  N_35
    5  A    between atoms: C_13  and  C_31
    6  A    between atoms: N_15  and  C_16
    7  A    between atoms: N_15  and  C_21
    8  A    between atoms: C_18  and  N_25
    9  A    between atoms: C_18  and  C_34
   10  A    between atoms: C_20  and  C_23
   11  A    between atoms: C_22  and  C_34
   12  A    between atoms: C_29  and  C_33
   13  A    between atoms: C_29  and  N_35
                            x       y       z     vdW  Elec       q    Type
                         _______ _______ _______ _____ _____    ______ ____

>  <TORSDO>
F 13

$$$$
=
 OpenBabel11042417323D

 39 43  0  0  1  0  0  0  0  0999 V2000
  188.9410  178.2820  142.0120 C   0  0  0  0  0  3  0  0  0  0  0  0
  190.5070  176.7230  142.9960 C   0  0  0  0  0  0  0  0  0  0  0  0
  188.2050  177.2240  141.4580 C   0  0  0  0  0  0  0  0  0  0  0  0
  190.0840  178.0360  142.7750 C   0  0  0  0  0  3  0  0  0  0  0  0
  188.6380  175.9000  141.6740 C   0  0  0  0  0  0  0  0  0  0  0  0
  189.7890  175.6600  142.4430 C   0  0  0  0  0  3  0  0  0  0  0  0
  187.8320  173.6160  141.9970 N   0  0  0  0  0  0  0  0  0  0  0  0
  188.5540  174.2060  139.8580 C   0  0  0  0  0  3  0  0  0  0  0  0
  188.8090  172.9350  140.1020 C   0  0  0  0  0  0  0  0  0  0  0  0
  188.3590  172.5810  141.4340 C   0  0  0  0  0  3  0  0  0  0  0  0
  187.8730  174.7500  141.0780 C   0  0  2  0  0  3  0  0  0  0  0  0
  189.4570  172.0610  139.1800 N   0  0  0  0  0  2  0  0  0  0  0  0
  190.9050  172.0300  139.0380 C   0  0  0  0  0  2  0  0  0  0  0  0
  191.3400  172.9280  137.8920 C   0  0  0  0  0  2  0  0  0  0  0  0
  190.5300  172.6750  136.6650 C   0  0  0  0  0  0  0  0  0  0  0  0
  189.5930  173.6070  136.2340 O   0  0  0  0  0  1  0  0  0  0  0  0
  190.6750  171.5970  136.0310 O   0  0  0  0  0  0  0  0  0  0  0  0
  187.0260  177.4600  140.6680 N   0  0  0  0  0  2  0  0  0  0  0  0
  183.1150  178.2890  141.9070 N   0  0  0  0  0  0  0  0  0  0  0  0
  183.4170  178.3350  140.5830 C   0  0  0  0  0  3  0  0  0  0  0  0
  184.7180  178.0610  140.1660 C   0  0  0  0  0  3  0  0  0  0  0  0
  185.6910  177.7470  141.1130 C   0  0  0  0  0  0  0  0  0  0  0  0
  185.3240  177.7150  142.4630 C   0  0  0  0  0  3  0  0  0  0  0  0
  184.0410  177.9880  142.8200 N   0  0  0  0  0  0  0  0  0  0  0  0
  191.7330  176.4580  143.7980 C   0  0  0  0  0  2  0  0  0  0  0  0
  192.1300  175.0000  143.6750 C   0  0  0  0  0  2  0  0  0  0  0  0
  192.1580  174.3640  145.0490 C   0  0  0  0  0  2  0  0  0  0  0  0
  190.1100  175.1100  146.3340 C   0  0  0  0  0  0  0  0  0  0  0  0
  191.4990  175.2340  146.0120 N   0  0  0  0  0  2  0  0  0  0  0  0
  189.4160  174.1930  145.8190 O   0  0  0  0  0  0  0  0  0  0  0  0
  190.4260  177.1740  147.7010 C   0  0  0  0  0  1  0  0  0  0  0  0
  189.4580  176.0840  147.2650 C   0  0  1  0  0  3  0  0  0  0  0  0
  185.9770  177.5210  147.4410 C   0  0  2  0  0  3  0  0  0  0  0  0
  186.8700  176.2780  147.2750 C   0  0  0  0  0  2  0  0  0  0  0  0
  188.1960  176.6560  146.6850 C   0  0  0  0  0  0  0  0  0  0  0  0
  184.9470  177.5470  146.4070 C   0  0  0  0  0  2  0  0  0  0  0  0
  188.2110  177.5270  145.6690 C   0  0  0  0  0  3  0  0  0  0  0  0
  186.8960  178.0600  145.1860 C   0  0  0  0  0  2  0  0  0  0  0  0
  186.0650  178.5020  146.3150 N   0  0  2  0  0  0  0  0  0  0  0  0
  1  4  1  0  0  0  0
  2 25  1  0  0  0  0
  3  5  1  0  0  0  0
  3  1  2  0  0  0  0
  4  2  2  0  0  0  0
  5  6  2  0  0  0  0
  6  2  1  0  0  0  0
  8  9  2  0  0  0  0
  8 11  1  0  0  0  0
  9 10  1  0  0  0  0
 10  7  2  0  0  0  0
 11  5  1  1  0  0  0
 11  7  1  0  0  0  0
 12  9  1  0  0  0  0
 13 12  1  0  0  0  0
 14 13  1  0  0  0  0
 15 14  1  0  0  0  0
 16 15  1  0  0  0  0
 17 15  2  0  0  0  0
 18 22  1  0  0  0  0
 18  3  1  0  0  0  0
 19 24  1  0  0  0  0
 20 19  2  0  0  0  0
 21 20  1  0  0  0  0
 21 22  2  0  0  0  0
 22 23  1  0  0  0  0
 23 24  2  0  0  0  0
 26 25  1  0  0  0  0
 26 27  1  0  0  0  0
 27 29  1  0  0  0  0
 28 32  1  0  0  0  0
 29 28  1  0  0  0  0
 30 28  2  0  0  0  0
 32 31  1  6  0  0  0
 33 36  1  6  0  0  0
 34 33  1  0  0  0  0
 35 32  1  0  0  0  0
 35 34  1  0  0  0  0
 37 35  2  0  0  0  0
 38 37  1  0  0  0  0
 39 38  1  6  0  0  0
 39 36  1  0  0  0  0
 39 33  1  0  0  0  0
M  END
>  <MODEL>
7

>  <REMARK>
 VINA RESULT:      -6.2      2.963      7.254
  Name = 
  13 active torsions:
  status: ('A' for Active; 'I' for Inactive)
    1  A    between atoms: C_6  and  C_33
    2  A    between atoms: C_7  and  C_31
    3  A    between atoms: C_8  and  C_22
    4  A    between atoms: C_11  and  N_35
    5  A    between atoms: C_13  and  C_31
    6  A    between atoms: N_15  and  C_16
    7  A    between atoms: N_15  and  C_21
    8  A    between atoms: C_18  and  N_25
    9  A    between atoms: C_18  and  C_34
   10  A    between atoms: C_20  and  C_23
   11  A    between atoms: C_22  and  C_34
   12  A    between atoms: C_29  and  C_33
   13  A    between atoms: C_29  and  N_35
                            x       y       z     vdW  Elec       q    Type
                         _______ _______ _______ _____ _____    ______ ____

>  <TORSDO>
F 13

$$$$
=
 OpenBabel11042417323D

 39 43  0  0  1  0  0  0  0  0999 V2000
  189.7120  172.9770  143.7480 C   0  0  0  0  0  3  0  0  0  0  0  0
  189.6160  174.9350  145.1640 C   0  0  0  0  0  0  0  0  0  0  0  0
  188.8470  173.5800  142.8220 C   0  0  0  0  0  0  0  0  0  0  0  0
  190.0940  173.6470  144.9110 C   0  0  0  0  0  3  0  0  0  0  0  0
  188.3570  174.8750  143.0830 C   0  0  0  0  0  0  0  0  0  0  0  0
  188.7470  175.5430  144.2570 C   0  0  0  0  0  3  0  0  0  0  0  0
  188.1170  176.5250  141.2970 N   0  0  0  0  0  0  0  0  0  0  0  0
  186.3600  176.3300  142.8210 C   0  0  0  0  0  3  0  0  0  0  0  0
  186.4770  177.5750  142.4010 C   0  0  0  0  0  0  0  0  0  0  0  0
  187.5720  177.6850  141.4580 C   0  0  0  0  0  3  0  0  0  0  0  0
  187.4180  175.5360  142.1130 C   0  0  2  0  0  3  0  0  0  0  0  0
  185.6460  178.6460  142.8440 N   0  0  0  0  0  2  0  0  0  0  0  0
  184.6450  178.4630  143.8830 C   0  0  0  0  0  2  0  0  0  0  0  0
  185.1410  179.0400  145.1990 C   0  0  0  0  0  2  0  0  0  0  0  0
  184.9660  178.0690  146.3190 C   0  0  0  0  0  0  0  0  0  0  0  0
  184.6900  178.5190  147.6050 O   0  0  0  0  0  1  0  0  0  0  0  0
  185.0980  176.8360  146.1030 O   0  0  0  0  0  0  0  0  0  0  0  0
  188.4400  172.9020  141.6200 N   0  0  0  0  0  2  0  0  0  0  0  0
  190.0740  173.2640  137.7820 N   0  0  0  0  0  0  0  0  0  0  0  0
  190.8640  173.4880  138.8660 C   0  0  0  0  0  3  0  0  0  0  0  0
  190.3240  173.3710  140.1440 C   0  0  0  0  0  3  0  0  0  0  0  0
  188.9810  173.0280  140.2940 C   0  0  0  0  0  0  0  0  0  0  0  0
  188.2150  172.8090  139.1440 C   0  0  0  0  0  3  0  0  0  0  0  0
  188.7880  172.9340  137.9180 N   0  0  0  0  0  0  0  0  0  0  0  0
  190.0120  175.6460  146.4100 C   0  0  0  0  0  2  0  0  0  0  0  0
  191.5210  175.7890  146.4700 C   0  0  0  0  0  2  0  0  0  0  0  0
  191.9770  176.7900  145.4290 C   0  0  0  0  0  2  0  0  0  0  0  0
  194.3510  176.4040  144.6430 C   0  0  0  0  0  0  0  0  0  0  0  0
  192.9430  176.1700  144.5350 N   0  0  0  0  0  2  0  0  0  0  0  0
  194.8070  177.1320  145.5650 O   0  0  0  0  0  0  0  0  0  0  0  0
  196.5230  176.6910  143.4480 C   0  0  0  0  0  1  0  0  0  0  0  0
  195.2970  175.8120  143.6460 C   0  0  1  0  0  3  0  0  0  0  0  0
  196.5730  173.0980  145.9320 C   0  0  2  0  0  3  0  0  0  0  0  0
  196.8830  174.1430  144.8440 C   0  0  0  0  0  2  0  0  0  0  0  0
  195.6720  174.4000  143.9980 C   0  0  0  0  0  0  0  0  0  0  0  0
  197.1600  171.8090  145.5790 C   0  0  0  0  0  2  0  0  0  0  0  0
  194.9380  173.3510  143.6100 C   0  0  0  0  0  3  0  0  0  0  0  0
  195.3840  171.9870  144.0410 C   0  0  0  0  0  2  0  0  0  0  0  0
  195.7000  171.9710  145.4770 N   0  0  2  0  0  0  0  0  0  0  0  0
  1  4  1  0  0  0  0
  2 25  1  0  0  0  0
  3  5  1  0  0  0  0
  3  1  2  0  0  0  0
  4  2  2  0  0  0  0
  5  6  2  0  0  0  0
  6  2  1  0  0  0  0
  7 10  2  0  0  0  0
  7 11  1  0  0  0  0
  9  8  2  0  0  0  0
  9 12  1  0  0  0  0
 10  9  1  0  0  0  0
 11  8  1  0  0  0  0
 11  5  1  1  0  0  0
 12 13  1  0  0  0  0
 13 14  1  0  0  0  0
 14 15  1  0  0  0  0
 15 16  1  0  0  0  0
 17 15  2  0  0  0  0
 18  3  1  0  0  0  0
 19 24  2  0  0  0  0
 19 20  1  0  0  0  0
 20 21  2  0  0  0  0
 21 22  1  0  0  0  0
 22 18  1  0  0  0  0
 23 22  2  0  0  0  0
 24 23  1  0  0  0  0
 25 26  1  0  0  0  0
 27 26  1  0  0  0  0
 28 30  2  0  0  0  0
 29 28  1  0  0  0  0
 29 27  1  0  0  0  0
 32 31  1  1  0  0  0
 32 35  1  0  0  0  0
 32 28  1  0  0  0  0
 33 34  1  6  0  0  0
 35 34  1  0  0  0  0
 36 33  1  0  0  0  0
 37 35  2  0  0  0  0
 37 38  1  0  0  0  0
 39 38  1  6  0  0  0
 39 36  1  0  0  0  0
 39 33  1  0  0  0  0
M  END
>  <MODEL>
8

>  <REMARK>
 VINA RESULT:      -6.1      1.636      2.034
  Name = 
  13 active torsions:
  status: ('A' for Active; 'I' for Inactive)
    1  A    between atoms: C_6  and  C_33
    2  A    between atoms: C_7  and  C_31
    3  A    between atoms: C_8  and  C_22
    4  A    between atoms: C_11  and  N_35
    5  A    between atoms: C_13  and  C_31
    6  A    between atoms: N_15  and  C_16
    7  A    between atoms: N_15  and  C_21
    8  A    between atoms: C_18  and  N_25
    9  A    between atoms: C_18  and  C_34
   10  A    between atoms: C_20  and  C_23
   11  A    between atoms: C_22  and  C_34
   12  A    between atoms: C_29  and  C_33
   13  A    between atoms: C_29  and  N_35
                            x       y       z     vdW  Elec       q    Type
                         _______ _______ _______ _____ _____    ______ ____

>  <TORSDO>
F 13

$$$$
=
 OpenBabel11042417323D

 39 43  0  0  1  0  0  0  0  0999 V2000
  188.9520  178.2640  142.0650 C   0  0  0  0  0  3  0  0  0  0  0  0
  190.6860  176.8670  143.0080 C   0  0  0  0  0  0  0  0  0  0  0  0
  188.3220  177.1410  141.5090 C   0  0  0  0  0  0  0  0  0  0  0  0
  190.1260  178.1300  142.8080 C   0  0  0  0  0  3  0  0  0  0  0  0
  188.8930  175.8670  141.7030 C   0  0  0  0  0  0  0  0  0  0  0  0
  190.0750  175.7410  142.4530 C   0  0  0  0  0  3  0  0  0  0  0  0
  187.8000  173.7270  142.1470 N   0  0  0  0  0  0  0  0  0  0  0  0
  189.2160  173.8450  140.2950 C   0  0  0  0  0  3  0  0  0  0  0  0
  189.2510  172.6410  140.8330 C   0  0  0  0  0  0  0  0  0  0  0  0
  188.3710  172.5810  141.9830 C   0  0  0  0  0  3  0  0  0  0  0  0
  188.2430  174.6500  141.1050 C   0  0  2  0  0  3  0  0  0  0  0  0
  190.0660  171.5760  140.3470 N   0  0  0  0  0  2  0  0  0  0  0  0
  190.9100  170.7890  141.2330 C   0  0  0  0  0  2  0  0  0  0  0  0
  191.7290  171.7040  142.1280 C   0  0  0  0  0  2  0  0  0  0  0  0
  192.7130  170.9320  142.9420 C   0  0  0  0  0  0  0  0  0  0  0  0
  192.8550  171.1820  144.3020 O   0  0  0  0  0  1  0  0  0  0  0  0
  193.4390  170.0660  142.3870 O   0  0  0  0  0  0  0  0  0  0  0  0
  187.1130  177.2600  140.7370 N   0  0  0  0  0  2  0  0  0  0  0  0
  183.2880  178.2660  142.1100 N   0  0  0  0  0  0  0  0  0  0  0  0
  184.2490  177.9250  143.0080 C   0  0  0  0  0  3  0  0  0  0  0  0
  185.5230  177.5870  142.5560 C   0  0  0  0  0  3  0  0  0  0  0  0
  185.7930  177.6020  141.1880 C   0  0  0  0  0  0  0  0  0  0  0  0
  184.7660  177.9610  140.3090 C   0  0  0  0  0  3  0  0  0  0  0  0
  183.5400  178.2840  140.7990 N   0  0  0  0  0  0  0  0  0  0  0  0
  191.9450  176.7240  143.7900 C   0  0  0  0  0  2  0  0  0  0  0  0
  192.5220  175.3350  143.5960 C   0  0  0  0  0  2  0  0  0  0  0  0
  192.6390  174.6420  144.9380 C   0  0  0  0  0  2  0  0  0  0  0  0
  190.5660  175.1490  146.2960 C   0  0  0  0  0  0  0  0  0  0  0  0
  191.9320  175.4060  145.9540 N   0  0  0  0  0  2  0  0  0  0  0  0
  189.9400  174.2010  145.7500 O   0  0  0  0  0  0  0  0  0  0  0  0
  190.7590  177.1270  147.8040 C   0  0  0  0  0  1  0  0  0  0  0  0
  189.8560  176.0180  147.2860 C   0  0  1  0  0  3  0  0  0  0  0  0
  186.2860  177.2080  147.5240 C   0  0  2  0  0  3  0  0  0  0  0  0
  187.2610  176.0450  147.2640 C   0  0  0  0  0  2  0  0  0  0  0  0
  188.5670  176.5580  146.7350 C   0  0  0  0  0  0  0  0  0  0  0  0
  185.2710  177.2620  146.4770 C   0  0  0  0  0  2  0  0  0  0  0  0
  188.5380  177.5170  145.8010 C   0  0  0  0  0  3  0  0  0  0  0  0
  187.1980  178.0060  145.3430 C   0  0  0  0  0  2  0  0  0  0  0  0
  186.3240  178.2910  146.4910 N   0  0  2  0  0  0  0  0  0  0  0  0
  1  4  1  0  0  0  0
  2 25  1  0  0  0  0
  3  5  1  0  0  0  0
  3  1  2  0  0  0  0
  4  2  2  0  0  0  0
  5  6  2  0  0  0  0
  6  2  1  0  0  0  0
  8  9  2  0  0  0  0
  8 11  1  0  0  0  0
  9 10  1  0  0  0  0
 10  7  2  0  0  0  0
 11  5  1  1  0  0  0
 11  7  1  0  0  0  0
 12  9  1  0  0  0  0
 12 13  1  0  0  0  0
 13 14  1  0  0  0  0
 14 15  1  0  0  0  0
 15 16  1  0  0  0  0
 17 15  2  0  0  0  0
 18 22  1  0  0  0  0
 18  3  1  0  0  0  0
 19 20  1  0  0  0  0
 21 20  2  0  0  0  0
 22 21  1  0  0  0  0
 23 24  1  0  0  0  0
 23 22  2  0  0  0  0
 24 19  2  0  0  0  0
 26 25  1  0  0  0  0
 26 27  1  0  0  0  0
 27 29  1  0  0  0  0
 28 32  1  0  0  0  0
 29 28  1  0  0  0  0
 30 28  2  0  0  0  0
 32 31  1  6  0  0  0
 33 36  1  6  0  0  0
 34 33  1  0  0  0  0
 35 34  1  0  0  0  0
 35 32  1  0  0  0  0
 36 39  1  0  0  0  0
 37 35  2  0  0  0  0
 38 37  1  0  0  0  0
 39 38  1  6  0  0  0
 39 33  1  0  0  0  0
M  END
>  <MODEL>
9

>  <REMARK>
 VINA RESULT:      -6.1      2.477      6.921
  Name = 
  13 active torsions:
  status: ('A' for Active; 'I' for Inactive)
    1  A    between atoms: C_6  and  C_33
    2  A    between atoms: C_7  and  C_31
    3  A    between atoms: C_8  and  C_22
    4  A    between atoms: C_11  and  N_35
    5  A    between atoms: C_13  and  C_31
    6  A    between atoms: N_15  and  C_16
    7  A    between atoms: N_15  and  C_21
    8  A    between atoms: C_18  and  N_25
    9  A    between atoms: C_18  and  C_34
   10  A    between atoms: C_20  and  C_23
   11  A    between atoms: C_22  and  C_34
   12  A    between atoms: C_29  and  C_33
   13  A    between atoms: C_29  and  N_35
                            x       y       z     vdW  Elec       q    Type
                         _______ _______ _______ _____ _____    ______ ____

>  <TORSDO>
F 13

$$$$
