=
 OpenBabel11042418353D

 37 41  0  0  1  0  0  0  0  0999 V2000
  191.8060  173.5870  139.6820 C   0  0  0  0  0  2  0  0  0  0  0  0
  190.8070  170.3670  139.6950 C   0  0  0  0  0  2  0  0  0  0  0  0
  188.1110  177.9190  144.2440 C   0  0  0  0  0  2  0  0  0  0  0  0
  193.2550  171.6060  139.0730 C   0  0  0  0  0  2  0  0  0  0  0  0
  187.4280  176.5530  144.2850 C   0  0  2  0  0  3  0  0  0  0  0  0
  190.4460  176.9790  143.9350 C   0  0  0  0  0  2  0  0  0  0  0  0
  189.9320  171.5680  142.2300 C   0  0  0  0  0  1  0  0  0  0  0  0
  192.2760  171.2130  137.9590 C   0  0  0  0  0  2  0  0  0  0  0  0
  187.8130  173.1710  141.5150 O   0  0  0  0  0  1  0  0  0  0  0  0
  189.0940  174.9340  143.2010 C   0  0  1  0  0  3  0  0  0  0  0  0
  190.1070  175.5190  144.2020 C   0  0  1  0  0  3  0  0  0  0  0  0
  189.0540  173.5720  141.0050 C   0  0  1  0  0  3  0  0  0  0  0  0
  189.8520  171.5600  139.7280 C   0  0  0  0  0  2  0  0  0  0  0  0
  191.8300  174.0870  143.1820 C   0  0  0  0  0  3  0  0  0  0  0  0
  187.8190  175.7730  143.0370 C   0  0  0  0  0  2  0  0  0  0  0  0
  191.4050  173.0960  141.0070 N   0  0  1  0  0  0  0  0  0  0  0  0
  189.5380  177.8640  144.7800 C   0  0  0  0  0  2  0  0  0  0  0  0
  191.3360  174.6570  144.2840 C   0  0  0  0  0  0  0  0  0  0  0  0
  189.7240  174.6820  141.8110 C   0  0  2  0  0  3  0  0  0  0  0  0
  191.3390  170.1460  138.3500 N   0  0  0  0  0  0  0  0  0  0  0  0
  193.2100  173.1090  139.3220 C   0  0  0  0  0  2  0  0  0  0  0  0
  191.2240  174.3030  141.8180 C   0  0  1  0  0  3  0  0  0  0  0  0
  190.0770  172.4410  140.9750 C   0  0  2  0  0  0  0  0  0  0  0  0
  191.3940  175.1480  146.7360 C   0  0  0  0  0  0  0  0  0  0  0  0
  192.2320  176.2180  147.3360 C   0  0  0  0  0  2  0  0  0  0  0  0
  193.4760  176.2160  146.5340 C   0  0  0  0  0  0  0  0  0  0  0  0
  189.0100  174.7690  147.5410 O   0  0  0  0  0  0  0  0  0  0  0  0
  194.2360  177.1730  146.5240 O   0  0  0  0  0  0  0  0  0  0  0  0
  190.1720  174.9440  147.1480 C   0  0  0  0  0  0  0  0  0  0  0  0
  191.9950  174.3640  145.6040 C   0  0  2  0  0  3  0  0  0  0  0  0
  193.7730  174.7750  145.5160 S   0  0  0  0  0  0  0  0  0  0  0  0
  192.0690  168.8870  138.3720 C   0  0  0  0  0  2  0  0  0  0  0  0
  191.8100  168.1670  139.6740 C   0  0  0  0  0  1  0  0  0  0  0  0
  185.9210  176.7350  144.2980 C   0  0  0  0  0  2  0  0  0  0  0  0
  185.4540  177.1410  145.6520 C   0  0  0  0  0  0  0  0  0  0  0  0
  185.9760  176.6280  146.6770 O   0  0  0  0  0  0  0  0  0  0  0  0
  184.4420  178.1330  145.7900 N   0  0  0  0  0  1  0  0  0  0  0  0
  2 13  1  0  0  0  0
  3  5  1  0  0  0  0
  3 17  1  0  0  0  0
  4 21  1  0  0  0  0
  5 34  1  6  0  0  0
  6 17  1  0  0  0  0
  8 20  1  0  0  0  0
  8  4  1  0  0  0  0
 10 15  1  6  0  0  0
 10 11  1  0  0  0  0
 11  6  1  6  0  0  0
 11 18  1  0  0  0  0
 12  9  1  1  0  0  0
 12 19  1  0  0  0  0
 13 23  1  0  0  0  0
 14 18  2  0  0  0  0
 15  5  1  0  0  0  0
 16  1  1  6  0  0  0
 16 22  1  0  0  0  0
 18 30  1  0  0  0  0
 19 22  1  0  0  0  0
 19 10  1  0  0  0  0
 20 32  1  0  0  0  0
 20  2  1  0  0  0  0
 21  1  1  0  0  0  0
 22 14  1  0  0  0  0
 23 12  1  0  0  0  0
 23 16  1  0  0  0  0
 23  7  1  0  0  0  0
 24 29  2  0  0  0  0
 24 25  1  0  0  0  0
 26 25  1  0  0  0  0
 28 26  2  0  0  0  0
 29 27  2  0  0  0  0
 30 24  1  0  0  0  0
 31 30  1  0  0  0  0
 31 26  1  0  0  0  0
 32 33  1  0  0  0  0
 34 35  1  0  0  0  0
 35 37  1  0  0  0  0
 35 36  2  0  0  0  0
M  END
>  <MODEL>
1

>  <REMARK>
 VINA RESULT:      -8.2      0.000      0.000
  Name = 
  4 active torsions:
  status: ('A' for Active; 'I' for Inactive)
    1  A    between atoms: C_6  and  C_16
    2  A    between atoms: C_7  and  C_16
    3  A    between atoms: C_8  and  N_32
    4  A    between atoms: C_30  and  C_33
                            x       y       z     vdW  Elec       q    Type
                         _______ _______ _______ _____ _____    ______ ____

>  <TORSDO>
F 4

$$$$
=
 OpenBabel11042418353D

 37 41  0  0  1  0  0  0  0  0999 V2000
  189.1770  177.8650  143.7850 C   0  0  0  0  0  2  0  0  0  0  0  0
  187.4030  176.3340  146.2100 C   0  0  0  0  0  2  0  0  0  0  0  0
  195.9860  175.3710  142.9840 C   0  0  0  0  0  2  0  0  0  0  0  0
  186.6560  177.6660  143.8470 C   0  0  0  0  0  2  0  0  0  0  0  0
  195.4010  174.6660  144.2060 C   0  0  2  0  0  3  0  0  0  0  0  0
  193.7930  175.4480  141.7130 C   0  0  0  0  0  2  0  0  0  0  0  0
  189.5880  174.5250  145.4440 C   0  0  0  0  0  1  0  0  0  0  0  0
  186.6170  178.3940  145.1970 C   0  0  0  0  0  2  0  0  0  0  0  0
  191.8300  175.6750  146.5490 O   0  0  0  0  0  1  0  0  0  0  0  0
  192.8730  175.0710  144.0710 C   0  0  1  0  0  3  0  0  0  0  0  0
  193.0000  174.5310  142.6350 C   0  0  1  0  0  3  0  0  0  0  0  0
  191.2240  176.4220  145.5320 C   0  0  1  0  0  3  0  0  0  0  0  0
  188.8700  176.7450  146.3490 C   0  0  0  0  0  2  0  0  0  0  0  0
  190.5950  174.9670  142.3380 C   0  0  0  0  0  3  0  0  0  0  0  0
  194.2100  175.4710  144.7110 C   0  0  0  0  0  2  0  0  0  0  0  0
  189.4580  176.4290  143.9080 N   0  0  1  0  0  0  0  0  0  0  0  0
  195.2500  175.0020  141.6990 C   0  0  0  0  0  2  0  0  0  0  0  0
  191.6490  174.1910  142.0710 C   0  0  0  0  0  0  0  0  0  0  0  0
  191.8850  176.2580  144.1660 C   0  0  2  0  0  3  0  0  0  0  0  0
  186.5110  177.4850  146.3510 N   0  0  0  0  0  0  0  0  0  0  0  0
  187.8680  178.1050  143.0350 C   0  0  0  0  0  2  0  0  0  0  0  0
  190.7040  176.2230  143.1660 C   0  0  1  0  0  3  0  0  0  0  0  0
  189.7640  176.0430  145.3050 C   0  0  2  0  0  0  0  0  0  0  0  0
  191.3490  173.2290  139.7820 C   0  0  0  0  0  0  0  0  0  0  0  0
  190.0220  173.0480  139.1380 C   0  0  0  0  0  2  0  0  0  0  0  0
  189.1150  172.6690  140.2450 C   0  0  0  0  0  0  0  0  0  0  0  0
  193.3310  174.0900  138.4390 O   0  0  0  0  0  0  0  0  0  0  0  0
  187.9010  172.7740  140.1460 O   0  0  0  0  0  0  0  0  0  0  0  0
  192.3720  173.6650  139.0980 C   0  0  0  0  0  0  0  0  0  0  0  0
  191.4370  172.9450  141.2540 C   0  0  2  0  0  3  0  0  0  0  0  0
  189.8860  172.1250  141.7640 S   0  0  0  0  0  0  0  0  0  0  0  0
  185.1490  176.9760  146.4050 C   0  0  0  0  0  2  0  0  0  0  0  0
  184.1730  178.1260  146.4650 C   0  0  0  0  0  1  0  0  0  0  0  0
  196.4460  174.5960  145.3050 C   0  0  0  0  0  2  0  0  0  0  0  0
  197.0640  173.2410  145.3530 C   0  0  0  0  0  0  0  0  0  0  0  0
  196.7880  172.4580  146.2990 O   0  0  0  0  0  0  0  0  0  0  0  0
  197.9400  172.8200  144.3130 N   0  0  0  0  0  1  0  0  0  0  0  0
  2 13  1  0  0  0  0
  2 20  1  0  0  0  0
  3  5  1  0  0  0  0
  4  8  1  0  0  0  0
  5 15  1  0  0  0  0
  5 34  1  1  0  0  0
  8 20  1  0  0  0  0
 10 19  1  0  0  0  0
 10 15  1  6  0  0  0
 11  6  1  6  0  0  0
 11 10  1  0  0  0  0
 12  9  1  1  0  0  0
 14 22  1  0  0  0  0
 16  1  1  1  0  0  0
 16 23  1  0  0  0  0
 17  6  1  0  0  0  0
 17  3  1  0  0  0  0
 18 14  2  0  0  0  0
 18 11  1  0  0  0  0
 19 12  1  0  0  0  0
 20 32  1  0  0  0  0
 21  1  1  0  0  0  0
 21  4  1  0  0  0  0
 22 16  1  0  0  0  0
 22 19  1  0  0  0  0
 23  7  1  0  0  0  0
 23 12  1  0  0  0  0
 23 13  1  0  0  0  0
 24 30  1  0  0  0  0
 25 24  1  0  0  0  0
 25 26  1  0  0  0  0
 26 31  1  0  0  0  0
 27 29  2  0  0  0  0
 28 26  2  0  0  0  0
 29 24  2  0  0  0  0
 30 31  1  0  0  0  0
 30 18  1  0  0  0  0
 32 33  1  0  0  0  0
 34 35  1  0  0  0  0
 35 36  2  0  0  0  0
 37 35  1  0  0  0  0
M  END
>  <MODEL>
2

>  <REMARK>
 VINA RESULT:      -8.0      3.004      8.448
  Name = 
  4 active torsions:
  status: ('A' for Active; 'I' for Inactive)
    1  A    between atoms: C_6  and  C_16
    2  A    between atoms: C_7  and  C_16
    3  A    between atoms: C_8  and  N_32
    4  A    between atoms: C_30  and  C_33
                            x       y       z     vdW  Elec       q    Type
                         _______ _______ _______ _____ _____    ______ ____

>  <TORSDO>
F 4

$$$$
=
 OpenBabel11042418353D

 37 41  0  0  1  0  0  0  0  0999 V2000
  188.7800  177.8060  143.2970 C   0  0  0  0  0  2  0  0  0  0  0  0
  187.1920  176.7880  146.0930 C   0  0  0  0  0  2  0  0  0  0  0  0
  195.5360  175.1630  142.5240 C   0  0  0  0  0  2  0  0  0  0  0  0
  186.2710  177.6380  143.5740 C   0  0  0  0  0  2  0  0  0  0  0  0
  195.0430  174.7140  143.8980 C   0  0  2  0  0  3  0  0  0  0  0  0
  193.2590  175.0040  141.4190 C   0  0  0  0  0  2  0  0  0  0  0  0
  189.3320  174.8510  145.5430 C   0  0  0  0  0  1  0  0  0  0  0  0
  186.3210  178.6160  144.7550 C   0  0  0  0  0  2  0  0  0  0  0  0
  191.6370  176.1820  146.2430 O   0  0  0  0  0  1  0  0  0  0  0  0
  192.5080  175.1000  143.8650 C   0  0  1  0  0  3  0  0  0  0  0  0
  192.5390  174.2890  142.5560 C   0  0  1  0  0  3  0  0  0  0  0  0
  190.9550  176.7200  145.1450 C   0  0  1  0  0  3  0  0  0  0  0  0
  188.6610  177.2100  146.0470 C   0  0  0  0  0  2  0  0  0  0  0  0
  190.1160  174.6730  142.3480 C   0  0  0  0  0  3  0  0  0  0  0  0
  193.8840  175.6080  144.3180 C   0  0  0  0  0  2  0  0  0  0  0  0
  189.0800  176.4200  143.6790 N   0  0  1  0  0  0  0  0  0  0  0  0
  194.7150  174.5550  141.3910 C   0  0  0  0  0  2  0  0  0  0  0  0
  191.1540  173.8540  142.1650 C   0  0  0  0  0  0  0  0  0  0  0  0
  191.5210  176.2880  143.7950 C   0  0  2  0  0  3  0  0  0  0  0  0
  186.3030  177.9510  146.0690 N   0  0  0  0  0  0  0  0  0  0  0  0
  187.4200  177.9030  142.6090 C   0  0  0  0  0  2  0  0  0  0  0  0
  190.2730  176.0650  142.9060 C   0  0  1  0  0  3  0  0  0  0  0  0
  189.4860  176.3130  145.0990 C   0  0  2  0  0  0  0  0  0  0  0  0
  192.0000  171.5100  141.9510 C   0  0  0  0  0  0  0  0  0  0  0  0
  192.8470  171.0450  140.8220 C   0  0  0  0  0  2  0  0  0  0  0  0
  192.3350  171.7780  139.6410 C   0  0  0  0  0  0  0  0  0  0  0  0
  192.5030  170.7700  144.3330 O   0  0  0  0  0  0  0  0  0  0  0  0
  193.0000  171.9020  138.6230 O   0  0  0  0  0  0  0  0  0  0  0  0
  192.2490  171.1290  143.1750 C   0  0  0  0  0  0  0  0  0  0  0  0
  190.8960  172.4740  141.6240 C   0  0  2  0  0  3  0  0  0  0  0  0
  190.7260  172.5410  139.8060 S   0  0  0  0  0  0  0  0  0  0  0  0
  184.9520  177.4700  146.3170 C   0  0  0  0  0  2  0  0  0  0  0  0
  183.9640  178.5970  146.1320 C   0  0  0  0  0  1  0  0  0  0  0  0
  196.1630  174.8530  144.9140 C   0  0  0  0  0  2  0  0  0  0  0  0
  196.3190  173.5940  145.6950 C   0  0  0  0  0  0  0  0  0  0  0  0
  197.1970  173.5180  146.5950 O   0  0  0  0  0  0  0  0  0  0  0  0
  195.4560  172.4900  145.4490 N   0  0  0  0  0  1  0  0  0  0  0  0
  3  5  1  0  0  0  0
  4  8  1  0  0  0  0
  5 15  1  0  0  0  0
  5 34  1  1  0  0  0
  8 20  1  0  0  0  0
 10 15  1  6  0  0  0
 11  6  1  6  0  0  0
 11 10  1  0  0  0  0
 12  9  1  1  0  0  0
 13  2  1  0  0  0  0
 14 22  1  0  0  0  0
 16  1  1  6  0  0  0
 16 23  1  0  0  0  0
 17  6  1  0  0  0  0
 17  3  1  0  0  0  0
 18 14  2  0  0  0  0
 18 11  1  0  0  0  0
 19 10  1  0  0  0  0
 19 12  1  0  0  0  0
 20  2  1  0  0  0  0
 20 32  1  0  0  0  0
 21  1  1  0  0  0  0
 21  4  1  0  0  0  0
 22 16  1  0  0  0  0
 22 19  1  0  0  0  0
 23 12  1  0  0  0  0
 23  7  1  0  0  0  0
 23 13  1  0  0  0  0
 24 29  2  0  0  0  0
 25 24  1  0  0  0  0
 26 31  1  0  0  0  0
 26 25  1  0  0  0  0
 28 26  2  0  0  0  0
 29 27  2  0  0  0  0
 30 24  1  0  0  0  0
 30 18  1  0  0  0  0
 31 30  1  0  0  0  0
 33 32  1  0  0  0  0
 34 35  1  0  0  0  0
 35 36  2  0  0  0  0
 37 35  1  0  0  0  0
M  END
>  <MODEL>
3

>  <REMARK>
 VINA RESULT:      -8.0      3.019      8.108
  Name = 
  4 active torsions:
  status: ('A' for Active; 'I' for Inactive)
    1  A    between atoms: C_6  and  C_16
    2  A    between atoms: C_7  and  C_16
    3  A    between atoms: C_8  and  N_32
    4  A    between atoms: C_30  and  C_33
                            x       y       z     vdW  Elec       q    Type
                         _______ _______ _______ _____ _____    ______ ____

>  <TORSDO>
F 4

$$$$
=
 OpenBabel11042418353D

 37 41  0  0  1  0  0  0  0  0999 V2000
  188.2360  176.0540  145.1780 C   0  0  0  0  0  2  0  0  0  0  0  0
  186.7510  176.6140  142.2030 C   0  0  0  0  0  2  0  0  0  0  0  0
  193.5040  171.0080  145.0260 C   0  0  0  0  0  2  0  0  0  0  0  0
  187.1100  178.2110  144.4910 C   0  0  0  0  0  2  0  0  0  0  0  0
  192.8630  171.0160  143.6400 C   0  0  2  0  0  3  0  0  0  0  0  0
  193.2230  173.5000  145.4040 C   0  0  0  0  0  2  0  0  0  0  0  0
  189.3730  175.4030  141.6620 C   0  0  0  0  0  1  0  0  0  0  0  0
  185.7880  177.4660  144.2610 C   0  0  0  0  0  2  0  0  0  0  0  0
  189.0470  172.7600  142.3540 O   0  0  0  0  0  1  0  0  0  0  0  0
  191.4970  173.1830  143.5410 C   0  0  1  0  0  3  0  0  0  0  0  0
  192.8020  173.8670  143.9870 C   0  0  1  0  0  3  0  0  0  0  0  0
  188.9610  173.6640  143.4200 C   0  0  1  0  0  3  0  0  0  0  0  0
  187.1160  175.2260  142.7310 C   0  0  0  0  0  2  0  0  0  0  0  0
  191.5800  176.0040  144.0320 C   0  0  0  0  0  3  0  0  0  0  0  0
  191.4870  171.6610  143.7410 C   0  0  0  0  0  2  0  0  0  0  0  0
  189.1530  175.9760  144.0330 N   0  0  1  0  0  0  0  0  0  0  0  0
  194.1970  172.3290  145.3470 C   0  0  0  0  0  2  0  0  0  0  0  0
  192.7220  175.3550  143.7860 C   0  0  0  0  0  0  0  0  0  0  0  0
  190.2520  173.7970  144.2230 C   0  0  2  0  0  3  0  0  0  0  0  0
  185.5420  177.1280  142.8480 N   0  0  0  0  0  0  0  0  0  0  0  0
  187.9470  177.5060  145.5500 C   0  0  0  0  0  2  0  0  0  0  0  0
  190.3490  175.3070  144.5520 C   0  0  1  0  0  3  0  0  0  0  0  0
  188.6350  175.0840  142.9690 C   0  0  2  0  0  0  0  0  0  0  0  0
  194.6450  175.3800  142.1880 C   0  0  0  0  0  0  0  0  0  0  0  0
  196.0080  174.9020  142.5400 C   0  0  0  0  0  2  0  0  0  0  0  0
  196.1920  175.3000  143.9550 C   0  0  0  0  0  0  0  0  0  0  0  0
  193.6280  174.8270  139.9230 O   0  0  0  0  0  0  0  0  0  0  0  0
  197.0410  174.7800  144.6630 O   0  0  0  0  0  0  0  0  0  0  0  0
  194.1190  175.1050  141.0250 C   0  0  0  0  0  0  0  0  0  0  0  0
  193.8910  176.1320  143.2470 C   0  0  2  0  0  3  0  0  0  0  0  0
  195.0560  176.5210  144.5990 S   0  0  0  0  0  0  0  0  0  0  0  0
  185.1620  178.3470  142.1500 C   0  0  0  0  0  2  0  0  0  0  0  0
  185.4850  178.2180  140.6810 C   0  0  0  0  0  1  0  0  0  0  0  0
  192.7010  169.5900  143.1440 C   0  0  0  0  0  2  0  0  0  0  0  0
  192.0840  169.5760  141.7880 C   0  0  0  0  0  0  0  0  0  0  0  0
  192.6880  170.1030  140.8170 O   0  0  0  0  0  0  0  0  0  0  0  0
  190.8290  168.9370  141.5820 N   0  0  0  0  0  1  0  0  0  0  0  0
  1 21  1  0  0  0  0
  2 13  1  0  0  0  0
  2 20  1  0  0  0  0
  3 17  1  0  0  0  0
  4 21  1  0  0  0  0
  5 34  1  1  0  0  0
  5 15  1  0  0  0  0
  5  3  1  0  0  0  0
  7 23  1  0  0  0  0
  8  4  1  0  0  0  0
 10 15  1  1  0  0  0
 10 11  1  0  0  0  0
 10 19  1  0  0  0  0
 11  6  1  1  0  0  0
 12  9  1  6  0  0  0
 12 19  1  0  0  0  0
 13 23  1  0  0  0  0
 14 22  1  0  0  0  0
 16 22  1  0  0  0  0
 16  1  1  1  0  0  0
 17  6  1  0  0  0  0
 18 11  1  0  0  0  0
 18 14  2  0  0  0  0
 19 22  1  0  0  0  0
 20  8  1  0  0  0  0
 23 12  1  0  0  0  0
 23 16  1  0  0  0  0
 24 25  1  0  0  0  0
 24 30  1  0  0  0  0
 25 26  1  0  0  0  0
 26 31  1  0  0  0  0
 26 28  2  0  0  0  0
 27 29  2  0  0  0  0
 29 24  2  0  0  0  0
 30 18  1  0  0  0  0
 30 31  1  0  0  0  0
 32 20  1  0  0  0  0
 33 32  1  0  0  0  0
 35 34  1  0  0  0  0
 36 35  2  0  0  0  0
 37 35  1  0  0  0  0
M  END
>  <MODEL>
4

>  <REMARK>
 VINA RESULT:      -7.6      2.881      7.225
  Name = 
  4 active torsions:
  status: ('A' for Active; 'I' for Inactive)
    1  A    between atoms: C_6  and  C_16
    2  A    between atoms: C_7  and  C_16
    3  A    between atoms: C_8  and  N_32
    4  A    between atoms: C_30  and  C_33
                            x       y       z     vdW  Elec       q    Type
                         _______ _______ _______ _____ _____    ______ ____

>  <TORSDO>
F 4

$$$$
=
 OpenBabel11042418353D

 37 41  0  0  1  0  0  0  0  0999 V2000
  188.3630  175.2920  145.8550 C   0  0  0  0  0  2  0  0  0  0  0  0
  186.9960  177.8600  144.1500 C   0  0  0  0  0  2  0  0  0  0  0  0
  193.0930  171.2860  142.0080 C   0  0  0  0  0  2  0  0  0  0  0  0
  187.4740  177.4230  146.8880 C   0  0  0  0  0  2  0  0  0  0  0  0
  192.4820  172.2950  141.0380 C   0  0  2  0  0  3  0  0  0  0  0  0
  193.0600  172.8580  143.9980 C   0  0  0  0  0  2  0  0  0  0  0  0
  189.4900  177.1270  142.7820 C   0  0  0  0  0  1  0  0  0  0  0  0
  186.0880  177.1530  146.2870 C   0  0  0  0  0  2  0  0  0  0  0  0
  188.8860  174.7660  141.5040 O   0  0  0  0  0  1  0  0  0  0  0  0
  191.3440  174.0500  142.5200 C   0  0  1  0  0  3  0  0  0  0  0  0
  192.7040  174.1290  143.2380 C   0  0  1  0  0  3  0  0  0  0  0  0
  188.8730  174.7010  142.9030 C   0  0  1  0  0  3  0  0  0  0  0  0
  187.2090  176.4620  143.5690 C   0  0  0  0  0  2  0  0  0  0  0  0
  191.7050  175.7520  144.7960 C   0  0  0  0  0  3  0  0  0  0  0  0
  191.1770  172.8120  141.6300 C   0  0  0  0  0  2  0  0  0  0  0  0
  189.2870  175.9390  144.9150 N   0  0  1  0  0  0  0  0  0  0  0  0
  193.9110  171.9640  143.1040 C   0  0  0  0  0  2  0  0  0  0  0  0
  192.7790  175.3510  144.1100 C   0  0  0  0  0  0  0  0  0  0  0  0
  190.1560  174.1360  143.5070 C   0  0  2  0  0  3  0  0  0  0  0  0
  185.8340  177.8960  145.0400 N   0  0  0  0  0  0  0  0  0  0  0  0
  188.2160  176.1150  147.1330 C   0  0  0  0  0  2  0  0  0  0  0  0
  190.4000  174.9970  144.7700 C   0  0  1  0  0  3  0  0  0  0  0  0
  188.7010  176.0650  143.5600 C   0  0  2  0  0  0  0  0  0  0  0  0
  195.0230  175.8220  143.1130 C   0  0  0  0  0  0  0  0  0  0  0  0
  196.2720  175.1470  143.5510 C   0  0  0  0  0  2  0  0  0  0  0  0
  196.1130  174.9740  145.0130 C   0  0  0  0  0  0  0  0  0  0  0  0
  194.5740  176.2310  140.6420 O   0  0  0  0  0  0  0  0  0  0  0  0
  196.7800  174.1660  145.6410 O   0  0  0  0  0  0  0  0  0  0  0  0
  194.7880  176.0410  141.8470 C   0  0  0  0  0  0  0  0  0  0  0  0
  194.0300  176.1820  144.1810 C   0  0  2  0  0  3  0  0  0  0  0  0
  194.8390  175.9510  145.8020 S   0  0  0  0  0  0  0  0  0  0  0  0
  185.5920  179.2890  145.3820 C   0  0  0  0  0  2  0  0  0  0  0  0
  185.5660  180.1290  144.1280 C   0  0  0  0  0  1  0  0  0  0  0  0
  192.1840  171.6150  139.7130 C   0  0  0  0  0  2  0  0  0  0  0  0
  191.7440  172.6140  138.7000 C   0  0  0  0  0  0  0  0  0  0  0  0
  190.6530  172.4530  138.0920 O   0  0  0  0  0  0  0  0  0  0  0  0
  192.5380  173.7670  138.4430 N   0  0  0  0  0  1  0  0  0  0  0  0
  1 21  1  0  0  0  0
  2 20  1  0  0  0  0
  3 17  1  0  0  0  0
  4 21  1  0  0  0  0
  5 34  1  6  0  0  0
  5 15  1  0  0  0  0
  5  3  1  0  0  0  0
  7 23  1  0  0  0  0
  8  4  1  0  0  0  0
 10 15  1  1  0  0  0
 10 11  1  0  0  0  0
 10 19  1  0  0  0  0
 11  6  1  1  0  0  0
 11 18  1  0  0  0  0
 12  9  1  6  0  0  0
 12 19  1  0  0  0  0
 12 23  1  0  0  0  0
 13  2  1  0  0  0  0
 16  1  1  1  0  0  0
 17  6  1  0  0  0  0
 18 30  1  0  0  0  0
 18 14  2  0  0  0  0
 19 22  1  0  0  0  0
 20 32  1  0  0  0  0
 20  8  1  0  0  0  0
 22 14  1  0  0  0  0
 22 16  1  0  0  0  0
 23 13  1  0  0  0  0
 23 16  1  0  0  0  0
 24 25  1  0  0  0  0
 24 30  1  0  0  0  0
 25 26  1  0  0  0  0
 26 28  2  0  0  0  0
 26 31  1  0  0  0  0
 27 29  2  0  0  0  0
 29 24  2  0  0  0  0
 30 31  1  0  0  0  0
 33 32  1  0  0  0  0
 35 34  1  0  0  0  0
 36 35  2  0  0  0  0
 37 35  1  0  0  0  0
M  END
>  <MODEL>
5

>  <REMARK>
 VINA RESULT:      -7.6      2.629      7.578
  Name = 
  4 active torsions:
  status: ('A' for Active; 'I' for Inactive)
    1  A    between atoms: C_6  and  C_16
    2  A    between atoms: C_7  and  C_16
    3  A    between atoms: C_8  and  N_32
    4  A    between atoms: C_30  and  C_33
                            x       y       z     vdW  Elec       q    Type
                         _______ _______ _______ _____ _____    ______ ____

>  <TORSDO>
F 4

$$$$
=
 OpenBabel11042418353D

 37 41  0  0  1  0  0  0  0  0999 V2000
  187.9460  176.5630  142.5830 C   0  0  0  0  0  2  0  0  0  0  0  0
  187.8230  177.4970  145.8210 C   0  0  0  0  0  2  0  0  0  0  0  0
  194.5910  174.6930  140.2240 C   0  0  0  0  0  2  0  0  0  0  0  0
  185.9120  176.3910  144.0780 C   0  0  0  0  0  2  0  0  0  0  0  0
  194.7620  175.2170  141.6490 C   0  0  2  0  0  3  0  0  0  0  0  0
  192.3250  173.6400  140.6550 C   0  0  0  0  0  2  0  0  0  0  0  0
  190.2520  175.8820  145.4640 C   0  0  0  0  0  1  0  0  0  0  0  0
  185.9510  177.9040  144.3310 C   0  0  0  0  0  2  0  0  0  0  0  0
  191.9700  177.5470  144.1040 O   0  0  0  0  0  1  0  0  0  0  0  0
  192.3980  175.2520  142.6420 C   0  0  1  0  0  3  0  0  0  0  0  0
  192.3250  173.7880  142.1710 C   0  0  1  0  0  3  0  0  0  0  0  0
  190.8290  177.1650  143.3890 C   0  0  1  0  0  3  0  0  0  0  0  0
  188.9270  177.9150  144.8490 C   0  0  0  0  0  2  0  0  0  0  0  0
  190.0050  173.7180  142.9920 C   0  0  0  0  0  3  0  0  0  0  0  0
  193.5430  176.0560  142.0100 C   0  0  0  0  0  2  0  0  0  0  0  0
  188.8530  175.8050  143.4540 N   0  0  1  0  0  0  0  0  0  0  0  0
  193.7540  173.4180  140.1760 C   0  0  0  0  0  2  0  0  0  0  0  0
  191.1630  173.0790  142.8100 C   0  0  0  0  0  0  0  0  0  0  0  0
  191.0640  176.0050  142.4250 C   0  0  2  0  0  3  0  0  0  0  0  0
  186.5990  178.2700  145.6020 N   0  0  0  0  0  0  0  0  0  0  0  0
  186.5100  176.0590  142.7160 C   0  0  0  0  0  2  0  0  0  0  0  0
  189.7860  175.1400  142.5400 C   0  0  1  0  0  3  0  0  0  0  0  0
  189.6910  176.6970  144.2890 C   0  0  2  0  0  0  0  0  0  0  0  0
  192.6970  171.3350  143.7370 C   0  0  0  0  0  0  0  0  0  0  0  0
  193.4450  170.3700  142.8910 C   0  0  0  0  0  2  0  0  0  0  0  0
  192.5230  170.0540  141.7760 C   0  0  0  0  0  0  0  0  0  0  0  0
  193.8190  172.4380  145.7370 O   0  0  0  0  0  0  0  0  0  0  0  0
  192.9240  169.5680  140.7280 O   0  0  0  0  0  0  0  0  0  0  0  0
  193.2640  171.9000  144.7680 C   0  0  0  0  0  0  0  0  0  0  0  0
  191.2950  171.6680  143.3160 C   0  0  2  0  0  3  0  0  0  0  0  0
  190.8040  170.4910  142.0080 S   0  0  0  0  0  0  0  0  0  0  0  0
  185.6840  177.9500  146.6870 C   0  0  0  0  0  2  0  0  0  0  0  0
  186.3320  176.9680  147.6330 C   0  0  0  0  0  1  0  0  0  0  0  0
  196.0010  176.0910  141.7270 C   0  0  0  0  0  2  0  0  0  0  0  0
  196.5040  176.1600  143.1270 C   0  0  0  0  0  0  0  0  0  0  0  0
  197.1540  177.1670  143.5130 O   0  0  0  0  0  0  0  0  0  0  0  0
  196.2220  175.1040  144.0390 N   0  0  0  0  0  1  0  0  0  0  0  0
  1 21  1  0  0  0  0
  3  5  1  0  0  0  0
  4  8  1  0  0  0  0
  5 34  1  6  0  0  0
  5 15  1  0  0  0  0
  8 20  1  0  0  0  0
 10 15  1  6  0  0  0
 11  6  1  6  0  0  0
 11 10  1  0  0  0  0
 11 18  1  0  0  0  0
 12  9  1  1  0  0  0
 12 23  1  0  0  0  0
 13  2  1  0  0  0  0
 16  1  1  6  0  0  0
 16 23  1  0  0  0  0
 17  3  1  0  0  0  0
 17  6  1  0  0  0  0
 18 14  2  0  0  0  0
 18 30  1  0  0  0  0
 19 22  1  0  0  0  0
 19 10  1  0  0  0  0
 19 12  1  0  0  0  0
 20  2  1  0  0  0  0
 20 32  1  0  0  0  0
 21  4  1  0  0  0  0
 22 14  1  0  0  0  0
 22 16  1  0  0  0  0
 23 13  1  0  0  0  0
 23  7  1  0  0  0  0
 24 29  2  0  0  0  0
 25 24  1  0  0  0  0
 26 31  1  0  0  0  0
 26 25  1  0  0  0  0
 28 26  2  0  0  0  0
 29 27  2  0  0  0  0
 30 24  1  0  0  0  0
 31 30  1  0  0  0  0
 32 33  1  0  0  0  0
 34 35  1  0  0  0  0
 35 36  2  0  0  0  0
 35 37  1  0  0  0  0
M  END
>  <MODEL>
6

>  <REMARK>
 VINA RESULT:      -7.4      3.171      7.872
  Name = 
  4 active torsions:
  status: ('A' for Active; 'I' for Inactive)
    1  A    between atoms: C_6  and  C_16
    2  A    between atoms: C_7  and  C_16
    3  A    between atoms: C_8  and  N_32
    4  A    between atoms: C_30  and  C_33
                            x       y       z     vdW  Elec       q    Type
                         _______ _______ _______ _____ _____    ______ ____

>  <TORSDO>
F 4

$$$$
=
 OpenBabel11042418353D

 37 41  0  0  1  0  0  0  0  0999 V2000
  187.0010  177.9200  140.7560 C   0  0  0  0  0  2  0  0  0  0  0  0
  184.2500  177.7000  142.6920 C   0  0  0  0  0  2  0  0  0  0  0  0
  193.2090  176.0410  144.0960 C   0  0  0  0  0  2  0  0  0  0  0  0
  184.6470  177.5400  139.9120 C   0  0  0  0  0  2  0  0  0  0  0  0
  192.1130  176.0160  145.1590 C   0  0  2  0  0  3  0  0  0  0  0  0
  191.7030  175.2380  142.2200 C   0  0  0  0  0  2  0  0  0  0  0  0
  186.3060  175.9750  143.8880 C   0  0  0  0  0  1  0  0  0  0  0  0
  184.1880  178.8540  140.5580 C   0  0  0  0  0  2  0  0  0  0  0  0
  188.0800  177.7410  145.0310 O   0  0  0  0  0  1  0  0  0  0  0  0
  189.9070  176.0470  143.8540 C   0  0  1  0  0  3  0  0  0  0  0  0
  190.5040  174.8580  143.0800 C   0  0  1  0  0  3  0  0  0  0  0  0
  188.0140  177.7930  143.6340 C   0  0  1  0  0  3  0  0  0  0  0  0
  185.5900  178.2630  143.1680 C   0  0  0  0  0  2  0  0  0  0  0  0
  188.4770  174.8440  141.6830 C   0  0  0  0  0  3  0  0  0  0  0  0
  190.9350  176.8460  144.6660 C   0  0  0  0  0  2  0  0  0  0  0  0
  187.0240  176.7890  141.6920 N   0  0  1  0  0  0  0  0  0  0  0  0
  192.9820  174.9920  143.0110 C   0  0  0  0  0  2  0  0  0  0  0  0
  189.4420  174.1470  142.2890 C   0  0  0  0  0  0  0  0  0  0  0  0
  189.1220  177.0110  142.9330 C   0  0  2  0  0  3  0  0  0  0  0  0
  183.5290  178.6670  141.8630 N   0  0  0  0  0  0  0  0  0  0  0  0
  186.1240  177.6110  139.5440 C   0  0  0  0  0  2  0  0  0  0  0  0
  188.4220  176.3500  141.7210 C   0  0  1  0  0  3  0  0  0  0  0  0
  186.7180  177.2130  143.0780 C   0  0  2  0  0  0  0  0  0  0  0  0
  190.1260  171.9910  143.3570 C   0  0  0  0  0  0  0  0  0  0  0  0
  191.3930  171.2850  143.0350 C   0  0  0  0  0  2  0  0  0  0  0  0
  191.5910  171.5100  141.5850 C   0  0  0  0  0  0  0  0  0  0  0  0
  189.3170  172.1610  145.7630 O   0  0  0  0  0  0  0  0  0  0  0  0
  192.6830  171.3670  141.0550 O   0  0  0  0  0  0  0  0  0  0  0  0
  189.7010  172.0770  144.5880 C   0  0  0  0  0  0  0  0  0  0  0  0
  189.4000  172.6450  142.2160 C   0  0  2  0  0  3  0  0  0  0  0  0
  190.1700  172.0780  140.6590 S   0  0  0  0  0  0  0  0  0  0  0  0
  182.1970  178.1300  141.6270 C   0  0  0  0  0  2  0  0  0  0  0  0
  181.3860  179.1090  140.8130 C   0  0  0  0  0  1  0  0  0  0  0  0
  192.6370  176.6250  146.4480 C   0  0  0  0  0  2  0  0  0  0  0  0
  191.6900  176.3710  147.5690 C   0  0  0  0  0  0  0  0  0  0  0  0
  191.5710  177.2160  148.4940 O   0  0  0  0  0  0  0  0  0  0  0  0
  190.8960  175.1900  147.5780 N   0  0  0  0  0  1  0  0  0  0  0  0
  2 13  1  0  0  0  0
  3  5  1  0  0  0  0
  4  8  1  0  0  0  0
  5 34  1  1  0  0  0
  6 17  1  0  0  0  0
  8 20  1  0  0  0  0
 10 15  1  6  0  0  0
 11  6  1  6  0  0  0
 11 10  1  0  0  0  0
 12  9  1  1  0  0  0
 14 22  1  0  0  0  0
 14 18  2  0  0  0  0
 15  5  1  0  0  0  0
 16  1  1  6  0  0  0
 16 22  1  0  0  0  0
 16 23  1  0  0  0  0
 17  3  1  0  0  0  0
 18 11  1  0  0  0  0
 19 12  1  0  0  0  0
 19 10  1  0  0  0  0
 20  2  1  0  0  0  0
 21  4  1  0  0  0  0
 21  1  1  0  0  0  0
 22 19  1  0  0  0  0
 23 13  1  0  0  0  0
 23 12  1  0  0  0  0
 23  7  1  0  0  0  0
 24 29  2  0  0  0  0
 25 24  1  0  0  0  0
 26 25  1  0  0  0  0
 28 26  2  0  0  0  0
 29 27  2  0  0  0  0
 30 18  1  0  0  0  0
 30 24  1  0  0  0  0
 31 26  1  0  0  0  0
 31 30  1  0  0  0  0
 32 20  1  0  0  0  0
 33 32  1  0  0  0  0
 34 35  1  0  0  0  0
 35 37  1  0  0  0  0
 35 36  2  0  0  0  0
M  END
>  <MODEL>
7

>  <REMARK>
 VINA RESULT:      -7.4      3.185      7.102
  Name = 
  4 active torsions:
  status: ('A' for Active; 'I' for Inactive)
    1  A    between atoms: C_6  and  C_16
    2  A    between atoms: C_7  and  C_16
    3  A    between atoms: C_8  and  N_32
    4  A    between atoms: C_30  and  C_33
                            x       y       z     vdW  Elec       q    Type
                         _______ _______ _______ _____ _____    ______ ____

>  <TORSDO>
F 4

$$$$
=
 OpenBabel11042418353D

 37 41  0  0  1  0  0  0  0  0999 V2000
  195.3540  175.5710  144.5370 C   0  0  0  0  0  2  0  0  0  0  0  0
  195.7700  175.8930  141.2070 C   0  0  0  0  0  2  0  0  0  0  0  0
  188.4600  176.2940  146.8100 C   0  0  0  0  0  2  0  0  0  0  0  0
  197.2260  174.5310  143.1910 C   0  0  0  0  0  2  0  0  0  0  0  0
  188.4650  176.6110  145.3160 C   0  0  2  0  0  3  0  0  0  0  0  0
  190.2700  174.5240  146.6570 C   0  0  0  0  0  2  0  0  0  0  0  0
  192.9520  175.2060  141.6780 C   0  0  0  0  0  1  0  0  0  0  0  0
  197.6730  175.9190  142.7120 C   0  0  0  0  0  2  0  0  0  0  0  0
  191.8560  177.5210  142.6840 O   0  0  0  0  0  1  0  0  0  0  0  0
  190.7160  175.7410  144.4510 C   0  0  1  0  0  3  0  0  0  0  0  0
  190.3180  174.4230  145.1380 C   0  0  1  0  0  3  0  0  0  0  0  0
  192.8150  176.9170  143.5060 C   0  0  1  0  0  3  0  0  0  0  0  0
  194.8570  176.7870  142.0470 C   0  0  0  0  0  2  0  0  0  0  0  0
  192.4940  173.4950  144.4560 C   0  0  0  0  0  3  0  0  0  0  0  0
  189.8880  176.9550  144.8950 C   0  0  0  0  0  2  0  0  0  0  0  0
  194.2520  175.0110  143.7450 N   0  0  1  0  0  0  0  0  0  0  0  0
  188.8450  174.8440  147.0910 C   0  0  0  0  0  2  0  0  0  0  0  0
  191.1910  173.2920  144.6730 C   0  0  0  0  0  0  0  0  0  0  0  0
  192.2210  176.0580  144.6200 C   0  0  2  0  0  3  0  0  0  0  0  0
  197.1760  176.2640  141.3690 N   0  0  0  0  0  0  0  0  0  0  0  0
  196.5530  174.6250  144.5550 C   0  0  0  0  0  2  0  0  0  0  0  0
  193.1560  174.8280  144.7000 C   0  0  1  0  0  3  0  0  0  0  0  0
  193.7430  175.9770  142.7440 C   0  0  2  0  0  0  0  0  0  0  0  0
  191.5930  171.0320  143.6780 C   0  0  0  0  0  0  0  0  0  0  0  0
  191.3080  170.7010  142.2580 C   0  0  0  0  0  2  0  0  0  0  0  0
  190.0830  171.4670  141.9320 C   0  0  0  0  0  0  0  0  0  0  0  0
  193.7110  170.1830  144.8030 O   0  0  0  0  0  0  0  0  0  0  0  0
  189.7600  171.7010  140.7760 O   0  0  0  0  0  0  0  0  0  0  0  0
  192.6750  170.5950  144.2640 C   0  0  0  0  0  0  0  0  0  0  0  0
  190.6160  171.9330  144.3780 C   0  0  2  0  0  3  0  0  0  0  0  0
  189.1410  172.1010  143.3130 S   0  0  0  0  0  0  0  0  0  0  0  0
  197.9410  175.5040  140.3920 C   0  0  0  0  0  2  0  0  0  0  0  0
  197.0320  175.0290  139.2850 C   0  0  0  0  0  1  0  0  0  0  0  0
  187.5710  177.8080  145.0450 C   0  0  0  0  0  2  0  0  0  0  0  0
  186.1790  177.3650  144.7540 C   0  0  0  0  0  0  0  0  0  0  0  0
  185.9200  176.7750  143.6730 O   0  0  0  0  0  0  0  0  0  0  0  0
  185.1480  177.5800  145.7120 N   0  0  0  0  0  1  0  0  0  0  0  0
  1 21  1  0  0  0  0
  2 20  1  0  0  0  0
  2 13  1  0  0  0  0
  3 17  1  0  0  0  0
  4 21  1  0  0  0  0
  5 34  1  1  0  0  0
  5  3  1  0  0  0  0
  6 17  1  0  0  0  0
  7 23  1  0  0  0  0
  8  4  1  0  0  0  0
 10 19  1  0  0  0  0
 10 15  1  1  0  0  0
 10 11  1  0  0  0  0
 11  6  1  1  0  0  0
 12  9  1  6  0  0  0
 12 19  1  0  0  0  0
 13 23  1  0  0  0  0
 14 18  2  0  0  0  0
 14 22  1  0  0  0  0
 15  5  1  0  0  0  0
 16  1  1  1  0  0  0
 16 22  1  0  0  0  0
 18 11  1  0  0  0  0
 19 22  1  0  0  0  0
 20  8  1  0  0  0  0
 23 12  1  0  0  0  0
 23 16  1  0  0  0  0
 24 29  2  0  0  0  0
 24 30  1  0  0  0  0
 25 24  1  0  0  0  0
 26 25  1  0  0  0  0
 26 31  1  0  0  0  0
 28 26  2  0  0  0  0
 29 27  2  0  0  0  0
 30 18  1  0  0  0  0
 31 30  1  0  0  0  0
 32 20  1  0  0  0  0
 33 32  1  0  0  0  0
 35 34  1  0  0  0  0
 35 37  1  0  0  0  0
 36 35  2  0  0  0  0
M  END
>  <MODEL>
8

>  <REMARK>
 VINA RESULT:      -7.3      3.359      5.553
  Name = 
  4 active torsions:
  status: ('A' for Active; 'I' for Inactive)
    1  A    between atoms: C_6  and  C_16
    2  A    between atoms: C_7  and  C_16
    3  A    between atoms: C_8  and  N_32
    4  A    between atoms: C_30  and  C_33
                            x       y       z     vdW  Elec       q    Type
                         _______ _______ _______ _____ _____    ______ ____

>  <TORSDO>
F 4

$$$$
=
 OpenBabel11042418353D

 37 41  0  0  1  0  0  0  0  0999 V2000
  191.8190  173.5900  139.3330 C   0  0  0  0  0  2  0  0  0  0  0  0
  190.7210  170.4040  139.4400 C   0  0  0  0  0  2  0  0  0  0  0  0
  189.0510  177.9190  144.5120 C   0  0  0  0  0  2  0  0  0  0  0  0
  193.0810  171.5790  138.4610 C   0  0  0  0  0  2  0  0  0  0  0  0
  188.3350  176.5760  144.6340 C   0  0  2  0  0  3  0  0  0  0  0  0
  191.2730  176.9140  143.8160 C   0  0  0  0  0  2  0  0  0  0  0  0
  190.3020  171.5670  142.1050 C   0  0  0  0  0  1  0  0  0  0  0  0
  191.9240  171.2470  137.5090 C   0  0  0  0  0  2  0  0  0  0  0  0
  188.1550  173.2560  141.7700 O   0  0  0  0  0  1  0  0  0  0  0  0
  189.7490  174.9320  143.2650 C   0  0  1  0  0  3  0  0  0  0  0  0
  190.9290  175.4580  144.1040 C   0  0  1  0  0  3  0  0  0  0  0  0
  189.3130  173.6290  141.0770 C   0  0  1  0  0  3  0  0  0  0  0  0
  189.8260  171.6260  139.6480 C   0  0  0  0  0  2  0  0  0  0  0  0
  192.4160  173.9980  142.7940 C   0  0  0  0  0  3  0  0  0  0  0  0
  188.4960  175.8160  143.3240 C   0  0  0  0  0  2  0  0  0  0  0  0
  191.6160  173.0780  140.6940 N   0  0  1  0  0  0  0  0  0  0  0  0
  190.5430  177.8050  144.8130 C   0  0  0  0  0  2  0  0  0  0  0  0
  192.1230  174.5560  143.9720 C   0  0  0  0  0  0  0  0  0  0  0  0
  190.1410  174.6960  141.7880 C   0  0  2  0  0  3  0  0  0  0  0  0
  191.0240  170.2000  138.0230 N   0  0  0  0  0  0  0  0  0  0  0  0
  193.1310  173.0760  138.7440 C   0  0  0  0  0  2  0  0  0  0  0  0
  191.6090  174.2680  141.5490 C   0  0  1  0  0  3  0  0  0  0  0  0
  190.2770  172.4670  140.8620 C   0  0  2  0  0  0  0  0  0  0  0  0
  194.2250  175.0330  145.2400 C   0  0  0  0  0  0  0  0  0  0  0  0
  195.5110  174.3340  144.9860 C   0  0  0  0  0  2  0  0  0  0  0  0
  195.1240  172.9430  144.6550 C   0  0  0  0  0  0  0  0  0  0  0  0
  194.1810  177.5410  145.6700 O   0  0  0  0  0  0  0  0  0  0  0  0
  195.8830  172.1870  144.0670 O   0  0  0  0  0  0  0  0  0  0  0  0
  194.1960  176.3180  145.4670 C   0  0  0  0  0  0  0  0  0  0  0  0
  192.9720  174.2080  145.1640 C   0  0  2  0  0  3  0  0  0  0  0  0
  193.4600  172.4490  145.0870 S   0  0  0  0  0  0  0  0  0  0  0  0
  191.7020  168.9190  137.9030 C   0  0  0  0  0  2  0  0  0  0  0  0
  191.5680  168.3970  136.4930 C   0  0  0  0  0  1  0  0  0  0  0  0
  186.8570  176.8050  144.8900 C   0  0  0  0  0  2  0  0  0  0  0  0
  186.5670  176.7690  146.3500 C   0  0  0  0  0  0  0  0  0  0  0  0
  187.4530  176.3860  147.1580 O   0  0  0  0  0  0  0  0  0  0  0  0
  185.3000  177.1980  146.8370 N   0  0  0  0  0  1  0  0  0  0  0  0
  2 13  1  0  0  0  0
  3  5  1  0  0  0  0
  3 17  1  0  0  0  0
  4 21  1  0  0  0  0
  5 34  1  6  0  0  0
  6 17  1  0  0  0  0
  8 20  1  0  0  0  0
  8  4  1  0  0  0  0
 10 15  1  6  0  0  0
 10 11  1  0  0  0  0
 11  6  1  6  0  0  0
 12  9  1  1  0  0  0
 12 19  1  0  0  0  0
 13 23  1  0  0  0  0
 14 18  2  0  0  0  0
 15  5  1  0  0  0  0
 16  1  1  6  0  0  0
 16 23  1  0  0  0  0
 16 22  1  0  0  0  0
 18 11  1  0  0  0  0
 18 30  1  0  0  0  0
 19 10  1  0  0  0  0
 20  2  1  0  0  0  0
 21  1  1  0  0  0  0
 22 19  1  0  0  0  0
 22 14  1  0  0  0  0
 23 12  1  0  0  0  0
 23  7  1  0  0  0  0
 24 29  2  0  0  0  0
 25 24  1  0  0  0  0
 26 25  1  0  0  0  0
 26 31  1  0  0  0  0
 28 26  2  0  0  0  0
 29 27  2  0  0  0  0
 30 24  1  0  0  0  0
 31 30  1  0  0  0  0
 32 20  1  0  0  0  0
 33 32  1  0  0  0  0
 34 35  1  0  0  0  0
 35 37  1  0  0  0  0
 35 36  2  0  0  0  0
M  END
>  <MODEL>
9

>  <REMARK>
 VINA RESULT:      -7.2      1.559      2.170
  Name = 
  4 active torsions:
  status: ('A' for Active; 'I' for Inactive)
    1  A    between atoms: C_6  and  C_16
    2  A    between atoms: C_7  and  C_16
    3  A    between atoms: C_8  and  N_32
    4  A    between atoms: C_30  and  C_33
                            x       y       z     vdW  Elec       q    Type
                         _______ _______ _______ _____ _____    ______ ____

>  <TORSDO>
F 4

$$$$
