=
 OpenBabel11042418323D

 37 40  0  0  1  0  0  0  0  0999 V2000
  192.0000  174.7070  143.6940 C   0  0  2  0  0  3  0  0  0  0  0  0
  194.3320  174.8040  143.6930 C   0  0  2  0  0  3  0  0  0  0  0  0
  192.3880  175.4740  144.8730 N   0  0  0  0  0  0  0  0  0  0  0  0
  193.1910  174.2630  142.9740 N   0  0  0  0  0  2  0  0  0  0  0  0
  193.8080  175.2350  145.0400 C   0  0  0  0  0  2  0  0  0  0  0  0
  194.9150  176.0090  142.9430 C   0  0  2  0  0  3  0  0  0  0  0  0
  195.3700  175.6440  141.5650 C   0  0  0  0  0  0  0  0  0  0  0  0
  197.0210  175.2860  140.0700 N   0  0  0  0  0  0  0  0  0  0  0  0
  196.0590  176.5880  143.6860 N   0  0  0  0  0  2  0  0  0  0  0  0
  197.6810  175.6160  142.3660 N   0  0  0  0  0  2  0  0  0  0  0  0
  194.7090  175.5910  140.4260 C   0  0  0  0  0  3  0  0  0  0  0  0
  195.7380  175.2960  139.3580 C   0  0  0  0  0  2  0  0  0  0  0  0
  197.1670  175.6960  143.6790 N   0  0  0  0  0  2  0  0  0  0  0  0
  196.7440  175.4470  141.3130 C   0  0  0  0  0  0  0  0  0  0  0  0
  191.3660  176.7300  142.6490 O   0  0  0  0  0  0  0  0  0  0  0  0
  191.1410  175.5380  142.7910 C   0  0  0  0  0  0  0  0  0  0  0  0
  190.0310  174.9010  142.0190 C   0  0  0  0  0  2  0  0  0  0  0  0
  188.8870  174.5080  142.9430 C   0  0  0  0  0  2  0  0  0  0  0  0
  187.6130  174.8600  142.3390 N   0  0  0  0  0  2  0  0  0  0  0  0
  187.9110  175.7280  141.2140 C   0  0  0  0  0  2  0  0  0  0  0  0
  187.0490  176.9730  141.2810 C   0  0  2  0  0  3  0  0  0  0  0  0
  186.8570  177.4790  139.9940 O   0  0  0  0  0  1  0  0  0  0  0  0
  187.7420  178.0120  142.1460 C   0  0  0  0  0  2  0  0  0  0  0  0
  185.3350  179.0970  145.5230 C   0  0  0  0  0  3  0  0  0  0  0  0
  185.8720  179.3200  143.1740 C   0  0  0  0  0  3  0  0  0  0  0  0
  186.8980  178.3810  143.3180 C   0  0  0  0  0  0  0  0  0  0  0  0
  187.1430  177.8030  144.5680 C   0  0  0  0  0  3  0  0  0  0  0  0
  186.3640  178.1570  145.6770 C   0  0  0  0  0  0  0  0  0  0  0  0
  185.0910  179.6770  144.2750 C   0  0  0  0  0  3  0  0  0  0  0  0
  186.6290  177.5450  146.9890 C   0  0  0  0  0  0  0  0  0  0  0  0
  186.3540  178.2460  148.1570 O   0  0  0  0  0  1  0  0  0  0  0  0
  187.1050  176.3800  147.0660 O   0  0  0  0  0  0  0  0  0  0  0  0
  191.7170  174.8700  146.0140 C   0  0  0  0  0  2  0  0  0  0  0  0
  190.4180  176.9720  146.1110 C   0  0  0  0  0  1  0  0  0  0  0  0
  190.2960  175.3830  147.8520 F   0  0  0  0  0  0  0  0  0  0  0  0
  192.2010  176.5700  147.6060 F   0  0  0  0  0  0  0  0  0  0  0  0
  191.1650  175.9470  146.9360 C   0  0  0  0  0  0  0  0  0  0  0  0
  1 16  1  6  0  0  0
  1  3  1  0  0  0  0
  2  5  1  1  0  0  0
  3  5  1  0  0  0  0
  3 33  1  0  0  0  0
  4  2  1  0  0  0  0
  4  1  1  0  0  0  0
  6  7  1  6  0  0  0
  6  9  1  0  0  0  0
  6  2  1  0  0  0  0
  8 14  2  0  0  0  0
 10 13  1  0  0  0  0
 11  7  2  0  0  0  0
 12  8  1  0  0  0  0
 12 11  1  0  0  0  0
 13  9  1  0  0  0  0
 14  7  1  0  0  0  0
 14 10  1  0  0  0  0
 15 16  2  0  0  0  0
 17 16  1  0  0  0  0
 17 18  1  0  0  0  0
 19 18  1  0  0  0  0
 20 21  1  0  0  0  0
 20 19  1  0  0  0  0
 21 22  1  6  0  0  0
 21 23  1  0  0  0  0
 23 26  1  0  0  0  0
 24 28  1  0  0  0  0
 25 26  2  0  0  0  0
 25 29  1  0  0  0  0
 26 27  1  0  0  0  0
 27 28  2  0  0  0  0
 28 30  1  0  0  0  0
 29 24  2  0  0  0  0
 30 32  2  0  0  0  0
 30 31  1  0  0  0  0
 33 37  1  0  0  0  0
 34 37  1  0  0  0  0
 37 36  1  0  0  0  0
 37 35  1  0  0  0  0
M  END
>  <MODEL>
1

>  <REMARK>
 VINA RESULT:      -7.1      0.000      0.000
  Name = 
  12 active torsions:
  status: ('A' for Active; 'I' for Inactive)
    1  A    between atoms: C_1  and  C_27
    2  A    between atoms: C_2  and  N_8
    3  A    between atoms: C_2  and  C_35
    4  A    between atoms: C_3  and  C_4
    5  A    between atoms: C_5  and  C_32
    6  A    between atoms: C_7  and  N_15
    7  A    between atoms: C_7  and  C_26
    8  A    between atoms: C_11  and  C_18
    9  A    between atoms: C_11  and  C_29
   10  A    between atoms: N_15  and  C_18
   11  A    between atoms: C_24  and  C_29
   12  A    between atoms: C_26  and  C_27
                            x       y       z     vdW  Elec       q    Type
                         _______ _______ _______ _____ _____    ______ ____

>  <TORSDO>
F 12

$$$$
=
 OpenBabel11042418323D

 37 40  0  0  1  0  0  0  0  0999 V2000
  189.7730  175.0960  144.0990 C   0  0  2  0  0  3  0  0  0  0  0  0
  190.5320  173.2320  142.9180 C   0  0  2  0  0  3  0  0  0  0  0  0
  191.2100  175.0070  144.3360 N   0  0  0  0  0  0  0  0  0  0  0  0
  189.3370  173.9910  143.2500 N   0  0  0  0  0  2  0  0  0  0  0  0
  191.5940  173.6820  143.8900 C   0  0  0  0  0  2  0  0  0  0  0  0
  190.9730  173.5320  141.4790 C   0  0  2  0  0  3  0  0  0  0  0  0
  189.9450  173.1040  140.4780 C   0  0  0  0  0  0  0  0  0  0  0  0
  189.2600  171.7220  138.8320 N   0  0  0  0  0  0  0  0  0  0  0  0
  192.2530  172.8540  141.1680 N   0  0  0  0  0  2  0  0  0  0  0  0
  191.2930  171.1230  139.9830 N   0  0  0  0  0  2  0  0  0  0  0  0
  188.8890  173.7350  140.0050 C   0  0  0  0  0  3  0  0  0  0  0  0
  188.3230  172.8480  138.9200 C   0  0  0  0  0  2  0  0  0  0  0  0
  192.0750  171.4440  141.1150 N   0  0  0  0  0  2  0  0  0  0  0  0
  190.1280  171.9030  139.7610 C   0  0  0  0  0  0  0  0  0  0  0  0
  190.0150  177.4240  143.7730 O   0  0  0  0  0  0  0  0  0  0  0  0
  189.4320  176.4020  143.4480 C   0  0  0  0  0  0  0  0  0  0  0  0
  188.4080  176.4500  142.3600 C   0  0  0  0  0  2  0  0  0  0  0  0
  188.3320  177.8430  141.7520 C   0  0  0  0  0  2  0  0  0  0  0  0
  186.9960  178.0930  141.2380 N   0  0  0  0  0  2  0  0  0  0  0  0
  186.1000  177.2120  141.9650 C   0  0  0  0  0  2  0  0  0  0  0  0
  184.8840  177.9870  142.4330 C   0  0  2  0  0  3  0  0  0  0  0  0
  184.2160  178.5200  141.3290 O   0  0  0  0  0  1  0  0  0  0  0  0
  185.3330  179.1080  143.3550 C   0  0  0  0  0  2  0  0  0  0  0  0
  185.7730  177.7370  147.3920 C   0  0  0  0  0  3  0  0  0  0  0  0
  184.4410  178.7990  145.6730 C   0  0  0  0  0  3  0  0  0  0  0  0
  185.4820  178.6220  144.7550 C   0  0  0  0  0  0  0  0  0  0  0  0
  186.6700  178.0040  145.1610 C   0  0  0  0  0  3  0  0  0  0  0  0
  186.8230  177.5580  146.4800 C   0  0  0  0  0  0  0  0  0  0  0  0
  184.5860  178.3560  146.9900 C   0  0  0  0  0  3  0  0  0  0  0  0
  188.0760  176.9090  146.8980 C   0  0  0  0  0  0  0  0  0  0  0  0
  188.1070  175.5420  147.1490 O   0  0  0  0  0  1  0  0  0  0  0  0
  189.1310  177.5860  147.0320 O   0  0  0  0  0  0  0  0  0  0  0  0
  191.4090  175.0460  145.7770 C   0  0  0  0  0  2  0  0  0  0  0  0
  193.0710  176.6960  144.9860 C   0  0  0  0  0  1  0  0  0  0  0  0
  192.5640  176.4820  147.2820 F   0  0  0  0  0  0  0  0  0  0  0  0
  193.7240  174.8270  146.2740 F   0  0  0  0  0  0  0  0  0  0  0  0
  192.7110  175.7540  146.1150 C   0  0  0  0  0  0  0  0  0  0  0  0
  1 16  1  6  0  0  0
  1  3  1  0  0  0  0
  2  4  1  0  0  0  0
  2  5  1  1  0  0  0
  3 33  1  0  0  0  0
  4  1  1  0  0  0  0
  5  3  1  0  0  0  0
  6  7  1  6  0  0  0
  6  2  1  0  0  0  0
  8 12  1  0  0  0  0
  8 14  2  0  0  0  0
  9  6  1  0  0  0  0
 10 13  1  0  0  0  0
 11  7  2  0  0  0  0
 12 11  1  0  0  0  0
 13  9  1  0  0  0  0
 14 10  1  0  0  0  0
 14  7  1  0  0  0  0
 16 15  2  0  0  0  0
 17 16  1  0  0  0  0
 18 17  1  0  0  0  0
 19 18  1  0  0  0  0
 19 20  1  0  0  0  0
 20 21  1  0  0  0  0
 21 22  1  6  0  0  0
 21 23  1  0  0  0  0
 23 26  1  0  0  0  0
 25 29  2  0  0  0  0
 26 27  2  0  0  0  0
 26 25  1  0  0  0  0
 27 28  1  0  0  0  0
 28 30  1  0  0  0  0
 28 24  2  0  0  0  0
 29 24  1  0  0  0  0
 30 32  2  0  0  0  0
 30 31  1  0  0  0  0
 33 37  1  0  0  0  0
 34 37  1  0  0  0  0
 37 36  1  0  0  0  0
 37 35  1  0  0  0  0
M  END
>  <MODEL>
2

>  <REMARK>
 VINA RESULT:      -7.1      2.929      4.148
  Name = 
  12 active torsions:
  status: ('A' for Active; 'I' for Inactive)
    1  A    between atoms: C_1  and  C_27
    2  A    between atoms: C_2  and  N_8
    3  A    between atoms: C_2  and  C_35
    4  A    between atoms: C_3  and  C_4
    5  A    between atoms: C_5  and  C_32
    6  A    between atoms: C_7  and  N_15
    7  A    between atoms: C_7  and  C_26
    8  A    between atoms: C_11  and  C_18
    9  A    between atoms: C_11  and  C_29
   10  A    between atoms: N_15  and  C_18
   11  A    between atoms: C_24  and  C_29
   12  A    between atoms: C_26  and  C_27
                            x       y       z     vdW  Elec       q    Type
                         _______ _______ _______ _____ _____    ______ ____

>  <TORSDO>
F 12

$$$$
=
 OpenBabel11042418323D

 37 40  0  0  1  0  0  0  0  0999 V2000
  190.1960  175.0260  142.0230 C   0  0  2  0  0  3  0  0  0  0  0  0
  192.4060  174.7870  142.7330 C   0  0  2  0  0  3  0  0  0  0  0  0
  190.6390  173.7090  141.5770 N   0  0  0  0  0  0  0  0  0  0  0  0
  191.2850  175.7130  142.7120 N   0  0  0  0  0  2  0  0  0  0  0  0
  192.0810  173.7180  141.7200 C   0  0  0  0  0  2  0  0  0  0  0  0
  192.5580  174.1640  144.1270 C   0  0  2  0  0  3  0  0  0  0  0  0
  193.1050  175.1420  145.1210 C   0  0  0  0  0  0  0  0  0  0  0  0
  194.7780  175.8700  146.4480 N   0  0  0  0  0  0  0  0  0  0  0  0
  193.4510  172.9820  144.0820 N   0  0  0  0  0  2  0  0  0  0  0  0
  195.2990  174.0800  144.9180 N   0  0  0  0  0  2  0  0  0  0  0  0
  192.4940  176.0340  145.8760 C   0  0  0  0  0  3  0  0  0  0  0  0
  193.5600  176.6220  146.7720 C   0  0  0  0  0  2  0  0  0  0  0  0
  194.7900  173.3730  143.8050 N   0  0  0  0  0  2  0  0  0  0  0  0
  194.4660  175.0800  145.4840 C   0  0  0  0  0  0  0  0  0  0  0  0
  189.1540  174.4300  144.0590 O   0  0  0  0  0  0  0  0  0  0  0  0
  189.0180  174.8960  142.9390 C   0  0  0  0  0  0  0  0  0  0  0  0
  187.6730  175.3840  142.5020 C   0  0  0  0  0  2  0  0  0  0  0  0
  187.7880  176.2220  141.2380 C   0  0  0  0  0  2  0  0  0  0  0  0
  187.5390  177.6220  141.5410 N   0  0  0  0  0  2  0  0  0  0  0  0
  186.2070  177.9240  141.0480 C   0  0  0  0  0  2  0  0  0  0  0  0
  185.2120  177.8790  142.1910 C   0  0  2  0  0  3  0  0  0  0  0  0
  183.9160  178.0020  141.6870 O   0  0  0  0  0  1  0  0  0  0  0  0
  185.5040  179.0220  143.1490 C   0  0  0  0  0  2  0  0  0  0  0  0
  185.7960  177.6380  147.1950 C   0  0  0  0  0  3  0  0  0  0  0  0
  184.5280  178.7060  145.4320 C   0  0  0  0  0  3  0  0  0  0  0  0
  185.6010  178.5310  144.5530 C   0  0  0  0  0  0  0  0  0  0  0  0
  186.7730  177.9110  144.9980 C   0  0  0  0  0  3  0  0  0  0  0  0
  186.8780  177.4600  146.3210 C   0  0  0  0  0  0  0  0  0  0  0  0
  184.6260  178.2590  146.7520 C   0  0  0  0  0  3  0  0  0  0  0  0
  188.1150  176.8100  146.7820 C   0  0  0  0  0  0  0  0  0  0  0  0
  189.2770  177.5530  146.9490 O   0  0  0  0  0  0  0  0  0  0  0  0
  188.1310  175.5740  147.0310 O   0  0  0  0  0  1  0  0  0  0  0  0
  190.3530  173.6220  140.1530 C   0  0  0  0  0  2  0  0  0  0  0  0
  188.2040  173.2180  138.9990 C   0  0  0  0  0  1  0  0  0  0  0  0
  189.7870  171.4880  139.2670 F   0  0  0  0  0  0  0  0  0  0  0  0
  188.6720  172.2220  141.0880 F   0  0  0  0  0  0  0  0  0  0  0  0
  189.2560  172.6000  139.8940 C   0  0  0  0  0  0  0  0  0  0  0  0
  1  4  1  0  0  0  0
  1 16  1  1  0  0  0
  2  5  1  6  0  0  0
  2  6  1  0  0  0  0
  3  5  1  0  0  0  0
  3  1  1  0  0  0  0
  4  2  1  0  0  0  0
  6  9  1  6  0  0  0
  6  7  1  0  0  0  0
  7 14  1  0  0  0  0
  7 11  2  0  0  0  0
  8 12  1  0  0  0  0
 10 14  1  0  0  0  0
 11 12  1  0  0  0  0
 13  9  1  0  0  0  0
 13 10  1  0  0  0  0
 14  8  2  0  0  0  0
 16 15  2  0  0  0  0
 17 16  1  0  0  0  0
 18 19  1  0  0  0  0
 18 17  1  0  0  0  0
 20 19  1  0  0  0  0
 20 21  1  0  0  0  0
 21 22  1  6  0  0  0
 21 23  1  0  0  0  0
 23 26  1  0  0  0  0
 25 29  2  0  0  0  0
 26 27  2  0  0  0  0
 26 25  1  0  0  0  0
 27 28  1  0  0  0  0
 28 30  1  0  0  0  0
 28 24  2  0  0  0  0
 29 24  1  0  0  0  0
 30 31  2  0  0  0  0
 30 32  1  0  0  0  0
 33  3  1  0  0  0  0
 34 37  1  0  0  0  0
 35 37  1  0  0  0  0
 37 33  1  0  0  0  0
 37 36  1  0  0  0  0
M  END
>  <MODEL>
3

>  <REMARK>
 VINA RESULT:      -7.0      3.028      4.455
  Name = 
  12 active torsions:
  status: ('A' for Active; 'I' for Inactive)
    1  A    between atoms: C_1  and  C_27
    2  A    between atoms: C_2  and  N_8
    3  A    between atoms: C_2  and  C_35
    4  A    between atoms: C_3  and  C_4
    5  A    between atoms: C_5  and  C_32
    6  A    between atoms: C_7  and  N_15
    7  A    between atoms: C_7  and  C_26
    8  A    between atoms: C_11  and  C_18
    9  A    between atoms: C_11  and  C_29
   10  A    between atoms: N_15  and  C_18
   11  A    between atoms: C_24  and  C_29
   12  A    between atoms: C_26  and  C_27
                            x       y       z     vdW  Elec       q    Type
                         _______ _______ _______ _____ _____    ______ ____

>  <TORSDO>
F 12

$$$$
=
 OpenBabel11042418323D

 37 40  0  0  1  0  0  0  0  0999 V2000
  190.1010  176.6400  143.9850 C   0  0  2  0  0  3  0  0  0  0  0  0
  188.1710  177.6790  144.7850 C   0  0  2  0  0  3  0  0  0  0  0  0
  190.0020  176.3050  145.4020 N   0  0  0  0  0  0  0  0  0  0  0  0
  188.9950  177.5110  143.5990 N   0  0  0  0  0  2  0  0  0  0  0  0
  189.0150  177.2160  145.9460 C   0  0  0  0  0  2  0  0  0  0  0  0
  186.9020  176.8210  144.6810 C   0  0  2  0  0  3  0  0  0  0  0  0
  185.9110  177.4020  143.7210 C   0  0  0  0  0  0  0  0  0  0  0  0
  183.9480  178.4320  143.3050 N   0  0  0  0  0  0  0  0  0  0  0  0
  186.2540  176.6760  146.0050 N   0  0  0  0  0  2  0  0  0  0  0  0
  184.6180  178.2550  145.6140 N   0  0  0  0  0  2  0  0  0  0  0  0
  185.7940  177.2630  142.4150 C   0  0  0  0  0  3  0  0  0  0  0  0
  184.5190  177.9780  142.0310 C   0  0  0  0  0  2  0  0  0  0  0  0
  185.7140  177.9180  146.4400 N   0  0  0  0  0  2  0  0  0  0  0  0
  184.7970  178.1140  144.2130 C   0  0  0  0  0  0  0  0  0  0  0  0
  190.7090  175.3420  142.1060 O   0  0  0  0  0  0  0  0  0  0  0  0
  190.0830  175.3950  143.1530 C   0  0  0  0  0  0  0  0  0  0  0  0
  189.3340  174.1900  143.6260 C   0  0  0  0  0  2  0  0  0  0  0  0
  188.8290  173.3710  142.4470 C   0  0  0  0  0  2  0  0  0  0  0  0
  189.3210  172.0070  142.5380 N   0  0  0  0  0  2  0  0  0  0  0  0
  190.1280  171.7760  141.3530 C   0  0  0  0  0  2  0  0  0  0  0  0
  191.5990  171.8660  141.7060 C   0  0  2  0  0  3  0  0  0  0  0  0
  192.3470  171.1260  140.7880 O   0  0  0  0  0  1  0  0  0  0  0  0
  191.8100  171.3140  143.1060 C   0  0  0  0  0  2  0  0  0  0  0  0
  194.9040  173.4510  145.1630 C   0  0  0  0  0  3  0  0  0  0  0  0
  193.5460  171.4650  144.9030 C   0  0  0  0  0  3  0  0  0  0  0  0
  192.8930  172.0520  143.8140 C   0  0  0  0  0  0  0  0  0  0  0  0
  193.2460  173.3420  143.4040 C   0  0  0  0  0  3  0  0  0  0  0  0
  194.2530  174.0490  144.0740 C   0  0  0  0  0  0  0  0  0  0  0  0
  194.5520  172.1630  145.5760 C   0  0  0  0  0  3  0  0  0  0  0  0
  194.6180  175.4060  143.6370 C   0  0  0  0  0  0  0  0  0  0  0  0
  193.6360  176.3750  143.4670 O   0  0  0  0  0  1  0  0  0  0  0  0
  195.8220  175.7020  143.4140 O   0  0  0  0  0  0  0  0  0  0  0  0
  191.2780  176.6450  146.0120 C   0  0  0  0  0  2  0  0  0  0  0  0
  191.2200  175.3460  148.1150 C   0  0  0  0  0  1  0  0  0  0  0  0
  191.5840  174.2860  146.0380 F   0  0  0  0  0  0  0  0  0  0  0  0
  193.2210  175.5880  146.8870 F   0  0  0  0  0  0  0  0  0  0  0  0
  191.8540  175.4430  146.7450 C   0  0  0  0  0  0  0  0  0  0  0  0
  1 16  1  6  0  0  0
  1  3  1  0  0  0  0
  2  5  1  1  0  0  0
  3  5  1  0  0  0  0
  3 33  1  0  0  0  0
  4  1  1  0  0  0  0
  4  2  1  0  0  0  0
  6  7  1  6  0  0  0
  6  2  1  0  0  0  0
  6  9  1  0  0  0  0
  7 14  1  0  0  0  0
  8 14  2  0  0  0  0
  9 13  1  0  0  0  0
 10 13  1  0  0  0  0
 11  7  2  0  0  0  0
 12 11  1  0  0  0  0
 12  8  1  0  0  0  0
 14 10  1  0  0  0  0
 15 16  2  0  0  0  0
 16 17  1  0  0  0  0
 18 19  1  0  0  0  0
 18 17  1  0  0  0  0
 20 21  1  0  0  0  0
 20 19  1  0  0  0  0
 21 22  1  6  0  0  0
 21 23  1  0  0  0  0
 23 26  1  0  0  0  0
 24 29  1  0  0  0  0
 25 29  2  0  0  0  0
 26 25  1  0  0  0  0
 27 26  2  0  0  0  0
 27 28  1  0  0  0  0
 28 24  2  0  0  0  0
 30 28  1  0  0  0  0
 31 30  1  0  0  0  0
 32 30  2  0  0  0  0
 33 37  1  0  0  0  0
 35 37  1  0  0  0  0
 37 36  1  0  0  0  0
 37 34  1  0  0  0  0
M  END
>  <MODEL>
4

>  <REMARK>
 VINA RESULT:      -6.9      3.710      8.041
  Name = 
  12 active torsions:
  status: ('A' for Active; 'I' for Inactive)
    1  A    between atoms: C_1  and  C_27
    2  A    between atoms: C_2  and  N_8
    3  A    between atoms: C_2  and  C_35
    4  A    between atoms: C_3  and  C_4
    5  A    between atoms: C_5  and  C_32
    6  A    between atoms: C_7  and  N_15
    7  A    between atoms: C_7  and  C_26
    8  A    between atoms: C_11  and  C_18
    9  A    between atoms: C_11  and  C_29
   10  A    between atoms: N_15  and  C_18
   11  A    between atoms: C_24  and  C_29
   12  A    between atoms: C_26  and  C_27
                            x       y       z     vdW  Elec       q    Type
                         _______ _______ _______ _____ _____    ______ ____

>  <TORSDO>
F 12

$$$$
=
 OpenBabel11042418323D

 37 40  0  0  1  0  0  0  0  0999 V2000
  192.8610  174.4730  144.6870 C   0  0  2  0  0  3  0  0  0  0  0  0
  191.9250  172.9520  143.1840 C   0  0  2  0  0  3  0  0  0  0  0  0
  193.9720  173.7670  144.0590 N   0  0  0  0  0  0  0  0  0  0  0  0
  191.5920  173.9590  144.1780 N   0  0  0  0  0  2  0  0  0  0  0  0
  193.3800  172.6190  143.4030 C   0  0  0  0  0  2  0  0  0  0  0  0
  191.7180  173.5090  141.7690 C   0  0  2  0  0  3  0  0  0  0  0  0
  190.2840  173.8460  141.5050 C   0  0  0  0  0  0  0  0  0  0  0  0
  188.3260  173.4330  140.4620 N   0  0  0  0  0  0  0  0  0  0  0  0
  192.1750  172.5360  140.7490 N   0  0  0  0  0  2  0  0  0  0  0  0
  190.0620  171.7760  140.2210 N   0  0  0  0  0  2  0  0  0  0  0  0
  189.5990  174.9450  141.7510 C   0  0  0  0  0  3  0  0  0  0  0  0
  188.2370  174.7370  141.1300 C   0  0  0  0  0  2  0  0  0  0  0  0
  191.3250  171.3950  140.7250 N   0  0  0  0  0  2  0  0  0  0  0  0
  189.4880  172.9640  140.7440 C   0  0  0  0  0  0  0  0  0  0  0  0
  192.8220  176.3740  143.2840 O   0  0  0  0  0  0  0  0  0  0  0  0
  192.9590  175.9430  144.4180 C   0  0  0  0  0  0  0  0  0  0  0  0
  193.1760  176.8980  145.5480 C   0  0  0  0  0  2  0  0  0  0  0  0
  192.6010  176.3430  146.8420 C   0  0  0  0  0  2  0  0  0  0  0  0
  191.1800  176.6370  146.9260 N   0  0  0  0  0  2  0  0  0  0  0  0
  190.5660  175.5260  147.6300 C   0  0  0  0  0  2  0  0  0  0  0  0
  189.2670  175.1410  146.9510 C   0  0  2  0  0  3  0  0  0  0  0  0
  189.3130  173.7960  146.5790 O   0  0  0  0  0  1  0  0  0  0  0  0
  189.0730  176.0090  145.7180 C   0  0  0  0  0  2  0  0  0  0  0  0
  185.0520  177.4800  145.5110 C   0  0  0  0  0  3  0  0  0  0  0  0
  186.9480  176.7410  146.8210 C   0  0  0  0  0  3  0  0  0  0  0  0
  187.6790  176.5310  145.6470 C   0  0  0  0  0  0  0  0  0  0  0  0
  187.0920  176.7940  144.4050 C   0  0  0  0  0  3  0  0  0  0  0  0
  185.7760  177.2700  144.3280 C   0  0  0  0  0  0  0  0  0  0  0  0
  185.6360  177.2170  146.7520 C   0  0  0  0  0  3  0  0  0  0  0  0
  185.1660  177.5430  143.0180 C   0  0  0  0  0  0  0  0  0  0  0  0
  185.8700  177.2820  141.8480 O   0  0  0  0  0  0  0  0  0  0  0  0
  183.9990  178.0150  142.9430 O   0  0  0  0  0  1  0  0  0  0  0  0
  194.8150  173.2570  145.1310 C   0  0  0  0  0  2  0  0  0  0  0  0
  197.2170  173.4310  145.6870 C   0  0  0  0  0  1  0  0  0  0  0  0
  196.1640  175.0410  144.3190 F   0  0  0  0  0  0  0  0  0  0  0  0
  195.6570  174.9950  146.5190 F   0  0  0  0  0  0  0  0  0  0  0  0
  195.9560  174.2210  145.4140 C   0  0  0  0  0  0  0  0  0  0  0  0
  1 16  1  6  0  0  0
  2  5  1  6  0  0  0
  2  4  1  0  0  0  0
  3  1  1  0  0  0  0
  3 33  1  0  0  0  0
  4  1  1  0  0  0  0
  5  3  1  0  0  0  0
  6  9  1  6  0  0  0
  6  2  1  0  0  0  0
  7 11  2  0  0  0  0
  7  6  1  0  0  0  0
  8 14  2  0  0  0  0
  8 12  1  0  0  0  0
 10 13  1  0  0  0  0
 10 14  1  0  0  0  0
 12 11  1  0  0  0  0
 13  9  1  0  0  0  0
 14  7  1  0  0  0  0
 15 16  2  0  0  0  0
 16 17  1  0  0  0  0
 17 18  1  0  0  0  0
 18 19  1  0  0  0  0
 19 20  1  0  0  0  0
 21 22  1  6  0  0  0
 21 20  1  0  0  0  0
 23 21  1  0  0  0  0
 24 29  1  0  0  0  0
 26 23  1  0  0  0  0
 26 25  1  0  0  0  0
 27 26  2  0  0  0  0
 28 27  1  0  0  0  0
 28 24  2  0  0  0  0
 29 25  2  0  0  0  0
 30 28  1  0  0  0  0
 31 30  2  0  0  0  0
 32 30  1  0  0  0  0
 33 37  1  0  0  0  0
 35 37  1  0  0  0  0
 37 34  1  0  0  0  0
 37 36  1  0  0  0  0
M  END
>  <MODEL>
5

>  <REMARK>
 VINA RESULT:      -6.9      2.921      5.349
  Name = 
  12 active torsions:
  status: ('A' for Active; 'I' for Inactive)
    1  A    between atoms: C_1  and  C_27
    2  A    between atoms: C_2  and  N_8
    3  A    between atoms: C_2  and  C_35
    4  A    between atoms: C_3  and  C_4
    5  A    between atoms: C_5  and  C_32
    6  A    between atoms: C_7  and  N_15
    7  A    between atoms: C_7  and  C_26
    8  A    between atoms: C_11  and  C_18
    9  A    between atoms: C_11  and  C_29
   10  A    between atoms: N_15  and  C_18
   11  A    between atoms: C_24  and  C_29
   12  A    between atoms: C_26  and  C_27
                            x       y       z     vdW  Elec       q    Type
                         _______ _______ _______ _____ _____    ______ ____

>  <TORSDO>
F 12

$$$$
=
 OpenBabel11042418323D

 37 40  0  0  1  0  0  0  0  0999 V2000
  193.6470  175.9830  144.3580 C   0  0  2  0  0  3  0  0  0  0  0  0
  193.1660  173.8430  143.5610 C   0  0  2  0  0  3  0  0  0  0  0  0
  192.2460  175.9930  143.9520 N   0  0  0  0  0  0  0  0  0  0  0  0
  194.2340  174.6720  144.0950 N   0  0  0  0  0  2  0  0  0  0  0  0
  192.0640  174.7920  143.1610 C   0  0  0  0  0  2  0  0  0  0  0  0
  192.6580  172.8690  144.6330 C   0  0  2  0  0  3  0  0  0  0  0  0
  193.6480  171.7810  144.9150 C   0  0  0  0  0  0  0  0  0  0  0  0
  194.2820  169.6200  144.7910 N   0  0  0  0  0  0  0  0  0  0  0  0
  191.3760  172.2520  144.2200 N   0  0  0  0  0  2  0  0  0  0  0  0
  192.3100  170.2500  143.5540 N   0  0  0  0  0  2  0  0  0  0  0  0
  194.6730  171.7430  145.7430 C   0  0  0  0  0  3  0  0  0  0  0  0
  195.2050  170.3300  145.6840 C   0  0  0  0  0  2  0  0  0  0  0  0
  191.5730  171.3740  143.1180 N   0  0  0  0  0  2  0  0  0  0  0  0
  193.4530  170.5000  144.3590 C   0  0  0  0  0  0  0  0  0  0  0  0
  194.5050  177.2140  146.1840 O   0  0  0  0  0  0  0  0  0  0  0  0
  193.7700  176.3120  145.8150 C   0  0  0  0  0  0  0  0  0  0  0  0
  192.9530  175.5670  146.8210 C   0  0  0  0  0  2  0  0  0  0  0  0
  191.8770  176.4640  147.4130 C   0  0  0  0  0  2  0  0  0  0  0  0
  190.7200  175.6720  147.7970 N   0  0  0  0  0  2  0  0  0  0  0  0
  190.3250  174.9160  146.6220 C   0  0  0  0  0  2  0  0  0  0  0  0
  188.9270  175.3170  146.1990 C   0  0  2  0  0  3  0  0  0  0  0  0
  188.8410  175.3140  144.8050 O   0  0  0  0  0  1  0  0  0  0  0  0
  188.6250  176.7080  146.7300 C   0  0  0  0  0  2  0  0  0  0  0  0
  184.6550  177.9070  145.6460 C   0  0  0  0  0  3  0  0  0  0  0  0
  186.2090  177.0480  147.2900 C   0  0  0  0  0  3  0  0  0  0  0  0
  187.2470  177.1360  146.3560 C   0  0  0  0  0  0  0  0  0  0  0  0
  186.9840  177.6060  145.0660 C   0  0  0  0  0  3  0  0  0  0  0  0
  185.6890  177.9950  144.7020 C   0  0  0  0  0  0  0  0  0  0  0  0
  184.9140  177.4350  146.9350 C   0  0  0  0  0  3  0  0  0  0  0  0
  185.4210  178.4880  143.3420 C   0  0  0  0  0  0  0  0  0  0  0  0
  186.4370  179.0750  142.5970 O   0  0  0  0  0  0  0  0  0  0  0  0
  184.2690  178.3840  142.8400 O   0  0  0  0  0  1  0  0  0  0  0  0
  192.0690  177.1250  143.0560 C   0  0  0  0  0  2  0  0  0  0  0  0
  189.7610  177.9840  142.8310 C   0  0  0  0  0  1  0  0  0  0  0  0
  190.7900  177.7940  144.9470 F   0  0  0  0  0  0  0  0  0  0  0  0
  191.5240  179.3910  143.5300 F   0  0  0  0  0  0  0  0  0  0  0  0
  191.0460  178.0980  143.6230 C   0  0  0  0  0  0  0  0  0  0  0  0
  1 16  1  1  0  0  0
  2  5  1  1  0  0  0
  2  4  1  0  0  0  0
  2  6  1  0  0  0  0
  3  1  1  0  0  0  0
  4  1  1  0  0  0  0
  5  3  1  0  0  0  0
  6  9  1  6  0  0  0
  6  7  1  0  0  0  0
  7 11  2  0  0  0  0
  8 12  1  0  0  0  0
 10 14  1  0  0  0  0
 12 11  1  0  0  0  0
 13 10  1  0  0  0  0
 13  9  1  0  0  0  0
 14  8  2  0  0  0  0
 14  7  1  0  0  0  0
 16 15  2  0  0  0  0
 16 17  1  0  0  0  0
 17 18  1  0  0  0  0
 18 19  1  0  0  0  0
 20 19  1  0  0  0  0
 21 22  1  6  0  0  0
 21 20  1  0  0  0  0
 21 23  1  0  0  0  0
 24 29  1  0  0  0  0
 26 23  1  0  0  0  0
 26 25  1  0  0  0  0
 27 26  2  0  0  0  0
 28 27  1  0  0  0  0
 28 24  2  0  0  0  0
 29 25  2  0  0  0  0
 30 28  1  0  0  0  0
 31 30  2  0  0  0  0
 32 30  1  0  0  0  0
 33 37  1  0  0  0  0
 33  3  1  0  0  0  0
 34 37  1  0  0  0  0
 36 37  1  0  0  0  0
 37 35  1  0  0  0  0
M  END
>  <MODEL>
6

>  <REMARK>
 VINA RESULT:      -6.9      2.872      4.938
  Name = 
  12 active torsions:
  status: ('A' for Active; 'I' for Inactive)
    1  A    between atoms: C_1  and  C_27
    2  A    between atoms: C_2  and  N_8
    3  A    between atoms: C_2  and  C_35
    4  A    between atoms: C_3  and  C_4
    5  A    between atoms: C_5  and  C_32
    6  A    between atoms: C_7  and  N_15
    7  A    between atoms: C_7  and  C_26
    8  A    between atoms: C_11  and  C_18
    9  A    between atoms: C_11  and  C_29
   10  A    between atoms: N_15  and  C_18
   11  A    between atoms: C_24  and  C_29
   12  A    between atoms: C_26  and  C_27
                            x       y       z     vdW  Elec       q    Type
                         _______ _______ _______ _____ _____    ______ ____

>  <TORSDO>
F 12

$$$$
=
 OpenBabel11042418323D

 37 40  0  0  1  0  0  0  0  0999 V2000
  189.1380  176.8680  144.0840 C   0  0  2  0  0  3  0  0  0  0  0  0
  187.4310  177.8930  145.3010 C   0  0  2  0  0  3  0  0  0  0  0  0
  189.1480  176.2620  145.4120 N   0  0  0  0  0  0  0  0  0  0  0  0
  188.1030  177.8950  144.0120 N   0  0  0  0  0  2  0  0  0  0  0  0
  188.3330  177.1300  146.2390 C   0  0  0  0  0  2  0  0  0  0  0  0
  186.0700  177.1930  145.1930 C   0  0  2  0  0  3  0  0  0  0  0  0
  185.2310  177.7670  144.0940 C   0  0  0  0  0  0  0  0  0  0  0  0
  183.4540  178.9720  143.4010 N   0  0  0  0  0  0  0  0  0  0  0  0
  185.3210  177.2960  146.4670 N   0  0  0  0  0  2  0  0  0  0  0  0
  183.9390  179.0040  145.7630 N   0  0  0  0  0  2  0  0  0  0  0  0
  185.1830  177.4810  142.8080 C   0  0  0  0  0  3  0  0  0  0  0  0
  184.0430  178.2940  142.2400 C   0  0  0  0  0  2  0  0  0  0  0  0
  184.9230  178.6400  146.7090 N   0  0  0  0  0  2  0  0  0  0  0  0
  184.1910  178.6670  144.4070 C   0  0  0  0  0  0  0  0  0  0  0  0
  188.6960  176.1480  141.8770 O   0  0  0  0  0  0  0  0  0  0  0  0
  188.8920  175.8240  143.0380 C   0  0  0  0  0  0  0  0  0  0  0  0
  188.9350  174.3750  143.4020 C   0  0  0  0  0  2  0  0  0  0  0  0
  188.5490  173.5080  142.2130 C   0  0  0  0  0  2  0  0  0  0  0  0
  189.6600  172.6500  141.8380 N   0  0  0  0  0  2  0  0  0  0  0  0
  190.1230  173.1110  140.5420 C   0  0  0  0  0  2  0  0  0  0  0  0
  191.4710  173.7880  140.6870 C   0  0  2  0  0  3  0  0  0  0  0  0
  192.1890  173.6620  139.4960 O   0  0  0  0  0  1  0  0  0  0  0  0
  192.2380  173.1320  141.8230 C   0  0  0  0  0  2  0  0  0  0  0  0
  194.3400  176.0660  144.1350 C   0  0  0  0  0  3  0  0  0  0  0  0
  192.4700  175.4550  142.7250 C   0  0  0  0  0  3  0  0  0  0  0  0
  192.9630  174.1490  142.6360 C   0  0  0  0  0  0  0  0  0  0  0  0
  194.1470  173.8050  143.2960 C   0  0  0  0  0  3  0  0  0  0  0  0
  194.8430  174.7590  144.0490 C   0  0  0  0  0  0  0  0  0  0  0  0
  193.1580  176.4120  143.4750 C   0  0  0  0  0  3  0  0  0  0  0  0
  196.0880  174.3900  144.7400 C   0  0  0  0  0  0  0  0  0  0  0  0
  197.3100  174.8740  144.2880 O   0  0  0  0  0  0  0  0  0  0  0  0
  196.0590  173.6320  145.7470 O   0  0  0  0  0  1  0  0  0  0  0  0
  190.5110  176.3540  145.9130 C   0  0  0  0  0  2  0  0  0  0  0  0
  191.3680  175.3650  148.0110 C   0  0  0  0  0  1  0  0  0  0  0  0
  189.8340  174.1960  146.6500 F   0  0  0  0  0  0  0  0  0  0  0  0
  191.9500  174.4600  145.9090 F   0  0  0  0  0  0  0  0  0  0  0  0
  190.9130  175.0580  146.6000 C   0  0  0  0  0  0  0  0  0  0  0  0
  1 16  1  6  0  0  0
  1  3  1  0  0  0  0
  2  5  1  1  0  0  0
  3 33  1  0  0  0  0
  3  5  1  0  0  0  0
  4  1  1  0  0  0  0
  4  2  1  0  0  0  0
  6  7  1  6  0  0  0
  6  2  1  0  0  0  0
  6  9  1  0  0  0  0
  7 14  1  0  0  0  0
  8 14  2  0  0  0  0
  9 13  1  0  0  0  0
 10 13  1  0  0  0  0
 11  7  2  0  0  0  0
 12 11  1  0  0  0  0
 12  8  1  0  0  0  0
 14 10  1  0  0  0  0
 15 16  2  0  0  0  0
 16 17  1  0  0  0  0
 18 17  1  0  0  0  0
 19 18  1  0  0  0  0
 20 21  1  0  0  0  0
 20 19  1  0  0  0  0
 21 22  1  6  0  0  0
 21 23  1  0  0  0  0
 23 26  1  0  0  0  0
 25 29  1  0  0  0  0
 26 25  2  0  0  0  0
 26 27  1  0  0  0  0
 27 28  2  0  0  0  0
 28 24  1  0  0  0  0
 28 30  1  0  0  0  0
 29 24  2  0  0  0  0
 30 32  1  0  0  0  0
 31 30  2  0  0  0  0
 33 37  1  0  0  0  0
 36 37  1  0  0  0  0
 37 35  1  0  0  0  0
 37 34  1  0  0  0  0
M  END
>  <MODEL>
7

>  <REMARK>
 VINA RESULT:      -6.7      3.661      8.147
  Name = 
  12 active torsions:
  status: ('A' for Active; 'I' for Inactive)
    1  A    between atoms: C_1  and  C_27
    2  A    between atoms: C_2  and  N_8
    3  A    between atoms: C_2  and  C_35
    4  A    between atoms: C_3  and  C_4
    5  A    between atoms: C_5  and  C_32
    6  A    between atoms: C_7  and  N_15
    7  A    between atoms: C_7  and  C_26
    8  A    between atoms: C_11  and  C_18
    9  A    between atoms: C_11  and  C_29
   10  A    between atoms: N_15  and  C_18
   11  A    between atoms: C_24  and  C_29
   12  A    between atoms: C_26  and  C_27
                            x       y       z     vdW  Elec       q    Type
                         _______ _______ _______ _____ _____    ______ ____

>  <TORSDO>
F 12

$$$$
=
 OpenBabel11042418323D

 37 40  0  0  1  0  0  0  0  0999 V2000
  190.5970  173.2600  144.6510 C   0  0  2  0  0  3  0  0  0  0  0  0
  192.8100  173.8970  145.0270 C   0  0  2  0  0  3  0  0  0  0  0  0
  190.5630  174.6490  145.0960 N   0  0  0  0  0  0  0  0  0  0  0  0
  191.9740  172.7750  144.6320 N   0  0  0  0  0  2  0  0  0  0  0  0
  191.8800  174.9120  145.6420 C   0  0  0  0  0  2  0  0  0  0  0  0
  193.5120  174.4980  143.8020 C   0  0  2  0  0  3  0  0  0  0  0  0
  194.7350  173.7230  143.4210 C   0  0  0  0  0  0  0  0  0  0  0  0
  196.9790  173.5400  143.2690 N   0  0  0  0  0  0  0  0  0  0  0  0
  193.9000  175.9060  144.0550 N   0  0  0  0  0  2  0  0  0  0  0  0
  196.1190  175.4420  144.4760 N   0  0  0  0  0  2  0  0  0  0  0  0
  194.8770  172.6620  142.6520 C   0  0  0  0  0  3  0  0  0  0  0  0
  196.3660  172.4260  142.5360 C   0  0  0  0  0  2  0  0  0  0  0  0
  194.9340  175.9760  145.0290 N   0  0  0  0  0  2  0  0  0  0  0  0
  196.0100  174.2110  143.7770 C   0  0  0  0  0  0  0  0  0  0  0  0
  190.3170  172.2160  142.5490 O   0  0  0  0  0  0  0  0  0  0  0  0
  189.9960  173.1370  143.2840 C   0  0  0  0  0  0  0  0  0  0  0  0
  188.9610  174.1160  142.8310 C   0  0  0  0  0  2  0  0  0  0  0  0
  189.2650  174.6110  141.4250 C   0  0  0  0  0  2  0  0  0  0  0  0
  188.1360  175.3620  140.9030 N   0  0  0  0  0  2  0  0  0  0  0  0
  187.4250  175.8960  142.0510 C   0  0  0  0  0  2  0  0  0  0  0  0
  186.7250  177.1850  141.6700 C   0  0  2  0  0  3  0  0  0  0  0  0
  187.0550  177.5250  140.3560 O   0  0  0  0  0  1  0  0  0  0  0  0
  187.1670  178.2900  142.6150 C   0  0  0  0  0  2  0  0  0  0  0  0
  184.2120  179.0390  145.6290 C   0  0  0  0  0  3  0  0  0  0  0  0
  184.8110  178.7910  143.2980 C   0  0  0  0  0  3  0  0  0  0  0  0
  186.1380  178.5390  143.6640 C   0  0  0  0  0  0  0  0  0  0  0  0
  186.4990  178.5420  145.0150 C   0  0  0  0  0  3  0  0  0  0  0  0
  185.5410  178.7910  146.0050 C   0  0  0  0  0  0  0  0  0  0  0  0
  183.8490  179.0390  144.2800 C   0  0  0  0  0  3  0  0  0  0  0  0
  185.9290  178.7920  147.4240 C   0  0  0  0  0  0  0  0  0  0  0  0
  185.9380  177.6050  148.1490 O   0  0  0  0  0  1  0  0  0  0  0  0
  186.2590  179.8660  147.9960 O   0  0  0  0  0  0  0  0  0  0  0  0
  189.6220  174.7210  146.2030 C   0  0  0  0  0  2  0  0  0  0  0  0
  189.5160  177.0260  147.0920 C   0  0  0  0  0  1  0  0  0  0  0  0
  188.8570  176.5430  144.8770 F   0  0  0  0  0  0  0  0  0  0  0  0
  187.5490  175.8270  146.5730 F   0  0  0  0  0  0  0  0  0  0  0  0
  188.8520  176.0320  146.1620 C   0  0  0  0  0  0  0  0  0  0  0  0
  1 16  1  6  0  0  0
  1  3  1  0  0  0  0
  2  5  1  6  0  0  0
  3  5  1  0  0  0  0
  3 33  1  0  0  0  0
  4  1  1  0  0  0  0
  4  2  1  0  0  0  0
  6  7  1  1  0  0  0
  6  9  1  0  0  0  0
  6  2  1  0  0  0  0
  7 14  1  0  0  0  0
  8 14  2  0  0  0  0
  9 13  1  0  0  0  0
 10 13  1  0  0  0  0
 11  7  2  0  0  0  0
 12 11  1  0  0  0  0
 12  8  1  0  0  0  0
 14 10  1  0  0  0  0
 15 16  2  0  0  0  0
 17 16  1  0  0  0  0
 18 17  1  0  0  0  0
 19 18  1  0  0  0  0
 19 20  1  0  0  0  0
 21 22  1  6  0  0  0
 21 20  1  0  0  0  0
 21 23  1  0  0  0  0
 23 26  1  0  0  0  0
 24 28  1  0  0  0  0
 25 26  2  0  0  0  0
 25 29  1  0  0  0  0
 26 27  1  0  0  0  0
 27 28  2  0  0  0  0
 28 30  1  0  0  0  0
 29 24  2  0  0  0  0
 30 32  2  0  0  0  0
 30 31  1  0  0  0  0
 35 37  1  0  0  0  0
 37 33  1  0  0  0  0
 37 36  1  0  0  0  0
 37 34  1  0  0  0  0
M  END
>  <MODEL>
8

>  <REMARK>
 VINA RESULT:      -6.7      2.118      2.440
  Name = 
  12 active torsions:
  status: ('A' for Active; 'I' for Inactive)
    1  A    between atoms: C_1  and  C_27
    2  A    between atoms: C_2  and  N_8
    3  A    between atoms: C_2  and  C_35
    4  A    between atoms: C_3  and  C_4
    5  A    between atoms: C_5  and  C_32
    6  A    between atoms: C_7  and  N_15
    7  A    between atoms: C_7  and  C_26
    8  A    between atoms: C_11  and  C_18
    9  A    between atoms: C_11  and  C_29
   10  A    between atoms: N_15  and  C_18
   11  A    between atoms: C_24  and  C_29
   12  A    between atoms: C_26  and  C_27
                            x       y       z     vdW  Elec       q    Type
                         _______ _______ _______ _____ _____    ______ ____

>  <TORSDO>
F 12

$$$$
=
 OpenBabel11042418323D

 37 40  0  0  1  0  0  0  0  0999 V2000
  192.2260  174.6040  144.5050 C   0  0  2  0  0  3  0  0  0  0  0  0
  194.4930  175.1490  144.4070 C   0  0  2  0  0  3  0  0  0  0  0  0
  192.3930  175.8410  145.2610 N   0  0  0  0  0  0  0  0  0  0  0  0
  193.5190  174.1510  143.9980 N   0  0  0  0  0  2  0  0  0  0  0  0
  193.8200  175.9740  145.4760 C   0  0  0  0  0  2  0  0  0  0  0  0
  194.8790  176.0400  143.2190 C   0  0  2  0  0  3  0  0  0  0  0  0
  195.0420  175.2500  141.9570 C   0  0  0  0  0  0  0  0  0  0  0  0
  196.3490  174.3780  140.3380 N   0  0  0  0  0  0  0  0  0  0  0  0
  196.1410  176.7670  143.4920 N   0  0  0  0  0  2  0  0  0  0  0  0
  197.4700  175.3650  142.2310 N   0  0  0  0  0  2  0  0  0  0  0  0
  194.1570  174.8800  141.0530 C   0  0  0  0  0  3  0  0  0  0  0  0
  194.9440  174.2270  139.9400 C   0  0  0  0  0  2  0  0  0  0  0  0
  197.2410  175.8670  143.5320 N   0  0  0  0  0  2  0  0  0  0  0  0
  196.3360  174.9240  141.5000 C   0  0  0  0  0  0  0  0  0  0  0  0
  191.2430  175.8860  142.7800 O   0  0  0  0  0  0  0  0  0  0  0  0
  191.2780  174.8150  143.3640 C   0  0  0  0  0  0  0  0  0  0  0  0
  190.4020  173.6950  142.9030 C   0  0  0  0  0  2  0  0  0  0  0  0
  189.9060  173.9450  141.4870 C   0  0  0  0  0  2  0  0  0  0  0  0
  188.4600  174.0890  141.4810 N   0  0  0  0  0  2  0  0  0  0  0  0
  188.1840  175.5050  141.3120 C   0  0  0  0  0  2  0  0  0  0  0  0
  187.6360  176.0810  142.6020 C   0  0  2  0  0  3  0  0  0  0  0  0
  186.3040  175.6900  142.7600 O   0  0  0  0  0  1  0  0  0  0  0  0
  187.7240  177.5970  142.5470 C   0  0  0  0  0  2  0  0  0  0  0  0
  185.3880  179.4090  145.6510 C   0  0  0  0  0  3  0  0  0  0  0  0
  185.9630  179.2040  143.3100 C   0  0  0  0  0  3  0  0  0  0  0  0
  186.9040  178.2190  143.6250 C   0  0  0  0  0  0  0  0  0  0  0  0
  187.0880  177.8330  144.9570 C   0  0  0  0  0  3  0  0  0  0  0  0
  186.3320  178.4240  145.9780 C   0  0  0  0  0  0  0  0  0  0  0  0
  185.2050  179.7980  144.3220 C   0  0  0  0  0  3  0  0  0  0  0  0
  186.5320  178.0120  147.3760 C   0  0  0  0  0  0  0  0  0  0  0  0
  186.7390  178.9670  148.3650 O   0  0  0  0  0  1  0  0  0  0  0  0
  186.5150  176.7920  147.6910 O   0  0  0  0  0  0  0  0  0  0  0  0
  191.7840  175.6290  146.5660 C   0  0  0  0  0  2  0  0  0  0  0  0
  189.3350  175.3470  146.7600 C   0  0  0  0  0  1  0  0  0  0  0  0
  190.4370  177.1700  147.7790 F   0  0  0  0  0  0  0  0  0  0  0  0
  190.2640  177.1340  145.5270 F   0  0  0  0  0  0  0  0  0  0  0  0
  190.4540  176.3610  146.6570 C   0  0  0  0  0  0  0  0  0  0  0  0
  1 16  1  6  0  0  0
  1  3  1  0  0  0  0
  2  5  1  1  0  0  0
  3  5  1  0  0  0  0
  3 33  1  0  0  0  0
  4  2  1  0  0  0  0
  4  1  1  0  0  0  0
  6  7  1  6  0  0  0
  6  9  1  0  0  0  0
  6  2  1  0  0  0  0
  8 14  2  0  0  0  0
  9 13  1  0  0  0  0
 10 13  1  0  0  0  0
 11  7  2  0  0  0  0
 12  8  1  0  0  0  0
 12 11  1  0  0  0  0
 14  7  1  0  0  0  0
 14 10  1  0  0  0  0
 15 16  2  0  0  0  0
 17 16  1  0  0  0  0
 18 17  1  0  0  0  0
 19 18  1  0  0  0  0
 20 19  1  0  0  0  0
 20 21  1  0  0  0  0
 21 22  1  6  0  0  0
 23 21  1  0  0  0  0
 23 26  1  0  0  0  0
 24 28  1  0  0  0  0
 25 26  2  0  0  0  0
 25 29  1  0  0  0  0
 26 27  1  0  0  0  0
 27 28  2  0  0  0  0
 28 30  1  0  0  0  0
 29 24  2  0  0  0  0
 30 32  2  0  0  0  0
 30 31  1  0  0  0  0
 33 37  1  0  0  0  0
 36 37  1  0  0  0  0
 37 34  1  0  0  0  0
 37 35  1  0  0  0  0
M  END
>  <MODEL>
9

>  <REMARK>
 VINA RESULT:      -6.7      1.157      1.203
  Name = 
  12 active torsions:
  status: ('A' for Active; 'I' for Inactive)
    1  A    between atoms: C_1  and  C_27
    2  A    between atoms: C_2  and  N_8
    3  A    between atoms: C_2  and  C_35
    4  A    between atoms: C_3  and  C_4
    5  A    between atoms: C_5  and  C_32
    6  A    between atoms: C_7  and  N_15
    7  A    between atoms: C_7  and  C_26
    8  A    between atoms: C_11  and  C_18
    9  A    between atoms: C_11  and  C_29
   10  A    between atoms: N_15  and  C_18
   11  A    between atoms: C_24  and  C_29
   12  A    between atoms: C_26  and  C_27
                            x       y       z     vdW  Elec       q    Type
                         _______ _______ _______ _____ _____    ______ ____

>  <TORSDO>
F 12

$$$$
