=
 OpenBabel11042415513D

 34 38  0  0  1  0  0  0  0  0999 V2000
  192.4170  175.9900  145.9300 C   0  0  0  0  0  2  0  0  0  0  0  0
  193.9430  173.7230  145.1020 C   0  0  0  0  0  3  0  0  0  0  0  0
  190.5040  172.6610  144.0580 N   0  0  0  0  0  0  0  0  0  0  0  0
  194.6050  174.8470  145.4090 C   0  0  0  0  0  0  0  0  0  0  0  0
  190.3290  174.8590  145.0040 C   0  0  0  0  0  0  0  0  0  0  0  0
  189.7520  173.7420  144.3870 C   0  0  0  0  0  3  0  0  0  0  0  0
  191.8390  172.6040  144.3080 C   0  0  0  0  0  0  0  0  0  0  0  0
  191.7220  174.8450  145.2420 C   0  0  0  0  0  0  0  0  0  0  0  0
  194.5580  177.1810  146.3190 C   0  0  0  0  0  1  0  0  0  0  0  0
  192.4810  173.7140  144.8870 C   0  0  0  0  0  0  0  0  0  0  0  0
  193.8560  176.1610  145.4400 C   0  0  2  0  0  3  0  0  0  0  0  0
  185.5310  176.9200  145.9170 C   0  0  1  0  0  3  0  0  0  0  0  0
  187.6240  178.1690  145.6560 O   0  0  0  0  0  0  0  0  0  0  0  0
  189.1600  176.1930  146.7640 C   0  0  0  0  0  2  0  0  0  0  0  0
  187.6610  176.0490  146.9510 C   0  0  0  0  0  2  0  0  0  0  0  0
  187.9090  177.5910  144.4310 N   0  0  2  0  0  0  0  0  0  0  0  0
  189.4950  175.9810  145.3600 N   0  0  0  0  0  0  0  0  0  0  0  0
  186.9400  176.6060  143.9140 C   0  0  0  0  0  2  0  0  0  0  0  0
  185.5370  176.9370  144.3900 C   0  0  0  0  0  2  0  0  0  0  0  0
  186.8940  177.2990  146.5140 C   0  0  2  0  0  3  0  0  0  0  0  0
  189.2800  177.0680  144.3980 C   0  0  2  0  0  3  0  0  0  0  0  0
  190.1960  178.0980  144.6240 O   0  0  0  0  0  1  0  0  0  0  0  0
  184.4480  177.6300  146.4800 O   0  0  0  0  0  0  0  0  0  0  0  0
  184.0880  178.6810  145.6210 C   0  0  0  0  0  1  0  0  0  0  0  0
  192.6140  171.3880  143.8890 C   0  0  2  0  0  3  0  0  0  0  0  0
  193.0750  171.5290  142.4970 N   0  0  0  0  0  2  0  0  0  0  0  0
  192.3320  169.2350  142.8040 C   0  0  0  0  0  1  0  0  0  0  0  0
  191.9130  170.6890  142.8130 C   0  0  1  0  0  3  0  0  0  0  0  0
  195.9970  174.8540  145.6140 O   0  0  0  0  0  0  0  0  0  0  0  0
  196.9840  174.5590  144.6580 C   0  0  0  0  0  0  0  0  0  0  0  0
  197.9410  173.7820  144.9270 O   0  0  0  0  0  0  0  0  0  0  0  0
  196.8430  174.4480  142.2270 C   0  0  0  0  0  2  0  0  0  0  0  0
  196.8990  175.1860  143.3290 C   0  0  0  0  0  0  0  0  0  0  0  0
  196.8720  176.6690  143.2000 C   0  0  0  0  0  1  0  0  0  0  0  0
  2  4  2  0  0  0  0
  3  7  2  0  0  0  0
  3  6  1  0  0  0  0
  4 11  1  0  0  0  0
  4 29  1  0  0  0  0
  5  8  1  0  0  0  0
  5 17  1  0  0  0  0
  6  5  2  0  0  0  0
  7 10  1  0  0  0  0
  8  1  1  0  0  0  0
 10  2  1  0  0  0  0
 10  8  2  0  0  0  0
 11  1  1  0  0  0  0
 11  9  1  1  0  0  0
 12 23  1  1  0  0  0
 12 20  1  0  0  0  0
 13 20  1  0  0  0  0
 14 15  1  0  0  0  0
 16 18  1  1  0  0  0
 16 13  1  0  0  0  0
 17 14  1  0  0  0  0
 18 19  1  0  0  0  0
 19 12  1  0  0  0  0
 20 15  1  6  0  0  0
 21 16  1  0  0  0  0
 21 22  1  1  0  0  0
 21 17  1  0  0  0  0
 24 23  1  0  0  0  0
 25  7  1  6  0  0  0
 26 28  1  0  0  0  0
 26 25  1  0  0  0  0
 28 27  1  1  0  0  0
 28 25  1  0  0  0  0
 30 31  2  0  0  0  0
 30 29  1  0  0  0  0
 32 33  2  0  0  0  0
 33 30  1  0  0  0  0
 34 33  1  0  0  0  0
M  END
>  <MODEL>
1

>  <REMARK>
 VINA RESULT:      -7.5      0.000      0.000
  Name = 
  6 active torsions:
  status: ('A' for Active; 'I' for Inactive)
    1  A    between atoms: C_4  and  O_23
    2  A    between atoms: C_5  and  O_24
    3  A    between atoms: C_7  and  N_21
    4  A    between atoms: C_10  and  C_12
    5  A    between atoms: C_11  and  C_14
    6  A    between atoms: C_14  and  O_23
                            x       y       z     vdW  Elec       q    Type
                         _______ _______ _______ _____ _____    ______ ____

>  <TORSDO>
F 6

$$$$
=
 OpenBabel11042415513D

 34 38  0  0  1  0  0  0  0  0999 V2000
  190.7480  176.0100  145.0830 C   0  0  0  0  0  2  0  0  0  0  0  0
  188.0600  176.9420  144.8420 C   0  0  0  0  0  3  0  0  0  0  0  0
  188.5470  175.3600  141.4800 N   0  0  0  0  0  0  0  0  0  0  0  0
  188.6040  176.9030  146.0670 C   0  0  0  0  0  0  0  0  0  0  0  0
  190.5690  175.0390  142.7330 C   0  0  0  0  0  0  0  0  0  0  0  0
  189.8030  174.8540  141.5740 C   0  0  0  0  0  3  0  0  0  0  0  0
  187.9730  176.0670  142.4900 C   0  0  0  0  0  0  0  0  0  0  0  0
  189.9850  175.7370  143.8140 C   0  0  0  0  0  0  0  0  0  0  0  0
  190.6220  176.5360  147.5040 C   0  0  0  0  0  1  0  0  0  0  0  0
  188.6780  176.2480  143.6930 C   0  0  0  0  0  0  0  0  0  0  0  0
  189.8280  176.0480  146.3050 C   0  0  2  0  0  3  0  0  0  0  0  0
  195.0220  174.0580  145.4360 C   0  0  1  0  0  3  0  0  0  0  0  0
  194.7220  173.8710  143.0100 O   0  0  0  0  0  0  0  0  0  0  0  0
  192.0980  173.1200  143.2040 C   0  0  0  0  0  2  0  0  0  0  0  0
  192.8920  173.0860  144.4960 C   0  0  0  0  0  2  0  0  0  0  0  0
  194.2580  175.1690  142.8870 N   0  0  2  0  0  0  0  0  0  0  0  0
  191.9080  174.5060  142.7900 N   0  0  0  0  0  0  0  0  0  0  0  0
  194.1640  175.9660  144.1250 C   0  0  0  0  0  2  0  0  0  0  0  0
  195.2290  175.5370  145.1180 C   0  0  0  0  0  2  0  0  0  0  0  0
  194.3910  173.2880  144.2670 C   0  0  2  0  0  3  0  0  0  0  0  0
  193.0060  175.2130  142.1210 C   0  0  2  0  0  3  0  0  0  0  0  0
  193.2050  174.6920  140.8410 O   0  0  0  0  0  1  0  0  0  0  0  0
  196.1700  173.4350  145.9720 O   0  0  0  0  0  0  0  0  0  0  0  0
  197.3140  173.9620  145.3510 C   0  0  0  0  0  1  0  0  0  0  0  0
  186.5680  176.5720  142.3270 C   0  0  2  0  0  3  0  0  0  0  0  0
  186.3840  177.1480  140.9840 N   0  0  0  0  0  2  0  0  0  0  0  0
  185.2300  178.5810  142.5730 C   0  0  0  0  0  1  0  0  0  0  0  0
  186.5710  178.0230  142.1490 C   0  0  1  0  0  3  0  0  0  0  0  0
  188.0130  177.5630  147.1600 O   0  0  0  0  0  0  0  0  0  0  0  0
  186.6430  177.6120  147.4670 C   0  0  0  0  0  0  0  0  0  0  0  0
  186.0390  176.6010  147.9180 O   0  0  0  0  0  0  0  0  0  0  0  0
  184.9180  178.9300  146.3580 C   0  0  0  0  0  2  0  0  0  0  0  0
  185.9060  178.8660  147.2410 C   0  0  0  0  0  0  0  0  0  0  0  0
  186.2600  180.0910  148.0100 C   0  0  0  0  0  1  0  0  0  0  0  0
  1 11  1  0  0  0  0
  2  4  2  0  0  0  0
  3  6  2  0  0  0  0
  3  7  1  0  0  0  0
  4 11  1  0  0  0  0
  4 29  1  0  0  0  0
  5 17  1  0  0  0  0
  5  8  2  0  0  0  0
  6  5  1  0  0  0  0
  7 10  2  0  0  0  0
  8  1  1  0  0  0  0
 10  8  1  0  0  0  0
 10  2  1  0  0  0  0
 11  9  1  1  0  0  0
 12 23  1  6  0  0  0
 13 20  1  0  0  0  0
 14 15  1  0  0  0  0
 16 13  1  0  0  0  0
 16 18  1  1  0  0  0
 17 14  1  0  0  0  0
 18 19  1  0  0  0  0
 19 12  1  0  0  0  0
 20 15  1  1  0  0  0
 20 12  1  0  0  0  0
 21 22  1  6  0  0  0
 21 17  1  0  0  0  0
 21 16  1  0  0  0  0
 24 23  1  0  0  0  0
 25  7  1  6  0  0  0
 26 28  1  0  0  0  0
 26 25  1  0  0  0  0
 28 25  1  0  0  0  0
 28 27  1  1  0  0  0
 29 30  1  0  0  0  0
 30 31  2  0  0  0  0
 32 33  2  0  0  0  0
 33 30  1  0  0  0  0
 33 34  1  0  0  0  0
M  END
>  <MODEL>
2

>  <REMARK>
 VINA RESULT:      -7.1      2.296      8.329
  Name = 
  6 active torsions:
  status: ('A' for Active; 'I' for Inactive)
    1  A    between atoms: C_4  and  O_23
    2  A    between atoms: C_5  and  O_24
    3  A    between atoms: C_7  and  N_21
    4  A    between atoms: C_10  and  C_12
    5  A    between atoms: C_11  and  C_14
    6  A    between atoms: C_14  and  O_23
                            x       y       z     vdW  Elec       q    Type
                         _______ _______ _______ _____ _____    ______ ____

>  <TORSDO>
F 6

$$$$
=
 OpenBabel11042415513D

 34 38  0  0  1  0  0  0  0  0999 V2000
  190.7620  174.5470  142.9850 C   0  0  0  0  0  2  0  0  0  0  0  0
  188.1920  174.9270  141.8010 C   0  0  0  0  0  3  0  0  0  0  0  0
  188.1300  177.5740  144.4540 N   0  0  0  0  0  0  0  0  0  0  0  0
  189.0860  174.1840  141.1350 C   0  0  0  0  0  0  0  0  0  0  0  0
  190.2660  176.4850  144.5640 C   0  0  0  0  0  0  0  0  0  0  0  0
  189.3640  177.4620  145.0080 C   0  0  0  0  0  3  0  0  0  0  0  0
  187.7080  176.7550  143.4540 C   0  0  0  0  0  0  0  0  0  0  0  0
  189.8690  175.6440  143.5010 C   0  0  0  0  0  0  0  0  0  0  0  0
  191.3180  173.0470  141.0890 C   0  0  0  0  0  1  0  0  0  0  0  0
  188.5850  175.7840  142.9400 C   0  0  0  0  0  0  0  0  0  0  0  0
  190.5520  174.2950  141.4910 C   0  0  2  0  0  3  0  0  0  0  0  0
  195.1210  174.3670  144.7730 C   0  0  1  0  0  3  0  0  0  0  0  0
  194.0490  175.7210  146.5130 O   0  0  0  0  0  0  0  0  0  0  0  0
  192.6420  177.2420  144.7250 C   0  0  0  0  0  2  0  0  0  0  0  0
  193.7490  176.3860  144.1390 C   0  0  0  0  0  2  0  0  0  0  0  0
  192.9340  174.9040  146.5730 N   0  0  2  0  0  0  0  0  0  0  0  0
  191.5610  176.3800  145.1920 N   0  0  0  0  0  0  0  0  0  0  0  0
  192.9070  173.7400  145.6670 C   0  0  0  0  0  2  0  0  0  0  0  0
  194.3140  173.2350  145.4050 C   0  0  0  0  0  2  0  0  0  0  0  0
  194.6340  175.7540  145.2150 C   0  0  2  0  0  3  0  0  0  0  0  0
  191.6970  175.6890  146.4790 C   0  0  2  0  0  3  0  0  0  0  0  0
  191.6280  176.6100  147.5270 O   0  0  0  0  0  1  0  0  0  0  0  0
  196.5170  174.1920  144.8910 O   0  0  0  0  0  0  0  0  0  0  0  0
  196.7920  173.4280  146.0370 C   0  0  0  0  0  1  0  0  0  0  0  0
  186.3390  176.9570  142.8680 C   0  0  2  0  0  3  0  0  0  0  0  0
  186.3570  178.0660  141.8990 N   0  0  0  0  0  2  0  0  0  0  0  0
  184.3040  178.2390  143.1910 C   0  0  0  0  0  1  0  0  0  0  0  0
  185.8160  178.2680  143.2500 C   0  0  1  0  0  3  0  0  0  0  0  0
  188.7100  173.3690  140.0510 O   0  0  0  0  0  0  0  0  0  0  0  0
  188.6710  173.7430  138.6970 C   0  0  0  0  0  0  0  0  0  0  0  0
  187.8230  174.5760  138.2740 O   0  0  0  0  0  0  0  0  0  0  0  0
  190.4250  173.8890  137.0110 C   0  0  0  0  0  2  0  0  0  0  0  0
  189.6310  173.1360  137.7620 C   0  0  0  0  0  0  0  0  0  0  0  0
  189.7300  171.6540  137.6470 C   0  0  0  0  0  1  0  0  0  0  0  0
  1  8  1  0  0  0  0
  2 10  1  0  0  0  0
  3  6  1  0  0  0  0
  4 11  1  0  0  0  0
  4  2  2  0  0  0  0
  5  6  2  0  0  0  0
  5 17  1  0  0  0  0
  7  3  2  0  0  0  0
  8  5  1  0  0  0  0
 10  7  1  0  0  0  0
 10  8  2  0  0  0  0
 11  9  1  1  0  0  0
 11  1  1  0  0  0  0
 12 23  1  1  0  0  0
 12 20  1  0  0  0  0
 12 19  1  0  0  0  0
 13 16  1  0  0  0  0
 14 17  1  0  0  0  0
 15 14  1  0  0  0  0
 16 18  1  6  0  0  0
 17 21  1  0  0  0  0
 19 18  1  0  0  0  0
 20 15  1  6  0  0  0
 20 13  1  0  0  0  0
 21 16  1  0  0  0  0
 21 22  1  1  0  0  0
 23 24  1  0  0  0  0
 25 28  1  0  0  0  0
 25  7  1  1  0  0  0
 26 25  1  0  0  0  0
 26 28  1  0  0  0  0
 28 27  1  6  0  0  0
 29  4  1  0  0  0  0
 30 29  1  0  0  0  0
 31 30  2  0  0  0  0
 32 33  2  0  0  0  0
 33 30  1  0  0  0  0
 34 33  1  0  0  0  0
M  END
>  <MODEL>
3

>  <REMARK>
 VINA RESULT:      -7.1      3.313      7.927
  Name = 
  6 active torsions:
  status: ('A' for Active; 'I' for Inactive)
    1  A    between atoms: C_4  and  O_23
    2  A    between atoms: C_5  and  O_24
    3  A    between atoms: C_7  and  N_21
    4  A    between atoms: C_10  and  C_12
    5  A    between atoms: C_11  and  C_14
    6  A    between atoms: C_14  and  O_23
                            x       y       z     vdW  Elec       q    Type
                         _______ _______ _______ _____ _____    ______ ____

>  <TORSDO>
F 6

$$$$
=
 OpenBabel11042415513D

 34 38  0  0  1  0  0  0  0  0999 V2000
  189.1590  175.8430  143.3500 C   0  0  0  0  0  2  0  0  0  0  0  0
  186.7100  177.0460  144.1920 C   0  0  0  0  0  3  0  0  0  0  0  0
  188.8590  177.6770  147.1970 N   0  0  0  0  0  0  0  0  0  0  0  0
  186.8500  176.7510  142.8920 C   0  0  0  0  0  0  0  0  0  0  0  0
  190.2080  176.5510  145.5620 C   0  0  0  0  0  0  0  0  0  0  0  0
  190.0560  177.1650  146.8130 C   0  0  0  0  0  3  0  0  0  0  0  0
  187.7580  177.6210  146.4010 C   0  0  0  0  0  0  0  0  0  0  0  0
  189.0920  176.5120  144.6970 C   0  0  0  0  0  0  0  0  0  0  0  0
  188.1910  175.6680  141.0730 C   0  0  0  0  0  1  0  0  0  0  0  0
  187.8620  177.0550  145.1170 C   0  0  0  0  0  0  0  0  0  0  0  0
  188.2360  176.5150  142.3330 C   0  0  2  0  0  3  0  0  0  0  0  0
  193.3720  174.2300  141.9980 C   0  0  1  0  0  3  0  0  0  0  0  0
  193.8260  174.4920  144.3930 O   0  0  0  0  0  0  0  0  0  0  0  0
  192.4830  176.8690  144.5790 C   0  0  0  0  0  2  0  0  0  0  0  0
  192.7730  176.3820  143.1720 C   0  0  0  0  0  2  0  0  0  0  0  0
  192.6390  173.8860  144.7650 N   0  0  2  0  0  0  0  0  0  0  0  0
  191.4890  175.9980  145.1970 N   0  0  0  0  0  0  0  0  0  0  0  0
  191.7540  173.4220  143.6790 C   0  0  0  0  0  2  0  0  0  0  0  0
  192.5680  173.0180  142.4630 C   0  0  0  0  0  2  0  0  0  0  0  0
  193.7220  175.1820  143.1520 C   0  0  2  0  0  3  0  0  0  0  0  0
  191.9100  174.7030  145.7430 C   0  0  2  0  0  3  0  0  0  0  0  0
  192.6870  174.8930  146.8880 O   0  0  0  0  0  1  0  0  0  0  0  0
  194.4780  173.8910  141.1880 O   0  0  0  0  0  0  0  0  0  0  0  0
  194.9400  172.6150  141.5490 C   0  0  0  0  0  1  0  0  0  0  0  0
  186.4730  178.2360  146.8790 C   0  0  2  0  0  3  0  0  0  0  0  0
  186.0430  177.6060  148.1390 N   0  0  0  0  0  2  0  0  0  0  0  0
  184.0670  177.9420  146.7630 C   0  0  0  0  0  1  0  0  0  0  0  0
  185.4040  177.2390  146.8690 C   0  0  1  0  0  3  0  0  0  0  0  0
  185.7520  176.7430  142.0120 O   0  0  0  0  0  0  0  0  0  0  0  0
  185.1240  177.8670  141.4490 C   0  0  0  0  0  0  0  0  0  0  0  0
  185.6660  178.5180  140.5140 O   0  0  0  0  0  0  0  0  0  0  0  0
  183.6810  178.6810  143.2370 C   0  0  0  0  0  2  0  0  0  0  0  0
  183.8160  178.2910  141.9760 C   0  0  0  0  0  0  0  0  0  0  0  0
  182.6170  178.2910  141.0940 C   0  0  0  0  0  1  0  0  0  0  0  0
  1  8  1  0  0  0  0
  2 10  1  0  0  0  0
  4  2  2  0  0  0  0
  5  6  2  0  0  0  0
  6  3  1  0  0  0  0
  7  3  2  0  0  0  0
  8 10  2  0  0  0  0
  8  5  1  0  0  0  0
 10  7  1  0  0  0  0
 11  9  1  6  0  0  0
 11  4  1  0  0  0  0
 11  1  1  0  0  0  0
 12 23  1  1  0  0  0
 12 19  1  0  0  0  0
 12 20  1  0  0  0  0
 13 16  1  0  0  0  0
 14 17  1  0  0  0  0
 15 14  1  0  0  0  0
 16 18  1  6  0  0  0
 16 21  1  0  0  0  0
 17  5  1  0  0  0  0
 17 21  1  0  0  0  0
 19 18  1  0  0  0  0
 20 15  1  1  0  0  0
 20 13  1  0  0  0  0
 21 22  1  1  0  0  0
 23 24  1  0  0  0  0
 25  7  1  6  0  0  0
 25 26  1  0  0  0  0
 28 27  1  1  0  0  0
 28 25  1  0  0  0  0
 28 26  1  0  0  0  0
 29  4  1  0  0  0  0
 30 33  1  0  0  0  0
 30 29  1  0  0  0  0
 31 30  2  0  0  0  0
 33 32  2  0  0  0  0
 34 33  1  0  0  0  0
M  END
>  <MODEL>
4

>  <REMARK>
 VINA RESULT:      -7.0      2.662      8.901
  Name = 
  6 active torsions:
  status: ('A' for Active; 'I' for Inactive)
    1  A    between atoms: C_4  and  O_23
    2  A    between atoms: C_5  and  O_24
    3  A    between atoms: C_7  and  N_21
    4  A    between atoms: C_10  and  C_12
    5  A    between atoms: C_11  and  C_14
    6  A    between atoms: C_14  and  O_23
                            x       y       z     vdW  Elec       q    Type
                         _______ _______ _______ _____ _____    ______ ____

>  <TORSDO>
F 6

$$$$
=
 OpenBabel11042415513D

 34 38  0  0  1  0  0  0  0  0999 V2000
  189.5940  175.4160  143.5830 C   0  0  0  0  0  2  0  0  0  0  0  0
  187.1610  176.7820  144.1860 C   0  0  0  0  0  3  0  0  0  0  0  0
  189.1600  177.5410  147.2640 N   0  0  0  0  0  0  0  0  0  0  0  0
  187.3620  176.3860  142.9210 C   0  0  0  0  0  0  0  0  0  0  0  0
  190.5470  176.2400  145.7990 C   0  0  0  0  0  0  0  0  0  0  0  0
  190.3520  176.9500  146.9910 C   0  0  0  0  0  3  0  0  0  0  0  0
  188.1060  177.4730  146.4080 C   0  0  0  0  0  0  0  0  0  0  0  0
  189.4810  176.1850  144.8720 C   0  0  0  0  0  0  0  0  0  0  0  0
  188.7520  175.1160  141.2690 C   0  0  0  0  0  1  0  0  0  0  0  0
  188.2570  176.8100  145.1770 C   0  0  0  0  0  0  0  0  0  0  0  0
  188.7640  176.0510  142.4650 C   0  0  2  0  0  3  0  0  0  0  0  0
  195.4360  176.3750  143.7550 C   0  0  1  0  0  3  0  0  0  0  0  0
  194.2700  174.3940  144.6080 O   0  0  0  0  0  0  0  0  0  0  0  0
  192.8980  175.7930  146.5180 C   0  0  0  0  0  2  0  0  0  0  0  0
  194.0440  176.5310  145.8530 C   0  0  0  0  0  2  0  0  0  0  0  0
  193.1720  174.5900  143.7900 N   0  0  2  0  0  0  0  0  0  0  0  0
  191.8190  175.6070  145.5520 N   0  0  0  0  0  0  0  0  0  0  0  0
  193.2040  175.7620  142.8950 C   0  0  0  0  0  2  0  0  0  0  0  0
  194.6310  176.0850  142.4900 C   0  0  0  0  0  2  0  0  0  0  0  0
  194.9020  175.6150  144.9780 C   0  0  2  0  0  3  0  0  0  0  0  0
  191.9220  174.5330  144.5580 C   0  0  2  0  0  3  0  0  0  0  0  0
  191.7940  173.2890  145.1800 O   0  0  0  0  0  1  0  0  0  0  0  0
  196.8300  176.2470  143.5730 O   0  0  0  0  0  0  0  0  0  0  0  0
  197.0820  175.7090  142.3000 C   0  0  0  0  0  1  0  0  0  0  0  0
  186.8260  178.1770  146.7620 C   0  0  2  0  0  3  0  0  0  0  0  0
  186.3220  177.6980  148.0600 N   0  0  0  0  0  2  0  0  0  0  0  0
  184.4180  177.9510  146.5700 C   0  0  0  0  0  1  0  0  0  0  0  0
  185.7220  177.2200  146.8080 C   0  0  1  0  0  3  0  0  0  0  0  0
  186.3170  176.3610  141.9790 O   0  0  0  0  0  0  0  0  0  0  0  0
  185.8620  177.4420  141.2050 C   0  0  0  0  0  0  0  0  0  0  0  0
  186.5730  177.9290  140.2830 O   0  0  0  0  0  0  0  0  0  0  0  0
  183.6850  178.2910  140.5130 C   0  0  0  0  0  2  0  0  0  0  0  0
  184.5380  178.0160  141.4910 C   0  0  0  0  0  0  0  0  0  0  0  0
  184.1320  178.2970  142.8960 C   0  0  0  0  0  1  0  0  0  0  0  0
  1  8  1  0  0  0  0
  2 10  1  0  0  0  0
  4  2  2  0  0  0  0
  5  6  2  0  0  0  0
  6  3  1  0  0  0  0
  7  3  2  0  0  0  0
  8 10  2  0  0  0  0
  8  5  1  0  0  0  0
 10  7  1  0  0  0  0
 11  9  1  6  0  0  0
 11  4  1  0  0  0  0
 11  1  1  0  0  0  0
 12 23  1  6  0  0  0
 12 20  1  0  0  0  0
 13 20  1  0  0  0  0
 15 14  1  0  0  0  0
 16 18  1  1  0  0  0
 16 21  1  0  0  0  0
 16 13  1  0  0  0  0
 17  5  1  0  0  0  0
 17 14  1  0  0  0  0
 19 18  1  0  0  0  0
 19 12  1  0  0  0  0
 20 15  1  6  0  0  0
 21 22  1  1  0  0  0
 21 17  1  0  0  0  0
 24 23  1  0  0  0  0
 25  7  1  6  0  0  0
 25 28  1  0  0  0  0
 25 26  1  0  0  0  0
 28 27  1  1  0  0  0
 28 26  1  0  0  0  0
 29  4  1  0  0  0  0
 30 33  1  0  0  0  0
 30 29  1  0  0  0  0
 31 30  2  0  0  0  0
 32 33  2  0  0  0  0
 33 34  1  0  0  0  0
M  END
>  <MODEL>
5

>  <REMARK>
 VINA RESULT:      -6.9      2.545      8.755
  Name = 
  6 active torsions:
  status: ('A' for Active; 'I' for Inactive)
    1  A    between atoms: C_4  and  O_23
    2  A    between atoms: C_5  and  O_24
    3  A    between atoms: C_7  and  N_21
    4  A    between atoms: C_10  and  C_12
    5  A    between atoms: C_11  and  C_14
    6  A    between atoms: C_14  and  O_23
                            x       y       z     vdW  Elec       q    Type
                         _______ _______ _______ _____ _____    ______ ____

>  <TORSDO>
F 6

$$$$
=
 OpenBabel11042415513D

 34 38  0  0  1  0  0  0  0  0999 V2000
  188.0010  175.7530  142.3430 C   0  0  0  0  0  2  0  0  0  0  0  0
  186.4640  177.5000  143.9980 C   0  0  0  0  0  3  0  0  0  0  0  0
  188.6620  175.8760  146.5620 N   0  0  0  0  0  0  0  0  0  0  0  0
  186.4340  177.7010  142.6730 C   0  0  0  0  0  0  0  0  0  0  0  0
  189.2760  174.9940  144.4160 C   0  0  0  0  0  0  0  0  0  0  0  0
  189.4510  175.0730  145.8040 C   0  0  0  0  0  3  0  0  0  0  0  0
  187.6710  176.6350  146.0230 C   0  0  0  0  0  0  0  0  0  0  0  0
  188.2790  175.8010  143.8220 C   0  0  0  0  0  0  0  0  0  0  0  0
  187.0590  176.9290  140.3730 C   0  0  0  0  0  1  0  0  0  0  0  0
  187.4770  176.6290  144.6300 C   0  0  0  0  0  0  0  0  0  0  0  0
  187.5210  177.1040  141.8090 C   0  0  2  0  0  3  0  0  0  0  0  0
  191.0040  173.2090  139.7340 C   0  0  1  0  0  3  0  0  0  0  0  0
  191.4090  172.1800  141.9210 O   0  0  0  0  0  0  0  0  0  0  0  0
  191.4450  174.5730  143.2490 C   0  0  0  0  0  2  0  0  0  0  0  0
  191.5170  174.6550  141.7360 C   0  0  0  0  0  2  0  0  0  0  0  0
  190.0620  172.1200  142.2320 N   0  0  2  0  0  0  0  0  0  0  0  0
  190.1180  174.1120  143.6450 N   0  0  0  0  0  0  0  0  0  0  0  0
  189.1200  172.6450  141.2250 C   0  0  0  0  0  2  0  0  0  0  0  0
  189.6770  172.4610  139.8250 C   0  0  0  0  0  2  0  0  0  0  0  0
  191.7300  173.2870  141.0850 C   0  0  2  0  0  3  0  0  0  0  0  0
  189.7990  172.6830  143.5620 C   0  0  2  0  0  3  0  0  0  0  0  0
  190.5080  171.9750  144.5340 O   0  0  0  0  0  1  0  0  0  0  0  0
  191.8260  172.7650  138.6740 O   0  0  0  0  0  0  0  0  0  0  0  0
  192.3800  173.8780  138.0220 C   0  0  0  0  0  1  0  0  0  0  0  0
  186.8570  177.5240  146.9190 C   0  0  2  0  0  3  0  0  0  0  0  0
  186.1950  176.7270  147.9660 N   0  0  0  0  0  2  0  0  0  0  0  0
  184.6110  178.4020  147.1930 C   0  0  0  0  0  1  0  0  0  0  0  0
  185.4370  177.1970  146.7990 C   0  0  1  0  0  3  0  0  0  0  0  0
  185.4680  178.5310  142.0730 O   0  0  0  0  0  0  0  0  0  0  0  0
  184.0930  178.5600  142.3620 C   0  0  0  0  0  0  0  0  0  0  0  0
  183.6750  178.8530  143.5160 O   0  0  0  0  0  0  0  0  0  0  0  0
  183.5490  177.8090  140.1080 C   0  0  0  0  0  2  0  0  0  0  0  0
  183.1330  178.2260  141.2970 C   0  0  0  0  0  0  0  0  0  0  0  0
  181.6700  178.3490  141.5430 C   0  0  0  0  0  1  0  0  0  0  0  0
  1  8  1  0  0  0  0
  2 10  1  0  0  0  0
  4  2  2  0  0  0  0
  5  6  1  0  0  0  0
  6  3  2  0  0  0  0
  7  3  1  0  0  0  0
  8  5  2  0  0  0  0
  8 10  1  0  0  0  0
 10  7  2  0  0  0  0
 11  9  1  6  0  0  0
 11  1  1  0  0  0  0
 11  4  1  0  0  0  0
 12 23  1  6  0  0  0
 12 19  1  0  0  0  0
 12 20  1  0  0  0  0
 13 16  1  0  0  0  0
 14 17  1  0  0  0  0
 15 14  1  0  0  0  0
 16 18  1  6  0  0  0
 16 21  1  0  0  0  0
 17  5  1  0  0  0  0
 19 18  1  0  0  0  0
 20 15  1  1  0  0  0
 20 13  1  0  0  0  0
 21 17  1  0  0  0  0
 21 22  1  1  0  0  0
 24 23  1  0  0  0  0
 25  7  1  6  0  0  0
 25 26  1  0  0  0  0
 28 25  1  0  0  0  0
 28 27  1  1  0  0  0
 28 26  1  0  0  0  0
 29 30  1  0  0  0  0
 29  4  1  0  0  0  0
 30 31  2  0  0  0  0
 32 33  2  0  0  0  0
 33 34  1  0  0  0  0
 33 30  1  0  0  0  0
M  END
>  <MODEL>
6

>  <REMARK>
 VINA RESULT:      -6.8      3.594      9.131
  Name = 
  6 active torsions:
  status: ('A' for Active; 'I' for Inactive)
    1  A    between atoms: C_4  and  O_23
    2  A    between atoms: C_5  and  O_24
    3  A    between atoms: C_7  and  N_21
    4  A    between atoms: C_10  and  C_12
    5  A    between atoms: C_11  and  C_14
    6  A    between atoms: C_14  and  O_23
                            x       y       z     vdW  Elec       q    Type
                         _______ _______ _______ _____ _____    ______ ____

>  <TORSDO>
F 6

$$$$
=
 OpenBabel11042415513D

 34 38  0  0  1  0  0  0  0  0999 V2000
  190.5160  175.6230  144.6630 C   0  0  0  0  0  2  0  0  0  0  0  0
  191.9240  173.1610  144.3310 C   0  0  0  0  0  3  0  0  0  0  0  0
  189.3240  172.8380  141.6510 N   0  0  0  0  0  0  0  0  0  0  0  0
  192.4990  174.1180  145.0720 C   0  0  0  0  0  0  0  0  0  0  0  0
  189.0130  174.9690  142.7120 C   0  0  0  0  0  0  0  0  0  0  0  0
  188.6640  174.0200  141.7410 C   0  0  0  0  0  3  0  0  0  0  0  0
  190.3450  172.5130  142.4880 C   0  0  0  0  0  0  0  0  0  0  0  0
  190.0960  174.6750  143.5710 C   0  0  0  0  0  0  0  0  0  0  0  0
  192.3350  176.3590  146.1810 C   0  0  0  0  0  1  0  0  0  0  0  0
  190.7680  173.4430  143.4550 C   0  0  0  0  0  0  0  0  0  0  0  0
  192.0190  175.5460  144.9380 C   0  0  2  0  0  3  0  0  0  0  0  0
  184.6770  177.8170  141.6280 C   0  0  1  0  0  3  0  0  0  0  0  0
  186.8050  178.6780  142.4870 O   0  0  0  0  0  0  0  0  0  0  0  0
  187.3630  176.4100  143.9120 C   0  0  0  0  0  2  0  0  0  0  0  0
  185.9440  176.5300  143.3890 C   0  0  0  0  0  2  0  0  0  0  0  0
  187.5400  178.1160  141.4580 N   0  0  2  0  0  0  0  0  0  0  0  0
  188.2750  176.2050  142.7920 N   0  0  0  0  0  0  0  0  0  0  0  0
  186.7920  177.3460  140.4450 C   0  0  0  0  0  2  0  0  0  0  0  0
  185.3900  177.9020  140.2800 C   0  0  0  0  0  2  0  0  0  0  0  0
  185.6470  177.9170  142.8130 C   0  0  2  0  0  3  0  0  0  0  0  0
  188.6830  177.3550  141.9780 C   0  0  2  0  0  3  0  0  0  0  0  0
  189.5240  178.1920  142.7150 O   0  0  0  0  0  1  0  0  0  0  0  0
  183.5670  178.6850  141.7300 O   0  0  0  0  0  0  0  0  0  0  0  0
  182.5610  178.2520  140.8500 C   0  0  0  0  0  1  0  0  0  0  0  0
  191.0500  171.1990  142.3120 C   0  0  2  0  0  3  0  0  0  0  0  0
  192.0240  171.2860  141.2110 N   0  0  0  0  0  2  0  0  0  0  0  0
  190.9190  169.1250  141.0580 C   0  0  0  0  0  1  0  0  0  0  0  0
  190.7290  170.6260  141.0060 C   0  0  1  0  0  3  0  0  0  0  0  0
  193.6000  173.8470  145.9050 O   0  0  0  0  0  0  0  0  0  0  0  0
  194.9350  173.6780  145.5000 C   0  0  0  0  0  0  0  0  0  0  0  0
  195.5960  174.6360  145.0130 O   0  0  0  0  0  0  0  0  0  0  0  0
  196.8620  172.2270  145.8510 C   0  0  0  0  0  2  0  0  0  0  0  0
  195.5590  172.3520  145.6370 C   0  0  0  0  0  0  0  0  0  0  0  0
  194.7280  171.1200  145.5390 C   0  0  0  0  0  1  0  0  0  0  0  0
  1 11  1  0  0  0  0
  2  4  2  0  0  0  0
  3  6  2  0  0  0  0
  3  7  1  0  0  0  0
  4 29  1  0  0  0  0
  5 17  1  0  0  0  0
  5  8  2  0  0  0  0
  6  5  1  0  0  0  0
  7 10  2  0  0  0  0
  8  1  1  0  0  0  0
 10  8  1  0  0  0  0
 10  2  1  0  0  0  0
 11  4  1  0  0  0  0
 11  9  1  1  0  0  0
 12 23  1  1  0  0  0
 12 20  1  0  0  0  0
 13 20  1  0  0  0  0
 15 14  1  0  0  0  0
 16 18  1  1  0  0  0
 16 21  1  0  0  0  0
 16 13  1  0  0  0  0
 17 14  1  0  0  0  0
 19 18  1  0  0  0  0
 19 12  1  0  0  0  0
 20 15  1  6  0  0  0
 21 22  1  1  0  0  0
 21 17  1  0  0  0  0
 24 23  1  0  0  0  0
 25  7  1  6  0  0  0
 26 25  1  0  0  0  0
 28 27  1  1  0  0  0
 28 26  1  0  0  0  0
 28 25  1  0  0  0  0
 30 33  1  0  0  0  0
 30 29  1  0  0  0  0
 31 30  2  0  0  0  0
 33 32  2  0  0  0  0
 34 33  1  0  0  0  0
M  END
>  <MODEL>
7

>  <REMARK>
 VINA RESULT:      -6.8      2.424      3.235
  Name = 
  6 active torsions:
  status: ('A' for Active; 'I' for Inactive)
    1  A    between atoms: C_4  and  O_23
    2  A    between atoms: C_5  and  O_24
    3  A    between atoms: C_7  and  N_21
    4  A    between atoms: C_10  and  C_12
    5  A    between atoms: C_11  and  C_14
    6  A    between atoms: C_14  and  O_23
                            x       y       z     vdW  Elec       q    Type
                         _______ _______ _______ _____ _____    ______ ____

>  <TORSDO>
F 6

$$$$
=
 OpenBabel11042415513D

 34 38  0  0  1  0  0  0  0  0999 V2000
  192.6540  175.3490  145.3720 C   0  0  0  0  0  2  0  0  0  0  0  0
  193.8970  173.0090  144.3110 C   0  0  0  0  0  3  0  0  0  0  0  0
  190.3000  172.2890  143.5440 N   0  0  0  0  0  0  0  0  0  0  0  0
  194.6790  174.0570  144.6020 C   0  0  0  0  0  0  0  0  0  0  0  0
  190.4020  174.4440  144.5960 C   0  0  0  0  0  0  0  0  0  0  0  0
  189.6770  173.4110  143.9870 C   0  0  0  0  0  3  0  0  0  0  0  0
  191.6420  172.1100  143.6670 C   0  0  0  0  0  0  0  0  0  0  0  0
  191.8030  174.3030  144.7030 C   0  0  0  0  0  0  0  0  0  0  0  0
  194.9170  176.3380  145.6120 C   0  0  0  0  0  1  0  0  0  0  0  0
  192.4270  173.1320  144.2310 C   0  0  0  0  0  0  0  0  0  0  0  0
  194.0540  175.4250  144.7590 C   0  0  2  0  0  3  0  0  0  0  0  0
  185.9210  176.8120  146.1480 C   0  0  1  0  0  3  0  0  0  0  0  0
  188.0500  177.9170  145.6450 O   0  0  0  0  0  0  0  0  0  0  0  0
  189.5640  175.8100  146.5140 C   0  0  0  0  0  2  0  0  0  0  0  0
  188.0940  175.7660  146.8870 C   0  0  0  0  0  2  0  0  0  0  0  0
  188.1360  177.3540  144.3840 N   0  0  2  0  0  0  0  0  0  0  0  0
  189.7030  175.6120  145.0750 N   0  0  0  0  0  0  0  0  0  0  0  0
  187.0400  176.4540  143.9770 C   0  0  0  0  0  2  0  0  0  0  0  0
  185.7360  176.8700  144.6340 C   0  0  0  0  0  2  0  0  0  0  0  0
  187.3720  177.0780  146.5740 C   0  0  2  0  0  3  0  0  0  0  0  0
  189.4500  176.7370  144.1670 C   0  0  2  0  0  3  0  0  0  0  0  0
  190.4590  177.6930  144.2930 O   0  0  0  0  0  1  0  0  0  0  0  0
  184.9720  177.5810  146.8580 O   0  0  0  0  0  0  0  0  0  0  0  0
  184.4650  178.5820  146.0130 C   0  0  0  0  0  1  0  0  0  0  0  0
  192.2680  170.8560  143.1270 C   0  0  2  0  0  3  0  0  0  0  0  0
  192.5450  171.0020  141.6880 N   0  0  0  0  0  2  0  0  0  0  0  0
  191.6950  168.7540  142.0570 C   0  0  0  0  0  1  0  0  0  0  0  0
  191.3810  170.2320  142.1460 C   0  0  1  0  0  3  0  0  0  0  0  0
  196.0790  173.9380  144.6770 O   0  0  0  0  0  0  0  0  0  0  0  0
  196.8060  173.1880  145.6180 C   0  0  0  0  0  0  0  0  0  0  0  0
  197.1910  173.7010  146.7050 O   0  0  0  0  0  0  0  0  0  0  0  0
  197.9410  171.4730  144.3100 C   0  0  0  0  0  2  0  0  0  0  0  0
  197.1310  171.7850  145.3130 C   0  0  0  0  0  0  0  0  0  0  0  0
  196.5520  170.6870  146.1360 C   0  0  0  0  0  1  0  0  0  0  0  0
  2  4  2  0  0  0  0
  3  7  2  0  0  0  0
  3  6  1  0  0  0  0
  4 29  1  0  0  0  0
  4 11  1  0  0  0  0
  5  8  1  0  0  0  0
  5 17  1  0  0  0  0
  6  5  2  0  0  0  0
  7 10  1  0  0  0  0
  8  1  1  0  0  0  0
 10  2  1  0  0  0  0
 10  8  2  0  0  0  0
 11  1  1  0  0  0  0
 11  9  1  1  0  0  0
 12 20  1  0  0  0  0
 12 23  1  1  0  0  0
 13 20  1  0  0  0  0
 14 15  1  0  0  0  0
 16 18  1  1  0  0  0
 16 13  1  0  0  0  0
 17 14  1  0  0  0  0
 18 19  1  0  0  0  0
 19 12  1  0  0  0  0
 20 15  1  6  0  0  0
 21 22  1  1  0  0  0
 21 16  1  0  0  0  0
 21 17  1  0  0  0  0
 24 23  1  0  0  0  0
 25  7  1  6  0  0  0
 26 28  1  0  0  0  0
 26 25  1  0  0  0  0
 28 27  1  1  0  0  0
 28 25  1  0  0  0  0
 29 30  1  0  0  0  0
 30 31  2  0  0  0  0
 32 33  2  0  0  0  0
 33 30  1  0  0  0  0
 33 34  1  0  0  0  0
M  END
>  <MODEL>
8

>  <REMARK>
 VINA RESULT:      -6.8      1.316      1.706
  Name = 
  6 active torsions:
  status: ('A' for Active; 'I' for Inactive)
    1  A    between atoms: C_4  and  O_23
    2  A    between atoms: C_5  and  O_24
    3  A    between atoms: C_7  and  N_21
    4  A    between atoms: C_10  and  C_12
    5  A    between atoms: C_11  and  C_14
    6  A    between atoms: C_14  and  O_23
                            x       y       z     vdW  Elec       q    Type
                         _______ _______ _______ _____ _____    ______ ____

>  <TORSDO>
F 6

$$$$
=
 OpenBabel11042415513D

 34 38  0  0  1  0  0  0  0  0999 V2000
  188.8240  176.9230  142.9160 C   0  0  0  0  0  2  0  0  0  0  0  0
  186.5980  178.0800  144.2790 C   0  0  0  0  0  3  0  0  0  0  0  0
  188.8500  177.2990  147.1710 N   0  0  0  0  0  0  0  0  0  0  0  0
  186.6780  178.2480  142.9520 C   0  0  0  0  0  0  0  0  0  0  0  0
  189.9930  176.6480  145.1640 C   0  0  0  0  0  0  0  0  0  0  0  0
  189.9500  176.7940  146.5570 C   0  0  0  0  0  3  0  0  0  0  0  0
  187.7450  177.6840  146.4780 C   0  0  0  0  0  0  0  0  0  0  0  0
  188.8750  177.0750  144.4130 C   0  0  0  0  0  0  0  0  0  0  0  0
  187.8170  177.7030  140.7880 C   0  0  0  0  0  1  0  0  0  0  0  0
  187.7480  177.6000  145.0740 C   0  0  0  0  0  0  0  0  0  0  0  0
  188.0050  178.0350  142.2580 C   0  0  2  0  0  3  0  0  0  0  0  0
  194.5540  173.9730  145.5400 C   0  0  1  0  0  3  0  0  0  0  0  0
  193.7690  175.2430  143.5960 O   0  0  0  0  0  0  0  0  0  0  0  0
  191.1290  174.7070  144.0760 C   0  0  0  0  0  2  0  0  0  0  0  0
  192.1260  173.8770  144.8620 C   0  0  0  0  0  2  0  0  0  0  0  0
  193.5830  176.4020  144.3280 N   0  0  2  0  0  0  0  0  0  0  0  0
  191.1700  176.0870  144.5480 N   0  0  0  0  0  0  0  0  0  0  0  0
  193.9000  176.3430  145.7680 C   0  0  0  0  0  2  0  0  0  0  0  0
  195.0140  175.3450  146.0280 C   0  0  0  0  0  2  0  0  0  0  0  0
  193.5620  174.0670  144.3710 C   0  0  2  0  0  3  0  0  0  0  0  0
  192.2500  176.9700  144.0920 C   0  0  2  0  0  3  0  0  0  0  0  0
  192.0860  177.2710  142.7390 O   0  0  0  0  0  1  0  0  0  0  0  0
  195.6190  173.0750  145.3090 O   0  0  0  0  0  0  0  0  0  0  0  0
  195.2560  172.1810  144.2880 C   0  0  0  0  0  1  0  0  0  0  0  0
  186.5750  178.2630  147.2210 C   0  0  2  0  0  3  0  0  0  0  0  0
  186.0270  177.2720  148.1630 N   0  0  0  0  0  2  0  0  0  0  0  0
  184.1560  178.4280  147.1260 C   0  0  0  0  0  1  0  0  0  0  0  0
  185.3530  177.5340  146.8840 C   0  0  1  0  0  3  0  0  0  0  0  0
  185.5820  178.7060  142.1960 O   0  0  0  0  0  0  0  0  0  0  0  0
  184.2220  178.5150  142.4940 C   0  0  0  0  0  0  0  0  0  0  0  0
  183.7950  178.5990  143.6790 O   0  0  0  0  0  0  0  0  0  0  0  0
  181.9780  178.2180  141.5910 C   0  0  0  0  0  2  0  0  0  0  0  0
  183.2910  178.1960  141.4000 C   0  0  0  0  0  0  0  0  0  0  0  0
  183.8130  177.8450  140.0510 C   0  0  0  0  0  1  0  0  0  0  0  0
  1  8  1  0  0  0  0
  2 10  1  0  0  0  0
  4  2  2  0  0  0  0
  5  6  2  0  0  0  0
  6  3  1  0  0  0  0
  7  3  2  0  0  0  0
  8 10  2  0  0  0  0
  8  5  1  0  0  0  0
 10  7  1  0  0  0  0
 11  9  1  6  0  0  0
 11  1  1  0  0  0  0
 11  4  1  0  0  0  0
 12 23  1  6  0  0  0
 12 19  1  0  0  0  0
 13 16  1  0  0  0  0
 13 20  1  0  0  0  0
 14 17  1  0  0  0  0
 14 15  1  0  0  0  0
 16 18  1  1  0  0  0
 17  5  1  0  0  0  0
 18 19  1  0  0  0  0
 20 15  1  1  0  0  0
 20 12  1  0  0  0  0
 21 22  1  6  0  0  0
 21 16  1  0  0  0  0
 21 17  1  0  0  0  0
 24 23  1  0  0  0  0
 25  7  1  6  0  0  0
 25 26  1  0  0  0  0
 28 27  1  1  0  0  0
 28 25  1  0  0  0  0
 28 26  1  0  0  0  0
 29 30  1  0  0  0  0
 29  4  1  0  0  0  0
 30 31  2  0  0  0  0
 33 32  2  0  0  0  0
 33 30  1  0  0  0  0
 34 33  1  0  0  0  0
M  END
>  <MODEL>
9

>  <REMARK>
 VINA RESULT:      -6.8      2.475      9.163
  Name = 
  6 active torsions:
  status: ('A' for Active; 'I' for Inactive)
    1  A    between atoms: C_4  and  O_23
    2  A    between atoms: C_5  and  O_24
    3  A    between atoms: C_7  and  N_21
    4  A    between atoms: C_10  and  C_12
    5  A    between atoms: C_11  and  C_14
    6  A    between atoms: C_14  and  O_23
                            x       y       z     vdW  Elec       q    Type
                         _______ _______ _______ _____ _____    ______ ____

>  <TORSDO>
F 6

$$$$
