=
 OpenBabel11042413483D

 25 27  0  0  1  0  0  0  0  0999 V2000
  190.0070  177.8580  144.4270 C   0  0  0  0  0  2  0  0  0  0  0  0
  192.3250  174.8500  147.1900 O   0  0  0  0  0  0  0  0  0  0  0  0
  190.0240  175.1840  145.6100 C   0  0  0  0  0  2  0  0  0  0  0  0
  188.7640  176.9620  144.3670 C   0  0  0  0  0  3  0  0  0  0  0  0
  191.2720  177.0060  144.4200 C   0  0  0  0  0  2  0  0  0  0  0  0
  188.7730  176.0560  145.6050 C   0  0  0  0  0  2  0  0  0  0  0  0
  192.3620  175.7620  146.3210 C   0  0  0  0  0  0  0  0  0  0  0  0
  191.2120  176.0260  145.5030 N   0  0  0  0  0  0  0  0  0  0  0  0
  186.3330  178.5780  147.6440 C   0  0  0  0  0  0  0  0  0  0  0  0
  187.1920  178.3840  146.6770 N   0  0  0  0  0  0  0  0  0  0  0  0
  187.5420  177.7920  144.3060 N   0  0  1  0  0  0  0  0  0  0  0  0
  186.7300  179.1770  148.7930 F   0  0  0  0  0  0  0  0  0  0  0  0
  185.1540  177.5230  143.7940 C   0  0  1  0  0  3  0  0  0  0  0  0
  184.4750  177.9510  146.2710 C   0  0  0  0  0  3  0  0  0  0  0  0
  185.3940  178.1830  145.1150 C   0  0  1  0  0  3  0  0  0  0  0  0
  184.3460  178.4420  142.9000 C   0  0  0  0  0  1  0  0  0  0  0  0
  184.9460  178.1950  147.4660 N   0  0  0  0  0  0  0  0  0  0  0  0
  186.7320  175.9180  142.7760 C   0  0  0  0  0  1  0  0  0  0  0  0
  186.5800  177.3700  143.2390 C   0  0  2  0  0  3  0  0  0  0  0  0
  186.7280  177.6430  145.5040 C   0  0  2  0  0  3  0  0  0  0  0  0
  193.6000  176.5840  146.1940 C   0  0  0  0  0  2  0  0  0  0  0  0
  194.7700  175.7320  146.3310 N   0  0  0  0  0  2  0  0  0  0  0  0
  195.3220  175.5460  145.0000 C   0  0  0  0  0  2  0  0  0  0  0  0
  196.4530  176.6200  143.4420 C   0  0  0  0  0  1  0  0  0  0  0  0
  195.4070  176.7770  144.3490 O   0  0  0  0  0  0  0  0  0  0  0  0
  4  1  1  0  0  0  0
  4  6  1  0  0  0  0
  5  1  1  0  0  0  0
  5  8  1  0  0  0  0
  6  3  1  0  0  0  0
  7  2  2  0  0  0  0
  8  3  1  0  0  0  0
  8  7  1  0  0  0  0
  9 12  1  0  0  0  0
 10  9  2  0  0  0  0
 11  4  1  1  0  0  0
 11 20  1  0  0  0  0
 13 16  1  6  0  0  0
 13 15  1  0  0  0  0
 14 17  2  0  0  0  0
 15 20  1  0  0  0  0
 15 14  1  1  0  0  0
 17  9  1  0  0  0  0
 19 18  1  1  0  0  0
 19 13  1  0  0  0  0
 19 11  1  0  0  0  0
 20 10  1  1  0  0  0
 21  7  1  0  0  0  0
 21 22  1  0  0  0  0
 23 22  1  0  0  0  0
 24 25  1  0  0  0  0
 25 23  1  0  0  0  0
M  END
>  <MODEL>
1

>  <REMARK>
 VINA RESULT:      -6.9      0.000      0.000
  Name = 
  5 active torsions:
  status: ('A' for Active; 'I' for Inactive)
    1  A    between atoms: N_4  and  C_15
    2  A    between atoms: O_8  and  C_16
    3  A    between atoms: C_10  and  N_12
    4  A    between atoms: C_10  and  C_23
    5  A    between atoms: N_12  and  C_16
                            x       y       z     vdW  Elec       q    Type
                         _______ _______ _______ _____ _____    ______ ____

>  <TORSDO>
F 5

$$$$
=
 OpenBabel11042413483D

 25 27  0  0  1  0  0  0  0  0999 V2000
  188.9720  175.2090  146.1970 C   0  0  0  0  0  2  0  0  0  0  0  0
  193.4450  176.1160  145.0880 O   0  0  0  0  0  0  0  0  0  0  0  0
  191.0410  177.2650  145.9860 C   0  0  0  0  0  2  0  0  0  0  0  0
  188.6180  176.6970  146.3030 C   0  0  0  0  0  3  0  0  0  0  0  0
  190.3790  174.9630  146.7320 C   0  0  0  0  0  2  0  0  0  0  0  0
  189.6270  177.4860  145.4590 C   0  0  0  0  0  2  0  0  0  0  0  0
  192.5980  175.3340  145.5980 C   0  0  0  0  0  0  0  0  0  0  0  0
  191.3280  175.8340  146.0410 N   0  0  0  0  0  0  0  0  0  0  0  0
  187.1430  177.7800  142.3140 C   0  0  0  0  0  0  0  0  0  0  0  0
  187.5130  177.1630  143.4060 N   0  0  0  0  0  0  0  0  0  0  0  0
  187.2300  176.9230  145.8460 N   0  0  1  0  0  0  0  0  0  0  0  0
  187.5030  177.2900  141.1020 F   0  0  0  0  0  0  0  0  0  0  0  0
  185.4840  178.6420  146.0320 C   0  0  1  0  0  3  0  0  0  0  0  0
  185.6680  179.2410  143.5050 C   0  0  0  0  0  3  0  0  0  0  0  0
  185.7600  178.2450  144.6160 C   0  0  1  0  0  3  0  0  0  0  0  0
  184.0300  178.3740  146.3670 C   0  0  0  0  0  1  0  0  0  0  0  0
  186.3060  178.9620  142.3990 N   0  0  0  0  0  0  0  0  0  0  0  0
  187.1810  178.5340  147.8240 C   0  0  0  0  0  1  0  0  0  0  0  0
  186.3910  177.6860  146.8240 C   0  0  2  0  0  3  0  0  0  0  0  0
  187.1790  177.7950  144.6820 C   0  0  2  0  0  3  0  0  0  0  0  0
  192.9260  173.8810  145.6880 C   0  0  0  0  0  2  0  0  0  0  0  0
  192.9410  173.2990  144.3570 N   0  0  0  0  0  2  0  0  0  0  0  0
  191.8880  172.3000  144.3140 C   0  0  0  0  0  2  0  0  0  0  0  0
  189.6930  172.0990  144.3750 C   0  0  0  0  0  1  0  0  0  0  0  0
  190.7130  172.8740  143.8280 O   0  0  0  0  0  0  0  0  0  0  0  0
  1  4  1  0  0  0  0
  1  5  1  0  0  0  0
  2  7  2  0  0  0  0
  3  8  1  0  0  0  0
  6  3  1  0  0  0  0
  6  4  1  0  0  0  0
  7 21  1  0  0  0  0
  7  8  1  0  0  0  0
  8  5  1  0  0  0  0
  9 17  1  0  0  0  0
  9 10  2  0  0  0  0
 11  4  1  1  0  0  0
 11 19  1  0  0  0  0
 12  9  1  0  0  0  0
 13 16  1  1  0  0  0
 13 19  1  0  0  0  0
 15 14  1  6  0  0  0
 15 20  1  0  0  0  0
 15 13  1  0  0  0  0
 17 14  2  0  0  0  0
 19 18  1  1  0  0  0
 20 10  1  6  0  0  0
 20 11  1  0  0  0  0
 22 21  1  0  0  0  0
 23 22  1  0  0  0  0
 25 23  1  0  0  0  0
 25 24  1  0  0  0  0
M  END
>  <MODEL>
2

>  <REMARK>
 VINA RESULT:      -6.5      2.487      4.016
  Name = 
  5 active torsions:
  status: ('A' for Active; 'I' for Inactive)
    1  A    between atoms: N_4  and  C_15
    2  A    between atoms: O_8  and  C_16
    3  A    between atoms: C_10  and  N_12
    4  A    between atoms: C_10  and  C_23
    5  A    between atoms: N_12  and  C_16
                            x       y       z     vdW  Elec       q    Type
                         _______ _______ _______ _____ _____    ______ ____

>  <TORSDO>
F 5

$$$$
=
 OpenBabel11042413483D

 25 27  0  0  1  0  0  0  0  0999 V2000
  188.8060  175.2460  146.2100 C   0  0  0  0  0  2  0  0  0  0  0  0
  193.2550  176.6980  146.6040 O   0  0  0  0  0  0  0  0  0  0  0  0
  190.5870  177.3310  147.2260 C   0  0  0  0  0  2  0  0  0  0  0  0
  188.2470  176.5760  146.7280 C   0  0  0  0  0  3  0  0  0  0  0  0
  190.0880  174.8870  146.9540 C   0  0  0  0  0  2  0  0  0  0  0  0
  189.3000  177.6630  146.4780 C   0  0  0  0  0  2  0  0  0  0  0  0
  192.4290  175.7460  146.5930 C   0  0  0  0  0  0  0  0  0  0  0  0
  191.0400  175.9920  146.8570 N   0  0  0  0  0  0  0  0  0  0  0  0
  187.4980  177.5890  142.5240 C   0  0  0  0  0  0  0  0  0  0  0  0
  187.6430  176.9950  143.6800 N   0  0  0  0  0  0  0  0  0  0  0  0
  186.9690  176.8880  146.0530 N   0  0  1  0  0  0  0  0  0  0  0  0
  187.9980  177.0190  141.4010 F   0  0  0  0  0  0  0  0  0  0  0  0
  185.3650  178.7430  145.9060 C   0  0  1  0  0  3  0  0  0  0  0  0
  185.9840  179.2120  143.4210 C   0  0  0  0  0  3  0  0  0  0  0  0
  185.8210  178.2630  144.5650 C   0  0  1  0  0  3  0  0  0  0  0  0
  183.8600  178.6040  146.0180 C   0  0  0  0  0  1  0  0  0  0  0  0
  186.7600  178.8350  142.4390 N   0  0  0  0  0  0  0  0  0  0  0  0
  186.7510  178.5850  147.9450 C   0  0  0  0  0  1  0  0  0  0  0  0
  186.0560  177.7560  146.8620 C   0  0  2  0  0  3  0  0  0  0  0  0
  187.1710  177.7080  144.8670 C   0  0  2  0  0  3  0  0  0  0  0  0
  192.9170  174.3760  146.2580 C   0  0  0  0  0  2  0  0  0  0  0  0
  193.6590  174.4120  145.0090 N   0  0  0  0  0  2  0  0  0  0  0  0
  195.0250  174.0230  145.3120 C   0  0  0  0  0  2  0  0  0  0  0  0
  195.4220  175.6800  143.9120 C   0  0  0  0  0  1  0  0  0  0  0  0
  195.8820  175.1030  145.0930 O   0  0  0  0  0  0  0  0  0  0  0  0
  1  4  1  0  0  0  0
  1  5  1  0  0  0  0
  6  4  1  0  0  0  0
  6  3  1  0  0  0  0
  7  2  2  0  0  0  0
  7  8  1  0  0  0  0
  8  5  1  0  0  0  0
  8  3  1  0  0  0  0
  9 10  2  0  0  0  0
 11  4  1  1  0  0  0
 11 19  1  0  0  0  0
 12  9  1  0  0  0  0
 13 16  1  6  0  0  0
 13 19  1  0  0  0  0
 15 14  1  6  0  0  0
 15 20  1  0  0  0  0
 15 13  1  0  0  0  0
 17  9  1  0  0  0  0
 17 14  2  0  0  0  0
 19 18  1  1  0  0  0
 20 10  1  6  0  0  0
 20 11  1  0  0  0  0
 21  7  1  0  0  0  0
 22 23  1  0  0  0  0
 22 21  1  0  0  0  0
 24 25  1  0  0  0  0
 25 23  1  0  0  0  0
M  END
>  <MODEL>
3

>  <REMARK>
 VINA RESULT:      -6.4      2.225      3.323
  Name = 
  5 active torsions:
  status: ('A' for Active; 'I' for Inactive)
    1  A    between atoms: N_4  and  C_15
    2  A    between atoms: O_8  and  C_16
    3  A    between atoms: C_10  and  N_12
    4  A    between atoms: C_10  and  C_23
    5  A    between atoms: N_12  and  C_16
                            x       y       z     vdW  Elec       q    Type
                         _______ _______ _______ _____ _____    ______ ____

>  <TORSDO>
F 5

$$$$
=
 OpenBabel11042413483D

 25 27  0  0  1  0  0  0  0  0999 V2000
  190.8450  175.0980  147.0230 C   0  0  0  0  0  2  0  0  0  0  0  0
  187.8400  177.8350  144.6700 O   0  0  0  0  0  0  0  0  0  0  0  0
  189.7220  175.7640  144.4060 C   0  0  0  0  0  2  0  0  0  0  0  0
  191.4670  174.5460  145.7350 C   0  0  0  0  0  3  0  0  0  0  0  0
  189.3440  175.2940  146.8410 C   0  0  0  0  0  2  0  0  0  0  0  0
  191.2200  175.5640  144.6150 C   0  0  0  0  0  2  0  0  0  0  0  0
  188.1110  177.1790  145.7120 C   0  0  0  0  0  0  0  0  0  0  0  0
  189.0940  176.1340  145.6710 N   0  0  0  0  0  0  0  0  0  0  0  0
  194.8550  177.3060  145.3300 C   0  0  0  0  0  0  0  0  0  0  0  0
  193.8680  176.5630  145.7570 N   0  0  0  0  0  0  0  0  0  0  0  0
  192.9100  174.2940  145.9350 N   0  0  1  0  0  0  0  0  0  0  0  0
  194.9780  178.5850  145.7630 F   0  0  0  0  0  0  0  0  0  0  0  0
  194.7680  173.1830  144.7710 C   0  0  1  0  0  3  0  0  0  0  0  0
  195.9480  175.4520  144.2820 C   0  0  0  0  0  3  0  0  0  0  0  0
  195.0810  174.5960  145.1500 C   0  0  1  0  0  3  0  0  0  0  0  0
  195.7640  172.2430  145.4200 C   0  0  0  0  0  1  0  0  0  0  0  0
  195.8450  176.7460  144.4290 N   0  0  0  0  0  0  0  0  0  0  0  0
  192.4780  172.3850  144.2990 C   0  0  0  0  0  1  0  0  0  0  0  0
  193.3740  172.9790  145.3890 C   0  0  2  0  0  3  0  0  0  0  0  0
  193.7320  175.2260  145.1770 C   0  0  2  0  0  3  0  0  0  0  0  0
  187.4260  177.5410  146.9870 C   0  0  0  0  0  2  0  0  0  0  0  0
  186.0260  177.1580  146.9170 N   0  0  0  0  0  2  0  0  0  0  0  0
  185.2430  178.3320  147.2630 C   0  0  0  0  0  2  0  0  0  0  0  0
  184.4280  178.9620  145.3130 C   0  0  0  0  0  1  0  0  0  0  0  0
  184.0660  178.3500  146.5120 O   0  0  0  0  0  0  0  0  0  0  0  0
  2  7  2  0  0  0  0
  3  6  1  0  0  0  0
  3  8  1  0  0  0  0
  4  1  1  0  0  0  0
  5  1  1  0  0  0  0
  6  4  1  0  0  0  0
  7 21  1  0  0  0  0
  8  7  1  0  0  0  0
  8  5  1  0  0  0  0
  9 10  2  0  0  0  0
  9 12  1  0  0  0  0
 11  4  1  6  0  0  0
 13 15  1  0  0  0  0
 13 19  1  0  0  0  0
 13 16  1  1  0  0  0
 14 17  2  0  0  0  0
 15 14  1  6  0  0  0
 15 20  1  0  0  0  0
 17  9  1  0  0  0  0
 19 18  1  6  0  0  0
 19 11  1  0  0  0  0
 20 10  1  1  0  0  0
 20 11  1  0  0  0  0
 22 21  1  0  0  0  0
 22 23  1  0  0  0  0
 24 25  1  0  0  0  0
 25 23  1  0  0  0  0
M  END
>  <MODEL>
4

>  <REMARK>
 VINA RESULT:      -6.2      3.362      8.301
  Name = 
  5 active torsions:
  status: ('A' for Active; 'I' for Inactive)
    1  A    between atoms: N_4  and  C_15
    2  A    between atoms: O_8  and  C_16
    3  A    between atoms: C_10  and  N_12
    4  A    between atoms: C_10  and  C_23
    5  A    between atoms: N_12  and  C_16
                            x       y       z     vdW  Elec       q    Type
                         _______ _______ _______ _____ _____    ______ ____

>  <TORSDO>
F 5

$$$$
=
 OpenBabel11042413483D

 25 27  0  0  1  0  0  0  0  0999 V2000
  189.0060  177.3970  144.5310 C   0  0  0  0  0  2  0  0  0  0  0  0
  184.8570  176.4410  146.5130 O   0  0  0  0  0  0  0  0  0  0  0  0
  187.6410  176.3260  146.8850 C   0  0  0  0  0  2  0  0  0  0  0  0
  189.7840  176.6470  145.6190 C   0  0  0  0  0  3  0  0  0  0  0  0
  187.8110  178.1210  145.1410 C   0  0  0  0  0  2  0  0  0  0  0  0
  188.8380  175.6210  146.2550 C   0  0  0  0  0  2  0  0  0  0  0  0
  185.5570  177.2020  145.7930 C   0  0  0  0  0  0  0  0  0  0  0  0
  186.9890  177.1730  145.8900 N   0  0  0  0  0  0  0  0  0  0  0  0
  190.0900  172.9160  143.3290 C   0  0  0  0  0  0  0  0  0  0  0  0
  189.9900  174.1590  143.7230 N   0  0  0  0  0  0  0  0  0  0  0  0
  190.9790  176.0010  145.0360 N   0  0  1  0  0  0  0  0  0  0  0  0
  189.3040  172.4570  142.3250 F   0  0  0  0  0  0  0  0  0  0  0  0
  192.9290  174.7090  145.7880 C   0  0  1  0  0  3  0  0  0  0  0  0
  192.0600  172.5420  144.6370 C   0  0  0  0  0  3  0  0  0  0  0  0
  192.1720  174.0320  144.6900 C   0  0  1  0  0  3  0  0  0  0  0  0
  194.3590  174.9570  145.3510 C   0  0  0  0  0  1  0  0  0  0  0  0
  191.0760  172.0420  143.9370 N   0  0  0  0  0  0  0  0  0  0  0  0
  191.8750  176.2440  147.4120 C   0  0  0  0  0  1  0  0  0  0  0  0
  192.1820  176.0470  145.9250 C   0  0  2  0  0  3  0  0  0  0  0  0
  190.7930  174.5660  144.8760 C   0  0  2  0  0  3  0  0  0  0  0  0
  184.8720  178.0940  144.8130 C   0  0  0  0  0  2  0  0  0  0  0  0
  184.9280  177.5000  143.4870 N   0  0  0  0  0  2  0  0  0  0  0  0
  184.0700  178.2940  142.6250 C   0  0  0  0  0  2  0  0  0  0  0  0
  183.4360  178.2910  140.5130 C   0  0  0  0  0  1  0  0  0  0  0  0
  184.5700  178.2800  141.3220 O   0  0  0  0  0  0  0  0  0  0  0  0
  1  5  1  0  0  0  0
  1  4  1  0  0  0  0
  4  6  1  0  0  0  0
  5  8  1  0  0  0  0
  6  3  1  0  0  0  0
  7  8  1  0  0  0  0
  7  2  2  0  0  0  0
  8  3  1  0  0  0  0
  9 10  2  0  0  0  0
  9 17  1  0  0  0  0
 11  4  1  1  0  0  0
 11 19  1  0  0  0  0
 12  9  1  0  0  0  0
 13 16  1  6  0  0  0
 13 19  1  0  0  0  0
 15 14  1  1  0  0  0
 15 20  1  0  0  0  0
 15 13  1  0  0  0  0
 17 14  2  0  0  0  0
 19 18  1  1  0  0  0
 20 10  1  6  0  0  0
 20 11  1  0  0  0  0
 21  7  1  0  0  0  0
 22 21  1  0  0  0  0
 23 22  1  0  0  0  0
 24 25  1  0  0  0  0
 25 23  1  0  0  0  0
M  END
>  <MODEL>
5

>  <REMARK>
 VINA RESULT:      -6.1      3.729      7.864
  Name = 
  5 active torsions:
  status: ('A' for Active; 'I' for Inactive)
    1  A    between atoms: N_4  and  C_15
    2  A    between atoms: O_8  and  C_16
    3  A    between atoms: C_10  and  N_12
    4  A    between atoms: C_10  and  C_23
    5  A    between atoms: N_12  and  C_16
                            x       y       z     vdW  Elec       q    Type
                         _______ _______ _______ _____ _____    ______ ____

>  <TORSDO>
F 5

$$$$
=
 OpenBabel11042413483D

 25 27  0  0  1  0  0  0  0  0999 V2000
  186.6970  175.9030  143.3130 C   0  0  0  0  0  2  0  0  0  0  0  0
  185.7190  180.4600  143.8880 O   0  0  0  0  0  0  0  0  0  0  0  0
  187.2570  178.6280  142.4110 C   0  0  0  0  0  2  0  0  0  0  0  0
  187.8770  176.1970  142.3780 C   0  0  0  0  0  3  0  0  0  0  0  0
  185.5650  176.8930  143.0610 C   0  0  0  0  0  2  0  0  0  0  0  0
  188.3710  177.6190  142.6720 C   0  0  0  0  0  2  0  0  0  0  0  0
  185.3180  179.2650  143.8730 C   0  0  0  0  0  0  0  0  0  0  0  0
  186.0700  178.2600  143.1790 N   0  0  0  0  0  0  0  0  0  0  0  0
  192.0190  176.7750  143.7080 C   0  0  0  0  0  0  0  0  0  0  0  0
  190.7360  176.5380  143.6190 N   0  0  0  0  0  0  0  0  0  0  0  0
  188.9450  175.1950  142.5770 N   0  0  1  0  0  0  0  0  0  0  0  0
  192.4980  177.5440  144.7160 F   0  0  0  0  0  0  0  0  0  0  0  0
  190.4660  173.8240  141.2170 C   0  0  1  0  0  3  0  0  0  0  0  0
  192.5480  175.1710  142.0110 C   0  0  0  0  0  3  0  0  0  0  0  0
  191.1800  174.6210  142.2620 C   0  0  1  0  0  3  0  0  0  0  0  0
  190.7290  172.3460  141.4270 C   0  0  0  0  0  1  0  0  0  0  0  0
  192.9330  176.1740  142.7550 N   0  0  0  0  0  0  0  0  0  0  0  0
  188.3380  174.5420  140.1870 C   0  0  0  0  0  1  0  0  0  0  0  0
  188.9900  174.1420  141.5130 C   0  0  2  0  0  3  0  0  0  0  0  0
  190.2700  175.7860  142.4530 C   0  0  2  0  0  3  0  0  0  0  0  0
  184.0780  178.9150  144.6250 C   0  0  0  0  0  2  0  0  0  0  0  0
  184.3420  178.9590  146.0530 N   0  0  0  0  0  2  0  0  0  0  0  0
  184.4420  177.5860  146.5140 C   0  0  0  0  0  2  0  0  0  0  0  0
  186.2320  178.2720  147.6040 C   0  0  0  0  0  1  0  0  0  0  0  0
  185.7800  177.2660  146.7530 O   0  0  0  0  0  0  0  0  0  0  0  0
  3  6  1  0  0  0  0
  3  8  1  0  0  0  0
  4  6  1  0  0  0  0
  4  1  1  0  0  0  0
  5  8  1  0  0  0  0
  5  1  1  0  0  0  0
  7  2  2  0  0  0  0
  7 21  1  0  0  0  0
  8  7  1  0  0  0  0
  9 12  1  0  0  0  0
 10  9  2  0  0  0  0
 11  4  1  6  0  0  0
 13 16  1  1  0  0  0
 13 19  1  0  0  0  0
 13 15  1  0  0  0  0
 14 17  2  0  0  0  0
 15 14  1  6  0  0  0
 15 20  1  0  0  0  0
 17  9  1  0  0  0  0
 19 18  1  6  0  0  0
 19 11  1  0  0  0  0
 20 11  1  0  0  0  0
 20 10  1  1  0  0  0
 21 22  1  0  0  0  0
 22 23  1  0  0  0  0
 23 25  1  0  0  0  0
 25 24  1  0  0  0  0
M  END
>  <MODEL>
6

>  <REMARK>
 VINA RESULT:      -5.9      3.640      7.520
  Name = 
  5 active torsions:
  status: ('A' for Active; 'I' for Inactive)
    1  A    between atoms: N_4  and  C_15
    2  A    between atoms: O_8  and  C_16
    3  A    between atoms: C_10  and  N_12
    4  A    between atoms: C_10  and  C_23
    5  A    between atoms: N_12  and  C_16
                            x       y       z     vdW  Elec       q    Type
                         _______ _______ _______ _____ _____    ______ ____

>  <TORSDO>
F 5

$$$$
=
 OpenBabel11042413483D

 25 27  0  0  1  0  0  0  0  0999 V2000
  189.2770  175.1130  145.1490 C   0  0  0  0  0  2  0  0  0  0  0  0
  193.4750  176.3840  143.4710 O   0  0  0  0  0  0  0  0  0  0  0  0
  191.2630  177.2520  144.9730 C   0  0  0  0  0  2  0  0  0  0  0  0
  188.9380  176.5410  145.5940 C   0  0  0  0  0  3  0  0  0  0  0  0
  190.7580  174.8270  145.3750 C   0  0  0  0  0  2  0  0  0  0  0  0
  189.7770  177.5100  144.7510 C   0  0  0  0  0  2  0  0  0  0  0  0
  192.7380  175.4880  143.9640 C   0  0  0  0  0  0  0  0  0  0  0  0
  191.5640  175.8470  144.7070 N   0  0  0  0  0  0  0  0  0  0  0  0
  186.7660  178.2470  142.1840 C   0  0  0  0  0  0  0  0  0  0  0  0
  187.3290  177.4630  143.0660 N   0  0  0  0  0  0  0  0  0  0  0  0
  187.4900  176.7920  145.4360 N   0  0  1  0  0  0  0  0  0  0  0  0
  186.9040  177.9890  140.8600 F   0  0  0  0  0  0  0  0  0  0  0  0
  185.7980  178.3880  146.2290 C   0  0  1  0  0  3  0  0  0  0  0  0
  185.5220  179.4250  143.8560 C   0  0  0  0  0  3  0  0  0  0  0  0
  185.8170  178.2540  144.7390 C   0  0  1  0  0  3  0  0  0  0  0  0
  184.4290  178.0140  146.7620 C   0  0  0  0  0  1  0  0  0  0  0  0
  185.9530  179.3650  142.6240 N   0  0  0  0  0  0  0  0  0  0  0  0
  187.7900  178.0320  147.6460 C   0  0  0  0  0  1  0  0  0  0  0  0
  186.8370  177.3420  146.6660 C   0  0  2  0  0  3  0  0  0  0  0  0
  187.2270  177.8520  144.4730 C   0  0  2  0  0  3  0  0  0  0  0  0
  193.0850  174.0580  143.7200 C   0  0  0  0  0  2  0  0  0  0  0  0
  193.0670  173.7850  142.2920 N   0  0  0  0  0  2  0  0  0  0  0  0
  191.6960  173.9540  141.8410 C   0  0  0  0  0  2  0  0  0  0  0  0
  189.8890  173.0040  141.0080 C   0  0  0  0  0  1  0  0  0  0  0  0
  191.2320  172.7590  141.2900 O   0  0  0  0  0  0  0  0  0  0  0  0
  1  5  1  0  0  0  0
  1  4  1  0  0  0  0
  2  7  2  0  0  0  0
  6  3  1  0  0  0  0
  6  4  1  0  0  0  0
  7  8  1  0  0  0  0
  8  3  1  0  0  0  0
  8  5  1  0  0  0  0
  9 17  1  0  0  0  0
  9 10  2  0  0  0  0
 11  4  1  1  0  0  0
 11 19  1  0  0  0  0
 12  9  1  0  0  0  0
 13 19  1  0  0  0  0
 13 16  1  1  0  0  0
 15 14  1  6  0  0  0
 15 13  1  0  0  0  0
 17 14  2  0  0  0  0
 19 18  1  1  0  0  0
 20 10  1  6  0  0  0
 20 15  1  0  0  0  0
 20 11  1  0  0  0  0
 21  7  1  0  0  0  0
 22 21  1  0  0  0  0
 23 22  1  0  0  0  0
 24 25  1  0  0  0  0
 25 23  1  0  0  0  0
M  END
>  <MODEL>
7

>  <REMARK>
 VINA RESULT:      -5.9      2.876      4.135
  Name = 
  5 active torsions:
  status: ('A' for Active; 'I' for Inactive)
    1  A    between atoms: N_4  and  C_15
    2  A    between atoms: O_8  and  C_16
    3  A    between atoms: C_10  and  N_12
    4  A    between atoms: C_10  and  C_23
    5  A    between atoms: N_12  and  C_16
                            x       y       z     vdW  Elec       q    Type
                         _______ _______ _______ _____ _____    ______ ____

>  <TORSDO>
F 5

$$$$
=
 OpenBabel11042413483D

 25 27  0  0  1  0  0  0  0  0999 V2000
  190.4750  175.6860  145.6520 C   0  0  0  0  0  2  0  0  0  0  0  0
  194.3290  176.2970  143.0390 O   0  0  0  0  0  0  0  0  0  0  0  0
  191.9290  177.4980  143.8750 C   0  0  0  0  0  2  0  0  0  0  0  0
  189.8070  176.9490  145.0960 C   0  0  0  0  0  3  0  0  0  0  0  0
  191.9740  175.9130  145.8200 C   0  0  0  0  0  2  0  0  0  0  0  0
  190.4310  177.2520  143.7280 C   0  0  0  0  0  2  0  0  0  0  0  0
  193.7990  175.8340  144.0840 C   0  0  0  0  0  0  0  0  0  0  0  0
  192.5500  176.3630  144.5540 N   0  0  0  0  0  0  0  0  0  0  0  0
  187.0590  178.0580  141.8590 C   0  0  0  0  0  0  0  0  0  0  0  0
  187.8760  177.4460  142.6760 N   0  0  0  0  0  0  0  0  0  0  0  0
  188.3450  176.7490  144.9980 N   0  0  1  0  0  0  0  0  0  0  0  0
  187.2090  177.9160  140.5190 F   0  0  0  0  0  0  0  0  0  0  0  0
  186.2850  177.7090  145.9330 C   0  0  1  0  0  3  0  0  0  0  0  0
  185.5950  178.7170  143.6340 C   0  0  0  0  0  3  0  0  0  0  0  0
  186.2750  177.6550  144.4380 C   0  0  1  0  0  3  0  0  0  0  0  0
  185.1230  176.9070  146.4850 C   0  0  0  0  0  1  0  0  0  0  0  0
  185.9650  178.8500  142.3870 N   0  0  0  0  0  0  0  0  0  0  0  0
  188.3550  177.9180  147.2650 C   0  0  0  0  0  1  0  0  0  0  0  0
  187.6140  177.0140  146.2770 C   0  0  2  0  0  3  0  0  0  0  0  0
  187.7260  177.7190  144.1060 C   0  0  2  0  0  3  0  0  0  0  0  0
  194.4690  174.7050  144.7900 C   0  0  0  0  0  2  0  0  0  0  0  0
  195.5860  175.2090  145.5720 N   0  0  0  0  0  2  0  0  0  0  0  0
  196.5090  174.1040  145.7630 C   0  0  0  0  0  2  0  0  0  0  0  0
  196.8030  171.9190  145.7630 C   0  0  0  0  0  1  0  0  0  0  0  0
  195.8110  172.8960  145.7320 O   0  0  0  0  0  0  0  0  0  0  0  0
  1  5  1  0  0  0  0
  2  7  2  0  0  0  0
  3  8  1  0  0  0  0
  4  1  1  0  0  0  0
  6  3  1  0  0  0  0
  6  4  1  0  0  0  0
  7  8  1  0  0  0  0
  7 21  1  0  0  0  0
  8  5  1  0  0  0  0
  9 17  1  0  0  0  0
  9 10  2  0  0  0  0
 11  4  1  1  0  0  0
 11 19  1  0  0  0  0
 12  9  1  0  0  0  0
 13 19  1  0  0  0  0
 13 16  1  1  0  0  0
 15 14  1  6  0  0  0
 15 13  1  0  0  0  0
 17 14  2  0  0  0  0
 19 18  1  1  0  0  0
 20 10  1  6  0  0  0
 20 15  1  0  0  0  0
 20 11  1  0  0  0  0
 21 22  1  0  0  0  0
 22 23  1  0  0  0  0
 25 23  1  0  0  0  0
 25 24  1  0  0  0  0
M  END
>  <MODEL>
8

>  <REMARK>
 VINA RESULT:      -5.8      2.546      3.714
  Name = 
  5 active torsions:
  status: ('A' for Active; 'I' for Inactive)
    1  A    between atoms: N_4  and  C_15
    2  A    between atoms: O_8  and  C_16
    3  A    between atoms: C_10  and  N_12
    4  A    between atoms: C_10  and  C_23
    5  A    between atoms: N_12  and  C_16
                            x       y       z     vdW  Elec       q    Type
                         _______ _______ _______ _____ _____    ______ ____

>  <TORSDO>
F 5

$$$$
=
 OpenBabel11042413483D

 25 27  0  0  1  0  0  0  0  0999 V2000
  190.9430  177.0160  143.9680 C   0  0  0  0  0  2  0  0  0  0  0  0
  186.9490  176.5670  146.3990 O   0  0  0  0  0  0  0  0  0  0  0  0
  189.7530  176.4920  146.5880 C   0  0  0  0  0  2  0  0  0  0  0  0
  191.7980  176.5040  145.1340 C   0  0  0  0  0  3  0  0  0  0  0  0
  189.7950  177.8710  144.4930 C   0  0  0  0  0  2  0  0  0  0  0  0
  190.9010  175.6510  146.0400 C   0  0  0  0  0  2  0  0  0  0  0  0
  187.5950  177.1460  145.4840 C   0  0  0  0  0  0  0  0  0  0  0  0
  189.0290  177.1160  145.4840 N   0  0  0  0  0  0  0  0  0  0  0  0
  192.0910  172.2170  144.2400 C   0  0  0  0  0  0  0  0  0  0  0  0
  191.9430  173.5160  144.1960 N   0  0  0  0  0  0  0  0  0  0  0  0
  192.9480  175.7310  144.6190 N   0  0  1  0  0  0  0  0  0  0  0  0
  191.2120  171.4120  143.5970 F   0  0  0  0  0  0  0  0  0  0  0  0
  195.0890  174.8450  145.4370 C   0  0  1  0  0  3  0  0  0  0  0  0
  194.2530  172.3850  145.2550 C   0  0  0  0  0  3  0  0  0  0  0  0
  194.2430  173.8020  144.7770 C   0  0  1  0  0  3  0  0  0  0  0  0
  196.4150  174.9660  144.7130 C   0  0  0  0  0  1  0  0  0  0  0  0
  193.2250  171.6430  144.9390 N   0  0  0  0  0  0  0  0  0  0  0  0
  194.1510  176.8190  146.5880 C   0  0  0  0  0  1  0  0  0  0  0  0
  194.2580  176.1220  145.2290 C   0  0  2  0  0  3  0  0  0  0  0  0
  192.8650  174.3260  144.9920 C   0  0  2  0  0  3  0  0  0  0  0  0
  186.8390  177.8180  144.3870 C   0  0  0  0  0  2  0  0  0  0  0  0
  185.8860  176.8870  143.8070 N   0  0  0  0  0  2  0  0  0  0  0  0
  186.6200  176.0450  142.8780 C   0  0  0  0  0  2  0  0  0  0  0  0
  187.8970  175.9460  141.0830 C   0  0  0  0  0  1  0  0  0  0  0  0
  187.0960  176.8180  141.8180 O   0  0  0  0  0  0  0  0  0  0  0  0
  1  5  1  0  0  0  0
  1  4  1  0  0  0  0
  4  6  1  0  0  0  0
  5  8  1  0  0  0  0
  6  3  1  0  0  0  0
  7  2  2  0  0  0  0
  8  7  1  0  0  0  0
  8  3  1  0  0  0  0
  9 17  1  0  0  0  0
 10  9  2  0  0  0  0
 11 20  1  0  0  0  0
 11  4  1  1  0  0  0
 11 19  1  0  0  0  0
 12  9  1  0  0  0  0
 13 16  1  6  0  0  0
 15 20  1  0  0  0  0
 15 14  1  1  0  0  0
 15 13  1  0  0  0  0
 17 14  2  0  0  0  0
 19 13  1  0  0  0  0
 19 18  1  1  0  0  0
 20 10  1  6  0  0  0
 21  7  1  0  0  0  0
 22 21  1  0  0  0  0
 23 22  1  0  0  0  0
 24 25  1  0  0  0  0
 25 23  1  0  0  0  0
M  END
>  <MODEL>
9

>  <REMARK>
 VINA RESULT:      -5.8      3.464      7.832
  Name = 
  5 active torsions:
  status: ('A' for Active; 'I' for Inactive)
    1  A    between atoms: N_4  and  C_15
    2  A    between atoms: O_8  and  C_16
    3  A    between atoms: C_10  and  N_12
    4  A    between atoms: C_10  and  C_23
    5  A    between atoms: N_12  and  C_16
                            x       y       z     vdW  Elec       q    Type
                         _______ _______ _______ _____ _____    ______ ____

>  <TORSDO>
F 5

$$$$
