=
 OpenBabel11042419563D

 41 45  0  0  1  0  0  0  0  0999 V2000
  194.3300  173.8770  141.5570 C   0  0  0  0  0  0  0  0  0  0  0  0
  195.7030  175.4400  140.0960 N   0  0  0  0  0  2  0  0  0  0  0  0
  192.0030  173.3700  140.6300 C   0  0  0  0  0  0  0  0  0  0  0  0
  196.2510  175.2010  142.4020 C   0  0  0  0  0  0  0  0  0  0  0  0
  192.7850  173.8480  144.3080 N   0  0  0  0  0  0  0  0  0  0  0  0
  196.4740  175.7030  141.0760 N   0  0  0  0  0  0  0  0  0  0  0  0
  192.4220  173.7590  139.4160 C   0  0  0  0  0  3  0  0  0  0  0  0
  193.6870  174.4930  139.2440 C   0  0  0  0  0  3  0  0  0  0  0  0
  192.2230  173.6700  143.0020 C   0  0  0  0  0  3  0  0  0  0  0  0
  195.1980  173.6740  143.9630 C   0  0  0  0  0  3  0  0  0  0  0  0
  195.2170  174.3750  142.6750 C   0  0  0  0  0  0  0  0  0  0  0  0
  192.8480  173.6490  141.8170 C   0  0  0  0  0  0  0  0  0  0  0  0
  194.5470  174.6210  140.2570 C   0  0  0  0  0  0  0  0  0  0  0  0
  197.2250  175.6110  143.4630 C   0  0  0  0  0  1  0  0  0  0  0  0
  194.1090  173.4290  144.6770 C   0  0  0  0  0  3  0  0  0  0  0  0
  190.4230  173.7150  144.9470 C   0  0  0  0  0  0  0  0  0  0  0  0
  192.4280  176.3940  146.5390 C   0  0  0  0  0  2  0  0  0  0  0  0
  191.7930  174.1050  145.3580 C   0  0  2  0  0  3  0  0  0  0  0  0
  190.1300  175.9740  145.4310 N   0  0  0  0  0  0  0  0  0  0  0  0
  192.5110  176.6120  145.0330 C   0  0  0  0  0  2  0  0  0  0  0  0
  191.5410  175.5950  145.6010 C   0  0  0  0  0  0  0  0  0  0  0  0
  189.5630  174.8000  144.9720 O   0  0  0  0  0  0  0  0  0  0  0  0
  190.0420  172.4890  144.6270 C   0  0  0  0  0  2  0  0  0  0  0  0
  189.5360  176.2220  146.7440 C   0  0  0  0  0  2  0  0  0  0  0  0
  188.0400  175.9580  146.7060 C   0  0  0  0  0  2  0  0  0  0  0  0
  187.2670  177.2630  146.7650 C   0  0  0  0  0  2  0  0  0  0  0  0
  185.8030  176.9740  147.0320 C   0  0  0  0  0  2  0  0  0  0  0  0
  186.0120  179.3560  147.7170 C   0  0  0  0  0  1  0  0  0  0  0  0
  185.0510  178.2680  147.2720 C   0  0  0  0  0  2  0  0  0  0  0  0
  190.7720  172.7160  140.7950 O   0  0  0  0  0  0  0  0  0  0  0  0
  189.5640  173.1320  140.1680 C   0  0  0  0  0  2  0  0  0  0  0  0
  188.6590  173.8440  141.1650 C   0  0  0  0  0  2  0  0  0  0  0  0
  189.3170  175.0340  141.6890 N   0  0  0  0  0  2  0  0  0  0  0  0
  188.6610  176.2980  141.8260 C   0  0  0  0  0  0  0  0  0  0  0  0
  189.2750  177.2580  142.3620 O   0  0  0  0  0  0  0  0  0  0  0  0
  187.2740  176.5130  141.3130 C   0  0  0  0  0  2  0  0  0  0  0  0
  186.0000  176.3400  143.3960 C   0  0  0  0  0  2  0  0  0  0  0  0
  186.3990  177.0990  142.3770 C   0  0  0  0  0  0  0  0  0  0  0  0
  186.0460  178.5540  142.3540 C   0  0  0  0  0  2  0  0  0  0  0  0
  185.1100  179.9660  144.1410 C   0  0  0  0  0  2  0  0  0  0  0  0
  186.0730  179.1410  143.7320 C   0  0  0  0  0  3  0  0  0  0  0  0
  1 12  1  0  0  0  0
  1 11  2  0  0  0  0
  2 13  1  0  0  0  0
  2  6  1  0  0  0  0
  3 30  1  0  0  0  0
  3 12  1  0  0  0  0
  4 11  1  0  0  0  0
  4 14  1  0  0  0  0
  5 15  1  0  0  0  0
  6  4  2  0  0  0  0
  7  3  2  0  0  0  0
  8  7  1  0  0  0  0
  8 13  2  0  0  0  0
  9  5  1  0  0  0  0
 10 15  2  0  0  0  0
 11 10  1  0  0  0  0
 12  9  2  0  0  0  0
 13  1  1  0  0  0  0
 16 22  1  0  0  0  0
 16 18  1  0  0  0  0
 18  5  1  6  0  0  0
 18 21  1  0  0  0  0
 19 21  1  0  0  0  0
 19 24  1  0  0  0  0
 20 21  1  0  0  0  0
 20 17  1  0  0  0  0
 21 17  1  0  0  0  0
 22 19  1  0  0  0  0
 23 16  2  0  0  0  0
 25 24  1  0  0  0  0
 25 26  1  0  0  0  0
 26 27  1  0  0  0  0
 27 29  1  0  0  0  0
 29 28  1  0  0  0  0
 31 30  1  0  0  0  0
 31 32  1  0  0  0  0
 32 33  1  0  0  0  0
 33 34  1  0  0  0  0
 34 35  2  0  0  0  0
 36 34  1  0  0  0  0
 36 38  1  0  0  0  0
 38 37  2  0  0  0  0
 39 38  1  0  0  0  0
 39 41  1  0  0  0  0
 41 40  2  0  0  0  0
M  END
>  <MODEL>
1

>  <REMARK>
 VINA RESULT:      -6.7      0.000      0.000
  Name = 
  14 active torsions:
  status: ('A' for Active; 'I' for Inactive)
    1  A    between atoms: C_6  and  N_15
    2  A    between atoms: C_7  and  O_16
    3  A    between atoms: N_8  and  C_13
    4  A    between atoms: C_10  and  O_16
    5  A    between atoms: C_10  and  C_27
    6  A    between atoms: C_13  and  C_32
    7  A    between atoms: N_14  and  C_27
    8  A    between atoms: C_17  and  C_20
    9  A    between atoms: C_17  and  C_23
   10  A    between atoms: C_20  and  C_22
   11  A    between atoms: C_21  and  C_32
   12  A    between atoms: C_21  and  C_33
   13  A    between atoms: C_23  and  C_40
   14  A    between atoms: C_33  and  C_39
                            x       y       z     vdW  Elec       q    Type
                         _______ _______ _______ _____ _____    ______ ____

>  <TORSDO>
F 14

$$$$
=
 OpenBabel11042419563D

 41 45  0  0  1  0  0  0  0  0999 V2000
  193.4300  174.8890  143.3260 C   0  0  1  0  0  3  0  0  0  0  0  0
  195.4930  176.3730  143.4130 N   0  0  0  0  0  0  0  0  0  0  0  0
  192.5840  174.4280  140.9600 C   0  0  0  0  0  0  0  0  0  0  0  0
  194.1040  176.1760  145.3390 C   0  0  0  0  0  0  0  0  0  0  0  0
  190.3420  174.9760  143.9660 N   0  0  0  0  0  0  0  0  0  0  0  0
  195.2690  176.6370  144.6400 N   0  0  0  0  0  0  0  0  0  0  0  0
  193.7900  174.7740  140.4810 C   0  0  0  0  0  3  0  0  0  0  0  0
  194.7770  175.4660  141.3280 C   0  0  0  0  0  3  0  0  0  0  0  0
  190.9520  174.7820  142.6840 C   0  0  0  0  0  3  0  0  0  0  0  0
  192.1770  174.7220  145.5590 C   0  0  0  0  0  3  0  0  0  0  0  0
  193.1880  175.3880  144.7320 C   0  0  0  0  0  0  0  0  0  0  0  0
  192.2530  174.7120  142.3780 C   0  0  0  0  0  0  0  0  0  0  0  0
  194.5820  175.5930  142.6420 C   0  0  0  0  0  0  0  0  0  0  0  0
  193.9570  176.5830  146.7720 C   0  0  0  0  0  1  0  0  0  0  0  0
  190.9150  174.5270  145.2040 C   0  0  0  0  0  3  0  0  0  0  0  0
  188.3160  174.9730  142.5880 C   0  0  0  0  0  0  0  0  0  0  0  0
  188.5120  177.5450  145.2470 C   0  0  0  0  0  2  0  0  0  0  0  0
  188.9100  175.2890  143.9080 C   0  0  2  0  0  3  0  0  0  0  0  0
  187.8420  177.2450  142.7680 N   0  0  0  0  0  0  0  0  0  0  0  0
  189.7170  177.7530  144.3380 C   0  0  0  0  0  2  0  0  0  0  0  0
  188.6170  176.7920  143.9330 C   0  0  0  0  0  0  0  0  0  0  0  0
  187.7780  176.1030  141.9940 O   0  0  0  0  0  0  0  0  0  0  0  0
  188.2650  173.7670  142.0420 C   0  0  0  0  0  2  0  0  0  0  0  0
  186.4700  177.5290  143.1820 C   0  0  0  0  0  2  0  0  0  0  0  0
  186.1410  178.9950  142.9560 C   0  0  0  0  0  2  0  0  0  0  0  0
  185.3210  179.5410  144.1120 C   0  0  0  0  0  2  0  0  0  0  0  0
  184.3990  178.4570  144.6350 C   0  0  0  0  0  2  0  0  0  0  0  0
  185.5340  179.1260  146.7450 C   0  0  0  0  0  1  0  0  0  0  0  0
  184.2560  178.5750  146.1400 C   0  0  0  0  0  2  0  0  0  0  0  0
  191.6270  173.8160  140.1350 O   0  0  0  0  0  0  0  0  0  0  0  0
  191.6820  172.4490  139.7390 C   0  0  0  0  0  2  0  0  0  0  0  0
  191.0160  171.5600  140.7810 C   0  0  0  0  0  2  0  0  0  0  0  0
  191.7510  170.3100  140.9260 N   0  0  0  0  0  2  0  0  0  0  0  0
  192.6330  170.0390  142.0200 C   0  0  0  0  0  0  0  0  0  0  0  0
  193.1680  168.9040  142.1150 O   0  0  0  0  0  0  0  0  0  0  0  0
  192.9590  171.0890  143.0330 C   0  0  0  0  0  2  0  0  0  0  0  0
  195.0880  171.7990  142.0570 C   0  0  0  0  0  2  0  0  0  0  0  0
  194.4360  171.3110  143.1110 C   0  0  0  0  0  0  0  0  0  0  0  0
  195.1740  171.0750  144.3930 C   0  0  0  0  0  2  0  0  0  0  0  0
  196.0090  173.0300  145.6350 C   0  0  0  0  0  2  0  0  0  0  0  0
  194.9930  172.2210  145.3420 C   0  0  0  0  0  3  0  0  0  0  0  0
  1 12  1  6  0  0  0
  1 11  1  0  0  0  0
  2  6  2  0  0  0  0
  3 12  1  0  0  0  0
  4 14  1  0  0  0  0
  5 15  1  0  0  0  0
  6  4  1  0  0  0  0
  7  3  2  0  0  0  0
  7  8  1  0  0  0  0
  8 13  2  0  0  0  0
  9  5  1  0  0  0  0
 11  4  2  0  0  0  0
 11 10  1  0  0  0  0
 12  9  2  0  0  0  0
 13  1  1  0  0  0  0
 13  2  1  0  0  0  0
 15 10  2  0  0  0  0
 16 18  1  0  0  0  0
 18 21  1  0  0  0  0
 18  5  1  6  0  0  0
 19 24  1  0  0  0  0
 19 21  1  0  0  0  0
 20 17  1  0  0  0  0
 21 20  1  0  0  0  0
 21 17  1  0  0  0  0
 22 16  1  0  0  0  0
 22 19  1  0  0  0  0
 23 16  2  0  0  0  0
 25 24  1  0  0  0  0
 25 26  1  0  0  0  0
 26 27  1  0  0  0  0
 27 29  1  0  0  0  0
 29 28  1  0  0  0  0
 30  3  1  0  0  0  0
 31 30  1  0  0  0  0
 31 32  1  0  0  0  0
 32 33  1  0  0  0  0
 33 34  1  0  0  0  0
 34 35  2  0  0  0  0
 34 36  1  0  0  0  0
 36 38  1  0  0  0  0
 37 38  2  0  0  0  0
 38 39  1  0  0  0  0
 39 41  1  0  0  0  0
 41 40  2  0  0  0  0
M  END
>  <MODEL>
2

>  <REMARK>
 VINA RESULT:      -6.6      2.168      5.443
  Name = 
  14 active torsions:
  status: ('A' for Active; 'I' for Inactive)
    1  A    between atoms: C_6  and  N_15
    2  A    between atoms: C_7  and  O_16
    3  A    between atoms: N_8  and  C_13
    4  A    between atoms: C_10  and  O_16
    5  A    between atoms: C_10  and  C_27
    6  A    between atoms: C_13  and  C_32
    7  A    between atoms: N_14  and  C_27
    8  A    between atoms: C_17  and  C_20
    9  A    between atoms: C_17  and  C_23
   10  A    between atoms: C_20  and  C_22
   11  A    between atoms: C_21  and  C_32
   12  A    between atoms: C_21  and  C_33
   13  A    between atoms: C_23  and  C_40
   14  A    between atoms: C_33  and  C_39
                            x       y       z     vdW  Elec       q    Type
                         _______ _______ _______ _____ _____    ______ ____

>  <TORSDO>
F 14

$$$$
=
 OpenBabel11042419563D

 41 45  0  0  1  0  0  0  0  0999 V2000
  194.7490  173.6490  143.4350 C   0  0  0  0  0  0  0  0  0  0  0  0
  196.0000  173.6200  141.2220 N   0  0  0  0  0  2  0  0  0  0  0  0
  192.5290  172.3830  143.3880 C   0  0  0  0  0  0  0  0  0  0  0  0
  196.4800  175.3180  142.8230 C   0  0  0  0  0  0  0  0  0  0  0  0
  193.1100  175.6160  145.2790 N   0  0  0  0  0  0  0  0  0  0  0  0
  196.6990  174.6210  141.5880 N   0  0  0  0  0  0  0  0  0  0  0  0
  192.9500  171.7230  142.2980 C   0  0  0  0  0  3  0  0  0  0  0  0
  194.1340  172.1700  141.5440 C   0  0  0  0  0  3  0  0  0  0  0  0
  192.6220  174.4350  144.6310 C   0  0  0  0  0  3  0  0  0  0  0  0
  195.5390  175.4780  145.0510 C   0  0  0  0  0  3  0  0  0  0  0  0
  195.5320  174.9150  143.6980 C   0  0  0  0  0  0  0  0  0  0  0  0
  193.2910  173.5630  143.8660 C   0  0  0  0  0  0  0  0  0  0  0  0
  194.9340  173.1220  142.0290 C   0  0  0  0  0  0  0  0  0  0  0  0
  197.3610  176.4930  143.1130 C   0  0  0  0  0  1  0  0  0  0  0  0
  194.4560  175.7730  145.7560 C   0  0  0  0  0  3  0  0  0  0  0  0
  191.1040  175.7730  146.6770 C   0  0  0  0  0  0  0  0  0  0  0  0
  191.3610  178.1720  143.8650 C   0  0  0  0  0  2  0  0  0  0  0  0
  192.0560  176.4940  145.7990 C   0  0  2  0  0  3  0  0  0  0  0  0
  189.6740  176.6000  145.0350 N   0  0  0  0  0  0  0  0  0  0  0  0
  191.4250  176.7730  143.2630 C   0  0  0  0  0  2  0  0  0  0  0  0
  191.0680  176.9550  144.7240 C   0  0  0  0  0  0  0  0  0  0  0  0
  189.8120  175.8370  146.1790 O   0  0  0  0  0  0  0  0  0  0  0  0
  191.4180  175.1670  147.8110 C   0  0  0  0  0  2  0  0  0  0  0  0
  188.9490  177.8030  145.4390 C   0  0  0  0  0  2  0  0  0  0  0  0
  187.7000  177.4300  146.2210 C   0  0  0  0  0  2  0  0  0  0  0  0
  186.4620  177.5960  145.3570 C   0  0  0  0  0  2  0  0  0  0  0  0
  185.2960  176.8690  145.9980 C   0  0  0  0  0  2  0  0  0  0  0  0
  183.9820  178.9520  145.6520 C   0  0  0  0  0  1  0  0  0  0  0  0
  184.3510  177.8640  146.6430 C   0  0  0  0  0  2  0  0  0  0  0  0
  191.3710  171.9840  144.0730 O   0  0  0  0  0  0  0  0  0  0  0  0
  190.0620  172.0390  143.5160 C   0  0  0  0  0  2  0  0  0  0  0  0
  189.6540  173.4810  143.2450 C   0  0  0  0  0  2  0  0  0  0  0  0
  189.3690  173.6710  141.8280 N   0  0  0  0  0  2  0  0  0  0  0  0
  188.4310  174.6330  141.3380 C   0  0  0  0  0  0  0  0  0  0  0  0
  188.3000  174.7910  140.0960 O   0  0  0  0  0  0  0  0  0  0  0  0
  187.5770  175.4300  142.2700 C   0  0  0  0  0  2  0  0  0  0  0  0
  188.4080  177.6880  141.8210 C   0  0  0  0  0  2  0  0  0  0  0  0
  187.3950  176.8250  141.7610 C   0  0  0  0  0  0  0  0  0  0  0  0
  186.1130  177.2330  141.1020 C   0  0  0  0  0  2  0  0  0  0  0  0
  184.0750  178.1860  142.1010 C   0  0  0  0  0  2  0  0  0  0  0  0
  185.3910  178.2670  141.9100 C   0  0  0  0  0  3  0  0  0  0  0  0
  1 11  2  0  0  0  0
  1 12  1  0  0  0  0
  2  6  1  0  0  0  0
  2 13  1  0  0  0  0
  3 12  1  0  0  0  0
  3 30  1  0  0  0  0
  4 14  1  0  0  0  0
  4 11  1  0  0  0  0
  5 15  1  0  0  0  0
  6  4  2  0  0  0  0
  7  3  2  0  0  0  0
  8 13  2  0  0  0  0
  8  7  1  0  0  0  0
  9  5  1  0  0  0  0
 10 15  2  0  0  0  0
 11 10  1  0  0  0  0
 12  9  2  0  0  0  0
 13  1  1  0  0  0  0
 16 23  2  0  0  0  0
 17 21  1  0  0  0  0
 18  5  1  6  0  0  0
 18 16  1  0  0  0  0
 19 24  1  0  0  0  0
 19 22  1  0  0  0  0
 20 17  1  0  0  0  0
 20 21  1  0  0  0  0
 21 19  1  0  0  0  0
 21 18  1  0  0  0  0
 22 16  1  0  0  0  0
 24 25  1  0  0  0  0
 26 27  1  0  0  0  0
 26 25  1  0  0  0  0
 27 29  1  0  0  0  0
 28 29  1  0  0  0  0
 31 30  1  0  0  0  0
 32 31  1  0  0  0  0
 33 32  1  0  0  0  0
 34 33  1  0  0  0  0
 34 36  1  0  0  0  0
 35 34  2  0  0  0  0
 38 37  2  0  0  0  0
 38 36  1  0  0  0  0
 39 38  1  0  0  0  0
 39 41  1  0  0  0  0
 41 40  2  0  0  0  0
M  END
>  <MODEL>
3

>  <REMARK>
 VINA RESULT:      -6.6      1.772      2.349
  Name = 
  14 active torsions:
  status: ('A' for Active; 'I' for Inactive)
    1  A    between atoms: C_6  and  N_15
    2  A    between atoms: C_7  and  O_16
    3  A    between atoms: N_8  and  C_13
    4  A    between atoms: C_10  and  O_16
    5  A    between atoms: C_10  and  C_27
    6  A    between atoms: C_13  and  C_32
    7  A    between atoms: N_14  and  C_27
    8  A    between atoms: C_17  and  C_20
    9  A    between atoms: C_17  and  C_23
   10  A    between atoms: C_20  and  C_22
   11  A    between atoms: C_21  and  C_32
   12  A    between atoms: C_21  and  C_33
   13  A    between atoms: C_23  and  C_40
   14  A    between atoms: C_33  and  C_39
                            x       y       z     vdW  Elec       q    Type
                         _______ _______ _______ _____ _____    ______ ____

>  <TORSDO>
F 14

$$$$
=
 OpenBabel11042419563D

 41 45  0  0  1  0  0  0  0  0999 V2000
  194.1120  173.6680  143.5930 C   0  0  0  0  0  0  0  0  0  0  0  0
  195.9310  173.9500  141.8390 N   0  0  0  0  0  2  0  0  0  0  0  0
  192.3010  171.9850  142.9460 C   0  0  0  0  0  0  0  0  0  0  0  0
  195.5770  175.6660  143.4530 C   0  0  0  0  0  0  0  0  0  0  0  0
  191.6510  175.2180  144.8150 N   0  0  0  0  0  0  0  0  0  0  0  0
  196.2800  175.0600  142.3580 N   0  0  0  0  0  0  0  0  0  0  0  0
  193.1430  171.4520  142.0480 C   0  0  0  0  0  3  0  0  0  0  0  0
  194.3810  172.1470  141.6540 C   0  0  0  0  0  3  0  0  0  0  0  0
  191.6180  173.9810  144.0940 C   0  0  0  0  0  3  0  0  0  0  0  0
  194.0170  175.5750  145.3070 C   0  0  0  0  0  3  0  0  0  0  0  0
  194.5160  175.0580  144.0290 C   0  0  0  0  0  0  0  0  0  0  0  0
  192.6400  173.2810  143.5850 C   0  0  0  0  0  0  0  0  0  0  0  0
  194.7990  173.2270  142.3190 C   0  0  0  0  0  0  0  0  0  0  0  0
  196.0830  176.9860  143.9470 C   0  0  0  0  0  1  0  0  0  0  0  0
  192.7410  175.6290  145.6570 C   0  0  0  0  0  3  0  0  0  0  0  0
  190.3770  177.3080  144.6980 C   0  0  0  0  0  0  0  0  0  0  0  0
  189.1500  174.7450  147.0760 C   0  0  0  0  0  2  0  0  0  0  0  0
  190.3380  175.8530  144.9790 C   0  0  2  0  0  3  0  0  0  0  0  0
  189.5880  177.2860  146.8890 N   0  0  0  0  0  0  0  0  0  0  0  0
  190.5840  175.0720  147.4760 C   0  0  0  0  0  2  0  0  0  0  0  0
  189.8740  175.9160  146.4360 C   0  0  0  0  0  0  0  0  0  0  0  0
  189.9880  178.0440  145.8060 O   0  0  0  0  0  0  0  0  0  0  0  0
  190.7040  177.8540  143.5380 C   0  0  0  0  0  2  0  0  0  0  0  0
  188.1410  177.4670  146.9950 C   0  0  0  0  0  2  0  0  0  0  0  0
  187.5400  177.7340  145.6260 C   0  0  0  0  0  2  0  0  0  0  0  0
  186.0240  177.7380  145.7020 C   0  0  0  0  0  2  0  0  0  0  0  0
  185.5050  179.1350  145.4190 C   0  0  0  0  0  2  0  0  0  0  0  0
  184.1550  178.6400  143.3900 C   0  0  0  0  0  1  0  0  0  0  0  0
  185.3840  179.3530  143.9240 C   0  0  0  0  0  2  0  0  0  0  0  0
  191.0980  171.3440  143.2800 O   0  0  0  0  0  0  0  0  0  0  0  0
  190.0270  171.1440  142.3640 C   0  0  0  0  0  2  0  0  0  0  0  0
  189.0130  172.2770  142.4660 C   0  0  0  0  0  2  0  0  0  0  0  0
  188.6120  172.7210  141.1370 N   0  0  0  0  0  2  0  0  0  0  0  0
  188.6370  174.0920  140.7270 C   0  0  0  0  0  0  0  0  0  0  0  0
  188.3510  174.3860  139.5370 O   0  0  0  0  0  0  0  0  0  0  0  0
  188.9630  175.1860  141.6920 C   0  0  0  0  0  2  0  0  0  0  0  0
  186.7900  175.5880  142.7440 C   0  0  0  0  0  2  0  0  0  0  0  0
  187.7620  176.0390  141.9530 C   0  0  0  0  0  0  0  0  0  0  0  0
  187.6860  177.4320  141.4070 C   0  0  0  0  0  2  0  0  0  0  0  0
  185.5930  177.9650  140.2250 C   0  0  0  0  0  2  0  0  0  0  0  0
  186.8350  177.4870  140.1750 C   0  0  0  0  0  3  0  0  0  0  0  0
  1 11  2  0  0  0  0
  2 13  1  0  0  0  0
  2  6  1  0  0  0  0
  3 30  1  0  0  0  0
  3 12  1  0  0  0  0
  4 14  1  0  0  0  0
  4 11  1  0  0  0  0
  5 15  1  0  0  0  0
  6  4  2  0  0  0  0
  7  3  2  0  0  0  0
  8  7  1  0  0  0  0
  8 13  2  0  0  0  0
  9  5  1  0  0  0  0
 10 15  2  0  0  0  0
 11 10  1  0  0  0  0
 12  1  1  0  0  0  0
 12  9  2  0  0  0  0
 13  1  1  0  0  0  0
 16 18  1  0  0  0  0
 16 22  1  0  0  0  0
 17 20  1  0  0  0  0
 18  5  1  1  0  0  0
 18 21  1  0  0  0  0
 19 24  1  0  0  0  0
 21 19  1  0  0  0  0
 21 17  1  0  0  0  0
 21 20  1  0  0  0  0
 22 19  1  0  0  0  0
 23 16  2  0  0  0  0
 25 26  1  0  0  0  0
 25 24  1  0  0  0  0
 27 26  1  0  0  0  0
 28 29  1  0  0  0  0
 29 27  1  0  0  0  0
 31 32  1  0  0  0  0
 31 30  1  0  0  0  0
 33 32  1  0  0  0  0
 34 33  1  0  0  0  0
 34 36  1  0  0  0  0
 35 34  2  0  0  0  0
 36 38  1  0  0  0  0
 38 37  2  0  0  0  0
 39 38  1  0  0  0  0
 41 40  2  0  0  0  0
 41 39  1  0  0  0  0
M  END
>  <MODEL>
4

>  <REMARK>
 VINA RESULT:      -6.4      1.877      2.831
  Name = 
  14 active torsions:
  status: ('A' for Active; 'I' for Inactive)
    1  A    between atoms: C_6  and  N_15
    2  A    between atoms: C_7  and  O_16
    3  A    between atoms: N_8  and  C_13
    4  A    between atoms: C_10  and  O_16
    5  A    between atoms: C_10  and  C_27
    6  A    between atoms: C_13  and  C_32
    7  A    between atoms: N_14  and  C_27
    8  A    between atoms: C_17  and  C_20
    9  A    between atoms: C_17  and  C_23
   10  A    between atoms: C_20  and  C_22
   11  A    between atoms: C_21  and  C_32
   12  A    between atoms: C_21  and  C_33
   13  A    between atoms: C_23  and  C_40
   14  A    between atoms: C_33  and  C_39
                            x       y       z     vdW  Elec       q    Type
                         _______ _______ _______ _____ _____    ______ ____

>  <TORSDO>
F 14

$$$$
=
 OpenBabel11042419563D

 41 45  0  0  1  0  0  0  0  0999 V2000
  195.0590  173.9500  143.0530 C   0  0  0  0  0  0  0  0  0  0  0  0
  197.1600  175.3760  142.9520 N   0  0  0  0  0  2  0  0  0  0  0  0
  193.2420  174.6620  141.4030 C   0  0  0  0  0  0  0  0  0  0  0  0
  196.6930  174.1080  144.9140 C   0  0  0  0  0  0  0  0  0  0  0  0
  192.5720  173.4100  144.9170 N   0  0  0  0  0  0  0  0  0  0  0  0
  197.5120  174.9660  144.1060 N   0  0  0  0  0  0  0  0  0  0  0  0
  194.1720  175.3140  140.6890 C   0  0  0  0  0  3  0  0  0  0  0  0
  195.5130  175.5770  141.2390 C   0  0  0  0  0  3  0  0  0  0  0  0
  192.5530  173.9450  143.5890 C   0  0  0  0  0  3  0  0  0  0  0  0
  194.8460  172.5650  145.2020 C   0  0  0  0  0  3  0  0  0  0  0  0
  195.5030  173.6490  144.4660 C   0  0  0  0  0  0  0  0  0  0  0  0
  193.5810  174.1620  142.7590 C   0  0  0  0  0  0  0  0  0  0  0  0
  195.9070  175.0080  142.3810 C   0  0  0  0  0  0  0  0  0  0  0  0
  197.2220  173.7240  146.2600 C   0  0  0  0  0  1  0  0  0  0  0  0
  193.5380  172.4570  145.3860 C   0  0  0  0  0  3  0  0  0  0  0  0
  190.1250  173.3530  144.7830 C   0  0  0  0  0  0  0  0  0  0  0  0
  191.5970  175.5970  147.3370 C   0  0  0  0  0  2  0  0  0  0  0  0
  191.3090  173.5720  145.6480 C   0  0  2  0  0  3  0  0  0  0  0  0
  189.7460  175.5240  145.5340 N   0  0  0  0  0  0  0  0  0  0  0  0
  192.1470  176.0400  145.9870 C   0  0  0  0  0  2  0  0  0  0  0  0
  191.0270  175.0210  146.0540 C   0  0  0  0  0  0  0  0  0  0  0  0
  189.3230  174.4810  144.7330 O   0  0  0  0  0  0  0  0  0  0  0  0
  189.8350  172.2230  144.1580 C   0  0  0  0  0  2  0  0  0  0  0  0
  188.7810  175.6080  146.6290 C   0  0  0  0  0  2  0  0  0  0  0  0
  187.4890  176.2460  146.1470 C   0  0  0  0  0  2  0  0  0  0  0  0
  187.7540  177.6380  145.6020 C   0  0  0  0  0  2  0  0  0  0  0  0
  186.5180  178.4980  145.7820 C   0  0  0  0  0  2  0  0  0  0  0  0
  184.0390  178.4810  145.9780 C   0  0  0  0  0  1  0  0  0  0  0  0
  185.2880  177.6210  145.9220 C   0  0  0  0  0  2  0  0  0  0  0  0
  191.9500  174.4590  140.8940 O   0  0  0  0  0  0  0  0  0  0  0  0
  191.6190  173.4420  139.9550 C   0  0  0  0  0  2  0  0  0  0  0  0
  190.1550  173.5400  139.5480 C   0  0  0  0  0  2  0  0  0  0  0  0
  189.2940  173.0810  140.6300 N   0  0  0  0  0  2  0  0  0  0  0  0
  188.2010  173.8490  141.1420 C   0  0  0  0  0  0  0  0  0  0  0  0
  187.4550  173.3480  142.0250 O   0  0  0  0  0  0  0  0  0  0  0  0
  187.9460  175.2460  140.6770 C   0  0  0  0  0  2  0  0  0  0  0  0
  188.8950  176.8650  142.2480 C   0  0  0  0  0  2  0  0  0  0  0  0
  187.8280  176.1800  141.8390 C   0  0  0  0  0  0  0  0  0  0  0  0
  186.5000  176.4220  142.4890 C   0  0  0  0  0  2  0  0  0  0  0  0
  184.6430  178.0130  142.2020 C   0  0  0  0  0  2  0  0  0  0  0  0
  185.9490  177.7640  142.1170 C   0  0  0  0  0  3  0  0  0  0  0  0
  1 11  2  0  0  0  0
  2  6  1  0  0  0  0
  3 12  1  0  0  0  0
  4 14  1  0  0  0  0
  5 15  1  0  0  0  0
  6  4  2  0  0  0  0
  7  8  1  0  0  0  0
  7  3  2  0  0  0  0
  8 13  2  0  0  0  0
  9  5  1  0  0  0  0
 10 15  2  0  0  0  0
 11  4  1  0  0  0  0
 11 10  1  0  0  0  0
 12  1  1  0  0  0  0
 12  9  2  0  0  0  0
 13  2  1  0  0  0  0
 13  1  1  0  0  0  0
 16 18  1  0  0  0  0
 18  5  1  6  0  0  0
 18 21  1  0  0  0  0
 19 21  1  0  0  0  0
 19 24  1  0  0  0  0
 20 21  1  0  0  0  0
 20 17  1  0  0  0  0
 21 17  1  0  0  0  0
 22 16  1  0  0  0  0
 22 19  1  0  0  0  0
 23 16  2  0  0  0  0
 25 24  1  0  0  0  0
 26 27  1  0  0  0  0
 26 25  1  0  0  0  0
 27 29  1  0  0  0  0
 29 28  1  0  0  0  0
 30  3  1  0  0  0  0
 31 30  1  0  0  0  0
 32 31  1  0  0  0  0
 32 33  1  0  0  0  0
 33 34  1  0  0  0  0
 34 35  2  0  0  0  0
 36 34  1  0  0  0  0
 36 38  1  0  0  0  0
 38 37  2  0  0  0  0
 38 39  1  0  0  0  0
 41 40  2  0  0  0  0
 41 39  1  0  0  0  0
M  END
>  <MODEL>
5

>  <REMARK>
 VINA RESULT:      -6.4      1.447      2.099
  Name = 
  14 active torsions:
  status: ('A' for Active; 'I' for Inactive)
    1  A    between atoms: C_6  and  N_15
    2  A    between atoms: C_7  and  O_16
    3  A    between atoms: N_8  and  C_13
    4  A    between atoms: C_10  and  O_16
    5  A    between atoms: C_10  and  C_27
    6  A    between atoms: C_13  and  C_32
    7  A    between atoms: N_14  and  C_27
    8  A    between atoms: C_17  and  C_20
    9  A    between atoms: C_17  and  C_23
   10  A    between atoms: C_20  and  C_22
   11  A    between atoms: C_21  and  C_32
   12  A    between atoms: C_21  and  C_33
   13  A    between atoms: C_23  and  C_40
   14  A    between atoms: C_33  and  C_39
                            x       y       z     vdW  Elec       q    Type
                         _______ _______ _______ _____ _____    ______ ____

>  <TORSDO>
F 14

$$$$
=
 OpenBabel11042419563D

 41 45  0  0  1  0  0  0  0  0999 V2000
  195.2250  171.2120  144.1040 C   0  0  1  0  0  3  0  0  0  0  0  0
  195.9900  170.5170  146.4270 N   0  0  0  0  0  0  0  0  0  0  0  0
  195.8430  173.6140  143.4850 C   0  0  0  0  0  0  0  0  0  0  0  0
  194.2170  169.3290  145.3670 C   0  0  0  0  0  0  0  0  0  0  0  0
  192.5900  171.9230  142.5220 N   0  0  0  0  0  0  0  0  0  0  0  0
  195.1610  169.5490  146.4260 N   0  0  0  0  0  0  0  0  0  0  0  0
  196.7800  173.6000  144.4470 C   0  0  0  0  0  3  0  0  0  0  0  0
  196.8080  172.5420  145.4710 C   0  0  0  0  0  3  0  0  0  0  0  0
  193.6980  172.7930  142.7870 C   0  0  0  0  0  3  0  0  0  0  0  0
  193.4070  169.6980  143.1130 C   0  0  0  0  0  3  0  0  0  0  0  0
  194.1870  170.1280  144.2770 C   0  0  0  0  0  0  0  0  0  0  0  0
  194.8410  172.5210  143.4290 C   0  0  0  0  0  0  0  0  0  0  0  0
  196.0310  171.4630  145.3600 C   0  0  0  0  0  0  0  0  0  0  0  0
  193.2850  168.1660  145.5100 C   0  0  0  0  0  1  0  0  0  0  0  0
  192.7110  170.5050  142.3260 C   0  0  0  0  0  3  0  0  0  0  0  0
  191.6850  173.9470  141.4780 C   0  0  0  0  0  0  0  0  0  0  0  0
  189.4300  172.1100  143.7730 C   0  0  0  0  0  2  0  0  0  0  0  0
  191.3840  172.6140  142.0510 C   0  0  2  0  0  3  0  0  0  0  0  0
  190.1970  174.5060  143.1810 N   0  0  0  0  0  0  0  0  0  0  0  0
  190.6680  172.4900  144.5760 C   0  0  0  0  0  2  0  0  0  0  0  0
  190.4600  173.0590  143.1870 C   0  0  0  0  0  0  0  0  0  0  0  0
  191.0290  174.9520  142.1710 O   0  0  0  0  0  0  0  0  0  0  0  0
  192.4510  174.1700  140.4220 C   0  0  0  0  0  2  0  0  0  0  0  0
  188.8340  174.7470  142.7140 C   0  0  0  0  0  2  0  0  0  0  0  0
  188.4680  176.2130  142.8810 C   0  0  0  0  0  2  0  0  0  0  0  0
  187.5250  176.3950  144.0560 C   0  0  0  0  0  2  0  0  0  0  0  0
  187.0990  177.8480  144.1440 C   0  0  0  0  0  2  0  0  0  0  0  0
  186.4820  177.0610  146.4210 C   0  0  0  0  0  1  0  0  0  0  0  0
  186.1540  178.0450  145.3130 C   0  0  0  0  0  2  0  0  0  0  0  0
  195.7890  174.6520  142.5420 O   0  0  0  0  0  0  0  0  0  0  0  0
  195.7690  176.0330  142.8860 C   0  0  0  0  0  2  0  0  0  0  0  0
  194.4170  176.4230  143.4680 C   0  0  0  0  0  2  0  0  0  0  0  0
  194.5580  176.8100  144.8660 N   0  0  0  0  0  2  0  0  0  0  0  0
  193.5960  176.4800  145.8730 C   0  0  0  0  0  0  0  0  0  0  0  0
  193.8300  176.7810  147.0730 O   0  0  0  0  0  0  0  0  0  0  0  0
  192.3040  175.8150  145.5240 C   0  0  0  0  0  2  0  0  0  0  0  0
  191.0070  177.6430  144.5410 C   0  0  0  0  0  2  0  0  0  0  0  0
  191.1760  176.7970  145.5560 C   0  0  0  0  0  0  0  0  0  0  0  0
  190.1800  176.7750  146.6750 C   0  0  0  0  0  2  0  0  0  0  0  0
  189.0360  174.6540  147.1790 C   0  0  0  0  0  2  0  0  0  0  0  0
  190.1140  175.4240  147.3180 C   0  0  0  0  0  3  0  0  0  0  0  0
  1 12  1  1  0  0  0
  1 11  1  0  0  0  0
  1 13  1  0  0  0  0
  3  7  2  0  0  0  0
  4 14  1  0  0  0  0
  4  6  1  0  0  0  0
  5  9  1  0  0  0  0
  6  2  2  0  0  0  0
  7  8  1  0  0  0  0
  9 12  2  0  0  0  0
 10 11  1  0  0  0  0
 11  4  2  0  0  0  0
 12  3  1  0  0  0  0
 13  8  2  0  0  0  0
 13  2  1  0  0  0  0
 15  5  1  0  0  0  0
 15 10  2  0  0  0  0
 16 18  1  0  0  0  0
 16 22  1  0  0  0  0
 17 20  1  0  0  0  0
 18  5  1  1  0  0  0
 18 21  1  0  0  0  0
 19 21  1  0  0  0  0
 21 17  1  0  0  0  0
 21 20  1  0  0  0  0
 22 19  1  0  0  0  0
 23 16  2  0  0  0  0
 24 25  1  0  0  0  0
 24 19  1  0  0  0  0
 25 26  1  0  0  0  0
 26 27  1  0  0  0  0
 27 29  1  0  0  0  0
 29 28  1  0  0  0  0
 30 31  1  0  0  0  0
 30  3  1  0  0  0  0
 31 32  1  0  0  0  0
 32 33  1  0  0  0  0
 33 34  1  0  0  0  0
 34 35  2  0  0  0  0
 36 38  1  0  0  0  0
 36 34  1  0  0  0  0
 37 38  2  0  0  0  0
 38 39  1  0  0  0  0
 39 41  1  0  0  0  0
 40 41  2  0  0  0  0
M  END
>  <MODEL>
6

>  <REMARK>
 VINA RESULT:      -6.3      2.690      5.416
  Name = 
  14 active torsions:
  status: ('A' for Active; 'I' for Inactive)
    1  A    between atoms: C_6  and  N_15
    2  A    between atoms: C_7  and  O_16
    3  A    between atoms: N_8  and  C_13
    4  A    between atoms: C_10  and  O_16
    5  A    between atoms: C_10  and  C_27
    6  A    between atoms: C_13  and  C_32
    7  A    between atoms: N_14  and  C_27
    8  A    between atoms: C_17  and  C_20
    9  A    between atoms: C_17  and  C_23
   10  A    between atoms: C_20  and  C_22
   11  A    between atoms: C_21  and  C_32
   12  A    between atoms: C_21  and  C_33
   13  A    between atoms: C_23  and  C_40
   14  A    between atoms: C_33  and  C_39
                            x       y       z     vdW  Elec       q    Type
                         _______ _______ _______ _____ _____    ______ ____

>  <TORSDO>
F 14

$$$$
=
 OpenBabel11042419563D

 41 45  0  0  1  0  0  0  0  0999 V2000
  189.7750  171.9470  139.2710 C   0  0  0  0  0  0  0  0  0  0  0  0
  190.4360  171.7310  136.8260 N   0  0  0  0  0  2  0  0  0  0  0  0
  188.4920  174.0890  139.8130 C   0  0  0  0  0  0  0  0  0  0  0  0
  191.6160  170.4840  138.4780 C   0  0  0  0  0  0  0  0  0  0  0  0
  191.0610  172.4950  142.1000 N   0  0  0  0  0  0  0  0  0  0  0  0
  191.3150  170.8580  137.1250 N   0  0  0  0  0  0  0  0  0  0  0  0
  188.1920  174.2170  138.5110 C   0  0  0  0  0  3  0  0  0  0  0  0
  188.8840  173.4170  137.4860 C   0  0  0  0  0  3  0  0  0  0  0  0
  190.0990  173.3090  141.4170 C   0  0  0  0  0  3  0  0  0  0  0  0
  191.0880  170.4010  140.8420 C   0  0  0  0  0  3  0  0  0  0  0  0
  190.9400  171.0170  139.5200 C   0  0  0  0  0  0  0  0  0  0  0  0
  189.5120  173.0970  140.2330 C   0  0  0  0  0  0  0  0  0  0  0  0
  189.6850  172.4070  137.8330 C   0  0  0  0  0  0  0  0  0  0  0  0
  192.6900  169.4620  138.6830 C   0  0  0  0  0  1  0  0  0  0  0  0
  191.1250  171.0640  141.9880 C   0  0  0  0  0  3  0  0  0  0  0  0
  190.8550  174.2090  143.8390 C   0  0  0  0  0  0  0  0  0  0  0  0
  194.2820  173.4440  142.6570 C   0  0  0  0  0  2  0  0  0  0  0  0
  191.7090  173.1580  143.2370 C   0  0  2  0  0  3  0  0  0  0  0  0
  192.7470  175.4360  143.2580 N   0  0  0  0  0  0  0  0  0  0  0  0
  193.4810  173.8900  141.4400 C   0  0  0  0  0  2  0  0  0  0  0  0
  192.8950  174.0360  142.8290 C   0  0  0  0  0  0  0  0  0  0  0  0
  191.4690  175.4490  143.7850 O   0  0  0  0  0  0  0  0  0  0  0  0
  189.6690  174.0060  144.3930 C   0  0  0  0  0  2  0  0  0  0  0  0
  193.6470  175.6940  144.3800 C   0  0  0  0  0  2  0  0  0  0  0  0
  193.0840  176.7910  145.2690 C   0  0  0  0  0  2  0  0  0  0  0  0
  193.2240  176.4140  146.7320 C   0  0  0  0  0  2  0  0  0  0  0  0
  192.3170  175.2400  147.0430 C   0  0  0  0  0  2  0  0  0  0  0  0
  191.1950  177.0420  148.3390 C   0  0  0  0  0  1  0  0  0  0  0  0
  190.9940  175.7340  147.5960 C   0  0  0  0  0  2  0  0  0  0  0  0
  187.8670  174.8900  140.7820 O   0  0  0  0  0  0  0  0  0  0  0  0
  187.5230  176.2560  140.5770 C   0  0  0  0  0  2  0  0  0  0  0  0
  188.1750  177.1380  141.6350 C   0  0  0  0  0  2  0  0  0  0  0  0
  187.2640  178.2020  142.0410 N   0  0  0  0  0  2  0  0  0  0  0  0
  186.3840  178.0950  143.1630 C   0  0  0  0  0  0  0  0  0  0  0  0
  185.6860  179.0880  143.4970 O   0  0  0  0  0  0  0  0  0  0  0  0
  186.2500  176.8170  143.9270 C   0  0  0  0  0  2  0  0  0  0  0  0
  188.1170  177.3000  145.4330 C   0  0  0  0  0  2  0  0  0  0  0  0
  186.8390  176.9520  145.2960 C   0  0  0  0  0  0  0  0  0  0  0  0
  185.9800  176.7910  146.5120 C   0  0  0  0  0  2  0  0  0  0  0  0
  184.0680  178.3430  146.5280 C   0  0  0  0  0  2  0  0  0  0  0  0
  185.3240  178.0840  146.8890 C   0  0  0  0  0  3  0  0  0  0  0  0
  1 11  2  0  0  0  0
  1 12  1  0  0  0  0
  2  6  1  0  0  0  0
  2 13  1  0  0  0  0
  3 12  1  0  0  0  0
  3 30  1  0  0  0  0
  4 14  1  0  0  0  0
  4 11  1  0  0  0  0
  6  4  2  0  0  0  0
  7  3  2  0  0  0  0
  8 13  2  0  0  0  0
  8  7  1  0  0  0  0
  9  5  1  0  0  0  0
 10 15  2  0  0  0  0
 11 10  1  0  0  0  0
 12  9  2  0  0  0  0
 13  1  1  0  0  0  0
 15  5  1  0  0  0  0
 16 23  2  0  0  0  0
 17 21  1  0  0  0  0
 18  5  1  6  0  0  0
 18 16  1  0  0  0  0
 19 22  1  0  0  0  0
 19 24  1  0  0  0  0
 20 17  1  0  0  0  0
 20 21  1  0  0  0  0
 21 18  1  0  0  0  0
 21 19  1  0  0  0  0
 22 16  1  0  0  0  0
 24 25  1  0  0  0  0
 25 26  1  0  0  0  0
 26 27  1  0  0  0  0
 27 29  1  0  0  0  0
 29 28  1  0  0  0  0
 31 30  1  0  0  0  0
 31 32  1  0  0  0  0
 32 33  1  0  0  0  0
 33 34  1  0  0  0  0
 34 35  2  0  0  0  0
 34 36  1  0  0  0  0
 36 38  1  0  0  0  0
 38 37  2  0  0  0  0
 38 39  1  0  0  0  0
 39 41  1  0  0  0  0
 40 41  2  0  0  0  0
M  END
>  <MODEL>
7

>  <REMARK>
 VINA RESULT:      -6.2      2.468      4.824
  Name = 
  14 active torsions:
  status: ('A' for Active; 'I' for Inactive)
    1  A    between atoms: C_6  and  N_15
    2  A    between atoms: C_7  and  O_16
    3  A    between atoms: N_8  and  C_13
    4  A    between atoms: C_10  and  O_16
    5  A    between atoms: C_10  and  C_27
    6  A    between atoms: C_13  and  C_32
    7  A    between atoms: N_14  and  C_27
    8  A    between atoms: C_17  and  C_20
    9  A    between atoms: C_17  and  C_23
   10  A    between atoms: C_20  and  C_22
   11  A    between atoms: C_21  and  C_32
   12  A    between atoms: C_21  and  C_33
   13  A    between atoms: C_23  and  C_40
   14  A    between atoms: C_33  and  C_39
                            x       y       z     vdW  Elec       q    Type
                         _______ _______ _______ _____ _____    ______ ____

>  <TORSDO>
F 14

$$$$
=
 OpenBabel11042419563D

 41 45  0  0  1  0  0  0  0  0999 V2000
  186.4590  178.2090  144.1670 C   0  0  1  0  0  3  0  0  0  0  0  0
  183.9960  178.4660  144.7440 N   0  0  0  0  0  0  0  0  0  0  0  0
  186.8830  177.2000  141.8580 C   0  0  0  0  0  0  0  0  0  0  0  0
  185.6140  178.4070  146.4930 C   0  0  0  0  0  0  0  0  0  0  0  0
  188.9680  176.4580  144.9350 N   0  0  0  0  0  0  0  0  0  0  0  0
  184.2810  178.5620  145.9830 N   0  0  0  0  0  0  0  0  0  0  0  0
  185.6330  177.5370  141.5020 C   0  0  0  0  0  3  0  0  0  0  0  0
  184.6380  177.9490  142.5060 C   0  0  0  0  0  3  0  0  0  0  0  0
  188.3270  176.5320  143.6560 C   0  0  0  0  0  3  0  0  0  0  0  0
  188.0180  178.3190  146.2020 C   0  0  0  0  0  3  0  0  0  0  0  0
  186.6600  178.1890  145.6650 C   0  0  0  0  0  0  0  0  0  0  0  0
  187.2810  177.2820  143.2850 C   0  0  0  0  0  0  0  0  0  0  0  0
  184.9990  178.1890  143.7690 C   0  0  0  0  0  0  0  0  0  0  0  0
  185.7990  178.5210  147.9740 C   0  0  0  0  0  1  0  0  0  0  0  0
  189.0450  177.5540  145.8600 C   0  0  0  0  0  3  0  0  0  0  0  0
  190.0010  174.8590  146.4780 C   0  0  0  0  0  0  0  0  0  0  0  0
  191.9600  175.7670  143.4680 C   0  0  0  0  0  2  0  0  0  0  0  0
  189.8970  175.3310  145.0770 C   0  0  2  0  0  3  0  0  0  0  0  0
  192.2170  175.4040  146.0150 N   0  0  0  0  0  0  0  0  0  0  0  0
  191.6820  177.0610  144.2240 C   0  0  0  0  0  2  0  0  0  0  0  0
  191.3610  175.7240  144.8620 C   0  0  0  0  0  0  0  0  0  0  0  0
  191.3000  174.9610  146.9490 O   0  0  0  0  0  0  0  0  0  0  0  0
  189.0020  174.3670  147.1950 C   0  0  0  0  0  2  0  0  0  0  0  0
  193.0510  174.2490  145.6900 C   0  0  0  0  0  2  0  0  0  0  0  0
  194.5230  174.6220  145.7660 C   0  0  0  0  0  2  0  0  0  0  0  0
  195.2330  174.2460  144.4780 C   0  0  0  0  0  2  0  0  0  0  0  0
  196.6950  173.9660  144.7680 C   0  0  0  0  0  2  0  0  0  0  0  0
  197.1070  171.7140  145.7410 C   0  0  0  0  0  1  0  0  0  0  0  0
  196.8290  173.1730  146.0530 C   0  0  0  0  0  2  0  0  0  0  0  0
  187.8130  176.7590  140.9040 O   0  0  0  0  0  0  0  0  0  0  0  0
  187.5860  175.6600  140.0270 C   0  0  0  0  0  2  0  0  0  0  0  0
  188.5640  174.5290  140.3190 C   0  0  0  0  0  2  0  0  0  0  0  0
  188.0440  173.6670  141.3720 N   0  0  0  0  0  2  0  0  0  0  0  0
  188.8810  172.9320  142.2700 C   0  0  0  0  0  0  0  0  0  0  0  0
  188.3550  172.2710  143.2040 O   0  0  0  0  0  0  0  0  0  0  0  0
  190.3660  172.9040  142.1010 C   0  0  0  0  0  2  0  0  0  0  0  0
  190.8910  170.5380  141.7630 C   0  0  0  0  0  2  0  0  0  0  0  0
  190.9290  171.5990  142.5670 C   0  0  0  0  0  0  0  0  0  0  0  0
  191.6190  171.4980  143.8930 C   0  0  0  0  0  2  0  0  0  0  0  0
  193.7260  170.4770  144.6540 C   0  0  0  0  0  2  0  0  0  0  0  0
  193.0720  171.1750  143.7270 C   0  0  0  0  0  3  0  0  0  0  0  0
  1 12  1  6  0  0  0
  1 11  1  0  0  0  0
  2  6  2  0  0  0  0
  3 12  1  0  0  0  0
  4 14  1  0  0  0  0
  5 15  1  0  0  0  0
  6  4  1  0  0  0  0
  7  3  2  0  0  0  0
  7  8  1  0  0  0  0
  8 13  2  0  0  0  0
  9  5  1  0  0  0  0
 11 10  1  0  0  0  0
 11  4  2  0  0  0  0
 12  9  2  0  0  0  0
 13  1  1  0  0  0  0
 13  2  1  0  0  0  0
 15 10  2  0  0  0  0
 16 22  1  0  0  0  0
 16 23  2  0  0  0  0
 17 20  1  0  0  0  0
 17 21  1  0  0  0  0
 18  5  1  1  0  0  0
 18 16  1  0  0  0  0
 19 22  1  0  0  0  0
 20 21  1  0  0  0  0
 21 18  1  0  0  0  0
 21 19  1  0  0  0  0
 24 25  1  0  0  0  0
 24 19  1  0  0  0  0
 26 27  1  0  0  0  0
 26 25  1  0  0  0  0
 27 29  1  0  0  0  0
 28 29  1  0  0  0  0
 30  3  1  0  0  0  0
 31 32  1  0  0  0  0
 31 30  1  0  0  0  0
 32 33  1  0  0  0  0
 33 34  1  0  0  0  0
 34 35  2  0  0  0  0
 36 34  1  0  0  0  0
 36 38  1  0  0  0  0
 37 38  2  0  0  0  0
 38 39  1  0  0  0  0
 41 39  1  0  0  0  0
 41 40  2  0  0  0  0
M  END
>  <MODEL>
8

>  <REMARK>
 VINA RESULT:      -6.2      2.539      7.987
  Name = 
  14 active torsions:
  status: ('A' for Active; 'I' for Inactive)
    1  A    between atoms: C_6  and  N_15
    2  A    between atoms: C_7  and  O_16
    3  A    between atoms: N_8  and  C_13
    4  A    between atoms: C_10  and  O_16
    5  A    between atoms: C_10  and  C_27
    6  A    between atoms: C_13  and  C_32
    7  A    between atoms: N_14  and  C_27
    8  A    between atoms: C_17  and  C_20
    9  A    between atoms: C_17  and  C_23
   10  A    between atoms: C_20  and  C_22
   11  A    between atoms: C_21  and  C_32
   12  A    between atoms: C_21  and  C_33
   13  A    between atoms: C_23  and  C_40
   14  A    between atoms: C_33  and  C_39
                            x       y       z     vdW  Elec       q    Type
                         _______ _______ _______ _____ _____    ______ ____

>  <TORSDO>
F 14

$$$$
=
 OpenBabel11042419563D

 41 45  0  0  1  0  0  0  0  0999 V2000
  189.4970  172.1370  140.3290 C   0  0  0  0  0  0  0  0  0  0  0  0
  189.7030  171.3340  137.9250 N   0  0  0  0  0  2  0  0  0  0  0  0
  188.6740  174.5460  140.5500 C   0  0  0  0  0  0  0  0  0  0  0  0
  190.9290  170.2290  139.6440 C   0  0  0  0  0  0  0  0  0  0  0  0
  191.3020  172.9690  142.7790 N   0  0  0  0  0  0  0  0  0  0  0  0
  190.4710  170.3860  138.2930 N   0  0  0  0  0  0  0  0  0  0  0  0
  188.1860  174.4740  139.3010 C   0  0  0  0  0  3  0  0  0  0  0  0
  188.5650  173.3760  138.3950 C   0  0  0  0  0  3  0  0  0  0  0  0
  190.3810  173.8020  142.0650 C   0  0  0  0  0  3  0  0  0  0  0  0
  190.7930  170.7040  142.0170 C   0  0  0  0  0  3  0  0  0  0  0  0
  190.5270  171.0700  140.6220 C   0  0  0  0  0  0  0  0  0  0  0  0
  189.5800  173.4790  141.0410 C   0  0  0  0  0  0  0  0  0  0  0  0
  189.2440  172.3200  138.8480 C   0  0  0  0  0  0  0  0  0  0  0  0
  191.8490  169.0830  139.9280 C   0  0  0  0  0  1  0  0  0  0  0  0
  191.1220  171.5570  142.9760 C   0  0  0  0  0  3  0  0  0  0  0  0
  191.5260  174.6900  144.5080 C   0  0  0  0  0  0  0  0  0  0  0  0
  194.4360  174.1960  142.2690 C   0  0  0  0  0  2  0  0  0  0  0  0
  192.2250  173.7040  143.6510 C   0  0  2  0  0  3  0  0  0  0  0  0
  193.0150  176.0620  143.3570 N   0  0  0  0  0  0  0  0  0  0  0  0
  193.2490  174.5500  141.3830 C   0  0  0  0  0  2  0  0  0  0  0  0
  193.1350  174.6720  142.8890 C   0  0  0  0  0  0  0  0  0  0  0  0
  191.9810  175.9770  144.2700 O   0  0  0  0  0  0  0  0  0  0  0  0
  190.6070  174.3980  145.4150 C   0  0  0  0  0  2  0  0  0  0  0  0
  194.2050  176.4150  144.1280 C   0  0  0  0  0  2  0  0  0  0  0  0
  193.8430  176.6400  145.5870 C   0  0  0  0  0  2  0  0  0  0  0  0
  194.5710  175.6470  146.4740 C   0  0  0  0  0  2  0  0  0  0  0  0
  195.6530  174.9490  145.6730 C   0  0  0  0  0  2  0  0  0  0  0  0
  196.8130  172.7850  146.0720 C   0  0  0  0  0  1  0  0  0  0  0  0
  195.4810  173.4450  145.7640 C   0  0  0  0  0  2  0  0  0  0  0  0
  188.3500  175.6210  141.3920 O   0  0  0  0  0  0  0  0  0  0  0  0
  187.2220  176.4670  141.1980 C   0  0  0  0  0  2  0  0  0  0  0  0
  186.8020  177.1130  142.5120 C   0  0  0  0  0  2  0  0  0  0  0  0
  187.9750  177.5080  143.2820 N   0  0  0  0  0  2  0  0  0  0  0  0
  188.0960  177.2960  144.6910 C   0  0  0  0  0  0  0  0  0  0  0  0
  189.1740  177.5930  145.2700 O   0  0  0  0  0  0  0  0  0  0  0  0
  186.9570  176.7610  145.4980 C   0  0  0  0  0  2  0  0  0  0  0  0
  186.3160  177.8040  147.6170 C   0  0  0  0  0  2  0  0  0  0  0  0
  186.3050  177.8530  146.2860 C   0  0  0  0  0  0  0  0  0  0  0  0
  185.7230  179.0460  145.5930 C   0  0  0  0  0  2  0  0  0  0  0  0
  183.9080  179.0410  143.9290 C   0  0  0  0  0  2  0  0  0  0  0  0
  184.3060  178.7950  145.1760 C   0  0  0  0  0  3  0  0  0  0  0  0
  1 11  2  0  0  0  0
  1 12  1  0  0  0  0
  2  6  1  0  0  0  0
  2 13  1  0  0  0  0
  3 12  1  0  0  0  0
  3 30  1  0  0  0  0
  4 14  1  0  0  0  0
  4 11  1  0  0  0  0
  5 15  1  0  0  0  0
  6  4  2  0  0  0  0
  7  3  2  0  0  0  0
  8 13  2  0  0  0  0
  8  7  1  0  0  0  0
  9  5  1  0  0  0  0
 10 15  2  0  0  0  0
 11 10  1  0  0  0  0
 12  9  2  0  0  0  0
 13  1  1  0  0  0  0
 16 23  2  0  0  0  0
 17 21  1  0  0  0  0
 18  5  1  6  0  0  0
 18 16  1  0  0  0  0
 19 24  1  0  0  0  0
 19 22  1  0  0  0  0
 20 17  1  0  0  0  0
 20 21  1  0  0  0  0
 21 19  1  0  0  0  0
 21 18  1  0  0  0  0
 22 16  1  0  0  0  0
 24 25  1  0  0  0  0
 25 26  1  0  0  0  0
 27 29  1  0  0  0  0
 27 26  1  0  0  0  0
 29 28  1  0  0  0  0
 31 30  1  0  0  0  0
 31 32  1  0  0  0  0
 32 33  1  0  0  0  0
 33 34  1  0  0  0  0
 34 35  2  0  0  0  0
 34 36  1  0  0  0  0
 36 38  1  0  0  0  0
 38 37  2  0  0  0  0
 39 38  1  0  0  0  0
 40 41  2  0  0  0  0
 41 39  1  0  0  0  0
M  END
>  <MODEL>
9

>  <REMARK>
 VINA RESULT:      -6.1      2.332      5.538
  Name = 
  14 active torsions:
  status: ('A' for Active; 'I' for Inactive)
    1  A    between atoms: C_6  and  N_15
    2  A    between atoms: C_7  and  O_16
    3  A    between atoms: N_8  and  C_13
    4  A    between atoms: C_10  and  O_16
    5  A    between atoms: C_10  and  C_27
    6  A    between atoms: C_13  and  C_32
    7  A    between atoms: N_14  and  C_27
    8  A    between atoms: C_17  and  C_20
    9  A    between atoms: C_17  and  C_23
   10  A    between atoms: C_20  and  C_22
   11  A    between atoms: C_21  and  C_32
   12  A    between atoms: C_21  and  C_33
   13  A    between atoms: C_23  and  C_40
   14  A    between atoms: C_33  and  C_39
                            x       y       z     vdW  Elec       q    Type
                         _______ _______ _______ _____ _____    ______ ____

>  <TORSDO>
F 14

$$$$
