=
 OpenBabel11042419063D

 43 48  0  0  1  0  0  0  0  0999 V2000
  192.3710  175.9630  146.8190 C   0  0  0  0  0  0  0  0  0  0  0  0
  195.1190  173.7090  144.1740 C   0  0  0  0  0  0  0  0  0  0  0  0
  197.1050  174.9610  143.6870 N   0  0  0  0  0  0  0  0  0  0  0  0
  197.7360  173.8510  143.2220 C   0  0  0  0  0  3  0  0  0  0  0  0
  193.3940  175.5170  146.1460 C   0  0  0  0  0  0  0  0  0  0  0  0
  197.7580  171.4060  142.7210 C   0  0  0  0  0  1  0  0  0  0  0  0
  195.7700  172.5610  143.6950 C   0  0  0  0  0  3  0  0  0  0  0  0
  191.3390  176.4050  147.4860 C   0  0  0  0  0  3  0  0  0  0  0  0
  197.0780  172.6270  143.2250 C   0  0  0  0  0  0  0  0  0  0  0  0
  193.6200  174.0490  146.0880 C   0  0  0  0  0  2  0  0  0  0  0  0
  195.2820  176.2310  144.6320 C   0  0  0  0  0  3  0  0  0  0  0  0
  195.8320  174.9350  144.1730 C   0  0  0  0  0  0  0  0  0  0  0  0
  193.6900  173.6200  144.6390 C   0  0  2  0  0  3  0  0  0  0  0  0
  194.2500  176.4860  145.4450 C   0  0  0  0  0  3  0  0  0  0  0  0
  189.7640  177.5240  145.8420 C   0  0  0  0  0  3  0  0  0  0  0  0
  187.8100  176.3470  146.2550 C   0  0  1  0  0  3  0  0  0  0  0  0
  190.0670  176.5860  146.8600 N   0  0  0  0  0  0  0  0  0  0  0  0
  188.5010  177.4280  145.4730 C   0  0  0  0  0  3  0  0  0  0  0  0
  188.8920  175.8100  147.1950 C   0  0  0  0  0  2  0  0  0  0  0  0
  186.6070  176.8660  147.0460 C   0  0  1  0  0  3  0  0  0  0  0  0
  184.7830  178.5810  146.5100 N   0  0  0  0  0  2  0  0  0  0  0  0
  186.8500  178.1920  147.5920 N   0  0  0  0  0  2  0  0  0  0  0  0
  185.1200  176.9230  146.0070 S   0  0  0  0  0  0  0  0  0  0  0  0
  185.5400  178.8000  147.7310 C   0  0  0  0  0  2  0  0  0  0  0  0
  193.1520  172.2700  144.4930 N   0  0  0  0  0  2  0  0  0  0  0  0
  191.0220  172.2650  143.3930 C   0  0  0  0  0  3  0  0  0  0  0  0
  192.2950  171.8680  143.4170 C   0  0  0  0  0  0  0  0  0  0  0  0
  190.4420  173.1610  144.4380 C   0  0  0  0  0  2  0  0  0  0  0  0
  188.6030  173.7790  142.8750 C   0  0  0  0  0  2  0  0  0  0  0  0
  188.5020  176.2080  142.1390 C   0  0  2  0  0  3  0  0  0  0  0  0
  189.7100  174.3230  143.7910 C   0  0  2  0  0  3  0  0  0  0  0  0
  189.9870  176.4590  142.4650 C   0  0  0  0  0  2  0  0  0  0  0  0
  190.6850  175.2090  143.0130 C   0  0  0  0  0  2  0  0  0  0  0  0
  188.7880  174.3220  140.4520 C   0  0  0  0  0  1  0  0  0  0  0  0
  188.1620  174.7520  141.7700 C   0  0  1  0  0  3  0  0  0  0  0  0
  187.9090  177.2070  141.2440 N   0  0  0  0  0  2  0  0  0  0  0  0
  186.4600  177.2610  141.4020 C   0  0  1  0  0  3  0  0  0  0  0  0
  186.1190  178.4480  142.0140 C   0  0  0  0  0  0  0  0  0  0  0  0
  185.9400  178.1960  140.5500 O   0  0  0  0  0  0  0  0  0  0  0  0
  186.0340  179.1910  143.0260 O   0  0  0  0  0  0  0  0  0  0  0  0
  192.7930  170.9400  142.3490 C   0  0  0  0  0  2  0  0  0  0  0  0
  193.3630  172.9110  140.9090 C   0  0  0  0  0  1  0  0  0  0  0  0
  192.6880  171.5530  140.9570 C   0  0  0  0  0  2  0  0  0  0  0  0
  1  8  2  0  0  0  0
  2 13  1  0  0  0  0
  3 12  2  0  0  0  0
  4  9  2  0  0  0  0
  4  3  1  0  0  0  0
  5  1  2  0  0  0  0
  6  9  1  0  0  0  0
  7  2  2  0  0  0  0
  9  7  1  0  0  0  0
 10  5  1  0  0  0  0
 11 14  2  0  0  0  0
 12  2  1  0  0  0  0
 12 11  1  0  0  0  0
 13 25  1  1  0  0  0
 13 10  1  0  0  0  0
 14  5  1  0  0  0  0
 15 17  1  0  0  0  0
 16 18  1  1  0  0  0
 16 20  1  0  0  0  0
 16 19  1  0  0  0  0
 17 19  1  0  0  0  0
 17  8  1  0  0  0  0
 18 15  2  0  0  0  0
 20 23  1  6  0  0  0
 20 22  1  0  0  0  0
 21 24  1  0  0  0  0
 22 24  1  0  0  0  0
 23 21  1  0  0  0  0
 26 27  2  0  0  0  0
 26 28  1  0  0  0  0
 27 25  1  0  0  0  0
 29 31  1  0  0  0  0
 30 36  1  6  0  0  0
 30 32  1  0  0  0  0
 31 28  1  6  0  0  0
 32 33  1  0  0  0  0
 33 31  1  0  0  0  0
 35 34  1  6  0  0  0
 35 30  1  0  0  0  0
 35 29  1  0  0  0  0
 37 36  1  6  0  0  0
 37 38  1  0  0  0  0
 38 40  2  0  0  0  0
 39 37  1  0  0  0  0
 39 38  1  0  0  0  0
 41 27  1  0  0  0  0
 42 43  1  0  0  0  0
 43 41  1  0  0  0  0
M  END
>  <MODEL>
1

>  <REMARK>
 VINA RESULT:      -7.6      0.000      0.000
  Name = 
  10 active torsions:
  status: ('A' for Active; 'I' for Inactive)
    1  A    between atoms: C_3  and  N_7
    2  A    between atoms: C_4  and  C_24
    3  A    between atoms: C_6  and  N_28
    4  A    between atoms: C_6  and  C_35
    5  A    between atoms: N_7  and  C_9
    6  A    between atoms: C_11  and  C_12
    7  A    between atoms: C_18  and  N_27
    8  A    between atoms: C_19  and  C_24
    9  A    between atoms: N_28  and  C_41
   10  A    between atoms: C_35  and  C_40
                            x       y       z     vdW  Elec       q    Type
                         _______ _______ _______ _____ _____    ______ ____

>  <TORSDO>
F 10

$$$$
=
 OpenBabel11042419063D

 43 48  0  0  1  0  0  0  0  0999 V2000
  189.4820  173.9580  140.9540 C   0  0  0  0  0  0  0  0  0  0  0  0
  193.3990  172.7590  142.6410 C   0  0  0  0  0  0  0  0  0  0  0  0
  193.5120  170.3960  143.0260 N   0  0  0  0  0  0  0  0  0  0  0  0
  194.8620  170.4440  143.1630 C   0  0  0  0  0  3  0  0  0  0  0  0
  190.5400  173.3120  141.3540 C   0  0  0  0  0  0  0  0  0  0  0  0
  197.0070  171.7220  143.1810 C   0  0  0  0  0  1  0  0  0  0  0  0
  194.7950  172.8110  142.7800 C   0  0  0  0  0  3  0  0  0  0  0  0
  188.4240  174.6140  140.5600 C   0  0  0  0  0  3  0  0  0  0  0  0
  195.5290  171.6570  143.0350 C   0  0  0  0  0  0  0  0  0  0  0  0
  191.8770  173.9090  141.0960 C   0  0  0  0  0  2  0  0  0  0  0  0
  191.2980  171.2820  142.6490 C   0  0  0  0  0  3  0  0  0  0  0  0
  192.7590  171.4990  142.7580 C   0  0  0  0  0  0  0  0  0  0  0  0
  192.6230  174.0280  142.4060 C   0  0  2  0  0  3  0  0  0  0  0  0
  190.3570  172.0450  142.0770 C   0  0  0  0  0  3  0  0  0  0  0  0
  186.9870  175.2670  142.5460 C   0  0  0  0  0  3  0  0  0  0  0  0
  187.0320  177.5780  142.3620 C   0  0  1  0  0  3  0  0  0  0  0  0
  187.7760  175.5660  141.4070 N   0  0  0  0  0  0  0  0  0  0  0  0
  186.5420  176.3720  143.1130 C   0  0  0  0  0  3  0  0  0  0  0  0
  187.8480  176.9970  141.2050 C   0  0  0  0  0  2  0  0  0  0  0  0
  185.8890  178.4530  141.8400 C   0  0  1  0  0  3  0  0  0  0  0  0
  183.3600  178.0930  141.6750 N   0  0  0  0  0  2  0  0  0  0  0  0
  185.4280  178.0170  140.5320 N   0  0  0  0  0  2  0  0  0  0  0  0
  184.4850  178.4450  142.9900 S   0  0  0  0  0  0  0  0  0  0  0  0
  184.0460  178.4460  140.4440 C   0  0  0  0  0  2  0  0  0  0  0  0
  193.4920  175.2010  142.3780 N   0  0  0  0  0  2  0  0  0  0  0  0
  192.6520  176.9350  143.8060 C   0  0  0  0  0  3  0  0  0  0  0  0
  193.6430  176.1040  143.4820 C   0  0  0  0  0  0  0  0  0  0  0  0
  191.3470  176.9470  143.0810 C   0  0  0  0  0  2  0  0  0  0  0  0
  190.3520  177.7770  145.2090 C   0  0  0  0  0  2  0  0  0  0  0  0
  188.4870  176.3780  146.2160 C   0  0  2  0  0  3  0  0  0  0  0  0
  190.1980  176.7710  144.0570 C   0  0  2  0  0  3  0  0  0  0  0  0
  188.9200  175.1040  145.4660 C   0  0  0  0  0  2  0  0  0  0  0  0
  190.1510  175.3340  144.5820 C   0  0  0  0  0  2  0  0  0  0  0  0
  190.6440  176.8290  147.4920 C   0  0  0  0  0  1  0  0  0  0  0  0
  189.6260  177.3740  146.5020 C   0  0  1  0  0  3  0  0  0  0  0  0
  187.6090  176.1280  147.3630 N   0  0  0  0  0  2  0  0  0  0  0  0
  186.3610  176.8740  147.2440 C   0  0  1  0  0  3  0  0  0  0  0  0
  186.5920  178.1910  147.5740 C   0  0  0  0  0  0  0  0  0  0  0  0
  186.4280  177.7120  146.1650 O   0  0  0  0  0  0  0  0  0  0  0  0
  186.8000  179.1060  148.4120 O   0  0  0  0  0  0  0  0  0  0  0  0
  194.9380  176.1780  144.2360 C   0  0  0  0  0  2  0  0  0  0  0  0
  193.8860  174.6280  145.9020 C   0  0  0  0  0  1  0  0  0  0  0  0
  194.7620  175.8520  145.7150 C   0  0  0  0  0  2  0  0  0  0  0  0
  1  5  2  0  0  0  0
  2 12  2  0  0  0  0
  2  7  1  0  0  0  0
  3  4  2  0  0  0  0
  5 14  1  0  0  0  0
  7  9  2  0  0  0  0
  8  1  2  0  0  0  0
  8 17  1  0  0  0  0
  9  4  1  0  0  0  0
  9  6  1  0  0  0  0
 10  5  1  0  0  0  0
 10 13  1  0  0  0  0
 11 12  1  0  0  0  0
 12  3  1  0  0  0  0
 13 25  1  6  0  0  0
 13  2  1  0  0  0  0
 14 11  2  0  0  0  0
 15 18  2  0  0  0  0
 16 19  1  6  0  0  0
 16 18  1  0  0  0  0
 17 15  1  0  0  0  0
 19 17  1  0  0  0  0
 20 22  1  6  0  0  0
 20 16  1  0  0  0  0
 20 23  1  0  0  0  0
 21 23  1  0  0  0  0
 24 22  1  0  0  0  0
 24 21  1  0  0  0  0
 25 27  1  0  0  0  0
 27 26  2  0  0  0  0
 27 41  1  0  0  0  0
 28 26  1  0  0  0  0
 29 35  1  0  0  0  0
 30 35  1  0  0  0  0
 30 36  1  1  0  0  0
 31 28  1  6  0  0  0
 31 33  1  0  0  0  0
 31 29  1  0  0  0  0
 32 30  1  0  0  0  0
 33 32  1  0  0  0  0
 35 34  1  1  0  0  0
 37 36  1  6  0  0  0
 37 38  1  0  0  0  0
 38 40  2  0  0  0  0
 39 37  1  0  0  0  0
 39 38  1  0  0  0  0
 41 43  1  0  0  0  0
 43 42  1  0  0  0  0
M  END
>  <MODEL>
2

>  <REMARK>
 VINA RESULT:      -7.6      2.046      5.194
  Name = 
  10 active torsions:
  status: ('A' for Active; 'I' for Inactive)
    1  A    between atoms: C_3  and  N_7
    2  A    between atoms: C_4  and  C_24
    3  A    between atoms: C_6  and  N_28
    4  A    between atoms: C_6  and  C_35
    5  A    between atoms: N_7  and  C_9
    6  A    between atoms: C_11  and  C_12
    7  A    between atoms: C_18  and  N_27
    8  A    between atoms: C_19  and  C_24
    9  A    between atoms: N_28  and  C_41
   10  A    between atoms: C_35  and  C_40
                            x       y       z     vdW  Elec       q    Type
                         _______ _______ _______ _____ _____    ______ ____

>  <TORSDO>
F 10

$$$$
=
 OpenBabel11042419063D

 43 48  0  0  1  0  0  0  0  0999 V2000
  190.7820  173.8210  141.8940 C   0  0  0  0  0  0  0  0  0  0  0  0
  193.6070  171.8570  144.6860 C   0  0  0  0  0  0  0  0  0  0  0  0
  193.4820  169.4680  144.5380 N   0  0  0  0  0  0  0  0  0  0  0  0
  194.6550  169.3280  145.2100 C   0  0  0  0  0  3  0  0  0  0  0  0
  191.5590  172.9870  142.5260 C   0  0  0  0  0  0  0  0  0  0  0  0
  196.6320  170.3120  146.3720 C   0  0  0  0  0  1  0  0  0  0  0  0
  194.8190  171.7150  145.3800 C   0  0  0  0  0  3  0  0  0  0  0  0
  190.0030  174.6620  141.2700 C   0  0  0  0  0  3  0  0  0  0  0  0
  195.3480  170.4530  145.6380 C   0  0  0  0  0  0  0  0  0  0  0  0
  192.8980  173.4590  142.9660 C   0  0  0  0  0  2  0  0  0  0  0  0
  191.6520  170.6690  143.5190 C   0  0  0  0  0  3  0  0  0  0  0  0
  192.9410  170.6840  144.2480 C   0  0  0  0  0  0  0  0  0  0  0  0
  193.0350  173.2310  144.4550 C   0  0  2  0  0  3  0  0  0  0  0  0
  191.0560  171.6340  142.8080 C   0  0  0  0  0  3  0  0  0  0  0  0
  188.0120  175.0620  142.7910 C   0  0  0  0  0  3  0  0  0  0  0  0
  187.9990  177.3790  142.8740 C   0  0  1  0  0  3  0  0  0  0  0  0
  189.0880  175.5010  141.9800 N   0  0  0  0  0  0  0  0  0  0  0  0
  187.3670  176.0880  143.3120 C   0  0  0  0  0  3  0  0  0  0  0  0
  189.1480  176.9470  141.9600 C   0  0  0  0  0  2  0  0  0  0  0  0
  187.0220  178.2920  142.1280 C   0  0  1  0  0  3  0  0  0  0  0  0
  184.4730  178.2820  141.8870 N   0  0  0  0  0  2  0  0  0  0  0  0
  186.5360  177.6790  140.9020 N   0  0  0  0  0  2  0  0  0  0  0  0
  185.6010  178.7180  143.1740 S   0  0  0  0  0  0  0  0  0  0  0  0
  185.2400  178.2810  140.6530 C   0  0  0  0  0  2  0  0  0  0  0  0
  193.8690  174.2750  145.0430 N   0  0  0  0  0  2  0  0  0  0  0  0
  193.6730  176.6480  145.3310 C   0  0  0  0  0  3  0  0  0  0  0  0
  193.9440  175.6140  144.5340 C   0  0  0  0  0  0  0  0  0  0  0  0
  193.3220  176.4770  146.7730 C   0  0  0  0  0  2  0  0  0  0  0  0
  191.2690  175.2150  147.4030 C   0  0  0  0  0  2  0  0  0  0  0  0
  189.0470  176.3650  146.9670 C   0  0  2  0  0  3  0  0  0  0  0  0
  191.8200  176.5820  146.9680 C   0  0  2  0  0  3  0  0  0  0  0  0
  189.6440  177.3060  145.9040 C   0  0  0  0  0  2  0  0  0  0  0  0
  191.1420  177.0680  145.6860 C   0  0  0  0  0  2  0  0  0  0  0  0
  189.6220  174.1350  145.8790 C   0  0  0  0  0  1  0  0  0  0  0  0
  189.7730  175.0150  147.1110 C   0  0  1  0  0  3  0  0  0  0  0  0
  187.5850  176.2550  146.9160 N   0  0  0  0  0  2  0  0  0  0  0  0
  186.9640  177.5650  146.7540 C   0  0  1  0  0  3  0  0  0  0  0  0
  185.5990  177.4340  146.8860 C   0  0  0  0  0  0  0  0  0  0  0  0
  186.4790  177.9960  147.9590 O   0  0  0  0  0  0  0  0  0  0  0  0
  184.4690  177.0910  146.4510 O   0  0  0  0  0  0  0  0  0  0  0  0
  194.2550  175.8650  143.0880 C   0  0  0  0  0  2  0  0  0  0  0  0
  196.3730  174.7050  142.4190 C   0  0  0  0  0  1  0  0  0  0  0  0
  195.7500  176.0230  142.8380 C   0  0  0  0  0  2  0  0  0  0  0  0
  1  5  2  0  0  0  0
  2  7  1  0  0  0  0
  3  4  2  0  0  0  0
  4  9  1  0  0  0  0
  5 14  1  0  0  0  0
  5 10  1  0  0  0  0
  7  9  2  0  0  0  0
  8  1  2  0  0  0  0
  8 17  1  0  0  0  0
  9  6  1  0  0  0  0
 10 13  1  0  0  0  0
 11 12  1  0  0  0  0
 12  3  1  0  0  0  0
 12  2  2  0  0  0  0
 13  2  1  0  0  0  0
 13 25  1  6  0  0  0
 14 11  2  0  0  0  0
 15 18  2  0  0  0  0
 16 19  1  6  0  0  0
 16 18  1  0  0  0  0
 17 15  1  0  0  0  0
 19 17  1  0  0  0  0
 20 22  1  6  0  0  0
 20 16  1  0  0  0  0
 20 23  1  0  0  0  0
 21 23  1  0  0  0  0
 24 22  1  0  0  0  0
 24 21  1  0  0  0  0
 26 28  1  0  0  0  0
 27 25  1  0  0  0  0
 27 26  2  0  0  0  0
 30 36  1  6  0  0  0
 30 35  1  0  0  0  0
 31 28  1  6  0  0  0
 31 29  1  0  0  0  0
 32 30  1  0  0  0  0
 33 32  1  0  0  0  0
 33 31  1  0  0  0  0
 35 34  1  6  0  0  0
 35 29  1  0  0  0  0
 37 38  1  0  0  0  0
 37 36  1  1  0  0  0
 37 39  1  0  0  0  0
 38 39  1  0  0  0  0
 40 38  2  0  0  0  0
 41 27  1  0  0  0  0
 42 43  1  0  0  0  0
 43 41  1  0  0  0  0
M  END
>  <MODEL>
3

>  <REMARK>
 VINA RESULT:      -7.4      2.159      4.961
  Name = 
  10 active torsions:
  status: ('A' for Active; 'I' for Inactive)
    1  A    between atoms: C_3  and  N_7
    2  A    between atoms: C_4  and  C_24
    3  A    between atoms: C_6  and  N_28
    4  A    between atoms: C_6  and  C_35
    5  A    between atoms: N_7  and  C_9
    6  A    between atoms: C_11  and  C_12
    7  A    between atoms: C_18  and  N_27
    8  A    between atoms: C_19  and  C_24
    9  A    between atoms: N_28  and  C_41
   10  A    between atoms: C_35  and  C_40
                            x       y       z     vdW  Elec       q    Type
                         _______ _______ _______ _____ _____    ______ ____

>  <TORSDO>
F 10

$$$$
=
 OpenBabel11042419063D

 43 48  0  0  1  0  0  0  0  0999 V2000
  191.8860  175.7540  146.6130 C   0  0  0  0  0  0  0  0  0  0  0  0
  187.7700  177.1160  145.7020 C   0  0  0  0  0  0  0  0  0  0  0  0
  186.2250  176.4810  147.4210 N   0  0  0  0  0  0  0  0  0  0  0  0
  185.2880  177.3440  146.9510 C   0  0  0  0  0  3  0  0  0  0  0  0
  190.6300  176.0990  146.6590 C   0  0  0  0  0  0  0  0  0  0  0  0
  184.5480  179.0790  145.3170 C   0  0  0  0  0  1  0  0  0  0  0  0
  186.8030  178.0100  145.2150 C   0  0  0  0  0  3  0  0  0  0  0  0
  193.1430  175.4060  146.5550 C   0  0  0  0  0  3  0  0  0  0  0  0
  185.5650  178.1310  145.8390 C   0  0  0  0  0  0  0  0  0  0  0  0
  190.2040  177.3280  145.9400 C   0  0  0  0  0  2  0  0  0  0  0  0
  188.3610  175.3550  147.4750 C   0  0  0  0  0  3  0  0  0  0  0  0
  187.4560  176.3470  146.8510 C   0  0  0  0  0  0  0  0  0  0  0  0
  189.0870  176.9750  144.9840 C   0  0  2  0  0  3  0  0  0  0  0  0
  189.6910  175.2320  147.3870 C   0  0  0  0  0  3  0  0  0  0  0  0
  193.4940  173.1420  145.4660 C   0  0  0  0  0  3  0  0  0  0  0  0
  194.6440  173.7640  143.5510 C   0  0  1  0  0  3  0  0  0  0  0  0
  193.6360  174.5510  145.5200 N   0  0  0  0  0  0  0  0  0  0  0  0
  194.0520  172.6550  144.3740 C   0  0  0  0  0  3  0  0  0  0  0  0
  194.3600  175.0300  144.3620 C   0  0  0  0  0  2  0  0  0  0  0  0
  196.1460  173.5900  143.3180 C   0  0  1  0  0  3  0  0  0  0  0  0
  197.9410  175.1240  142.3250 N   0  0  0  0  0  2  0  0  0  0  0  0
  196.4510  173.3330  141.9190 N   0  0  0  0  0  2  0  0  0  0  0  0
  197.0640  175.0610  143.8570 S   0  0  0  0  0  0  0  0  0  0  0  0
  197.8070  173.8080  141.7230 C   0  0  0  0  0  2  0  0  0  0  0  0
  189.1570  177.8260  143.8010 N   0  0  0  0  0  2  0  0  0  0  0  0
  189.9260  176.4570  141.9890 C   0  0  0  0  0  3  0  0  0  0  0  0
  189.0380  177.3340  142.4590 C   0  0  0  0  0  0  0  0  0  0  0  0
  191.0430  175.9220  142.8230 C   0  0  0  0  0  2  0  0  0  0  0  0
  190.7940  174.0120  141.2430 C   0  0  0  0  0  2  0  0  0  0  0  0
  190.7670  171.6870  142.2640 C   0  0  2  0  0  3  0  0  0  0  0  0
  191.1270  174.4120  142.6900 C   0  0  2  0  0  3  0  0  0  0  0  0
  190.3520  172.2060  143.6530 C   0  0  0  0  0  2  0  0  0  0  0  0
  190.1830  173.7300  143.6820 C   0  0  0  0  0  2  0  0  0  0  0  0
  188.7950  172.5650  140.9140 C   0  0  0  0  0  1  0  0  0  0  0  0
  190.3070  172.5630  141.0850 C   0  0  1  0  0  3  0  0  0  0  0  0
  190.5370  170.2510  142.0690 N   0  0  0  0  0  2  0  0  0  0  0  0
  191.7900  169.5060  142.1140 C   0  0  1  0  0  3  0  0  0  0  0  0
  192.3560  169.5010  140.8580 C   0  0  0  0  0  0  0  0  0  0  0  0
  192.8430  170.3680  141.9770 O   0  0  0  0  0  0  0  0  0  0  0  0
  192.4150  169.0950  139.6680 O   0  0  0  0  0  0  0  0  0  0  0  0
  187.9650  177.8510  141.5470 C   0  0  0  0  0  2  0  0  0  0  0  0
  185.4650  177.9030  141.7110 C   0  0  0  0  0  1  0  0  0  0  0  0
  186.6920  177.0160  141.6240 C   0  0  0  0  0  2  0  0  0  0  0  0
  1  5  2  0  0  0  0
  2 12  1  0  0  0  0
  4  3  1  0  0  0  0
  5 14  1  0  0  0  0
  6  9  1  0  0  0  0
  7  2  2  0  0  0  0
  7  9  1  0  0  0  0
  8  1  2  0  0  0  0
  9  4  2  0  0  0  0
 10  5  1  0  0  0  0
 12  3  2  0  0  0  0
 12 11  1  0  0  0  0
 13 25  1  6  0  0  0
 13  2  1  0  0  0  0
 13 10  1  0  0  0  0
 14 11  2  0  0  0  0
 15 17  1  0  0  0  0
 16 19  1  1  0  0  0
 16 18  1  0  0  0  0
 17  8  1  0  0  0  0
 18 15  2  0  0  0  0
 19 17  1  0  0  0  0
 20 22  1  6  0  0  0
 20 16  1  0  0  0  0
 20 23  1  0  0  0  0
 21 23  1  0  0  0  0
 24 22  1  0  0  0  0
 24 21  1  0  0  0  0
 26 27  2  0  0  0  0
 26 28  1  0  0  0  0
 27 25  1  0  0  0  0
 29 31  1  0  0  0  0
 30 36  1  6  0  0  0
 30 32  1  0  0  0  0
 31 28  1  6  0  0  0
 31 33  1  0  0  0  0
 32 33  1  0  0  0  0
 35 34  1  1  0  0  0
 35 29  1  0  0  0  0
 35 30  1  0  0  0  0
 37 36  1  6  0  0  0
 38 39  1  0  0  0  0
 38 37  1  0  0  0  0
 39 37  1  0  0  0  0
 40 38  2  0  0  0  0
 41 43  1  0  0  0  0
 41 27  1  0  0  0  0
 43 42  1  0  0  0  0
M  END
>  <MODEL>
4

>  <REMARK>
 VINA RESULT:      -7.3      3.391      8.517
  Name = 
  10 active torsions:
  status: ('A' for Active; 'I' for Inactive)
    1  A    between atoms: C_3  and  N_7
    2  A    between atoms: C_4  and  C_24
    3  A    between atoms: C_6  and  N_28
    4  A    between atoms: C_6  and  C_35
    5  A    between atoms: N_7  and  C_9
    6  A    between atoms: C_11  and  C_12
    7  A    between atoms: C_18  and  N_27
    8  A    between atoms: C_19  and  C_24
    9  A    between atoms: N_28  and  C_41
   10  A    between atoms: C_35  and  C_40
                            x       y       z     vdW  Elec       q    Type
                         _______ _______ _______ _____ _____    ______ ____

>  <TORSDO>
F 10

$$$$
=
 OpenBabel11042419063D

 43 48  0  0  1  0  0  0  0  0999 V2000
  191.1670  177.6350  143.0930 C   0  0  0  0  0  0  0  0  0  0  0  0
  194.0170  174.5220  144.4410 C   0  0  0  0  0  0  0  0  0  0  0  0
  195.9130  174.3650  142.9830 N   0  0  0  0  0  0  0  0  0  0  0  0
  196.6070  173.6430  143.9000 C   0  0  0  0  0  3  0  0  0  0  0  0
  192.2070  176.8760  143.2920 C   0  0  0  0  0  0  0  0  0  0  0  0
  196.7780  172.5530  146.1390 C   0  0  0  0  0  1  0  0  0  0  0  0
  194.7330  173.7770  145.3920 C   0  0  0  0  0  3  0  0  0  0  0  0
  190.1180  178.3870  142.8970 C   0  0  0  0  0  3  0  0  0  0  0  0
  196.0280  173.3410  145.1270 C   0  0  0  0  0  0  0  0  0  0  0  0
  192.5250  176.4570  144.6830 C   0  0  0  0  0  2  0  0  0  0  0  0
  194.0260  175.5900  142.1050 C   0  0  0  0  0  3  0  0  0  0  0  0
  194.6510  174.8270  143.2100 C   0  0  0  0  0  0  0  0  0  0  0  0
  192.6030  174.9470  144.7350 C   0  0  2  0  0  3  0  0  0  0  0  0
  192.9900  176.4380  142.1270 C   0  0  0  0  0  3  0  0  0  0  0  0
  188.1070  177.8910  141.4320 C   0  0  0  0  0  3  0  0  0  0  0  0
  186.7990  176.6690  142.9050 C   0  0  1  0  0  3  0  0  0  0  0  0
  188.8280  177.8220  142.6500 N   0  0  0  0  0  0  0  0  0  0  0  0
  186.9540  177.2580  141.5310 C   0  0  0  0  0  3  0  0  0  0  0  0
  188.0750  177.0830  143.6410 C   0  0  0  0  0  2  0  0  0  0  0  0
  185.5560  177.1870  143.6330 C   0  0  1  0  0  3  0  0  0  0  0  0
  185.1560  179.1820  145.1870 N   0  0  0  0  0  2  0  0  0  0  0  0
  185.5830  176.8600  145.0490 N   0  0  0  0  0  2  0  0  0  0  0  0
  185.3950  178.9860  143.4490 S   0  0  0  0  0  0  0  0  0  0  0  0
  184.7760  177.8760  145.6980 C   0  0  0  0  0  2  0  0  0  0  0  0
  192.1500  174.4710  146.0390 N   0  0  0  0  0  2  0  0  0  0  0  0
  190.0370  173.3840  145.7170 C   0  0  0  0  0  3  0  0  0  0  0  0
  190.7700  174.2790  146.3800 C   0  0  0  0  0  0  0  0  0  0  0  0
  190.6060  172.5250  144.6350 C   0  0  0  0  0  2  0  0  0  0  0  0
  190.0560  171.4370  142.4620 C   0  0  0  0  0  2  0  0  0  0  0  0
  188.7200  172.8190  140.8030 C   0  0  2  0  0  3  0  0  0  0  0  0
  189.7710  172.6420  143.3730 C   0  0  2  0  0  3  0  0  0  0  0  0
  189.1340  174.1550  141.4490 C   0  0  0  0  0  2  0  0  0  0  0  0
  190.0630  173.9600  142.6520 C   0  0  0  0  0  2  0  0  0  0  0  0
  191.0350  171.9300  140.2270 C   0  0  0  0  0  1  0  0  0  0  0  0
  189.7370  171.6760  140.9780 C   0  0  1  0  0  3  0  0  0  0  0  0
  188.1970  172.9500  139.4390 N   0  0  0  0  0  2  0  0  0  0  0  0
  188.6610  174.1830  138.8130 C   0  0  1  0  0  3  0  0  0  0  0  0
  188.8700  173.9540  137.4710 C   0  0  0  0  0  0  0  0  0  0  0  0
  187.6790  174.6870  138.0050 O   0  0  0  0  0  0  0  0  0  0  0  0
  189.5380  173.4800  136.5160 O   0  0  0  0  0  0  0  0  0  0  0  0
  190.1170  175.1290  147.4290 C   0  0  0  0  0  2  0  0  0  0  0  0
  189.6220  177.5230  146.8760 C   0  0  0  0  0  1  0  0  0  0  0  0
  189.1020  176.0990  146.8360 C   0  0  0  0  0  2  0  0  0  0  0  0
  1  5  2  0  0  0  0
  2 13  1  0  0  0  0
  2  7  1  0  0  0  0
  3 12  1  0  0  0  0
  3  4  2  0  0  0  0
  4  9  1  0  0  0  0
  5 10  1  0  0  0  0
  8  1  2  0  0  0  0
  9  7  2  0  0  0  0
  9  6  1  0  0  0  0
 10 13  1  0  0  0  0
 11 14  2  0  0  0  0
 11 12  1  0  0  0  0
 12  2  2  0  0  0  0
 13 25  1  1  0  0  0
 14  5  1  0  0  0  0
 15 18  2  0  0  0  0
 15 17  1  0  0  0  0
 16 18  1  6  0  0  0
 16 20  1  0  0  0  0
 16 19  1  0  0  0  0
 17  8  1  0  0  0  0
 17 19  1  0  0  0  0
 20 23  1  1  0  0  0
 20 22  1  0  0  0  0
 21 24  1  0  0  0  0
 22 24  1  0  0  0  0
 23 21  1  0  0  0  0
 25 27  1  0  0  0  0
 26 27  2  0  0  0  0
 27 41  1  0  0  0  0
 28 26  1  0  0  0  0
 29 31  1  0  0  0  0
 30 36  1  6  0  0  0
 30 35  1  0  0  0  0
 30 32  1  0  0  0  0
 31 28  1  1  0  0  0
 32 33  1  0  0  0  0
 33 31  1  0  0  0  0
 35 34  1  6  0  0  0
 35 29  1  0  0  0  0
 37 36  1  1  0  0  0
 38 39  1  0  0  0  0
 38 37  1  0  0  0  0
 39 37  1  0  0  0  0
 40 38  2  0  0  0  0
 43 42  1  0  0  0  0
 43 41  1  0  0  0  0
M  END
>  <MODEL>
5

>  <REMARK>
 VINA RESULT:      -7.2      2.361      4.123
  Name = 
  10 active torsions:
  status: ('A' for Active; 'I' for Inactive)
    1  A    between atoms: C_3  and  N_7
    2  A    between atoms: C_4  and  C_24
    3  A    between atoms: C_6  and  N_28
    4  A    between atoms: C_6  and  C_35
    5  A    between atoms: N_7  and  C_9
    6  A    between atoms: C_11  and  C_12
    7  A    between atoms: C_18  and  N_27
    8  A    between atoms: C_19  and  C_24
    9  A    between atoms: N_28  and  C_41
   10  A    between atoms: C_35  and  C_40
                            x       y       z     vdW  Elec       q    Type
                         _______ _______ _______ _____ _____    ______ ____

>  <TORSDO>
F 10

$$$$
=
 OpenBabel11042419063D

 43 48  0  0  1  0  0  0  0  0999 V2000
  191.4810  176.4180  146.7170 C   0  0  0  0  0  0  0  0  0  0  0  0
  194.6220  173.6520  145.2610 C   0  0  0  0  0  0  0  0  0  0  0  0
  196.8010  174.6440  145.3810 N   0  0  0  0  0  0  0  0  0  0  0  0
  197.4010  173.4360  145.2170 C   0  0  0  0  0  3  0  0  0  0  0  0
  192.6000  175.8080  146.4460 C   0  0  0  0  0  0  0  0  0  0  0  0
  197.2720  170.9640  144.8970 C   0  0  0  0  0  1  0  0  0  0  0  0
  195.2400  172.4030  145.0930 C   0  0  0  0  0  3  0  0  0  0  0  0
  190.3550  177.0240  146.9800 C   0  0  0  0  0  3  0  0  0  0  0  0
  196.6270  172.2900  145.0760 C   0  0  0  0  0  0  0  0  0  0  0  0
  192.6450  174.3260  146.5520 C   0  0  0  0  0  2  0  0  0  0  0  0
  194.9480  176.1770  145.5970 C   0  0  0  0  0  3  0  0  0  0  0  0
  195.4470  174.7940  145.4230 C   0  0  0  0  0  0  0  0  0  0  0  0
  193.1190  173.7530  145.2350 C   0  0  2  0  0  3  0  0  0  0  0  0
  193.7510  176.6130  146.0090 C   0  0  0  0  0  3  0  0  0  0  0  0
  189.6500  177.7420  144.6510 C   0  0  0  0  0  3  0  0  0  0  0  0
  187.3560  177.4330  144.7870 C   0  0  1  0  0  3  0  0  0  0  0  0
  189.3830  177.2710  145.9600 N   0  0  0  0  0  0  0  0  0  0  0  0
  188.5350  177.8520  143.9540 C   0  0  0  0  0  3  0  0  0  0  0  0
  187.9620  177.0620  146.1420 C   0  0  0  0  0  2  0  0  0  0  0  0
  186.3150  178.5450  144.9390 C   0  0  1  0  0  3  0  0  0  0  0  0
  184.0490  178.6530  146.1250 N   0  0  0  0  0  2  0  0  0  0  0  0
  185.1700  178.3380  144.0680 N   0  0  0  0  0  2  0  0  0  0  0  0
  185.7330  178.6610  146.6550 S   0  0  0  0  0  0  0  0  0  0  0  0
  184.0610  179.0100  144.7170 C   0  0  0  0  0  2  0  0  0  0  0  0
  192.4890  172.4570  145.0010 N   0  0  0  0  0  2  0  0  0  0  0  0
  191.7130  171.7360  142.8500 C   0  0  0  0  0  3  0  0  0  0  0  0
  191.4360  172.2440  144.0510 C   0  0  0  0  0  0  0  0  0  0  0  0
  193.0940  171.3310  142.4500 C   0  0  0  0  0  2  0  0  0  0  0  0
  195.1500  172.2630  141.3960 C   0  0  0  0  0  2  0  0  0  0  0  0
  194.8210  174.1650  139.7450 C   0  0  2  0  0  3  0  0  0  0  0  0
  193.6140  172.2410  141.3520 C   0  0  2  0  0  3  0  0  0  0  0  0
  193.4450  174.5460  140.3240 C   0  0  0  0  0  2  0  0  0  0  0  0
  193.0360  173.6500  141.4990 C   0  0  0  0  0  2  0  0  0  0  0  0
  196.2240  174.4630  141.8490 C   0  0  0  0  0  1  0  0  0  0  0  0
  195.7830  173.5070  140.7520 C   0  0  1  0  0  3  0  0  0  0  0  0
  195.4370  175.2150  138.9270 N   0  0  0  0  0  2  0  0  0  0  0  0
  196.5970  174.7070  138.2040 C   0  0  1  0  0  3  0  0  0  0  0  0
  196.8840  175.5590  137.1600 C   0  0  0  0  0  0  0  0  0  0  0  0
  197.6730  175.5200  138.4310 O   0  0  0  0  0  0  0  0  0  0  0  0
  196.6550  176.0290  136.0160 O   0  0  0  0  0  0  0  0  0  0  0  0
  190.0290  172.6590  144.3660 C   0  0  0  0  0  2  0  0  0  0  0  0
  188.9850  174.2830  142.7690 C   0  0  0  0  0  1  0  0  0  0  0  0
  189.7780  174.1290  144.0530 C   0  0  0  0  0  2  0  0  0  0  0  0
  1  8  2  0  0  0  0
  2 12  1  0  0  0  0
  3 12  2  0  0  0  0
  4  3  1  0  0  0  0
  5 10  1  0  0  0  0
  5  1  2  0  0  0  0
  6  9  1  0  0  0  0
  7  2  2  0  0  0  0
  9  7  1  0  0  0  0
  9  4  2  0  0  0  0
 11 14  2  0  0  0  0
 12 11  1  0  0  0  0
 13 25  1  1  0  0  0
 13  2  1  0  0  0  0
 13 10  1  0  0  0  0
 14  5  1  0  0  0  0
 15 17  1  0  0  0  0
 16 18  1  6  0  0  0
 16 20  1  0  0  0  0
 16 19  1  0  0  0  0
 17 19  1  0  0  0  0
 17  8  1  0  0  0  0
 18 15  2  0  0  0  0
 20 22  1  6  0  0  0
 20 23  1  0  0  0  0
 21 23  1  0  0  0  0
 22 24  1  0  0  0  0
 24 21  1  0  0  0  0
 26 27  2  0  0  0  0
 27 41  1  0  0  0  0
 27 25  1  0  0  0  0
 28 26  1  0  0  0  0
 30 36  1  1  0  0  0
 30 32  1  0  0  0  0
 30 35  1  0  0  0  0
 31 29  1  0  0  0  0
 31 33  1  0  0  0  0
 31 28  1  1  0  0  0
 32 33  1  0  0  0  0
 35 29  1  0  0  0  0
 35 34  1  1  0  0  0
 37 39  1  0  0  0  0
 37 36  1  1  0  0  0
 38 37  1  0  0  0  0
 38 39  1  0  0  0  0
 40 38  2  0  0  0  0
 42 43  1  0  0  0  0
 43 41  1  0  0  0  0
M  END
>  <MODEL>
6

>  <REMARK>
 VINA RESULT:      -7.2      3.269      5.027
  Name = 
  10 active torsions:
  status: ('A' for Active; 'I' for Inactive)
    1  A    between atoms: C_3  and  N_7
    2  A    between atoms: C_4  and  C_24
    3  A    between atoms: C_6  and  N_28
    4  A    between atoms: C_6  and  C_35
    5  A    between atoms: N_7  and  C_9
    6  A    between atoms: C_11  and  C_12
    7  A    between atoms: C_18  and  N_27
    8  A    between atoms: C_19  and  C_24
    9  A    between atoms: N_28  and  C_41
   10  A    between atoms: C_35  and  C_40
                            x       y       z     vdW  Elec       q    Type
                         _______ _______ _______ _____ _____    ______ ____

>  <TORSDO>
F 10

$$$$
=
 OpenBabel11042419063D

 43 48  0  0  1  0  0  0  0  0999 V2000
  189.7930  175.2250  146.7450 C   0  0  0  0  0  0  0  0  0  0  0  0
  193.4730  175.2670  144.2780 C   0  0  0  0  0  0  0  0  0  0  0  0
  195.4420  175.4840  145.6270 N   0  0  0  0  0  0  0  0  0  0  0  0
  196.2380  175.1050  144.5940 C   0  0  0  0  0  3  0  0  0  0  0  0
  191.0170  175.1720  146.3020 C   0  0  0  0  0  0  0  0  0  0  0  0
  196.5330  174.3710  142.2260 C   0  0  0  0  0  1  0  0  0  0  0  0
  194.2930  174.8750  143.2080 C   0  0  0  0  0  3  0  0  0  0  0  0
  188.5640  175.2850  147.1810 C   0  0  0  0  0  3  0  0  0  0  0  0
  195.6730  174.7870  143.3640 C   0  0  0  0  0  0  0  0  0  0  0  0
  191.2800  174.4560  145.0260 C   0  0  0  0  0  2  0  0  0  0  0  0
  193.3610  176.0020  146.7360 C   0  0  0  0  0  3  0  0  0  0  0  0
  194.0860  175.5640  145.5220 C   0  0  0  0  0  0  0  0  0  0  0  0
  191.9860  175.3940  144.0730 C   0  0  2  0  0  3  0  0  0  0  0  0
  192.0710  175.8580  147.0650 C   0  0  0  0  0  3  0  0  0  0  0  0
  186.3600  176.5400  147.2620 C   0  0  0  0  0  3  0  0  0  0  0  0
  186.8240  178.3060  145.8330 C   0  0  1  0  0  3  0  0  0  0  0  0
  187.6890  176.3530  146.8070 N   0  0  0  0  0  0  0  0  0  0  0  0
  185.8310  177.6280  146.7350 C   0  0  0  0  0  3  0  0  0  0  0  0
  188.0620  177.4100  145.8910 C   0  0  0  0  0  2  0  0  0  0  0  0
  186.3170  178.4460  144.3960 C   0  0  1  0  0  3  0  0  0  0  0  0
  183.9720  178.6730  143.3930 N   0  0  0  0  0  2  0  0  0  0  0  0
  185.7530  177.2020  143.8970 N   0  0  0  0  0  2  0  0  0  0  0  0
  185.0610  179.7510  144.2720 S   0  0  0  0  0  0  0  0  0  0  0  0
  184.7930  177.5900  142.8810 C   0  0  0  0  0  2  0  0  0  0  0  0
  191.5970  175.0910  142.6980 N   0  0  0  0  0  2  0  0  0  0  0  0
  190.0950  173.6900  141.4600 C   0  0  0  0  0  3  0  0  0  0  0  0
  190.2720  174.6990  142.3150 C   0  0  0  0  0  0  0  0  0  0  0  0
  191.2360  172.9060  140.9000 C   0  0  0  0  0  2  0  0  0  0  0  0
  193.4580  171.9320  141.4690 C   0  0  0  0  0  2  0  0  0  0  0  0
  193.6630  170.8160  143.7400 C   0  0  2  0  0  3  0  0  0  0  0  0
  192.0760  172.3190  142.0200 C   0  0  2  0  0  3  0  0  0  0  0  0
  192.1440  170.5900  143.8640 C   0  0  0  0  0  2  0  0  0  0  0  0
  191.3740  171.1130  142.6460 C   0  0  0  0  0  2  0  0  0  0  0  0
  194.0750  169.5230  141.5860 C   0  0  0  0  0  1  0  0  0  0  0  0
  194.1910  170.8640  142.2950 C   0  0  1  0  0  3  0  0  0  0  0  0
  194.4660  169.9850  144.6440 N   0  0  0  0  0  2  0  0  0  0  0  0
  194.8490  170.7270  145.8400 C   0  0  1  0  0  3  0  0  0  0  0  0
  195.9200  171.5400  145.5410 C   0  0  0  0  0  0  0  0  0  0  0  0
  194.5190  172.0460  145.6890 O   0  0  0  0  0  0  0  0  0  0  0  0
  197.1410  171.7260  145.3060 O   0  0  0  0  0  0  0  0  0  0  0  0
  189.0780  175.4610  142.8070 C   0  0  0  0  0  2  0  0  0  0  0  0
  189.1520  177.9120  142.2910 C   0  0  0  0  0  1  0  0  0  0  0  0
  188.6520  176.5550  141.8340 C   0  0  0  0  0  2  0  0  0  0  0  0
  1  8  2  0  0  0  0
  2 12  1  0  0  0  0
  4  3  1  0  0  0  0
  5  1  2  0  0  0  0
  5 14  1  0  0  0  0
  6  9  1  0  0  0  0
  7  9  1  0  0  0  0
  7  2  2  0  0  0  0
  9  4  2  0  0  0  0
 10  5  1  0  0  0  0
 11 14  2  0  0  0  0
 12  3  2  0  0  0  0
 12 11  1  0  0  0  0
 13 25  1  6  0  0  0
 13  2  1  0  0  0  0
 13 10  1  0  0  0  0
 16 19  1  6  0  0  0
 16 18  1  0  0  0  0
 17  8  1  0  0  0  0
 17 15  1  0  0  0  0
 18 15  2  0  0  0  0
 19 17  1  0  0  0  0
 20 22  1  1  0  0  0
 20 16  1  0  0  0  0
 21 23  1  0  0  0  0
 23 20  1  0  0  0  0
 24 21  1  0  0  0  0
 24 22  1  0  0  0  0
 26 27  2  0  0  0  0
 27 25  1  0  0  0  0
 27 41  1  0  0  0  0
 28 26  1  0  0  0  0
 29 31  1  0  0  0  0
 29 35  1  0  0  0  0
 30 32  1  0  0  0  0
 30 36  1  1  0  0  0
 31 28  1  6  0  0  0
 31 33  1  0  0  0  0
 33 32  1  0  0  0  0
 35 34  1  6  0  0  0
 35 30  1  0  0  0  0
 37 36  1  6  0  0  0
 38 39  1  0  0  0  0
 38 37  1  0  0  0  0
 39 37  1  0  0  0  0
 40 38  2  0  0  0  0
 43 42  1  0  0  0  0
 43 41  1  0  0  0  0
M  END
>  <MODEL>
7

>  <REMARK>
 VINA RESULT:      -7.0      3.252      5.621
  Name = 
  10 active torsions:
  status: ('A' for Active; 'I' for Inactive)
    1  A    between atoms: C_3  and  N_7
    2  A    between atoms: C_4  and  C_24
    3  A    between atoms: C_6  and  N_28
    4  A    between atoms: C_6  and  C_35
    5  A    between atoms: N_7  and  C_9
    6  A    between atoms: C_11  and  C_12
    7  A    between atoms: C_18  and  N_27
    8  A    between atoms: C_19  and  C_24
    9  A    between atoms: N_28  and  C_41
   10  A    between atoms: C_35  and  C_40
                            x       y       z     vdW  Elec       q    Type
                         _______ _______ _______ _____ _____    ______ ____

>  <TORSDO>
F 10

$$$$
=
 OpenBabel11042419063D

 43 48  0  0  1  0  0  0  0  0999 V2000
  188.5620  174.6170  140.9240 C   0  0  0  0  0  0  0  0  0  0  0  0
  187.3130  177.3560  144.1740 C   0  0  0  0  0  0  0  0  0  0  0  0
  185.9340  179.1360  143.3520 N   0  0  0  0  0  0  0  0  0  0  0  0
  185.5300  179.4540  144.6100 C   0  0  0  0  0  3  0  0  0  0  0  0
  187.9740  175.5150  141.6630 C   0  0  0  0  0  0  0  0  0  0  0  0
  185.5650  179.0630  147.0750 C   0  0  0  0  0  1  0  0  0  0  0  0
  186.8960  177.6820  145.4750 C   0  0  0  0  0  3  0  0  0  0  0  0
  189.1610  173.7190  140.1890 C   0  0  0  0  0  3  0  0  0  0  0  0
  186.0010  178.7250  145.6950 C   0  0  0  0  0  0  0  0  0  0  0  0
  187.6920  175.1890  143.0850 C   0  0  0  0  0  2  0  0  0  0  0  0
  187.1450  177.8990  141.6700 C   0  0  0  0  0  3  0  0  0  0  0  0
  186.7930  178.1110  143.0920 C   0  0  0  0  0  0  0  0  0  0  0  0
  188.3140  176.2500  143.9650 C   0  0  2  0  0  3  0  0  0  0  0  0
  187.6570  176.8200  141.0640 C   0  0  0  0  0  3  0  0  0  0  0  0
  191.4970  173.7280  141.1790 C   0  0  0  0  0  3  0  0  0  0  0  0
  192.7730  173.4750  139.2600 C   0  0  1  0  0  3  0  0  0  0  0  0
  190.5860  173.6590  140.0950 N   0  0  0  0  0  0  0  0  0  0  0  0
  192.7430  173.6320  140.7530 C   0  0  0  0  0  3  0  0  0  0  0  0
  191.3010  173.5140  138.8440 C   0  0  0  0  0  2  0  0  0  0  0  0
  193.5670  174.5840  138.5650 C   0  0  1  0  0  3  0  0  0  0  0  0
  194.5770  174.7920  136.2210 N   0  0  0  0  0  2  0  0  0  0  0  0
  194.9850  174.2700  138.4910 N   0  0  0  0  0  2  0  0  0  0  0  0
  192.9430  174.8770  136.8850 S   0  0  0  0  0  0  0  0  0  0  0  0
  195.4840  174.9950  137.3380 C   0  0  0  0  0  2  0  0  0  0  0  0
  188.7440  175.6580  145.2290 N   0  0  0  0  0  2  0  0  0  0  0  0
  191.0270  174.9280  145.3020 C   0  0  0  0  0  3  0  0  0  0  0  0
  189.7300  174.6210  145.3260 C   0  0  0  0  0  0  0  0  0  0  0  0
  191.5160  176.3370  145.2150 C   0  0  0  0  0  2  0  0  0  0  0  0
  193.2750  174.9800  144.0870 C   0  0  0  0  0  2  0  0  0  0  0  0
  195.5660  176.0510  143.8590 C   0  0  2  0  0  3  0  0  0  0  0  0
  192.9080  176.3770  144.6120 C   0  0  2  0  0  3  0  0  0  0  0  0
  195.3160  177.0390  145.0130 C   0  0  0  0  0  2  0  0  0  0  0  0
  193.9280  176.8660  145.6420 C   0  0  0  0  0  2  0  0  0  0  0  0
  195.2420  173.8710  145.1360 C   0  0  0  0  0  1  0  0  0  0  0  0
  194.7860  174.7270  143.9640 C   0  0  1  0  0  3  0  0  0  0  0  0
  196.9810  175.8850  143.5100 N   0  0  0  0  0  2  0  0  0  0  0  0
  197.2980  176.5650  142.2590 C   0  0  1  0  0  3  0  0  0  0  0  0
  197.1960  175.6660  141.2200 C   0  0  0  0  0  0  0  0  0  0  0  0
  196.1610  176.7080  141.5120 O   0  0  0  0  0  0  0  0  0  0  0  0
  197.6280  174.6980  140.5440 O   0  0  0  0  0  0  0  0  0  0  0  0
  189.3180  173.1790  145.3790 C   0  0  0  0  0  2  0  0  0  0  0  0
  189.3090  171.7990  143.2870 C   0  0  0  0  0  1  0  0  0  0  0  0
  190.1490  172.3080  144.4430 C   0  0  0  0  0  2  0  0  0  0  0  0
  1  5  2  0  0  0  0
  2  7  1  0  0  0  0
  3  4  2  0  0  0  0
  4  9  1  0  0  0  0
  5 10  1  0  0  0  0
  7  9  2  0  0  0  0
  8  1  2  0  0  0  0
  9  6  1  0  0  0  0
 10 13  1  0  0  0  0
 11 12  1  0  0  0  0
 12  3  1  0  0  0  0
 12  2  2  0  0  0  0
 13  2  1  0  0  0  0
 13 25  1  1  0  0  0
 14  5  1  0  0  0  0
 14 11  2  0  0  0  0
 16 19  1  6  0  0  0
 16 18  1  0  0  0  0
 17  8  1  0  0  0  0
 17 15  1  0  0  0  0
 18 15  2  0  0  0  0
 19 17  1  0  0  0  0
 20 23  1  6  0  0  0
 20 16  1  0  0  0  0
 21 23  1  0  0  0  0
 21 24  1  0  0  0  0
 22 20  1  0  0  0  0
 24 22  1  0  0  0  0
 25 27  1  0  0  0  0
 26 27  2  0  0  0  0
 27 41  1  0  0  0  0
 28 26  1  0  0  0  0
 29 31  1  0  0  0  0
 30 36  1  1  0  0  0
 30 35  1  0  0  0  0
 30 32  1  0  0  0  0
 31 28  1  1  0  0  0
 31 33  1  0  0  0  0
 32 33  1  0  0  0  0
 35 29  1  0  0  0  0
 35 34  1  1  0  0  0
 37 36  1  1  0  0  0
 38 39  1  0  0  0  0
 38 37  1  0  0  0  0
 39 37  1  0  0  0  0
 40 38  2  0  0  0  0
 42 43  1  0  0  0  0
 43 41  1  0  0  0  0
M  END
>  <MODEL>
8

>  <REMARK>
 VINA RESULT:      -6.8      3.908      9.119
  Name = 
  10 active torsions:
  status: ('A' for Active; 'I' for Inactive)
    1  A    between atoms: C_3  and  N_7
    2  A    between atoms: C_4  and  C_24
    3  A    between atoms: C_6  and  N_28
    4  A    between atoms: C_6  and  C_35
    5  A    between atoms: N_7  and  C_9
    6  A    between atoms: C_11  and  C_12
    7  A    between atoms: C_18  and  N_27
    8  A    between atoms: C_19  and  C_24
    9  A    between atoms: N_28  and  C_41
   10  A    between atoms: C_35  and  C_40
                            x       y       z     vdW  Elec       q    Type
                         _______ _______ _______ _____ _____    ______ ____

>  <TORSDO>
F 10

$$$$
=
 OpenBabel11042419063D

 43 48  0  0  1  0  0  0  0  0999 V2000
  191.7220  175.4220  146.3170 C   0  0  0  0  0  0  0  0  0  0  0  0
  187.7540  177.1470  145.3630 C   0  0  0  0  0  0  0  0  0  0  0  0
  186.1990  176.8400  147.1620 N   0  0  0  0  0  0  0  0  0  0  0  0
  185.3490  177.7570  146.6330 C   0  0  0  0  0  3  0  0  0  0  0  0
  190.5130  175.9070  146.3560 C   0  0  0  0  0  0  0  0  0  0  0  0
  184.7560  179.4140  144.8620 C   0  0  0  0  0  1  0  0  0  0  0  0
  186.8770  178.0960  144.8150 C   0  0  0  0  0  3  0  0  0  0  0  0
  192.9320  174.9340  146.2680 C   0  0  0  0  0  3  0  0  0  0  0  0
  185.6780  178.4080  145.4490 C   0  0  0  0  0  0  0  0  0  0  0  0
  190.2030  177.1070  145.5360 C   0  0  0  0  0  2  0  0  0  0  0  0
  188.2000  175.4940  147.2780 C   0  0  0  0  0  3  0  0  0  0  0  0
  187.3910  176.5210  146.5830 C   0  0  0  0  0  0  0  0  0  0  0  0
  189.0270  176.7980  144.6370 C   0  0  2  0  0  3  0  0  0  0  0  0
  189.5070  175.2170  147.1760 C   0  0  0  0  0  3  0  0  0  0  0  0
  192.4330  173.3330  144.3630 C   0  0  0  0  0  3  0  0  0  0  0  0
  194.5360  172.4230  144.0100 C   0  0  1  0  0  3  0  0  0  0  0  0
  193.2990  173.9420  145.3060 N   0  0  0  0  0  0  0  0  0  0  0  0
  193.0870  172.4660  143.6140 C   0  0  0  0  0  3  0  0  0  0  0  0
  194.6420  173.4190  145.1670 C   0  0  0  0  0  2  0  0  0  0  0  0
  194.9880  171.0280  144.4470 C   0  0  1  0  0  3  0  0  0  0  0  0
  193.7220  168.8400  144.8610 N   0  0  0  0  0  2  0  0  0  0  0  0
  194.6740  170.7700  145.8430 N   0  0  0  0  0  2  0  0  0  0  0  0
  194.2140  169.7420  143.4250 S   0  0  0  0  0  0  0  0  0  0  0  0
  194.5470  169.3290  145.9530 C   0  0  0  0  0  2  0  0  0  0  0  0
  189.1560  177.5290  143.3800 N   0  0  0  0  0  2  0  0  0  0  0  0
  188.6190  175.9760  141.6340 C   0  0  0  0  0  3  0  0  0  0  0  0
  188.4500  177.1800  142.1820 C   0  0  0  0  0  0  0  0  0  0  0  0
  189.4980  174.9340  142.2440 C   0  0  0  0  0  2  0  0  0  0  0  0
  190.9920  173.5720  140.7870 C   0  0  0  0  0  2  0  0  0  0  0  0
  189.8710  171.8180  139.3330 C   0  0  2  0  0  3  0  0  0  0  0  0
  189.5670  173.7100  141.3490 C   0  0  2  0  0  3  0  0  0  0  0  0
  188.5010  172.5210  139.3890 C   0  0  0  0  0  2  0  0  0  0  0  0
  188.5370  173.8070  140.2230 C   0  0  0  0  0  2  0  0  0  0  0  0
  191.2370  173.7100  138.3140 C   0  0  0  0  0  1  0  0  0  0  0  0
  191.0820  172.7560  139.4880 C   0  0  1  0  0  3  0  0  0  0  0  0
  190.0020  170.8490  138.2400 N   0  0  0  0  0  2  0  0  0  0  0  0
  191.1490  169.9730  138.4470 C   0  0  1  0  0  3  0  0  0  0  0  0
  190.7590  168.8960  139.2130 C   0  0  0  0  0  0  0  0  0  0  0  0
  190.9800  168.8170  137.7340 O   0  0  0  0  0  0  0  0  0  0  0  0
  190.4420  168.3710  140.3110 O   0  0  0  0  0  0  0  0  0  0  0  0
  187.5760  178.1840  141.4900 C   0  0  0  0  0  2  0  0  0  0  0  0
  185.0720  178.2250  141.4080 C   0  0  0  0  0  1  0  0  0  0  0  0
  186.3270  177.5470  140.8930 C   0  0  0  0  0  2  0  0  0  0  0  0
  1  5  2  0  0  0  0
  2 12  1  0  0  0  0
  4  3  1  0  0  0  0
  5 14  1  0  0  0  0
  6  9  1  0  0  0  0
  7  2  2  0  0  0  0
  7  9  1  0  0  0  0
  8  1  2  0  0  0  0
  9  4  2  0  0  0  0
 10  5  1  0  0  0  0
 12  3  2  0  0  0  0
 12 11  1  0  0  0  0
 13 25  1  6  0  0  0
 13  2  1  0  0  0  0
 13 10  1  0  0  0  0
 14 11  2  0  0  0  0
 15 17  1  0  0  0  0
 16 18  1  1  0  0  0
 16 20  1  0  0  0  0
 16 19  1  0  0  0  0
 17  8  1  0  0  0  0
 18 15  2  0  0  0  0
 19 17  1  0  0  0  0
 20 23  1  6  0  0  0
 20 22  1  0  0  0  0
 21 24  1  0  0  0  0
 22 24  1  0  0  0  0
 23 21  1  0  0  0  0
 26 27  2  0  0  0  0
 26 28  1  0  0  0  0
 27 25  1  0  0  0  0
 29 31  1  0  0  0  0
 30 36  1  6  0  0  0
 30 32  1  0  0  0  0
 30 35  1  0  0  0  0
 31 28  1  6  0  0  0
 32 33  1  0  0  0  0
 33 31  1  0  0  0  0
 35 34  1  6  0  0  0
 35 29  1  0  0  0  0
 37 36  1  6  0  0  0
 37 38  1  0  0  0  0
 38 40  2  0  0  0  0
 39 37  1  0  0  0  0
 39 38  1  0  0  0  0
 41 27  1  0  0  0  0
 43 42  1  0  0  0  0
 43 41  1  0  0  0  0
M  END
>  <MODEL>
9

>  <REMARK>
 VINA RESULT:      -6.7      3.691      8.455
  Name = 
  10 active torsions:
  status: ('A' for Active; 'I' for Inactive)
    1  A    between atoms: C_3  and  N_7
    2  A    between atoms: C_4  and  C_24
    3  A    between atoms: C_6  and  N_28
    4  A    between atoms: C_6  and  C_35
    5  A    between atoms: N_7  and  C_9
    6  A    between atoms: C_11  and  C_12
    7  A    between atoms: C_18  and  N_27
    8  A    between atoms: C_19  and  C_24
    9  A    between atoms: N_28  and  C_41
   10  A    between atoms: C_35  and  C_40
                            x       y       z     vdW  Elec       q    Type
                         _______ _______ _______ _____ _____    ______ ____

>  <TORSDO>
F 10

$$$$
