=
 OpenBabel11042419243D

 40 44  0  0  1  0  0  0  0  0999 V2000
  193.6740  175.3930  146.1550 C   0  0  0  0  0  0  0  0  0  0  0  0
  192.1680  175.2400  146.2000 C   0  0  1  0  0  3  0  0  0  0  0  0
  195.6180  176.4690  144.0570 C   0  0  0  0  0  2  0  0  0  0  0  0
  193.9860  173.9210  139.9780 C   0  0  2  0  0  3  0  0  0  0  0  0
  189.8980  177.8400  147.3370 O   0  0  0  0  0  0  0  0  0  0  0  0
  191.7440  175.4070  142.6080 C   0  0  0  0  0  2  0  0  0  0  0  0
  194.1240  173.0720  138.7690 C   0  0  0  0  0  3  0  0  0  0  0  0
  191.5930  176.3600  146.8920 O   0  0  0  0  0  0  0  0  0  0  0  0
  194.4360  176.4570  143.2630 O   0  0  0  0  0  0  0  0  0  0  0  0
  196.1570  173.9760  139.3650 N   0  0  0  0  0  0  0  0  0  0  0  0
  195.3920  175.2860  141.3610 C   0  0  0  0  0  3  0  0  0  0  0  0
  189.5470  176.4220  145.4320 C   0  0  1  0  0  3  0  0  0  0  0  0
  194.4980  174.6220  145.2660 N   0  0  0  0  0  0  0  0  0  0  0  0
  192.8550  174.2230  140.7310 C   0  0  0  0  0  3  0  0  0  0  0  0
  190.3230  176.8850  146.6340 C   0  0  0  0  0  0  0  0  0  0  0  0
  191.9870  175.9400  143.8820 O   0  0  0  0  0  0  0  0  0  0  0  0
  191.5220  174.9950  144.8120 C   0  0  2  0  0  3  0  0  0  0  0  0
  189.9850  175.0540  144.9100 C   0  0  1  0  0  3  0  0  0  0  0  0
  195.5570  173.1360  138.4030 N   0  0  0  0  0  0  0  0  0  0  0  0
  195.1950  174.4300  140.2840 C   0  0  0  0  0  0  0  0  0  0  0  0
  194.2760  175.6180  142.1570 C   0  0  0  0  0  0  0  0  0  0  0  0
  194.2210  176.2290  146.9260 O   0  0  0  0  0  0  0  0  0  0  0  0
  192.9960  175.0780  141.8430 C   0  0  0  0  0  0  0  0  0  0  0  0
  195.7840  175.1410  144.8030 C   0  0  0  0  0  2  0  0  0  0  0  0
  190.0520  172.7050  145.3450 F   0  0  0  0  0  0  0  0  0  0  0  0
  189.3870  174.0580  147.0310 F   0  0  0  0  0  0  0  0  0  0  0  0
  189.3730  173.8660  145.6600 C   0  0  0  0  0  3  0  0  0  0  0  0
  194.1000  173.3540  144.8220 C   0  0  0  0  0  0  0  0  0  0  0  0
  193.7480  172.2680  144.4360 C   0  0  0  0  0  3  0  0  0  0  0  0
  187.4140  176.6110  146.7980 C   0  0  0  0  0  1  0  0  0  0  0  0
  188.0350  176.6890  145.4140 C   0  0  1  0  0  3  0  0  0  0  0  0
  187.7930  177.9440  144.8420 O   0  0  0  0  0  0  0  0  0  0  0  0
  185.8220  179.2500  145.1410 C   0  0  0  0  0  1  0  0  0  0  0  0
  186.4160  177.9780  144.5680 C   0  0  1  0  0  3  0  0  0  0  0  0
  186.1160  177.9010  143.0630 C   0  0  2  0  0  3  0  0  0  0  0  0
  187.4280  178.0690  142.2970 C   0  0  0  0  0  3  0  0  0  0  0  0
  187.8650  176.7060  141.7870 C   0  0  0  0  0  2  0  0  0  0  0  0
  187.2970  177.7230  140.8210 C   0  0  0  0  0  2  0  0  0  0  0  0
  185.1690  178.8640  142.6850 O   0  0  0  0  0  0  0  0  0  0  0  0
  184.0580  178.1380  142.2640 C   0  0  0  0  0  1  0  0  0  0  0  0
  1 22  2  0  0  0  0
  2  1  1  6  0  0  0
  2  8  1  0  0  0  0
  3 24  1  0  0  0  0
  4  7  1  6  0  0  0
  4 20  1  0  0  0  0
  4 14  1  0  0  0  0
  6 16  1  0  0  0  0
  9  3  1  0  0  0  0
 10 20  2  0  0  0  0
 11 21  2  0  0  0  0
 12 31  1  1  0  0  0
 12 15  1  0  0  0  0
 13  1  1  0  0  0  0
 14 23  2  0  0  0  0
 15  8  1  0  0  0  0
 15  5  2  0  0  0  0
 17 16  1  6  0  0  0
 17 18  1  0  0  0  0
 17  2  1  0  0  0  0
 18 12  1  0  0  0  0
 18 27  1  1  0  0  0
 19  7  2  0  0  0  0
 19 10  1  0  0  0  0
 20 11  1  0  0  0  0
 21  9  1  0  0  0  0
 23 21  1  0  0  0  0
 23  6  1  0  0  0  0
 24 13  1  0  0  0  0
 25 27  1  0  0  0  0
 27 26  1  0  0  0  0
 28 13  1  0  0  0  0
 29 28  3  0  0  0  0
 31 30  1  1  0  0  0
 32 31  1  0  0  0  0
 34 32  1  0  0  0  0
 34 33  1  6  0  0  0
 35 39  1  6  0  0  0
 35 34  1  0  0  0  0
 36 35  1  0  0  0  0
 37 36  1  0  0  0  0
 38 37  1  0  0  0  0
 38 36  1  0  0  0  0
 40 39  1  0  0  0  0
M  END
>  <MODEL>
1

>  <REMARK>
 VINA RESULT:      -7.5      0.000      0.000
  Name = 
  8 active torsions:
  status: ('A' for Active; 'I' for Inactive)
    1  A    between atoms: C_4  and  N_23
    2  A    between atoms: C_8  and  C_17
    3  A    between atoms: O_9  and  C_35
    4  A    between atoms: O_9  and  C_40
    5  A    between atoms: C_17  and  O_19
    6  A    between atoms: C_17  and  C_35
    7  A    between atoms: C_22  and  C_40
    8  A    between atoms: C_29  and  C_30
                            x       y       z     vdW  Elec       q    Type
                         _______ _______ _______ _____ _____    ______ ____

>  <TORSDO>
F 8

$$$$
=
 OpenBabel11042419243D

 40 44  0  0  1  0  0  0  0  0999 V2000
  194.8200  174.6220  145.4950 C   0  0  0  0  0  0  0  0  0  0  0  0
  193.3230  174.4270  145.6220 C   0  0  1  0  0  3  0  0  0  0  0  0
  196.5770  176.2530  143.6010 C   0  0  0  0  0  2  0  0  0  0  0  0
  194.6080  174.8170  139.1450 C   0  0  2  0  0  3  0  0  0  0  0  0
  191.1540  176.5880  147.5810 O   0  0  0  0  0  0  0  0  0  0  0  0
  192.5950  175.5150  142.2450 C   0  0  0  0  0  2  0  0  0  0  0  0
  194.6450  174.3160  137.7490 C   0  0  0  0  0  3  0  0  0  0  0  0
  192.8070  175.3150  146.6260 O   0  0  0  0  0  0  0  0  0  0  0  0
  195.3320  176.4200  142.9300 O   0  0  0  0  0  0  0  0  0  0  0  0
  196.7190  175.0810  138.3920 N   0  0  0  0  0  0  0  0  0  0  0  0
  196.1250  175.8080  140.7170 C   0  0  0  0  0  3  0  0  0  0  0  0
  190.6440  175.7070  145.4060 C   0  0  1  0  0  3  0  0  0  0  0  0
  195.5660  174.1290  144.3720 N   0  0  0  0  0  0  0  0  0  0  0  0
  193.5450  174.8860  140.0400 C   0  0  0  0  0  3  0  0  0  0  0  0
  191.5190  175.8600  146.6190 C   0  0  0  0  0  0  0  0  0  0  0  0
  192.9450  175.7030  143.5910 O   0  0  0  0  0  0  0  0  0  0  0  0
  192.5610  174.5380  144.2750 C   0  0  2  0  0  3  0  0  0  0  0  0
  191.0390  174.5340  144.5110 C   0  0  1  0  0  3  0  0  0  0  0  0
  196.0410  174.5070  137.2970 N   0  0  0  0  0  0  0  0  0  0  0  0
  195.8390  175.2580  139.4730 C   0  0  0  0  0  0  0  0  0  0  0  0
  195.0800  175.8950  141.6610 C   0  0  0  0  0  0  0  0  0  0  0  0
  195.4290  175.2410  146.4110 O   0  0  0  0  0  0  0  0  0  0  0  0
  193.7790  175.4250  141.3220 C   0  0  0  0  0  0  0  0  0  0  0  0
  196.8070  174.7810  143.9570 C   0  0  0  0  0  2  0  0  0  0  0  0
  189.2820  172.9210  144.3610 F   0  0  0  0  0  0  0  0  0  0  0  0
  191.3790  172.1480  144.7030 F   0  0  0  0  0  0  0  0  0  0  0  0
  190.4940  173.1770  144.9710 C   0  0  0  0  0  3  0  0  0  0  0  0
  195.1330  173.0110  143.6460 C   0  0  0  0  0  0  0  0  0  0  0  0
  194.7680  172.0430  143.0280 C   0  0  0  0  0  3  0  0  0  0  0  0
  188.6040  175.3340  146.8710 C   0  0  0  0  0  1  0  0  0  0  0  0
  189.1360  175.9340  145.5820 C   0  0  1  0  0  3  0  0  0  0  0  0
  188.8660  177.3080  145.5370 O   0  0  0  0  0  0  0  0  0  0  0  0
  187.7230  176.1730  143.7800 C   0  0  0  0  0  1  0  0  0  0  0  0
  187.8850  177.4710  144.5470 C   0  0  1  0  0  3  0  0  0  0  0  0
  186.5280  177.8970  145.1300 C   0  0  2  0  0  3  0  0  0  0  0  0
  186.1090  179.2130  144.4730 C   0  0  0  0  0  3  0  0  0  0  0  0
  185.8710  178.9580  142.9940 C   0  0  0  0  0  2  0  0  0  0  0  0
  184.6920  179.1700  143.9190 C   0  0  0  0  0  2  0  0  0  0  0  0
  186.5900  178.0120  146.5250 O   0  0  0  0  0  0  0  0  0  0  0  0
  185.4740  177.3240  146.9980 C   0  0  0  0  0  1  0  0  0  0  0  0
  1 22  2  0  0  0  0
  2  1  1  6  0  0  0
  2  8  1  0  0  0  0
  3 24  1  0  0  0  0
  4  7  1  6  0  0  0
  4 20  1  0  0  0  0
  4 14  1  0  0  0  0
  6 16  1  0  0  0  0
  9  3  1  0  0  0  0
 10 20  2  0  0  0  0
 11 21  2  0  0  0  0
 12 31  1  1  0  0  0
 12 15  1  0  0  0  0
 13  1  1  0  0  0  0
 14 23  2  0  0  0  0
 15  8  1  0  0  0  0
 15  5  2  0  0  0  0
 17 16  1  1  0  0  0
 17 18  1  0  0  0  0
 17  2  1  0  0  0  0
 18 27  1  1  0  0  0
 18 12  1  0  0  0  0
 19  7  2  0  0  0  0
 19 10  1  0  0  0  0
 20 11  1  0  0  0  0
 21  9  1  0  0  0  0
 23 21  1  0  0  0  0
 23  6  1  0  0  0  0
 24 13  1  0  0  0  0
 25 27  1  0  0  0  0
 26 27  1  0  0  0  0
 28 13  1  0  0  0  0
 29 28  3  0  0  0  0
 31 30  1  1  0  0  0
 32 31  1  0  0  0  0
 34 33  1  1  0  0  0
 34 35  1  0  0  0  0
 34 32  1  0  0  0  0
 35 39  1  1  0  0  0
 36 35  1  0  0  0  0
 37 38  1  0  0  0  0
 37 36  1  0  0  0  0
 38 36  1  0  0  0  0
 39 40  1  0  0  0  0
M  END
>  <MODEL>
2

>  <REMARK>
 VINA RESULT:      -7.4      1.586      2.098
  Name = 
  8 active torsions:
  status: ('A' for Active; 'I' for Inactive)
    1  A    between atoms: C_4  and  N_23
    2  A    between atoms: C_8  and  C_17
    3  A    between atoms: O_9  and  C_35
    4  A    between atoms: O_9  and  C_40
    5  A    between atoms: C_17  and  O_19
    6  A    between atoms: C_17  and  C_35
    7  A    between atoms: C_22  and  C_40
    8  A    between atoms: C_29  and  C_30
                            x       y       z     vdW  Elec       q    Type
                         _______ _______ _______ _____ _____    ______ ____

>  <TORSDO>
F 8

$$$$
=
 OpenBabel11042419243D

 40 44  0  0  1  0  0  0  0  0999 V2000
  195.0280  174.2280  145.2190 C   0  0  0  0  0  0  0  0  0  0  0  0
  193.5580  173.9250  145.4250 C   0  0  1  0  0  3  0  0  0  0  0  0
  196.5500  176.0560  143.3020 C   0  0  0  0  0  2  0  0  0  0  0  0
  194.4030  174.6840  138.9090 C   0  0  2  0  0  3  0  0  0  0  0  0
  191.3800  175.8430  147.6120 O   0  0  0  0  0  0  0  0  0  0  0  0
  192.5480  175.1050  142.1540 C   0  0  0  0  0  2  0  0  0  0  0  0
  194.3850  174.2470  137.4910 C   0  0  0  0  0  3  0  0  0  0  0  0
  193.0490  174.7300  146.5000 O   0  0  0  0  0  0  0  0  0  0  0  0
  195.2570  176.1660  142.7160 O   0  0  0  0  0  0  0  0  0  0  0  0
  196.4400  175.1250  138.0440 N   0  0  0  0  0  0  0  0  0  0  0  0
  195.9480  175.7070  140.4330 C   0  0  0  0  0  3  0  0  0  0  0  0
  190.7930  175.0250  145.4320 C   0  0  1  0  0  3  0  0  0  0  0  0
  195.7330  173.8370  144.0300 N   0  0  0  0  0  0  0  0  0  0  0  0
  193.3970  174.6400  139.8690 C   0  0  0  0  0  3  0  0  0  0  0  0
  191.7310  175.1850  146.5960 C   0  0  0  0  0  0  0  0  0  0  0  0
  192.9700  175.2590  143.4840 O   0  0  0  0  0  0  0  0  0  0  0  0
  192.7070  174.0410  144.1340 C   0  0  2  0  0  3  0  0  0  0  0  0
  191.2070  173.9210  144.4600 C   0  0  1  0  0  3  0  0  0  0  0  0
  195.7340  174.5530  136.9650 N   0  0  0  0  0  0  0  0  0  0  0  0
  195.6200  175.1930  139.1840 C   0  0  0  0  0  0  0  0  0  0  0  0
  194.9610  175.6810  141.4400 C   0  0  0  0  0  0  0  0  0  0  0  0
  195.6510  174.8460  146.1250 O   0  0  0  0  0  0  0  0  0  0  0  0
  193.6750  175.1380  141.1580 C   0  0  0  0  0  0  0  0  0  0  0  0
  196.9000  174.5890  143.5730 C   0  0  0  0  0  2  0  0  0  0  0  0
  189.5060  172.2420  144.4340 F   0  0  0  0  0  0  0  0  0  0  0  0
  191.6580  171.5460  144.4200 F   0  0  0  0  0  0  0  0  0  0  0  0
  190.7820  172.5110  144.8870 C   0  0  0  0  0  3  0  0  0  0  0  0
  195.3290  172.7240  143.2790 C   0  0  0  0  0  0  0  0  0  0  0  0
  194.9870  171.7720  142.6240 C   0  0  0  0  0  3  0  0  0  0  0  0
  188.9270  174.7630  147.1350 C   0  0  0  0  0  1  0  0  0  0  0  0
  189.2870  175.1400  145.7090 C   0  0  1  0  0  3  0  0  0  0  0  0
  188.8620  176.4450  145.4290 O   0  0  0  0  0  0  0  0  0  0  0  0
  186.5570  176.9130  145.0500 C   0  0  0  0  0  1  0  0  0  0  0  0
  187.8310  176.3160  144.4860 C   0  0  1  0  0  3  0  0  0  0  0  0
  188.1700  176.9950  143.1490 C   0  0  2  0  0  3  0  0  0  0  0  0
  188.8380  175.9650  142.2380 C   0  0  0  0  0  3  0  0  0  0  0  0
  187.9910  174.7040  142.2340 C   0  0  0  0  0  2  0  0  0  0  0  0
  187.9900  175.6130  141.0250 C   0  0  0  0  0  2  0  0  0  0  0  0
  188.9840  178.1190  143.3440 O   0  0  0  0  0  0  0  0  0  0  0  0
  190.1970  177.8020  142.7360 C   0  0  0  0  0  1  0  0  0  0  0  0
  1 22  2  0  0  0  0
  2  1  1  6  0  0  0
  2  8  1  0  0  0  0
  3 24  1  0  0  0  0
  4  7  1  6  0  0  0
  4 20  1  0  0  0  0
  4 14  1  0  0  0  0
  6 16  1  0  0  0  0
  8 15  1  0  0  0  0
  9  3  1  0  0  0  0
 10 20  2  0  0  0  0
 11 21  2  0  0  0  0
 12 31  1  1  0  0  0
 12 15  1  0  0  0  0
 13  1  1  0  0  0  0
 14 23  2  0  0  0  0
 15  5  2  0  0  0  0
 17 16  1  1  0  0  0
 17 18  1  0  0  0  0
 17  2  1  0  0  0  0
 18 27  1  1  0  0  0
 18 12  1  0  0  0  0
 19  7  2  0  0  0  0
 19 10  1  0  0  0  0
 20 11  1  0  0  0  0
 21  9  1  0  0  0  0
 23 21  1  0  0  0  0
 23  6  1  0  0  0  0
 24 13  1  0  0  0  0
 25 27  1  0  0  0  0
 26 27  1  0  0  0  0
 28 13  1  0  0  0  0
 29 28  3  0  0  0  0
 31 30  1  1  0  0  0
 32 31  1  0  0  0  0
 34 33  1  1  0  0  0
 34 32  1  0  0  0  0
 35 39  1  1  0  0  0
 35 34  1  0  0  0  0
 36 35  1  0  0  0  0
 37 36  1  0  0  0  0
 38 37  1  0  0  0  0
 38 36  1  0  0  0  0
 40 39  1  0  0  0  0
M  END
>  <MODEL>
3

>  <REMARK>
 VINA RESULT:      -7.2      1.785      2.241
  Name = 
  8 active torsions:
  status: ('A' for Active; 'I' for Inactive)
    1  A    between atoms: C_4  and  N_23
    2  A    between atoms: C_8  and  C_17
    3  A    between atoms: O_9  and  C_35
    4  A    between atoms: O_9  and  C_40
    5  A    between atoms: C_17  and  O_19
    6  A    between atoms: C_17  and  C_35
    7  A    between atoms: C_22  and  C_40
    8  A    between atoms: C_29  and  C_30
                            x       y       z     vdW  Elec       q    Type
                         _______ _______ _______ _____ _____    ______ ____

>  <TORSDO>
F 8

$$$$
=
 OpenBabel11042419243D

 40 44  0  0  1  0  0  0  0  0999 V2000
  191.9290  175.0630  145.5390 C   0  0  0  0  0  0  0  0  0  0  0  0
  192.1090  174.3320  144.2250 C   0  0  1  0  0  3  0  0  0  0  0  0
  189.4830  175.8510  147.1920 C   0  0  0  0  0  2  0  0  0  0  0  0
  186.6550  178.0170  143.5730 C   0  0  0  0  0  0  0  0  0  0  0  0
  192.3850  170.7190  143.9360 O   0  0  0  0  0  0  0  0  0  0  0  0
  188.7150  174.9060  143.0990 C   0  0  0  0  0  2  0  0  0  0  0  0
  185.8150  179.0810  142.9680 C   0  0  0  0  0  3  0  0  0  0  0  0
  192.3940  172.9470  144.4820 O   0  0  0  0  0  0  0  0  0  0  0  0
  188.8110  175.4100  146.0170 O   0  0  0  0  0  0  0  0  0  0  0  0
  185.9420  179.3460  145.2520 N   0  0  0  0  0  0  0  0  0  0  0  0
  187.3910  177.3640  145.7600 C   0  0  0  0  0  3  0  0  0  0  0  0
  191.1210  172.1400  142.4700 C   0  0  1  0  0  3  0  0  0  0  0  0
  191.3230  176.3630  145.6180 N   0  0  0  0  0  0  0  0  0  0  0  0
  187.3150  176.9510  142.9700 C   0  0  0  0  0  3  0  0  0  0  0  0
  192.0380  171.8930  143.6350 C   0  0  0  0  0  0  0  0  0  0  0  0
  189.7060  174.2880  143.8760 O   0  0  0  0  0  0  0  0  0  0  0  0
  190.9320  174.5280  143.2330 C   0  0  2  0  0  3  0  0  0  0  0  0
  191.0880  173.5980  142.0150 C   0  0  1  0  0  3  0  0  0  0  0  0
  185.3710  179.9260  144.0990 N   0  0  0  0  0  2  0  0  0  0  0  0
  186.6950  178.2110  144.9060 C   0  0  0  0  0  0  0  0  0  0  0  0
  188.0800  176.2710  145.1950 C   0  0  0  0  0  0  0  0  0  0  0  0
  192.3270  174.5080  146.6000 O   0  0  0  0  0  0  0  0  0  0  0  0
  188.0470  176.0650  143.7860 C   0  0  0  0  0  0  0  0  0  0  0  0
  190.6370  176.7930  146.8350 C   0  0  0  0  0  2  0  0  0  0  0  0
  192.5310  175.3370  141.2350 F   0  0  0  0  0  0  0  0  0  0  0  0
  193.3770  173.2420  141.3200 F   0  0  0  0  0  0  0  0  0  0  0  0
  192.2400  173.9950  141.0840 C   0  0  0  0  0  3  0  0  0  0  0  0
  191.3760  177.2560  144.5380 C   0  0  0  0  0  0  0  0  0  0  0  0
  191.4190  178.0140  143.6030 C   0  0  0  0  0  3  0  0  0  0  0  0
  190.9990  169.6720  141.8830 C   0  0  0  0  0  1  0  0  0  0  0  0
  191.0940  171.0910  141.3490 C   0  0  1  0  0  3  0  0  0  0  0  0
  190.0220  171.3590  140.4890 O   0  0  0  0  0  0  0  0  0  0  0  0
  190.0650  170.0510  138.4970 C   0  0  0  0  0  1  0  0  0  0  0  0
  190.5530  171.3080  139.1910 C   0  0  1  0  0  3  0  0  0  0  0  0
  190.1730  172.5400  138.3520 C   0  0  2  0  0  3  0  0  0  0  0  0
  188.6890  172.8370  138.5710 C   0  0  0  0  0  3  0  0  0  0  0  0
  188.5690  174.1220  139.3720 C   0  0  0  0  0  2  0  0  0  0  0  0
  188.2410  174.1240  137.8950 C   0  0  0  0  0  2  0  0  0  0  0  0
  190.4670  172.3390  136.9960 O   0  0  0  0  0  0  0  0  0  0  0  0
  191.6210  173.0820  136.7590 C   0  0  0  0  0  1  0  0  0  0  0  0
  1 13  1  0  0  0  0
  1 22  2  0  0  0  0
  2  8  1  1  0  0  0
  2  1  1  0  0  0  0
  4 20  1  0  0  0  0
  6 23  1  0  0  0  0
  6 16  1  0  0  0  0
  7  4  2  0  0  0  0
  7 19  1  0  0  0  0
  9  3  1  0  0  0  0
 12 31  1  6  0  0  0
 12 15  1  0  0  0  0
 13 24  1  0  0  0  0
 14  4  1  0  0  0  0
 14 23  2  0  0  0  0
 15  5  2  0  0  0  0
 15  8  1  0  0  0  0
 17 16  1  1  0  0  0
 17  2  1  0  0  0  0
 18 27  1  1  0  0  0
 18 12  1  0  0  0  0
 18 17  1  0  0  0  0
 19 10  1  0  0  0  0
 20 10  2  0  0  0  0
 20 11  1  0  0  0  0
 21 11  2  0  0  0  0
 21  9  1  0  0  0  0
 23 21  1  0  0  0  0
 24  3  1  0  0  0  0
 27 25  1  0  0  0  0
 27 26  1  0  0  0  0
 28 13  1  0  0  0  0
 29 28  3  0  0  0  0
 31 30  1  1  0  0  0
 32 31  1  0  0  0  0
 34 33  1  6  0  0  0
 34 32  1  0  0  0  0
 35 39  1  6  0  0  0
 35 36  1  0  0  0  0
 35 34  1  0  0  0  0
 36 37  1  0  0  0  0
 38 36  1  0  0  0  0
 38 37  1  0  0  0  0
 40 39  1  0  0  0  0
M  END
>  <MODEL>
4

>  <REMARK>
 VINA RESULT:      -7.2      4.021      7.393
  Name = 
  8 active torsions:
  status: ('A' for Active; 'I' for Inactive)
    1  A    between atoms: C_4  and  N_23
    2  A    between atoms: C_8  and  C_17
    3  A    between atoms: O_9  and  C_35
    4  A    between atoms: O_9  and  C_40
    5  A    between atoms: C_17  and  O_19
    6  A    between atoms: C_17  and  C_35
    7  A    between atoms: C_22  and  C_40
    8  A    between atoms: C_29  and  C_30
                            x       y       z     vdW  Elec       q    Type
                         _______ _______ _______ _____ _____    ______ ____

>  <TORSDO>
F 8

$$$$
=
 OpenBabel11042419243D

 40 44  0  0  1  0  0  0  0  0999 V2000
  191.4200  172.0740  144.2600 C   0  0  0  0  0  0  0  0  0  0  0  0
  192.6610  172.8210  144.7050 C   0  0  1  0  0  3  0  0  0  0  0  0
  189.4840  172.4170  141.9220 C   0  0  0  0  0  2  0  0  0  0  0  0
  188.4950  177.3810  142.3390 C   0  0  0  0  0  0  0  0  0  0  0  0
  196.0150  172.0640  143.5260 O   0  0  0  0  0  0  0  0  0  0  0  0
  191.8830  175.8270  142.8420 C   0  0  0  0  0  2  0  0  0  0  0  0
  187.6330  178.5860  142.4200 C   0  0  0  0  0  3  0  0  0  0  0  0
  193.8300  172.1400  144.2200 O   0  0  0  0  0  0  0  0  0  0  0  0
  190.2210  173.6240  141.7640 O   0  0  0  0  0  0  0  0  0  0  0  0
  186.4570  176.8020  141.5620 N   0  0  0  0  0  0  0  0  0  0  0  0
  188.3000  175.1040  141.6090 C   0  0  0  0  0  2  0  0  0  0  0  0
  195.1120  174.2680  143.8330 C   0  0  1  0  0  3  0  0  0  0  0  0
  190.1120  172.6650  144.3030 N   0  0  0  0  0  0  0  0  0  0  0  0
  189.8330  177.2170  142.6820 C   0  0  0  0  0  3  0  0  0  0  0  0
  195.0360  172.7670  143.8940 C   0  0  0  0  0  0  0  0  0  0  0  0
  192.3150  174.5000  142.9860 O   0  0  0  0  0  0  0  0  0  0  0  0
  192.6500  174.3280  144.3390 C   0  0  2  0  0  3  0  0  0  0  0  0
  194.0180  174.9690  144.6380 C   0  0  1  0  0  3  0  0  0  0  0  0
  186.3120  178.1630  141.9030 N   0  0  0  0  0  0  0  0  0  0  0  0
  187.7670  176.3680  141.8280 C   0  0  0  0  0  0  0  0  0  0  0  0
  189.6530  174.8870  141.9460 C   0  0  0  0  0  0  0  0  0  0  0  0
  191.5450  170.8920  143.8370 O   0  0  0  0  0  0  0  0  0  0  0  0
  190.4260  175.9510  142.4930 C   0  0  0  0  0  0  0  0  0  0  0  0
  189.0640  172.2250  143.3830 C   0  0  0  0  0  2  0  0  0  0  0  0
  194.9370  176.3080  146.3910 F   0  0  0  0  0  0  0  0  0  0  0  0
  193.1770  174.9840  146.9040 F   0  0  0  0  0  0  0  0  0  0  0  0
  194.3210  175.0990  146.1350 C   0  0  0  0  0  3  0  0  0  0  0  0
  189.8000  173.6720  145.2270 C   0  0  0  0  0  0  0  0  0  0  0  0
  189.5420  174.5430  146.0190 C   0  0  0  0  0  3  0  0  0  0  0  0
  197.3780  174.3120  144.9780 C   0  0  0  0  0  1  0  0  0  0  0  0
  196.5030  174.9140  143.8920 C   0  0  1  0  0  3  0  0  0  0  0  0
  197.1240  174.7930  142.6430 O   0  0  0  0  0  0  0  0  0  0  0  0
  196.2910  176.7910  141.6470 C   0  0  0  0  0  1  0  0  0  0  0  0
  196.1980  175.2790  141.7080 C   0  0  1  0  0  3  0  0  0  0  0  0
  196.4190  174.6920  140.3040 C   0  0  2  0  0  3  0  0  0  0  0  0
  195.7330  173.3280  140.2350 C   0  0  0  0  0  3  0  0  0  0  0  0
  194.2300  173.5420  140.2890 C   0  0  0  0  0  2  0  0  0  0  0  0
  194.8870  173.1570  138.9810 C   0  0  0  0  0  2  0  0  0  0  0  0
  197.7860  174.6010  140.0030 O   0  0  0  0  0  0  0  0  0  0  0  0
  197.9410  175.2910  138.8020 C   0  0  0  0  0  1  0  0  0  0  0  0
  1 13  1  0  0  0  0
  1  2  1  0  0  0  0
  2  8  1  6  0  0  0
  3 24  1  0  0  0  0
  4  7  1  0  0  0  0
  4 14  2  0  0  0  0
  5 15  2  0  0  0  0
  6 16  1  0  0  0  0
  9  3  1  0  0  0  0
  9 21  1  0  0  0  0
 10 20  2  0  0  0  0
 10 19  1  0  0  0  0
 11 20  1  0  0  0  0
 11 21  1  0  0  0  0
 12 31  1  1  0  0  0
 12 15  1  0  0  0  0
 12 18  1  0  0  0  0
 13 28  1  0  0  0  0
 15  8  1  0  0  0  0
 17 16  1  6  0  0  0
 17 18  1  0  0  0  0
 17  2  1  0  0  0  0
 18 27  1  1  0  0  0
 19  7  2  0  0  0  0
 20  4  1  0  0  0  0
 21 23  2  0  0  0  0
 22  1  2  0  0  0  0
 23 14  1  0  0  0  0
 23  6  1  0  0  0  0
 24 13  1  0  0  0  0
 27 25  1  0  0  0  0
 27 26  1  0  0  0  0
 28 29  3  0  0  0  0
 31 30  1  1  0  0  0
 32 31  1  0  0  0  0
 34 33  1  6  0  0  0
 34 32  1  0  0  0  0
 35 39  1  1  0  0  0
 35 34  1  0  0  0  0
 36 37  1  0  0  0  0
 36 35  1  0  0  0  0
 38 36  1  0  0  0  0
 38 37  1  0  0  0  0
 40 39  1  0  0  0  0
M  END
>  <MODEL>
5

>  <REMARK>
 VINA RESULT:      -7.2      3.373      7.728
  Name = 
  8 active torsions:
  status: ('A' for Active; 'I' for Inactive)
    1  A    between atoms: C_4  and  N_23
    2  A    between atoms: C_8  and  C_17
    3  A    between atoms: O_9  and  C_35
    4  A    between atoms: O_9  and  C_40
    5  A    between atoms: C_17  and  O_19
    6  A    between atoms: C_17  and  C_35
    7  A    between atoms: C_22  and  C_40
    8  A    between atoms: C_29  and  C_30
                            x       y       z     vdW  Elec       q    Type
                         _______ _______ _______ _____ _____    ______ ____

>  <TORSDO>
F 8

$$$$
=
 OpenBabel11042419243D

 40 44  0  0  1  0  0  0  0  0999 V2000
  193.9300  175.2560  146.0140 C   0  0  0  0  0  0  0  0  0  0  0  0
  192.4260  175.0750  145.9990 C   0  0  1  0  0  3  0  0  0  0  0  0
  195.9160  176.5260  144.0710 C   0  0  0  0  0  2  0  0  0  0  0  0
  194.4560  174.2820  139.7540 C   0  0  2  0  0  3  0  0  0  0  0  0
  190.0750  177.5400  147.2650 O   0  0  0  0  0  0  0  0  0  0  0  0
  192.1080  175.5190  142.4200 C   0  0  0  0  0  2  0  0  0  0  0  0
  194.6480  173.5340  138.4870 C   0  0  0  0  0  3  0  0  0  0  0  0
  191.8100  176.1270  146.7580 O   0  0  0  0  0  0  0  0  0  0  0  0
  194.7590  176.5570  143.2410 O   0  0  0  0  0  0  0  0  0  0  0  0
  196.6440  174.4210  139.2160 N   0  0  0  0  0  0  0  0  0  0  0  0
  195.7950  175.5570  141.2840 C   0  0  0  0  0  3  0  0  0  0  0  0
  189.8080  176.2710  145.2440 C   0  0  1  0  0  3  0  0  0  0  0  0
  194.7950  174.5720  145.0940 N   0  0  0  0  0  0  0  0  0  0  0  0
  193.2980  174.5050  140.4920 C   0  0  0  0  0  3  0  0  0  0  0  0
  190.5390  176.6510  146.5020 C   0  0  0  0  0  0  0  0  0  0  0  0
  192.3030  175.9540  143.7390 O   0  0  0  0  0  0  0  0  0  0  0  0
  191.8270  174.9300  144.5760 C   0  0  2  0  0  3  0  0  0  0  0  0
  190.2880  174.9570  144.6310 C   0  0  1  0  0  3  0  0  0  0  0  0
  196.0900  173.6510  138.1730 N   0  0  0  0  0  0  0  0  0  0  0  0
  195.6470  174.7860  140.1370 C   0  0  0  0  0  0  0  0  0  0  0  0
  194.6490  175.8060  142.0680 C   0  0  0  0  0  0  0  0  0  0  0  0
  194.4370  176.0370  146.8660 O   0  0  0  0  0  0  0  0  0  0  0  0
  193.3890  175.2720  141.6720 C   0  0  0  0  0  0  0  0  0  0  0  0
  196.0840  175.1460  144.7140 C   0  0  0  0  0  2  0  0  0  0  0  0
  190.4730  172.6040  145.0110 F   0  0  0  0  0  0  0  0  0  0  0  0
  189.5010  173.8480  146.6300 F   0  0  0  0  0  0  0  0  0  0  0  0
  189.6750  173.7030  145.2650 C   0  0  0  0  0  3  0  0  0  0  0  0
  194.4340  173.3360  144.5400 C   0  0  0  0  0  0  0  0  0  0  0  0
  194.1230  172.2780  144.0530 C   0  0  0  0  0  3  0  0  0  0  0  0
  187.6540  176.4580  146.5760 C   0  0  0  0  0  1  0  0  0  0  0  0
  188.2930  176.5140  145.1990 C   0  0  1  0  0  3  0  0  0  0  0  0
  188.0390  177.7520  144.5950 O   0  0  0  0  0  0  0  0  0  0  0  0
  186.7470  176.0360  143.5630 C   0  0  0  0  0  1  0  0  0  0  0  0
  187.2130  177.4770  143.4950 C   0  0  1  0  0  3  0  0  0  0  0  0
  185.9920  178.4100  143.4300 C   0  0  2  0  0  3  0  0  0  0  0  0
  185.0160  178.0100  144.5360 C   0  0  0  0  0  3  0  0  0  0  0  0
  185.1330  179.0170  145.6680 C   0  0  0  0  0  2  0  0  0  0  0  0
  183.9230  179.0440  144.7590 C   0  0  0  0  0  2  0  0  0  0  0  0
  185.3880  178.3660  142.1660 O   0  0  0  0  0  0  0  0  0  0  0  0
  186.4440  178.2910  141.2590 C   0  0  0  0  0  1  0  0  0  0  0  0
  1 22  2  0  0  0  0
  2  1  1  6  0  0  0
  2  8  1  0  0  0  0
  3 24  1  0  0  0  0
  4  7  1  6  0  0  0
  4 20  1  0  0  0  0
  4 14  1  0  0  0  0
  6 16  1  0  0  0  0
  9  3  1  0  0  0  0
 10 20  2  0  0  0  0
 11 21  2  0  0  0  0
 12 31  1  1  0  0  0
 12 15  1  0  0  0  0
 13  1  1  0  0  0  0
 14 23  2  0  0  0  0
 15  8  1  0  0  0  0
 15  5  2  0  0  0  0
 17 16  1  6  0  0  0
 17 18  1  0  0  0  0
 17  2  1  0  0  0  0
 18 12  1  0  0  0  0
 18 27  1  1  0  0  0
 19  7  2  0  0  0  0
 19 10  1  0  0  0  0
 20 11  1  0  0  0  0
 21  9  1  0  0  0  0
 23 21  1  0  0  0  0
 23  6  1  0  0  0  0
 24 13  1  0  0  0  0
 25 27  1  0  0  0  0
 27 26  1  0  0  0  0
 28 13  1  0  0  0  0
 29 28  3  0  0  0  0
 31 30  1  1  0  0  0
 32 31  1  0  0  0  0
 34 33  1  1  0  0  0
 34 32  1  0  0  0  0
 35 39  1  6  0  0  0
 35 34  1  0  0  0  0
 35 36  1  0  0  0  0
 36 38  1  0  0  0  0
 36 37  1  0  0  0  0
 38 37  1  0  0  0  0
 40 39  1  0  0  0  0
M  END
>  <MODEL>
6

>  <REMARK>
 VINA RESULT:      -7.1      0.751      1.563
  Name = 
  8 active torsions:
  status: ('A' for Active; 'I' for Inactive)
    1  A    between atoms: C_4  and  N_23
    2  A    between atoms: C_8  and  C_17
    3  A    between atoms: O_9  and  C_35
    4  A    between atoms: O_9  and  C_40
    5  A    between atoms: C_17  and  O_19
    6  A    between atoms: C_17  and  C_35
    7  A    between atoms: C_22  and  C_40
    8  A    between atoms: C_29  and  C_30
                            x       y       z     vdW  Elec       q    Type
                         _______ _______ _______ _____ _____    ______ ____

>  <TORSDO>
F 8

$$$$
=
 OpenBabel11042419243D

 40 44  0  0  1  0  0  0  0  0999 V2000
  194.3630  175.7270  143.0420 C   0  0  0  0  0  0  0  0  0  0  0  0
  193.2640  175.9890  144.0500 C   0  0  1  0  0  3  0  0  0  0  0  0
  195.2090  173.2650  141.4430 C   0  0  0  0  0  2  0  0  0  0  0  0
  195.3960  169.8300  145.1800 C   0  0  0  0  0  0  0  0  0  0  0  0
  189.9000  177.0360  143.1580 O   0  0  0  0  0  0  0  0  0  0  0  0
  192.7610  172.4940  144.8560 C   0  0  0  0  0  2  0  0  0  0  0  0
  196.0020  168.7450  145.9900 C   0  0  0  0  0  3  0  0  0  0  0  0
  192.1370  176.5850  143.3880 O   0  0  0  0  0  0  0  0  0  0  0  0
  194.2660  172.6410  142.3080 O   0  0  0  0  0  0  0  0  0  0  0  0
  197.0720  168.9380  143.9600 N   0  0  0  0  0  0  0  0  0  0  0  0
  195.7040  170.8140  143.0130 C   0  0  0  0  0  2  0  0  0  0  0  0
  190.4520  175.4100  144.8360 C   0  0  1  0  0  3  0  0  0  0  0  0
  195.4700  174.8550  143.3210 N   0  0  0  0  0  0  0  0  0  0  0  0
  194.3300  170.6740  145.4750 C   0  0  0  0  0  3  0  0  0  0  0  0
  190.8060  176.4240  143.7830 C   0  0  0  0  0  0  0  0  0  0  0  0
  192.6510  173.6390  144.0520 O   0  0  0  0  0  0  0  0  0  0  0  0
  192.8750  174.7440  144.8900 C   0  0  2  0  0  3  0  0  0  0  0  0
  191.6240  175.0330  145.7410 C   0  0  1  0  0  3  0  0  0  0  0  0
  197.0920  168.1900  145.1550 N   0  0  0  0  0  0  0  0  0  0  0  0
  196.0500  169.9020  144.0030 C   0  0  0  0  0  0  0  0  0  0  0  0
  194.6310  171.6940  143.2680 C   0  0  0  0  0  0  0  0  0  0  0  0
  194.3000  176.2960  141.9170 O   0  0  0  0  0  0  0  0  0  0  0  0
  193.9400  171.6280  144.5120 C   0  0  0  0  0  0  0  0  0  0  0  0
  196.1640  174.1610  142.2380 C   0  0  0  0  0  2  0  0  0  0  0  0
  191.5750  175.4180  148.0990 F   0  0  0  0  0  0  0  0  0  0  0  0
  193.1840  176.4660  146.9050 F   0  0  0  0  0  0  0  0  0  0  0  0
  191.8760  176.0150  146.8900 C   0  0  0  0  0  3  0  0  0  0  0  0
  195.9190  174.6500  144.6330 C   0  0  0  0  0  0  0  0  0  0  0  0
  196.3010  174.4630  145.7610 C   0  0  0  0  0  3  0  0  0  0  0  0
  188.9970  174.7220  146.8010 C   0  0  0  0  0  1  0  0  0  0  0  0
  189.0910  175.5520  145.5320 C   0  0  1  0  0  3  0  0  0  0  0  0
  188.8540  176.9020  145.8170 O   0  0  0  0  0  0  0  0  0  0  0  0
  187.2810  177.8860  147.3130 C   0  0  0  0  0  1  0  0  0  0  0  0
  187.4820  176.9970  146.1020 C   0  0  1  0  0  3  0  0  0  0  0  0
  186.6730  177.5490  144.9170 C   0  0  2  0  0  3  0  0  0  0  0  0
  185.8430  178.7350  145.4080 C   0  0  0  0  0  3  0  0  0  0  0  0
  185.7110  179.7340  144.2710 C   0  0  0  0  0  2  0  0  0  0  0  0
  184.5240  178.8800  144.6620 C   0  0  0  0  0  2  0  0  0  0  0  0
  185.8680  176.5540  144.3460 O   0  0  0  0  0  0  0  0  0  0  0  0
  186.4560  176.2720  143.1140 C   0  0  0  0  0  1  0  0  0  0  0  0
  1 13  1  0  0  0  0
  2  1  1  6  0  0  0
  2 17  1  0  0  0  0
  3 24  1  0  0  0  0
  3  9  1  0  0  0  0
  4 14  2  0  0  0  0
  4  7  1  0  0  0  0
  5 15  2  0  0  0  0
  8 15  1  0  0  0  0
  8  2  1  0  0  0  0
  9 21  1  0  0  0  0
 10 20  2  0  0  0  0
 10 19  1  0  0  0  0
 11 21  1  0  0  0  0
 11 20  1  0  0  0  0
 12 31  1  1  0  0  0
 12 18  1  0  0  0  0
 13 28  1  0  0  0  0
 15 12  1  0  0  0  0
 16  6  1  0  0  0  0
 17 16  1  6  0  0  0
 17 18  1  0  0  0  0
 18 27  1  1  0  0  0
 19  7  2  0  0  0  0
 20  4  1  0  0  0  0
 21 23  2  0  0  0  0
 22  1  2  0  0  0  0
 23  6  1  0  0  0  0
 23 14  1  0  0  0  0
 24 13  1  0  0  0  0
 27 26  1  0  0  0  0
 27 25  1  0  0  0  0
 28 29  3  0  0  0  0
 31 32  1  0  0  0  0
 31 30  1  1  0  0  0
 32 34  1  0  0  0  0
 34 33  1  1  0  0  0
 35 39  1  1  0  0  0
 35 36  1  0  0  0  0
 35 34  1  0  0  0  0
 37 38  1  0  0  0  0
 37 36  1  0  0  0  0
 38 36  1  0  0  0  0
 40 39  1  0  0  0  0
M  END
>  <MODEL>
7

>  <REMARK>
 VINA RESULT:      -7.1      2.494      4.176
  Name = 
  8 active torsions:
  status: ('A' for Active; 'I' for Inactive)
    1  A    between atoms: C_4  and  N_23
    2  A    between atoms: C_8  and  C_17
    3  A    between atoms: O_9  and  C_35
    4  A    between atoms: O_9  and  C_40
    5  A    between atoms: C_17  and  O_19
    6  A    between atoms: C_17  and  C_35
    7  A    between atoms: C_22  and  C_40
    8  A    between atoms: C_29  and  C_30
                            x       y       z     vdW  Elec       q    Type
                         _______ _______ _______ _____ _____    ______ ____

>  <TORSDO>
F 8

$$$$
=
 OpenBabel11042419243D

 40 44  0  0  1  0  0  0  0  0999 V2000
  191.3750  176.1910  146.1810 C   0  0  0  0  0  0  0  0  0  0  0  0
  192.3900  175.5430  145.2620 C   0  0  1  0  0  3  0  0  0  0  0  0
  188.3300  176.0480  146.3870 C   0  0  0  0  0  2  0  0  0  0  0  0
  187.0960  176.8880  141.5330 C   0  0  2  0  0  3  0  0  0  0  0  0
  193.8970  172.2930  145.8750 O   0  0  0  0  0  0  0  0  0  0  0  0
  189.9890  174.7670  142.6660 C   0  0  0  0  0  2  0  0  0  0  0  0
  186.3680  177.5390  140.4150 C   0  0  0  0  0  3  0  0  0  0  0  0
  192.9360  174.3760  145.8970 O   0  0  0  0  0  0  0  0  0  0  0  0
  188.4920  175.3530  145.1550 O   0  0  0  0  0  0  0  0  0  0  0  0
  185.2800  177.8980  142.4130 N   0  0  0  0  0  0  0  0  0  0  0  0
  186.8400  176.6220  143.9030 C   0  0  0  0  0  3  0  0  0  0  0  0
  193.1290  173.0920  143.7450 C   0  0  1  0  0  3  0  0  0  0  0  0
  190.4320  177.1690  145.7160 N   0  0  0  0  0  0  0  0  0  0  0  0
  188.2640  176.1310  141.5160 C   0  0  0  0  0  3  0  0  0  0  0  0
  193.3900  173.2410  145.2180 C   0  0  0  0  0  0  0  0  0  0  0  0
  190.6150  174.5890  143.9090 O   0  0  0  0  0  0  0  0  0  0  0  0
  191.8500  175.2550  143.8380 C   0  0  2  0  0  3  0  0  0  0  0  0
  192.8630  174.4170  143.0330 C   0  0  1  0  0  3  0  0  0  0  0  0
  185.1900  178.1870  141.0350 N   0  0  0  0  0  0  0  0  0  0  0  0
  186.4200  177.1200  142.6760 C   0  0  0  0  0  0  0  0  0  0  0  0
  188.0220  175.8530  143.9380 C   0  0  0  0  0  0  0  0  0  0  0  0
  191.3600  175.8560  147.3980 O   0  0  0  0  0  0  0  0  0  0  0  0
  188.7440  175.6090  142.7340 C   0  0  0  0  0  0  0  0  0  0  0  0
  189.1460  177.3450  146.3890 C   0  0  0  0  0  2  0  0  0  0  0  0
  193.7880  176.4210  142.1150 F   0  0  0  0  0  0  0  0  0  0  0  0
  194.9760  175.3670  143.7240 F   0  0  0  0  0  0  0  0  0  0  0  0
  194.1280  175.1920  142.6450 C   0  0  0  0  0  3  0  0  0  0  0  0
  190.7170  177.9850  144.6120 C   0  0  0  0  0  0  0  0  0  0  0  0
  190.9520  178.6920  143.6650 C   0  0  0  0  0  3  0  0  0  0  0  0
  193.4410  171.8070  141.5760 C   0  0  0  0  0  1  0  0  0  0  0  0
  193.9820  172.0780  142.9690 C   0  0  1  0  0  3  0  0  0  0  0  0
  195.3020  172.5430  142.8960 O   0  0  0  0  0  0  0  0  0  0  0  0
  196.7810  170.9500  141.9190 C   0  0  0  0  0  1  0  0  0  0  0  0
  196.1130  171.4360  143.1900 C   0  0  1  0  0  3  0  0  0  0  0  0
  197.1840  171.7570  144.2450 C   0  0  2  0  0  3  0  0  0  0  0  0
  196.8050  171.0550  145.5500 C   0  0  0  0  0  3  0  0  0  0  0  0
  196.1580  169.7230  145.2090 C   0  0  0  0  0  2  0  0  0  0  0  0
  197.5660  169.7550  145.7620 C   0  0  0  0  0  2  0  0  0  0  0  0
  197.3210  173.1400  144.4220 O   0  0  0  0  0  0  0  0  0  0  0  0
  197.1630  173.3510  145.7900 C   0  0  0  0  0  1  0  0  0  0  0  0
  1 22  2  0  0  0  0
  2  8  1  1  0  0  0
  2  1  1  0  0  0  0
  3 24  1  0  0  0  0
  4  7  1  6  0  0  0
  4 20  1  0  0  0  0
  6 23  1  0  0  0  0
  6 16  1  0  0  0  0
  7 19  2  0  0  0  0
  9  3  1  0  0  0  0
 10 20  2  0  0  0  0
 11 21  2  0  0  0  0
 12 31  1  6  0  0  0
 12 15  1  0  0  0  0
 13  1  1  0  0  0  0
 13 24  1  0  0  0  0
 14  4  1  0  0  0  0
 14 23  2  0  0  0  0
 15  5  2  0  0  0  0
 15  8  1  0  0  0  0
 17 16  1  1  0  0  0
 17  2  1  0  0  0  0
 18 27  1  1  0  0  0
 18 12  1  0  0  0  0
 18 17  1  0  0  0  0
 19 10  1  0  0  0  0
 20 11  1  0  0  0  0
 21  9  1  0  0  0  0
 23 21  1  0  0  0  0
 25 27  1  0  0  0  0
 27 26  1  0  0  0  0
 28 13  1  0  0  0  0
 29 28  3  0  0  0  0
 31 30  1  6  0  0  0
 32 31  1  0  0  0  0
 32 34  1  0  0  0  0
 34 33  1  6  0  0  0
 34 35  1  0  0  0  0
 35 39  1  1  0  0  0
 35 36  1  0  0  0  0
 36 38  1  0  0  0  0
 37 36  1  0  0  0  0
 37 38  1  0  0  0  0
 39 40  1  0  0  0  0
M  END
>  <MODEL>
8

>  <REMARK>
 VINA RESULT:      -7.0      3.635      8.361
  Name = 
  8 active torsions:
  status: ('A' for Active; 'I' for Inactive)
    1  A    between atoms: C_4  and  N_23
    2  A    between atoms: C_8  and  C_17
    3  A    between atoms: O_9  and  C_35
    4  A    between atoms: O_9  and  C_40
    5  A    between atoms: C_17  and  O_19
    6  A    between atoms: C_17  and  C_35
    7  A    between atoms: C_22  and  C_40
    8  A    between atoms: C_29  and  C_30
                            x       y       z     vdW  Elec       q    Type
                         _______ _______ _______ _____ _____    ______ ____

>  <TORSDO>
F 8

$$$$
=
 OpenBabel11042419243D

 40 44  0  0  1  0  0  0  0  0999 V2000
  191.4850  176.1370  146.1370 C   0  0  0  0  0  0  0  0  0  0  0  0
  192.4620  175.4740  145.1890 C   0  0  1  0  0  3  0  0  0  0  0  0
  188.4460  176.0370  146.4380 C   0  0  0  0  0  2  0  0  0  0  0  0
  187.0730  176.8820  141.6210 C   0  0  2  0  0  3  0  0  0  0  0  0
  193.9430  172.2050  145.7630 O   0  0  0  0  0  0  0  0  0  0  0  0
  189.9700  174.7250  142.6700 C   0  0  0  0  0  2  0  0  0  0  0  0
  186.3200  177.5410  140.5260 C   0  0  0  0  0  3  0  0  0  0  0  0
  193.0110  174.3000  145.8100 O   0  0  0  0  0  0  0  0  0  0  0  0
  188.5600  175.3370  145.2030 O   0  0  0  0  0  0  0  0  0  0  0  0
  185.2990  177.9190  142.5550 N   0  0  0  0  0  0  0  0  0  0  0  0
  186.8880  176.6250  144.0000 C   0  0  0  0  0  3  0  0  0  0  0  0
  193.1200  173.0090  143.6550 C   0  0  1  0  0  3  0  0  0  0  0  0
  190.5410  177.1270  145.6980 N   0  0  0  0  0  0  0  0  0  0  0  0
  188.2290  176.1100  141.5700 C   0  0  0  0  0  3  0  0  0  0  0  0
  193.4280  173.1580  145.1200 C   0  0  0  0  0  0  0  0  0  0  0  0
  190.6330  174.5410  143.8930 O   0  0  0  0  0  0  0  0  0  0  0  0
  191.8740  175.1890  143.7820 C   0  0  2  0  0  3  0  0  0  0  0  0
  192.8500  174.3370  142.9490 C   0  0  1  0  0  3  0  0  0  0  0  0
  185.1710  178.2060  141.1800 N   0  0  0  0  0  0  0  0  0  0  0  0
  186.4370  177.1260  142.7840 C   0  0  0  0  0  0  0  0  0  0  0  0
  188.0600  175.8400  143.9990 C   0  0  0  0  0  0  0  0  0  0  0  0
  191.5030  175.8060  147.3540 O   0  0  0  0  0  0  0  0  0  0  0  0
  188.7400  175.5840  142.7750 C   0  0  0  0  0  0  0  0  0  0  0  0
  189.2800  177.3220  146.4110 C   0  0  0  0  0  2  0  0  0  0  0  0
  193.8090  176.4150  142.2620 F   0  0  0  0  0  0  0  0  0  0  0  0
  195.1080  175.0200  143.4790 F   0  0  0  0  0  0  0  0  0  0  0  0
  194.1130  175.0930  142.5200 C   0  0  0  0  0  3  0  0  0  0  0  0
  190.8030  177.9370  144.5840 C   0  0  0  0  0  0  0  0  0  0  0  0
  191.0320  178.6400  143.6330 C   0  0  0  0  0  3  0  0  0  0  0  0
  195.2380  171.6120  143.5440 C   0  0  0  0  0  1  0  0  0  0  0  0
  193.9350  171.9820  142.8560 C   0  0  1  0  0  3  0  0  0  0  0  0
  193.1560  170.8380  142.6420 O   0  0  0  0  0  0  0  0  0  0  0  0
  193.8250  169.9840  140.5200 C   0  0  0  0  0  1  0  0  0  0  0  0
  192.8340  170.8470  141.2760 C   0  0  1  0  0  3  0  0  0  0  0  0
  191.4050  170.3470  141.0070 C   0  0  2  0  0  3  0  0  0  0  0  0
  190.4820  171.5600  140.8860 C   0  0  0  0  0  3  0  0  0  0  0  0
  191.1050  172.5430  139.9090 C   0  0  0  0  0  2  0  0  0  0  0  0
  189.9040  171.7230  139.4870 C   0  0  0  0  0  2  0  0  0  0  0  0
  190.9780  169.4690  142.0130 O   0  0  0  0  0  0  0  0  0  0  0  0
  190.8160  168.2390  141.3790 C   0  0  0  0  0  1  0  0  0  0  0  0
  1 22  2  0  0  0  0
  2  8  1  1  0  0  0
  2  1  1  0  0  0  0
  4  7  1  6  0  0  0
  4 20  1  0  0  0  0
  6 23  1  0  0  0  0
  6 16  1  0  0  0  0
  7 19  2  0  0  0  0
  9  3  1  0  0  0  0
 10 20  2  0  0  0  0
 12 31  1  6  0  0  0
 12 15  1  0  0  0  0
 13  1  1  0  0  0  0
 13 24  1  0  0  0  0
 14  4  1  0  0  0  0
 14 23  2  0  0  0  0
 15  5  2  0  0  0  0
 15  8  1  0  0  0  0
 17 16  1  1  0  0  0
 17  2  1  0  0  0  0
 18 27  1  1  0  0  0
 18 12  1  0  0  0  0
 18 17  1  0  0  0  0
 19 10  1  0  0  0  0
 20 11  1  0  0  0  0
 21 11  2  0  0  0  0
 21  9  1  0  0  0  0
 23 21  1  0  0  0  0
 24  3  1  0  0  0  0
 25 27  1  0  0  0  0
 27 26  1  0  0  0  0
 28 13  1  0  0  0  0
 29 28  3  0  0  0  0
 31 30  1  1  0  0  0
 32 31  1  0  0  0  0
 34 33  1  6  0  0  0
 34 32  1  0  0  0  0
 35 34  1  0  0  0  0
 35 39  1  1  0  0  0
 36 35  1  0  0  0  0
 37 36  1  0  0  0  0
 38 37  1  0  0  0  0
 38 36  1  0  0  0  0
 40 39  1  0  0  0  0
M  END
>  <MODEL>
9

>  <REMARK>
 VINA RESULT:      -7.0      3.817      7.423
  Name = 
  8 active torsions:
  status: ('A' for Active; 'I' for Inactive)
    1  A    between atoms: C_4  and  N_23
    2  A    between atoms: C_8  and  C_17
    3  A    between atoms: O_9  and  C_35
    4  A    between atoms: O_9  and  C_40
    5  A    between atoms: C_17  and  O_19
    6  A    between atoms: C_17  and  C_35
    7  A    between atoms: C_22  and  C_40
    8  A    between atoms: C_29  and  C_30
                            x       y       z     vdW  Elec       q    Type
                         _______ _______ _______ _____ _____    ______ ____

>  <TORSDO>
F 8

$$$$
