=
 OpenBabel11042413483D

 25 28  0  0  1  0  0  0  0  0999 V2000
  185.6090  177.5830  144.3490 C   0  0  0  0  0  0  0  0  0  0  0  0
  185.0240  179.1160  146.2010 C   0  0  0  0  0  3  0  0  0  0  0  0
  187.5400  176.2340  144.0150 O   0  0  0  0  0  0  0  0  0  0  0  0
  186.7890  176.6140  146.3200 C   0  0  0  0  0  3  0  0  0  0  0  0
  185.8890  178.8010  147.1640 C   0  0  0  0  0  0  0  0  0  0  0  0
  185.2780  177.8920  140.1100 C   0  0  0  0  0  3  0  0  0  0  0  0
  186.6160  176.8510  144.8710 C   0  0  0  0  0  0  0  0  0  0  0  0
  187.7830  176.6740  142.6740 C   0  0  1  0  0  3  0  0  0  0  0  0
  186.4810  177.4570  147.3120 C   0  0  0  0  0  3  0  0  0  0  0  0
  186.4230  177.3190  140.6660 C   0  0  0  0  0  3  0  0  0  0  0  0
  186.5340  177.2260  142.0560 C   0  0  0  0  0  0  0  0  0  0  0  0
  185.5050  177.7130  142.8760 C   0  0  0  0  0  0  0  0  0  0  0  0
  184.3770  178.2840  142.2720 C   0  0  0  0  0  3  0  0  0  0  0  0
  184.5100  178.1250  145.2120 C   0  0  0  0  0  2  0  0  0  0  0  0
  184.2890  178.3600  140.9170 N   0  0  0  0  0  0  0  0  0  0  0  0
  186.2260  179.7740  148.0940 O   0  0  0  0  0  1  0  0  0  0  0  0
  188.8700  177.7450  142.6700 C   0  0  0  0  0  2  0  0  0  0  0  0
  190.2660  177.8440  144.8240 C   0  0  0  0  0  2  0  0  0  0  0  0
  190.1060  177.2850  143.4310 C   0  0  0  0  0  0  0  0  0  0  0  0
  191.1260  178.3690  143.6810 C   0  0  0  0  0  2  0  0  0  0  0  0
  190.6890  175.8990  143.2110 C   0  0  0  0  0  2  0  0  0  0  0  0
  191.2770  175.4040  144.4460 N   0  0  0  0  0  2  0  0  0  0  0  0
  189.7160  174.2640  145.9050 C   0  0  0  0  0  1  0  0  0  0  0  0
  189.8790  173.6500  143.5170 C   0  0  0  0  0  1  0  0  0  0  0  0
  190.6590  174.1200  144.7290 C   0  0  0  0  0  3  0  0  0  0  0  0
  1  7  2  0  0  0  0
  1 14  1  0  0  0  0
  2  5  2  0  0  0  0
  3  7  1  0  0  0  0
  4  9  2  0  0  0  0
  5  9  1  0  0  0  0
  5 16  1  0  0  0  0
  6 10  2  0  0  0  0
  6 15  1  0  0  0  0
  7  4  1  0  0  0  0
  8 17  1  1  0  0  0
  8  3  1  0  0  0  0
 10 11  1  0  0  0  0
 11  8  1  0  0  0  0
 11 12  2  0  0  0  0
 12  1  1  0  0  0  0
 13 12  1  0  0  0  0
 14  2  1  0  0  0  0
 15 13  2  0  0  0  0
 17 19  1  0  0  0  0
 19 20  1  0  0  0  0
 19 18  1  0  0  0  0
 20 18  1  0  0  0  0
 21 19  1  0  0  0  0
 21 22  1  0  0  0  0
 22 25  1  0  0  0  0
 24 25  1  0  0  0  0
 25 23  1  0  0  0  0
M  END
>  <MODEL>
1

>  <REMARK>
 VINA RESULT:      -7.5      0.000      0.000
  Name = 
  5 active torsions:
  status: ('A' for Active; 'I' for Inactive)
    1  A    between atoms: C_10  and  C_19
    2  A    between atoms: N_12  and  C_14
    3  A    between atoms: N_12  and  C_15
    4  A    between atoms: C_13  and  C_15
    5  A    between atoms: C_13  and  C_19
                            x       y       z     vdW  Elec       q    Type
                         _______ _______ _______ _____ _____    ______ ____

>  <TORSDO>
F 5

$$$$
=
 OpenBabel11042413483D

 25 28  0  0  1  0  0  0  0  0999 V2000
  185.8800  177.5810  144.3620 C   0  0  0  0  0  0  0  0  0  0  0  0
  185.1580  179.3200  145.9670 C   0  0  0  0  0  3  0  0  0  0  0  0
  187.6320  175.9780  144.5100 O   0  0  0  0  0  0  0  0  0  0  0  0
  186.4990  176.6350  146.5850 C   0  0  0  0  0  3  0  0  0  0  0  0
  185.7620  178.9780  147.1040 C   0  0  0  0  0  0  0  0  0  0  0  0
  186.4430  177.5830  140.1370 C   0  0  0  0  0  3  0  0  0  0  0  0
  186.6510  176.7730  145.1210 C   0  0  0  0  0  0  0  0  0  0  0  0
  188.1950  176.2730  143.2270 C   0  0  1  0  0  3  0  0  0  0  0  0
  186.1210  177.5880  147.4450 C   0  0  0  0  0  3  0  0  0  0  0  0
  187.3640  176.9180  140.9490 C   0  0  0  0  0  3  0  0  0  0  0  0
  187.1830  176.9250  142.3340 C   0  0  0  0  0  0  0  0  0  0  0  0
  186.0890  177.6020  142.8960 C   0  0  0  0  0  0  0  0  0  0  0  0
  185.1940  178.2590  142.0400 C   0  0  0  0  0  3  0  0  0  0  0  0
  184.7180  178.3230  144.9480 C   0  0  0  0  0  2  0  0  0  0  0  0
  185.3880  178.2350  140.6940 N   0  0  0  0  0  0  0  0  0  0  0  0
  186.0410  179.9740  148.0300 O   0  0  0  0  0  1  0  0  0  0  0  0
  189.3990  177.1960  143.3900 C   0  0  0  0  0  2  0  0  0  0  0  0
  191.5560  175.9820  142.7020 C   0  0  0  0  0  2  0  0  0  0  0  0
  190.6390  176.4220  143.8170 C   0  0  0  0  0  0  0  0  0  0  0  0
  190.6470  174.9730  143.3950 C   0  0  0  0  0  2  0  0  0  0  0  0
  191.3150  176.7020  145.1490 C   0  0  0  0  0  2  0  0  0  0  0  0
  190.3140  176.9150  146.1820 N   0  0  0  0  0  2  0  0  0  0  0  0
  189.5870  174.8190  147.1540 C   0  0  0  0  0  1  0  0  0  0  0  0
  191.9860  175.4080  147.0910 C   0  0  0  0  0  1  0  0  0  0  0  0
  190.5810  175.9580  147.2410 C   0  0  0  0  0  3  0  0  0  0  0  0
  1 14  1  0  0  0  0
  1  7  2  0  0  0  0
  2  5  2  0  0  0  0
  3  7  1  0  0  0  0
  4  9  2  0  0  0  0
  5  9  1  0  0  0  0
  5 16  1  0  0  0  0
  6 15  2  0  0  0  0
  6 10  1  0  0  0  0
  7  4  1  0  0  0  0
  8 17  1  1  0  0  0
  8  3  1  0  0  0  0
 10 11  2  0  0  0  0
 11 12  1  0  0  0  0
 11  8  1  0  0  0  0
 12  1  1  0  0  0  0
 13 12  2  0  0  0  0
 14  2  1  0  0  0  0
 15 13  1  0  0  0  0
 17 19  1  0  0  0  0
 18 20  1  0  0  0  0
 18 19  1  0  0  0  0
 19 21  1  0  0  0  0
 20 19  1  0  0  0  0
 21 22  1  0  0  0  0
 22 25  1  0  0  0  0
 23 25  1  0  0  0  0
 24 25  1  0  0  0  0
M  END
>  <MODEL>
2

>  <REMARK>
 VINA RESULT:      -7.3      1.151      1.720
  Name = 
  5 active torsions:
  status: ('A' for Active; 'I' for Inactive)
    1  A    between atoms: C_10  and  C_19
    2  A    between atoms: N_12  and  C_14
    3  A    between atoms: N_12  and  C_15
    4  A    between atoms: C_13  and  C_15
    5  A    between atoms: C_13  and  C_19
                            x       y       z     vdW  Elec       q    Type
                         _______ _______ _______ _____ _____    ______ ____

>  <TORSDO>
F 5

$$$$
=
 OpenBabel11042413483D

 25 28  0  0  1  0  0  0  0  0999 V2000
  186.7800  178.2320  143.8800 C   0  0  0  0  0  0  0  0  0  0  0  0
  186.1210  177.5420  141.5970 C   0  0  0  0  0  3  0  0  0  0  0  0
  188.7830  177.8240  145.0970 O   0  0  0  0  0  0  0  0  0  0  0  0
  188.9480  178.0620  142.6610 C   0  0  0  0  0  3  0  0  0  0  0  0
  187.2640  177.1440  141.0400 C   0  0  0  0  0  0  0  0  0  0  0  0
  184.7080  178.2910  147.6060 C   0  0  0  0  0  3  0  0  0  0  0  0
  188.1150  178.0320  143.8820 C   0  0  0  0  0  0  0  0  0  0  0  0
  188.1290  177.3550  146.2820 C   0  0  1  0  0  3  0  0  0  0  0  0
  188.5840  177.6730  141.4330 C   0  0  0  0  0  3  0  0  0  0  0  0
  186.0420  177.8820  147.5720 C   0  0  0  0  0  3  0  0  0  0  0  0
  186.7180  177.8550  146.3490 C   0  0  0  0  0  0  0  0  0  0  0  0
  186.0530  178.2290  145.1710 C   0  0  0  0  0  0  0  0  0  0  0  0
  184.7120  178.6290  145.2550 C   0  0  0  0  0  3  0  0  0  0  0  0
  186.0500  178.6170  142.6290 C   0  0  0  0  0  2  0  0  0  0  0  0
  184.0760  178.6520  146.4560 N   0  0  0  0  0  0  0  0  0  0  0  0
  187.2100  176.2070  140.0170 O   0  0  0  0  0  1  0  0  0  0  0  0
  188.1320  175.8290  146.3050 C   0  0  0  0  0  2  0  0  0  0  0  0
  189.9110  174.7630  144.7890 C   0  0  0  0  0  2  0  0  0  0  0  0
  189.5420  175.2740  146.1610 C   0  0  0  0  0  0  0  0  0  0  0  0
  189.6070  173.7850  145.9190 C   0  0  0  0  0  2  0  0  0  0  0  0
  190.6920  175.8380  146.9800 C   0  0  0  0  0  2  0  0  0  0  0  0
  191.7800  176.2380  146.1010 N   0  0  0  0  0  2  0  0  0  0  0  0
  193.4170  174.4580  145.9710 C   0  0  0  0  0  1  0  0  0  0  0  0
  194.1100  176.7620  146.5360 C   0  0  0  0  0  1  0  0  0  0  0  0
  193.0090  175.7300  146.6850 C   0  0  0  0  0  3  0  0  0  0  0  0
  1  7  2  0  0  0  0
  1 12  1  0  0  0  0
  2 14  1  0  0  0  0
  3  8  1  0  0  0  0
  4  7  1  0  0  0  0
  5  9  1  0  0  0  0
  5  2  2  0  0  0  0
  7  3  1  0  0  0  0
  8 17  1  6  0  0  0
  8 11  1  0  0  0  0
  9  4  2  0  0  0  0
 10  6  1  0  0  0  0
 11 10  2  0  0  0  0
 12 13  2  0  0  0  0
 12 11  1  0  0  0  0
 13 15  1  0  0  0  0
 14  1  1  0  0  0  0
 15  6  2  0  0  0  0
 16  5  1  0  0  0  0
 18 20  1  0  0  0  0
 18 19  1  0  0  0  0
 19 17  1  0  0  0  0
 19 21  1  0  0  0  0
 20 19  1  0  0  0  0
 22 25  1  0  0  0  0
 22 21  1  0  0  0  0
 23 25  1  0  0  0  0
 24 25  1  0  0  0  0
M  END
>  <MODEL>
3

>  <REMARK>
 VINA RESULT:      -6.9      2.200      4.719
  Name = 
  5 active torsions:
  status: ('A' for Active; 'I' for Inactive)
    1  A    between atoms: C_10  and  C_19
    2  A    between atoms: N_12  and  C_14
    3  A    between atoms: N_12  and  C_15
    4  A    between atoms: C_13  and  C_15
    5  A    between atoms: C_13  and  C_19
                            x       y       z     vdW  Elec       q    Type
                         _______ _______ _______ _____ _____    ______ ____

>  <TORSDO>
F 5

$$$$
=
 OpenBabel11042413483D

 25 28  0  0  1  0  0  0  0  0999 V2000
  187.1510  176.4700  143.9870 C   0  0  0  0  0  0  0  0  0  0  0  0
  185.9600  178.4680  143.1420 C   0  0  0  0  0  3  0  0  0  0  0  0
  188.0880  176.0230  146.1270 O   0  0  0  0  0  0  0  0  0  0  0  0
  186.0810  177.4310  146.0240 C   0  0  0  0  0  3  0  0  0  0  0  0
  185.6610  179.1530  144.2460 C   0  0  0  0  0  0  0  0  0  0  0  0
  190.1650  173.9640  142.3110 C   0  0  0  0  0  3  0  0  0  0  0  0
  187.1200  176.6440  145.3250 C   0  0  0  0  0  0  0  0  0  0  0  0
  189.3620  175.5960  145.6320 C   0  0  1  0  0  3  0  0  0  0  0  0
  185.4540  178.5190  145.5620 C   0  0  0  0  0  3  0  0  0  0  0  0
  190.2440  174.3210  143.6590 C   0  0  0  0  0  3  0  0  0  0  0  0
  189.2600  175.1490  144.2050 C   0  0  0  0  0  0  0  0  0  0  0  0
  188.2120  175.6190  143.3980 C   0  0  0  0  0  0  0  0  0  0  0  0
  188.1780  175.2380  142.0500 C   0  0  0  0  0  3  0  0  0  0  0  0
  186.0490  176.9790  143.1080 C   0  0  0  0  0  2  0  0  0  0  0  0
  189.1440  174.4280  141.5410 N   0  0  0  0  0  0  0  0  0  0  0  0
  185.5050  180.5290  144.1480 O   0  0  0  0  0  1  0  0  0  0  0  0
  190.3670  176.7390  145.7360 C   0  0  0  0  0  2  0  0  0  0  0  0
  191.2120  175.3290  147.7100 C   0  0  0  0  0  2  0  0  0  0  0  0
  191.5120  176.3880  146.6770 C   0  0  0  0  0  0  0  0  0  0  0  0
  191.2890  176.7970  148.1130 C   0  0  0  0  0  2  0  0  0  0  0  0
  192.9570  176.4570  146.2110 C   0  0  0  0  0  2  0  0  0  0  0  0
  193.0930  175.8120  144.9150 N   0  0  0  0  0  2  0  0  0  0  0  0
  195.1280  175.2460  146.0990 C   0  0  0  0  0  1  0  0  0  0  0  0
  193.5180  173.4850  145.4580 C   0  0  0  0  0  1  0  0  0  0  0  0
  194.1330  174.8070  145.0450 C   0  0  0  0  0  3  0  0  0  0  0  0
  1  7  2  0  0  0  0
  2  5  2  0  0  0  0
  5  9  1  0  0  0  0
  6 10  1  0  0  0  0
  7  4  1  0  0  0  0
  7  3  1  0  0  0  0
  8 17  1  6  0  0  0
  8  3  1  0  0  0  0
  9  4  2  0  0  0  0
 10 11  2  0  0  0  0
 11  8  1  0  0  0  0
 12  1  1  0  0  0  0
 12 11  1  0  0  0  0
 13 12  2  0  0  0  0
 14  2  1  0  0  0  0
 14  1  1  0  0  0  0
 15 13  1  0  0  0  0
 15  6  2  0  0  0  0
 16  5  1  0  0  0  0
 17 19  1  0  0  0  0
 18 20  1  0  0  0  0
 19 18  1  0  0  0  0
 19 20  1  0  0  0  0
 21 19  1  0  0  0  0
 22 25  1  0  0  0  0
 22 21  1  0  0  0  0
 25 24  1  0  0  0  0
 25 23  1  0  0  0  0
M  END
>  <MODEL>
4

>  <REMARK>
 VINA RESULT:      -6.9      2.397      3.910
  Name = 
  5 active torsions:
  status: ('A' for Active; 'I' for Inactive)
    1  A    between atoms: C_10  and  C_19
    2  A    between atoms: N_12  and  C_14
    3  A    between atoms: N_12  and  C_15
    4  A    between atoms: C_13  and  C_15
    5  A    between atoms: C_13  and  C_19
                            x       y       z     vdW  Elec       q    Type
                         _______ _______ _______ _____ _____    ______ ____

>  <TORSDO>
F 5

$$$$
=
 OpenBabel11042413483D

 25 28  0  0  1  0  0  0  0  0999 V2000
  186.5620  178.4320  143.5640 C   0  0  0  0  0  0  0  0  0  0  0  0
  185.7210  177.8960  141.2990 C   0  0  0  0  0  3  0  0  0  0  0  0
  188.6400  177.9150  144.6000 O   0  0  0  0  0  0  0  0  0  0  0  0
  188.6300  178.3000  142.1770 C   0  0  0  0  0  3  0  0  0  0  0  0
  186.8110  177.5120  140.6350 C   0  0  0  0  0  0  0  0  0  0  0  0
  184.7720  178.2990  147.4300 C   0  0  0  0  0  3  0  0  0  0  0  0
  187.8880  178.2100  143.4530 C   0  0  0  0  0  0  0  0  0  0  0  0
  188.0650  177.3860  145.8000 C   0  0  1  0  0  3  0  0  0  0  0  0
  188.1680  177.9940  140.9590 C   0  0  0  0  0  3  0  0  0  0  0  0
  186.0910  177.8680  147.2720 C   0  0  0  0  0  3  0  0  0  0  0  0
  186.6740  177.9050  146.0030 C   0  0  0  0  0  0  0  0  0  0  0  0
  185.9320  178.3630  144.9030 C   0  0  0  0  0  0  0  0  0  0  0  0
  184.6100  178.7800  145.1100 C   0  0  0  0  0  3  0  0  0  0  0  0
  185.7510  178.9060  142.3960 C   0  0  0  0  0  2  0  0  0  0  0  0
  184.0650  178.7400  146.3550 N   0  0  0  0  0  0  0  0  0  0  0  0
  186.6620  176.6420  139.5650 O   0  0  0  0  0  1  0  0  0  0  0  0
  188.0360  175.8620  145.7310 C   0  0  0  0  0  2  0  0  0  0  0  0
  189.4570  174.5370  147.4120 C   0  0  0  0  0  2  0  0  0  0  0  0
  189.3890  175.2640  146.0910 C   0  0  0  0  0  0  0  0  0  0  0  0
  190.0740  175.9240  147.2630 C   0  0  0  0  0  2  0  0  0  0  0  0
  190.3280  174.7490  145.0120 C   0  0  0  0  0  2  0  0  0  0  0  0
  189.6650  173.7210  144.2240 N   0  0  0  0  0  2  0  0  0  0  0  0
  188.3670  174.5640  142.3610 C   0  0  0  0  0  1  0  0  0  0  0  0
  190.7030  175.2970  142.6960 C   0  0  0  0  0  1  0  0  0  0  0  0
  189.7400  174.1340  142.8330 C   0  0  0  0  0  3  0  0  0  0  0  0
  1 12  1  0  0  0  0
  2 14  1  0  0  0  0
  3  8  1  0  0  0  0
  4  7  1  0  0  0  0
  5  9  1  0  0  0  0
  5  2  2  0  0  0  0
  7  1  2  0  0  0  0
  7  3  1  0  0  0  0
  8 17  1  6  0  0  0
  8 11  1  0  0  0  0
  9  4  2  0  0  0  0
 10  6  1  0  0  0  0
 11 10  2  0  0  0  0
 12 13  2  0  0  0  0
 12 11  1  0  0  0  0
 13 15  1  0  0  0  0
 14  1  1  0  0  0  0
 15  6  2  0  0  0  0
 16  5  1  0  0  0  0
 17 19  1  0  0  0  0
 19 20  1  0  0  0  0
 19 18  1  0  0  0  0
 20 18  1  0  0  0  0
 21 19  1  0  0  0  0
 22 21  1  0  0  0  0
 23 25  1  0  0  0  0
 24 25  1  0  0  0  0
 25 22  1  0  0  0  0
M  END
>  <MODEL>
5

>  <REMARK>
 VINA RESULT:      -6.9      2.029      4.503
  Name = 
  5 active torsions:
  status: ('A' for Active; 'I' for Inactive)
    1  A    between atoms: C_10  and  C_19
    2  A    between atoms: N_12  and  C_14
    3  A    between atoms: N_12  and  C_15
    4  A    between atoms: C_13  and  C_15
    5  A    between atoms: C_13  and  C_19
                            x       y       z     vdW  Elec       q    Type
                         _______ _______ _______ _____ _____    ______ ____

>  <TORSDO>
F 5

$$$$
=
 OpenBabel11042413483D

 25 28  0  0  1  0  0  0  0  0999 V2000
  186.3980  177.2570  144.7920 C   0  0  0  0  0  0  0  0  0  0  0  0
  185.3740  179.1110  146.0720 C   0  0  0  0  0  3  0  0  0  0  0  0
  188.2730  175.8830  145.3000 O   0  0  0  0  0  0  0  0  0  0  0  0
  186.9010  176.6900  147.1670 C   0  0  0  0  0  3  0  0  0  0  0  0
  185.9040  178.9910  147.2890 C   0  0  0  0  0  0  0  0  0  0  0  0
  187.3360  176.7500  140.6640 C   0  0  0  0  0  3  0  0  0  0  0  0
  187.1700  176.6450  145.7140 C   0  0  0  0  0  0  0  0  0  0  0  0
  188.9180  176.0600  144.0340 C   0  0  1  0  0  3  0  0  0  0  0  0
  186.3590  177.7040  147.8510 C   0  0  0  0  0  3  0  0  0  0  0  0
  188.2380  176.3010  141.6310 C   0  0  0  0  0  3  0  0  0  0  0  0
  187.9340  176.4760  142.9830 C   0  0  0  0  0  0  0  0  0  0  0  0
  186.7350  177.1030  143.3570 C   0  0  0  0  0  0  0  0  0  0  0  0
  185.8630  177.5400  142.3510 C   0  0  0  0  0  3  0  0  0  0  0  0
  185.1230  177.9450  145.1750 C   0  0  0  0  0  2  0  0  0  0  0  0
  186.1780  177.3570  141.0410 N   0  0  0  0  0  0  0  0  0  0  0  0
  186.0030  180.1260  148.0810 O   0  0  0  0  0  1  0  0  0  0  0  0
  190.0110  177.1190  144.1550 C   0  0  0  0  0  2  0  0  0  0  0  0
  192.3190  176.6640  143.1210 C   0  0  0  0  0  2  0  0  0  0  0  0
  191.3870  176.4820  144.2950 C   0  0  0  0  0  0  0  0  0  0  0  0
  191.6380  175.3220  143.3640 C   0  0  0  0  0  2  0  0  0  0  0  0
  192.0600  176.3670  145.6530 C   0  0  0  0  0  2  0  0  0  0  0  0
  192.9030  175.1830  145.6920 N   0  0  0  0  0  2  0  0  0  0  0  0
  195.3180  175.1130  145.5240 C   0  0  0  0  0  1  0  0  0  0  0  0
  194.1860  177.0630  146.5370 C   0  0  0  0  0  1  0  0  0  0  0  0
  194.1360  175.5580  146.3610 C   0  0  0  0  0  3  0  0  0  0  0  0
  1 14  1  0  0  0  0
  1  7  2  0  0  0  0
  2  5  2  0  0  0  0
  3  7  1  0  0  0  0
  4  9  2  0  0  0  0
  5  9  1  0  0  0  0
  5 16  1  0  0  0  0
  6 15  2  0  0  0  0
  6 10  1  0  0  0  0
  7  4  1  0  0  0  0
  8 17  1  1  0  0  0
  8  3  1  0  0  0  0
 10 11  2  0  0  0  0
 11 12  1  0  0  0  0
 11  8  1  0  0  0  0
 12  1  1  0  0  0  0
 13 12  2  0  0  0  0
 14  2  1  0  0  0  0
 15 13  1  0  0  0  0
 17 19  1  0  0  0  0
 18 20  1  0  0  0  0
 18 19  1  0  0  0  0
 19 21  1  0  0  0  0
 20 19  1  0  0  0  0
 21 22  1  0  0  0  0
 22 25  1  0  0  0  0
 23 25  1  0  0  0  0
 25 24  1  0  0  0  0
M  END
>  <MODEL>
6

>  <REMARK>
 VINA RESULT:      -6.7      1.941      2.525
  Name = 
  5 active torsions:
  status: ('A' for Active; 'I' for Inactive)
    1  A    between atoms: C_10  and  C_19
    2  A    between atoms: N_12  and  C_14
    3  A    between atoms: N_12  and  C_15
    4  A    between atoms: C_13  and  C_15
    5  A    between atoms: C_13  and  C_19
                            x       y       z     vdW  Elec       q    Type
                         _______ _______ _______ _____ _____    ______ ____

>  <TORSDO>
F 5

$$$$
=
 OpenBabel11042413483D

 25 28  0  0  1  0  0  0  0  0999 V2000
  188.1890  175.9280  141.7480 C   0  0  0  0  0  0  0  0  0  0  0  0
  188.6150  173.5320  141.3040 C   0  0  0  0  0  3  0  0  0  0  0  0
  188.4240  177.1920  143.7500 O   0  0  0  0  0  0  0  0  0  0  0  0
  189.9780  175.3290  143.3800 C   0  0  0  0  0  3  0  0  0  0  0  0
  189.3200  173.1300  142.3620 C   0  0  0  0  0  0  0  0  0  0  0  0
  185.0400  178.5740  140.6280 C   0  0  0  0  0  3  0  0  0  0  0  0
  188.8270  176.1360  142.9200 C   0  0  0  0  0  0  0  0  0  0  0  0
  187.1230  177.7860  143.6900 C   0  0  1  0  0  3  0  0  0  0  0  0
  190.1900  174.0290  143.1440 C   0  0  0  0  0  3  0  0  0  0  0  0
  185.5650  178.6440  141.9190 C   0  0  0  0  0  3  0  0  0  0  0  0
  186.5920  177.7710  142.2880 C   0  0  0  0  0  0  0  0  0  0  0  0
  187.0780  176.8310  141.3670 C   0  0  0  0  0  0  0  0  0  0  0  0
  186.5170  176.7950  140.0830 C   0  0  0  0  0  3  0  0  0  0  0  0
  188.6860  174.9180  140.7590 C   0  0  0  0  0  2  0  0  0  0  0  0
  185.5210  177.6580  139.7450 N   0  0  0  0  0  0  0  0  0  0  0  0
  189.2580  171.7930  142.7280 O   0  0  0  0  0  1  0  0  0  0  0  0
  186.1660  177.0300  144.6060 C   0  0  0  0  0  2  0  0  0  0  0  0
  184.6710  177.8220  146.5400 C   0  0  0  0  0  2  0  0  0  0  0  0
  186.0640  177.6940  145.9730 C   0  0  0  0  0  0  0  0  0  0  0  0
  185.3840  179.0410  145.9650 C   0  0  0  0  0  2  0  0  0  0  0  0
  187.1770  177.5480  146.9970 C   0  0  0  0  0  2  0  0  0  0  0  0
  187.4410  176.1400  147.2490 N   0  0  0  0  0  2  0  0  0  0  0  0
  189.7100  176.9620  147.0400 C   0  0  0  0  0  1  0  0  0  0  0  0
  189.2680  174.5410  147.2670 C   0  0  0  0  0  1  0  0  0  0  0  0
  188.7490  175.8440  146.6910 C   0  0  0  0  0  3  0  0  0  0  0  0
  1  7  2  0  0  0  0
  2  5  2  0  0  0  0
  5 16  1  0  0  0  0
  5  9  1  0  0  0  0
  6 10  1  0  0  0  0
  7  4  1  0  0  0  0
  7  3  1  0  0  0  0
  8  3  1  0  0  0  0
  8 17  1  1  0  0  0
  9  4  2  0  0  0  0
 10 11  2  0  0  0  0
 11  8  1  0  0  0  0
 12  1  1  0  0  0  0
 12 11  1  0  0  0  0
 13 12  2  0  0  0  0
 14  2  1  0  0  0  0
 14  1  1  0  0  0  0
 15 13  1  0  0  0  0
 15  6  2  0  0  0  0
 17 19  1  0  0  0  0
 19 18  1  0  0  0  0
 19 21  1  0  0  0  0
 20 19  1  0  0  0  0
 20 18  1  0  0  0  0
 21 22  1  0  0  0  0
 25 23  1  0  0  0  0
 25 22  1  0  0  0  0
 25 24  1  0  0  0  0
M  END
>  <MODEL>
7

>  <REMARK>
 VINA RESULT:      -6.6      2.005      4.888
  Name = 
  5 active torsions:
  status: ('A' for Active; 'I' for Inactive)
    1  A    between atoms: C_10  and  C_19
    2  A    between atoms: N_12  and  C_14
    3  A    between atoms: N_12  and  C_15
    4  A    between atoms: C_13  and  C_15
    5  A    between atoms: C_13  and  C_19
                            x       y       z     vdW  Elec       q    Type
                         _______ _______ _______ _____ _____    ______ ____

>  <TORSDO>
F 5

$$$$
=
 OpenBabel11042413483D

 25 28  0  0  1  0  0  0  0  0999 V2000
  189.7960  175.5380  143.5340 C   0  0  0  0  0  0  0  0  0  0  0  0
  190.4150  174.4460  145.6670 C   0  0  0  0  0  3  0  0  0  0  0  0
  188.4740  177.4720  143.1190 O   0  0  0  0  0  0  0  0  0  0  0  0
  189.7990  177.4090  145.1820 C   0  0  0  0  0  3  0  0  0  0  0  0
  190.1100  175.3550  146.5930 C   0  0  0  0  0  0  0  0  0  0  0  0
  188.4940  174.0230  139.7690 C   0  0  0  0  0  3  0  0  0  0  0  0
  189.3600  176.7520  143.9330 C   0  0  0  0  0  0  0  0  0  0  0  0
  187.6400  176.8560  142.1300 C   0  0  1  0  0  3  0  0  0  0  0  0
  190.1180  176.8080  146.3350 C   0  0  0  0  0  3  0  0  0  0  0  0
  187.8940  175.1720  140.2870 C   0  0  0  0  0  3  0  0  0  0  0  0
  188.3160  175.6630  141.5260 C   0  0  0  0  0  0  0  0  0  0  0  0
  189.3260  174.9970  142.2370 C   0  0  0  0  0  0  0  0  0  0  0  0
  189.8960  173.8450  141.6770 C   0  0  0  0  0  3  0  0  0  0  0  0
  190.8630  174.8060  144.2900 C   0  0  0  0  0  2  0  0  0  0  0  0
  189.4720  173.3880  140.4690 N   0  0  0  0  0  0  0  0  0  0  0  0
  189.8010  174.9170  147.8730 O   0  0  0  0  0  1  0  0  0  0  0  0
  186.3190  176.4280  142.7620 C   0  0  0  0  0  2  0  0  0  0  0  0
  184.4050  177.9150  141.9090 C   0  0  0  0  0  2  0  0  0  0  0  0
  185.4050  177.6220  143.0020 C   0  0  0  0  0  0  0  0  0  0  0  0
  185.6440  178.7880  142.0740 C   0  0  0  0  0  2  0  0  0  0  0  0
  184.9690  178.0030  144.4070 C   0  0  0  0  0  2  0  0  0  0  0  0
  186.0900  178.5700  145.1400 N   0  0  0  0  0  2  0  0  0  0  0  0
  184.4440  178.2840  146.8940 C   0  0  0  0  0  1  0  0  0  0  0  0
  186.4120  176.7950  146.7650 C   0  0  0  0  0  1  0  0  0  0  0  0
  185.9140  178.2080  146.5350 C   0  0  0  0  0  3  0  0  0  0  0  0
  1  7  2  0  0  0  0
  1 14  1  0  0  0  0
  2  5  2  0  0  0  0
  3  7  1  0  0  0  0
  4  9  2  0  0  0  0
  5 16  1  0  0  0  0
  6 10  2  0  0  0  0
  6 15  1  0  0  0  0
  7  4  1  0  0  0  0
  8 17  1  1  0  0  0
  8  3  1  0  0  0  0
  9  5  1  0  0  0  0
 10 11  1  0  0  0  0
 11  8  1  0  0  0  0
 11 12  2  0  0  0  0
 12  1  1  0  0  0  0
 13 12  1  0  0  0  0
 14  2  1  0  0  0  0
 15 13  2  0  0  0  0
 17 19  1  0  0  0  0
 18 20  1  0  0  0  0
 18 19  1  0  0  0  0
 19 21  1  0  0  0  0
 20 19  1  0  0  0  0
 21 22  1  0  0  0  0
 22 25  1  0  0  0  0
 25 24  1  0  0  0  0
 25 23  1  0  0  0  0
M  END
>  <MODEL>
8

>  <REMARK>
 VINA RESULT:      -6.6      2.170      5.272
  Name = 
  5 active torsions:
  status: ('A' for Active; 'I' for Inactive)
    1  A    between atoms: C_10  and  C_19
    2  A    between atoms: N_12  and  C_14
    3  A    between atoms: N_12  and  C_15
    4  A    between atoms: C_13  and  C_15
    5  A    between atoms: C_13  and  C_19
                            x       y       z     vdW  Elec       q    Type
                         _______ _______ _______ _____ _____    ______ ____

>  <TORSDO>
F 5

$$$$
=
 OpenBabel11042413483D

 25 28  0  0  1  0  0  0  0  0999 V2000
  187.4720  177.1790  143.1020 C   0  0  0  0  0  0  0  0  0  0  0  0
  187.5340  175.3570  141.4290 C   0  0  0  0  0  3  0  0  0  0  0  0
  188.9340  177.6560  144.9180 O   0  0  0  0  0  0  0  0  0  0  0  0
  189.8970  176.6320  142.9070 C   0  0  0  0  0  3  0  0  0  0  0  0
  188.7590  174.8490  141.5530 C   0  0  0  0  0  0  0  0  0  0  0  0
  184.3190  178.9230  145.3800 C   0  0  0  0  0  3  0  0  0  0  0  0
  188.7140  177.1450  143.6300 C   0  0  0  0  0  0  0  0  0  0  0  0
  187.8960  177.7950  145.8950 C   0  0  1  0  0  3  0  0  0  0  0  0
  189.9200  175.6360  142.0140 C   0  0  0  0  0  3  0  0  0  0  0  0
  185.5540  178.6910  145.9880 C   0  0  0  0  0  3  0  0  0  0  0  0
  186.5840  178.1120  145.2430 C   0  0  0  0  0  0  0  0  0  0  0  0
  186.3690  177.7630  143.9010 C   0  0  0  0  0  0  0  0  0  0  0  0
  185.1110  178.0110  143.3350 C   0  0  0  0  0  3  0  0  0  0  0  0
  187.2210  176.7950  141.6750 C   0  0  0  0  0  2  0  0  0  0  0  0
  184.1240  178.5790  144.0790 N   0  0  0  0  0  0  0  0  0  0  0  0
  188.9630  173.5210  141.2030 O   0  0  0  0  0  1  0  0  0  0  0  0
  187.7670  176.5040  146.6990 C   0  0  0  0  0  2  0  0  0  0  0  0
  189.3020  174.5520  146.0430 C   0  0  0  0  0  2  0  0  0  0  0  0
  189.1130  175.8100  146.8550 C   0  0  0  0  0  0  0  0  0  0  0  0
  189.0480  174.4680  147.5440 C   0  0  0  0  0  2  0  0  0  0  0  0
  190.3770  176.6080  147.1300 C   0  0  0  0  0  2  0  0  0  0  0  0
  191.4080  175.7370  147.6710 N   0  0  0  0  0  2  0  0  0  0  0  0
  192.9980  174.5400  146.2910 C   0  0  0  0  0  1  0  0  0  0  0  0
  192.2630  176.8160  145.6710 C   0  0  0  0  0  1  0  0  0  0  0  0
  192.5820  175.8930  146.8300 C   0  0  0  0  0  3  0  0  0  0  0  0
  1  7  2  0  0  0  0
  1 12  1  0  0  0  0
  2  5  2  0  0  0  0
  2 14  1  0  0  0  0
  3  8  1  0  0  0  0
  4  7  1  0  0  0  0
  5  9  1  0  0  0  0
  6 10  1  0  0  0  0
  7  3  1  0  0  0  0
  8 17  1  6  0  0  0
  9  4  2  0  0  0  0
 11  8  1  0  0  0  0
 11 10  2  0  0  0  0
 12 11  1  0  0  0  0
 13 12  2  0  0  0  0
 13 15  1  0  0  0  0
 14  1  1  0  0  0  0
 15  6  2  0  0  0  0
 16  5  1  0  0  0  0
 17 19  1  0  0  0  0
 18 19  1  0  0  0  0
 18 20  1  0  0  0  0
 19 21  1  0  0  0  0
 19 20  1  0  0  0  0
 21 22  1  0  0  0  0
 23 25  1  0  0  0  0
 24 25  1  0  0  0  0
 25 22  1  0  0  0  0
M  END
>  <MODEL>
9

>  <REMARK>
 VINA RESULT:      -6.5      2.042      4.658
  Name = 
  5 active torsions:
  status: ('A' for Active; 'I' for Inactive)
    1  A    between atoms: C_10  and  C_19
    2  A    between atoms: N_12  and  C_14
    3  A    between atoms: N_12  and  C_15
    4  A    between atoms: C_13  and  C_15
    5  A    between atoms: C_13  and  C_19
                            x       y       z     vdW  Elec       q    Type
                         _______ _______ _______ _____ _____    ______ ____

>  <TORSDO>
F 5

$$$$
