=
 OpenBabel11042419313D

 32 35  0  0  1  0  0  0  0  0999 V2000
  190.7090  177.7510  143.6680 O   0  0  0  0  0  1  0  0  0  0  0  0
  190.8040  175.5400  142.6730 C   0  0  0  0  0  0  0  0  0  0  0  0
  190.1520  174.5040  141.9740 C   0  0  0  0  0  0  0  0  0  0  0  0
  190.8480  173.3800  141.5450 O   0  0  0  0  0  1  0  0  0  0  0  0
  190.0600  176.6680  143.0830 C   0  0  0  0  0  0  0  0  0  0  0  0
  188.6680  176.7180  142.8560 C   0  0  0  0  0  0  0  0  0  0  0  0
  188.7840  174.5880  141.7110 C   0  0  0  0  0  3  0  0  0  0  0  0
  188.0490  175.6860  142.1510 C   0  0  0  0  0  3  0  0  0  0  0  0
  192.7420  174.5000  143.9150 N   0  0  0  0  0  0  0  0  0  0  0  0
  193.8390  173.8630  144.6870 C   0  0  2  0  0  0  0  0  0  0  0  0
  194.6850  173.1230  143.8620 O   0  0  0  0  0  1  0  0  0  0  0  0
  192.2530  175.4460  142.9650 C   0  0  0  0  0  0  0  0  0  0  0  0
  192.5720  173.3640  144.8790 C   0  0  0  0  0  2  0  0  0  0  0  0
  193.0720  176.1850  142.3580 O   0  0  0  0  0  0  0  0  0  0  0  0
  194.4470  174.8020  145.7160 C   0  0  0  0  0  2  0  0  0  0  0  0
  194.5310  177.3110  145.6840 C   0  0  0  0  0  1  0  0  0  0  0  0
  193.6370  176.0910  145.8370 C   0  0  2  0  0  3  0  0  0  0  0  0
  192.8530  176.1460  147.0750 N   0  0  0  0  0  2  0  0  0  0  0  0
  191.4390  176.3670  146.7840 C   0  0  0  0  0  2  0  0  0  0  0  0
  189.6350  174.6950  146.5410 C   0  0  0  0  0  1  0  0  0  0  0  0
  190.6070  175.3320  147.5100 C   0  0  0  0  0  2  0  0  0  0  0  0
  187.8580  177.8260  143.2830 N   0  0  0  0  0  2  0  0  0  0  0  0
  185.1650  178.3020  146.9490 C   0  0  0  0  0  3  0  0  0  0  0  0
  187.1620  177.9480  144.5330 C   0  0  0  0  0  0  0  0  0  0  0  0
  183.7180  178.8870  145.1920 O   0  0  0  0  0  0  0  0  0  0  0  0
  184.9530  178.4860  145.6550 C   0  0  0  0  0  0  0  0  0  0  0  0
  185.8670  178.3250  144.5400 C   0  0  0  0  0  0  0  0  0  0  0  0
  183.6940  179.0260  143.7810 C   0  0  0  0  0  3  0  0  0  0  0  0
  187.9300  177.6940  145.6780 O   0  0  0  0  0  0  0  0  0  0  0  0
  187.5850  177.6450  147.0310 C   0  0  0  0  0  3  0  0  0  0  0  0
  186.4080  177.8960  147.5930 C   0  0  0  0  0  3  0  0  0  0  0  0
  185.1100  178.6970  143.3030 C   0  0  0  0  0  3  0  0  0  0  0  0
  2 12  1  0  0  0  0
  2  5  1  0  0  0  0
  3  2  2  0  0  0  0
  4  3  1  0  0  0  0
  5  1  1  0  0  0  0
  6  5  2  0  0  0  0
  6 22  1  0  0  0  0
  7  3  1  0  0  0  0
  7  8  2  0  0  0  0
  8  6  1  0  0  0  0
  9 10  1  0  0  0  0
  9 13  1  0  0  0  0
 10 11  1  6  0  0  0
 10 13  1  0  0  0  0
 10 15  1  0  0  0  0
 12  9  1  0  0  0  0
 14 12  2  0  0  0  0
 15 17  1  0  0  0  0
 17 16  1  1  0  0  0
 17 18  1  0  0  0  0
 19 18  1  0  0  0  0
 19 21  1  0  0  0  0
 20 21  1  0  0  0  0
 22 24  1  0  0  0  0
 23 31  1  0  0  0  0
 24 27  2  0  0  0  0
 24 29  1  0  0  0  0
 25 26  1  0  0  0  0
 26 23  2  0  0  0  0
 27 26  1  0  0  0  0
 28 25  1  0  0  0  0
 29 30  1  0  0  0  0
 30 31  2  0  0  0  0
 32 28  2  0  0  0  0
 32 27  1  0  0  0  0
M  END
>  <MODEL>
1

>  <REMARK>
 VINA RESULT:      -7.1      0.000      0.000
  Name = 
  8 active torsions:
  status: ('A' for Active; 'I' for Inactive)
    1  A    between atoms: N_1  and  C_13
    2  A    between atoms: N_1  and  C_30
    3  A    between atoms: C_3  and  C_8
    4  A    between atoms: C_3  and  C_30
    5  A    between atoms: C_5  and  C_22
    6  A    between atoms: C_10  and  N_24
    7  A    between atoms: C_13  and  C_23
    8  A    between atoms: C_21  and  N_24
                            x       y       z     vdW  Elec       q    Type
                         _______ _______ _______ _____ _____    ______ ____

>  <TORSDO>
F 8

$$$$
=
 OpenBabel11042419313D

 32 35  0  0  1  0  0  0  0  0999 V2000
  190.2160  177.8390  144.9650 O   0  0  0  0  0  1  0  0  0  0  0  0
  190.5930  175.4440  144.8630 C   0  0  0  0  0  0  0  0  0  0  0  0
  190.2980  174.2020  144.2650 C   0  0  0  0  0  0  0  0  0  0  0  0
  191.0000  173.0540  144.6130 O   0  0  0  0  0  1  0  0  0  0  0  0
  189.8600  176.5860  144.4740 C   0  0  0  0  0  0  0  0  0  0  0  0
  188.7990  176.4660  143.5510 C   0  0  0  0  0  0  0  0  0  0  0  0
  189.2800  174.1040  143.3170 C   0  0  0  0  0  3  0  0  0  0  0  0
  188.5360  175.2280  142.9640 C   0  0  0  0  0  3  0  0  0  0  0  0
  192.9690  175.9940  145.5210 N   0  0  0  0  0  0  0  0  0  0  0  0
  194.3820  176.3160  145.8440 C   0  0  2  0  0  0  0  0  0  0  0  0
  194.4780  177.4390  146.6660 O   0  0  0  0  0  1  0  0  0  0  0  0
  191.6640  175.5470  145.8810 C   0  0  0  0  0  0  0  0  0  0  0  0
  193.9760  176.5320  144.5480 C   0  0  0  0  0  2  0  0  0  0  0  0
  191.4240  175.2640  147.0850 O   0  0  0  0  0  0  0  0  0  0  0  0
  195.1970  175.0790  146.1870 C   0  0  0  0  0  2  0  0  0  0  0  0
  195.3470  172.8860  144.9730 C   0  0  0  0  0  1  0  0  0  0  0  0
  195.6830  174.3690  144.9260 C   0  0  2  0  0  3  0  0  0  0  0  0
  197.1090  174.5930  144.6690 N   0  0  0  0  0  2  0  0  0  0  0  0
  197.3450  174.8660  143.2540 C   0  0  0  0  0  2  0  0  0  0  0  0
  196.3970  176.6980  141.8940 C   0  0  0  0  0  1  0  0  0  0  0  0
  197.3470  176.3620  143.0220 C   0  0  0  0  0  2  0  0  0  0  0  0
  187.9990  177.5890  143.1470 N   0  0  0  0  0  2  0  0  0  0  0  0
  183.8260  178.8530  144.5270 C   0  0  0  0  0  3  0  0  0  0  0  0
  186.7650  178.0220  143.7410 C   0  0  0  0  0  0  0  0  0  0  0  0
  183.5040  178.5140  142.2240 O   0  0  0  0  0  0  0  0  0  0  0  0
  184.3140  178.5260  143.3400 C   0  0  0  0  0  0  0  0  0  0  0  0
  185.6640  178.1440  142.9730 C   0  0  0  0  0  0  0  0  0  0  0  0
  184.2110  178.1380  141.0540 C   0  0  0  0  0  3  0  0  0  0  0  0
  186.8300  178.3290  145.1070 O   0  0  0  0  0  0  0  0  0  0  0  0
  185.8380  178.7030  146.0180 C   0  0  0  0  0  3  0  0  0  0  0  0
  184.5480  178.9250  145.7910 C   0  0  0  0  0  3  0  0  0  0  0  0
  185.6600  177.9150  141.4920 C   0  0  0  0  0  3  0  0  0  0  0  0
  2 12  1  0  0  0  0
  3  4  1  0  0  0  0
  3  2  2  0  0  0  0
  5  2  1  0  0  0  0
  5  1  1  0  0  0  0
  6  5  2  0  0  0  0
  7  3  1  0  0  0  0
  8  7  2  0  0  0  0
  8  6  1  0  0  0  0
  9 10  1  0  0  0  0
  9 12  1  0  0  0  0
 10 15  1  0  0  0  0
 10 11  1  1  0  0  0
 12 14  2  0  0  0  0
 13  9  1  0  0  0  0
 13 10  1  0  0  0  0
 17 16  1  1  0  0  0
 17 15  1  0  0  0  0
 18 17  1  0  0  0  0
 19 18  1  0  0  0  0
 20 21  1  0  0  0  0
 21 19  1  0  0  0  0
 22  6  1  0  0  0  0
 22 24  1  0  0  0  0
 23 31  1  0  0  0  0
 24 29  1  0  0  0  0
 25 26  1  0  0  0  0
 26 23  2  0  0  0  0
 27 26  1  0  0  0  0
 27 24  2  0  0  0  0
 28 32  2  0  0  0  0
 28 25  1  0  0  0  0
 29 30  1  0  0  0  0
 31 30  2  0  0  0  0
 32 27  1  0  0  0  0
M  END
>  <MODEL>
2

>  <REMARK>
 VINA RESULT:      -7.0      2.332      3.586
  Name = 
  8 active torsions:
  status: ('A' for Active; 'I' for Inactive)
    1  A    between atoms: N_1  and  C_13
    2  A    between atoms: N_1  and  C_30
    3  A    between atoms: C_3  and  C_8
    4  A    between atoms: C_3  and  C_30
    5  A    between atoms: C_5  and  C_22
    6  A    between atoms: C_10  and  N_24
    7  A    between atoms: C_13  and  C_23
    8  A    between atoms: C_21  and  N_24
                            x       y       z     vdW  Elec       q    Type
                         _______ _______ _______ _____ _____    ______ ____

>  <TORSDO>
F 8

$$$$
=
 OpenBabel11042419313D

 32 35  0  0  1  0  0  0  0  0999 V2000
  190.9630  178.2870  143.9970 O   0  0  0  0  0  1  0  0  0  0  0  0
  191.6230  176.0760  144.7500 C   0  0  0  0  0  0  0  0  0  0  0  0
  191.2570  174.8330  145.3040 C   0  0  0  0  0  0  0  0  0  0  0  0
  192.1790  173.7980  145.4170 O   0  0  0  0  0  1  0  0  0  0  0  0
  190.6520  177.0960  144.6480 C   0  0  0  0  0  0  0  0  0  0  0  0
  189.3530  176.8910  145.1610 C   0  0  0  0  0  0  0  0  0  0  0  0
  189.9560  174.6240  145.7630 C   0  0  0  0  0  3  0  0  0  0  0  0
  189.0120  175.6470  145.6920 C   0  0  0  0  0  3  0  0  0  0  0  0
  193.4480  175.7660  143.0310 N   0  0  0  0  0  0  0  0  0  0  0  0
  194.4860  175.5350  141.9950 C   0  0  2  0  0  0  0  0  0  0  0  0
  194.8290  176.7170  141.3400 O   0  0  0  0  0  1  0  0  0  0  0  0
  193.0080  176.3040  144.2770 C   0  0  0  0  0  0  0  0  0  0  0  0
  193.2310  175.0300  141.7420 C   0  0  0  0  0  2  0  0  0  0  0  0
  193.8060  176.9990  144.9600 O   0  0  0  0  0  0  0  0  0  0  0  0
  195.5920  174.6100  142.4750 C   0  0  0  0  0  2  0  0  0  0  0  0
  197.8830  175.4560  141.8930 C   0  0  0  0  0  1  0  0  0  0  0  0
  196.8040  175.4010  142.9620 C   0  0  2  0  0  3  0  0  0  0  0  0
  197.3290  174.8980  144.2360 N   0  0  0  0  0  2  0  0  0  0  0  0
  196.2450  174.4350  145.0980 C   0  0  0  0  0  2  0  0  0  0  0  0
  196.8330  172.1660  145.8820 C   0  0  0  0  0  1  0  0  0  0  0  0
  196.8210  173.6350  146.2470 C   0  0  0  0  0  2  0  0  0  0  0  0
  188.3380  177.9060  145.1130 N   0  0  0  0  0  2  0  0  0  0  0  0
  184.6460  178.4420  142.4660 C   0  0  0  0  0  3  0  0  0  0  0  0
  187.2830  178.0200  144.1440 C   0  0  0  0  0  0  0  0  0  0  0  0
  183.7600  178.7550  144.6200 O   0  0  0  0  0  0  0  0  0  0  0  0
  184.8190  178.4890  143.7790 C   0  0  0  0  0  0  0  0  0  0  0  0
  186.0290  178.2960  144.5550 C   0  0  0  0  0  0  0  0  0  0  0  0
  184.1490  178.7620  145.9840 C   0  0  0  0  0  3  0  0  0  0  0  0
  187.6600  177.7870  142.8140 O   0  0  0  0  0  0  0  0  0  0  0  0
  186.9400  177.8780  141.6200 C   0  0  0  0  0  3  0  0  0  0  0  0
  185.6530  178.1630  141.4500 C   0  0  0  0  0  3  0  0  0  0  0  0
  185.6430  178.4270  145.9960 C   0  0  0  0  0  3  0  0  0  0  0  0
  1  5  1  0  0  0  0
  2  3  1  0  0  0  0
  3  4  1  0  0  0  0
  3  7  2  0  0  0  0
  5  2  2  0  0  0  0
  5  6  1  0  0  0  0
  6  8  2  0  0  0  0
  8  7  1  0  0  0  0
  9 12  1  0  0  0  0
 10 11  1  6  0  0  0
 10 15  1  0  0  0  0
 10  9  1  0  0  0  0
 12  2  1  0  0  0  0
 12 14  2  0  0  0  0
 13 10  1  0  0  0  0
 13  9  1  0  0  0  0
 15 17  1  0  0  0  0
 17 16  1  6  0  0  0
 17 18  1  0  0  0  0
 18 19  1  0  0  0  0
 19 21  1  0  0  0  0
 20 21  1  0  0  0  0
 22  6  1  0  0  0  0
 23 26  2  0  0  0  0
 24 27  2  0  0  0  0
 24 22  1  0  0  0  0
 25 28  1  0  0  0  0
 26 27  1  0  0  0  0
 26 25  1  0  0  0  0
 27 32  1  0  0  0  0
 28 32  2  0  0  0  0
 29 24  1  0  0  0  0
 30 29  1  0  0  0  0
 31 30  2  0  0  0  0
 31 23  1  0  0  0  0
M  END
>  <MODEL>
3

>  <REMARK>
 VINA RESULT:      -6.9      2.330      3.831
  Name = 
  8 active torsions:
  status: ('A' for Active; 'I' for Inactive)
    1  A    between atoms: N_1  and  C_13
    2  A    between atoms: N_1  and  C_30
    3  A    between atoms: C_3  and  C_8
    4  A    between atoms: C_3  and  C_30
    5  A    between atoms: C_5  and  C_22
    6  A    between atoms: C_10  and  N_24
    7  A    between atoms: C_13  and  C_23
    8  A    between atoms: C_21  and  N_24
                            x       y       z     vdW  Elec       q    Type
                         _______ _______ _______ _____ _____    ______ ____

>  <TORSDO>
F 8

$$$$
=
 OpenBabel11042419313D

 32 35  0  0  1  0  0  0  0  0999 V2000
  190.1410  177.9950  144.7850 O   0  0  0  0  0  1  0  0  0  0  0  0
  190.6350  175.6800  144.2480 C   0  0  0  0  0  0  0  0  0  0  0  0
  190.4820  174.5880  143.3700 C   0  0  0  0  0  0  0  0  0  0  0  0
  191.1790  173.4020  143.5720 O   0  0  0  0  0  1  0  0  0  0  0  0
  189.9130  176.8680  144.0000 C   0  0  0  0  0  0  0  0  0  0  0  0
  188.9980  176.9300  142.9270 C   0  0  0  0  0  0  0  0  0  0  0  0
  189.6120  174.6770  142.2830 C   0  0  0  0  0  3  0  0  0  0  0  0
  188.8750  175.8400  142.0650 C   0  0  0  0  0  3  0  0  0  0  0  0
  192.8950  176.0390  145.3180 N   0  0  0  0  0  0  0  0  0  0  0  0
  194.2490  176.2580  145.8870 C   0  0  2  0  0  0  0  0  0  0  0  0
  194.2340  177.2280  146.8880 O   0  0  0  0  0  1  0  0  0  0  0  0
  191.5470  175.5810  145.4100 C   0  0  0  0  0  0  0  0  0  0  0  0
  194.0380  176.6940  144.6000 C   0  0  0  0  0  2  0  0  0  0  0  0
  191.1320  175.1140  146.5040 O   0  0  0  0  0  0  0  0  0  0  0  0
  194.9940  174.9560  146.1330 C   0  0  0  0  0  2  0  0  0  0  0  0
  193.9860  172.7450  145.4990 C   0  0  0  0  0  1  0  0  0  0  0  0
  194.7550  173.9580  145.0010 C   0  0  2  0  0  3  0  0  0  0  0  0
  195.9950  173.5710  144.3220 N   0  0  0  0  0  2  0  0  0  0  0  0
  197.0930  174.4580  144.6980 C   0  0  0  0  0  2  0  0  0  0  0  0
  197.3650  176.3050  143.0800 C   0  0  0  0  0  1  0  0  0  0  0  0
  197.8240  174.9130  143.4530 C   0  0  0  0  0  2  0  0  0  0  0  0
  188.2140  178.1020  142.6510 N   0  0  0  0  0  2  0  0  0  0  0  0
  183.6540  178.3950  142.4660 C   0  0  0  0  0  3  0  0  0  0  0  0
  186.7980  178.1510  142.4170 C   0  0  0  0  0  0  0  0  0  0  0  0
  184.0690  178.5900  144.7700 O   0  0  0  0  0  0  0  0  0  0  0  0
  184.5110  178.4280  143.4750 C   0  0  0  0  0  0  0  0  0  0  0  0
  185.9570  178.3160  143.4580 C   0  0  0  0  0  0  0  0  0  0  0  0
  185.1370  178.6000  145.7030 C   0  0  0  0  0  3  0  0  0  0  0  0
  186.4010  177.9770  141.0840 O   0  0  0  0  0  0  0  0  0  0  0  0
  185.1430  178.0350  140.4790 C   0  0  0  0  0  3  0  0  0  0  0  0
  183.9580  178.2190  141.0510 C   0  0  0  0  0  3  0  0  0  0  0  0
  186.4120  178.3860  144.8830 C   0  0  0  0  0  3  0  0  0  0  0  0
  2 12  1  0  0  0  0
  3  4  1  0  0  0  0
  3  2  2  0  0  0  0
  5  2  1  0  0  0  0
  5  1  1  0  0  0  0
  6  5  2  0  0  0  0
  7  3  1  0  0  0  0
  8  7  2  0  0  0  0
  8  6  1  0  0  0  0
  9 12  1  0  0  0  0
  9 10  1  0  0  0  0
 10 15  1  0  0  0  0
 10 11  1  1  0  0  0
 12 14  2  0  0  0  0
 13  9  1  0  0  0  0
 13 10  1  0  0  0  0
 17 16  1  1  0  0  0
 17 15  1  0  0  0  0
 18 19  1  0  0  0  0
 18 17  1  0  0  0  0
 20 21  1  0  0  0  0
 21 19  1  0  0  0  0
 22  6  1  0  0  0  0
 23 26  2  0  0  0  0
 24 22  1  0  0  0  0
 24 27  2  0  0  0  0
 25 28  1  0  0  0  0
 26 25  1  0  0  0  0
 27 26  1  0  0  0  0
 27 32  1  0  0  0  0
 29 24  1  0  0  0  0
 30 31  2  0  0  0  0
 30 29  1  0  0  0  0
 31 23  1  0  0  0  0
 32 28  2  0  0  0  0
M  END
>  <MODEL>
4

>  <REMARK>
 VINA RESULT:      -6.9      2.243      3.930
  Name = 
  8 active torsions:
  status: ('A' for Active; 'I' for Inactive)
    1  A    between atoms: N_1  and  C_13
    2  A    between atoms: N_1  and  C_30
    3  A    between atoms: C_3  and  C_8
    4  A    between atoms: C_3  and  C_30
    5  A    between atoms: C_5  and  C_22
    6  A    between atoms: C_10  and  N_24
    7  A    between atoms: C_13  and  C_23
    8  A    between atoms: C_21  and  N_24
                            x       y       z     vdW  Elec       q    Type
                         _______ _______ _______ _____ _____    ______ ____

>  <TORSDO>
F 8

$$$$
=
 OpenBabel11042419313D

 32 35  0  0  1  0  0  0  0  0999 V2000
  190.9930  177.1260  143.2130 O   0  0  0  0  0  1  0  0  0  0  0  0
  190.6340  174.9820  142.1340 C   0  0  0  0  0  0  0  0  0  0  0  0
  189.8020  174.1460  141.3630 C   0  0  0  0  0  0  0  0  0  0  0  0
  190.2440  172.9040  140.9220 O   0  0  0  0  0  1  0  0  0  0  0  0
  190.1470  176.2390  142.5540 C   0  0  0  0  0  0  0  0  0  0  0  0
  188.8180  176.6160  142.2640 C   0  0  0  0  0  0  0  0  0  0  0  0
  188.5070  174.5500  141.0400 C   0  0  0  0  0  3  0  0  0  0  0  0
  188.0190  175.7760  141.4880 C   0  0  0  0  0  3  0  0  0  0  0  0
  192.2430  173.8030  143.6840 N   0  0  0  0  0  0  0  0  0  0  0  0
  193.1420  173.1110  144.6420 C   0  0  2  0  0  0  0  0  0  0  0  0
  193.6890  171.9540  144.0880 O   0  0  0  0  0  1  0  0  0  0  0  0
  192.0040  174.5480  142.4910 C   0  0  0  0  0  0  0  0  0  0  0  0
  191.7960  173.0860  144.9230 C   0  0  0  0  0  2  0  0  0  0  0  0
  192.9720  174.8090  141.7280 O   0  0  0  0  0  0  0  0  0  0  0  0
  194.0530  174.0750  145.3840 C   0  0  0  0  0  2  0  0  0  0  0  0
  194.4110  176.4860  144.7830 C   0  0  0  0  0  1  0  0  0  0  0  0
  193.4620  175.4820  145.4180 C   0  0  2  0  0  3  0  0  0  0  0  0
  193.0630  175.8930  146.7680 N   0  0  0  0  0  2  0  0  0  0  0  0
  191.6660  176.3160  146.7910 C   0  0  0  0  0  2  0  0  0  0  0  0
  189.6930  174.9120  147.2830 C   0  0  0  0  0  1  0  0  0  0  0  0
  190.9270  175.5580  147.8730 C   0  0  0  0  0  2  0  0  0  0  0  0
  188.2610  177.8680  142.6970 N   0  0  0  0  0  2  0  0  0  0  0  0
  184.4510  178.4700  145.1540 C   0  0  0  0  0  3  0  0  0  0  0  0
  186.9780  178.0700  143.3100 C   0  0  0  0  0  0  0  0  0  0  0  0
  186.0240  177.9100  146.8080 O   0  0  0  0  0  0  0  0  0  0  0  0
  185.6880  178.1360  145.4910 C   0  0  0  0  0  0  0  0  0  0  0  0
  186.8530  177.9500  144.6470 C   0  0  0  0  0  0  0  0  0  0  0  0
  187.3910  177.5650  146.9610 C   0  0  0  0  0  3  0  0  0  0  0  0
  185.9260  178.3460  142.4260 O   0  0  0  0  0  0  0  0  0  0  0  0
  184.5840  178.6630  142.6570 C   0  0  0  0  0  3  0  0  0  0  0  0
  183.9370  178.7280  143.8150 C   0  0  0  0  0  3  0  0  0  0  0  0
  187.9780  177.5440  145.5480 C   0  0  0  0  0  3  0  0  0  0  0  0
  2 12  1  0  0  0  0
  2  5  1  0  0  0  0
  3  2  2  0  0  0  0
  4  3  1  0  0  0  0
  5  1  1  0  0  0  0
  6  5  2  0  0  0  0
  6 22  1  0  0  0  0
  7  3  1  0  0  0  0
  7  8  2  0  0  0  0
  8  6  1  0  0  0  0
  9 10  1  0  0  0  0
  9 13  1  0  0  0  0
 10 11  1  6  0  0  0
 10 13  1  0  0  0  0
 10 15  1  0  0  0  0
 12  9  1  0  0  0  0
 14 12  2  0  0  0  0
 15 17  1  0  0  0  0
 17 16  1  1  0  0  0
 17 18  1  0  0  0  0
 18 19  1  0  0  0  0
 19 21  1  0  0  0  0
 20 21  1  0  0  0  0
 22 24  1  0  0  0  0
 23 26  2  0  0  0  0
 24 27  2  0  0  0  0
 25 28  1  0  0  0  0
 26 25  1  0  0  0  0
 27 26  1  0  0  0  0
 27 32  1  0  0  0  0
 29 30  1  0  0  0  0
 29 24  1  0  0  0  0
 30 31  2  0  0  0  0
 31 23  1  0  0  0  0
 32 28  2  0  0  0  0
M  END
>  <MODEL>
5

>  <REMARK>
 VINA RESULT:      -6.8      1.118      2.087
  Name = 
  8 active torsions:
  status: ('A' for Active; 'I' for Inactive)
    1  A    between atoms: N_1  and  C_13
    2  A    between atoms: N_1  and  C_30
    3  A    between atoms: C_3  and  C_8
    4  A    between atoms: C_3  and  C_30
    5  A    between atoms: C_5  and  C_22
    6  A    between atoms: C_10  and  N_24
    7  A    between atoms: C_13  and  C_23
    8  A    between atoms: C_21  and  N_24
                            x       y       z     vdW  Elec       q    Type
                         _______ _______ _______ _____ _____    ______ ____

>  <TORSDO>
F 8

$$$$
=
 OpenBabel11042419313D

 32 35  0  0  1  0  0  0  0  0999 V2000
  190.5630  175.0430  143.8590 O   0  0  0  0  0  1  0  0  0  0  0  0
  192.3610  175.7650  145.3200 C   0  0  0  0  0  0  0  0  0  0  0  0
  192.7720  176.2320  146.5850 C   0  0  0  0  0  0  0  0  0  0  0  0
  194.1190  176.3880  146.8890 O   0  0  0  0  0  1  0  0  0  0  0  0
  190.9820  175.6140  145.0570 C   0  0  0  0  0  0  0  0  0  0  0  0
  190.0300  175.9960  146.0270 C   0  0  0  0  0  0  0  0  0  0  0  0
  191.8230  176.5600  147.5540 C   0  0  0  0  0  3  0  0  0  0  0  0
  190.4620  176.4430  147.2750 C   0  0  0  0  0  3  0  0  0  0  0  0
  193.8590  174.0990  144.1530 N   0  0  0  0  0  0  0  0  0  0  0  0
  194.7310  173.0790  143.5180 C   0  0  2  0  0  0  0  0  0  0  0  0
  194.3420  172.8170  142.2050 O   0  0  0  0  0  1  0  0  0  0  0  0
  193.3670  175.4310  144.2850 C   0  0  0  0  0  0  0  0  0  0  0  0
  193.8870  172.6430  144.5120 C   0  0  0  0  0  2  0  0  0  0  0  0
  193.7790  176.3190  143.4920 O   0  0  0  0  0  0  0  0  0  0  0  0
  196.2040  173.3040  143.8190 C   0  0  0  0  0  2  0  0  0  0  0  0
  197.0760  173.7880  146.1240 C   0  0  0  0  0  1  0  0  0  0  0  0
  196.5900  172.7070  145.1710 C   0  0  2  0  0  3  0  0  0  0  0  0
  197.5640  171.6180  145.0460 N   0  0  0  0  0  2  0  0  0  0  0  0
  196.8910  170.3230  144.9970 C   0  0  0  0  0  2  0  0  0  0  0  0
  195.0460  169.6170  146.4810 C   0  0  0  0  0  1  0  0  0  0  0  0
  196.5330  169.8860  146.4010 C   0  0  0  0  0  2  0  0  0  0  0  0
  188.6150  175.8960  145.7980 N   0  0  0  0  0  2  0  0  0  0  0  0
  185.5670  179.2900  145.4740 C   0  0  0  0  0  3  0  0  0  0  0  0
  187.6550  176.9610  145.8770 C   0  0  0  0  0  0  0  0  0  0  0  0
  186.2630  179.0360  143.2440 O   0  0  0  0  0  0  0  0  0  0  0  0
  186.3230  178.6790  144.5750 C   0  0  0  0  0  0  0  0  0  0  0  0
  187.2840  177.6090  144.7540 C   0  0  0  0  0  0  0  0  0  0  0  0
  187.1450  178.2660  142.4430 C   0  0  0  0  0  3  0  0  0  0  0  0
  187.2040  177.2690  147.1680 O   0  0  0  0  0  0  0  0  0  0  0  0
  186.2380  178.1740  147.6190 C   0  0  0  0  0  3  0  0  0  0  0  0
  185.5240  179.0410  146.9100 C   0  0  0  0  0  3  0  0  0  0  0  0
  187.8730  177.3260  143.4070 C   0  0  0  0  0  3  0  0  0  0  0  0
  1  5  1  0  0  0  0
  2  3  1  0  0  0  0
  3  4  1  0  0  0  0
  3  7  2  0  0  0  0
  5  2  2  0  0  0  0
  5  6  1  0  0  0  0
  6  8  2  0  0  0  0
  8  7  1  0  0  0  0
  9 12  1  0  0  0  0
  9 13  1  0  0  0  0
 10 11  1  6  0  0  0
 10 15  1  0  0  0  0
 10  9  1  0  0  0  0
 10 13  1  0  0  0  0
 12  2  1  0  0  0  0
 14 12  2  0  0  0  0
 15 17  1  0  0  0  0
 17 16  1  1  0  0  0
 18 17  1  0  0  0  0
 19 18  1  0  0  0  0
 19 21  1  0  0  0  0
 21 20  1  0  0  0  0
 22 24  1  0  0  0  0
 22  6  1  0  0  0  0
 23 31  1  0  0  0  0
 24 29  1  0  0  0  0
 25 26  1  0  0  0  0
 26 27  1  0  0  0  0
 26 23  2  0  0  0  0
 27 24  2  0  0  0  0
 28 25  1  0  0  0  0
 28 32  2  0  0  0  0
 29 30  1  0  0  0  0
 31 30  2  0  0  0  0
 32 27  1  0  0  0  0
M  END
>  <MODEL>
6

>  <REMARK>
 VINA RESULT:      -6.8      2.582      4.181
  Name = 
  8 active torsions:
  status: ('A' for Active; 'I' for Inactive)
    1  A    between atoms: N_1  and  C_13
    2  A    between atoms: N_1  and  C_30
    3  A    between atoms: C_3  and  C_8
    4  A    between atoms: C_3  and  C_30
    5  A    between atoms: C_5  and  C_22
    6  A    between atoms: C_10  and  N_24
    7  A    between atoms: C_13  and  C_23
    8  A    between atoms: C_21  and  N_24
                            x       y       z     vdW  Elec       q    Type
                         _______ _______ _______ _____ _____    ______ ____

>  <TORSDO>
F 8

$$$$
=
 OpenBabel11042419313D

 32 35  0  0  1  0  0  0  0  0999 V2000
  191.3710  178.1420  143.6600 O   0  0  0  0  0  1  0  0  0  0  0  0
  192.0690  176.1470  144.8520 C   0  0  0  0  0  0  0  0  0  0  0  0
  191.7160  174.9500  145.5100 C   0  0  0  0  0  0  0  0  0  0  0  0
  192.6890  174.0610  145.9510 O   0  0  0  0  0  1  0  0  0  0  0  0
  191.0480  177.0180  144.4150 C   0  0  0  0  0  0  0  0  0  0  0  0
  189.6960  176.7240  144.6980 C   0  0  0  0  0  0  0  0  0  0  0  0
  190.3750  174.6460  145.7410 C   0  0  0  0  0  3  0  0  0  0  0  0
  189.3730  175.5270  145.3380 C   0  0  0  0  0  3  0  0  0  0  0  0
  194.2210  175.8570  143.5620 N   0  0  0  0  0  0  0  0  0  0  0  0
  195.4620  175.6330  142.7770 C   0  0  2  0  0  0  0  0  0  0  0  0
  195.8200  176.7650  142.0460 O   0  0  0  0  0  1  0  0  0  0  0  0
  193.4940  176.4780  144.6200 C   0  0  0  0  0  0  0  0  0  0  0  0
  194.3350  174.9610  142.3650 C   0  0  0  0  0  2  0  0  0  0  0  0
  194.0710  177.3340  145.3410 O   0  0  0  0  0  0  0  0  0  0  0  0
  196.5300  174.9030  143.5750 C   0  0  0  0  0  2  0  0  0  0  0  0
  196.2400  174.1530  145.9540 C   0  0  0  0  0  1  0  0  0  0  0  0
  195.9130  173.8550  144.4990 C   0  0  2  0  0  3  0  0  0  0  0  0
  196.2880  172.4870  144.1290 N   0  0  0  0  0  2  0  0  0  0  0  0
  197.6250  172.1650  144.6190 C   0  0  0  0  0  2  0  0  0  0  0  0
  196.6420  170.5020  146.1610 C   0  0  0  0  0  1  0  0  0  0  0  0
  197.6640  170.7200  145.0670 C   0  0  0  0  0  2  0  0  0  0  0  0
  188.6220  177.5920  144.3050 N   0  0  0  0  0  2  0  0  0  0  0  0
  184.4460  178.2530  146.0500 C   0  0  0  0  0  3  0  0  0  0  0  0
  187.3920  177.8110  145.0150 C   0  0  0  0  0  0  0  0  0  0  0  0
  184.0340  178.3320  143.7380 O   0  0  0  0  0  0  0  0  0  0  0  0
  184.8950  178.1940  144.8060 C   0  0  0  0  0  0  0  0  0  0  0  0
  186.2480  177.9910  144.3240 C   0  0  0  0  0  0  0  0  0  0  0  0
  184.7060  178.2380  142.4930 C   0  0  0  0  0  3  0  0  0  0  0  0
  187.5030  177.8580  146.4110 O   0  0  0  0  0  0  0  0  0  0  0  0
  186.5350  177.9770  147.4120 C   0  0  0  0  0  3  0  0  0  0  0  0
  185.2230  178.1400  147.2780 C   0  0  0  0  0  3  0  0  0  0  0  0
  186.1870  178.0470  142.8290 C   0  0  0  0  0  3  0  0  0  0  0  0
  1  5  1  0  0  0  0
  2  3  1  0  0  0  0
  3  7  2  0  0  0  0
  3  4  1  0  0  0  0
  5  6  1  0  0  0  0
  5  2  2  0  0  0  0
  6  8  2  0  0  0  0
  8  7  1  0  0  0  0
  9 12  1  0  0  0  0
 10 11  1  6  0  0  0
 10  9  1  0  0  0  0
 10 15  1  0  0  0  0
 12  2  1  0  0  0  0
 12 14  2  0  0  0  0
 13 10  1  0  0  0  0
 13  9  1  0  0  0  0
 15 17  1  0  0  0  0
 17 16  1  1  0  0  0
 18 17  1  0  0  0  0
 18 19  1  0  0  0  0
 19 21  1  0  0  0  0
 21 20  1  0  0  0  0
 22  6  1  0  0  0  0
 22 24  1  0  0  0  0
 23 31  1  0  0  0  0
 24 29  1  0  0  0  0
 25 26  1  0  0  0  0
 26 23  2  0  0  0  0
 27 26  1  0  0  0  0
 27 24  2  0  0  0  0
 28 32  2  0  0  0  0
 28 25  1  0  0  0  0
 29 30  1  0  0  0  0
 31 30  2  0  0  0  0
 32 27  1  0  0  0  0
M  END
>  <MODEL>
7

>  <REMARK>
 VINA RESULT:      -6.7      2.318      3.673
  Name = 
  8 active torsions:
  status: ('A' for Active; 'I' for Inactive)
    1  A    between atoms: N_1  and  C_13
    2  A    between atoms: N_1  and  C_30
    3  A    between atoms: C_3  and  C_8
    4  A    between atoms: C_3  and  C_30
    5  A    between atoms: C_5  and  C_22
    6  A    between atoms: C_10  and  N_24
    7  A    between atoms: C_13  and  C_23
    8  A    between atoms: C_21  and  N_24
                            x       y       z     vdW  Elec       q    Type
                         _______ _______ _______ _____ _____    ______ ____

>  <TORSDO>
F 8

$$$$
=
 OpenBabel11042419313D

 32 35  0  0  1  0  0  0  0  0999 V2000
  190.4100  178.3810  144.2940 O   0  0  0  0  0  1  0  0  0  0  0  0
  190.5530  175.9700  144.5250 C   0  0  0  0  0  0  0  0  0  0  0  0
  190.1090  174.6920  144.1270 C   0  0  0  0  0  0  0  0  0  0  0  0
  190.7170  173.5390  144.6080 O   0  0  0  0  0  1  0  0  0  0  0  0
  189.9110  177.1140  144.0050 C   0  0  0  0  0  0  0  0  0  0  0  0
  188.7940  176.9740  143.1530 C   0  0  0  0  0  0  0  0  0  0  0  0
  189.0350  174.5660  143.2450 C   0  0  0  0  0  3  0  0  0  0  0  0
  188.3820  175.6990  142.7640 C   0  0  0  0  0  3  0  0  0  0  0  0
  193.0190  176.2530  144.9940 N   0  0  0  0  0  0  0  0  0  0  0  0
  194.4800  176.4030  145.2080 C   0  0  2  0  0  0  0  0  0  0  0  0
  194.7930  177.6390  145.7730 O   0  0  0  0  0  1  0  0  0  0  0  0
  191.6830  176.1050  145.4730 C   0  0  0  0  0  0  0  0  0  0  0  0
  194.0390  176.4110  143.9060 C   0  0  0  0  0  2  0  0  0  0  0  0
  191.4720  176.1160  146.7140 O   0  0  0  0  0  0  0  0  0  0  0  0
  195.1150  175.1470  145.7850 C   0  0  0  0  0  2  0  0  0  0  0  0
  193.9590  172.9230  145.6470 C   0  0  0  0  0  1  0  0  0  0  0  0
  194.8280  173.9290  144.9100 C   0  0  2  0  0  3  0  0  0  0  0  0
  196.0520  173.3100  144.3900 N   0  0  0  0  0  2  0  0  0  0  0  0
  196.0150  171.8610  144.5640 C   0  0  0  0  0  2  0  0  0  0  0  0
  196.8400  170.1410  146.1350 C   0  0  0  0  0  1  0  0  0  0  0  0
  197.1890  171.4240  145.4120 C   0  0  0  0  0  2  0  0  0  0  0  0
  188.0830  178.1050  142.6240 N   0  0  0  0  0  2  0  0  0  0  0  0
  183.5390  178.5840  142.4390 C   0  0  0  0  0  3  0  0  0  0  0  0
  186.6690  178.1990  142.3940 C   0  0  0  0  0  0  0  0  0  0  0  0
  183.9810  178.9330  144.7210 O   0  0  0  0  0  0  0  0  0  0  0  0
  184.4050  178.6550  143.4390 C   0  0  0  0  0  0  0  0  0  0  0  0
  185.8440  178.4790  143.4240 C   0  0  0  0  0  0  0  0  0  0  0  0
  185.0560  178.9670  145.6450 C   0  0  0  0  0  3  0  0  0  0  0  0
  186.2540  177.9430  141.0800 O   0  0  0  0  0  0  0  0  0  0  0  0
  184.9940  178.0100  140.4780 C   0  0  0  0  0  3  0  0  0  0  0  0
  183.8230  178.2890  141.0410 C   0  0  0  0  0  3  0  0  0  0  0  0
  186.3130  178.6350  144.8370 C   0  0  0  0  0  3  0  0  0  0  0  0
  2 12  1  0  0  0  0
  3  2  1  0  0  0  0
  3  4  1  0  0  0  0
  5  1  1  0  0  0  0
  5  2  2  0  0  0  0
  6  5  1  0  0  0  0
  7  3  2  0  0  0  0
  8  6  2  0  0  0  0
  8  7  1  0  0  0  0
  9 10  1  0  0  0  0
  9 12  1  0  0  0  0
 10 11  1  1  0  0  0
 10 15  1  0  0  0  0
 12 14  2  0  0  0  0
 13  9  1  0  0  0  0
 13 10  1  0  0  0  0
 17 16  1  1  0  0  0
 17 15  1  0  0  0  0
 18 19  1  0  0  0  0
 18 17  1  0  0  0  0
 19 21  1  0  0  0  0
 21 20  1  0  0  0  0
 22  6  1  0  0  0  0
 23 26  2  0  0  0  0
 24 22  1  0  0  0  0
 24 27  2  0  0  0  0
 25 28  1  0  0  0  0
 26 25  1  0  0  0  0
 27 26  1  0  0  0  0
 27 32  1  0  0  0  0
 29 24  1  0  0  0  0
 30 31  2  0  0  0  0
 30 29  1  0  0  0  0
 31 23  1  0  0  0  0
 32 28  2  0  0  0  0
M  END
>  <MODEL>
8

>  <REMARK>
 VINA RESULT:      -6.7      2.345      3.960
  Name = 
  8 active torsions:
  status: ('A' for Active; 'I' for Inactive)
    1  A    between atoms: N_1  and  C_13
    2  A    between atoms: N_1  and  C_30
    3  A    between atoms: C_3  and  C_8
    4  A    between atoms: C_3  and  C_30
    5  A    between atoms: C_5  and  C_22
    6  A    between atoms: C_10  and  N_24
    7  A    between atoms: C_13  and  C_23
    8  A    between atoms: C_21  and  N_24
                            x       y       z     vdW  Elec       q    Type
                         _______ _______ _______ _____ _____    ______ ____

>  <TORSDO>
F 8

$$$$
=
 OpenBabel11042419313D

 32 35  0  0  1  0  0  0  0  0999 V2000
  190.4370  175.0740  143.6550 O   0  0  0  0  0  1  0  0  0  0  0  0
  189.7460  176.4320  145.5430 C   0  0  0  0  0  0  0  0  0  0  0  0
  190.0840  177.0850  146.7460 C   0  0  0  0  0  0  0  0  0  0  0  0
  189.1650  177.8920  147.4080 O   0  0  0  0  0  1  0  0  0  0  0  0
  190.7130  175.6290  144.9020 C   0  0  0  0  0  0  0  0  0  0  0  0
  191.9760  175.4280  145.4990 C   0  0  0  0  0  0  0  0  0  0  0  0
  191.3530  176.9200  147.3020 C   0  0  0  0  0  3  0  0  0  0  0  0
  192.2910  176.0960  146.6830 C   0  0  0  0  0  3  0  0  0  0  0  0
  188.2180  177.2460  143.7030 N   0  0  0  0  0  0  0  0  0  0  0  0
  187.3690  177.7610  142.6000 C   0  0  2  0  0  0  0  0  0  0  0  0
  186.7730  176.7240  141.8830 O   0  0  0  0  0  1  0  0  0  0  0  0
  188.3940  176.5950  144.9610 C   0  0  0  0  0  0  0  0  0  0  0  0
  188.7290  177.9090  142.4580 C   0  0  0  0  0  2  0  0  0  0  0  0
  187.3860  176.1360  145.5590 O   0  0  0  0  0  0  0  0  0  0  0  0
  186.5190  178.9470  143.0250 C   0  0  0  0  0  2  0  0  0  0  0  0
  184.0530  178.4820  142.9410 C   0  0  0  0  0  1  0  0  0  0  0  0
  185.2950  178.4950  143.8180 C   0  0  2  0  0  3  0  0  0  0  0  0
  185.0890  179.2870  145.0350 N   0  0  0  0  0  2  0  0  0  0  0  0
  184.0750  178.6750  145.8890 C   0  0  0  0  0  2  0  0  0  0  0  0
  185.9410  179.1210  147.4460 C   0  0  0  0  0  1  0  0  0  0  0  0
  184.6940  178.2960  147.2160 C   0  0  0  0  0  2  0  0  0  0  0  0
  192.9840  174.5940  144.9050 N   0  0  0  0  0  2  0  0  0  0  0  0
  196.8740  175.6530  142.7450 C   0  0  0  0  0  3  0  0  0  0  0  0
  194.1030  175.0290  144.1170 C   0  0  0  0  0  0  0  0  0  0  0  0
  197.6540  174.4610  144.6130 O   0  0  0  0  0  0  0  0  0  0  0  0
  196.6250  174.9930  143.8660 C   0  0  0  0  0  0  0  0  0  0  0  0
  195.3550  174.7040  144.5010 C   0  0  0  0  0  0  0  0  0  0  0  0
  197.1840  173.7930  145.7720 C   0  0  0  0  0  3  0  0  0  0  0  0
  193.7850  175.8150  143.0020 O   0  0  0  0  0  0  0  0  0  0  0  0
  194.5850  176.3460  141.9860 C   0  0  0  0  0  3  0  0  0  0  0  0
  195.9050  176.2820  141.8550 C   0  0  0  0  0  3  0  0  0  0  0  0
  195.6620  173.9570  145.7620 C   0  0  0  0  0  3  0  0  0  0  0  0
  1  5  1  0  0  0  0
  2  3  1  0  0  0  0
  3  7  2  0  0  0  0
  3  4  1  0  0  0  0
  5  6  1  0  0  0  0
  5  2  2  0  0  0  0
  6  8  2  0  0  0  0
  8  7  1  0  0  0  0
  9 12  1  0  0  0  0
 10 11  1  6  0  0  0
 10 15  1  0  0  0  0
 10  9  1  0  0  0  0
 12  2  1  0  0  0  0
 12 14  2  0  0  0  0
 13 10  1  0  0  0  0
 13  9  1  0  0  0  0
 15 17  1  0  0  0  0
 17 16  1  6  0  0  0
 17 18  1  0  0  0  0
 18 19  1  0  0  0  0
 19 21  1  0  0  0  0
 21 20  1  0  0  0  0
 22  6  1  0  0  0  0
 23 26  2  0  0  0  0
 24 27  2  0  0  0  0
 24 22  1  0  0  0  0
 25 28  1  0  0  0  0
 26 27  1  0  0  0  0
 26 25  1  0  0  0  0
 27 32  1  0  0  0  0
 29 24  1  0  0  0  0
 30 29  1  0  0  0  0
 31 30  2  0  0  0  0
 31 23  1  0  0  0  0
 32 28  2  0  0  0  0
M  END
>  <MODEL>
9

>  <REMARK>
 VINA RESULT:      -6.6      2.153      8.494
  Name = 
  8 active torsions:
  status: ('A' for Active; 'I' for Inactive)
    1  A    between atoms: N_1  and  C_13
    2  A    between atoms: N_1  and  C_30
    3  A    between atoms: C_3  and  C_8
    4  A    between atoms: C_3  and  C_30
    5  A    between atoms: C_5  and  C_22
    6  A    between atoms: C_10  and  N_24
    7  A    between atoms: C_13  and  C_23
    8  A    between atoms: C_21  and  N_24
                            x       y       z     vdW  Elec       q    Type
                         _______ _______ _______ _____ _____    ______ ____

>  <TORSDO>
F 8

$$$$
