=
 OpenBabel11042413503D

 25 28  0  0  1  0  0  0  0  0999 V2000
  185.5640  178.5100  141.0760 C   0  0  0  0  0  3  0  0  0  0  0  0
  186.4020  177.4350  140.7130 C   0  0  0  0  0  0  0  0  0  0  0  0
  185.2480  177.7410  144.5830 C   0  0  1  0  0  3  0  0  0  0  0  0
  186.8050  176.5040  141.6930 C   0  0  0  0  0  0  0  0  0  0  0  0
  185.5330  177.7520  143.2990 C   0  0  0  0  0  0  0  0  0  0  0  0
  184.3950  178.7000  145.2770 C   0  0  0  0  0  3  0  0  0  0  0  0
  186.8220  176.9310  146.2450 N   0  0  0  0  0  0  0  0  0  0  0  0
  187.6950  175.3560  141.3490 C   0  0  0  0  0  1  0  0  0  0  0  0
  184.3800  178.8810  146.5970 C   0  0  0  0  0  3  0  0  0  0  0  0
  186.3420  176.6950  142.9970 C   0  0  0  0  0  0  0  0  0  0  0  0
  186.8220  177.3050  139.3950 O   0  0  0  0  0  1  0  0  0  0  0  0
  185.8970  176.5320  145.1770 C   0  0  2  0  0  3  0  0  0  0  0  0
  185.1410  178.6570  142.3660 N   0  0  0  0  0  0  0  0  0  0  0  0
  185.2420  178.2560  147.6220 C   0  0  0  0  0  3  0  0  0  0  0  0
  186.6040  175.9560  144.0220 N   0  0  0  0  0  2  0  0  0  0  0  0
  186.3020  177.4490  147.4790 C   0  0  0  0  0  3  0  0  0  0  0  0
  188.1710  176.4370  146.2920 C   0  0  0  0  0  0  0  0  0  0  0  0
  190.7810  175.4880  146.4420 C   0  0  0  0  0  3  0  0  0  0  0  0
  190.4860  176.5430  145.5760 C   0  0  0  0  0  0  0  0  0  0  0  0
  189.8000  174.9370  147.2040 N   0  0  0  0  0  0  0  0  0  0  0  0
  189.1730  177.0250  145.5040 C   0  0  0  0  0  0  0  0  0  0  0  0
  188.5180  175.3850  147.1500 C   0  0  0  0  0  3  0  0  0  0  0  0
  188.8640  178.0450  144.6630 F   0  0  0  0  0  0  0  0  0  0  0  0
  192.3730  177.5830  144.1290 N   0  0  0  0  0  0  0  0  0  0  0  0
  191.5310  177.1190  144.7750 C   0  0  0  0  0  0  0  0  0  0  0  0
  1 13  1  0  0  0  0
  2  1  2  0  0  0  0
  2  4  1  0  0  0  0
  3 12  1  0  0  0  0
  3  6  1  6  0  0  0
  4 10  2  0  0  0  0
  5  3  1  0  0  0  0
  6  9  2  0  0  0  0
  7 17  1  0  0  0  0
  7 16  1  0  0  0  0
  8  4  1  0  0  0  0
  9 14  1  0  0  0  0
 10  5  1  0  0  0  0
 10 15  1  0  0  0  0
 11  2  1  0  0  0  0
 12 15  1  6  0  0  0
 12  7  1  0  0  0  0
 13  5  2  0  0  0  0
 16 14  2  0  0  0  0
 17 22  1  0  0  0  0
 18 20  1  0  0  0  0
 19 18  2  0  0  0  0
 21 19  1  0  0  0  0
 21 17  2  0  0  0  0
 22 20  2  0  0  0  0
 23 21  1  0  0  0  0
 24 25  3  0  0  0  0
 25 19  1  0  0  0  0
M  END
>  <MODEL>
1

>  <REMARK>
 VINA RESULT:      -7.9      0.000      0.000
  Name = 
  2 active torsions:
  status: ('A' for Active; 'I' for Inactive)
    1  A    between atoms: C_4  and  N_10
    2  A    between atoms: C_13  and  C_20
                            x       y       z     vdW  Elec       q    Type
                         _______ _______ _______ _____ _____    ______ ____

>  <TORSDO>
F 2

$$$$
=
 OpenBabel11042413503D

 25 28  0  0  1  0  0  0  0  0999 V2000
  191.0220  175.4620  147.0210 C   0  0  0  0  0  3  0  0  0  0  0  0
  191.7250  175.9390  145.8950 C   0  0  0  0  0  0  0  0  0  0  0  0
  187.8710  177.0890  146.3740 C   0  0  1  0  0  3  0  0  0  0  0  0
  191.0780  176.7970  144.9820 C   0  0  0  0  0  0  0  0  0  0  0  0
  189.1120  176.6520  146.3480 C   0  0  0  0  0  0  0  0  0  0  0  0
  186.8840  176.7960  147.4070 C   0  0  0  0  0  3  0  0  0  0  0  0
  186.6030  177.4840  144.3410 N   0  0  0  0  0  0  0  0  0  0  0  0
  191.7870  177.3190  143.7770 C   0  0  0  0  0  1  0  0  0  0  0  0
  185.5680  176.9540  147.2620 C   0  0  0  0  0  3  0  0  0  0  0  0
  189.7500  177.1410  145.2450 C   0  0  0  0  0  0  0  0  0  0  0  0
  193.0460  175.5580  145.6980 O   0  0  0  0  0  1  0  0  0  0  0  0
  187.6860  177.9880  145.1940 C   0  0  2  0  0  3  0  0  0  0  0  0
  189.7220  175.8230  147.2340 N   0  0  0  0  0  0  0  0  0  0  0  0
  184.8160  177.3560  146.0550 C   0  0  0  0  0  3  0  0  0  0  0  0
  188.9970  177.9050  144.5290 N   0  0  0  0  0  2  0  0  0  0  0  0
  185.2460  177.5540  144.8010 C   0  0  0  0  0  3  0  0  0  0  0  0
  186.7770  177.3290  142.9220 C   0  0  0  0  0  0  0  0  0  0  0  0
  187.0550  177.0360  140.1710 C   0  0  0  0  0  3  0  0  0  0  0  0
  187.5470  176.0410  141.0170 C   0  0  0  0  0  0  0  0  0  0  0  0
  186.4440  178.1330  140.6910 N   0  0  0  0  0  0  0  0  0  0  0  0
  187.4030  176.1850  142.4020 C   0  0  0  0  0  0  0  0  0  0  0  0
  186.2940  178.2970  142.0310 C   0  0  0  0  0  3  0  0  0  0  0  0
  187.8810  175.2320  143.2430 F   0  0  0  0  0  0  0  0  0  0  0  0
  188.7100  173.9530  140.0040 N   0  0  0  0  0  0  0  0  0  0  0  0
  188.1920  174.8850  140.4550 C   0  0  0  0  0  0  0  0  0  0  0  0
  1 13  1  0  0  0  0
  2  1  2  0  0  0  0
  3  6  1  1  0  0  0
  4 10  2  0  0  0  0
  4  2  1  0  0  0  0
  5  3  1  0  0  0  0
  5 13  2  0  0  0  0
  7 16  1  0  0  0  0
  7 12  1  0  0  0  0
  8  4  1  0  0  0  0
  9  6  2  0  0  0  0
 10  5  1  0  0  0  0
 11  2  1  0  0  0  0
 12 15  1  6  0  0  0
 12  3  1  0  0  0  0
 14  9  1  0  0  0  0
 15 10  1  0  0  0  0
 16 14  2  0  0  0  0
 17  7  1  0  0  0  0
 18 20  2  0  0  0  0
 18 19  1  0  0  0  0
 19 21  2  0  0  0  0
 20 22  1  0  0  0  0
 21 17  1  0  0  0  0
 21 23  1  0  0  0  0
 22 17  2  0  0  0  0
 24 25  3  0  0  0  0
 25 19  1  0  0  0  0
M  END
>  <MODEL>
2

>  <REMARK>
 VINA RESULT:      -7.4      2.465      5.400
  Name = 
  2 active torsions:
  status: ('A' for Active; 'I' for Inactive)
    1  A    between atoms: C_4  and  N_10
    2  A    between atoms: C_13  and  C_20
                            x       y       z     vdW  Elec       q    Type
                         _______ _______ _______ _____ _____    ______ ____

>  <TORSDO>
F 2

$$$$
=
 OpenBabel11042413503D

 25 28  0  0  1  0  0  0  0  0999 V2000
  191.6990  176.3960  147.6060 C   0  0  0  0  0  3  0  0  0  0  0  0
  192.5050  176.4160  146.4480 C   0  0  0  0  0  0  0  0  0  0  0  0
  188.5700  177.2880  146.0550 C   0  0  1  0  0  3  0  0  0  0  0  0
  191.9280  176.7400  145.2030 C   0  0  0  0  0  0  0  0  0  0  0  0
  189.8250  177.0020  146.3260 C   0  0  0  0  0  0  0  0  0  0  0  0
  187.4840  177.3680  147.0260 C   0  0  0  0  0  3  0  0  0  0  0  0
  187.5310  176.6620  143.9520 N   0  0  0  0  0  0  0  0  0  0  0  0
  192.7470  176.7660  143.9550 C   0  0  0  0  0  1  0  0  0  0  0  0
  186.1880  177.3250  146.7160 C   0  0  0  0  0  3  0  0  0  0  0  0
  190.5630  177.0350  145.1790 C   0  0  0  0  0  0  0  0  0  0  0  0
  193.8580  176.1140  146.5480 O   0  0  0  0  0  1  0  0  0  0  0  0
  188.4810  177.5800  144.5920 C   0  0  2  0  0  3  0  0  0  0  0  0
  190.3670  176.6890  147.5310 N   0  0  0  0  0  0  0  0  0  0  0  0
  185.5640  177.1030  145.3950 C   0  0  0  0  0  3  0  0  0  0  0  0
  189.8620  177.3480  144.1410 N   0  0  0  0  0  2  0  0  0  0  0  0
  186.1270  176.7910  144.2190 C   0  0  0  0  0  3  0  0  0  0  0  0
  187.8780  175.9360  142.7590 C   0  0  0  0  0  0  0  0  0  0  0  0
  188.4910  174.5350  140.4370 C   0  0  0  0  0  3  0  0  0  0  0  0
  188.8790  174.0140  141.6720 C   0  0  0  0  0  0  0  0  0  0  0  0
  187.8160  175.7140  140.3750 N   0  0  0  0  0  0  0  0  0  0  0  0
  188.5660  174.7170  142.8430 C   0  0  0  0  0  0  0  0  0  0  0  0
  187.5030  176.4150  141.4960 C   0  0  0  0  0  3  0  0  0  0  0  0
  188.9410  174.2300  144.0540 F   0  0  0  0  0  0  0  0  0  0  0  0
  190.1640  171.7610  141.7690 N   0  0  0  0  0  0  0  0  0  0  0  0
  189.5910  172.7660  141.7260 C   0  0  0  0  0  0  0  0  0  0  0  0
  2 11  1  0  0  0  0
  2  1  2  0  0  0  0
  3  5  1  0  0  0  0
  3  6  1  1  0  0  0
  4  2  1  0  0  0  0
  5 13  2  0  0  0  0
  7 16  1  0  0  0  0
  7 12  1  0  0  0  0
  8  4  1  0  0  0  0
  9  6  2  0  0  0  0
 10  4  2  0  0  0  0
 10  5  1  0  0  0  0
 12 15  1  6  0  0  0
 12  3  1  0  0  0  0
 13  1  1  0  0  0  0
 14  9  1  0  0  0  0
 15 10  1  0  0  0  0
 16 14  2  0  0  0  0
 17 21  1  0  0  0  0
 17  7  1  0  0  0  0
 18 19  1  0  0  0  0
 19 25  1  0  0  0  0
 19 21  2  0  0  0  0
 20 18  2  0  0  0  0
 20 22  1  0  0  0  0
 21 23  1  0  0  0  0
 22 17  2  0  0  0  0
 25 24  3  0  0  0  0
M  END
>  <MODEL>
3

>  <REMARK>
 VINA RESULT:      -7.3      2.952      5.606
  Name = 
  2 active torsions:
  status: ('A' for Active; 'I' for Inactive)
    1  A    between atoms: C_4  and  N_10
    2  A    between atoms: C_13  and  C_20
                            x       y       z     vdW  Elec       q    Type
                         _______ _______ _______ _____ _____    ______ ____

>  <TORSDO>
F 2

$$$$
=
 OpenBabel11042413503D

 25 28  0  0  1  0  0  0  0  0999 V2000
  184.8990  178.3210  141.3770 C   0  0  0  0  0  3  0  0  0  0  0  0
  185.8600  177.5410  140.6990 C   0  0  0  0  0  0  0  0  0  0  0  0
  185.8750  177.5010  144.7480 C   0  0  1  0  0  3  0  0  0  0  0  0
  186.7820  176.7730  141.4390 C   0  0  0  0  0  0  0  0  0  0  0  0
  185.7490  177.5930  143.4420 C   0  0  0  0  0  0  0  0  0  0  0  0
  185.0330  178.1660  145.7370 C   0  0  0  0  0  3  0  0  0  0  0  0
  188.0350  177.1980  145.8160 N   0  0  0  0  0  0  0  0  0  0  0  0
  187.8160  175.9390  140.7580 C   0  0  0  0  0  1  0  0  0  0  0  0
  185.3620  178.3380  147.0170 C   0  0  0  0  0  3  0  0  0  0  0  0
  186.6960  176.8220  142.8320 C   0  0  0  0  0  0  0  0  0  0  0  0
  185.8860  177.5380  139.3100 O   0  0  0  0  0  1  0  0  0  0  0  0
  186.9860  176.5400  145.0260 C   0  0  2  0  0  3  0  0  0  0  0  0
  184.8570  178.3390  142.7420 N   0  0  0  0  0  0  0  0  0  0  0  0
  186.6300  177.9980  147.6960 C   0  0  0  0  0  3  0  0  0  0  0  0
  187.4490  176.1960  143.6720 N   0  0  0  0  0  2  0  0  0  0  0  0
  187.7820  177.5410  147.1870 C   0  0  0  0  0  3  0  0  0  0  0  0
  189.4190  177.1250  145.4330 C   0  0  0  0  0  0  0  0  0  0  0  0
  192.0790  176.9910  144.6360 C   0  0  0  0  0  3  0  0  0  0  0  0
  191.5510  175.9700  145.4270 C   0  0  0  0  0  0  0  0  0  0  0  0
  191.2960  178.0360  144.2570 N   0  0  0  0  0  0  0  0  0  0  0  0
  190.2100  176.0340  145.8250 C   0  0  0  0  0  0  0  0  0  0  0  0
  189.9930  178.1220  144.6330 C   0  0  0  0  0  3  0  0  0  0  0  0
  189.6790  175.0550  146.6020 F   0  0  0  0  0  0  0  0  0  0  0  0
  193.0630  173.9840  146.1380 N   0  0  0  0  0  0  0  0  0  0  0  0
  192.3890  174.8690  145.8210 C   0  0  0  0  0  0  0  0  0  0  0  0
  1 13  1  0  0  0  0
  2  1  2  0  0  0  0
  2  4  1  0  0  0  0
  3 12  1  0  0  0  0
  3  6  1  1  0  0  0
  4 10  2  0  0  0  0
  5  3  1  0  0  0  0
  6  9  2  0  0  0  0
  7 16  1  0  0  0  0
  8  4  1  0  0  0  0
  9 14  1  0  0  0  0
 10  5  1  0  0  0  0
 10 15  1  0  0  0  0
 11  2  1  0  0  0  0
 12 15  1  6  0  0  0
 12  7  1  0  0  0  0
 13  5  2  0  0  0  0
 16 14  2  0  0  0  0
 17  7  1  0  0  0  0
 17 21  1  0  0  0  0
 18 19  1  0  0  0  0
 19 25  1  0  0  0  0
 19 21  2  0  0  0  0
 20 22  1  0  0  0  0
 20 18  2  0  0  0  0
 21 23  1  0  0  0  0
 22 17  2  0  0  0  0
 25 24  3  0  0  0  0
M  END
>  <MODEL>
4

>  <REMARK>
 VINA RESULT:      -7.0      1.374      2.020
  Name = 
  2 active torsions:
  status: ('A' for Active; 'I' for Inactive)
    1  A    between atoms: C_4  and  N_10
    2  A    between atoms: C_13  and  C_20
                            x       y       z     vdW  Elec       q    Type
                         _______ _______ _______ _____ _____    ______ ____

>  <TORSDO>
F 2

$$$$
=
 OpenBabel11042413503D

 25 28  0  0  1  0  0  0  0  0999 V2000
  184.4410  178.1110  146.4290 C   0  0  0  0  0  3  0  0  0  0  0  0
  185.6570  177.8760  147.1060 C   0  0  0  0  0  0  0  0  0  0  0  0
  185.7580  178.2720  143.0770 C   0  0  1  0  0  3  0  0  0  0  0  0
  186.8580  177.7930  146.3730 C   0  0  0  0  0  0  0  0  0  0  0  0
  185.5850  178.1780  144.3780 C   0  0  0  0  0  0  0  0  0  0  0  0
  184.7120  178.5260  142.0930 C   0  0  0  0  0  3  0  0  0  0  0  0
  187.4690  177.0020  141.9120 N   0  0  0  0  0  0  0  0  0  0  0  0
  188.1630  177.5410  147.0540 C   0  0  0  0  0  1  0  0  0  0  0  0
  184.8300  178.2910  140.7860 C   0  0  0  0  0  3  0  0  0  0  0  0
  186.7840  177.9540  144.9880 C   0  0  0  0  0  0  0  0  0  0  0  0
  185.6550  177.7290  148.4880 O   0  0  0  0  0  1  0  0  0  0  0  0
  187.2220  178.1380  142.8080 C   0  0  2  0  0  3  0  0  0  0  0  0
  184.4200  178.2580  145.0710 N   0  0  0  0  0  0  0  0  0  0  0  0
  185.9540  177.6600  140.0620 C   0  0  0  0  0  3  0  0  0  0  0  0
  187.7690  177.9070  144.1550 N   0  0  0  0  0  2  0  0  0  0  0  0
  187.0660  177.0820  140.5360 C   0  0  0  0  0  3  0  0  0  0  0  0
  188.4600  176.0070  142.2180 C   0  0  0  0  0  0  0  0  0  0  0  0
  190.3430  174.0640  142.8570 C   0  0  0  0  0  3  0  0  0  0  0  0
  190.7540  175.3890  142.7050 C   0  0  0  0  0  0  0  0  0  0  0  0
  189.0350  173.7310  142.6980 N   0  0  0  0  0  0  0  0  0  0  0  0
  189.8050  176.3690  142.3880 C   0  0  0  0  0  0  0  0  0  0  0  0
  188.0960  174.6640  142.3880 C   0  0  0  0  0  3  0  0  0  0  0  0
  190.1840  177.6630  142.2280 F   0  0  0  0  0  0  0  0  0  0  0  0
  193.2560  176.0030  143.0140 N   0  0  0  0  0  0  0  0  0  0  0  0
  192.1400  175.7290  142.8760 C   0  0  0  0  0  0  0  0  0  0  0  0
  1  2  1  0  0  0  0
  2 11  1  0  0  0  0
  3  6  1  1  0  0  0
  3  5  1  0  0  0  0
  4  8  1  0  0  0  0
  4  2  2  0  0  0  0
  5 10  2  0  0  0  0
  5 13  1  0  0  0  0
  7 17  1  0  0  0  0
  7 12  1  0  0  0  0
  9  6  2  0  0  0  0
 10  4  1  0  0  0  0
 12  3  1  0  0  0  0
 12 15  1  1  0  0  0
 13  1  2  0  0  0  0
 14 16  2  0  0  0  0
 14  9  1  0  0  0  0
 15 10  1  0  0  0  0
 16  7  1  0  0  0  0
 17 21  2  0  0  0  0
 17 22  1  0  0  0  0
 19 18  2  0  0  0  0
 19 25  1  0  0  0  0
 20 18  1  0  0  0  0
 21 19  1  0  0  0  0
 22 20  2  0  0  0  0
 23 21  1  0  0  0  0
 25 24  3  0  0  0  0
M  END
>  <MODEL>
5

>  <REMARK>
 VINA RESULT:      -7.0      2.751      4.634
  Name = 
  2 active torsions:
  status: ('A' for Active; 'I' for Inactive)
    1  A    between atoms: C_4  and  N_10
    2  A    between atoms: C_13  and  C_20
                            x       y       z     vdW  Elec       q    Type
                         _______ _______ _______ _____ _____    ______ ____

>  <TORSDO>
F 2

$$$$
=
 OpenBabel11042413503D

 25 28  0  0  1  0  0  0  0  0999 V2000
  195.6730  174.9570  144.8430 C   0  0  0  0  0  3  0  0  0  0  0  0
  195.5710  175.3820  143.5020 C   0  0  0  0  0  0  0  0  0  0  0  0
  192.3150  175.7570  145.8800 C   0  0  1  0  0  3  0  0  0  0  0  0
  194.3570  175.9240  143.0330 C   0  0  0  0  0  0  0  0  0  0  0  0
  193.4440  175.5930  145.2260 C   0  0  0  0  0  0  0  0  0  0  0  0
  192.0870  175.4350  147.2850 C   0  0  0  0  0  3  0  0  0  0  0  0
  190.1550  175.5400  144.7930 N   0  0  0  0  0  0  0  0  0  0  0  0
  194.2090  176.3800  141.6190 C   0  0  0  0  0  1  0  0  0  0  0  0
  190.8850  175.2880  147.8410 C   0  0  0  0  0  3  0  0  0  0  0  0
  193.2980  176.0180  143.9380 C   0  0  0  0  0  0  0  0  0  0  0  0
  196.6680  175.2600  142.6580 O   0  0  0  0  0  1  0  0  0  0  0  0
  191.3400  176.3930  144.9420 C   0  0  2  0  0  3  0  0  0  0  0  0
  194.6070  175.0670  145.6900 N   0  0  0  0  0  0  0  0  0  0  0  0
  189.5590  175.3200  147.1900 C   0  0  0  0  0  3  0  0  0  0  0  0
  192.1170  176.4800  143.6950 N   0  0  0  0  0  2  0  0  0  0  0  0
  189.2400  175.3970  145.8900 C   0  0  0  0  0  3  0  0  0  0  0  0
  189.6370  175.1950  143.4970 C   0  0  0  0  0  0  0  0  0  0  0  0
  188.6920  174.5180  140.9710 C   0  0  0  0  0  3  0  0  0  0  0  0
  188.3270  175.7430  141.5310 C   0  0  0  0  0  0  0  0  0  0  0  0
  189.5040  173.6690  141.6550 N   0  0  0  0  0  0  0  0  0  0  0  0
  188.8070  176.0870  142.8010 C   0  0  0  0  0  0  0  0  0  0  0  0
  189.9800  173.9800  142.8900 C   0  0  0  0  0  3  0  0  0  0  0  0
  188.4580  177.2720  143.3660 F   0  0  0  0  0  0  0  0  0  0  0  0
  186.7760  177.3490  140.2080 N   0  0  0  0  0  0  0  0  0  0  0  0
  187.4680  176.6330  140.7980 C   0  0  0  0  0  0  0  0  0  0  0  0
  1 13  1  0  0  0  0
  2  1  2  0  0  0  0
  3  6  1  1  0  0  0
  4  2  1  0  0  0  0
  4 10  2  0  0  0  0
  5 13  2  0  0  0  0
  5  3  1  0  0  0  0
  6  9  2  0  0  0  0
  7 12  1  0  0  0  0
  7 16  1  0  0  0  0
  8  4  1  0  0  0  0
 10  5  1  0  0  0  0
 11  2  1  0  0  0  0
 12 15  1  6  0  0  0
 12  3  1  0  0  0  0
 14  9  1  0  0  0  0
 15 10  1  0  0  0  0
 16 14  2  0  0  0  0
 17  7  1  0  0  0  0
 18 19  2  0  0  0  0
 18 20  1  0  0  0  0
 19 21  1  0  0  0  0
 20 22  2  0  0  0  0
 21 23  1  0  0  0  0
 21 17  2  0  0  0  0
 22 17  1  0  0  0  0
 24 25  3  0  0  0  0
 25 19  1  0  0  0  0
M  END
>  <MODEL>
6

>  <REMARK>
 VINA RESULT:      -6.4      3.690      6.904
  Name = 
  2 active torsions:
  status: ('A' for Active; 'I' for Inactive)
    1  A    between atoms: C_4  and  N_10
    2  A    between atoms: C_13  and  C_20
                            x       y       z     vdW  Elec       q    Type
                         _______ _______ _______ _____ _____    ______ ____

>  <TORSDO>
F 2

$$$$
=
 OpenBabel11042413503D

 25 28  0  0  1  0  0  0  0  0999 V2000
  193.1550  176.4150  146.6540 C   0  0  0  0  0  3  0  0  0  0  0  0
  193.7980  176.0680  145.4470 C   0  0  0  0  0  0  0  0  0  0  0  0
  189.8800  177.0830  145.3040 C   0  0  1  0  0  3  0  0  0  0  0  0
  193.0710  176.0910  144.2390 C   0  0  0  0  0  0  0  0  0  0  0  0
  191.1490  176.7900  145.4910 C   0  0  0  0  0  0  0  0  0  0  0  0
  188.9380  177.4960  146.3390 C   0  0  0  0  0  3  0  0  0  0  0  0
  188.5460  175.9970  143.5900 N   0  0  0  0  0  0  0  0  0  0  0  0
  193.7160  175.7260  142.9430 C   0  0  0  0  0  1  0  0  0  0  0  0
  187.6120  177.4650  146.2090 C   0  0  0  0  0  3  0  0  0  0  0  0
  191.7270  176.4650  144.2980 C   0  0  0  0  0  0  0  0  0  0  0  0
  195.1400  175.7080  145.4630 O   0  0  0  0  0  1  0  0  0  0  0  0
  189.6060  176.9820  143.8380 C   0  0  2  0  0  3  0  0  0  0  0  0
  191.8360  176.7700  146.6620 N   0  0  0  0  0  0  0  0  0  0  0  0
  186.8080  176.9450  145.0830 C   0  0  0  0  0  3  0  0  0  0  0  0
  190.9060  176.5410  143.3060 N   0  0  0  0  0  2  0  0  0  0  0  0
  187.1970  176.2920  143.9790 C   0  0  0  0  0  3  0  0  0  0  0  0
  188.7030  174.9580  142.6090 C   0  0  0  0  0  0  0  0  0  0  0  0
  189.0630  172.9440  140.7260 C   0  0  0  0  0  3  0  0  0  0  0  0
  188.5390  174.1720  140.3200 C   0  0  0  0  0  0  0  0  0  0  0  0
  189.3960  172.7400  142.0280 N   0  0  0  0  0  0  0  0  0  0  0  0
  188.3630  175.1890  141.2670 C   0  0  0  0  0  0  0  0  0  0  0  0
  189.2310  173.7100  142.9660 C   0  0  0  0  0  3  0  0  0  0  0  0
  187.8480  176.3890  140.8940 F   0  0  0  0  0  0  0  0  0  0  0  0
  187.9110  174.5410  137.8300 N   0  0  0  0  0  0  0  0  0  0  0  0
  188.1920  174.3760  138.9400 C   0  0  0  0  0  0  0  0  0  0  0  0
  1 13  1  0  0  0  0
  2 11  1  0  0  0  0
  2  1  2  0  0  0  0
  3  5  1  0  0  0  0
  3  6  1  6  0  0  0
  4 10  2  0  0  0  0
  4  2  1  0  0  0  0
  5 13  2  0  0  0  0
  7 12  1  0  0  0  0
  7 16  1  0  0  0  0
  8  4  1  0  0  0  0
  9  6  2  0  0  0  0
 10  5  1  0  0  0  0
 12 15  1  6  0  0  0
 12  3  1  0  0  0  0
 14  9  1  0  0  0  0
 15 10  1  0  0  0  0
 16 14  2  0  0  0  0
 17 22  1  0  0  0  0
 17  7  1  0  0  0  0
 18 20  1  0  0  0  0
 19 18  2  0  0  0  0
 19 21  1  0  0  0  0
 20 22  2  0  0  0  0
 21 17  2  0  0  0  0
 23 21  1  0  0  0  0
 24 25  3  0  0  0  0
 25 19  1  0  0  0  0
M  END
>  <MODEL>
7

>  <REMARK>
 VINA RESULT:      -6.3      3.299      6.128
  Name = 
  2 active torsions:
  status: ('A' for Active; 'I' for Inactive)
    1  A    between atoms: C_4  and  N_10
    2  A    between atoms: C_13  and  C_20
                            x       y       z     vdW  Elec       q    Type
                         _______ _______ _______ _____ _____    ______ ____

>  <TORSDO>
F 2

$$$$
=
 OpenBabel11042413503D

 25 28  0  0  1  0  0  0  0  0999 V2000
  187.2130  177.8620  142.2890 C   0  0  0  0  0  3  0  0  0  0  0  0
  187.5340  176.8080  141.4080 C   0  0  0  0  0  0  0  0  0  0  0  0
  188.9680  176.6430  145.1910 C   0  0  1  0  0  3  0  0  0  0  0  0
  188.3290  175.7360  141.8640 C   0  0  0  0  0  0  0  0  0  0  0  0
  188.4280  176.8140  144.0040 C   0  0  0  0  0  0  0  0  0  0  0  0
  188.8200  177.5380  146.3340 C   0  0  0  0  0  3  0  0  0  0  0  0
  191.1140  175.5460  145.4850 N   0  0  0  0  0  0  0  0  0  0  0  0
  188.6930  174.6050  140.9600 C   0  0  0  0  0  1  0  0  0  0  0  0
  189.6180  177.5410  147.4010 C   0  0  0  0  0  3  0  0  0  0  0  0
  188.7640  175.7710  143.1900 C   0  0  0  0  0  0  0  0  0  0  0  0
  187.0630  176.8380  140.1010 O   0  0  0  0  0  1  0  0  0  0  0  0
  189.6950  175.3370  145.1710 C   0  0  2  0  0  3  0  0  0  0  0  0
  187.6660  177.8530  143.5770 N   0  0  0  0  0  0  0  0  0  0  0  0
  190.8410  176.7450  147.6380 C   0  0  0  0  0  3  0  0  0  0  0  0
  189.4970  174.8900  143.7830 N   0  0  0  0  0  2  0  0  0  0  0  0
  191.5000  175.9160  146.8160 C   0  0  0  0  0  3  0  0  0  0  0  0
  192.1540  174.9880  144.6630 C   0  0  0  0  0  0  0  0  0  0  0  0
  194.1900  173.8890  143.1220 C   0  0  0  0  0  3  0  0  0  0  0  0
  193.8750  175.2400  142.9730 C   0  0  0  0  0  0  0  0  0  0  0  0
  193.5100  173.1230  144.0150 N   0  0  0  0  0  0  0  0  0  0  0  0
  192.8520  175.7960  143.7520 C   0  0  0  0  0  0  0  0  0  0  0  0
  192.5120  173.6380  144.7810 C   0  0  0  0  0  3  0  0  0  0  0  0
  192.5250  177.1070  143.6170 F   0  0  0  0  0  0  0  0  0  0  0  0
  195.1880  176.6850  141.2630 N   0  0  0  0  0  0  0  0  0  0  0  0
  194.6020  176.0410  142.0260 C   0  0  0  0  0  0  0  0  0  0  0  0
  1 13  1  0  0  0  0
  2  4  1  0  0  0  0
  2  1  2  0  0  0  0
  3  6  1  1  0  0  0
  4 10  2  0  0  0  0
  5  3  1  0  0  0  0
  6  9  2  0  0  0  0
  7 16  1  0  0  0  0
  8  4  1  0  0  0  0
  9 14  1  0  0  0  0
 10 15  1  0  0  0  0
 10  5  1  0  0  0  0
 11  2  1  0  0  0  0
 12 15  1  6  0  0  0
 12  3  1  0  0  0  0
 12  7  1  0  0  0  0
 13  5  2  0  0  0  0
 16 14  2  0  0  0  0
 17 22  1  0  0  0  0
 17  7  1  0  0  0  0
 18 20  1  0  0  0  0
 19 18  2  0  0  0  0
 19 21  1  0  0  0  0
 20 22  2  0  0  0  0
 21 17  2  0  0  0  0
 23 21  1  0  0  0  0
 24 25  3  0  0  0  0
 25 19  1  0  0  0  0
M  END
>  <MODEL>
8

>  <REMARK>
 VINA RESULT:      -6.2      2.591      4.003
  Name = 
  2 active torsions:
  status: ('A' for Active; 'I' for Inactive)
    1  A    between atoms: C_4  and  N_10
    2  A    between atoms: C_13  and  C_20
                            x       y       z     vdW  Elec       q    Type
                         _______ _______ _______ _____ _____    ______ ____

>  <TORSDO>
F 2

$$$$
=
 OpenBabel11042413503D

 25 28  0  0  1  0  0  0  0  0999 V2000
  192.8370  170.8550  143.3080 C   0  0  0  0  0  3  0  0  0  0  0  0
  191.5300  171.0240  142.8030 C   0  0  0  0  0  0  0  0  0  0  0  0
  193.3270  174.1980  144.5640 C   0  0  1  0  0  3  0  0  0  0  0  0
  190.8960  172.2780  142.9180 C   0  0  0  0  0  0  0  0  0  0  0  0
  192.8690  173.0970  144.0070 C   0  0  0  0  0  0  0  0  0  0  0  0
  194.6450  174.3660  145.1670 C   0  0  0  0  0  3  0  0  0  0  0  0
  191.8680  175.7590  145.7180 N   0  0  0  0  0  0  0  0  0  0  0  0
  189.5120  172.4950  142.4000 C   0  0  0  0  0  1  0  0  0  0  0  0
  194.9720  175.3470  146.0070 C   0  0  0  0  0  3  0  0  0  0  0  0
  191.6070  173.3100  143.5340 C   0  0  0  0  0  0  0  0  0  0  0  0
  190.8830  169.9530  142.1990 O   0  0  0  0  0  1  0  0  0  0  0  0
  192.2790  175.2520  144.4030 C   0  0  2  0  0  3  0  0  0  0  0  0
  193.4900  171.8940  143.9060 N   0  0  0  0  0  0  0  0  0  0  0  0
  194.1040  176.3970  146.5800 C   0  0  0  0  0  3  0  0  0  0  0  0
  191.1950  174.5170  143.7320 N   0  0  0  0  0  2  0  0  0  0  0  0
  192.7770  176.5620  146.4860 C   0  0  0  0  0  3  0  0  0  0  0  0
  190.4810  175.8610  146.0830 C   0  0  0  0  0  0  0  0  0  0  0  0
  187.7930  175.9990  146.7780 C   0  0  0  0  0  3  0  0  0  0  0  0
  188.2910  176.8640  145.8020 C   0  0  0  0  0  0  0  0  0  0  0  0
  188.6150  175.0980  147.3760 N   0  0  0  0  0  0  0  0  0  0  0  0
  189.6450  176.7910  145.4480 C   0  0  0  0  0  0  0  0  0  0  0  0
  189.9320  175.0100  147.0510 C   0  0  0  0  0  3  0  0  0  0  0  0
  190.1520  177.6290  144.5070 F   0  0  0  0  0  0  0  0  0  0  0  0
  186.7040  178.5770  144.6710 N   0  0  0  0  0  0  0  0  0  0  0  0
  187.4120  177.8130  145.1750 C   0  0  0  0  0  0  0  0  0  0  0  0
  1 13  1  0  0  0  0
  2  4  1  0  0  0  0
  2  1  2  0  0  0  0
  3  6  1  6  0  0  0
  4 10  2  0  0  0  0
  5  3  1  0  0  0  0
  6  9  2  0  0  0  0
  7 17  1  0  0  0  0
  7 16  1  0  0  0  0
  8  4  1  0  0  0  0
  9 14  1  0  0  0  0
 10 15  1  0  0  0  0
 10  5  1  0  0  0  0
 11  2  1  0  0  0  0
 12 15  1  1  0  0  0
 12  3  1  0  0  0  0
 12  7  1  0  0  0  0
 13  5  2  0  0  0  0
 16 14  2  0  0  0  0
 17 22  1  0  0  0  0
 18 20  1  0  0  0  0
 19 18  2  0  0  0  0
 21 19  1  0  0  0  0
 21 17  2  0  0  0  0
 22 20  2  0  0  0  0
 23 21  1  0  0  0  0
 24 25  3  0  0  0  0
 25 19  1  0  0  0  0
M  END
>  <MODEL>
9

>  <REMARK>
 VINA RESULT:      -6.1      3.705      6.847
  Name = 
  2 active torsions:
  status: ('A' for Active; 'I' for Inactive)
    1  A    between atoms: C_4  and  N_10
    2  A    between atoms: C_13  and  C_20
                            x       y       z     vdW  Elec       q    Type
                         _______ _______ _______ _____ _____    ______ ____

>  <TORSDO>
F 2

$$$$
