=
 OpenBabel11042416113D

 26 27  0  0  1  0  0  0  0  0999 V2000
  189.3800  176.9220  145.6570 C   0  0  1  0  0  3  0  0  0  0  0  0
  190.8090  176.4950  145.8230 C   0  0  0  0  0  0  0  0  0  0  0  0
  191.1760  175.5140  146.7570 C   0  0  0  0  0  3  0  0  0  0  0  0
  192.5160  175.1380  146.8890 C   0  0  0  0  0  3  0  0  0  0  0  0
  191.7920  177.0940  145.0260 C   0  0  0  0  0  3  0  0  0  0  0  0
  193.1320  176.7170  145.1610 C   0  0  0  0  0  3  0  0  0  0  0  0
  193.4940  175.7400  146.0930 C   0  0  0  0  0  0  0  0  0  0  0  0
  194.8230  175.3660  146.2260 O   0  0  0  0  0  1  0  0  0  0  0  0
  188.9320  176.8610  144.2290 C   0  0  0  0  0  0  0  0  0  0  0  0
  187.1560  175.7630  141.9850 C   0  0  0  0  0  3  0  0  0  0  0  0
  187.9470  178.1060  142.2910 C   0  0  0  0  0  3  0  0  0  0  0  0
  187.3960  177.1460  141.5260 C   0  0  0  0  0  0  0  0  0  0  0  0
  187.9130  175.0850  142.8480 C   0  0  0  0  0  3  0  0  0  0  0  0
  188.4480  177.9730  143.6750 C   0  0  0  0  0  3  0  0  0  0  0  0
  189.1800  175.6280  143.4170 C   0  0  0  0  0  2  0  0  0  0  0  0
  186.9500  177.4700  140.2440 O   0  0  0  0  0  0  0  0  0  0  0  0
  185.6810  177.8380  140.0120 O   0  0  0  0  0  1  0  0  0  0  0  0
  188.4280  176.1660  146.5830 C   0  0  0  0  0  2  0  0  0  0  0  0
  186.2010  177.3670  146.7100 C   0  0  0  0  0  0  0  0  0  0  0  0
  186.6480  178.1910  147.5510 O   0  0  0  0  0  0  0  0  0  0  0  0
  187.0460  176.3540  146.1610 N   0  0  0  0  0  2  0  0  0  0  0  0
  184.7690  177.4250  146.3120 C   0  0  0  0  0  2  0  0  0  0  0  0
  184.4150  178.8370  145.8860 C   0  0  0  0  0  2  0  0  0  0  0  0
  185.5340  180.0630  144.1790 O   0  0  0  0  0  0  0  0  0  0  0  0
  184.4650  178.1270  143.4690 N   0  0  0  0  0  1  0  0  0  0  0  0
  184.8320  179.0620  144.4760 C   0  0  0  0  0  0  0  0  0  0  0  0
  1  2  1  0  0  0  0
  1 18  1  1  0  0  0
  2  3  1  0  0  0  0
  3  4  2  0  0  0  0
  5  6  1  0  0  0  0
  5  2  2  0  0  0  0
  6  7  2  0  0  0  0
  7  8  1  0  0  0  0
  7  4  1  0  0  0  0
  9  1  1  0  0  0  0
 10 13  2  0  0  0  0
 11 14  1  0  0  0  0
 12 10  1  0  0  0  0
 12 11  2  0  0  0  0
 13 15  1  0  0  0  0
 14  9  2  0  0  0  0
 15  9  1  0  0  0  0
 16 12  1  0  0  0  0
 17 16  1  0  0  0  0
 19 20  2  0  0  0  0
 21 18  1  0  0  0  0
 21 19  1  0  0  0  0
 22 19  1  0  0  0  0
 23 22  1  0  0  0  0
 24 26  2  0  0  0  0
 25 26  1  0  0  0  0
 26 23  1  0  0  0  0
M  END
>  <MODEL>
1

>  <REMARK>
 VINA RESULT:      -6.8      0.000      0.000
  Name = 
  8 active torsions:
  status: ('A' for Active; 'I' for Inactive)
    1  A    between atoms: C_1  and  C_3
    2  A    between atoms: C_2  and  C_5
    3  A    between atoms: C_3  and  C_10
    4  A    between atoms: C_3  and  C_11
    5  A    between atoms: O_4  and  C_19
    6  A    between atoms: C_5  and  C_20
    7  A    between atoms: C_11  and  N_24
    8  A    between atoms: C_20  and  C_25
                            x       y       z     vdW  Elec       q    Type
                         _______ _______ _______ _____ _____    ______ ____

>  <TORSDO>
F 8

$$$$
=
 OpenBabel11042416113D

 26 27  0  0  1  0  0  0  0  0999 V2000
  188.3420  177.7590  145.3140 C   0  0  1  0  0  3  0  0  0  0  0  0
  189.1590  176.9540  144.3460 C   0  0  0  0  0  0  0  0  0  0  0  0
  190.3050  177.4860  143.7360 C   0  0  0  0  0  3  0  0  0  0  0  0
  191.0440  176.7130  142.8360 C   0  0  0  0  0  3  0  0  0  0  0  0
  188.7610  175.6450  144.0480 C   0  0  0  0  0  3  0  0  0  0  0  0
  189.5010  174.8740  143.1470 C   0  0  0  0  0  3  0  0  0  0  0  0
  190.6420  175.4070  142.5410 C   0  0  0  0  0  0  0  0  0  0  0  0
  191.3760  174.6410  141.6470 O   0  0  0  0  0  1  0  0  0  0  0  0
  186.9030  177.8450  144.9070 C   0  0  0  0  0  0  0  0  0  0  0  0
  184.0040  178.7380  145.3510 C   0  0  0  0  0  3  0  0  0  0  0  0
  185.2580  178.6500  143.1980 C   0  0  0  0  0  3  0  0  0  0  0  0
  184.1010  178.7560  143.8760 C   0  0  0  0  0  0  0  0  0  0  0  0
  184.7930  178.0490  146.1750 C   0  0  0  0  0  3  0  0  0  0  0  0
  186.6110  178.4550  143.7580 C   0  0  0  0  0  3  0  0  0  0  0  0
  185.8560  177.1200  145.6940 C   0  0  0  0  0  2  0  0  0  0  0  0
  182.9150  178.9700  143.1710 O   0  0  0  0  0  0  0  0  0  0  0  0
  182.6600  178.3390  142.0160 O   0  0  0  0  0  1  0  0  0  0  0  0
  188.4960  177.2790  146.7570 C   0  0  0  0  0  2  0  0  0  0  0  0
  190.3020  175.6100  147.3650 C   0  0  0  0  0  0  0  0  0  0  0  0
  189.4770  174.6580  147.3620 O   0  0  0  0  0  0  0  0  0  0  0  0
  189.8840  176.9370  147.0370 N   0  0  0  0  0  2  0  0  0  0  0  0
  191.7160  175.3590  147.7500 C   0  0  0  0  0  2  0  0  0  0  0  0
  192.4830  174.8240  146.5550 C   0  0  0  0  0  2  0  0  0  0  0  0
  193.7860  175.8510  144.8470 O   0  0  0  0  0  0  0  0  0  0  0  0
  193.8910  176.8810  146.9250 N   0  0  0  0  0  1  0  0  0  0  0  0
  193.4250  175.8600  146.0520 C   0  0  0  0  0  0  0  0  0  0  0  0
  1 18  1  1  0  0  0
  2  1  1  0  0  0  0
  3  2  2  0  0  0  0
  4  3  1  0  0  0  0
  5  2  1  0  0  0  0
  6  5  2  0  0  0  0
  7  4  2  0  0  0  0
  7  6  1  0  0  0  0
  8  7  1  0  0  0  0
  9  1  1  0  0  0  0
  9 15  1  0  0  0  0
 10 13  2  0  0  0  0
 11 14  1  0  0  0  0
 11 12  2  0  0  0  0
 12 10  1  0  0  0  0
 14  9  2  0  0  0  0
 15 13  1  0  0  0  0
 16 12  1  0  0  0  0
 17 16  1  0  0  0  0
 18 21  1  0  0  0  0
 19 22  1  0  0  0  0
 20 19  2  0  0  0  0
 21 19  1  0  0  0  0
 23 22  1  0  0  0  0
 24 26  2  0  0  0  0
 26 23  1  0  0  0  0
 26 25  1  0  0  0  0
M  END
>  <MODEL>
2

>  <REMARK>
 VINA RESULT:      -6.6      2.503      5.360
  Name = 
  8 active torsions:
  status: ('A' for Active; 'I' for Inactive)
    1  A    between atoms: C_1  and  C_3
    2  A    between atoms: C_2  and  C_5
    3  A    between atoms: C_3  and  C_10
    4  A    between atoms: C_3  and  C_11
    5  A    between atoms: O_4  and  C_19
    6  A    between atoms: C_5  and  C_20
    7  A    between atoms: C_11  and  N_24
    8  A    between atoms: C_20  and  C_25
                            x       y       z     vdW  Elec       q    Type
                         _______ _______ _______ _____ _____    ______ ____

>  <TORSDO>
F 8

$$$$
=
 OpenBabel11042416113D

 26 27  0  0  1  0  0  0  0  0999 V2000
  188.7120  175.6710  145.2580 C   0  0  1  0  0  3  0  0  0  0  0  0
  188.2790  176.2810  143.9570 C   0  0  0  0  0  0  0  0  0  0  0  0
  188.6350  177.5940  143.6090 C   0  0  0  0  0  3  0  0  0  0  0  0
  188.2150  178.1350  142.3910 C   0  0  0  0  0  3  0  0  0  0  0  0
  187.5010  175.5190  143.0770 C   0  0  0  0  0  3  0  0  0  0  0  0
  187.0810  176.0630  141.8590 C   0  0  0  0  0  3  0  0  0  0  0  0
  187.4370  177.3710  141.5170 C   0  0  0  0  0  0  0  0  0  0  0  0
  187.0210  177.9090  140.3080 O   0  0  0  0  0  1  0  0  0  0  0  0
  190.2030  175.6230  145.3920 C   0  0  0  0  0  0  0  0  0  0  0  0
  193.0340  176.4480  144.5530 C   0  0  0  0  0  3  0  0  0  0  0  0
  192.1860  176.0500  146.8620 C   0  0  0  0  0  3  0  0  0  0  0  0
  193.2060  176.2190  146.0020 C   0  0  0  0  0  0  0  0  0  0  0  0
  192.0590  175.9460  143.7950 C   0  0  0  0  0  3  0  0  0  0  0  0
  190.7430  176.0140  146.5470 C   0  0  0  0  0  3  0  0  0  0  0  0
  191.0330  174.9960  144.3150 C   0  0  0  0  0  2  0  0  0  0  0  0
  194.5120  176.2560  146.4930 O   0  0  0  0  0  0  0  0  0  0  0  0
  195.3900  175.2760  146.2340 O   0  0  0  0  0  1  0  0  0  0  0  0
  188.0550  176.3360  146.4670 C   0  0  0  0  0  2  0  0  0  0  0  0
  185.9100  177.6560  146.7260 C   0  0  0  0  0  0  0  0  0  0  0  0
  186.5080  178.5850  147.3330 O   0  0  0  0  0  0  0  0  0  0  0  0
  186.6290  176.5230  146.2370 N   0  0  0  0  0  2  0  0  0  0  0  0
  184.4350  177.7230  146.5500 C   0  0  0  0  0  2  0  0  0  0  0  0
  184.0720  178.9530  145.7390 C   0  0  0  0  0  2  0  0  0  0  0  0
  184.4480  177.9100  143.6320 O   0  0  0  0  0  0  0  0  0  0  0  0
  185.5680  179.9190  143.9550 N   0  0  0  0  0  1  0  0  0  0  0  0
  184.7030  178.8790  144.3940 C   0  0  0  0  0  0  0  0  0  0  0  0
  1  9  1  0  0  0  0
  1 18  1  1  0  0  0
  2  1  1  0  0  0  0
  3  2  1  0  0  0  0
  4  3  2  0  0  0  0
  5  2  2  0  0  0  0
  6  5  1  0  0  0  0
  7  6  2  0  0  0  0
  7  4  1  0  0  0  0
  8  7  1  0  0  0  0
  9 14  2  0  0  0  0
 10 12  1  0  0  0  0
 12 16  1  0  0  0  0
 12 11  2  0  0  0  0
 13 15  1  0  0  0  0
 13 10  2  0  0  0  0
 14 11  1  0  0  0  0
 15  9  1  0  0  0  0
 17 16  1  0  0  0  0
 19 20  2  0  0  0  0
 21 18  1  0  0  0  0
 21 19  1  0  0  0  0
 22 19  1  0  0  0  0
 23 22  1  0  0  0  0
 24 26  2  0  0  0  0
 25 26  1  0  0  0  0
 26 23  1  0  0  0  0
M  END
>  <MODEL>
3

>  <REMARK>
 VINA RESULT:      -6.6      1.043      5.370
  Name = 
  8 active torsions:
  status: ('A' for Active; 'I' for Inactive)
    1  A    between atoms: C_1  and  C_3
    2  A    between atoms: C_2  and  C_5
    3  A    between atoms: C_3  and  C_10
    4  A    between atoms: C_3  and  C_11
    5  A    between atoms: O_4  and  C_19
    6  A    between atoms: C_5  and  C_20
    7  A    between atoms: C_11  and  N_24
    8  A    between atoms: C_20  and  C_25
                            x       y       z     vdW  Elec       q    Type
                         _______ _______ _______ _____ _____    ______ ____

>  <TORSDO>
F 8

$$$$
=
 OpenBabel11042416113D

 26 27  0  0  1  0  0  0  0  0999 V2000
  187.9330  176.0350  143.5610 C   0  0  1  0  0  3  0  0  0  0  0  0
  188.5080  174.9360  142.7160 C   0  0  0  0  0  0  0  0  0  0  0  0
  189.0690  173.7860  143.2930 C   0  0  0  0  0  3  0  0  0  0  0  0
  189.5980  172.7790  142.4800 C   0  0  0  0  0  3  0  0  0  0  0  0
  188.4830  175.0680  141.3230 C   0  0  0  0  0  3  0  0  0  0  0  0
  189.0140  174.0610  140.5110 C   0  0  0  0  0  3  0  0  0  0  0  0
  189.5720  172.9170  141.0890 C   0  0  0  0  0  0  0  0  0  0  0  0
  190.0980  171.9180  140.2840 O   0  0  0  0  0  1  0  0  0  0  0  0
  188.7240  176.2580  144.8140 C   0  0  0  0  0  0  0  0  0  0  0  0
  190.0930  175.2700  147.3730 C   0  0  0  0  0  3  0  0  0  0  0  0
  190.8810  177.0470  145.8130 C   0  0  0  0  0  3  0  0  0  0  0  0
  190.9480  176.4160  146.9990 C   0  0  0  0  0  0  0  0  0  0  0  0
  188.8340  175.0770  146.9800 C   0  0  0  0  0  3  0  0  0  0  0  0
  189.9500  176.7700  144.7000 C   0  0  0  0  0  3  0  0  0  0  0  0
  188.0810  176.0620  146.1520 C   0  0  0  0  0  2  0  0  0  0  0  0
  191.9230  176.8000  147.9220 O   0  0  0  0  0  0  0  0  0  0  0  0
  191.6170  177.5250  149.0080 O   0  0  0  0  0  1  0  0  0  0  0  0
  187.7300  177.3330  142.7810 C   0  0  0  0  0  2  0  0  0  0  0  0
  185.5890  178.4080  143.6040 C   0  0  0  0  0  0  0  0  0  0  0  0
  184.8830  177.5960  142.9500 O   0  0  0  0  0  0  0  0  0  0  0  0
  187.0140  178.3100  143.5920 N   0  0  0  0  0  2  0  0  0  0  0  0
  184.9350  179.5040  144.3670 C   0  0  0  0  0  2  0  0  0  0  0  0
  183.9880  178.9150  145.3960 C   0  0  0  0  0  2  0  0  0  0  0  0
  184.6760  176.9880  146.6130 O   0  0  0  0  0  0  0  0  0  0  0  0
  185.6270  178.9890  147.3080 N   0  0  0  0  0  1  0  0  0  0  0  0
  184.7620  178.2350  146.4680 C   0  0  0  0  0  0  0  0  0  0  0  0
  1 18  1  6  0  0  0
  1  9  1  0  0  0  0
  2  3  1  0  0  0  0
  2  1  1  0  0  0  0
  4  3  2  0  0  0  0
  5  2  2  0  0  0  0
  6  7  2  0  0  0  0
  6  5  1  0  0  0  0
  7  4  1  0  0  0  0
  8  7  1  0  0  0  0
  9 15  1  0  0  0  0
 11 12  2  0  0  0  0
 12 10  1  0  0  0  0
 12 16  1  0  0  0  0
 13 10  2  0  0  0  0
 14  9  2  0  0  0  0
 14 11  1  0  0  0  0
 15 13  1  0  0  0  0
 16 17  1  0  0  0  0
 18 21  1  0  0  0  0
 19 22  1  0  0  0  0
 20 19  2  0  0  0  0
 21 19  1  0  0  0  0
 22 23  1  0  0  0  0
 23 26  1  0  0  0  0
 26 24  2  0  0  0  0
 26 25  1  0  0  0  0
M  END
>  <MODEL>
4

>  <REMARK>
 VINA RESULT:      -6.6      2.424      5.242
  Name = 
  8 active torsions:
  status: ('A' for Active; 'I' for Inactive)
    1  A    between atoms: C_1  and  C_3
    2  A    between atoms: C_2  and  C_5
    3  A    between atoms: C_3  and  C_10
    4  A    between atoms: C_3  and  C_11
    5  A    between atoms: O_4  and  C_19
    6  A    between atoms: C_5  and  C_20
    7  A    between atoms: C_11  and  N_24
    8  A    between atoms: C_20  and  C_25
                            x       y       z     vdW  Elec       q    Type
                         _______ _______ _______ _____ _____    ______ ____

>  <TORSDO>
F 8

$$$$
=
 OpenBabel11042416113D

 26 27  0  0  1  0  0  0  0  0999 V2000
  189.9730  175.9980  145.3810 C   0  0  1  0  0  3  0  0  0  0  0  0
  189.9340  174.6960  144.6330 C   0  0  0  0  0  0  0  0  0  0  0  0
  189.8210  173.4700  145.3060 C   0  0  0  0  0  3  0  0  0  0  0  0
  189.7890  172.2740  144.5830 C   0  0  0  0  0  3  0  0  0  0  0  0
  190.0150  174.7140  143.2360 C   0  0  0  0  0  3  0  0  0  0  0  0
  189.9840  173.5170  142.5150 C   0  0  0  0  0  3  0  0  0  0  0  0
  189.8720  172.2980  143.1870 C   0  0  0  0  0  0  0  0  0  0  0  0
  189.8410  171.1100  142.4710 O   0  0  0  0  0  1  0  0  0  0  0  0
  188.6140  176.6130  145.5180 C   0  0  0  0  0  0  0  0  0  0  0  0
  185.7290  177.0620  144.5820 C   0  0  0  0  0  3  0  0  0  0  0  0
  186.5530  176.8380  146.9240 C   0  0  0  0  0  3  0  0  0  0  0  0
  185.5900  177.1800  146.0490 C   0  0  0  0  0  0  0  0  0  0  0  0
  186.8580  177.2220  143.8920 C   0  0  0  0  0  3  0  0  0  0  0  0
  187.9090  176.3400  146.6170 C   0  0  0  0  0  3  0  0  0  0  0  0
  188.1460  177.6300  144.5230 C   0  0  0  0  0  2  0  0  0  0  0  0
  184.3500  177.6040  146.5300 O   0  0  0  0  0  0  0  0  0  0  0  0
  183.7510  178.7050  146.0550 O   0  0  0  0  0  1  0  0  0  0  0  0
  190.6810  175.8810  146.7300 C   0  0  0  0  0  2  0  0  0  0  0  0
  193.1700  175.5250  146.4200 C   0  0  0  0  0  0  0  0  0  0  0  0
  193.0090  174.2880  146.2370 O   0  0  0  0  0  0  0  0  0  0  0  0
  192.0470  176.3810  146.6350 N   0  0  0  0  0  2  0  0  0  0  0  0
  194.5430  176.0930  146.4490 C   0  0  0  0  0  2  0  0  0  0  0  0
  194.8150  176.8380  145.1550 C   0  0  0  0  0  2  0  0  0  0  0  0
  196.2270  174.9710  144.7190 O   0  0  0  0  0  0  0  0  0  0  0  0
  196.3470  176.6890  143.1600 N   0  0  0  0  0  1  0  0  0  0  0  0
  195.8370  176.1110  144.3550 C   0  0  0  0  0  0  0  0  0  0  0  0
  1  9  1  0  0  0  0
  1 18  1  1  0  0  0
  2  3  1  0  0  0  0
  2  1  1  0  0  0  0
  4  3  2  0  0  0  0
  5  2  2  0  0  0  0
  6  7  2  0  0  0  0
  6  5  1  0  0  0  0
  7  4  1  0  0  0  0
  8  7  1  0  0  0  0
  9 14  2  0  0  0  0
 10 12  1  0  0  0  0
 12 16  1  0  0  0  0
 12 11  2  0  0  0  0
 13 15  1  0  0  0  0
 13 10  2  0  0  0  0
 14 11  1  0  0  0  0
 15  9  1  0  0  0  0
 17 16  1  0  0  0  0
 19 22  1  0  0  0  0
 19 21  1  0  0  0  0
 20 19  2  0  0  0  0
 21 18  1  0  0  0  0
 23 22  1  0  0  0  0
 25 26  1  0  0  0  0
 26 24  2  0  0  0  0
 26 23  1  0  0  0  0
M  END
>  <MODEL>
5

>  <REMARK>
 VINA RESULT:      -6.5      3.201      6.510
  Name = 
  8 active torsions:
  status: ('A' for Active; 'I' for Inactive)
    1  A    between atoms: C_1  and  C_3
    2  A    between atoms: C_2  and  C_5
    3  A    between atoms: C_3  and  C_10
    4  A    between atoms: C_3  and  C_11
    5  A    between atoms: O_4  and  C_19
    6  A    between atoms: C_5  and  C_20
    7  A    between atoms: C_11  and  N_24
    8  A    between atoms: C_20  and  C_25
                            x       y       z     vdW  Elec       q    Type
                         _______ _______ _______ _____ _____    ______ ____

>  <TORSDO>
F 8

$$$$
=
 OpenBabel11042416113D

 26 27  0  0  1  0  0  0  0  0999 V2000
  187.9180  177.3800  143.4270 C   0  0  1  0  0  3  0  0  0  0  0  0
  186.9570  177.7010  144.5350 C   0  0  0  0  0  0  0  0  0  0  0  0
  186.3210  178.9490  144.6140 C   0  0  0  0  0  3  0  0  0  0  0  0
  185.4330  179.2200  145.6590 C   0  0  0  0  0  3  0  0  0  0  0  0
  186.6970  176.7290  145.5090 C   0  0  0  0  0  3  0  0  0  0  0  0
  185.8090  177.0020  146.5530 C   0  0  0  0  0  3  0  0  0  0  0  0
  185.1770  178.2470  146.6290 C   0  0  0  0  0  0  0  0  0  0  0  0
  184.2960  178.5160  147.6660 O   0  0  0  0  0  1  0  0  0  0  0  0
  189.1870  176.7710  143.9370 C   0  0  0  0  0  0  0  0  0  0  0  0
  191.0150  175.7950  146.1970 C   0  0  0  0  0  3  0  0  0  0  0  0
  190.6840  174.7610  143.9530 C   0  0  0  0  0  3  0  0  0  0  0  0
  191.3790  174.8750  145.0990 C   0  0  0  0  0  0  0  0  0  0  0  0
  190.4410  176.9890  146.0540 C   0  0  0  0  0  3  0  0  0  0  0  0
  189.4900  175.5320  143.5470 C   0  0  0  0  0  3  0  0  0  0  0  0
  190.1550  177.6000  144.7240 C   0  0  0  0  0  2  0  0  0  0  0  0
  192.4700  174.0330  145.3200 O   0  0  0  0  0  0  0  0  0  0  0  0
  193.6980  174.3410  144.8770 O   0  0  0  0  0  1  0  0  0  0  0  0
  187.2850  176.5330  142.3250 C   0  0  0  0  0  2  0  0  0  0  0  0
  185.7710  177.6930  140.6580 C   0  0  0  0  0  0  0  0  0  0  0  0
  186.6820  177.7190  139.7890 O   0  0  0  0  0  0  0  0  0  0  0  0
  185.9950  177.0850  141.9310 N   0  0  0  0  0  2  0  0  0  0  0  0
  184.4610  178.3360  140.3710 C   0  0  0  0  0  2  0  0  0  0  0  0
  183.5490  178.1970  141.5760 C   0  0  0  0  0  2  0  0  0  0  0  0
  181.7560  177.7590  140.0740 O   0  0  0  0  0  0  0  0  0  0  0  0
  181.1810  178.9580  141.9770 N   0  0  0  0  0  1  0  0  0  0  0  0
  182.1270  178.2930  141.1500 C   0  0  0  0  0  0  0  0  0  0  0  0
  1 18  1  6  0  0  0
  1  9  1  0  0  0  0
  1  2  1  0  0  0  0
  2  3  2  0  0  0  0
  2  5  1  0  0  0  0
  3  4  1  0  0  0  0
  4  7  2  0  0  0  0
  5  6  2  0  0  0  0
  6  7  1  0  0  0  0
  7  8  1  0  0  0  0
  9 15  1  0  0  0  0
 11 12  2  0  0  0  0
 12 16  1  0  0  0  0
 12 10  1  0  0  0  0
 13 10  2  0  0  0  0
 14  9  2  0  0  0  0
 14 11  1  0  0  0  0
 15 13  1  0  0  0  0
 17 16  1  0  0  0  0
 19 21  1  0  0  0  0
 20 19  2  0  0  0  0
 21 18  1  0  0  0  0
 22 19  1  0  0  0  0
 22 23  1  0  0  0  0
 24 26  2  0  0  0  0
 26 23  1  0  0  0  0
 26 25  1  0  0  0  0
M  END
>  <MODEL>
6

>  <REMARK>
 VINA RESULT:      -6.5      2.138      6.095
  Name = 
  8 active torsions:
  status: ('A' for Active; 'I' for Inactive)
    1  A    between atoms: C_1  and  C_3
    2  A    between atoms: C_2  and  C_5
    3  A    between atoms: C_3  and  C_10
    4  A    between atoms: C_3  and  C_11
    5  A    between atoms: O_4  and  C_19
    6  A    between atoms: C_5  and  C_20
    7  A    between atoms: C_11  and  N_24
    8  A    between atoms: C_20  and  C_25
                            x       y       z     vdW  Elec       q    Type
                         _______ _______ _______ _____ _____    ______ ____

>  <TORSDO>
F 8

$$$$
=
 OpenBabel11042416113D

 26 27  0  0  1  0  0  0  0  0999 V2000
  190.1470  176.2110  144.8910 C   0  0  1  0  0  3  0  0  0  0  0  0
  189.3080  176.6740  143.7360 C   0  0  0  0  0  0  0  0  0  0  0  0
  189.5810  177.8800  143.0710 C   0  0  0  0  0  3  0  0  0  0  0  0
  188.7810  178.2870  141.9990 C   0  0  0  0  0  3  0  0  0  0  0  0
  188.2310  175.8830  143.3200 C   0  0  0  0  0  3  0  0  0  0  0  0
  187.4320  176.2920  142.2480 C   0  0  0  0  0  3  0  0  0  0  0  0
  187.7060  177.4930  141.5890 C   0  0  0  0  0  0  0  0  0  0  0  0
  186.9120  177.8980  140.5250 O   0  0  0  0  0  1  0  0  0  0  0  0
  191.5630  175.9320  144.4870 C   0  0  0  0  0  0  0  0  0  0  0  0
  193.8600  175.9410  142.4570 C   0  0  0  0  0  3  0  0  0  0  0  0
  193.9880  176.4040  144.9030 C   0  0  0  0  0  3  0  0  0  0  0  0
  194.5860  176.1210  143.7310 C   0  0  0  0  0  0  0  0  0  0  0  0
  192.6390  175.4250  142.3230 C   0  0  0  0  0  3  0  0  0  0  0  0
  192.5390  176.5410  145.1610 C   0  0  0  0  0  3  0  0  0  0  0  0
  191.8580  174.8750  143.4680 C   0  0  0  0  0  2  0  0  0  0  0  0
  195.9790  176.0620  143.6750 O   0  0  0  0  0  0  0  0  0  0  0  0
  196.7240  177.1660  143.5160 O   0  0  0  0  0  1  0  0  0  0  0  0
  190.0760  177.1570  146.0880 C   0  0  0  0  0  2  0  0  0  0  0  0
  187.7910  176.5030  146.9660 C   0  0  0  0  0  0  0  0  0  0  0  0
  188.1910  175.3440  147.2550 O   0  0  0  0  0  0  0  0  0  0  0  0
  188.6890  177.4670  146.4140 N   0  0  0  0  0  2  0  0  0  0  0  0
  186.3610  176.8600  147.1650 C   0  0  0  0  0  2  0  0  0  0  0  0
  185.6280  176.7880  145.8380 C   0  0  0  0  0  2  0  0  0  0  0  0
  186.0800  178.7480  144.5640 O   0  0  0  0  0  0  0  0  0  0  0  0
  184.1020  178.7930  145.7810 N   0  0  0  0  0  1  0  0  0  0  0  0
  185.3050  178.1590  145.3620 C   0  0  0  0  0  0  0  0  0  0  0  0
  1 18  1  1  0  0  0
  2  1  1  0  0  0  0
  3  2  2  0  0  0  0
  4  3  1  0  0  0  0
  5  2  1  0  0  0  0
  6  5  2  0  0  0  0
  7  4  2  0  0  0  0
  7  6  1  0  0  0  0
  8  7  1  0  0  0  0
  9  1  1  0  0  0  0
  9 14  2  0  0  0  0
 10 12  1  0  0  0  0
 11 14  1  0  0  0  0
 12 11  2  0  0  0  0
 13 10  2  0  0  0  0
 13 15  1  0  0  0  0
 15  9  1  0  0  0  0
 16 12  1  0  0  0  0
 17 16  1  0  0  0  0
 18 21  1  0  0  0  0
 19 22  1  0  0  0  0
 19 20  2  0  0  0  0
 21 19  1  0  0  0  0
 23 22  1  0  0  0  0
 24 26  2  0  0  0  0
 26 25  1  0  0  0  0
 26 23  1  0  0  0  0
M  END
>  <MODEL>
7

>  <REMARK>
 VINA RESULT:      -6.4      1.854      5.455
  Name = 
  8 active torsions:
  status: ('A' for Active; 'I' for Inactive)
    1  A    between atoms: C_1  and  C_3
    2  A    between atoms: C_2  and  C_5
    3  A    between atoms: C_3  and  C_10
    4  A    between atoms: C_3  and  C_11
    5  A    between atoms: O_4  and  C_19
    6  A    between atoms: C_5  and  C_20
    7  A    between atoms: C_11  and  N_24
    8  A    between atoms: C_20  and  C_25
                            x       y       z     vdW  Elec       q    Type
                         _______ _______ _______ _____ _____    ______ ____

>  <TORSDO>
F 8

$$$$
=
 OpenBabel11042416113D

 26 27  0  0  1  0  0  0  0  0999 V2000
  189.0130  176.6850  145.6310 C   0  0  1  0  0  3  0  0  0  0  0  0
  187.6050  177.2030  145.6630 C   0  0  0  0  0  0  0  0  0  0  0  0
  186.6450  176.6590  146.5300 C   0  0  0  0  0  3  0  0  0  0  0  0
  185.3400  177.1600  146.5360 C   0  0  0  0  0  3  0  0  0  0  0  0
  187.2470  178.2490  144.8040 C   0  0  0  0  0  3  0  0  0  0  0  0
  185.9420  178.7480  144.8100 C   0  0  0  0  0  3  0  0  0  0  0  0
  184.9880  178.2040  145.6750 C   0  0  0  0  0  0  0  0  0  0  0  0
  183.6930  178.7010  145.6820 O   0  0  0  0  0  1  0  0  0  0  0  0
  189.1300  175.4080  144.8560 C   0  0  0  0  0  0  0  0  0  0  0  0
  190.1890  173.7420  142.5110 C   0  0  0  0  0  3  0  0  0  0  0  0
  189.8610  173.0120  144.8710 C   0  0  0  0  0  3  0  0  0  0  0  0
  190.0770  172.7230  143.5750 C   0  0  0  0  0  0  0  0  0  0  0  0
  189.5370  174.9030  142.4730 C   0  0  0  0  0  3  0  0  0  0  0  0
  189.6530  174.3460  145.4710 C   0  0  0  0  0  3  0  0  0  0  0  0
  188.5230  175.3000  143.4920 C   0  0  0  0  0  2  0  0  0  0  0  0
  190.2840  171.3950  143.1990 O   0  0  0  0  0  0  0  0  0  0  0  0
  191.5150  170.9100  142.9780 O   0  0  0  0  0  1  0  0  0  0  0  0
  190.0160  177.7330  145.1510 C   0  0  0  0  0  2  0  0  0  0  0  0
  192.0960  177.1120  143.8460 C   0  0  0  0  0  0  0  0  0  0  0  0
  191.6380  177.6290  142.7930 O   0  0  0  0  0  0  0  0  0  0  0  0
  191.3530  177.1610  145.0650 N   0  0  0  0  0  2  0  0  0  0  0  0
  193.4070  176.4110  143.8120 C   0  0  0  0  0  2  0  0  0  0  0  0
  193.4780  175.4060  144.9460 C   0  0  0  0  0  2  0  0  0  0  0  0
  195.5010  174.9730  146.1250 O   0  0  0  0  0  0  0  0  0  0  0  0
  194.5650  177.0660  146.5000 N   0  0  0  0  0  1  0  0  0  0  0  0
  194.5650  175.7810  145.8900 C   0  0  0  0  0  0  0  0  0  0  0  0
  1 18  1  6  0  0  0
  1  2  1  0  0  0  0
  2  3  1  0  0  0  0
  3  4  2  0  0  0  0
  5  6  1  0  0  0  0
  5  2  2  0  0  0  0
  6  7  2  0  0  0  0
  7  8  1  0  0  0  0
  7  4  1  0  0  0  0
  9 14  2  0  0  0  0
  9  1  1  0  0  0  0
 10 12  1  0  0  0  0
 11 14  1  0  0  0  0
 12 11  2  0  0  0  0
 13 10  2  0  0  0  0
 13 15  1  0  0  0  0
 15  9  1  0  0  0  0
 16 12  1  0  0  0  0
 17 16  1  0  0  0  0
 19 21  1  0  0  0  0
 20 19  2  0  0  0  0
 21 18  1  0  0  0  0
 22 19  1  0  0  0  0
 22 23  1  0  0  0  0
 23 26  1  0  0  0  0
 26 24  2  0  0  0  0
 26 25  1  0  0  0  0
M  END
>  <MODEL>
8

>  <REMARK>
 VINA RESULT:      -6.3      3.099      7.007
  Name = 
  8 active torsions:
  status: ('A' for Active; 'I' for Inactive)
    1  A    between atoms: C_1  and  C_3
    2  A    between atoms: C_2  and  C_5
    3  A    between atoms: C_3  and  C_10
    4  A    between atoms: C_3  and  C_11
    5  A    between atoms: O_4  and  C_19
    6  A    between atoms: C_5  and  C_20
    7  A    between atoms: C_11  and  N_24
    8  A    between atoms: C_20  and  C_25
                            x       y       z     vdW  Elec       q    Type
                         _______ _______ _______ _____ _____    ______ ____

>  <TORSDO>
F 8

$$$$
=
 OpenBabel11042416113D

 26 27  0  0  1  0  0  0  0  0999 V2000
  187.8400  176.0890  145.1600 C   0  0  1  0  0  3  0  0  0  0  0  0
  186.6450  176.8770  144.7060 C   0  0  0  0  0  0  0  0  0  0  0  0
  186.0900  176.6930  143.4300 C   0  0  0  0  0  3  0  0  0  0  0  0
  184.9790  177.4420  143.0340 C   0  0  0  0  0  3  0  0  0  0  0  0
  186.0790  177.8140  145.5780 C   0  0  0  0  0  3  0  0  0  0  0  0
  184.9680  178.5630  145.1800 C   0  0  0  0  0  3  0  0  0  0  0  0
  184.4180  178.3780  143.9090 C   0  0  0  0  0  0  0  0  0  0  0  0
  183.3150  179.1210  143.5150 O   0  0  0  0  0  1  0  0  0  0  0  0
  189.0410  176.3350  144.2990 C   0  0  0  0  0  0  0  0  0  0  0  0
  191.8390  177.4870  143.8050 C   0  0  0  0  0  3  0  0  0  0  0  0
  190.9190  175.3180  142.9900 C   0  0  0  0  0  3  0  0  0  0  0  0
  191.8530  176.2850  142.9450 C   0  0  0  0  0  0  0  0  0  0  0  0
  190.7490  178.1180  144.2430 C   0  0  0  0  0  3  0  0  0  0  0  0
  189.7100  175.2780  143.8380 C   0  0  0  0  0  3  0  0  0  0  0  0
  189.3670  177.7250  143.8440 C   0  0  0  0  0  2  0  0  0  0  0  0
  192.9520  176.1330  142.0970 O   0  0  0  0  0  0  0  0  0  0  0  0
  193.4460  174.9240  141.7960 O   0  0  0  0  0  1  0  0  0  0  0  0
  188.1530  176.2950  146.6410 C   0  0  0  0  0  2  0  0  0  0  0  0
  190.4880  176.7950  147.4860 C   0  0  0  0  0  0  0  0  0  0  0  0
  190.1650  177.9710  147.8020 O   0  0  0  0  0  0  0  0  0  0  0  0
  189.5240  175.8970  146.9350 N   0  0  0  0  0  2  0  0  0  0  0  0
  191.8970  176.3490  147.6520 C   0  0  0  0  0  2  0  0  0  0  0  0
  192.1610  175.1490  146.7630 C   0  0  0  0  0  2  0  0  0  0  0  0
  194.3520  176.0720  146.6460 O   0  0  0  0  0  0  0  0  0  0  0  0
  193.9360  174.3230  145.1760 N   0  0  0  0  0  1  0  0  0  0  0  0
  193.5350  175.2270  146.1980 C   0  0  0  0  0  0  0  0  0  0  0  0
  1 18  1  1  0  0  0
  2  1  1  0  0  0  0
  2  5  1  0  0  0  0
  3  2  2  0  0  0  0
  4  3  1  0  0  0  0
  4  7  2  0  0  0  0
  6  5  2  0  0  0  0
  7  6  1  0  0  0  0
  8  7  1  0  0  0  0
  9  1  1  0  0  0  0
 10 13  2  0  0  0  0
 11 14  1  0  0  0  0
 12 11  2  0  0  0  0
 12 10  1  0  0  0  0
 14  9  2  0  0  0  0
 15 13  1  0  0  0  0
 15  9  1  0  0  0  0
 16 12  1  0  0  0  0
 17 16  1  0  0  0  0
 18 21  1  0  0  0  0
 19 22  1  0  0  0  0
 19 20  2  0  0  0  0
 21 19  1  0  0  0  0
 23 22  1  0  0  0  0
 25 26  1  0  0  0  0
 26 24  2  0  0  0  0
 26 23  1  0  0  0  0
M  END
>  <MODEL>
9

>  <REMARK>
 VINA RESULT:      -6.2      2.485      6.709
  Name = 
  8 active torsions:
  status: ('A' for Active; 'I' for Inactive)
    1  A    between atoms: C_1  and  C_3
    2  A    between atoms: C_2  and  C_5
    3  A    between atoms: C_3  and  C_10
    4  A    between atoms: C_3  and  C_11
    5  A    between atoms: O_4  and  C_19
    6  A    between atoms: C_5  and  C_20
    7  A    between atoms: C_11  and  N_24
    8  A    between atoms: C_20  and  C_25
                            x       y       z     vdW  Elec       q    Type
                         _______ _______ _______ _____ _____    ______ ____

>  <TORSDO>
F 8

$$$$
