=
 OpenBabel11042417143D

 31 34  0  0  1  0  0  0  0  0999 V2000
  188.1990  176.0160  146.8550 C   0  0  0  0  0  3  0  0  0  0  0  0
  189.4840  176.3480  146.6570 C   0  0  0  0  0  0  0  0  0  0  0  0
  189.8220  177.5520  145.9670 N   0  0  0  0  0  2  0  0  0  0  0  0
  189.4980  177.7680  144.5670 C   0  0  0  0  0  2  0  0  0  0  0  0
  192.0970  173.6720  141.1420 O   0  0  0  0  0  0  0  0  0  0  0  0
  192.2130  175.4820  142.2330 C   0  0  0  0  0  0  0  0  0  0  0  0
  188.7280  175.3330  143.2410 N   0  0  0  0  0  1  0  0  0  0  0  0
  192.6460  176.6210  142.8200 N   0  0  0  0  0  0  0  0  0  0  0  0
  192.9280  174.6290  141.4810 N   0  0  0  0  0  2  0  0  0  0  0  0
  190.8720  175.0270  142.3660 C   0  0  0  0  0  0  0  0  0  0  0  0
  189.9460  175.7450  143.1090 C   0  0  0  0  0  0  0  0  0  0  0  0
  189.7830  172.9880  141.4320 N   0  0  0  0  0  1  0  0  0  0  0  0
  191.7540  177.3500  143.5590 C   0  0  0  0  0  3  0  0  0  0  0  0
  190.4030  176.9420  143.7150 C   0  0  0  0  0  0  0  0  0  0  0  0
  190.8840  173.8640  141.6370 C   0  0  2  0  0  3  0  0  0  0  0  0
  190.5460  175.4910  147.1150 N   0  0  0  0  0  2  0  0  0  0  0  0
  194.5460  175.2280  145.7210 C   0  0  0  0  0  3  0  0  0  0  0  0
  193.6110  174.2420  145.3970 C   0  0  0  0  0  3  0  0  0  0  0  0
  192.2970  174.3420  145.8680 C   0  0  0  0  0  3  0  0  0  0  0  0
  192.8530  176.4130  146.9810 C   0  0  0  0  0  3  0  0  0  0  0  0
  194.1670  176.3150  146.5120 C   0  0  0  0  0  3  0  0  0  0  0  0
  191.9100  175.4240  146.6660 C   0  0  0  0  0  0  0  0  0  0  0  0
  187.0600  176.7880  146.4440 N   0  0  0  0  0  2  0  0  0  0  0  0
  185.8990  177.1130  147.2690 C   0  0  1  0  0  3  0  0  0  0  0  0
  185.1780  178.3420  146.8230 C   0  0  2  0  0  3  0  0  0  0  0  0
  184.7330  177.0500  146.4820 O   0  0  0  0  0  0  0  0  0  0  0  0
  185.7570  179.0220  145.5850 C   0  0  0  0  0  2  0  0  0  0  0  0
  184.6660  179.2750  144.5600 C   0  0  0  0  0  2  0  0  0  0  0  0
  184.9090  178.5210  143.4070 O   0  0  0  0  0  0  0  0  0  0  0  0
  186.5990  178.3840  142.0840 C   0  0  0  0  0  1  0  0  0  0  0  0
  186.2070  178.2940  143.4210 O   0  0  0  0  0  0  0  0  0  0  0  0
  2  1  2  0  0  0  0
  2 16  1  0  0  0  0
  3  2  1  0  0  0  0
  4  3  1  0  0  0  0
  5  9  1  0  0  0  0
  5 15  1  0  0  0  0
  6 10  1  0  0  0  0
  6  8  2  0  0  0  0
  8 13  1  0  0  0  0
  9  6  1  0  0  0  0
 10 11  2  0  0  0  0
 11  7  1  0  0  0  0
 11 14  1  0  0  0  0
 13 14  2  0  0  0  0
 14  4  1  0  0  0  0
 15 12  1  1  0  0  0
 15 10  1  0  0  0  0
 17 21  1  0  0  0  0
 18 17  2  0  0  0  0
 18 19  1  0  0  0  0
 19 22  2  0  0  0  0
 21 20  2  0  0  0  0
 22 20  1  0  0  0  0
 22 16  1  0  0  0  0
 23  1  1  0  0  0  0
 24 23  1  6  0  0  0
 25 27  1  6  0  0  0
 25 24  1  0  0  0  0
 26 25  1  0  0  0  0
 26 24  1  0  0  0  0
 28 27  1  0  0  0  0
 29 31  1  0  0  0  0
 29 28  1  0  0  0  0
 30 31  1  0  0  0  0
M  END
>  <MODEL>
1

>  <REMARK>
 VINA RESULT:      -6.2      0.000      0.000
  Name = 
  11 active torsions:
  status: ('A' for Active; 'I' for Inactive)
    1  A    between atoms: C_1  and  C_9
    2  A    between atoms: C_1  and  O_10
    3  A    between atoms: C_9  and  C_30
    4  A    between atoms: O_10  and  O_13
    5  A    between atoms: C_17  and  N_21
    6  A    between atoms: C_17  and  C_25
    7  A    between atoms: C_20  and  N_24
    8  A    between atoms: N_21  and  C_22
    9  A    between atoms: C_22  and  N_23
   10  A    between atoms: N_23  and  C_28
   11  A    between atoms: N_24  and  C_29
                            x       y       z     vdW  Elec       q    Type
                         _______ _______ _______ _____ _____    ______ ____

>  <TORSDO>
F 11

$$$$
=
 OpenBabel11042417143D

 31 34  0  0  1  0  0  0  0  0999 V2000
  187.2200  177.4200  147.1230 C   0  0  0  0  0  3  0  0  0  0  0  0
  187.7730  176.5540  146.2600 C   0  0  0  0  0  0  0  0  0  0  0  0
  187.4680  176.6270  144.8670 N   0  0  0  0  0  2  0  0  0  0  0  0
  188.3160  177.3270  143.9160 C   0  0  0  0  0  2  0  0  0  0  0  0
  192.7580  174.2800  141.4170 O   0  0  0  0  0  0  0  0  0  0  0  0
  190.6950  174.4830  141.8440 C   0  0  0  0  0  0  0  0  0  0  0  0
  191.1750  177.5670  143.6980 N   0  0  0  0  0  1  0  0  0  0  0  0
  189.3570  174.2980  141.9110 N   0  0  0  0  0  0  0  0  0  0  0  0
  191.5960  173.7040  141.2220 N   0  0  0  0  0  2  0  0  0  0  0  0
  191.3340  175.5970  142.4530 C   0  0  0  0  0  0  0  0  0  0  0  0
  190.6010  176.5460  143.1500 C   0  0  0  0  0  0  0  0  0  0  0  0
  193.7490  176.2190  142.4960 N   0  0  0  0  0  1  0  0  0  0  0  0
  188.6080  175.2190  142.5920 C   0  0  0  0  0  3  0  0  0  0  0  0
  189.2010  176.3440  143.2230 C   0  0  0  0  0  0  0  0  0  0  0  0
  192.6530  175.3900  142.1310 C   0  0  1  0  0  3  0  0  0  0  0  0
  188.6670  175.5240  146.7200 N   0  0  0  0  0  2  0  0  0  0  0  0
  192.8810  175.2430  146.3070 C   0  0  0  0  0  3  0  0  0  0  0  0
  192.0440  174.2610  145.7720 C   0  0  0  0  0  3  0  0  0  0  0  0
  190.6570  174.3660  145.9200 C   0  0  0  0  0  3  0  0  0  0  0  0
  190.9440  176.4360  147.1350 C   0  0  0  0  0  3  0  0  0  0  0  0
  192.3310  176.3320  146.9880 C   0  0  0  0  0  3  0  0  0  0  0  0
  190.0970  175.4510  146.6050 C   0  0  0  0  0  0  0  0  0  0  0  0
  186.3160  178.4830  146.7820 N   0  0  0  0  0  2  0  0  0  0  0  0
  184.8710  178.4840  146.9930 C   0  0  1  0  0  3  0  0  0  0  0  0
  184.0920  178.8480  145.7730 C   0  0  2  0  0  3  0  0  0  0  0  0
  184.2770  177.5090  146.1690 O   0  0  0  0  0  0  0  0  0  0  0  0
  184.9280  179.1290  144.5270 C   0  0  0  0  0  2  0  0  0  0  0  0
  184.5020  178.2210  143.3870 C   0  0  0  0  0  2  0  0  0  0  0  0
  183.2890  178.6650  142.8510 O   0  0  0  0  0  0  0  0  0  0  0  0
  184.2630  178.3390  140.9610 C   0  0  0  0  0  1  0  0  0  0  0  0
  183.1500  177.9900  141.7290 O   0  0  0  0  0  0  0  0  0  0  0  0
  2 16  1  0  0  0  0
  2  1  2  0  0  0  0
  3  2  1  0  0  0  0
  4  3  1  0  0  0  0
  5 15  1  0  0  0  0
  6  8  2  0  0  0  0
  6 10  1  0  0  0  0
  8 13  1  0  0  0  0
  9  5  1  0  0  0  0
  9  6  1  0  0  0  0
 10 11  2  0  0  0  0
 11 14  1  0  0  0  0
 11  7  1  0  0  0  0
 13 14  2  0  0  0  0
 14  4  1  0  0  0  0
 15 10  1  0  0  0  0
 15 12  1  1  0  0  0
 17 21  1  0  0  0  0
 18 19  1  0  0  0  0
 18 17  2  0  0  0  0
 19 22  2  0  0  0  0
 21 20  2  0  0  0  0
 22 16  1  0  0  0  0
 22 20  1  0  0  0  0
 23  1  1  0  0  0  0
 24 23  1  6  0  0  0
 25 27  1  6  0  0  0
 25 26  1  0  0  0  0
 25 24  1  0  0  0  0
 26 24  1  0  0  0  0
 28 27  1  0  0  0  0
 29 28  1  0  0  0  0
 30 31  1  0  0  0  0
 31 29  1  0  0  0  0
M  END
>  <MODEL>
2

>  <REMARK>
 VINA RESULT:      -6.2      1.436      2.283
  Name = 
  11 active torsions:
  status: ('A' for Active; 'I' for Inactive)
    1  A    between atoms: C_1  and  C_9
    2  A    between atoms: C_1  and  O_10
    3  A    between atoms: C_9  and  C_30
    4  A    between atoms: O_10  and  O_13
    5  A    between atoms: C_17  and  N_21
    6  A    between atoms: C_17  and  C_25
    7  A    between atoms: C_20  and  N_24
    8  A    between atoms: N_21  and  C_22
    9  A    between atoms: C_22  and  N_23
   10  A    between atoms: N_23  and  C_28
   11  A    between atoms: N_24  and  C_29
                            x       y       z     vdW  Elec       q    Type
                         _______ _______ _______ _____ _____    ______ ____

>  <TORSDO>
F 11

$$$$
=
 OpenBabel11042417143D

 31 34  0  0  1  0  0  0  0  0999 V2000
  188.2450  176.2630  146.8840 C   0  0  0  0  0  3  0  0  0  0  0  0
  189.4980  176.3830  146.4190 C   0  0  0  0  0  0  0  0  0  0  0  0
  189.8930  177.5490  145.6960 N   0  0  0  0  0  2  0  0  0  0  0  0
  189.4670  177.8040  144.3300 C   0  0  0  0  0  2  0  0  0  0  0  0
  190.6660  173.2110  140.7620 O   0  0  0  0  0  0  0  0  0  0  0  0
  191.3260  174.9100  141.8360 C   0  0  0  0  0  0  0  0  0  0  0  0
  187.9970  175.6780  143.0660 N   0  0  0  0  0  1  0  0  0  0  0  0
  192.0820  175.8860  142.3890 N   0  0  0  0  0  0  0  0  0  0  0  0
  191.7400  173.9080  141.0430 N   0  0  0  0  0  2  0  0  0  0  0  0
  189.9240  174.8260  142.0560 C   0  0  0  0  0  0  0  0  0  0  0  0
  189.2700  175.7540  142.8540 C   0  0  0  0  0  0  0  0  0  0  0  0
  188.2760  173.1600  141.2020 N   0  0  0  0  0  1  0  0  0  0  0  0
  191.4640  176.8160  143.1810 C   0  0  0  0  0  3  0  0  0  0  0  0
  190.0650  176.7780  143.4250 C   0  0  0  0  0  0  0  0  0  0  0  0
  189.5810  173.7110  141.3330 C   0  0  2  0  0  3  0  0  0  0  0  0
  190.4620  175.3330  146.6190 N   0  0  0  0  0  2  0  0  0  0  0  0
  191.3580  171.9520  144.2160 C   0  0  0  0  0  3  0  0  0  0  0  0
  192.3660  172.8330  144.6130 C   0  0  0  0  0  3  0  0  0  0  0  0
  192.0540  173.9450  145.4020 C   0  0  0  0  0  3  0  0  0  0  0  0
  189.7260  173.2930  145.4000 C   0  0  0  0  0  3  0  0  0  0  0  0
  190.0370  172.1810  144.6100 C   0  0  0  0  0  3  0  0  0  0  0  0
  190.7330  174.1860  145.7970 C   0  0  0  0  0  0  0  0  0  0  0  0
  187.2010  177.2400  146.7440 N   0  0  0  0  0  2  0  0  0  0  0  0
  185.7740  176.9590  146.6080 C   0  0  1  0  0  3  0  0  0  0  0  0
  185.0610  177.9230  145.7180 C   0  0  2  0  0  3  0  0  0  0  0  0
  185.4830  176.6580  145.2630 O   0  0  0  0  0  0  0  0  0  0  0  0
  185.9390  179.0050  145.0950 C   0  0  0  0  0  2  0  0  0  0  0  0
  185.1550  179.7920  144.0610 C   0  0  0  0  0  2  0  0  0  0  0  0
  185.0080  179.0350  142.8940 O   0  0  0  0  0  0  0  0  0  0  0  0
  186.0980  178.0770  141.3070 C   0  0  0  0  0  1  0  0  0  0  0  0
  186.2270  178.9270  142.4070 O   0  0  0  0  0  0  0  0  0  0  0  0
  2 16  1  0  0  0  0
  2  1  2  0  0  0  0
  3  2  1  0  0  0  0
  4  3  1  0  0  0  0
  5  9  1  0  0  0  0
  5 15  1  0  0  0  0
  6 10  1  0  0  0  0
  6  8  2  0  0  0  0
  8 13  1  0  0  0  0
  9  6  1  0  0  0  0
 10 11  2  0  0  0  0
 11  7  1  0  0  0  0
 11 14  1  0  0  0  0
 13 14  2  0  0  0  0
 14  4  1  0  0  0  0
 15 12  1  1  0  0  0
 15 10  1  0  0  0  0
 17 21  2  0  0  0  0
 17 18  1  0  0  0  0
 18 19  2  0  0  0  0
 19 22  1  0  0  0  0
 20 22  2  0  0  0  0
 21 20  1  0  0  0  0
 22 16  1  0  0  0  0
 23  1  1  0  0  0  0
 24 23  1  6  0  0  0
 25 27  1  6  0  0  0
 25 24  1  0  0  0  0
 26 25  1  0  0  0  0
 26 24  1  0  0  0  0
 28 27  1  0  0  0  0
 29 28  1  0  0  0  0
 30 31  1  0  0  0  0
 31 29  1  0  0  0  0
M  END
>  <MODEL>
3

>  <REMARK>
 VINA RESULT:      -6.1      1.362      1.918
  Name = 
  11 active torsions:
  status: ('A' for Active; 'I' for Inactive)
    1  A    between atoms: C_1  and  C_9
    2  A    between atoms: C_1  and  O_10
    3  A    between atoms: C_9  and  C_30
    4  A    between atoms: O_10  and  O_13
    5  A    between atoms: C_17  and  N_21
    6  A    between atoms: C_17  and  C_25
    7  A    between atoms: C_20  and  N_24
    8  A    between atoms: N_21  and  C_22
    9  A    between atoms: C_22  and  N_23
   10  A    between atoms: N_23  and  C_28
   11  A    between atoms: N_24  and  C_29
                            x       y       z     vdW  Elec       q    Type
                         _______ _______ _______ _____ _____    ______ ____

>  <TORSDO>
F 11

$$$$
=
 OpenBabel11042417143D

 31 34  0  0  1  0  0  0  0  0999 V2000
  186.7840  175.9240  142.5550 C   0  0  0  0  0  3  0  0  0  0  0  0
  188.0310  176.2710  142.2020 C   0  0  0  0  0  0  0  0  0  0  0  0
  188.5150  177.5910  142.4560 N   0  0  0  0  0  2  0  0  0  0  0  0
  189.9000  177.8630  142.8020 C   0  0  0  0  0  2  0  0  0  0  0  0
  191.9590  175.1170  147.6470 O   0  0  0  0  0  0  0  0  0  0  0  0
  190.5290  176.3800  146.7320 C   0  0  0  0  0  0  0  0  0  0  0  0
  192.1210  176.1630  143.4770 N   0  0  0  0  0  2  0  0  0  0  0  0
  189.4660  177.1810  146.4930 N   0  0  0  0  0  0  0  0  0  0  0  0
  190.8730  175.8080  147.8980 N   0  0  0  0  0  2  0  0  0  0  0  0
  191.4500  176.0230  145.7100 C   0  0  0  0  0  0  0  0  0  0  0  0
  191.2930  176.4910  144.4130 C   0  0  0  0  0  0  0  0  0  0  0  0
  193.4750  174.5710  145.8270 N   0  0  0  0  0  1  0  0  0  0  0  0
  189.2850  177.6580  145.2230 C   0  0  0  0  0  3  0  0  0  0  0  0
  190.1820  177.3360  144.1700 C   0  0  0  0  0  0  0  0  0  0  0  0
  192.3330  175.2140  146.3810 C   0  0  0  0  0  0  0  0  0  0  0  0
  188.8990  175.3310  141.5420 N   0  0  0  0  0  2  0  0  0  0  0  0
  190.1040  171.4300  142.6980 C   0  0  0  0  0  3  0  0  0  0  0  0
  190.0090  171.7770  141.3480 C   0  0  0  0  0  3  0  0  0  0  0  0
  189.6070  173.0670  140.9840 C   0  0  0  0  0  3  0  0  0  0  0  0
  189.3980  173.6610  143.3170 C   0  0  0  0  0  3  0  0  0  0  0  0
  189.8000  172.3720  143.6830 C   0  0  0  0  0  3  0  0  0  0  0  0
  189.2940  174.0160  141.9640 C   0  0  0  0  0  0  0  0  0  0  0  0
  185.8310  176.7740  143.2140 N   0  0  0  0  0  2  0  0  0  0  0  0
  184.8180  177.5970  142.5590 C   0  0  1  0  0  3  0  0  0  0  0  0
  184.3870  178.7710  143.3750 C   0  0  2  0  0  3  0  0  0  0  0  0
  185.3340  178.8880  142.3380 O   0  0  0  0  0  0  0  0  0  0  0  0
  185.0890  178.9190  144.7220 C   0  0  0  0  0  2  0  0  0  0  0  0
  184.0940  178.7580  145.8580 C   0  0  0  0  0  2  0  0  0  0  0  0
  184.3710  177.5880  146.5740 O   0  0  0  0  0  0  0  0  0  0  0  0
  186.0800  177.5080  147.8770 C   0  0  0  0  0  1  0  0  0  0  0  0
  185.6830  177.4750  146.5380 O   0  0  0  0  0  0  0  0  0  0  0  0
  1 23  1  0  0  0  0
  2  3  1  0  0  0  0
  2  1  2  0  0  0  0
  3  4  1  0  0  0  0
  4 14  1  0  0  0  0
  5  9  1  0  0  0  0
  6  9  1  0  0  0  0
  7 11  2  0  0  0  0
  8  6  2  0  0  0  0
 10 15  2  0  0  0  0
 10  6  1  0  0  0  0
 11 10  1  0  0  0  0
 12 15  1  0  0  0  0
 13  8  1  0  0  0  0
 14 11  1  0  0  0  0
 14 13  2  0  0  0  0
 15  5  1  0  0  0  0
 16 22  1  0  0  0  0
 16  2  1  0  0  0  0
 17 21  1  0  0  0  0
 18 17  2  0  0  0  0
 19 18  1  0  0  0  0
 19 22  2  0  0  0  0
 20 21  2  0  0  0  0
 22 20  1  0  0  0  0
 24 23  1  1  0  0  0
 24 25  1  0  0  0  0
 25 27  1  1  0  0  0
 26 24  1  0  0  0  0
 26 25  1  0  0  0  0
 27 28  1  0  0  0  0
 28 29  1  0  0  0  0
 31 29  1  0  0  0  0
 31 30  1  0  0  0  0
M  END
>  <MODEL>
4

>  <REMARK>
 VINA RESULT:      -6.1      2.107      4.682
  Name = 
  11 active torsions:
  status: ('A' for Active; 'I' for Inactive)
    1  A    between atoms: C_1  and  C_9
    2  A    between atoms: C_1  and  O_10
    3  A    between atoms: C_9  and  C_30
    4  A    between atoms: O_10  and  O_13
    5  A    between atoms: C_17  and  N_21
    6  A    between atoms: C_17  and  C_25
    7  A    between atoms: C_20  and  N_24
    8  A    between atoms: N_21  and  C_22
    9  A    between atoms: C_22  and  N_23
   10  A    between atoms: N_23  and  C_28
   11  A    between atoms: N_24  and  C_29
                            x       y       z     vdW  Elec       q    Type
                         _______ _______ _______ _____ _____    ______ ____

>  <TORSDO>
F 11

$$$$
=
 OpenBabel11042417143D

 31 34  0  0  1  0  0  0  0  0999 V2000
  189.3300  174.3970  146.1860 C   0  0  0  0  0  3  0  0  0  0  0  0
  188.9350  175.6720  146.0540 C   0  0  0  0  0  0  0  0  0  0  0  0
  189.3040  176.4290  144.9010 N   0  0  0  0  0  2  0  0  0  0  0  0
  190.3430  177.4450  144.9310 C   0  0  0  0  0  2  0  0  0  0  0  0
  195.6940  175.1090  143.8510 O   0  0  0  0  0  0  0  0  0  0  0  0
  193.8960  175.9640  143.1350 C   0  0  0  0  0  0  0  0  0  0  0  0
  192.5000  176.3190  146.4680 N   0  0  0  0  0  1  0  0  0  0  0  0
  192.9220  176.4720  142.3460 N   0  0  0  0  0  0  0  0  0  0  0  0
  195.0850  175.4710  142.7480 N   0  0  0  0  0  2  0  0  0  0  0  0
  193.7670  175.9030  144.5490 C   0  0  0  0  0  0  0  0  0  0  0  0
  192.6210  176.3640  145.1810 C   0  0  0  0  0  0  0  0  0  0  0  0
  195.3690  175.0490  146.2590 N   0  0  0  0  0  1  0  0  0  0  0  0
  191.7790  176.9340  142.9420 C   0  0  0  0  0  3  0  0  0  0  0  0
  191.6000  176.8880  144.3500 C   0  0  0  0  0  0  0  0  0  0  0  0
  194.9610  175.3420  144.9280 C   0  0  2  0  0  3  0  0  0  0  0  0
  188.1520  176.3110  147.0790 N   0  0  0  0  0  2  0  0  0  0  0  0
  184.6670  178.6900  146.6320 C   0  0  0  0  0  3  0  0  0  0  0  0
  184.8030  177.4860  145.9360 C   0  0  0  0  0  3  0  0  0  0  0  0
  185.9600  176.7160  146.0920 C   0  0  0  0  0  3  0  0  0  0  0  0
  186.8410  178.3500  147.6400 C   0  0  0  0  0  3  0  0  0  0  0  0
  185.6850  179.1220  147.4850 C   0  0  0  0  0  3  0  0  0  0  0  0
  186.9880  177.1430  146.9400 C   0  0  0  0  0  0  0  0  0  0  0  0
  190.1130  173.6580  145.2340 N   0  0  0  0  0  2  0  0  0  0  0  0
  189.8170  172.3180  144.7340 C   0  0  1  0  0  3  0  0  0  0  0  0
  189.4250  172.2950  143.2930 C   0  0  2  0  0  3  0  0  0  0  0  0
  190.7330  171.9850  143.7170 O   0  0  0  0  0  0  0  0  0  0  0  0
  189.4250  173.6530  142.5970 C   0  0  0  0  0  2  0  0  0  0  0  0
  188.0760  173.9180  141.9530 C   0  0  0  0  0  2  0  0  0  0  0  0
  187.8400  175.2960  141.8870 O   0  0  0  0  0  0  0  0  0  0  0  0
  186.3240  176.7510  142.3430 C   0  0  0  0  0  1  0  0  0  0  0  0
  186.8350  175.5050  142.7110 O   0  0  0  0  0  0  0  0  0  0  0  0
  2  1  2  0  0  0  0
  2 16  1  0  0  0  0
  3  4  1  0  0  0  0
  3  2  1  0  0  0  0
  5 15  1  0  0  0  0
  6 10  1  0  0  0  0
  8 13  1  0  0  0  0
  8  6  2  0  0  0  0
  9  6  1  0  0  0  0
  9  5  1  0  0  0  0
 10 15  1  0  0  0  0
 10 11  2  0  0  0  0
 11  7  1  0  0  0  0
 13 14  2  0  0  0  0
 14  4  1  0  0  0  0
 14 11  1  0  0  0  0
 15 12  1  1  0  0  0
 17 21  1  0  0  0  0
 18 19  1  0  0  0  0
 18 17  2  0  0  0  0
 19 22  2  0  0  0  0
 21 20  2  0  0  0  0
 22 16  1  0  0  0  0
 22 20  1  0  0  0  0
 23  1  1  0  0  0  0
 24 23  1  6  0  0  0
 25 27  1  6  0  0  0
 25 26  1  0  0  0  0
 25 24  1  0  0  0  0
 26 24  1  0  0  0  0
 28 27  1  0  0  0  0
 29 28  1  0  0  0  0
 29 31  1  0  0  0  0
 30 31  1  0  0  0  0
M  END
>  <MODEL>
5

>  <REMARK>
 VINA RESULT:      -6.0      2.282      5.439
  Name = 
  11 active torsions:
  status: ('A' for Active; 'I' for Inactive)
    1  A    between atoms: C_1  and  C_9
    2  A    between atoms: C_1  and  O_10
    3  A    between atoms: C_9  and  C_30
    4  A    between atoms: O_10  and  O_13
    5  A    between atoms: C_17  and  N_21
    6  A    between atoms: C_17  and  C_25
    7  A    between atoms: C_20  and  N_24
    8  A    between atoms: N_21  and  C_22
    9  A    between atoms: C_22  and  N_23
   10  A    between atoms: N_23  and  C_28
   11  A    between atoms: N_24  and  C_29
                            x       y       z     vdW  Elec       q    Type
                         _______ _______ _______ _____ _____    ______ ____

>  <TORSDO>
F 11

$$$$
=
 OpenBabel11042417143D

 31 34  0  0  1  0  0  0  0  0999 V2000
  187.8620  176.7750  146.9480 C   0  0  0  0  0  3  0  0  0  0  0  0
  189.0930  176.5730  146.4550 C   0  0  0  0  0  0  0  0  0  0  0  0
  189.6660  177.5030  145.5350 N   0  0  0  0  0  2  0  0  0  0  0  0
  189.0290  177.8490  144.2750 C   0  0  0  0  0  2  0  0  0  0  0  0
  189.7960  173.1960  140.6660 O   0  0  0  0  0  0  0  0  0  0  0  0
  188.5160  174.4110  141.8330 C   0  0  0  0  0  0  0  0  0  0  0  0
  191.2250  176.5650  142.9300 N   0  0  0  0  0  1  0  0  0  0  0  0
  187.4370  174.9550  142.4400 N   0  0  0  0  0  0  0  0  0  0  0  0
  188.5420  173.3440  141.0180 N   0  0  0  0  0  2  0  0  0  0  0  0
  189.8220  174.9500  141.9920 C   0  0  0  0  0  0  0  0  0  0  0  0
  190.0410  176.0650  142.7880 C   0  0  0  0  0  0  0  0  0  0  0  0
  191.9860  174.1960  141.0070 N   0  0  0  0  0  1  0  0  0  0  0  0
  187.6230  176.0560  143.2320 C   0  0  0  0  0  3  0  0  0  0  0  0
  188.9090  176.6260  143.4280 C   0  0  0  0  0  0  0  0  0  0  0  0
  190.5800  174.1130  141.2120 C   0  0  1  0  0  3  0  0  0  0  0  0
  189.8540  175.4080  146.8250 N   0  0  0  0  0  2  0  0  0  0  0  0
  191.6270  172.5060  144.2870 C   0  0  0  0  0  3  0  0  0  0  0  0
  190.2630  172.4550  144.5860 C   0  0  0  0  0  3  0  0  0  0  0  0
  189.6950  173.4170  145.4280 C   0  0  0  0  0  3  0  0  0  0  0  0
  191.8520  174.4810  145.6680 C   0  0  0  0  0  3  0  0  0  0  0  0
  192.4220  173.5200  144.8270 C   0  0  0  0  0  3  0  0  0  0  0  0
  190.4840  174.4340  145.9770 C   0  0  0  0  0  0  0  0  0  0  0  0
  187.0120  177.8940  146.6510 N   0  0  0  0  0  2  0  0  0  0  0  0
  185.6330  178.0680  147.0990 C   0  0  1  0  0  3  0  0  0  0  0  0
  184.7280  178.6080  146.0410 C   0  0  2  0  0  3  0  0  0  0  0  0
  184.7860  177.2330  146.3440 O   0  0  0  0  0  0  0  0  0  0  0  0
  185.3870  178.8580  144.6870 C   0  0  0  0  0  2  0  0  0  0  0  0
  184.6290  178.1360  143.5880 C   0  0  0  0  0  2  0  0  0  0  0  0
  184.7540  178.8350  142.3820 O   0  0  0  0  0  0  0  0  0  0  0  0
  185.4610  177.9240  140.5670 C   0  0  0  0  0  1  0  0  0  0  0  0
  184.3840  177.9760  141.4550 O   0  0  0  0  0  0  0  0  0  0  0  0
  2 16  1  0  0  0  0
  2  1  2  0  0  0  0
  3  2  1  0  0  0  0
  4  3  1  0  0  0  0
  5  9  1  0  0  0  0
  5 15  1  0  0  0  0
  6 10  1  0  0  0  0
  6  8  2  0  0  0  0
  8 13  1  0  0  0  0
  9  6  1  0  0  0  0
 10 11  2  0  0  0  0
 11  7  1  0  0  0  0
 11 14  1  0  0  0  0
 13 14  2  0  0  0  0
 14  4  1  0  0  0  0
 15 12  1  1  0  0  0
 15 10  1  0  0  0  0
 17 18  2  0  0  0  0
 17 21  1  0  0  0  0
 18 19  1  0  0  0  0
 19 22  2  0  0  0  0
 20 22  1  0  0  0  0
 21 20  2  0  0  0  0
 22 16  1  0  0  0  0
 23  1  1  0  0  0  0
 24 23  1  6  0  0  0
 25 27  1  6  0  0  0
 25 26  1  0  0  0  0
 25 24  1  0  0  0  0
 26 24  1  0  0  0  0
 28 27  1  0  0  0  0
 29 28  1  0  0  0  0
 30 31  1  0  0  0  0
 31 29  1  0  0  0  0
M  END
>  <MODEL>
6

>  <REMARK>
 VINA RESULT:      -5.9      1.543      2.505
  Name = 
  11 active torsions:
  status: ('A' for Active; 'I' for Inactive)
    1  A    between atoms: C_1  and  C_9
    2  A    between atoms: C_1  and  O_10
    3  A    between atoms: C_9  and  C_30
    4  A    between atoms: O_10  and  O_13
    5  A    between atoms: C_17  and  N_21
    6  A    between atoms: C_17  and  C_25
    7  A    between atoms: C_20  and  N_24
    8  A    between atoms: N_21  and  C_22
    9  A    between atoms: C_22  and  N_23
   10  A    between atoms: N_23  and  C_28
   11  A    between atoms: N_24  and  C_29
                            x       y       z     vdW  Elec       q    Type
                         _______ _______ _______ _____ _____    ______ ____

>  <TORSDO>
F 11

$$$$
=
 OpenBabel11042417143D

 31 34  0  0  1  0  0  0  0  0999 V2000
  186.4900  176.1830  142.8060 C   0  0  0  0  0  2  0  0  0  0  0  0
  187.7170  175.8350  143.2240 C   0  0  0  0  0  0  0  0  0  0  0  0
  188.3210  176.5060  144.3310 N   0  0  0  0  0  2  0  0  0  0  0  0
  189.3270  177.5420  144.1630 C   0  0  0  0  0  2  0  0  0  0  0  0
  194.8580  175.8240  145.4730 O   0  0  0  0  0  0  0  0  0  0  0  0
  192.8670  176.1960  146.0860 C   0  0  0  0  0  0  0  0  0  0  0  0
  191.8320  177.2670  142.7750 N   0  0  0  0  0  2  0  0  0  0  0  0
  191.7280  176.3080  146.8070 N   0  0  0  0  0  0  0  0  0  0  0  0
  194.0670  175.7740  146.5170 N   0  0  0  0  0  2  0  0  0  0  0  0
  192.9200  176.5230  144.7040 C   0  0  0  0  0  0  0  0  0  0  0  0
  191.7930  176.9770  144.0350 C   0  0  0  0  0  0  0  0  0  0  0  0
  194.8390  176.4120  143.1140 N   0  0  0  0  0  1  0  0  0  0  0  0
  190.6000  176.7540  146.1730 C   0  0  0  0  0  3  0  0  0  0  0  0
  190.6040  177.1000  144.7960 C   0  0  0  0  0  0  0  0  0  0  0  0
  194.2300  176.2560  144.3900 C   0  0  0  0  0  0  0  0  0  0  0  0
  188.4570  174.7970  142.5570 N   0  0  0  0  0  0  0  0  0  0  0  0
  192.0660  172.9250  143.7710 C   0  0  0  0  0  3  0  0  0  0  0  0
  190.9720  172.9940  144.6370 C   0  0  0  0  0  3  0  0  0  0  0  0
  189.7910  173.6180  144.2220 C   0  0  0  0  0  3  0  0  0  0  0  0
  190.7970  174.1000  142.0780 C   0  0  0  0  0  3  0  0  0  0  0  0
  191.9790  173.4770  142.4910 C   0  0  0  0  0  3  0  0  0  0  0  0
  189.6950  174.1790  142.9430 C   0  0  0  0  0  0  0  0  0  0  0  0
  185.6610  177.2010  143.3900 N   0  0  0  0  0  2  0  0  0  0  0  0
  185.7620  178.6370  143.1440 C   0  0  1  0  0  3  0  0  0  0  0  0
  184.9170  179.4580  144.0610 C   0  0  2  0  0  3  0  0  0  0  0  0
  186.2950  179.2710  144.2830 O   0  0  0  0  0  0  0  0  0  0  0  0
  184.1230  178.6660  145.0960 C   0  0  0  0  0  2  0  0  0  0  0  0
  184.8040  178.7350  146.4510 C   0  0  0  0  0  2  0  0  0  0  0  0
  185.1150  177.4450  146.8950 O   0  0  0  0  0  0  0  0  0  0  0  0
  187.1750  177.8990  147.3170 C   0  0  0  0  0  1  0  0  0  0  0  0
  185.9380  177.6270  147.9070 O   0  0  0  0  0  0  0  0  0  0  0  0
  1  2  1  0  0  0  0
  1 23  1  0  0  0  0
  2  3  1  0  0  0  0
  4  3  1  0  0  0  0
  4 14  1  0  0  0  0
  5  9  1  0  0  0  0
  6  9  1  0  0  0  0
  6  8  2  0  0  0  0
  7 11  2  0  0  0  0
 10  6  1  0  0  0  0
 11 10  1  0  0  0  0
 11 14  1  0  0  0  0
 12 15  1  0  0  0  0
 13  8  1  0  0  0  0
 14 13  2  0  0  0  0
 15 10  2  0  0  0  0
 15  5  1  0  0  0  0
 16 22  1  0  0  0  0
 16  2  2  0  0  0  0
 17 18  1  0  0  0  0
 19 18  2  0  0  0  0
 20 21  1  0  0  0  0
 20 22  2  0  0  0  0
 21 17  2  0  0  0  0
 22 19  1  0  0  0  0
 24 23  1  1  0  0  0
 24 25  1  0  0  0  0
 24 26  1  0  0  0  0
 25 26  1  0  0  0  0
 25 27  1  1  0  0  0
 27 28  1  0  0  0  0
 28 29  1  0  0  0  0
 29 31  1  0  0  0  0
 30 31  1  0  0  0  0
M  END
>  <MODEL>
7

>  <REMARK>
 VINA RESULT:      -5.9      1.984      4.021
  Name = 
  11 active torsions:
  status: ('A' for Active; 'I' for Inactive)
    1  A    between atoms: C_1  and  C_9
    2  A    between atoms: C_1  and  O_10
    3  A    between atoms: C_9  and  C_30
    4  A    between atoms: O_10  and  O_13
    5  A    between atoms: C_17  and  N_21
    6  A    between atoms: C_17  and  C_25
    7  A    between atoms: C_20  and  N_24
    8  A    between atoms: N_21  and  C_22
    9  A    between atoms: C_22  and  N_23
   10  A    between atoms: N_23  and  C_28
   11  A    between atoms: N_24  and  C_29
                            x       y       z     vdW  Elec       q    Type
                         _______ _______ _______ _____ _____    ______ ____

>  <TORSDO>
F 11

$$$$
=
 OpenBabel11042417143D

 31 34  0  0  1  0  0  0  0  0999 V2000
  187.6970  176.0310  141.5300 C   0  0  0  0  0  3  0  0  0  0  0  0
  187.7820  176.7430  142.6640 C   0  0  0  0  0  0  0  0  0  0  0  0
  188.8790  176.5510  143.5580 N   0  0  0  0  0  2  0  0  0  0  0  0
  189.6230  177.6600  144.1340 C   0  0  0  0  0  2  0  0  0  0  0  0
  195.0350  175.6180  145.4740 O   0  0  0  0  0  0  0  0  0  0  0  0
  193.0670  176.1070  146.0760 C   0  0  0  0  0  0  0  0  0  0  0  0
  192.1160  177.2380  142.7600 N   0  0  0  0  0  2  0  0  0  0  0  0
  191.9320  176.2860  146.7900 N   0  0  0  0  0  0  0  0  0  0  0  0
  194.2370  175.6150  146.5140 N   0  0  0  0  0  2  0  0  0  0  0  0
  193.1470  176.4300  144.6940 C   0  0  0  0  0  0  0  0  0  0  0  0
  192.0520  176.9500  144.0190 C   0  0  0  0  0  0  0  0  0  0  0  0
  195.0650  176.2060  143.1160 N   0  0  0  0  0  1  0  0  0  0  0  0
  190.8360  176.7980  146.1500 C   0  0  0  0  0  3  0  0  0  0  0  0
  190.8690  177.1430  144.7730 C   0  0  0  0  0  0  0  0  0  0  0  0
  194.4400  176.0870  144.3880 C   0  0  0  0  0  0  0  0  0  0  0  0
  186.7640  177.6980  143.0140 N   0  0  0  0  0  2  0  0  0  0  0  0
  184.4150  178.0400  146.5310 C   0  0  0  0  0  3  0  0  0  0  0  0
  184.3950  179.0430  145.5590 C   0  0  0  0  0  3  0  0  0  0  0  0
  185.1780  178.9170  144.4070 C   0  0  0  0  0  3  0  0  0  0  0  0
  185.9970  176.7850  145.1970 C   0  0  0  0  0  3  0  0  0  0  0  0
  185.2150  176.9100  146.3500 C   0  0  0  0  0  3  0  0  0  0  0  0
  185.9870  177.7910  144.2190 C   0  0  0  0  0  0  0  0  0  0  0  0
  188.6480  175.0530  141.0800 N   0  0  0  0  0  2  0  0  0  0  0  0
  188.4560  173.6050  141.0790 C   0  0  1  0  0  3  0  0  0  0  0  0
  189.5800  172.8560  141.7170 C   0  0  2  0  0  3  0  0  0  0  0  0
  188.3860  173.1420  142.4070 O   0  0  0  0  0  0  0  0  0  0  0  0
  190.7070  173.7230  142.2720 C   0  0  0  0  0  2  0  0  0  0  0  0
  191.0840  173.2710  143.6710 C   0  0  0  0  0  2  0  0  0  0  0  0
  192.4750  173.2810  143.8180 O   0  0  0  0  0  0  0  0  0  0  0  0
  193.9900  172.2590  144.9530 C   0  0  0  0  0  1  0  0  0  0  0  0
  192.6910  172.7680  145.0120 O   0  0  0  0  0  0  0  0  0  0  0  0
  1  2  2  0  0  0  0
  2 16  1  0  0  0  0
  2  3  1  0  0  0  0
  3  4  1  0  0  0  0
  4 14  1  0  0  0  0
  5  9  1  0  0  0  0
  6  9  1  0  0  0  0
  6  8  2  0  0  0  0
  7 11  2  0  0  0  0
 10  6  1  0  0  0  0
 11 10  1  0  0  0  0
 11 14  1  0  0  0  0
 12 15  1  0  0  0  0
 13  8  1  0  0  0  0
 14 13  2  0  0  0  0
 15 10  2  0  0  0  0
 15  5  1  0  0  0  0
 16 22  1  0  0  0  0
 18 17  2  0  0  0  0
 19 18  1  0  0  0  0
 20 21  2  0  0  0  0
 21 17  1  0  0  0  0
 22 19  2  0  0  0  0
 22 20  1  0  0  0  0
 23  1  1  0  0  0  0
 24 23  1  1  0  0  0
 24 25  1  0  0  0  0
 24 26  1  0  0  0  0
 25 27  1  1  0  0  0
 25 26  1  0  0  0  0
 27 28  1  0  0  0  0
 28 29  1  0  0  0  0
 29 31  1  0  0  0  0
 30 31  1  0  0  0  0
M  END
>  <MODEL>
8

>  <REMARK>
 VINA RESULT:      -5.8      2.625      6.666
  Name = 
  11 active torsions:
  status: ('A' for Active; 'I' for Inactive)
    1  A    between atoms: C_1  and  C_9
    2  A    between atoms: C_1  and  O_10
    3  A    between atoms: C_9  and  C_30
    4  A    between atoms: O_10  and  O_13
    5  A    between atoms: C_17  and  N_21
    6  A    between atoms: C_17  and  C_25
    7  A    between atoms: C_20  and  N_24
    8  A    between atoms: N_21  and  C_22
    9  A    between atoms: C_22  and  N_23
   10  A    between atoms: N_23  and  C_28
   11  A    between atoms: N_24  and  C_29
                            x       y       z     vdW  Elec       q    Type
                         _______ _______ _______ _____ _____    ______ ____

>  <TORSDO>
F 11

$$$$
=
 OpenBabel11042417143D

 31 34  0  0  1  0  0  0  0  0999 V2000
  192.4180  175.6980  146.9090 C   0  0  0  0  0  3  0  0  0  0  0  0
  193.3320  176.0550  145.9940 C   0  0  0  0  0  0  0  0  0  0  0  0
  192.9620  176.8730  144.8830 N   0  0  0  0  0  2  0  0  0  0  0  0
  192.6990  176.3270  143.5620 C   0  0  0  0  0  2  0  0  0  0  0  0
  187.0060  176.0420  141.8990 O   0  0  0  0  0  0  0  0  0  0  0  0
  188.6860  177.1940  142.4700 C   0  0  0  0  0  0  0  0  0  0  0  0
  190.7940  174.2700  142.9110 N   0  0  0  0  0  1  0  0  0  0  0  0
  189.5220  178.2140  142.7700 N   0  0  0  0  0  0  0  0  0  0  0  0
  187.4010  177.2770  142.0900 N   0  0  0  0  0  2  0  0  0  0  0  0
  189.1060  175.8360  142.5150 C   0  0  0  0  0  0  0  0  0  0  0  0
  190.4030  175.5030  142.8770 C   0  0  0  0  0  0  0  0  0  0  0  0
  187.8250  173.7560  142.0110 N   0  0  0  0  0  1  0  0  0  0  0  0
  190.8080  177.9140  143.1310 C   0  0  0  0  0  3  0  0  0  0  0  0
  191.2730  176.5740  143.1980 C   0  0  0  0  0  0  0  0  0  0  0  0
  187.9690  175.1660  142.1360 C   0  0  1  0  0  3  0  0  0  0  0  0
  194.6950  175.6050  146.0980 N   0  0  0  0  0  2  0  0  0  0  0  0
  196.2270  171.7400  145.2510 C   0  0  0  0  0  3  0  0  0  0  0  0
  194.8810  172.0380  145.0290 C   0  0  0  0  0  3  0  0  0  0  0  0
  194.3910  173.3170  145.3170 C   0  0  0  0  0  3  0  0  0  0  0  0
  196.5920  173.9970  146.0460 C   0  0  0  0  0  3  0  0  0  0  0  0
  197.0840  172.7190  145.7590 C   0  0  0  0  0  3  0  0  0  0  0  0
  195.2400  174.3030  145.8310 C   0  0  0  0  0  0  0  0  0  0  0  0
  191.0340  176.0830  146.9080 N   0  0  0  0  0  2  0  0  0  0  0  0
  189.9040  175.2300  147.2670 C   0  0  1  0  0  3  0  0  0  0  0  0
  188.5800  175.8040  146.8850 C   0  0  2  0  0  3  0  0  0  0  0  0
  189.2280  174.8320  146.0980 O   0  0  0  0  0  0  0  0  0  0  0  0
  188.6370  177.1530  146.1750 C   0  0  0  0  0  2  0  0  0  0  0  0
  187.2350  177.6590  145.8840 C   0  0  0  0  0  2  0  0  0  0  0  0
  186.4550  176.6260  145.3550 O   0  0  0  0  0  0  0  0  0  0  0  0
  184.9260  177.7340  146.3840 C   0  0  0  0  0  1  0  0  0  0  0  0
  185.2710  177.1670  145.1550 O   0  0  0  0  0  0  0  0  0  0  0  0
  2 16  1  0  0  0  0
  2  1  2  0  0  0  0
  3  2  1  0  0  0  0
  4  3  1  0  0  0  0
  5  9  1  0  0  0  0
  5 15  1  0  0  0  0
  6 10  1  0  0  0  0
  6  8  2  0  0  0  0
  8 13  1  0  0  0  0
  9  6  1  0  0  0  0
 10 11  2  0  0  0  0
 11  7  1  0  0  0  0
 11 14  1  0  0  0  0
 13 14  2  0  0  0  0
 14  4  1  0  0  0  0
 15 12  1  1  0  0  0
 15 10  1  0  0  0  0
 17 21  1  0  0  0  0
 18 17  2  0  0  0  0
 18 19  1  0  0  0  0
 19 22  2  0  0  0  0
 21 20  2  0  0  0  0
 22 20  1  0  0  0  0
 22 16  1  0  0  0  0
 23  1  1  0  0  0  0
 24 23  1  6  0  0  0
 25 27  1  6  0  0  0
 25 24  1  0  0  0  0
 26 25  1  0  0  0  0
 26 24  1  0  0  0  0
 28 27  1  0  0  0  0
 29 28  1  0  0  0  0
 31 29  1  0  0  0  0
 31 30  1  0  0  0  0
M  END
>  <MODEL>
9

>  <REMARK>
 VINA RESULT:      -5.8      2.215      3.698
  Name = 
  11 active torsions:
  status: ('A' for Active; 'I' for Inactive)
    1  A    between atoms: C_1  and  C_9
    2  A    between atoms: C_1  and  O_10
    3  A    between atoms: C_9  and  C_30
    4  A    between atoms: O_10  and  O_13
    5  A    between atoms: C_17  and  N_21
    6  A    between atoms: C_17  and  C_25
    7  A    between atoms: C_20  and  N_24
    8  A    between atoms: N_21  and  C_22
    9  A    between atoms: C_22  and  N_23
   10  A    between atoms: N_23  and  C_28
   11  A    between atoms: N_24  and  C_29
                            x       y       z     vdW  Elec       q    Type
                         _______ _______ _______ _____ _____    ______ ____

>  <TORSDO>
F 11

$$$$
