=
 OpenBabel11042418433D

 44 48  0  0  1  0  0  0  0  0999 V2000
  193.1750  175.2030  145.4930 C   0  0  0  0  0  0  0  0  0  0  0  0
  191.7520  176.6360  144.1420 C   0  0  0  0  0  3  0  0  0  0  0  0
  190.6150  175.9630  144.6050 C   0  0  0  0  0  0  0  0  0  0  0  0
  193.0240  176.2590  144.5810 C   0  0  0  0  0  3  0  0  0  0  0  0
  190.7670  174.9130  145.5180 C   0  0  0  0  0  3  0  0  0  0  0  0
  192.0390  174.5310  145.9570 C   0  0  0  0  0  3  0  0  0  0  0  0
  188.6580  176.1480  142.9270 C   0  0  0  0  0  0  0  0  0  0  0  0
  187.4980  176.6760  142.6630 N   0  0  0  0  0  0  0  0  0  0  0  0
  189.2900  176.3390  144.2040 N   0  0  0  0  0  2  0  0  0  0  0  0
  186.3520  178.8010  143.0140 C   0  0  0  0  0  3  0  0  0  0  0  0
  185.5840  179.6730  143.7900 C   0  0  0  0  0  3  0  0  0  0  0  0
  186.6960  177.5340  143.4970 C   0  0  0  0  0  0  0  0  0  0  0  0
  185.1540  179.2830  145.0610 C   0  0  0  0  0  3  0  0  0  0  0  0
  185.4910  178.0230  145.5650 C   0  0  0  0  0  0  0  0  0  0  0  0
  186.2650  177.1550  144.7790 C   0  0  0  0  0  3  0  0  0  0  0  0
  185.0490  177.6570  146.8380 O   0  0  0  0  0  0  0  0  0  0  0  0
  185.9330  177.5000  147.9380 C   0  0  0  0  0  1  0  0  0  0  0  0
  189.2840  175.2880  141.8780 C   0  0  0  0  0  2  0  0  0  0  0  0
  188.3660  174.1320  141.5040 C   0  0  1  0  0  3  0  0  0  0  0  0
  190.4010  170.9880  141.8130 C   0  0  0  0  0  3  0  0  0  0  0  0
  191.1740  170.3000  140.8690 C   0  0  0  0  0  3  0  0  0  0  0  0
  188.5190  173.8110  139.7020 S   0  0  0  0  0  0  0  0  0  0  0  0
  190.3440  171.7610  139.1090 C   0  0  0  0  0  3  0  0  0  0  0  0
  189.5710  172.4300  140.0620 C   0  0  0  0  0  0  0  0  0  0  0  0
  191.1470  170.6880  139.5190 C   0  0  0  0  0  3  0  0  0  0  0  0
  189.6070  172.0580  141.3900 C   0  0  0  0  0  0  0  0  0  0  0  0
  188.7580  172.8730  142.2870 C   0  0  0  0  0  2  0  0  0  0  0  0
  194.4640  174.7930  145.9670 N   0  0  0  0  0  2  0  0  0  0  0  0
  195.3450  173.8500  145.3330 C   0  0  0  0  0  0  0  0  0  0  0  0
  195.0580  173.3270  144.2190 O   0  0  0  0  0  0  0  0  0  0  0  0
  196.6400  173.4990  145.9860 C   0  0  0  0  0  2  0  0  0  0  0  0
  197.1710  172.1900  145.4950 C   0  0  0  0  0  0  0  0  0  0  0  0
  197.9410  172.1750  144.4970 O   0  0  0  0  0  0  0  0  0  0  0  0
  196.8530  170.9730  146.1790 N   0  0  0  0  0  2  0  0  0  0  0  0
  197.3730  169.6810  145.7570 C   0  0  1  0  0  3  0  0  0  0  0  0
  197.7530  168.9370  146.8770 O   0  0  0  0  0  1  0  0  0  0  0  0
  194.6610  170.6250  142.1190 C   0  0  0  0  0  1  0  0  0  0  0  0
  196.2410  169.4670  143.5770 N   0  0  0  0  0  0  0  0  0  0  0  0
  196.3250  168.9300  144.9390 C   0  0  2  0  0  3  0  0  0  0  0  0
  194.7130  169.0000  145.7880 S   0  0  0  0  0  0  0  0  0  0  0  0
  194.8360  169.5590  143.1900 C   0  0  1  0  0  3  0  0  0  0  0  0
  192.5650  169.4910  144.2000 C   0  0  0  0  0  1  0  0  0  0  0  0
  196.8640  168.4890  142.6990 C   0  0  0  0  0  1  0  0  0  0  0  0
  194.0090  169.9090  144.4020 C   0  0  1  0  0  3  0  0  0  0  0  0
  1  6  1  0  0  0  0
  1 28  1  0  0  0  0
  2  4  1  0  0  0  0
  2  3  2  0  0  0  0
  3  5  1  0  0  0  0
  4  1  2  0  0  0  0
  5  6  2  0  0  0  0
  7  9  1  0  0  0  0
  8  7  2  0  0  0  0
  8 12  1  0  0  0  0
  9  3  1  0  0  0  0
 10 12  2  0  0  0  0
 10 11  1  0  0  0  0
 11 13  2  0  0  0  0
 12 15  1  0  0  0  0
 13 14  1  0  0  0  0
 14 16  1  0  0  0  0
 15 14  2  0  0  0  0
 16 17  1  0  0  0  0
 18  7  1  0  0  0  0
 19 18  1  1  0  0  0
 19 27  1  0  0  0  0
 21 20  2  0  0  0  0
 22 24  1  0  0  0  0
 22 19  1  0  0  0  0
 23 25  2  0  0  0  0
 23 24  1  0  0  0  0
 24 26  2  0  0  0  0
 25 21  1  0  0  0  0
 26 20  1  0  0  0  0
 26 27  1  0  0  0  0
 29 28  1  0  0  0  0
 29 31  1  0  0  0  0
 30 29  2  0  0  0  0
 32 31  1  0  0  0  0
 32 34  1  0  0  0  0
 33 32  2  0  0  0  0
 35 34  1  0  0  0  0
 35 36  1  1  0  0  0
 38 39  1  0  0  0  0
 39 35  1  1  0  0  0
 39 40  1  0  0  0  0
 41 37  1  6  0  0  0
 41 38  1  0  0  0  0
 41 44  1  0  0  0  0
 43 38  1  0  0  0  0
 44 42  1  6  0  0  0
 44 40  1  0  0  0  0
M  END
>  <MODEL>
1

>  <REMARK>
 VINA RESULT:      -7.3      0.000      0.000
  Name = 
  10 active torsions:
  status: ('A' for Active; 'I' for Inactive)
    1  A    between atoms: C_2  and  C_13
    2  A    between atoms: C_2  and  N_26
    3  A    between atoms: C_3  and  N_32
    4  A    between atoms: C_4  and  C_36
    5  A    between atoms: C_11  and  C_12
    6  A    between atoms: C_11  and  C_41
    7  A    between atoms: C_17  and  C_36
    8  A    between atoms: C_18  and  N_29
    9  A    between atoms: N_20  and  C_23
   10  A    between atoms: C_37  and  O_40
                            x       y       z     vdW  Elec       q    Type
                         _______ _______ _______ _____ _____    ______ ____

>  <TORSDO>
F 10

$$$$
=
 OpenBabel11042418433D

 44 48  0  0  1  0  0  0  0  0999 V2000
  190.6820  172.7000  142.7120 C   0  0  0  0  0  0  0  0  0  0  0  0
  189.7220  173.4470  144.8150 C   0  0  0  0  0  3  0  0  0  0  0  0
  189.2190  174.5960  144.1910 C   0  0  0  0  0  0  0  0  0  0  0  0
  190.4500  172.5070  144.0820 C   0  0  0  0  0  3  0  0  0  0  0  0
  189.4460  174.7850  142.8230 C   0  0  0  0  0  3  0  0  0  0  0  0
  190.1770  173.8460  142.0880 C   0  0  0  0  0  3  0  0  0  0  0  0
  188.4310  175.8470  146.3110 C   0  0  0  0  0  0  0  0  0  0  0  0
  187.5610  176.6620  146.8320 N   0  0  0  0  0  0  0  0  0  0  0  0
  188.4400  175.5690  144.9000 N   0  0  0  0  0  2  0  0  0  0  0  0
  185.2450  177.4280  146.8270 C   0  0  0  0  0  3  0  0  0  0  0  0
  184.1640  178.0820  146.2280 C   0  0  0  0  0  3  0  0  0  0  0  0
  186.4810  177.3550  146.1770 C   0  0  0  0  0  0  0  0  0  0  0  0
  184.3130  178.6670  144.9680 C   0  0  0  0  0  3  0  0  0  0  0  0
  185.5390  178.6000  144.2980 C   0  0  0  0  0  0  0  0  0  0  0  0
  186.6180  177.9400  144.9080 C   0  0  0  0  0  3  0  0  0  0  0  0
  185.6620  179.1930  143.0410 O   0  0  0  0  0  0  0  0  0  0  0  0
  185.6730  178.4380  141.8380 C   0  0  0  0  0  1  0  0  0  0  0  0
  189.4590  175.2550  147.2200 C   0  0  0  0  0  2  0  0  0  0  0  0
  190.6470  176.1930  147.3820 C   0  0  1  0  0  3  0  0  0  0  0  0
  191.2810  177.7310  144.0130 C   0  0  0  0  0  3  0  0  0  0  0  0
  192.1130  177.3260  142.9620 C   0  0  0  0  0  3  0  0  0  0  0  0
  192.1900  175.2660  147.0220 S   0  0  0  0  0  0  0  0  0  0  0  0
  193.0670  175.5890  144.3740 C   0  0  0  0  0  3  0  0  0  0  0  0
  192.2370  176.0130  145.4150 C   0  0  0  0  0  0  0  0  0  0  0  0
  193.0040  176.2540  143.1420 C   0  0  0  0  0  3  0  0  0  0  0  0
  191.3520  177.0570  145.2350 C   0  0  0  0  0  0  0  0  0  0  0  0
  190.5190  177.3770  146.4150 C   0  0  0  0  0  2  0  0  0  0  0  0
  191.4200  171.7540  141.9290 N   0  0  0  0  0  2  0  0  0  0  0  0
  192.8030  171.8570  141.5470 C   0  0  0  0  0  0  0  0  0  0  0  0
  193.5250  172.8150  141.9430 O   0  0  0  0  0  0  0  0  0  0  0  0
  193.4100  170.7990  140.6880 C   0  0  0  0  0  2  0  0  0  0  0  0
  194.1740  169.7990  141.4960 C   0  0  0  0  0  0  0  0  0  0  0  0
  193.7020  168.6390  141.6420 O   0  0  0  0  0  0  0  0  0  0  0  0
  195.4480  170.1360  142.0540 N   0  0  0  0  0  2  0  0  0  0  0  0
  196.2410  169.1860  142.8180 C   0  0  1  0  0  3  0  0  0  0  0  0
  197.5280  169.1030  142.2810 O   0  0  0  0  0  1  0  0  0  0  0  0
  193.9590  172.1640  145.5390 C   0  0  0  0  0  1  0  0  0  0  0  0
  194.9930  170.1020  144.7380 N   0  0  0  0  0  0  0  0  0  0  0  0
  196.2960  169.6020  144.2870 C   0  0  2  0  0  3  0  0  0  0  0  0
  197.6100  170.8430  144.5280 S   0  0  0  0  0  0  0  0  0  0  0  0
  195.2020  171.2880  145.5660 C   0  0  1  0  0  3  0  0  0  0  0  0
  196.9680  172.9460  146.1220 C   0  0  0  0  0  1  0  0  0  0  0  0
  194.4210  169.0760  145.5950 C   0  0  0  0  0  1  0  0  0  0  0  0
  196.3850  172.0590  145.0380 C   0  0  1  0  0  3  0  0  0  0  0  0
  1  4  1  0  0  0  0
  3  2  1  0  0  0  0
  3  9  1  0  0  0  0
  4  2  2  0  0  0  0
  5  3  2  0  0  0  0
  6  1  2  0  0  0  0
  6  5  1  0  0  0  0
  7  8  2  0  0  0  0
  7 18  1  0  0  0  0
  9  7  1  0  0  0  0
 11 10  1  0  0  0  0
 12 10  2  0  0  0  0
 12  8  1  0  0  0  0
 13 11  2  0  0  0  0
 14 15  2  0  0  0  0
 14 13  1  0  0  0  0
 15 12  1  0  0  0  0
 16 14  1  0  0  0  0
 17 16  1  0  0  0  0
 19 18  1  6  0  0  0
 20 26  1  0  0  0  0
 21 25  1  0  0  0  0
 21 20  2  0  0  0  0
 22 19  1  0  0  0  0
 23 24  1  0  0  0  0
 24 22  1  0  0  0  0
 25 23  2  0  0  0  0
 26 24  2  0  0  0  0
 26 27  1  0  0  0  0
 27 19  1  0  0  0  0
 28  1  1  0  0  0  0
 29 28  1  0  0  0  0
 29 30  2  0  0  0  0
 31 32  1  0  0  0  0
 31 29  1  0  0  0  0
 32 33  2  0  0  0  0
 32 34  1  0  0  0  0
 34 35  1  0  0  0  0
 35 36  1  6  0  0  0
 38 41  1  0  0  0  0
 38 43  1  0  0  0  0
 39 35  1  6  0  0  0
 39 40  1  0  0  0  0
 39 38  1  0  0  0  0
 40 44  1  0  0  0  0
 41 37  1  6  0  0  0
 44 41  1  0  0  0  0
 44 42  1  1  0  0  0
M  END
>  <MODEL>
2

>  <REMARK>
 VINA RESULT:      -7.3      2.509      4.825
  Name = 
  10 active torsions:
  status: ('A' for Active; 'I' for Inactive)
    1  A    between atoms: C_2  and  C_13
    2  A    between atoms: C_2  and  N_26
    3  A    between atoms: C_3  and  N_32
    4  A    between atoms: C_4  and  C_36
    5  A    between atoms: C_11  and  C_12
    6  A    between atoms: C_11  and  C_41
    7  A    between atoms: C_17  and  C_36
    8  A    between atoms: C_18  and  N_29
    9  A    between atoms: N_20  and  C_23
   10  A    between atoms: C_37  and  O_40
                            x       y       z     vdW  Elec       q    Type
                         _______ _______ _______ _____ _____    ______ ____

>  <TORSDO>
F 10

$$$$
=
 OpenBabel11042418433D

 44 48  0  0  1  0  0  0  0  0999 V2000
  188.6280  173.3480  140.3750 C   0  0  0  0  0  0  0  0  0  0  0  0
  188.3720  173.8810  142.7320 C   0  0  0  0  0  3  0  0  0  0  0  0
  188.0440  175.2040  142.4080 C   0  0  0  0  0  0  0  0  0  0  0  0
  188.6640  172.9600  141.7230 C   0  0  0  0  0  3  0  0  0  0  0  0
  188.0030  175.5890  141.0630 C   0  0  0  0  0  3  0  0  0  0  0  0
  188.2980  174.6680  140.0520 C   0  0  0  0  0  3  0  0  0  0  0  0
  188.5250  176.6640  144.4860 C   0  0  0  0  0  0  0  0  0  0  0  0
  188.0320  177.4370  145.4100 N   0  0  0  0  0  0  0  0  0  0  0  0
  187.7060  176.1730  143.4110 N   0  0  0  0  0  2  0  0  0  0  0  0
  186.1340  177.9220  146.8630 C   0  0  0  0  0  3  0  0  0  0  0  0
  184.8150  178.3350  147.0710 C   0  0  0  0  0  3  0  0  0  0  0  0
  186.6710  177.8790  145.5720 C   0  0  0  0  0  0  0  0  0  0  0  0
  184.0210  178.7090  145.9840 C   0  0  0  0  0  3  0  0  0  0  0  0
  184.5370  178.6690  144.6850 C   0  0  0  0  0  0  0  0  0  0  0  0
  185.8620  178.2510  144.4860 C   0  0  0  0  0  3  0  0  0  0  0  0
  183.7230  179.0480  143.6160 O   0  0  0  0  0  0  0  0  0  0  0  0
  183.6300  178.2880  142.4200 C   0  0  0  0  0  1  0  0  0  0  0  0
  189.9860  176.3530  144.5470 C   0  0  0  0  0  2  0  0  0  0  0  0
  190.3240  175.5790  145.8130 C   0  0  1  0  0  3  0  0  0  0  0  0
  193.9810  176.1290  146.4770 C   0  0  0  0  0  3  0  0  0  0  0  0
  195.1060  175.3980  146.0750 C   0  0  0  0  0  3  0  0  0  0  0  0
  190.8720  173.8890  145.3470 S   0  0  0  0  0  0  0  0  0  0  0  0
  193.6650  173.6540  145.1790 C   0  0  0  0  0  3  0  0  0  0  0  0
  192.5540  174.3910  145.5960 C   0  0  0  0  0  0  0  0  0  0  0  0
  194.9480  174.1630  145.4240 C   0  0  0  0  0  3  0  0  0  0  0  0
  192.7080  175.6110  146.2230 C   0  0  0  0  0  0  0  0  0  0  0  0
  191.4440  176.2900  146.5830 C   0  0  0  0  0  2  0  0  0  0  0  0
  188.9190  172.4270  139.3160 N   0  0  0  0  0  2  0  0  0  0  0  0
  189.7580  172.6760  138.1750 C   0  0  0  0  0  0  0  0  0  0  0  0
  190.3830  173.7660  138.0440 O   0  0  0  0  0  0  0  0  0  0  0  0
  189.9190  171.6190  137.1360 C   0  0  0  0  0  2  0  0  0  0  0  0
  190.4670  170.3530  137.7130 C   0  0  0  0  0  0  0  0  0  0  0  0
  189.8190  169.2810  137.5690 O   0  0  0  0  0  0  0  0  0  0  0  0
  191.7360  170.3450  138.3770 N   0  0  0  0  0  2  0  0  0  0  0  0
  192.3230  169.1320  138.9260 C   0  0  1  0  0  3  0  0  0  0  0  0
  193.4770  168.8010  138.2110 O   0  0  0  0  0  1  0  0  0  0  0  0
  192.2570  172.6520  141.9410 C   0  0  0  0  0  1  0  0  0  0  0  0
  191.8820  170.4440  140.9670 N   0  0  0  0  0  0  0  0  0  0  0  0
  192.6410  169.3200  140.4080 C   0  0  2  0  0  3  0  0  0  0  0  0
  194.4370  169.5480  140.6290 S   0  0  0  0  0  0  0  0  0  0  0  0
  192.7590  171.2190  141.8410 C   0  0  1  0  0  3  0  0  0  0  0  0
  195.1720  171.4990  142.3690 C   0  0  0  0  0  1  0  0  0  0  0  0
  190.8390  169.8730  141.8040 C   0  0  0  0  0  1  0  0  0  0  0  0
  194.1590  171.2030  141.2800 C   0  0  1  0  0  3  0  0  0  0  0  0
  1  4  1  0  0  0  0
  3  2  1  0  0  0  0
  3  9  1  0  0  0  0
  4  2  2  0  0  0  0
  5  3  2  0  0  0  0
  6  1  2  0  0  0  0
  6  5  1  0  0  0  0
  7 18  1  0  0  0  0
  7  8  2  0  0  0  0
  8 12  1  0  0  0  0
  9  7  1  0  0  0  0
 10 11  1  0  0  0  0
 12 10  2  0  0  0  0
 13 11  2  0  0  0  0
 14 13  1  0  0  0  0
 15 14  2  0  0  0  0
 15 12  1  0  0  0  0
 16 14  1  0  0  0  0
 17 16  1  0  0  0  0
 19 18  1  6  0  0  0
 19 27  1  0  0  0  0
 21 20  2  0  0  0  0
 22 24  1  0  0  0  0
 22 19  1  0  0  0  0
 23 25  2  0  0  0  0
 23 24  1  0  0  0  0
 24 26  2  0  0  0  0
 25 21  1  0  0  0  0
 26 20  1  0  0  0  0
 26 27  1  0  0  0  0
 28  1  1  0  0  0  0
 29 28  1  0  0  0  0
 30 29  2  0  0  0  0
 31 32  1  0  0  0  0
 31 29  1  0  0  0  0
 32 34  1  0  0  0  0
 33 32  2  0  0  0  0
 34 35  1  0  0  0  0
 35 36  1  6  0  0  0
 38 43  1  0  0  0  0
 38 41  1  0  0  0  0
 39 35  1  6  0  0  0
 39 40  1  0  0  0  0
 39 38  1  0  0  0  0
 40 44  1  0  0  0  0
 41 37  1  6  0  0  0
 44 41  1  0  0  0  0
 44 42  1  1  0  0  0
M  END
>  <MODEL>
3

>  <REMARK>
 VINA RESULT:      -7.3      3.547      6.305
  Name = 
  10 active torsions:
  status: ('A' for Active; 'I' for Inactive)
    1  A    between atoms: C_2  and  C_13
    2  A    between atoms: C_2  and  N_26
    3  A    between atoms: C_3  and  N_32
    4  A    between atoms: C_4  and  C_36
    5  A    between atoms: C_11  and  C_12
    6  A    between atoms: C_11  and  C_41
    7  A    between atoms: C_17  and  C_36
    8  A    between atoms: C_18  and  N_29
    9  A    between atoms: N_20  and  C_23
   10  A    between atoms: C_37  and  O_40
                            x       y       z     vdW  Elec       q    Type
                         _______ _______ _______ _____ _____    ______ ____

>  <TORSDO>
F 10

$$$$
=
 OpenBabel11042418433D

 44 48  0  0  1  0  0  0  0  0999 V2000
  191.6510  172.7900  143.2030 C   0  0  0  0  0  0  0  0  0  0  0  0
  191.2320  175.0400  142.3870 C   0  0  0  0  0  3  0  0  0  0  0  0
  189.8980  174.9550  142.8040 C   0  0  0  0  0  0  0  0  0  0  0  0
  192.1030  173.9650  142.5830 C   0  0  0  0  0  3  0  0  0  0  0  0
  189.4500  173.7840  143.4270 C   0  0  0  0  0  3  0  0  0  0  0  0
  190.3190  172.7060  143.6210 C   0  0  0  0  0  3  0  0  0  0  0  0
  188.7560  177.1540  143.5400 C   0  0  0  0  0  0  0  0  0  0  0  0
  187.7820  177.9940  143.3390 N   0  0  0  0  0  0  0  0  0  0  0  0
  188.9800  176.0470  142.6500 N   0  0  0  0  0  2  0  0  0  0  0  0
  187.1860  177.7680  140.9850 C   0  0  0  0  0  3  0  0  0  0  0  0
  186.2490  177.7420  139.9480 C   0  0  0  0  0  3  0  0  0  0  0  0
  186.7770  177.9660  142.3080 C   0  0  0  0  0  0  0  0  0  0  0  0
  184.8920  177.9160  140.2280 C   0  0  0  0  0  3  0  0  0  0  0  0
  184.4620  178.1200  141.5430 C   0  0  0  0  0  0  0  0  0  0  0  0
  185.4100  178.1460  142.5770 C   0  0  0  0  0  3  0  0  0  0  0  0
  183.1000  178.2910  141.7970 O   0  0  0  0  0  0  0  0  0  0  0  0
  182.0970  177.9320  140.8570 C   0  0  0  0  0  1  0  0  0  0  0  0
  189.6690  177.4120  144.6950 C   0  0  0  0  0  2  0  0  0  0  0  0
  189.2430  176.6080  145.9150 C   0  0  1  0  0  3  0  0  0  0  0  0
  185.4950  176.8120  146.0940 C   0  0  0  0  0  3  0  0  0  0  0  0
  184.6570  177.7170  146.7560 C   0  0  0  0  0  3  0  0  0  0  0  0
  189.1700  177.7270  147.3680 S   0  0  0  0  0  0  0  0  0  0  0  0
  186.5850  178.7080  147.8620 C   0  0  0  0  0  3  0  0  0  0  0  0
  187.4050  177.7910  147.2010 C   0  0  0  0  0  0  0  0  0  0  0  0
  185.2020  178.6660  147.6380 C   0  0  0  0  0  3  0  0  0  0  0  0
  186.8730  176.8680  146.3240 C   0  0  0  0  0  0  0  0  0  0  0  0
  187.8640  175.9800  145.6770 C   0  0  0  0  0  2  0  0  0  0  0  0
  192.5180  171.6710  143.4230 N   0  0  0  0  0  2  0  0  0  0  0  0
  193.4660  171.5230  144.4950 C   0  0  0  0  0  0  0  0  0  0  0  0
  193.5690  172.3920  145.4060 O   0  0  0  0  0  0  0  0  0  0  0  0
  194.3280  170.3070  144.5530 C   0  0  0  0  0  2  0  0  0  0  0  0
  195.7550  170.6230  144.2350 C   0  0  0  0  0  0  0  0  0  0  0  0
  196.6700  169.9570  144.7900 O   0  0  0  0  0  0  0  0  0  0  0  0
  196.0790  171.6340  143.2740 N   0  0  0  0  0  2  0  0  0  0  0  0
  197.4510  171.9530  142.9090 C   0  0  1  0  0  3  0  0  0  0  0  0
  197.6670  171.6400  141.5650 O   0  0  0  0  0  1  0  0  0  0  0  0
  195.0030  175.6530  144.2500 C   0  0  0  0  0  1  0  0  0  0  0  0
  196.7830  173.9860  144.1350 N   0  0  0  0  0  0  0  0  0  0  0  0
  197.7400  173.4290  143.1730 C   0  0  2  0  0  3  0  0  0  0  0  0
  197.7200  174.3520  141.6000 S   0  0  0  0  0  0  0  0  0  0  0  0
  196.3720  175.3120  143.6820 C   0  0  1  0  0  3  0  0  0  0  0  0
  196.4410  176.7470  141.6530 C   0  0  0  0  0  1  0  0  0  0  0  0
  197.5010  174.1650  145.3870 C   0  0  0  0  0  1  0  0  0  0  0  0
  196.3210  175.3270  142.1750 C   0  0  1  0  0  3  0  0  0  0  0  0
  1 28  1  0  0  0  0
  1  6  1  0  0  0  0
  2  4  1  0  0  0  0
  2  3  2  0  0  0  0
  3  5  1  0  0  0  0
  4  1  2  0  0  0  0
  5  6  2  0  0  0  0
  7 18  1  0  0  0  0
  8  7  2  0  0  0  0
  9  3  1  0  0  0  0
  9  7  1  0  0  0  0
 10 12  1  0  0  0  0
 11 13  1  0  0  0  0
 11 10  2  0  0  0  0
 12 15  2  0  0  0  0
 12  8  1  0  0  0  0
 13 14  2  0  0  0  0
 14 16  1  0  0  0  0
 14 15  1  0  0  0  0
 17 16  1  0  0  0  0
 19 18  1  6  0  0  0
 19 22  1  0  0  0  0
 20 26  2  0  0  0  0
 20 21  1  0  0  0  0
 21 25  2  0  0  0  0
 24 22  1  0  0  0  0
 24 23  2  0  0  0  0
 25 23  1  0  0  0  0
 26 24  1  0  0  0  0
 27 19  1  0  0  0  0
 27 26  1  0  0  0  0
 28 29  1  0  0  0  0
 29 31  1  0  0  0  0
 29 30  2  0  0  0  0
 32 31  1  0  0  0  0
 32 33  2  0  0  0  0
 34 32  1  0  0  0  0
 35 36  1  6  0  0  0
 35 34  1  0  0  0  0
 38 43  1  0  0  0  0
 39 35  1  6  0  0  0
 39 38  1  0  0  0  0
 40 44  1  0  0  0  0
 40 39  1  0  0  0  0
 41 38  1  0  0  0  0
 41 37  1  1  0  0  0
 44 42  1  6  0  0  0
 44 41  1  0  0  0  0
M  END
>  <MODEL>
4

>  <REMARK>
 VINA RESULT:      -7.3      3.008      5.761
  Name = 
  10 active torsions:
  status: ('A' for Active; 'I' for Inactive)
    1  A    between atoms: C_2  and  C_13
    2  A    between atoms: C_2  and  N_26
    3  A    between atoms: C_3  and  N_32
    4  A    between atoms: C_4  and  C_36
    5  A    between atoms: C_11  and  C_12
    6  A    between atoms: C_11  and  C_41
    7  A    between atoms: C_17  and  C_36
    8  A    between atoms: C_18  and  N_29
    9  A    between atoms: N_20  and  C_23
   10  A    between atoms: C_37  and  O_40
                            x       y       z     vdW  Elec       q    Type
                         _______ _______ _______ _____ _____    ______ ____

>  <TORSDO>
F 10

$$$$
=
 OpenBabel11042418433D

 44 48  0  0  1  0  0  0  0  0999 V2000
  192.5150  175.4800  144.8760 C   0  0  0  0  0  0  0  0  0  0  0  0
  190.2080  174.7240  144.7680 C   0  0  0  0  0  3  0  0  0  0  0  0
  189.8090  175.9750  144.2810 C   0  0  0  0  0  0  0  0  0  0  0  0
  191.5500  174.4780  145.0650 C   0  0  0  0  0  3  0  0  0  0  0  0
  190.7720  176.9720  144.0870 C   0  0  0  0  0  3  0  0  0  0  0  0
  192.1170  176.7280  144.3870 C   0  0  0  0  0  3  0  0  0  0  0  0
  187.8050  176.1150  142.6540 C   0  0  0  0  0  0  0  0  0  0  0  0
  186.5960  176.5530  142.4530 N   0  0  0  0  0  0  0  0  0  0  0  0
  188.4470  176.2590  143.9330 N   0  0  0  0  0  2  0  0  0  0  0  0
  184.8190  178.1770  142.8470 C   0  0  0  0  0  3  0  0  0  0  0  0
  183.9720  178.8950  143.6960 C   0  0  0  0  0  3  0  0  0  0  0  0
  185.7390  177.2610  143.3690 C   0  0  0  0  0  0  0  0  0  0  0  0
  184.0400  178.7020  145.0780 C   0  0  0  0  0  3  0  0  0  0  0  0
  184.9560  177.7960  145.6210 C   0  0  0  0  0  0  0  0  0  0  0  0
  185.8040  177.0800  144.7600 C   0  0  0  0  0  3  0  0  0  0  0  0
  185.0050  177.6210  147.0040 O   0  0  0  0  0  0  0  0  0  0  0  0
  186.2250  177.6160  147.7320 C   0  0  0  0  0  1  0  0  0  0  0  0
  188.4830  175.4060  141.5270 C   0  0  0  0  0  2  0  0  0  0  0  0
  187.8320  174.0550  141.2650 C   0  0  1  0  0  3  0  0  0  0  0  0
  190.1820  171.4430  142.5950 C   0  0  0  0  0  3  0  0  0  0  0  0
  191.2200  170.7390  141.9710 C   0  0  0  0  0  3  0  0  0  0  0  0
  188.3910  173.4330  139.6300 S   0  0  0  0  0  0  0  0  0  0  0  0
  190.5680  171.6700  139.8190 C   0  0  0  0  0  3  0  0  0  0  0  0
  189.5320  172.3560  140.4570 C   0  0  0  0  0  0  0  0  0  0  0  0
  191.4140  170.8550  140.5840 C   0  0  0  0  0  3  0  0  0  0  0  0
  189.3490  172.2540  141.8200 C   0  0  0  0  0  0  0  0  0  0  0  0
  188.2300  173.0570  142.3600 C   0  0  0  0  0  2  0  0  0  0  0  0
  193.9000  175.2590  145.1670 N   0  0  0  0  0  2  0  0  0  0  0  0
  194.4950  174.0250  145.6060 C   0  0  0  0  0  0  0  0  0  0  0  0
  193.8100  172.9700  145.7180 O   0  0  0  0  0  0  0  0  0  0  0  0
  195.9540  173.9790  145.9100 C   0  0  0  0  0  2  0  0  0  0  0  0
  196.7830  174.1080  144.6710 C   0  0  0  0  0  0  0  0  0  0  0  0
  197.9410  174.5990  144.7560 O   0  0  0  0  0  0  0  0  0  0  0  0
  196.2900  173.6340  143.4140 N   0  0  0  0  0  2  0  0  0  0  0  0
  197.0730  173.7090  142.1900 C   0  0  1  0  0  3  0  0  0  0  0  0
  197.4330  172.4230  141.7790 O   0  0  0  0  0  1  0  0  0  0  0  0
  192.5990  174.4940  141.2730 C   0  0  0  0  0  1  0  0  0  0  0  0
  194.9850  174.8850  141.6060 N   0  0  0  0  0  0  0  0  0  0  0  0
  196.2810  174.4230  141.0960 C   0  0  2  0  0  3  0  0  0  0  0  0
  196.0790  173.3170  139.6600 S   0  0  0  0  0  0  0  0  0  0  0  0
  193.9580  174.6170  140.6030 C   0  0  1  0  0  3  0  0  0  0  0  0
  193.6120  173.2950  138.5250 C   0  0  0  0  0  1  0  0  0  0  0  0
  195.0800  176.3290  141.7480 C   0  0  0  0  0  1  0  0  0  0  0  0
  194.2930  173.3360  139.8800 C   0  0  1  0  0  3  0  0  0  0  0  0
  1  4  1  0  0  0  0
  1 28  1  0  0  0  0
  2  4  2  0  0  0  0
  3  2  1  0  0  0  0
  5  3  2  0  0  0  0
  5  6  1  0  0  0  0
  6  1  2  0  0  0  0
  7  9  1  0  0  0  0
  8  7  2  0  0  0  0
  8 12  1  0  0  0  0
  9  3  1  0  0  0  0
 10 12  2  0  0  0  0
 10 11  1  0  0  0  0
 11 13  2  0  0  0  0
 12 15  1  0  0  0  0
 13 14  1  0  0  0  0
 14 16  1  0  0  0  0
 15 14  2  0  0  0  0
 16 17  1  0  0  0  0
 18  7  1  0  0  0  0
 19 18  1  1  0  0  0
 19 27  1  0  0  0  0
 21 20  1  0  0  0  0
 22 24  1  0  0  0  0
 22 19  1  0  0  0  0
 23 24  2  0  0  0  0
 23 25  1  0  0  0  0
 24 26  1  0  0  0  0
 25 21  2  0  0  0  0
 26 27  1  0  0  0  0
 26 20  2  0  0  0  0
 28 29  1  0  0  0  0
 29 30  2  0  0  0  0
 29 31  1  0  0  0  0
 32 33  2  0  0  0  0
 32 31  1  0  0  0  0
 34 32  1  0  0  0  0
 35 36  1  6  0  0  0
 35 34  1  0  0  0  0
 38 43  1  0  0  0  0
 39 38  1  0  0  0  0
 39 35  1  1  0  0  0
 40 44  1  0  0  0  0
 40 39  1  0  0  0  0
 41 37  1  1  0  0  0
 41 38  1  0  0  0  0
 44 42  1  6  0  0  0
 44 41  1  0  0  0  0
M  END
>  <MODEL>
5

>  <REMARK>
 VINA RESULT:      -7.3      2.556      3.306
  Name = 
  10 active torsions:
  status: ('A' for Active; 'I' for Inactive)
    1  A    between atoms: C_2  and  C_13
    2  A    between atoms: C_2  and  N_26
    3  A    between atoms: C_3  and  N_32
    4  A    between atoms: C_4  and  C_36
    5  A    between atoms: C_11  and  C_12
    6  A    between atoms: C_11  and  C_41
    7  A    between atoms: C_17  and  C_36
    8  A    between atoms: C_18  and  N_29
    9  A    between atoms: N_20  and  C_23
   10  A    between atoms: C_37  and  O_40
                            x       y       z     vdW  Elec       q    Type
                         _______ _______ _______ _____ _____    ______ ____

>  <TORSDO>
F 10

$$$$
=
 OpenBabel11042418433D

 44 48  0  0  1  0  0  0  0  0999 V2000
  190.1650  172.3650  141.2510 C   0  0  0  0  0  0  0  0  0  0  0  0
  189.5250  173.2260  143.4310 C   0  0  0  0  0  3  0  0  0  0  0  0
  189.2500  174.4790  142.8680 C   0  0  0  0  0  0  0  0  0  0  0  0
  189.9820  172.1770  142.6300 C   0  0  0  0  0  3  0  0  0  0  0  0
  189.4280  174.6640  141.4920 C   0  0  0  0  0  3  0  0  0  0  0  0
  189.8880  173.6150  140.6880 C   0  0  0  0  0  3  0  0  0  0  0  0
  189.4960  176.5920  144.3350 C   0  0  0  0  0  0  0  0  0  0  0  0
  188.9090  177.4390  145.1300 N   0  0  0  0  0  0  0  0  0  0  0  0
  188.7490  175.5730  143.6490 N   0  0  0  0  0  2  0  0  0  0  0  0
  187.1410  176.9790  146.7460 C   0  0  0  0  0  3  0  0  0  0  0  0
  185.8030  177.0030  147.1500 C   0  0  0  0  0  3  0  0  0  0  0  0
  187.5190  177.4970  145.5030 C   0  0  0  0  0  0  0  0  0  0  0  0
  184.8300  177.5470  146.3090 C   0  0  0  0  0  3  0  0  0  0  0  0
  185.1850  178.0650  145.0590 C   0  0  0  0  0  0  0  0  0  0  0  0
  186.5310  178.0350  144.6620 C   0  0  0  0  0  3  0  0  0  0  0  0
  184.1930  178.6040  144.2380 O   0  0  0  0  0  0  0  0  0  0  0  0
  184.0750  178.2680  142.8630 C   0  0  0  0  0  1  0  0  0  0  0  0
  190.9660  176.7520  144.1130 C   0  0  0  0  0  2  0  0  0  0  0  0
  191.7250  176.6790  145.4310 C   0  0  1  0  0  3  0  0  0  0  0  0
  195.1510  175.3570  144.6360 C   0  0  0  0  0  3  0  0  0  0  0  0
  195.6450  174.0460  144.6110 C   0  0  0  0  0  3  0  0  0  0  0  0
  191.4760  175.0150  146.1680 S   0  0  0  0  0  0  0  0  0  0  0  0
  193.5590  173.2310  145.5620 C   0  0  0  0  0  3  0  0  0  0  0  0
  193.0860  174.5450  145.5900 C   0  0  0  0  0  0  0  0  0  0  0  0
  194.8480  172.9840  145.0720 C   0  0  0  0  0  3  0  0  0  0  0  0
  193.8620  175.5870  145.1260 C   0  0  0  0  0  0  0  0  0  0  0  0
  193.2210  176.9190  145.1920 C   0  0  0  0  0  2  0  0  0  0  0  0
  190.6280  171.3090  140.4000 N   0  0  0  0  0  2  0  0  0  0  0  0
  190.0740  170.9340  139.1270 C   0  0  0  0  0  0  0  0  0  0  0  0
  189.1210  171.5810  138.6090 O   0  0  0  0  0  0  0  0  0  0  0  0
  190.6510  169.7750  138.3860 C   0  0  0  0  0  2  0  0  0  0  0  0
  192.0890  169.9970  138.0430 C   0  0  0  0  0  0  0  0  0  0  0  0
  192.8940  169.0280  138.1150 O   0  0  0  0  0  0  0  0  0  0  0  0
  192.5400  171.2770  137.5900 N   0  0  0  0  0  2  0  0  0  0  0  0
  193.9230  171.5310  137.2150 C   0  0  1  0  0  3  0  0  0  0  0  0
  193.9940  171.8490  135.8560 O   0  0  0  0  0  1  0  0  0  0  0  0
  195.6330  171.9490  141.5020 C   0  0  0  0  0  1  0  0  0  0  0  0
  195.4260  172.1310  139.0760 N   0  0  0  0  0  0  0  0  0  0  0  0
  194.5050  172.6590  138.0640 C   0  0  2  0  0  3  0  0  0  0  0  0
  193.1530  173.6180  138.8250 S   0  0  0  0  0  0  0  0  0  0  0  0
  195.1920  172.8250  140.3390 C   0  0  1  0  0  3  0  0  0  0  0  0
  193.5070  174.2910  141.4320 C   0  0  0  0  0  1  0  0  0  0  0  0
  196.7710  172.4740  138.6420 C   0  0  0  0  0  1  0  0  0  0  0  0
  193.7220  173.1420  140.4650 C   0  0  1  0  0  3  0  0  0  0  0  0
  1  4  1  0  0  0  0
  3  2  1  0  0  0  0
  3  9  1  0  0  0  0
  4  2  2  0  0  0  0
  5  3  2  0  0  0  0
  6  1  2  0  0  0  0
  6  5  1  0  0  0  0
  7  8  2  0  0  0  0
  8 12  1  0  0  0  0
  9  7  1  0  0  0  0
 10 11  1  0  0  0  0
 12 10  2  0  0  0  0
 13 11  2  0  0  0  0
 14 13  1  0  0  0  0
 15 14  2  0  0  0  0
 15 12  1  0  0  0  0
 16 14  1  0  0  0  0
 17 16  1  0  0  0  0
 18  7  1  0  0  0  0
 19 18  1  6  0  0  0
 19 22  1  0  0  0  0
 20 26  1  0  0  0  0
 21 20  2  0  0  0  0
 21 25  1  0  0  0  0
 23 24  1  0  0  0  0
 24 22  1  0  0  0  0
 25 23  2  0  0  0  0
 26 27  1  0  0  0  0
 26 24  2  0  0  0  0
 27 19  1  0  0  0  0
 28  1  1  0  0  0  0
 29 28  1  0  0  0  0
 30 29  2  0  0  0  0
 31 29  1  0  0  0  0
 32 33  2  0  0  0  0
 32 31  1  0  0  0  0
 34 32  1  0  0  0  0
 35 36  1  6  0  0  0
 35 34  1  0  0  0  0
 38 41  1  0  0  0  0
 39 35  1  1  0  0  0
 39 40  1  0  0  0  0
 39 38  1  0  0  0  0
 40 44  1  0  0  0  0
 41 44  1  0  0  0  0
 41 37  1  1  0  0  0
 43 38  1  0  0  0  0
 44 42  1  1  0  0  0
M  END
>  <MODEL>
6

>  <REMARK>
 VINA RESULT:      -7.2      3.629      6.298
  Name = 
  10 active torsions:
  status: ('A' for Active; 'I' for Inactive)
    1  A    between atoms: C_2  and  C_13
    2  A    between atoms: C_2  and  N_26
    3  A    between atoms: C_3  and  N_32
    4  A    between atoms: C_4  and  C_36
    5  A    between atoms: C_11  and  C_12
    6  A    between atoms: C_11  and  C_41
    7  A    between atoms: C_17  and  C_36
    8  A    between atoms: C_18  and  N_29
    9  A    between atoms: N_20  and  C_23
   10  A    between atoms: C_37  and  O_40
                            x       y       z     vdW  Elec       q    Type
                         _______ _______ _______ _____ _____    ______ ____

>  <TORSDO>
F 10

$$$$
=
 OpenBabel11042418433D

 44 48  0  0  1  0  0  0  0  0999 V2000
  190.4690  172.2180  141.6950 C   0  0  0  0  0  0  0  0  0  0  0  0
  188.3210  173.0990  142.4120 C   0  0  0  0  0  3  0  0  0  0  0  0
  188.7590  174.4050  142.1580 C   0  0  0  0  0  0  0  0  0  0  0  0
  189.1700  172.0130  142.1850 C   0  0  0  0  0  3  0  0  0  0  0  0
  190.0530  174.6080  141.6650 C   0  0  0  0  0  3  0  0  0  0  0  0
  190.9050  173.5230  141.4390 C   0  0  0  0  0  3  0  0  0  0  0  0
  187.6650  176.2820  143.5580 C   0  0  0  0  0  0  0  0  0  0  0  0
  186.7500  177.2070  143.6110 N   0  0  0  0  0  0  0  0  0  0  0  0
  187.9080  175.5440  142.3480 N   0  0  0  0  0  2  0  0  0  0  0  0
  186.3160  177.7640  141.2770 C   0  0  0  0  0  3  0  0  0  0  0  0
  185.4650  178.1660  140.2430 C   0  0  0  0  0  3  0  0  0  0  0  0
  185.8310  177.6140  142.5800 C   0  0  0  0  0  0  0  0  0  0  0  0
  184.1180  178.4230  140.5080 C   0  0  0  0  0  3  0  0  0  0  0  0
  183.6130  178.2850  141.8050 C   0  0  0  0  0  0  0  0  0  0  0  0
  184.4760  177.8820  142.8360 C   0  0  0  0  0  3  0  0  0  0  0  0
  182.2630  178.5480  142.0430 O   0  0  0  0  0  0  0  0  0  0  0  0
  181.3130  178.6710  140.9950 C   0  0  0  0  0  1  0  0  0  0  0  0
  188.4930  176.0530  144.7800 C   0  0  0  0  0  2  0  0  0  0  0  0
  189.2270  177.3240  145.1850 C   0  0  1  0  0  3  0  0  0  0  0  0
  192.8550  176.7880  144.3710 C   0  0  0  0  0  3  0  0  0  0  0  0
  193.9040  176.2800  145.1480 C   0  0  0  0  0  3  0  0  0  0  0  0
  189.8010  177.1520  146.9210 S   0  0  0  0  0  0  0  0  0  0  0  0
  192.4620  176.2760  147.1080 C   0  0  0  0  0  3  0  0  0  0  0  0
  191.4300  176.7930  146.3210 C   0  0  0  0  0  0  0  0  0  0  0  0
  193.7060  176.0220  146.5150 C   0  0  0  0  0  3  0  0  0  0  0  0
  191.6190  177.0340  144.9760 C   0  0  0  0  0  0  0  0  0  0  0  0
  190.4310  177.5540  144.2640 C   0  0  0  0  0  2  0  0  0  0  0  0
  191.3650  171.1270  141.4470 N   0  0  0  0  0  2  0  0  0  0  0  0
  191.3320  170.2370  140.3180 C   0  0  0  0  0  0  0  0  0  0  0  0
  190.5020  170.3960  139.3790 O   0  0  0  0  0  0  0  0  0  0  0  0
  192.3160  169.1190  140.2350 C   0  0  0  0  0  2  0  0  0  0  0  0
  192.9780  168.8630  141.5510 C   0  0  0  0  0  0  0  0  0  0  0  0
  192.3700  168.1860  142.4230 O   0  0  0  0  0  0  0  0  0  0  0  0
  194.3050  169.3370  141.8020 N   0  0  0  0  0  2  0  0  0  0  0  0
  195.0010  169.0850  143.0540 C   0  0  1  0  0  3  0  0  0  0  0  0
  196.1270  168.2920  142.8180 O   0  0  0  0  0  1  0  0  0  0  0  0
  192.7860  172.8410  144.6220 C   0  0  0  0  0  1  0  0  0  0  0  0
  194.3010  170.9290  144.5340 N   0  0  0  0  0  0  0  0  0  0  0  0
  195.3980  170.4030  143.7150 C   0  0  2  0  0  3  0  0  0  0  0  0
  195.9160  171.6000  142.4400 S   0  0  0  0  0  0  0  0  0  0  0  0
  194.2000  172.3710  144.3220 C   0  0  1  0  0  3  0  0  0  0  0  0
  194.9900  174.1330  142.7560 C   0  0  0  0  0  1  0  0  0  0  0  0
  194.6790  170.7270  145.9240 C   0  0  0  0  0  1  0  0  0  0  0  0
  194.5530  172.6870  142.8890 C   0  0  1  0  0  3  0  0  0  0  0  0
  1  4  1  0  0  0  0
  3  9  1  0  0  0  0
  3  2  1  0  0  0  0
  4  2  2  0  0  0  0
  5  3  2  0  0  0  0
  6  5  1  0  0  0  0
  6  1  2  0  0  0  0
  7  8  2  0  0  0  0
  7 18  1  0  0  0  0
  9  7  1  0  0  0  0
 10 12  1  0  0  0  0
 11 13  1  0  0  0  0
 11 10  2  0  0  0  0
 12 15  2  0  0  0  0
 12  8  1  0  0  0  0
 13 14  2  0  0  0  0
 14 16  1  0  0  0  0
 14 15  1  0  0  0  0
 17 16  1  0  0  0  0
 19 18  1  6  0  0  0
 19 22  1  0  0  0  0
 20 26  2  0  0  0  0
 20 21  1  0  0  0  0
 21 25  2  0  0  0  0
 24 22  1  0  0  0  0
 24 23  2  0  0  0  0
 25 23  1  0  0  0  0
 26 24  1  0  0  0  0
 27 26  1  0  0  0  0
 27 19  1  0  0  0  0
 28  1  1  0  0  0  0
 29 28  1  0  0  0  0
 30 29  2  0  0  0  0
 31 29  1  0  0  0  0
 31 32  1  0  0  0  0
 32 34  1  0  0  0  0
 32 33  2  0  0  0  0
 34 35  1  0  0  0  0
 35 36  1  6  0  0  0
 38 43  1  0  0  0  0
 39 35  1  6  0  0  0
 39 38  1  0  0  0  0
 40 44  1  0  0  0  0
 40 39  1  0  0  0  0
 41 38  1  0  0  0  0
 41 37  1  6  0  0  0
 44 42  1  1  0  0  0
 44 41  1  0  0  0  0
M  END
>  <MODEL>
7

>  <REMARK>
 VINA RESULT:      -7.1      3.043      5.500
  Name = 
  10 active torsions:
  status: ('A' for Active; 'I' for Inactive)
    1  A    between atoms: C_2  and  C_13
    2  A    between atoms: C_2  and  N_26
    3  A    between atoms: C_3  and  N_32
    4  A    between atoms: C_4  and  C_36
    5  A    between atoms: C_11  and  C_12
    6  A    between atoms: C_11  and  C_41
    7  A    between atoms: C_17  and  C_36
    8  A    between atoms: C_18  and  N_29
    9  A    between atoms: N_20  and  C_23
   10  A    between atoms: C_37  and  O_40
                            x       y       z     vdW  Elec       q    Type
                         _______ _______ _______ _____ _____    ______ ____

>  <TORSDO>
F 10

$$$$
=
 OpenBabel11042418433D

 44 48  0  0  1  0  0  0  0  0999 V2000
  190.4410  176.9210  144.2740 C   0  0  0  0  0  0  0  0  0  0  0  0
  192.3850  176.9900  142.8190 C   0  0  0  0  0  3  0  0  0  0  0  0
  192.2200  175.6330  142.5140 C   0  0  0  0  0  0  0  0  0  0  0  0
  191.5040  177.6300  143.6930 C   0  0  0  0  0  3  0  0  0  0  0  0
  191.1560  174.9280  143.0900 C   0  0  0  0  0  3  0  0  0  0  0  0
  190.2740  175.5660  143.9680 C   0  0  0  0  0  3  0  0  0  0  0  0
  193.6850  173.6490  141.7410 C   0  0  0  0  0  0  0  0  0  0  0  0
  194.5680  173.2160  140.8880 N   0  0  0  0  0  0  0  0  0  0  0  0
  193.0830  174.9470  141.5970 N   0  0  0  0  0  2  0  0  0  0  0  0
  196.3440  174.5700  139.9070 C   0  0  0  0  0  3  0  0  0  0  0  0
  196.9190  175.2600  138.8370 C   0  0  0  0  0  3  0  0  0  0  0  0
  195.1230  173.9050  139.7510 C   0  0  0  0  0  0  0  0  0  0  0  0
  196.2740  175.2910  137.5980 C   0  0  0  0  0  3  0  0  0  0  0  0
  195.0510  174.6370  137.4220 C   0  0  0  0  0  0  0  0  0  0  0  0
  194.4800  173.9480  138.5040 C   0  0  0  0  0  3  0  0  0  0  0  0
  194.4260  174.6830  136.1740 O   0  0  0  0  0  0  0  0  0  0  0  0
  193.4380  173.7420  135.7800 C   0  0  0  0  0  1  0  0  0  0  0  0
  193.2730  172.7270  142.8430 C   0  0  0  0  0  2  0  0  0  0  0  0
  194.3230  172.6950  143.9450 C   0  0  1  0  0  3  0  0  0  0  0  0
  193.2760  175.2300  146.5130 C   0  0  0  0  0  3  0  0  0  0  0  0
  193.5950  176.5870  146.6450 C   0  0  0  0  0  3  0  0  0  0  0  0
  195.6280  173.9270  143.5580 S   0  0  0  0  0  0  0  0  0  0  0  0
  195.2210  176.3890  144.8460 C   0  0  0  0  0  3  0  0  0  0  0  0
  194.8980  175.0350  144.7350 C   0  0  0  0  0  0  0  0  0  0  0  0
  194.5660  177.1660  145.8100 C   0  0  0  0  0  3  0  0  0  0  0  0
  193.9360  174.4680  145.5450 C   0  0  0  0  0  0  0  0  0  0  0  0
  193.6800  173.0320  145.2960 C   0  0  0  0  0  2  0  0  0  0  0  0
  189.5160  177.5480  145.1720 N   0  0  0  0  0  2  0  0  0  0  0  0
  189.2810  177.1860  146.5440 C   0  0  0  0  0  0  0  0  0  0  0  0
  189.9510  176.2750  147.1070 O   0  0  0  0  0  0  0  0  0  0  0  0
  188.2450  177.9160  147.3300 C   0  0  0  0  0  2  0  0  0  0  0  0
  186.8660  177.6460  146.8160 C   0  0  0  0  0  0  0  0  0  0  0  0
  186.1490  176.7910  147.4030 O   0  0  0  0  0  0  0  0  0  0  0  0
  186.3470  178.3830  145.7040 N   0  0  0  0  0  2  0  0  0  0  0  0
  185.0010  178.1770  145.1910 C   0  0  1  0  0  3  0  0  0  0  0  0
  184.3820  179.4120  144.9800 O   0  0  0  0  0  1  0  0  0  0  0  0
  187.9270  177.7270  141.6250 C   0  0  0  0  0  1  0  0  0  0  0  0
  186.4300  177.1470  143.4640 N   0  0  0  0  0  0  0  0  0  0  0  0
  185.0460  177.3670  143.8970 C   0  0  2  0  0  3  0  0  0  0  0  0
  184.0670  178.2090  142.6090 S   0  0  0  0  0  0  0  0  0  0  0  0
  186.5100  177.3380  142.0180 C   0  0  1  0  0  3  0  0  0  0  0  0
  185.1920  178.2920  140.1380 C   0  0  0  0  0  1  0  0  0  0  0  0
  186.7370  175.7510  143.7300 C   0  0  0  0  0  1  0  0  0  0  0  0
  185.5470  178.4240  141.6070 C   0  0  1  0  0  3  0  0  0  0  0  0
  1 28  1  0  0  0  0
  2  4  1  0  0  0  0
  3  2  2  0  0  0  0
  3  5  1  0  0  0  0
  4  1  2  0  0  0  0
  5  6  2  0  0  0  0
  6  1  1  0  0  0  0
  7 18  1  0  0  0  0
  8  7  2  0  0  0  0
  9  7  1  0  0  0  0
  9  3  1  0  0  0  0
 11 10  2  0  0  0  0
 12 10  1  0  0  0  0
 12  8  1  0  0  0  0
 13 11  1  0  0  0  0
 14 13  2  0  0  0  0
 14 15  1  0  0  0  0
 15 12  2  0  0  0  0
 16 14  1  0  0  0  0
 17 16  1  0  0  0  0
 19 18  1  6  0  0  0
 19 27  1  0  0  0  0
 20 21  1  0  0  0  0
 22 19  1  0  0  0  0
 22 24  1  0  0  0  0
 23 25  1  0  0  0  0
 24 23  2  0  0  0  0
 24 26  1  0  0  0  0
 25 21  2  0  0  0  0
 26 20  2  0  0  0  0
 27 26  1  0  0  0  0
 28 29  1  0  0  0  0
 29 30  2  0  0  0  0
 29 31  1  0  0  0  0
 32 31  1  0  0  0  0
 32 33  2  0  0  0  0
 34 32  1  0  0  0  0
 35 36  1  6  0  0  0
 35 34  1  0  0  0  0
 38 43  1  0  0  0  0
 38 39  1  0  0  0  0
 39 35  1  1  0  0  0
 40 39  1  0  0  0  0
 41 37  1  1  0  0  0
 41 38  1  0  0  0  0
 44 42  1  6  0  0  0
 44 41  1  0  0  0  0
 44 40  1  0  0  0  0
M  END
>  <MODEL>
8

>  <REMARK>
 VINA RESULT:      -7.1      3.975     10.098
  Name = 
  10 active torsions:
  status: ('A' for Active; 'I' for Inactive)
    1  A    between atoms: C_2  and  C_13
    2  A    between atoms: C_2  and  N_26
    3  A    between atoms: C_3  and  N_32
    4  A    between atoms: C_4  and  C_36
    5  A    between atoms: C_11  and  C_12
    6  A    between atoms: C_11  and  C_41
    7  A    between atoms: C_17  and  C_36
    8  A    between atoms: C_18  and  N_29
    9  A    between atoms: N_20  and  C_23
   10  A    between atoms: C_37  and  O_40
                            x       y       z     vdW  Elec       q    Type
                         _______ _______ _______ _____ _____    ______ ____

>  <TORSDO>
F 10

$$$$
=
 OpenBabel11042418433D

 44 48  0  0  1  0  0  0  0  0999 V2000
  190.1390  173.5720  141.3050 C   0  0  0  0  0  0  0  0  0  0  0  0
  188.2110  174.2920  142.5960 C   0  0  0  0  0  3  0  0  0  0  0  0
  188.9290  175.3960  143.0740 C   0  0  0  0  0  0  0  0  0  0  0  0
  188.8110  173.3850  141.7200 C   0  0  0  0  0  3  0  0  0  0  0  0
  190.2520  175.5840  142.6560 C   0  0  0  0  0  3  0  0  0  0  0  0
  190.8560  174.6750  141.7800 C   0  0  0  0  0  3  0  0  0  0  0  0
  188.9660  177.0960  145.0210 C   0  0  0  0  0  0  0  0  0  0  0  0
  188.2660  177.8390  145.8290 N   0  0  0  0  0  0  0  0  0  0  0  0
  188.3410  176.3670  143.9500 N   0  0  0  0  0  2  0  0  0  0  0  0
  186.2020  178.1070  147.0990 C   0  0  0  0  0  3  0  0  0  0  0  0
  184.8170  178.2820  147.1780 C   0  0  0  0  0  3  0  0  0  0  0  0
  186.8390  178.0300  145.8560 C   0  0  0  0  0  0  0  0  0  0  0  0
  184.0580  178.3810  146.0100 C   0  0  0  0  0  3  0  0  0  0  0  0
  184.6740  178.3010  144.7570 C   0  0  0  0  0  0  0  0  0  0  0  0
  186.0650  178.1240  144.6880 C   0  0  0  0  0  3  0  0  0  0  0  0
  183.8930  178.4030  143.6050 O   0  0  0  0  0  0  0  0  0  0  0  0
  184.4420  178.3030  142.2990 C   0  0  0  0  0  1  0  0  0  0  0  0
  190.4480  177.0720  145.2080 C   0  0  0  0  0  2  0  0  0  0  0  0
  190.8220  176.3400  146.4890 C   0  0  1  0  0  3  0  0  0  0  0  0
  194.5590  175.9470  146.4610 C   0  0  0  0  0  3  0  0  0  0  0  0
  195.3680  174.9120  145.9750 C   0  0  0  0  0  3  0  0  0  0  0  0
  190.8340  174.5340  146.1600 S   0  0  0  0  0  0  0  0  0  0  0  0
  193.3950  173.5490  145.5640 C   0  0  0  0  0  3  0  0  0  0  0  0
  192.6040  174.5870  146.0610 C   0  0  0  0  0  0  0  0  0  0  0  0
  194.7860  173.7150  145.5250 C   0  0  0  0  0  3  0  0  0  0  0  0
  193.1730  175.7680  146.4910 C   0  0  0  0  0  0  0  0  0  0  0  0
  192.2110  176.7870  146.9650 C   0  0  0  0  0  2  0  0  0  0  0  0
  190.7840  172.6630  140.4030 N   0  0  0  0  0  2  0  0  0  0  0  0
  190.8460  172.7820  138.9710 C   0  0  0  0  0  0  0  0  0  0  0  0
  190.3590  173.7830  138.3730 O   0  0  0  0  0  0  0  0  0  0  0  0
  191.5220  171.7190  138.1740 C   0  0  0  0  0  2  0  0  0  0  0  0
  193.0070  171.8920  138.1650 C   0  0  0  0  0  0  0  0  0  0  0  0
  193.7200  171.0480  137.5580 O   0  0  0  0  0  0  0  0  0  0  0  0
  193.6110  173.0270  138.7940 N   0  0  0  0  0  2  0  0  0  0  0  0
  195.0480  173.2540  138.7830 C   0  0  1  0  0  3  0  0  0  0  0  0
  195.3360  174.4340  138.0930 O   0  0  0  0  0  1  0  0  0  0  0  0
  194.2110  175.8100  142.5570 C   0  0  0  0  0  1  0  0  0  0  0  0
  194.5770  173.8670  141.1250 N   0  0  0  0  0  0  0  0  0  0  0  0
  195.5850  173.3190  140.2120 C   0  0  2  0  0  3  0  0  0  0  0  0
  197.1230  174.2980  140.2470 S   0  0  0  0  0  0  0  0  0  0  0  0
  195.2250  174.8000  142.0430 C   0  0  1  0  0  3  0  0  0  0  0  0
  197.3560  176.0550  142.3060 C   0  0  0  0  0  1  0  0  0  0  0  0
  194.0830  172.7550  141.9230 C   0  0  0  0  0  1  0  0  0  0  0  0
  196.3390  175.5140  141.3180 C   0  0  1  0  0  3  0  0  0  0  0  0
  1  4  2  0  0  0  0
  1  6  1  0  0  0  0
  2  3  2  0  0  0  0
  3  9  1  0  0  0  0
  4  2  1  0  0  0  0
  5  3  1  0  0  0  0
  6  5  2  0  0  0  0
  7 18  1  0  0  0  0
  7  8  2  0  0  0  0
  8 12  1  0  0  0  0
  9  7  1  0  0  0  0
 10 11  1  0  0  0  0
 12 10  2  0  0  0  0
 13 11  2  0  0  0  0
 14 13  1  0  0  0  0
 15 14  2  0  0  0  0
 15 12  1  0  0  0  0
 16 14  1  0  0  0  0
 17 16  1  0  0  0  0
 19 18  1  6  0  0  0
 19 27  1  0  0  0  0
 20 26  1  0  0  0  0
 21 20  2  0  0  0  0
 22 19  1  0  0  0  0
 23 24  1  0  0  0  0
 24 22  1  0  0  0  0
 24 26  2  0  0  0  0
 25 23  2  0  0  0  0
 25 21  1  0  0  0  0
 26 27  1  0  0  0  0
 28  1  1  0  0  0  0
 29 28  1  0  0  0  0
 30 29  2  0  0  0  0
 31 29  1  0  0  0  0
 32 31  1  0  0  0  0
 32 34  1  0  0  0  0
 33 32  2  0  0  0  0
 35 36  1  1  0  0  0
 35 34  1  0  0  0  0
 38 43  1  0  0  0  0
 38 41  1  0  0  0  0
 39 35  1  6  0  0  0
 39 40  1  0  0  0  0
 39 38  1  0  0  0  0
 40 44  1  0  0  0  0
 41 37  1  6  0  0  0
 44 41  1  0  0  0  0
 44 42  1  1  0  0  0
M  END
>  <MODEL>
9

>  <REMARK>
 VINA RESULT:      -7.1      3.671      6.208
  Name = 
  10 active torsions:
  status: ('A' for Active; 'I' for Inactive)
    1  A    between atoms: C_2  and  C_13
    2  A    between atoms: C_2  and  N_26
    3  A    between atoms: C_3  and  N_32
    4  A    between atoms: C_4  and  C_36
    5  A    between atoms: C_11  and  C_12
    6  A    between atoms: C_11  and  C_41
    7  A    between atoms: C_17  and  C_36
    8  A    between atoms: C_18  and  N_29
    9  A    between atoms: N_20  and  C_23
   10  A    between atoms: C_37  and  O_40
                            x       y       z     vdW  Elec       q    Type
                         _______ _______ _______ _____ _____    ______ ____

>  <TORSDO>
F 10

$$$$
