=
 OpenBabel11042417253D

 29 32  0  0  1  0  0  0  0  0999 V2000
  185.1060  178.9750  144.2950 C   0  0  0  0  0  3  0  0  0  0  0  0
  186.4920  176.8030  143.1770 C   0  0  0  0  0  0  0  0  0  0  0  0
  186.3610  178.6160  144.7880 C   0  0  0  0  0  3  0  0  0  0  0  0
  184.5330  178.2460  143.2540 C   0  0  0  0  0  0  0  0  0  0  0  0
  185.2280  177.1740  142.6940 C   0  0  0  0  0  3  0  0  0  0  0  0
  187.0710  177.5280  144.2510 C   0  0  0  0  0  0  0  0  0  0  0  0
  190.8130  177.5260  144.8860 C   0  0  0  0  0  3  0  0  0  0  0  0
  189.7780  176.0020  146.4520 C   0  0  0  0  0  3  0  0  0  0  0  0
  188.4000  177.1930  144.8340 C   0  0  0  0  0  0  0  0  0  0  0  0
  190.9230  176.6190  145.9420 C   0  0  0  0  0  0  0  0  0  0  0  0
  188.5260  176.2910  145.9030 C   0  0  0  0  0  3  0  0  0  0  0  0
  189.5600  177.8130  144.3390 C   0  0  0  0  0  3  0  0  0  0  0  0
  192.2090  176.3220  146.5040 C   0  0  0  0  0  0  0  0  0  0  0  0
  193.2470  176.0810  146.9570 N   0  0  0  0  0  0  0  0  0  0  0  0
  183.2040  178.6400  142.7100 C   0  0  0  0  0  2  0  0  0  0  0  0
  183.0820  178.2050  141.3280 N   0  0  0  0  0  2  0  0  0  0  0  0
  181.6690  178.2270  140.9990 C   0  0  0  0  0  1  0  0  0  0  0  0
  187.1990  175.7210  142.5570 N   0  0  0  0  0  2  0  0  0  0  0  0
  189.4230  173.5670  136.2850 C   0  0  0  0  0  1  0  0  0  0  0  0
  187.1850  176.1900  139.4860 O   0  0  0  0  0  0  0  0  0  0  0  0
  189.3210  173.9330  140.9490 C   0  0  1  0  0  3  0  0  0  0  0  0
  188.6620  174.0060  137.4420 N   0  0  0  0  0  2  0  0  0  0  0  0
  189.1370  173.8150  138.7750 C   0  0  0  0  0  0  0  0  0  0  0  0
  190.4560  173.2460  140.4480 N   0  0  0  0  0  2  0  0  0  0  0  0
  187.8920  175.4950  140.2620 C   0  0  0  0  0  0  0  0  0  0  0  0
  189.3760  174.8580  141.9020 C   0  0  0  0  0  2  0  0  0  0  0  0
  188.3140  175.9000  141.6350 C   0  0  2  0  0  3  0  0  0  0  0  0
  190.2610  173.2270  139.0570 N   0  0  0  0  0  0  0  0  0  0  0  0
  188.4080  174.2250  139.9260 N   0  0  0  0  0  0  0  0  0  0  0  0
  1  3  1  0  0  0  0
  2  6  1  0  0  0  0
  4  1  2  0  0  0  0
  5  2  2  0  0  0  0
  5  4  1  0  0  0  0
  6  3  2  0  0  0  0
  6  9  1  0  0  0  0
  7 10  1  0  0  0  0
  9 11  2  0  0  0  0
 10  8  2  0  0  0  0
 10 13  1  0  0  0  0
 11  8  1  0  0  0  0
 12  9  1  0  0  0  0
 12  7  2  0  0  0  0
 13 14  3  0  0  0  0
 15  4  1  0  0  0  0
 16 15  1  0  0  0  0
 17 16  1  0  0  0  0
 18  2  1  0  0  0  0
 19 22  1  0  0  0  0
 20 25  2  0  0  0  0
 21 26  1  6  0  0  0
 22 23  1  0  0  0  0
 23 28  2  0  0  0  0
 23 29  1  0  0  0  0
 24 21  1  0  0  0  0
 25 27  1  0  0  0  0
 27 26  1  0  0  0  0
 27 18  1  1  0  0  0
 28 24  1  0  0  0  0
 29 25  1  0  0  0  0
 29 21  1  0  0  0  0
M  END
>  <MODEL>
1

>  <REMARK>
 VINA RESULT:      -6.8      0.000      0.000
  Name = 
  6 active torsions:
  status: ('A' for Active; 'I' for Inactive)
    1  A    between atoms: C_1  and  C_12
    2  A    between atoms: C_4  and  C_17
    3  A    between atoms: C_4  and  N_23
    4  A    between atoms: C_11  and  C_27
    5  A    between atoms: C_15  and  N_21
    6  A    between atoms: C_20  and  N_21
                            x       y       z     vdW  Elec       q    Type
                         _______ _______ _______ _____ _____    ______ ____

>  <TORSDO>
F 6

$$$$
=
 OpenBabel11042417253D

 29 32  0  0  1  0  0  0  0  0999 V2000
  187.0930  177.5370  146.9300 C   0  0  0  0  0  3  0  0  0  0  0  0
  188.1950  176.4180  144.6010 C   0  0  0  0  0  0  0  0  0  0  0  0
  188.4480  177.2120  146.8830 C   0  0  0  0  0  3  0  0  0  0  0  0
  186.2800  177.2940  145.8230 C   0  0  0  0  0  0  0  0  0  0  0  0
  186.8320  176.7480  144.6640 C   0  0  0  0  0  3  0  0  0  0  0  0
  189.0220  176.6420  145.7330 C   0  0  0  0  0  0  0  0  0  0  0  0
  192.2820  174.8600  146.5110 C   0  0  0  0  0  3  0  0  0  0  0  0
  192.7650  176.7160  145.0390 C   0  0  0  0  0  3  0  0  0  0  0  0
  190.4730  176.3080  145.7560 C   0  0  0  0  0  0  0  0  0  0  0  0
  193.2020  175.6190  145.7850 C   0  0  0  0  0  0  0  0  0  0  0  0
  191.4090  177.0550  145.0230 C   0  0  0  0  0  3  0  0  0  0  0  0
  190.9260  175.2000  146.4930 C   0  0  0  0  0  3  0  0  0  0  0  0
  194.5940  175.2710  145.8020 C   0  0  0  0  0  0  0  0  0  0  0  0
  195.7170  174.9900  145.8180 N   0  0  0  0  0  0  0  0  0  0  0  0
  184.8370  177.6620  145.8610 C   0  0  0  0  0  2  0  0  0  0  0  0
  184.6670  179.0550  145.4810 N   0  0  0  0  0  2  0  0  0  0  0  0
  184.0730  179.0650  144.1570 C   0  0  0  0  0  1  0  0  0  0  0  0
  188.7410  175.8920  143.3850 N   0  0  0  0  0  2  0  0  0  0  0  0
  192.3070  171.5140  139.2580 C   0  0  0  0  0  1  0  0  0  0  0  0
  191.2970  174.1660  143.0100 O   0  0  0  0  0  0  0  0  0  0  0  0
  188.6230  173.9060  140.8690 C   0  0  1  0  0  3  0  0  0  0  0  0
  191.8550  172.5890  140.1230 N   0  0  0  0  0  2  0  0  0  0  0  0
  190.4790  172.9600  140.2110 C   0  0  0  0  0  0  0  0  0  0  0  0
  188.2990  172.9480  139.8750 N   0  0  0  0  0  2  0  0  0  0  0  0
  190.1810  174.2160  142.4290 C   0  0  0  0  0  0  0  0  0  0  0  0
  187.9260  174.0760  141.9890 C   0  0  0  0  0  2  0  0  0  0  0  0
  188.8720  174.4680  143.1000 C   0  0  2  0  0  3  0  0  0  0  0  0
  189.5370  172.3870  139.5220 N   0  0  0  0  0  0  0  0  0  0  0  0
  190.0100  174.0160  141.0420 N   0  0  0  0  0  0  0  0  0  0  0  0
  2  5  2  0  0  0  0
  2  6  1  0  0  0  0
  3  1  1  0  0  0  0
  4 15  1  0  0  0  0
  4  1  2  0  0  0  0
  5  4  1  0  0  0  0
  6  9  1  0  0  0  0
  6  3  2  0  0  0  0
  8 10  1  0  0  0  0
  9 12  2  0  0  0  0
 10 13  1  0  0  0  0
 10  7  2  0  0  0  0
 11  8  2  0  0  0  0
 11  9  1  0  0  0  0
 12  7  1  0  0  0  0
 13 14  3  0  0  0  0
 16 15  1  0  0  0  0
 17 16  1  0  0  0  0
 18  2  1  0  0  0  0
 19 22  1  0  0  0  0
 21 29  1  0  0  0  0
 21 26  1  1  0  0  0
 22 23  1  0  0  0  0
 23 29  1  0  0  0  0
 24 21  1  0  0  0  0
 25 20  2  0  0  0  0
 25 27  1  0  0  0  0
 26 27  1  0  0  0  0
 27 18  1  6  0  0  0
 28 24  1  0  0  0  0
 28 23  2  0  0  0  0
 29 25  1  0  0  0  0
M  END
>  <MODEL>
2

>  <REMARK>
 VINA RESULT:      -6.8      2.281      3.158
  Name = 
  6 active torsions:
  status: ('A' for Active; 'I' for Inactive)
    1  A    between atoms: C_1  and  C_12
    2  A    between atoms: C_4  and  C_17
    3  A    between atoms: C_4  and  N_23
    4  A    between atoms: C_11  and  C_27
    5  A    between atoms: C_15  and  N_21
    6  A    between atoms: C_20  and  N_21
                            x       y       z     vdW  Elec       q    Type
                         _______ _______ _______ _____ _____    ______ ____

>  <TORSDO>
F 6

$$$$
=
 OpenBabel11042417253D

 29 32  0  0  1  0  0  0  0  0999 V2000
  187.2380  177.9680  146.8350 C   0  0  0  0  0  3  0  0  0  0  0  0
  188.1640  176.1440  144.9110 C   0  0  0  0  0  0  0  0  0  0  0  0
  188.5810  177.5930  146.8150 C   0  0  0  0  0  3  0  0  0  0  0  0
  186.3500  177.4270  145.9060 C   0  0  0  0  0  0  0  0  0  0  0  0
  186.8150  176.5280  144.9450 C   0  0  0  0  0  3  0  0  0  0  0  0
  189.0680  176.6750  145.8680 C   0  0  0  0  0  0  0  0  0  0  0  0
  192.2820  174.8450  146.7200 C   0  0  0  0  0  3  0  0  0  0  0  0
  192.8160  176.6460  145.1990 C   0  0  0  0  0  3  0  0  0  0  0  0
  190.5110  176.3100  145.9110 C   0  0  0  0  0  0  0  0  0  0  0  0
  193.2230  175.5620  145.9790 C   0  0  0  0  0  0  0  0  0  0  0  0
  191.4680  177.0140  145.1640 C   0  0  0  0  0  3  0  0  0  0  0  0
  190.9340  175.2140  146.6830 C   0  0  0  0  0  3  0  0  0  0  0  0
  194.6070  175.1840  146.0170 C   0  0  0  0  0  0  0  0  0  0  0  0
  195.7240  174.8790  146.0490 N   0  0  0  0  0  0  0  0  0  0  0  0
  184.9200  177.8420  145.9100 C   0  0  0  0  0  2  0  0  0  0  0  0
  184.4950  178.1770  144.5610 N   0  0  0  0  0  2  0  0  0  0  0  0
  184.8350  179.5710  144.3430 C   0  0  0  0  0  1  0  0  0  0  0  0
  188.6200  175.2480  143.8880 N   0  0  0  0  0  2  0  0  0  0  0  0
  188.5410  174.1010  136.9890 C   0  0  0  0  0  1  0  0  0  0  0  0
  187.4180  176.0280  141.1320 O   0  0  0  0  0  0  0  0  0  0  0  0
  190.1500  173.9600  141.3810 C   0  0  1  0  0  3  0  0  0  0  0  0
  188.2280  174.3030  138.3930 N   0  0  0  0  0  2  0  0  0  0  0  0
  189.1810  174.0450  139.4240 C   0  0  0  0  0  0  0  0  0  0  0  0
  191.0760  173.4990  140.4120 N   0  0  0  0  0  2  0  0  0  0  0  0
  188.4260  175.3640  141.4910 C   0  0  0  0  0  0  0  0  0  0  0  0
  190.4680  174.7790  142.3800 C   0  0  0  0  0  2  0  0  0  0  0  0
  189.2890  175.6800  142.6670 C   0  0  2  0  0  3  0  0  0  0  0  0
  190.3800  173.5980  139.1960 N   0  0  0  0  0  0  0  0  0  0  0  0
  188.8980  174.2230  140.8080 N   0  0  0  0  0  0  0  0  0  0  0  0
  2  5  2  0  0  0  0
  2  6  1  0  0  0  0
  3  1  1  0  0  0  0
  4 15  1  0  0  0  0
  4  1  2  0  0  0  0
  5  4  1  0  0  0  0
  6  9  1  0  0  0  0
  6  3  2  0  0  0  0
  8 10  1  0  0  0  0
  9 12  2  0  0  0  0
 10 13  1  0  0  0  0
 10  7  2  0  0  0  0
 11  8  2  0  0  0  0
 11  9  1  0  0  0  0
 12  7  1  0  0  0  0
 13 14  3  0  0  0  0
 16 15  1  0  0  0  0
 17 16  1  0  0  0  0
 18  2  1  0  0  0  0
 19 22  1  0  0  0  0
 20 25  2  0  0  0  0
 21 26  1  6  0  0  0
 22 23  1  0  0  0  0
 23 29  1  0  0  0  0
 24 21  1  0  0  0  0
 25 27  1  0  0  0  0
 26 27  1  0  0  0  0
 27 18  1  1  0  0  0
 28 23  2  0  0  0  0
 28 24  1  0  0  0  0
 29 21  1  0  0  0  0
 29 25  1  0  0  0  0
M  END
>  <MODEL>
3

>  <REMARK>
 VINA RESULT:      -6.8      1.803      2.614
  Name = 
  6 active torsions:
  status: ('A' for Active; 'I' for Inactive)
    1  A    between atoms: C_1  and  C_12
    2  A    between atoms: C_4  and  C_17
    3  A    between atoms: C_4  and  N_23
    4  A    between atoms: C_11  and  C_27
    5  A    between atoms: C_15  and  N_21
    6  A    between atoms: C_20  and  N_21
                            x       y       z     vdW  Elec       q    Type
                         _______ _______ _______ _____ _____    ______ ____

>  <TORSDO>
F 6

$$$$
=
 OpenBabel11042417253D

 29 32  0  0  1  0  0  0  0  0999 V2000
  194.5610  175.6580  146.4970 C   0  0  0  0  0  3  0  0  0  0  0  0
  192.5720  174.7740  144.7240 C   0  0  0  0  0  0  0  0  0  0  0  0
  193.2190  175.9310  146.7590 C   0  0  0  0  0  3  0  0  0  0  0  0
  194.9180  174.9570  145.3460 C   0  0  0  0  0  0  0  0  0  0  0  0
  193.9270  174.5100  144.4720 C   0  0  0  0  0  3  0  0  0  0  0  0
  192.2050  175.5070  145.8820 C   0  0  0  0  0  0  0  0  0  0  0  0
  188.9700  177.4590  146.2450 C   0  0  0  0  0  3  0  0  0  0  0  0
  188.5910  175.2100  147.0470 C   0  0  0  0  0  3  0  0  0  0  0  0
  190.7920  175.8430  146.2170 C   0  0  0  0  0  0  0  0  0  0  0  0
  188.1170  176.4980  146.7920 C   0  0  0  0  0  0  0  0  0  0  0  0
  189.9200  174.8850  146.7580 C   0  0  0  0  0  3  0  0  0  0  0  0
  190.2970  177.1320  145.9560 C   0  0  0  0  0  3  0  0  0  0  0  0
  186.7540  176.8330  147.0900 C   0  0  0  0  0  0  0  0  0  0  0  0
  185.6530  177.1020  147.3310 N   0  0  0  0  0  0  0  0  0  0  0  0
  196.3480  174.6440  145.0750 C   0  0  0  0  0  2  0  0  0  0  0  0
  196.8910  173.8230  146.1460 N   0  0  0  0  0  2  0  0  0  0  0  0
  196.8410  172.4460  145.6920 C   0  0  0  0  0  1  0  0  0  0  0  0
  191.5730  174.2690  143.8270 N   0  0  0  0  0  2  0  0  0  0  0  0
  186.6650  177.2810  139.8570 C   0  0  0  0  0  1  0  0  0  0  0  0
  190.2710  176.9180  142.8570 O   0  0  0  0  0  0  0  0  0  0  0  0
  189.5130  173.9020  141.3970 C   0  0  1  0  0  3  0  0  0  0  0  0
  187.5550  176.8480  140.9200 N   0  0  0  0  0  2  0  0  0  0  0  0
  188.1960  175.5730  140.8960 C   0  0  0  0  0  0  0  0  0  0  0  0
  188.8300  173.5790  140.1960 N   0  0  0  0  0  2  0  0  0  0  0  0
  190.2230  175.7230  142.4620 C   0  0  0  0  0  0  0  0  0  0  0  0
  190.8070  173.6700  141.5990 C   0  0  0  0  0  2  0  0  0  0  0  0
  191.3700  174.7670  142.4720 C   0  0  2  0  0  3  0  0  0  0  0  0
  188.0250  174.7020  139.9460 N   0  0  0  0  0  0  0  0  0  0  0  0
  189.0640  175.1190  141.9280 N   0  0  0  0  0  0  0  0  0  0  0  0
  1  3  1  0  0  0  0
  2  6  1  0  0  0  0
  4  1  2  0  0  0  0
  5  2  2  0  0  0  0
  5  4  1  0  0  0  0
  6  9  1  0  0  0  0
  6  3  2  0  0  0  0
  7 10  1  0  0  0  0
  9 11  2  0  0  0  0
 10  8  2  0  0  0  0
 10 13  1  0  0  0  0
 11  8  1  0  0  0  0
 12  9  1  0  0  0  0
 12  7  2  0  0  0  0
 13 14  3  0  0  0  0
 15  4  1  0  0  0  0
 15 16  1  0  0  0  0
 17 16  1  0  0  0  0
 18  2  1  0  0  0  0
 19 22  1  0  0  0  0
 21 26  1  6  0  0  0
 21 29  1  0  0  0  0
 23 22  1  0  0  0  0
 23 29  1  0  0  0  0
 24 21  1  0  0  0  0
 25 27  1  0  0  0  0
 25 20  2  0  0  0  0
 26 27  1  0  0  0  0
 27 18  1  1  0  0  0
 28 24  1  0  0  0  0
 28 23  2  0  0  0  0
 29 25  1  0  0  0  0
M  END
>  <MODEL>
4

>  <REMARK>
 VINA RESULT:      -6.8      2.887      7.034
  Name = 
  6 active torsions:
  status: ('A' for Active; 'I' for Inactive)
    1  A    between atoms: C_1  and  C_12
    2  A    between atoms: C_4  and  C_17
    3  A    between atoms: C_4  and  N_23
    4  A    between atoms: C_11  and  C_27
    5  A    between atoms: C_15  and  N_21
    6  A    between atoms: C_20  and  N_21
                            x       y       z     vdW  Elec       q    Type
                         _______ _______ _______ _____ _____    ______ ____

>  <TORSDO>
F 6

$$$$
=
 OpenBabel11042417253D

 29 32  0  0  1  0  0  0  0  0999 V2000
  188.5600  175.3980  147.2700 C   0  0  0  0  0  3  0  0  0  0  0  0
  190.1520  176.8140  145.4400 C   0  0  0  0  0  0  0  0  0  0  0  0
  189.9130  175.0890  147.1340 C   0  0  0  0  0  3  0  0  0  0  0  0
  187.9930  176.4030  146.4880 C   0  0  0  0  0  0  0  0  0  0  0  0
  188.7880  177.1110  145.5860 C   0  0  0  0  0  3  0  0  0  0  0  0
  190.7290  175.7770  146.2180 C   0  0  0  0  0  0  0  0  0  0  0  0
  193.8520  173.7370  145.5130 C   0  0  0  0  0  3  0  0  0  0  0  0
  194.5330  175.9080  146.3300 C   0  0  0  0  0  3  0  0  0  0  0  0
  192.1630  175.3870  146.1150 C   0  0  0  0  0  0  0  0  0  0  0  0
  194.8630  174.6340  145.8620 C   0  0  0  0  0  0  0  0  0  0  0  0
  193.1920  176.2810  146.4520 C   0  0  0  0  0  3  0  0  0  0  0  0
  192.5110  174.1130  145.6350 C   0  0  0  0  0  3  0  0  0  0  0  0
  196.2400  174.2500  145.7380 C   0  0  0  0  0  0  0  0  0  0  0  0
  197.3510  173.9410  145.6380 N   0  0  0  0  0  0  0  0  0  0  0  0
  186.5540  176.7510  146.6470 C   0  0  0  0  0  2  0  0  0  0  0  0
  186.4050  177.8280  147.6120 N   0  0  0  0  0  2  0  0  0  0  0  0
  185.5600  178.8360  146.9970 C   0  0  0  0  0  1  0  0  0  0  0  0
  190.9520  177.5840  144.5330 N   0  0  0  0  0  2  0  0  0  0  0  0
  188.4730  173.2080  139.6720 C   0  0  0  0  0  1  0  0  0  0  0  0
  188.6500  176.9230  142.5540 O   0  0  0  0  0  0  0  0  0  0  0  0
  191.6350  175.2240  142.4720 C   0  0  1  0  0  3  0  0  0  0  0  0
  188.6880  174.0730  140.8190 N   0  0  0  0  0  2  0  0  0  0  0  0
  189.9950  174.3460  141.3240 C   0  0  0  0  0  0  0  0  0  0  0  0
  192.1930  174.3410  141.5120 N   0  0  0  0  0  2  0  0  0  0  0  0
  189.8330  176.5130  142.6890 C   0  0  0  0  0  0  0  0  0  0  0  0
  192.1330  176.4240  142.7520 C   0  0  0  0  0  2  0  0  0  0  0  0
  190.9950  177.3580  143.0930 C   0  0  2  0  0  3  0  0  0  0  0  0
  191.0790  173.8370  140.8190 N   0  0  0  0  0  0  0  0  0  0  0  0
  190.2340  175.1800  142.4520 N   0  0  0  0  0  0  0  0  0  0  0  0
  2  5  2  0  0  0  0
  2  6  1  0  0  0  0
  3  1  1  0  0  0  0
  4 15  1  0  0  0  0
  4  1  2  0  0  0  0
  5  4  1  0  0  0  0
  6  3  2  0  0  0  0
  7 12  2  0  0  0  0
  7 10  1  0  0  0  0
  8 11  1  0  0  0  0
  9  6  1  0  0  0  0
  9 11  2  0  0  0  0
 10  8  2  0  0  0  0
 12  9  1  0  0  0  0
 13 10  1  0  0  0  0
 14 13  3  0  0  0  0
 15 16  1  0  0  0  0
 17 16  1  0  0  0  0
 18  2  1  0  0  0  0
 19 22  1  0  0  0  0
 20 25  2  0  0  0  0
 21 26  1  6  0  0  0
 22 23  1  0  0  0  0
 23 29  1  0  0  0  0
 24 21  1  0  0  0  0
 25 27  1  0  0  0  0
 26 27  1  0  0  0  0
 27 18  1  1  0  0  0
 28 23  2  0  0  0  0
 28 24  1  0  0  0  0
 29 21  1  0  0  0  0
 29 25  1  0  0  0  0
M  END
>  <MODEL>
5

>  <REMARK>
 VINA RESULT:      -6.8      3.055      4.492
  Name = 
  6 active torsions:
  status: ('A' for Active; 'I' for Inactive)
    1  A    between atoms: C_1  and  C_12
    2  A    between atoms: C_4  and  C_17
    3  A    between atoms: C_4  and  N_23
    4  A    between atoms: C_11  and  C_27
    5  A    between atoms: C_15  and  N_21
    6  A    between atoms: C_20  and  N_21
                            x       y       z     vdW  Elec       q    Type
                         _______ _______ _______ _____ _____    ______ ____

>  <TORSDO>
F 6

$$$$
=
 OpenBabel11042417253D

 29 32  0  0  1  0  0  0  0  0999 V2000
  190.0450  177.2380  146.5430 C   0  0  0  0  0  3  0  0  0  0  0  0
  190.0170  176.1180  143.9680 C   0  0  0  0  0  0  0  0  0  0  0  0
  188.9740  177.4850  145.6840 C   0  0  0  0  0  3  0  0  0  0  0  0
  191.1100  176.4440  146.1180 C   0  0  0  0  0  0  0  0  0  0  0  0
  191.0880  175.8800  144.8420 C   0  0  0  0  0  3  0  0  0  0  0  0
  188.9410  176.9430  144.3870 C   0  0  0  0  0  0  0  0  0  0  0  0
  185.3890  177.0620  143.0530 C   0  0  0  0  0  3  0  0  0  0  0  0
  186.7920  178.3810  141.5920 C   0  0  0  0  0  3  0  0  0  0  0  0
  187.7730  177.2580  143.5180 C   0  0  0  0  0  0  0  0  0  0  0  0
  185.5350  177.8710  141.9250 C   0  0  0  0  0  0  0  0  0  0  0  0
  187.9020  178.0790  142.3860 C   0  0  0  0  0  3  0  0  0  0  0  0
  186.5000  176.7610  143.8460 C   0  0  0  0  0  3  0  0  0  0  0  0
  184.3960  178.1810  141.1090 C   0  0  0  0  0  0  0  0  0  0  0  0
  183.4760  178.4320  140.4520 N   0  0  0  0  0  0  0  0  0  0  0  0
  192.2440  176.1590  147.0410 C   0  0  0  0  0  2  0  0  0  0  0  0
  193.4150  175.7540  146.2810 N   0  0  0  0  0  2  0  0  0  0  0  0
  194.3870  176.8260  146.3950 C   0  0  0  0  0  1  0  0  0  0  0  0
  190.0040  175.4950  142.6760 N   0  0  0  0  0  2  0  0  0  0  0  0
  190.4420  169.6610  138.8440 C   0  0  0  0  0  1  0  0  0  0  0  0
  190.9160  172.5280  142.5440 O   0  0  0  0  0  0  0  0  0  0  0  0
  188.9450  173.9140  140.0950 C   0  0  1  0  0  3  0  0  0  0  0  0
  190.6760  170.8200  139.6880 N   0  0  0  0  0  2  0  0  0  0  0  0
  189.8450  171.9790  139.6260 C   0  0  0  0  0  0  0  0  0  0  0  0
  188.2050  173.3300  139.0350 N   0  0  0  0  0  2  0  0  0  0  0  0
  190.1580  173.2440  141.8370 C   0  0  0  0  0  0  0  0  0  0  0  0
  188.3910  174.5390  141.1300 C   0  0  0  0  0  2  0  0  0  0  0  0
  189.2370  174.2970  142.3570 C   0  0  2  0  0  3  0  0  0  0  0  0
  188.8400  172.0980  138.8110 N   0  0  0  0  0  0  0  0  0  0  0  0
  190.0580  173.1320  140.4330 N   0  0  0  0  0  0  0  0  0  0  0  0
  2  6  2  0  0  0  0
  2  5  1  0  0  0  0
  3  1  2  0  0  0  0
  4  1  1  0  0  0  0
  4 15  1  0  0  0  0
  5  4  2  0  0  0  0
  6  3  1  0  0  0  0
  7 12  1  0  0  0  0
  8 10  1  0  0  0  0
  8 11  2  0  0  0  0
  9 12  2  0  0  0  0
  9  6  1  0  0  0  0
 10  7  2  0  0  0  0
 11  9  1  0  0  0  0
 13 10  1  0  0  0  0
 14 13  3  0  0  0  0
 16 17  1  0  0  0  0
 16 15  1  0  0  0  0
 18  2  1  0  0  0  0
 19 22  1  0  0  0  0
 21 29  1  0  0  0  0
 21 26  1  1  0  0  0
 23 22  1  0  0  0  0
 23 29  1  0  0  0  0
 24 21  1  0  0  0  0
 25 27  1  0  0  0  0
 25 20  2  0  0  0  0
 26 27  1  0  0  0  0
 27 18  1  6  0  0  0
 28 24  1  0  0  0  0
 28 23  2  0  0  0  0
 29 25  1  0  0  0  0
M  END
>  <MODEL>
6

>  <REMARK>
 VINA RESULT:      -6.7      2.000      6.158
  Name = 
  6 active torsions:
  status: ('A' for Active; 'I' for Inactive)
    1  A    between atoms: C_1  and  C_12
    2  A    between atoms: C_4  and  C_17
    3  A    between atoms: C_4  and  N_23
    4  A    between atoms: C_11  and  C_27
    5  A    between atoms: C_15  and  N_21
    6  A    between atoms: C_20  and  N_21
                            x       y       z     vdW  Elec       q    Type
                         _______ _______ _______ _____ _____    ______ ____

>  <TORSDO>
F 6

$$$$
=
 OpenBabel11042417253D

 29 32  0  0  1  0  0  0  0  0999 V2000
  184.9270  178.8840  142.7850 C   0  0  0  0  0  3  0  0  0  0  0  0
  187.0520  177.1640  142.1430 C   0  0  0  0  0  0  0  0  0  0  0  0
  185.9020  178.5900  143.7380 C   0  0  0  0  0  3  0  0  0  0  0  0
  185.0010  178.3140  141.5150 C   0  0  0  0  0  0  0  0  0  0  0  0
  186.0620  177.4670  141.1960 C   0  0  0  0  0  3  0  0  0  0  0  0
  186.9710  177.7250  143.4440 C   0  0  0  0  0  0  0  0  0  0  0  0
  188.5100  176.4580  146.6750 C   0  0  0  0  0  3  0  0  0  0  0  0
  190.2430  177.5380  145.3820 C   0  0  0  0  0  3  0  0  0  0  0  0
  187.9700  177.4440  144.5130 C   0  0  0  0  0  0  0  0  0  0  0  0
  189.8400  176.8540  146.5310 C   0  0  0  0  0  0  0  0  0  0  0  0
  189.3140  177.8270  144.3790 C   0  0  0  0  0  3  0  0  0  0  0  0
  187.5820  176.7470  145.6700 C   0  0  0  0  0  3  0  0  0  0  0  0
  190.7940  176.5590  147.5620 C   0  0  0  0  0  0  0  0  0  0  0  0
  191.5650  176.3200  148.3920 N   0  0  0  0  0  0  0  0  0  0  0  0
  183.9740  178.6440  140.4880 C   0  0  0  0  0  2  0  0  0  0  0  0
  182.9070  177.6570  140.5130 N   0  0  0  0  0  2  0  0  0  0  0  0
  181.6970  178.3510  140.9160 C   0  0  0  0  0  1  0  0  0  0  0  0
  188.1520  176.3210  141.7740 N   0  0  0  0  0  2  0  0  0  0  0  0
  192.2790  170.7980  142.9480 C   0  0  0  0  0  1  0  0  0  0  0  0
  189.3040  174.3270  143.8590 O   0  0  0  0  0  0  0  0  0  0  0  0
  189.7010  173.8270  140.4840 C   0  0  1  0  0  3  0  0  0  0  0  0
  191.5980  172.0810  142.9520 N   0  0  0  0  0  2  0  0  0  0  0  0
  190.9350  172.5870  141.7930 C   0  0  0  0  0  0  0  0  0  0  0  0
  190.1340  172.6990  139.7410 N   0  0  0  0  0  2  0  0  0  0  0  0
  189.2490  174.3440  142.6010 C   0  0  0  0  0  0  0  0  0  0  0  0
  188.4650  174.3150  140.4370 C   0  0  0  0  0  2  0  0  0  0  0  0
  188.1040  174.8640  141.7980 C   0  0  2  0  0  3  0  0  0  0  0  0
  190.9030  171.9600  140.6550 N   0  0  0  0  0  0  0  0  0  0  0  0
  190.2710  173.8450  141.7650 N   0  0  0  0  0  0  0  0  0  0  0  0
  1  3  1  0  0  0  0
  2  6  1  0  0  0  0
  4  1  2  0  0  0  0
  5  4  1  0  0  0  0
  5  2  2  0  0  0  0
  6  3  2  0  0  0  0
  6  9  1  0  0  0  0
  8 10  2  0  0  0  0
  9 12  1  0  0  0  0
 10  7  1  0  0  0  0
 10 13  1  0  0  0  0
 11  9  2  0  0  0  0
 11  8  1  0  0  0  0
 12  7  2  0  0  0  0
 13 14  3  0  0  0  0
 15 16  1  0  0  0  0
 15  4  1  0  0  0  0
 16 17  1  0  0  0  0
 18  2  1  0  0  0  0
 19 22  1  0  0  0  0
 21 26  1  1  0  0  0
 21 29  1  0  0  0  0
 23 22  1  0  0  0  0
 24 21  1  0  0  0  0
 24 28  1  0  0  0  0
 25 20  2  0  0  0  0
 26 27  1  0  0  0  0
 27 18  1  6  0  0  0
 27 25  1  0  0  0  0
 28 23  2  0  0  0  0
 29 23  1  0  0  0  0
 29 25  1  0  0  0  0
M  END
>  <MODEL>
7

>  <REMARK>
 VINA RESULT:      -6.7      1.868      2.791
  Name = 
  6 active torsions:
  status: ('A' for Active; 'I' for Inactive)
    1  A    between atoms: C_1  and  C_12
    2  A    between atoms: C_4  and  C_17
    3  A    between atoms: C_4  and  N_23
    4  A    between atoms: C_11  and  C_27
    5  A    between atoms: C_15  and  N_21
    6  A    between atoms: C_20  and  N_21
                            x       y       z     vdW  Elec       q    Type
                         _______ _______ _______ _____ _____    ______ ____

>  <TORSDO>
F 6

$$$$
=
 OpenBabel11042417253D

 29 32  0  0  1  0  0  0  0  0999 V2000
  187.3440  177.6160  146.5240 C   0  0  0  0  0  3  0  0  0  0  0  0
  188.4640  176.2090  144.3670 C   0  0  0  0  0  0  0  0  0  0  0  0
  188.6990  177.2830  146.5330 C   0  0  0  0  0  3  0  0  0  0  0  0
  186.5420  177.2390  145.4480 C   0  0  0  0  0  0  0  0  0  0  0  0
  187.1030  176.5480  144.3730 C   0  0  0  0  0  3  0  0  0  0  0  0
  189.2810  176.5720  145.4690 C   0  0  0  0  0  0  0  0  0  0  0  0
  192.5140  174.8250  146.4200 C   0  0  0  0  0  3  0  0  0  0  0  0
  193.0430  176.6130  144.8820 C   0  0  0  0  0  3  0  0  0  0  0  0
  190.7310  176.2380  145.5500 C   0  0  0  0  0  0  0  0  0  0  0  0
  193.4560  175.5510  145.6880 C   0  0  0  0  0  0  0  0  0  0  0  0
  191.6890  176.9510  144.8110 C   0  0  0  0  0  3  0  0  0  0  0  0
  191.1600  175.1650  146.3480 C   0  0  0  0  0  3  0  0  0  0  0  0
  194.8470  175.2040  145.7620 C   0  0  0  0  0  0  0  0  0  0  0  0
  195.9690  174.9260  145.8210 N   0  0  0  0  0  0  0  0  0  0  0  0
  185.1000  177.6120  145.4240 C   0  0  0  0  0  2  0  0  0  0  0  0
  184.7800  178.2870  144.1770 N   0  0  0  0  0  2  0  0  0  0  0  0
  185.0940  179.6920  144.3610 C   0  0  0  0  0  1  0  0  0  0  0  0
  189.0210  175.5330  143.2320 N   0  0  0  0  0  2  0  0  0  0  0  0
  190.9810  169.0970  141.3200 C   0  0  0  0  0  1  0  0  0  0  0  0
  189.4370  172.5760  144.0860 O   0  0  0  0  0  0  0  0  0  0  0  0
  189.5840  173.5310  140.7900 C   0  0  1  0  0  3  0  0  0  0  0  0
  190.7900  170.3850  141.9650 N   0  0  0  0  0  2  0  0  0  0  0  0
  190.3280  171.5280  141.2460 C   0  0  0  0  0  0  0  0  0  0  0  0
  189.5850  172.7790  139.5880 N   0  0  0  0  0  2  0  0  0  0  0  0
  189.3720  173.1650  142.9760 C   0  0  0  0  0  0  0  0  0  0  0  0
  188.5950  174.3410  141.1560 C   0  0  0  0  0  2  0  0  0  0  0  0
  188.4680  174.3100  142.6610 C   0  0  2  0  0  3  0  0  0  0  0  0
  190.0620  171.5150  139.9740 N   0  0  0  0  0  0  0  0  0  0  0  0
  190.1430  172.8030  141.8500 N   0  0  0  0  0  0  0  0  0  0  0  0
  1  3  1  0  0  0  0
  2  5  2  0  0  0  0
  2  6  1  0  0  0  0
  4  1  2  0  0  0  0
  5  4  1  0  0  0  0
  6  9  1  0  0  0  0
  6  3  2  0  0  0  0
  8 10  1  0  0  0  0
  9 12  2  0  0  0  0
 10 13  1  0  0  0  0
 10  7  2  0  0  0  0
 11  8  2  0  0  0  0
 11  9  1  0  0  0  0
 12  7  1  0  0  0  0
 13 14  3  0  0  0  0
 15  4  1  0  0  0  0
 16 17  1  0  0  0  0
 16 15  1  0  0  0  0
 18  2  1  0  0  0  0
 19 22  1  0  0  0  0
 21 26  1  1  0  0  0
 21 29  1  0  0  0  0
 23 29  1  0  0  0  0
 23 22  1  0  0  0  0
 24 28  1  0  0  0  0
 24 21  1  0  0  0  0
 25 20  2  0  0  0  0
 26 27  1  0  0  0  0
 27 25  1  0  0  0  0
 27 18  1  1  0  0  0
 28 23  2  0  0  0  0
 29 25  1  0  0  0  0
M  END
>  <MODEL>
8

>  <REMARK>
 VINA RESULT:      -6.6      2.407      3.527
  Name = 
  6 active torsions:
  status: ('A' for Active; 'I' for Inactive)
    1  A    between atoms: C_1  and  C_12
    2  A    between atoms: C_4  and  C_17
    3  A    between atoms: C_4  and  N_23
    4  A    between atoms: C_11  and  C_27
    5  A    between atoms: C_15  and  N_21
    6  A    between atoms: C_20  and  N_21
                            x       y       z     vdW  Elec       q    Type
                         _______ _______ _______ _____ _____    ______ ____

>  <TORSDO>
F 6

$$$$
=
 OpenBabel11042417253D

 29 32  0  0  1  0  0  0  0  0999 V2000
  187.2880  177.7360  146.6810 C   0  0  0  0  0  3  0  0  0  0  0  0
  188.3560  176.3450  144.4870 C   0  0  0  0  0  0  0  0  0  0  0  0
  188.6350  177.3770  146.6690 C   0  0  0  0  0  3  0  0  0  0  0  0
  186.4660  177.3930  145.6080 C   0  0  0  0  0  0  0  0  0  0  0  0
  187.0010  176.7100  144.5150 C   0  0  0  0  0  3  0  0  0  0  0  0
  189.1920  176.6730  145.5860 C   0  0  0  0  0  0  0  0  0  0  0  0
  192.4070  174.8780  146.5090 C   0  0  0  0  0  3  0  0  0  0  0  0
  192.9410  176.6210  144.9220 C   0  0  0  0  0  3  0  0  0  0  0  0
  190.6360  176.3100  145.6440 C   0  0  0  0  0  0  0  0  0  0  0  0
  193.3480  175.5680  145.7420 C   0  0  0  0  0  0  0  0  0  0  0  0
  191.5930  176.9870  144.8720 C   0  0  0  0  0  3  0  0  0  0  0  0
  191.0590  175.2450  146.4570 C   0  0  0  0  0  3  0  0  0  0  0  0
  194.7330  175.1930  145.7950 C   0  0  0  0  0  0  0  0  0  0  0  0
  195.8500  174.8920  145.8380 N   0  0  0  0  0  0  0  0  0  0  0  0
  185.0320  177.7940  145.6070 C   0  0  0  0  0  2  0  0  0  0  0  0
  184.6520  178.2840  144.2920 N   0  0  0  0  0  2  0  0  0  0  0  0
  184.9850  179.6970  144.2530 C   0  0  0  0  0  1  0  0  0  0  0  0
  188.8870  175.6780  143.3350 N   0  0  0  0  0  2  0  0  0  0  0  0
  190.0710  170.4570  138.8340 C   0  0  0  0  0  1  0  0  0  0  0  0
  189.5520  172.6670  142.9540 O   0  0  0  0  0  0  0  0  0  0  0  0
  188.5950  174.6440  140.3130 C   0  0  1  0  0  3  0  0  0  0  0  0
  190.1120  171.4390  139.9030 N   0  0  0  0  0  2  0  0  0  0  0  0
  189.4410  172.6950  139.8010 C   0  0  0  0  0  0  0  0  0  0  0  0
  188.1930  174.3240  138.9910 N   0  0  0  0  0  2  0  0  0  0  0  0
  189.1230  173.5720  142.1910 C   0  0  0  0  0  0  0  0  0  0  0  0
  187.7880  175.1790  141.2240 C   0  0  0  0  0  2  0  0  0  0  0  0
  188.1710  174.6510  142.5870 C   0  0  2  0  0  3  0  0  0  0  0  0
  188.7660  173.0640  138.7530 N   0  0  0  0  0  0  0  0  0  0  0  0
  189.4730  173.6800  140.8280 N   0  0  0  0  0  0  0  0  0  0  0  0
  2  5  2  0  0  0  0
  2  6  1  0  0  0  0
  3  1  1  0  0  0  0
  4  1  2  0  0  0  0
  5  4  1  0  0  0  0
  6  9  1  0  0  0  0
  6  3  2  0  0  0  0
  8 10  1  0  0  0  0
  9 12  2  0  0  0  0
 10 13  1  0  0  0  0
 10  7  2  0  0  0  0
 11  8  2  0  0  0  0
 11  9  1  0  0  0  0
 12  7  1  0  0  0  0
 13 14  3  0  0  0  0
 15  4  1  0  0  0  0
 16 15  1  0  0  0  0
 17 16  1  0  0  0  0
 18  2  1  0  0  0  0
 19 22  1  0  0  0  0
 21 29  1  0  0  0  0
 21 26  1  1  0  0  0
 23 22  1  0  0  0  0
 23 29  1  0  0  0  0
 24 21  1  0  0  0  0
 25 27  1  0  0  0  0
 25 20  2  0  0  0  0
 26 27  1  0  0  0  0
 27 18  1  1  0  0  0
 28 24  1  0  0  0  0
 28 23  2  0  0  0  0
 29 25  1  0  0  0  0
M  END
>  <MODEL>
9

>  <REMARK>
 VINA RESULT:      -6.5      2.177      3.081
  Name = 
  6 active torsions:
  status: ('A' for Active; 'I' for Inactive)
    1  A    between atoms: C_1  and  C_12
    2  A    between atoms: C_4  and  C_17
    3  A    between atoms: C_4  and  N_23
    4  A    between atoms: C_11  and  C_27
    5  A    between atoms: C_15  and  N_21
    6  A    between atoms: C_20  and  N_21
                            x       y       z     vdW  Elec       q    Type
                         _______ _______ _______ _____ _____    ______ ____

>  <TORSDO>
F 6

$$$$
