=
 OpenBabel11042418243D

 28 29  0  0  1  0  0  0  0  0999 V2000
  189.7220  176.7330  146.2830 C   0  0  1  0  0  3  0  0  0  0  0  0
  189.1910  176.2960  144.9420 C   0  0  0  0  0  3  0  0  0  0  0  0
  187.3480  177.2630  146.8920 C   0  0  2  0  0  3  0  0  0  0  0  0
  188.7970  177.7280  146.9890 C   0  0  0  0  0  2  0  0  0  0  0  0
  186.9240  177.1930  145.4270 C   0  0  0  0  0  2  0  0  0  0  0  0
  187.9070  176.4380  144.5730 C   0  0  0  0  0  0  0  0  0  0  0  0
  186.9610  179.0290  148.4390 O   0  0  0  0  0  1  0  0  0  0  0  0
  185.0790  178.1450  147.4760 O   0  0  0  0  0  0  0  0  0  0  0  0
  186.4580  178.1870  147.6500 C   0  0  0  0  0  0  0  0  0  0  0  0
  189.1660  174.6770  147.3220 O   0  0  0  0  0  0  0  0  0  0  0  0
  190.0100  175.5460  147.1540 C   0  0  0  0  0  0  0  0  0  0  0  0
  191.5490  176.5280  148.6710 O   0  0  0  0  0  1  0  0  0  0  0  0
  191.3460  175.4390  147.8200 C   0  0  2  0  0  3  0  0  0  0  0  0
  195.2170  176.5120  145.0560 N   0  0  0  0  0  1  0  0  0  0  0  0
  194.0910  175.8310  145.5930 C   0  0  0  0  0  0  0  0  0  0  0  0
  193.6240  174.6750  145.0810 N   0  0  0  0  0  0  0  0  0  0  0  0
  192.5630  174.3700  145.8510 C   0  0  0  0  0  2  0  0  0  0  0  0
  192.4400  175.3590  146.8050 C   0  0  0  0  0  0  0  0  0  0  0  0
  193.3930  176.2950  146.6450 N   0  0  0  0  0  0  0  0  0  0  0  0
  187.4700  175.9810  143.2900 N   0  0  0  0  0  2  0  0  0  0  0  0
  186.1390  176.2310  142.7480 C   0  0  0  0  0  2  0  0  0  0  0  0
  186.1870  177.3450  141.7050 C   0  0  2  0  0  3  0  0  0  0  0  0
  187.6210  177.7160  141.3690 C   0  0  0  0  0  1  0  0  0  0  0  0
  185.4170  178.5880  142.1610 C   0  0  2  0  0  3  0  0  0  0  0  0
  185.3250  179.8550  143.9770 C   0  0  0  0  0  1  0  0  0  0  0  0
  186.2030  179.3870  142.9970 O   0  0  0  0  0  0  0  0  0  0  0  0
  183.0710  178.1630  141.9670 O   0  0  0  0  0  1  0  0  0  0  0  0
  184.1290  178.2050  142.8760 C   0  0  0  0  0  2  0  0  0  0  0  0
  1  4  1  0  0  0  0
  1 11  1  1  0  0  0
  2  1  1  0  0  0  0
  3  4  1  0  0  0  0
  3  9  1  1  0  0  0
  5  3  1  0  0  0  0
  6  2  2  0  0  0  0
  6  5  1  0  0  0  0
  8  9  2  0  0  0  0
  9  7  1  0  0  0  0
 11 10  2  0  0  0  0
 11 13  1  0  0  0  0
 13 12  1  1  0  0  0
 14 15  1  0  0  0  0
 15 19  1  0  0  0  0
 16 15  2  0  0  0  0
 16 17  1  0  0  0  0
 17 18  1  0  0  0  0
 18 13  1  0  0  0  0
 19 18  2  0  0  0  0
 20  6  1  0  0  0  0
 21 20  1  0  0  0  0
 22 23  1  1  0  0  0
 22 24  1  0  0  0  0
 22 21  1  0  0  0  0
 24 28  1  1  0  0  0
 24 26  1  0  0  0  0
 26 25  1  0  0  0  0
 27 28  1  0  0  0  0
M  END
>  <MODEL>
1

>  <REMARK>
 VINA RESULT:      -6.4      0.000      0.000
  Name = 
  10 active torsions:
  status: ('A' for Active; 'I' for Inactive)
    1  A    between atoms: C_1  and  C_13
    2  A    between atoms: C_4  and  C_11
    3  A    between atoms: C_4  and  O_25
    4  A    between atoms: C_4  and  C_28
    5  A    between atoms: C_11  and  C_24
    6  A    between atoms: C_13  and  C_23
    7  A    between atoms: C_14  and  C_26
    8  A    between atoms: N_15  and  C_22
    9  A    between atoms: N_15  and  C_24
   10  A    between atoms: C_17  and  C_23
                            x       y       z     vdW  Elec       q    Type
                         _______ _______ _______ _____ _____    ______ ____

>  <TORSDO>
F 10

$$$$
=
 OpenBabel11042418243D

 28 29  0  0  1  0  0  0  0  0999 V2000
  190.0000  175.6410  147.2170 C   0  0  1  0  0  3  0  0  0  0  0  0
  189.7030  174.5240  146.2510 C   0  0  0  0  0  3  0  0  0  0  0  0
  192.2790  175.7450  146.1760 C   0  0  2  0  0  3  0  0  0  0  0  0
  191.4980  175.8080  147.4840 C   0  0  0  0  0  2  0  0  0  0  0  0
  192.0720  174.3840  145.5160 C   0  0  0  0  0  2  0  0  0  0  0  0
  190.6210  173.9950  145.4250 C   0  0  0  0  0  0  0  0  0  0  0  0
  194.0910  177.0580  146.9850 O   0  0  0  0  0  1  0  0  0  0  0  0
  194.6780  175.0400  146.0710 O   0  0  0  0  0  0  0  0  0  0  0  0
  193.7280  175.9900  146.4270 C   0  0  0  0  0  0  0  0  0  0  0  0
  189.5170  177.9540  147.4020 O   0  0  0  0  0  0  0  0  0  0  0  0
  189.3860  176.9270  146.7500 C   0  0  0  0  0  0  0  0  0  0  0  0
  189.1510  177.8650  144.5830 O   0  0  0  0  0  1  0  0  0  0  0  0
  188.6050  176.9390  145.4730 C   0  0  2  0  0  3  0  0  0  0  0  0
  184.2100  179.0500  145.3780 N   0  0  0  0  0  1  0  0  0  0  0  0
  185.2790  178.1760  145.7160 C   0  0  0  0  0  0  0  0  0  0  0  0
  185.1770  177.2320  146.6720 N   0  0  0  0  0  0  0  0  0  0  0  0
  186.3860  176.6400  146.6910 C   0  0  0  0  0  2  0  0  0  0  0  0
  187.1670  177.2520  145.7340 C   0  0  0  0  0  0  0  0  0  0  0  0
  186.4830  178.2320  145.1170 N   0  0  0  0  0  0  0  0  0  0  0  0
  190.2610  172.9480  144.5190 N   0  0  0  0  0  2  0  0  0  0  0  0
  190.8640  172.7680  143.2040 C   0  0  0  0  0  2  0  0  0  0  0  0
  190.1770  173.6620  142.1730 C   0  0  2  0  0  3  0  0  0  0  0  0
  190.8440  175.0250  142.1050 C   0  0  0  0  0  1  0  0  0  0  0  0
  188.6830  173.8240  142.4630 C   0  0  2  0  0  3  0  0  0  0  0  0
  188.3680  172.9870  140.4350 C   0  0  0  0  0  1  0  0  0  0  0  0
  187.9290  172.8810  141.7560 O   0  0  0  0  0  0  0  0  0  0  0  0
  186.9040  175.4180  142.5910 O   0  0  0  0  0  1  0  0  0  0  0  0
  188.2040  175.2280  142.1210 C   0  0  0  0  0  2  0  0  0  0  0  0
  1 11  1  6  0  0  0
  1  4  1  0  0  0  0
  2  1  1  0  0  0  0
  3  9  1  1  0  0  0
  3  4  1  0  0  0  0
  5  3  1  0  0  0  0
  6  5  1  0  0  0  0
  6  2  2  0  0  0  0
  8  9  2  0  0  0  0
  9  7  1  0  0  0  0
 11 10  2  0  0  0  0
 13 12  1  6  0  0  0
 13 18  1  0  0  0  0
 13 11  1  0  0  0  0
 14 15  1  0  0  0  0
 15 16  2  0  0  0  0
 16 17  1  0  0  0  0
 18 17  1  0  0  0  0
 19 15  1  0  0  0  0
 19 18  2  0  0  0  0
 20  6  1  0  0  0  0
 21 20  1  0  0  0  0
 22 23  1  1  0  0  0
 22 24  1  0  0  0  0
 22 21  1  0  0  0  0
 24 28  1  6  0  0  0
 25 26  1  0  0  0  0
 26 24  1  0  0  0  0
 28 27  1  0  0  0  0
M  END
>  <MODEL>
2

>  <REMARK>
 VINA RESULT:      -6.2      3.059      6.231
  Name = 
  10 active torsions:
  status: ('A' for Active; 'I' for Inactive)
    1  A    between atoms: C_1  and  C_13
    2  A    between atoms: C_4  and  C_11
    3  A    between atoms: C_4  and  O_25
    4  A    between atoms: C_4  and  C_28
    5  A    between atoms: C_11  and  C_24
    6  A    between atoms: C_13  and  C_23
    7  A    between atoms: C_14  and  C_26
    8  A    between atoms: N_15  and  C_22
    9  A    between atoms: N_15  and  C_24
   10  A    between atoms: C_17  and  C_23
                            x       y       z     vdW  Elec       q    Type
                         _______ _______ _______ _____ _____    ______ ____

>  <TORSDO>
F 10

$$$$
=
 OpenBabel11042418243D

 28 29  0  0  1  0  0  0  0  0999 V2000
  189.6920  177.3460  146.1130 C   0  0  1  0  0  3  0  0  0  0  0  0
  189.5200  177.5140  144.6260 C   0  0  0  0  0  3  0  0  0  0  0  0
  187.2310  176.8750  146.2020 C   0  0  2  0  0  3  0  0  0  0  0  0
  188.3940  177.5830  146.8890 C   0  0  0  0  0  2  0  0  0  0  0  0
  187.0420  177.4360  144.7950 C   0  0  0  0  0  2  0  0  0  0  0  0
  188.3250  177.4860  144.0110 C   0  0  0  0  0  0  0  0  0  0  0  0
  184.8940  176.5960  146.5510 O   0  0  0  0  0  0  0  0  0  0  0  0
  186.0160  177.6460  148.2510 O   0  0  0  0  0  1  0  0  0  0  0  0
  185.9830  177.0360  147.0020 C   0  0  0  0  0  0  0  0  0  0  0  0
  190.4490  175.6580  147.5940 O   0  0  0  0  0  0  0  0  0  0  0  0
  190.2780  176.0030  146.4330 C   0  0  0  0  0  0  0  0  0  0  0  0
  189.9580  173.8820  145.4170 O   0  0  0  0  0  1  0  0  0  0  0  0
  190.6550  175.0870  145.3110 C   0  0  2  0  0  3  0  0  0  0  0  0
  195.0060  172.8990  145.5420 N   0  0  0  0  0  1  0  0  0  0  0  0
  194.0060  173.9030  145.4280 C   0  0  0  0  0  0  0  0  0  0  0  0
  194.2960  175.2150  145.3330 N   0  0  0  0  0  0  0  0  0  0  0  0
  193.0960  175.8200  145.2560 C   0  0  0  0  0  2  0  0  0  0  0  0
  192.1290  174.8380  145.3010 C   0  0  0  0  0  0  0  0  0  0  0  0
  192.6900  173.6220  145.4220 N   0  0  0  0  0  0  0  0  0  0  0  0
  188.2400  177.6330  142.5900 N   0  0  0  0  0  2  0  0  0  0  0  0
  187.2870  178.5090  141.9190 C   0  0  0  0  0  2  0  0  0  0  0  0
  186.1160  177.7010  141.3650 C   0  0  2  0  0  3  0  0  0  0  0  0
  186.2880  177.4410  139.8780 C   0  0  0  0  0  1  0  0  0  0  0  0
  184.7730  178.3900  141.6240 C   0  0  2  0  0  3  0  0  0  0  0  0
  184.0140  178.8240  143.6610 C   0  0  0  0  0  1  0  0  0  0  0  0
  184.1100  177.8070  142.7090 O   0  0  0  0  0  0  0  0  0  0  0  0
  182.6030  177.9080  140.7400 O   0  0  0  0  0  1  0  0  0  0  0  0
  183.8830  178.3420  140.3900 C   0  0  0  0  0  2  0  0  0  0  0  0
  1 11  1  6  0  0  0
  1  4  1  0  0  0  0
  2  1  1  0  0  0  0
  3  4  1  0  0  0  0
  3  9  1  1  0  0  0
  5  3  1  0  0  0  0
  6  2  2  0  0  0  0
  6  5  1  0  0  0  0
  7  9  2  0  0  0  0
  9  8  1  0  0  0  0
 11 10  2  0  0  0  0
 13 12  1  1  0  0  0
 13 11  1  0  0  0  0
 15 14  1  0  0  0  0
 16 15  2  0  0  0  0
 17 18  1  0  0  0  0
 17 16  1  0  0  0  0
 18 13  1  0  0  0  0
 18 19  2  0  0  0  0
 19 15  1  0  0  0  0
 20  6  1  0  0  0  0
 21 20  1  0  0  0  0
 22 23  1  6  0  0  0
 22 24  1  0  0  0  0
 22 21  1  0  0  0  0
 24 28  1  6  0  0  0
 24 26  1  0  0  0  0
 26 25  1  0  0  0  0
 28 27  1  0  0  0  0
M  END
>  <MODEL>
3

>  <REMARK>
 VINA RESULT:      -6.2      1.412      2.064
  Name = 
  10 active torsions:
  status: ('A' for Active; 'I' for Inactive)
    1  A    between atoms: C_1  and  C_13
    2  A    between atoms: C_4  and  C_11
    3  A    between atoms: C_4  and  O_25
    4  A    between atoms: C_4  and  C_28
    5  A    between atoms: C_11  and  C_24
    6  A    between atoms: C_13  and  C_23
    7  A    between atoms: C_14  and  C_26
    8  A    between atoms: N_15  and  C_22
    9  A    between atoms: N_15  and  C_24
   10  A    between atoms: C_17  and  C_23
                            x       y       z     vdW  Elec       q    Type
                         _______ _______ _______ _____ _____    ______ ____

>  <TORSDO>
F 10

$$$$
=
 OpenBabel11042418243D

 28 29  0  0  1  0  0  0  0  0999 V2000
  189.0810  176.0870  142.9750 C   0  0  1  0  0  3  0  0  0  0  0  0
  190.5200  176.4960  143.1480 C   0  0  0  0  0  3  0  0  0  0  0  0
  188.8160  176.4980  145.4340 C   0  0  2  0  0  3  0  0  0  0  0  0
  188.4510  175.5780  144.2740 C   0  0  0  0  0  2  0  0  0  0  0  0
  190.3310  176.5130  145.6260 C   0  0  0  0  0  2  0  0  0  0  0  0
  191.0770  176.7590  144.3420 C   0  0  0  0  0  0  0  0  0  0  0  0
  188.5900  175.0640  147.3200 O   0  0  0  0  0  1  0  0  0  0  0  0
  187.0190  176.7250  147.1620 O   0  0  0  0  0  0  0  0  0  0  0  0
  188.1360  176.0500  146.6830 C   0  0  0  0  0  0  0  0  0  0  0  0
  188.8160  178.2480  142.0390 O   0  0  0  0  0  0  0  0  0  0  0  0
  188.2760  177.2070  142.3840 C   0  0  0  0  0  0  0  0  0  0  0  0
  186.4160  177.3430  140.9160 O   0  0  0  0  0  1  0  0  0  0  0  0
  186.7980  177.0350  142.2230 C   0  0  2  0  0  3  0  0  0  0  0  0
  184.0390  178.5010  145.9670 N   0  0  0  0  0  1  0  0  0  0  0  0
  184.8440  178.5230  144.7950 C   0  0  0  0  0  0  0  0  0  0  0  0
  185.1000  179.6520  144.1060 N   0  0  0  0  0  0  0  0  0  0  0  0
  185.8730  179.2500  143.0790 C   0  0  0  0  0  2  0  0  0  0  0  0
  186.0550  177.8890  143.1990 C   0  0  0  0  0  0  0  0  0  0  0  0
  185.4000  177.4140  144.2740 N   0  0  0  0  0  0  0  0  0  0  0  0
  192.4470  177.1620  144.4280 N   0  0  0  0  0  2  0  0  0  0  0  0
  193.5710  176.3040  144.0700 C   0  0  0  0  0  2  0  0  0  0  0  0
  194.2270  175.7310  145.3240 C   0  0  2  0  0  3  0  0  0  0  0  0
  194.3050  176.7760  146.4240 C   0  0  0  0  0  1  0  0  0  0  0  0
  195.6220  175.1710  145.0330 C   0  0  2  0  0  3  0  0  0  0  0  0
  197.0540  175.8270  143.4720 C   0  0  0  0  0  1  0  0  0  0  0  0
  195.8650  175.1170  143.6560 O   0  0  0  0  0  0  0  0  0  0  0  0
  196.9970  173.7260  146.3530 O   0  0  0  0  0  1  0  0  0  0  0  0
  195.7980  173.7870  145.6420 C   0  0  0  0  0  2  0  0  0  0  0  0
  1 11  1  1  0  0  0
  1  2  1  0  0  0  0
  1  4  1  0  0  0  0
  2  6  2  0  0  0  0
  3  5  1  0  0  0  0
  3  9  1  1  0  0  0
  4  3  1  0  0  0  0
  6 20  1  0  0  0  0
  6  5  1  0  0  0  0
  9  8  2  0  0  0  0
  9  7  1  0  0  0  0
 10 11  2  0  0  0  0
 13 12  1  6  0  0  0
 13 11  1  0  0  0  0
 13 18  1  0  0  0  0
 15 14  1  0  0  0  0
 16 15  2  0  0  0  0
 17 18  1  0  0  0  0
 17 16  1  0  0  0  0
 18 19  2  0  0  0  0
 19 15  1  0  0  0  0
 21 20  1  0  0  0  0
 21 22  1  0  0  0  0
 22 23  1  1  0  0  0
 24 22  1  0  0  0  0
 24 28  1  6  0  0  0
 25 26  1  0  0  0  0
 26 24  1  0  0  0  0
 28 27  1  0  0  0  0
M  END
>  <MODEL>
4

>  <REMARK>
 VINA RESULT:      -6.1      2.839      8.132
  Name = 
  10 active torsions:
  status: ('A' for Active; 'I' for Inactive)
    1  A    between atoms: C_1  and  C_13
    2  A    between atoms: C_4  and  C_11
    3  A    between atoms: C_4  and  O_25
    4  A    between atoms: C_4  and  C_28
    5  A    between atoms: C_11  and  C_24
    6  A    between atoms: C_13  and  C_23
    7  A    between atoms: C_14  and  C_26
    8  A    between atoms: N_15  and  C_22
    9  A    between atoms: N_15  and  C_24
   10  A    between atoms: C_17  and  C_23
                            x       y       z     vdW  Elec       q    Type
                         _______ _______ _______ _____ _____    ______ ____

>  <TORSDO>
F 10

$$$$
=
 OpenBabel11042418243D

 28 29  0  0  1  0  0  0  0  0999 V2000
  186.9230  176.3910  144.1590 C   0  0  1  0  0  3  0  0  0  0  0  0
  188.0660  176.2110  145.1230 C   0  0  0  0  0  3  0  0  0  0  0  0
  185.9770  178.0270  145.8070 C   0  0  2  0  0  3  0  0  0  0  0  0
  185.6480  176.8940  144.8420 C   0  0  0  0  0  2  0  0  0  0  0  0
  186.9200  177.5220  146.8960 C   0  0  0  0  0  2  0  0  0  0  0  0
  188.1050  176.7780  146.3400 C   0  0  0  0  0  0  0  0  0  0  0  0
  183.8090  178.9980  145.6620 O   0  0  0  0  0  0  0  0  0  0  0  0
  184.5550  178.5890  147.7890 O   0  0  0  0  0  1  0  0  0  0  0  0
  184.7270  178.5710  146.4100 C   0  0  0  0  0  0  0  0  0  0  0  0
  186.5110  178.0610  142.5280 O   0  0  0  0  0  0  0  0  0  0  0  0
  187.3190  177.2880  143.0230 C   0  0  0  0  0  0  0  0  0  0  0  0
  188.9680  178.3030  141.6510 O   0  0  0  0  0  1  0  0  0  0  0  0
  188.7200  177.2230  142.5000 C   0  0  2  0  0  3  0  0  0  0  0  0
  188.2270  173.3860  139.5310 N   0  0  0  0  0  1  0  0  0  0  0  0
  188.7360  174.2640  140.5270 C   0  0  0  0  0  0  0  0  0  0  0  0
  189.8110  173.9670  141.2820 N   0  0  0  0  0  0  0  0  0  0  0  0
  189.9570  175.0310  142.0940 C   0  0  0  0  0  2  0  0  0  0  0  0
  188.9600  175.9320  141.7850 C   0  0  0  0  0  0  0  0  0  0  0  0
  188.1730  175.4540  140.8040 N   0  0  0  0  0  0  0  0  0  0  0  0
  189.2350  176.5790  147.1950 N   0  0  0  0  0  2  0  0  0  0  0  0
  190.1460  175.4450  147.0860 C   0  0  0  0  0  2  0  0  0  0  0  0
  191.5610  175.8550  147.4880 C   0  0  2  0  0  3  0  0  0  0  0  0
  191.5350  177.0390  148.4390 C   0  0  0  0  0  1  0  0  0  0  0  0
  192.4290  176.1810  146.2690 C   0  0  2  0  0  3  0  0  0  0  0  0
  192.0540  177.1700  144.3210 C   0  0  0  0  0  1  0  0  0  0  0  0
  191.6980  176.0550  145.0830 O   0  0  0  0  0  0  0  0  0  0  0  0
  193.2860  173.9820  145.8810 O   0  0  0  0  0  1  0  0  0  0  0  0
  193.6590  175.2850  146.2140 C   0  0  0  0  0  2  0  0  0  0  0  0
  1 11  1  6  0  0  0
  1  4  1  0  0  0  0
  1  2  1  0  0  0  0
  2  6  2  0  0  0  0
  3  9  1  1  0  0  0
  3  5  1  0  0  0  0
  4  3  1  0  0  0  0
  6  5  1  0  0  0  0
  6 20  1  0  0  0  0
  7  9  2  0  0  0  0
  9  8  1  0  0  0  0
 10 11  2  0  0  0  0
 13 12  1  6  0  0  0
 13 11  1  0  0  0  0
 14 15  1  0  0  0  0
 15 19  1  0  0  0  0
 15 16  2  0  0  0  0
 16 17  1  0  0  0  0
 18 17  1  0  0  0  0
 18 13  1  0  0  0  0
 19 18  2  0  0  0  0
 21 20  1  0  0  0  0
 21 22  1  0  0  0  0
 22 23  1  1  0  0  0
 24 28  1  6  0  0  0
 24 22  1  0  0  0  0
 25 26  1  0  0  0  0
 26 24  1  0  0  0  0
 27 28  1  0  0  0  0
M  END
>  <MODEL>
5

>  <REMARK>
 VINA RESULT:      -6.1      2.556      6.342
  Name = 
  10 active torsions:
  status: ('A' for Active; 'I' for Inactive)
    1  A    between atoms: C_1  and  C_13
    2  A    between atoms: C_4  and  C_11
    3  A    between atoms: C_4  and  O_25
    4  A    between atoms: C_4  and  C_28
    5  A    between atoms: C_11  and  C_24
    6  A    between atoms: C_13  and  C_23
    7  A    between atoms: C_14  and  C_26
    8  A    between atoms: N_15  and  C_22
    9  A    between atoms: N_15  and  C_24
   10  A    between atoms: C_17  and  C_23
                            x       y       z     vdW  Elec       q    Type
                         _______ _______ _______ _____ _____    ______ ____

>  <TORSDO>
F 10

$$$$
=
 OpenBabel11042418243D

 28 29  0  0  1  0  0  0  0  0999 V2000
  186.9230  176.8640  143.2730 C   0  0  1  0  0  3  0  0  0  0  0  0
  188.3690  177.1120  143.6180 C   0  0  0  0  0  3  0  0  0  0  0  0
  186.3690  177.8070  145.5290 C   0  0  2  0  0  3  0  0  0  0  0  0
  186.0360  176.7220  144.5120 C   0  0  0  0  0  2  0  0  0  0  0  0
  187.8210  177.6670  145.9780 C   0  0  0  0  0  2  0  0  0  0  0  0
  188.7780  177.5440  144.8230 C   0  0  0  0  0  0  0  0  0  0  0  0
  185.9250  177.6610  147.8620 O   0  0  0  0  0  1  0  0  0  0  0  0
  184.0710  177.7250  146.5180 O   0  0  0  0  0  0  0  0  0  0  0  0
  185.4490  177.7190  146.6990 C   0  0  0  0  0  0  0  0  0  0  0  0
  186.6750  179.1070  142.5490 O   0  0  0  0  0  0  0  0  0  0  0  0
  186.4050  177.9300  142.3540 C   0  0  0  0  0  0  0  0  0  0  0  0
  186.0210  178.1300  140.0200 O   0  0  0  0  0  1  0  0  0  0  0  0
  185.5480  177.5360  141.1920 C   0  0  2  0  0  3  0  0  0  0  0  0
  180.8430  178.6170  140.5070 N   0  0  0  0  0  1  0  0  0  0  0  0
  182.1010  178.4100  141.1350 C   0  0  0  0  0  0  0  0  0  0  0  0
  182.3160  178.6640  142.4410 N   0  0  0  0  0  0  0  0  0  0  0  0
  183.6120  178.3540  142.6340 C   0  0  0  0  0  2  0  0  0  0  0  0
  184.1220  177.9160  141.4300 C   0  0  0  0  0  0  0  0  0  0  0  0
  183.1800  177.9580  140.4710 N   0  0  0  0  0  0  0  0  0  0  0  0
  190.1670  177.7770  145.0730 N   0  0  0  0  0  2  0  0  0  0  0  0
  191.2230  176.8270  144.7420 C   0  0  0  0  0  2  0  0  0  0  0  0
  191.5210  175.9210  145.9340 C   0  0  2  0  0  3  0  0  0  0  0  0
  193.0140  175.8580  146.2110 C   0  0  0  0  0  1  0  0  0  0  0  0
  190.9660  174.5090  145.7310 C   0  0  2  0  0  3  0  0  0  0  0  0
  191.6010  172.9890  144.2470 C   0  0  0  0  0  1  0  0  0  0  0  0
  190.8940  174.1880  144.3710 O   0  0  0  0  0  0  0  0  0  0  0  0
  189.5870  174.9410  147.6370 O   0  0  0  0  0  1  0  0  0  0  0  0
  189.5900  174.3610  146.3680 C   0  0  0  0  0  2  0  0  0  0  0  0
  1 11  1  6  0  0  0
  1  2  1  0  0  0  0
  1  4  1  0  0  0  0
  2  6  2  0  0  0  0
  3  5  1  0  0  0  0
  3  9  1  1  0  0  0
  4  3  1  0  0  0  0
  6 20  1  0  0  0  0
  6  5  1  0  0  0  0
  8  9  2  0  0  0  0
  9  7  1  0  0  0  0
 11 10  2  0  0  0  0
 13 12  1  6  0  0  0
 13 18  1  0  0  0  0
 13 11  1  0  0  0  0
 14 15  1  0  0  0  0
 15 16  2  0  0  0  0
 16 17  1  0  0  0  0
 18 17  1  0  0  0  0
 19 15  1  0  0  0  0
 19 18  2  0  0  0  0
 21 20  1  0  0  0  0
 21 22  1  0  0  0  0
 22 23  1  6  0  0  0
 24 22  1  0  0  0  0
 24 28  1  6  0  0  0
 25 26  1  0  0  0  0
 26 24  1  0  0  0  0
 28 27  1  0  0  0  0
M  END
>  <MODEL>
6

>  <REMARK>
 VINA RESULT:      -6.0      2.691      7.850
  Name = 
  10 active torsions:
  status: ('A' for Active; 'I' for Inactive)
    1  A    between atoms: C_1  and  C_13
    2  A    between atoms: C_4  and  C_11
    3  A    between atoms: C_4  and  O_25
    4  A    between atoms: C_4  and  C_28
    5  A    between atoms: C_11  and  C_24
    6  A    between atoms: C_13  and  C_23
    7  A    between atoms: C_14  and  C_26
    8  A    between atoms: N_15  and  C_22
    9  A    between atoms: N_15  and  C_24
   10  A    between atoms: C_17  and  C_23
                            x       y       z     vdW  Elec       q    Type
                         _______ _______ _______ _____ _____    ______ ____

>  <TORSDO>
F 10

$$$$
=
 OpenBabel11042418243D

 28 29  0  0  1  0  0  0  0  0999 V2000
  188.5120  177.6350  144.8190 C   0  0  1  0  0  3  0  0  0  0  0  0
  188.5170  176.6270  143.6990 C   0  0  0  0  0  3  0  0  0  0  0  0
  186.0320  177.2840  144.9350 C   0  0  2  0  0  3  0  0  0  0  0  0
  187.1530  178.3170  144.9950 C   0  0  0  0  0  2  0  0  0  0  0  0
  186.0350  176.5960  143.5720 C   0  0  0  0  0  2  0  0  0  0  0  0
  187.3980  176.0980  143.1750 C   0  0  0  0  0  0  0  0  0  0  0  0
  184.1050  178.4960  144.2420 O   0  0  0  0  0  0  0  0  0  0  0  0
  184.1450  177.9090  146.4570 O   0  0  0  0  0  1  0  0  0  0  0  0
  184.7160  177.9360  145.1890 C   0  0  0  0  0  0  0  0  0  0  0  0
  188.8050  177.5790  147.1700 O   0  0  0  0  0  0  0  0  0  0  0  0
  188.9750  177.0090  146.1010 C   0  0  0  0  0  0  0  0  0  0  0  0
  189.2040  174.8710  147.1040 O   0  0  0  0  0  1  0  0  0  0  0  0
  189.6540  175.6760  146.0560 C   0  0  2  0  0  3  0  0  0  0  0  0
  194.2520  176.9140  145.0050 N   0  0  0  0  0  1  0  0  0  0  0  0
  193.1240  176.3420  145.6560 C   0  0  0  0  0  0  0  0  0  0  0  0
  193.2320  175.5370  146.7310 N   0  0  0  0  0  0  0  0  0  0  0  0
  191.9620  175.2050  147.0310 C   0  0  0  0  0  2  0  0  0  0  0  0
  191.1390  175.8340  146.1200 C   0  0  0  0  0  0  0  0  0  0  0  0
  191.8620  176.5460  145.2380 N   0  0  0  0  0  0  0  0  0  0  0  0
  187.4800  175.1290  142.1250 N   0  0  0  0  0  2  0  0  0  0  0  0
  188.6610  174.9320  141.2920 C   0  0  0  0  0  2  0  0  0  0  0  0
  189.2170  173.5220  141.4760 C   0  0  2  0  0  3  0  0  0  0  0  0
  188.1880  172.6110  142.1210 C   0  0  0  0  0  1  0  0  0  0  0  0
  190.5080  173.5200  142.2990 C   0  0  2  0  0  3  0  0  0  0  0  0
  191.3540  172.6490  144.1540 C   0  0  0  0  0  1  0  0  0  0  0  0
  190.2370  173.3260  143.6580 O   0  0  0  0  0  0  0  0  0  0  0  0
  192.4170  174.5850  141.3290 O   0  0  0  0  0  1  0  0  0  0  0  0
  191.2840  174.8170  142.1100 C   0  0  0  0  0  2  0  0  0  0  0  0
  1  4  1  0  0  0  0
  1 11  1  1  0  0  0
  2  1  1  0  0  0  0
  3  4  1  0  0  0  0
  3  9  1  6  0  0  0
  5  3  1  0  0  0  0
  6  5  1  0  0  0  0
  6  2  2  0  0  0  0
  7  9  2  0  0  0  0
  9  8  1  0  0  0  0
 11 10  2  0  0  0  0
 13 11  1  0  0  0  0
 13 18  1  0  0  0  0
 13 12  1  1  0  0  0
 14 15  1  0  0  0  0
 15 16  2  0  0  0  0
 16 17  1  0  0  0  0
 18 17  1  0  0  0  0
 19 15  1  0  0  0  0
 19 18  2  0  0  0  0
 20  6  1  0  0  0  0
 21 22  1  0  0  0  0
 21 20  1  0  0  0  0
 22 23  1  1  0  0  0
 22 24  1  0  0  0  0
 24 28  1  1  0  0  0
 24 26  1  0  0  0  0
 26 25  1  0  0  0  0
 27 28  1  0  0  0  0
M  END
>  <MODEL>
7

>  <REMARK>
 VINA RESULT:      -6.0      2.600      4.343
  Name = 
  10 active torsions:
  status: ('A' for Active; 'I' for Inactive)
    1  A    between atoms: C_1  and  C_13
    2  A    between atoms: C_4  and  C_11
    3  A    between atoms: C_4  and  O_25
    4  A    between atoms: C_4  and  C_28
    5  A    between atoms: C_11  and  C_24
    6  A    between atoms: C_13  and  C_23
    7  A    between atoms: C_14  and  C_26
    8  A    between atoms: N_15  and  C_22
    9  A    between atoms: N_15  and  C_24
   10  A    between atoms: C_17  and  C_23
                            x       y       z     vdW  Elec       q    Type
                         _______ _______ _______ _____ _____    ______ ____

>  <TORSDO>
F 10

$$$$
=
 OpenBabel11042418243D

 28 29  0  0  1  0  0  0  0  0999 V2000
  189.3450  176.8540  146.1350 C   0  0  1  0  0  3  0  0  0  0  0  0
  189.0980  176.5040  144.6910 C   0  0  0  0  0  3  0  0  0  0  0  0
  186.8550  176.8180  146.4240 C   0  0  2  0  0  3  0  0  0  0  0  0
  188.1450  177.5430  146.7900 C   0  0  0  0  0  2  0  0  0  0  0  0
  186.6490  176.8620  144.9110 C   0  0  0  0  0  2  0  0  0  0  0  0
  187.8720  176.4370  144.1450 C   0  0  0  0  0  0  0  0  0  0  0  0
  185.8540  177.9260  148.2770 O   0  0  0  0  0  1  0  0  0  0  0  0
  184.4500  177.5060  146.5160 O   0  0  0  0  0  0  0  0  0  0  0  0
  185.6960  177.4390  147.1270 C   0  0  0  0  0  0  0  0  0  0  0  0
  189.0470  174.6540  146.9650 O   0  0  0  0  0  0  0  0  0  0  0  0
  189.7660  175.6420  146.9130 C   0  0  0  0  0  0  0  0  0  0  0  0
  191.2060  176.8250  148.3820 O   0  0  0  0  0  1  0  0  0  0  0  0
  191.0800  175.6560  147.6290 C   0  0  2  0  0  3  0  0  0  0  0  0
  195.0550  176.6190  144.9730 N   0  0  0  0  0  1  0  0  0  0  0  0
  193.9090  175.9590  145.4950 C   0  0  0  0  0  0  0  0  0  0  0  0
  193.4640  174.7800  145.0160 N   0  0  0  0  0  0  0  0  0  0  0  0
  192.3740  174.5070  145.7570 C   0  0  0  0  0  2  0  0  0  0  0  0
  192.2130  175.5360  146.6610 C   0  0  0  0  0  0  0  0  0  0  0  0
  193.1700  176.4660  146.4980 N   0  0  0  0  0  0  0  0  0  0  0  0
  187.7130  176.0780  142.7690 N   0  0  0  0  0  2  0  0  0  0  0  0
  187.8300  174.7140  142.2660 C   0  0  0  0  0  2  0  0  0  0  0  0
  189.0200  174.5930  141.3180 C   0  0  2  0  0  3  0  0  0  0  0  0
  188.5890  174.0390  139.9710 C   0  0  0  0  0  1  0  0  0  0  0  0
  190.1360  173.7270  141.9080 C   0  0  2  0  0  3  0  0  0  0  0  0
  190.1950  172.0890  143.4010 C   0  0  0  0  0  1  0  0  0  0  0  0
  189.8930  173.4440  143.2570 O   0  0  0  0  0  0  0  0  0  0  0  0
  191.4870  175.6350  142.4090 O   0  0  0  0  0  1  0  0  0  0  0  0
  191.4930  174.4000  141.7600 C   0  0  0  0  0  2  0  0  0  0  0  0
  1  4  1  0  0  0  0
  1 11  1  1  0  0  0
  2  1  1  0  0  0  0
  3  4  1  0  0  0  0
  3  9  1  1  0  0  0
  5  3  1  0  0  0  0
  6  2  2  0  0  0  0
  6  5  1  0  0  0  0
  8  9  2  0  0  0  0
  9  7  1  0  0  0  0
 11 10  2  0  0  0  0
 11 13  1  0  0  0  0
 13 12  1  6  0  0  0
 14 15  1  0  0  0  0
 15 19  1  0  0  0  0
 16 15  2  0  0  0  0
 16 17  1  0  0  0  0
 17 18  1  0  0  0  0
 18 13  1  0  0  0  0
 19 18  2  0  0  0  0
 20  6  1  0  0  0  0
 21 20  1  0  0  0  0
 22 23  1  6  0  0  0
 22 24  1  0  0  0  0
 22 21  1  0  0  0  0
 24 28  1  1  0  0  0
 24 26  1  0  0  0  0
 26 25  1  0  0  0  0
 28 27  1  0  0  0  0
M  END
>  <MODEL>
8

>  <REMARK>
 VINA RESULT:      -5.9      2.251      3.652
  Name = 
  10 active torsions:
  status: ('A' for Active; 'I' for Inactive)
    1  A    between atoms: C_1  and  C_13
    2  A    between atoms: C_4  and  C_11
    3  A    between atoms: C_4  and  O_25
    4  A    between atoms: C_4  and  C_28
    5  A    between atoms: C_11  and  C_24
    6  A    between atoms: C_13  and  C_23
    7  A    between atoms: C_14  and  C_26
    8  A    between atoms: N_15  and  C_22
    9  A    between atoms: N_15  and  C_24
   10  A    between atoms: C_17  and  C_23
                            x       y       z     vdW  Elec       q    Type
                         _______ _______ _______ _____ _____    ______ ____

>  <TORSDO>
F 10

$$$$
=
 OpenBabel11042418243D

 28 29  0  0  1  0  0  0  0  0999 V2000
  189.1200  177.5370  146.0320 C   0  0  1  0  0  3  0  0  0  0  0  0
  190.3960  177.0430  146.6610 C   0  0  0  0  0  3  0  0  0  0  0  0
  189.6140  175.9720  144.1360 C   0  0  2  0  0  3  0  0  0  0  0  0
  189.1020  177.3580  144.5110 C   0  0  0  0  0  2  0  0  0  0  0  0
  191.0570  175.8070  144.6080 C   0  0  0  0  0  2  0  0  0  0  0  0
  191.2460  176.2020  146.0480 C   0  0  0  0  0  0  0  0  0  0  0  0
  188.6480  176.3910  142.0020 O   0  0  0  0  0  0  0  0  0  0  0  0
  190.3990  174.9130  142.0080 O   0  0  0  0  0  1  0  0  0  0  0  0
  189.5190  175.7670  142.6630 C   0  0  0  0  0  0  0  0  0  0  0  0
  187.9020  175.6820  146.8620 O   0  0  0  0  0  0  0  0  0  0  0  0
  187.9260  176.8890  146.6680 C   0  0  0  0  0  0  0  0  0  0  0  0
  185.9470  177.0540  147.9680 O   0  0  0  0  0  1  0  0  0  0  0  0
  186.7600  177.7400  147.0630 C   0  0  2  0  0  3  0  0  0  0  0  0
  184.4620  177.6830  142.7620 N   0  0  0  0  0  1  0  0  0  0  0  0
  185.0050  178.1370  143.9950 C   0  0  0  0  0  0  0  0  0  0  0  0
  184.9500  179.4250  144.3870 N   0  0  0  0  0  0  0  0  0  0  0  0
  185.5730  179.4400  145.5800 C   0  0  0  0  0  2  0  0  0  0  0  0
  185.9720  178.1510  145.8610 C   0  0  0  0  0  0  0  0  0  0  0  0
  185.6290  177.3180  144.8620 N   0  0  0  0  0  0  0  0  0  0  0  0
  192.4310  175.7590  146.7160 N   0  0  0  0  0  2  0  0  0  0  0  0
  193.7620  176.2950  146.4530 C   0  0  0  0  0  2  0  0  0  0  0  0
  194.5060  175.4130  145.4530 C   0  0  2  0  0  3  0  0  0  0  0  0
  195.6520  174.6760  146.1240 C   0  0  0  0  0  1  0  0  0  0  0  0
  195.0270  176.2180  144.2590 C   0  0  2  0  0  3  0  0  0  0  0  0
  194.2420  174.8160  142.7330 C   0  0  0  0  0  1  0  0  0  0  0  0
  194.1470  176.1370  143.1750 O   0  0  0  0  0  0  0  0  0  0  0  0
  197.1220  176.7930  143.2580 O   0  0  0  0  0  1  0  0  0  0  0  0
  196.4110  175.7410  143.8370 C   0  0  0  0  0  2  0  0  0  0  0  0
  1  2  1  0  0  0  0
  1 11  1  1  0  0  0
  3  9  1  6  0  0  0
  3  4  1  0  0  0  0
  3  5  1  0  0  0  0
  4  1  1  0  0  0  0
  5  6  1  0  0  0  0
  6  2  2  0  0  0  0
  6 20  1  0  0  0  0
  7  9  2  0  0  0  0
  8  9  1  0  0  0  0
 11 10  2  0  0  0  0
 11 13  1  0  0  0  0
 13 12  1  1  0  0  0
 14 15  1  0  0  0  0
 15 16  2  0  0  0  0
 15 19  1  0  0  0  0
 16 17  1  0  0  0  0
 17 18  1  0  0  0  0
 18 13  1  0  0  0  0
 19 18  2  0  0  0  0
 21 20  1  0  0  0  0
 22 23  1  1  0  0  0
 22 21  1  0  0  0  0
 24 28  1  6  0  0  0
 24 22  1  0  0  0  0
 25 26  1  0  0  0  0
 26 24  1  0  0  0  0
 27 28  1  0  0  0  0
M  END
>  <MODEL>
9

>  <REMARK>
 VINA RESULT:      -5.9      2.921      7.841
  Name = 
  10 active torsions:
  status: ('A' for Active; 'I' for Inactive)
    1  A    between atoms: C_1  and  C_13
    2  A    between atoms: C_4  and  C_11
    3  A    between atoms: C_4  and  O_25
    4  A    between atoms: C_4  and  C_28
    5  A    between atoms: C_11  and  C_24
    6  A    between atoms: C_13  and  C_23
    7  A    between atoms: C_14  and  C_26
    8  A    between atoms: N_15  and  C_22
    9  A    between atoms: N_15  and  C_24
   10  A    between atoms: C_17  and  C_23
                            x       y       z     vdW  Elec       q    Type
                         _______ _______ _______ _____ _____    ______ ____

>  <TORSDO>
F 10

$$$$
