=
 OpenBabel11042415533D

 50 55  0  0  1  0  0  0  0  0999 V2000
  190.6880  176.3610  144.7080 C   0  0  1  0  0  3  0  0  0  0  0  0
  191.1780  175.6940  148.7730 F   0  0  0  0  0  0  0  0  0  0  0  0
  193.0430  176.4600  145.8080 C   0  0  0  0  0  0  0  0  0  0  0  0
  190.3400  176.9470  147.0270 N   0  0  0  0  0  0  0  0  0  0  0  0
  191.2250  175.8700  147.4050 C   0  0  1  0  0  3  0  0  0  0  0  0
  192.1700  176.7080  144.5970 C   0  0  0  0  0  2  0  0  0  0  0  0
  192.6010  176.1460  146.9970 N   0  0  0  0  0  0  0  0  0  0  0  0
  190.0630  177.1780  145.7930 C   0  0  0  0  0  3  0  0  0  0  0  0
  190.0350  176.6400  143.4720 O   0  0  0  0  0  0  0  0  0  0  0  0
  190.6260  174.5460  142.3500 C   0  0  0  0  0  3  0  0  0  0  0  0
  189.7740  175.6610  142.5040 C   0  0  0  0  0  0  0  0  0  0  0  0
  188.3630  174.8230  140.6920 C   0  0  0  0  0  3  0  0  0  0  0  0
  188.6330  175.7960  141.6770 C   0  0  0  0  0  0  0  0  0  0  0  0
  189.2300  173.7410  140.5710 C   0  0  0  0  0  0  0  0  0  0  0  0
  190.3200  173.6040  141.3710 C   0  0  0  0  0  0  0  0  0  0  0  0
  189.1310  172.6990  139.6780 O   0  0  0  0  0  0  0  0  0  0  0  0
  190.2090  171.7850  139.8690 C   0  0  0  0  0  3  0  0  0  0  0  0
  191.0550  172.3650  141.0220 C   0  0  0  0  0  3  0  0  0  0  0  0
  186.4960  176.9560  142.4960 C   0  0  0  0  0  0  0  0  0  0  0  0
  187.7780  176.9350  141.8560 N   0  0  0  0  0  2  0  0  0  0  0  0
  186.0160  175.9140  143.0190 O   0  0  0  0  0  0  0  0  0  0  0  0
  185.7720  178.2650  142.6130 C   0  0  1  0  0  3  0  0  0  0  0  0
  182.0570  178.1880  140.7880 C   0  0  0  0  0  1  0  0  0  0  0  0
  183.3660  178.2110  141.4320 C   0  0  0  0  0  0  0  0  0  0  0  0
  184.4480  178.2310  141.9640 C   0  0  0  0  0  0  0  0  0  0  0  0
  184.3860  178.9980  144.6360 C   0  0  0  0  0  2  0  0  0  0  0  0
  185.7780  178.8010  144.0620 C   0  0  0  0  0  0  0  0  0  0  0  0
  185.2630  180.2050  144.3540 C   0  0  0  0  0  2  0  0  0  0  0  0
  185.9680  177.1840  145.9930 C   0  0  1  0  0  3  0  0  0  0  0  0
  186.8720  176.2640  146.5200 O   0  0  0  0  0  1  0  0  0  0  0  0
  186.3170  178.5640  146.4970 C   0  0  0  0  0  2  0  0  0  0  0  0
  186.7150  178.1540  145.0900 C   0  0  2  0  0  3  0  0  0  0  0  0
  194.4150  176.6180  145.6090 O   0  0  0  0  0  0  0  0  0  0  0  0
  195.3300  175.5300  145.6430 C   0  0  0  0  0  2  0  0  0  0  0  0
  196.4250  176.4130  141.9990 C   0  0  0  0  0  2  0  0  0  0  0  0
  194.5470  174.8730  141.1730 C   0  0  0  0  0  0  0  0  0  0  0  0
  193.7410  174.3170  140.1870 O   0  0  0  0  0  1  0  0  0  0  0  0
  194.6210  174.3470  142.3530 C   0  0  0  0  0  0  0  0  0  0  0  0
  195.8060  175.2240  144.2330 C   0  0  1  0  0  3  0  0  0  0  0  0
  194.9360  174.1530  143.5940 C   0  0  0  0  0  0  0  0  0  0  0  0
  195.8780  176.5570  143.4360 C   0  0  0  0  0  2  0  0  0  0  0  0
  195.3240  176.1400  140.9390 C   0  0  0  0  0  2  0  0  0  0  0  0
  194.7380  172.7950  144.2010 C   0  0  1  0  0  3  0  0  0  0  0  0
  193.2870  172.4340  144.2800 C   0  0  0  0  0  0  0  0  0  0  0  0
  192.4210  173.2240  145.0200 O   0  0  0  0  0  1  0  0  0  0  0  0
  192.8390  171.4410  143.6510 O   0  0  0  0  0  0  0  0  0  0  0  0
  195.4510  171.8250  143.4920 O   0  0  0  0  0  0  0  0  0  0  0  0
  196.5710  171.5510  144.2800 C   0  0  0  0  0  2  0  0  0  0  0  0
  196.8800  170.1880  146.3140 C   0  0  0  0  0  1  0  0  0  0  0  0
  196.1380  171.3610  145.7150 C   0  0  0  0  0  2  0  0  0  0  0  0
  1  9  1  6  0  0  0
  1  8  1  0  0  0  0
  3  7  2  0  0  0  0
  4  5  1  0  0  0  0
  5  2  1  1  0  0  0
  6  1  1  0  0  0  0
  6  3  1  0  0  0  0
  7  5  1  0  0  0  0
  8  4  2  0  0  0  0
 10 11  1  0  0  0  0
 11  9  1  0  0  0  0
 12 13  1  0  0  0  0
 13 20  1  0  0  0  0
 13 11  2  0  0  0  0
 14 12  2  0  0  0  0
 14 15  1  0  0  0  0
 15 10  2  0  0  0  0
 16 17  1  0  0  0  0
 16 14  1  0  0  0  0
 17 18  2  0  0  0  0
 18 15  1  0  0  0  0
 19 22  1  0  0  0  0
 19 21  2  0  0  0  0
 20 19  1  0  0  0  0
 22 25  1  1  0  0  0
 22 27  1  0  0  0  0
 23 24  1  0  0  0  0
 24 25  3  0  0  0  0
 27 28  1  0  0  0  0
 27 26  1  0  0  0  0
 28 26  1  0  0  0  0
 29 31  1  0  0  0  0
 29 30  1  1  0  0  0
 32 27  1  6  0  0  0
 32 29  1  0  0  0  0
 32 31  1  0  0  0  0
 33 34  1  0  0  0  0
 33  3  1  0  0  0  0
 35 41  1  0  0  0  0
 36 38  2  0  0  0  0
 37 36  1  0  0  0  0
 38 40  2  0  0  0  0
 39 34  1  1  0  0  0
 40 43  1  0  0  0  0
 40 39  1  0  0  0  0
 41 39  1  0  0  0  0
 42 36  1  0  0  0  0
 42 35  1  0  0  0  0
 43 47  1  6  0  0  0
 43 44  1  0  0  0  0
 44 45  1  0  0  0  0
 46 44  2  0  0  0  0
 47 48  1  0  0  0  0
 48 50  1  0  0  0  0
 50 49  1  0  0  0  0
M  END
>  <MODEL>
1

>  <REMARK>
 VINA RESULT:      -7.9      0.000      0.000
  Name = 
  15 active torsions:
  status: ('A' for Active; 'I' for Inactive)
    1  A    between atoms: C_3  and  C_16
    2  A    between atoms: C_3  and  C_20
    3  A    between atoms: C_3  and  C_46
    4  A    between atoms: C_5  and  O_23
    5  A    between atoms: C_8  and  C_13
    6  A    between atoms: C_8  and  O_25
    7  A    between atoms: C_8  and  C_30
    8  A    between atoms: C_11  and  O_23
    9  A    between atoms: C_20  and  C_38
   10  A    between atoms: C_21  and  O_25
   11  A    between atoms: C_21  and  C_41
   12  A    between atoms: C_22  and  O_33
   13  A    between atoms: C_24  and  N_36
   14  A    between atoms: C_26  and  C_44
   15  A    between atoms: O_33  and  C_44
                            x       y       z     vdW  Elec       q    Type
                         _______ _______ _______ _____ _____    ______ ____

>  <TORSDO>
F 15

$$$$
=
 OpenBabel11042415533D

 50 55  0  0  1  0  0  0  0  0999 V2000
  194.3460  174.5570  144.0060 C   0  0  1  0  0  3  0  0  0  0  0  0
  194.6870  177.6550  146.7450 F   0  0  0  0  0  0  0  0  0  0  0  0
  192.5850  176.4690  144.0920 C   0  0  0  0  0  0  0  0  0  0  0  0
  194.3780  175.4200  146.2630 N   0  0  0  0  0  0  0  0  0  0  0  0
  194.4450  176.7580  145.7240 C   0  0  1  0  0  3  0  0  0  0  0  0
  192.9970  175.1140  143.5600 C   0  0  0  0  0  2  0  0  0  0  0  0
  193.2020  177.1180  145.0440 N   0  0  0  0  0  0  0  0  0  0  0  0
  194.3520  174.3920  145.4920 C   0  0  0  0  0  3  0  0  0  0  0  0
  194.5720  173.2920  143.3900 O   0  0  0  0  0  0  0  0  0  0  0  0
  195.5730  171.7550  145.0110 C   0  0  0  0  0  3  0  0  0  0  0  0
  194.5500  172.0800  144.0940 C   0  0  0  0  0  0  0  0  0  0  0  0
  193.4500  169.9510  144.5770 C   0  0  0  0  0  3  0  0  0  0  0  0
  193.4810  171.1780  143.8820 C   0  0  0  0  0  0  0  0  0  0  0  0
  194.4810  169.6680  145.4700 C   0  0  0  0  0  0  0  0  0  0  0  0
  195.5030  170.5370  145.6820 C   0  0  0  0  0  0  0  0  0  0  0  0
  194.6210  168.5330  146.2340 O   0  0  0  0  0  0  0  0  0  0  0  0
  195.8050  168.6180  147.0250 C   0  0  0  0  0  3  0  0  0  0  0  0
  196.4470  169.9790  146.6790 C   0  0  0  0  0  3  0  0  0  0  0  0
  192.1490  170.8830  141.7080 C   0  0  0  0  0  0  0  0  0  0  0  0
  192.4490  171.5340  142.9490 N   0  0  0  0  0  2  0  0  0  0  0  0
  192.7850  169.8570  141.3450 O   0  0  0  0  0  0  0  0  0  0  0  0
  191.0000  171.3920  140.8890 C   0  0  1  0  0  3  0  0  0  0  0  0
  188.7170  174.1800  142.9270 C   0  0  0  0  0  1  0  0  0  0  0  0
  189.5250  173.1990  142.2110 C   0  0  0  0  0  0  0  0  0  0  0  0
  190.1910  172.3870  141.6180 C   0  0  0  0  0  0  0  0  0  0  0  0
  192.8060  172.4920  139.4470 C   0  0  0  0  0  2  0  0  0  0  0  0
  191.4440  171.8200  139.4730 C   0  0  0  0  0  0  0  0  0  0  0  0
  191.5600  173.3000  139.1290 C   0  0  0  0  0  2  0  0  0  0  0  0
  189.9020  170.8830  137.7060 C   0  0  1  0  0  3  0  0  0  0  0  0
  189.9560  170.4040  136.3980 O   0  0  0  0  0  1  0  0  0  0  0  0
  190.2630  169.7670  138.6570 C   0  0  0  0  0  2  0  0  0  0  0  0
  191.2950  170.8260  138.3140 C   0  0  2  0  0  3  0  0  0  0  0  0
  191.4370  177.0200  143.5230 O   0  0  0  0  0  0  0  0  0  0  0  0
  190.4580  177.7200  144.2810 C   0  0  0  0  0  2  0  0  0  0  0  0
  187.4760  177.7450  141.7600 C   0  0  0  0  0  2  0  0  0  0  0  0
  186.0140  178.6580  143.6590 C   0  0  0  0  0  0  0  0  0  0  0  0
  184.8370  179.1900  144.1740 O   0  0  0  0  0  1  0  0  0  0  0  0
  186.9220  178.1640  144.4360 C   0  0  0  0  0  0  0  0  0  0  0  0
  189.0720  177.3530  143.7820 C   0  0  1  0  0  3  0  0  0  0  0  0
  188.0260  177.6280  144.8500 C   0  0  0  0  0  0  0  0  0  0  0  0
  188.8230  178.0850  142.4320 C   0  0  0  0  0  2  0  0  0  0  0  0
  186.3140  178.6820  142.1840 C   0  0  0  0  0  2  0  0  0  0  0  0
  188.0790  177.0160  146.2190 C   0  0  1  0  0  3  0  0  0  0  0  0
  186.9430  177.4820  147.0760 C   0  0  0  0  0  0  0  0  0  0  0  0
  185.7440  176.7860  147.0650 O   0  0  0  0  0  0  0  0  0  0  0  0
  187.0770  178.4770  147.8330 O   0  0  0  0  0  1  0  0  0  0  0  0
  188.0990  175.6210  146.1400 O   0  0  0  0  0  0  0  0  0  0  0  0
  188.8850  175.2080  147.2180 C   0  0  0  0  0  2  0  0  0  0  0  0
  191.2680  175.5290  147.7740 C   0  0  0  0  0  1  0  0  0  0  0  0
  190.3030  174.9830  146.7450 C   0  0  0  0  0  2  0  0  0  0  0  0
  1  9  1  6  0  0  0
  1  8  1  0  0  0  0
  3  7  2  0  0  0  0
  5  4  1  0  0  0  0
  5  2  1  1  0  0  0
  6  1  1  0  0  0  0
  6  3  1  0  0  0  0
  7  5  1  0  0  0  0
  8  4  2  0  0  0  0
  9 11  1  0  0  0  0
 10 15  1  0  0  0  0
 11 10  2  0  0  0  0
 12 14  1  0  0  0  0
 13 11  1  0  0  0  0
 13 12  2  0  0  0  0
 14 15  2  0  0  0  0
 14 16  1  0  0  0  0
 15 18  1  0  0  0  0
 16 17  1  0  0  0  0
 18 17  2  0  0  0  0
 19 20  1  0  0  0  0
 20 13  1  0  0  0  0
 21 19  2  0  0  0  0
 22 25  1  1  0  0  0
 22 19  1  0  0  0  0
 24 23  1  0  0  0  0
 25 24  3  0  0  0  0
 26 27  1  0  0  0  0
 27 22  1  0  0  0  0
 28 26  1  0  0  0  0
 28 27  1  0  0  0  0
 29 30  1  6  0  0  0
 29 32  1  0  0  0  0
 29 31  1  0  0  0  0
 32 31  1  1  0  0  0
 32 27  1  0  0  0  0
 33  3  1  0  0  0  0
 33 34  1  0  0  0  0
 35 42  1  0  0  0  0
 35 41  1  0  0  0  0
 36 37  1  0  0  0  0
 36 38  2  0  0  0  0
 38 40  2  0  0  0  0
 39 34  1  1  0  0  0
 39 40  1  0  0  0  0
 40 43  1  0  0  0  0
 41 39  1  0  0  0  0
 42 36  1  0  0  0  0
 43 47  1  6  0  0  0
 43 44  1  0  0  0  0
 44 46  1  0  0  0  0
 45 44  2  0  0  0  0
 47 48  1  0  0  0  0
 50 48  1  0  0  0  0
 50 49  1  0  0  0  0
M  END
>  <MODEL>
2

>  <REMARK>
 VINA RESULT:      -7.6      2.387      8.156
  Name = 
  15 active torsions:
  status: ('A' for Active; 'I' for Inactive)
    1  A    between atoms: C_3  and  C_16
    2  A    between atoms: C_3  and  C_20
    3  A    between atoms: C_3  and  C_46
    4  A    between atoms: C_5  and  O_23
    5  A    between atoms: C_8  and  C_13
    6  A    between atoms: C_8  and  O_25
    7  A    between atoms: C_8  and  C_30
    8  A    between atoms: C_11  and  O_23
    9  A    between atoms: C_20  and  C_38
   10  A    between atoms: C_21  and  O_25
   11  A    between atoms: C_21  and  C_41
   12  A    between atoms: C_22  and  O_33
   13  A    between atoms: C_24  and  N_36
   14  A    between atoms: C_26  and  C_44
   15  A    between atoms: O_33  and  C_44
                            x       y       z     vdW  Elec       q    Type
                         _______ _______ _______ _____ _____    ______ ____

>  <TORSDO>
F 15

$$$$
=
 OpenBabel11042415533D

 50 55  0  0  1  0  0  0  0  0999 V2000
  189.6290  175.7170  146.9540 C   0  0  1  0  0  3  0  0  0  0  0  0
  192.0650  178.0360  149.3830 F   0  0  0  0  0  0  0  0  0  0  0  0
  192.2200  175.6280  146.7310 C   0  0  0  0  0  0  0  0  0  0  0  0
  190.4610  177.8470  147.7370 N   0  0  0  0  0  0  0  0  0  0  0  0
  191.4300  177.1440  148.5430 C   0  0  1  0  0  3  0  0  0  0  0  0
  190.8610  175.2540  146.1810 C   0  0  0  0  0  2  0  0  0  0  0  0
  192.4240  176.4700  147.7110 N   0  0  0  0  0  0  0  0  0  0  0  0
  189.6100  177.2110  147.0140 C   0  0  0  0  0  3  0  0  0  0  0  0
  188.4500  175.2550  146.3020 O   0  0  0  0  0  0  0  0  0  0  0  0
  186.4930  176.7180  146.4550 C   0  0  0  0  0  3  0  0  0  0  0  0
  187.5200  176.1130  145.6990 C   0  0  0  0  0  0  0  0  0  0  0  0
  186.6890  177.2300  143.6890 C   0  0  0  0  0  3  0  0  0  0  0  0
  187.6230  176.3750  144.3120 C   0  0  0  0  0  0  0  0  0  0  0  0
  185.6900  177.8040  144.4710 C   0  0  0  0  0  0  0  0  0  0  0  0
  185.5960  177.5600  145.8040 C   0  0  0  0  0  0  0  0  0  0  0  0
  184.6980  178.6570  144.0460 O   0  0  0  0  0  0  0  0  0  0  0  0
  183.8700  179.0320  145.1460 C   0  0  0  0  0  3  0  0  0  0  0  0
  184.4470  178.3020  146.3770 C   0  0  0  0  0  3  0  0  0  0  0  0
  188.5370  174.8020  142.5020 C   0  0  0  0  0  0  0  0  0  0  0  0
  188.6790  175.7530  143.5650 N   0  0  0  0  0  2  0  0  0  0  0  0
  187.3960  174.4560  142.0910 O   0  0  0  0  0  0  0  0  0  0  0  0
  189.7740  174.2940  141.8220 C   0  0  1  0  0  3  0  0  0  0  0  0
  193.1610  176.4010  142.9300 C   0  0  0  0  0  1  0  0  0  0  0  0
  191.9650  175.6620  142.5380 C   0  0  0  0  0  0  0  0  0  0  0  0
  190.9780  175.0500  142.2150 C   0  0  0  0  0  0  0  0  0  0  0  0
  189.0550  172.1580  143.0360 C   0  0  0  0  0  2  0  0  0  0  0  0
  189.9020  172.7580  141.9280 C   0  0  0  0  0  0  0  0  0  0  0  0
  190.5690  172.1340  143.1480 C   0  0  0  0  0  2  0  0  0  0  0  0
  190.5730  172.5660  139.5000 C   0  0  1  0  0  3  0  0  0  0  0  0
  190.9210  171.5870  138.5720 O   0  0  0  0  0  1  0  0  0  0  0  0
  189.0680  172.6710  139.5670 C   0  0  0  0  0  2  0  0  0  0  0  0
  189.8170  171.9150  140.6490 C   0  0  2  0  0  3  0  0  0  0  0  0
  193.3140  175.0360  146.1000 O   0  0  0  0  0  0  0  0  0  0  0  0
  193.2820  173.7130  145.5800 C   0  0  0  0  0  2  0  0  0  0  0  0
  197.1730  173.8790  145.8790 C   0  0  0  0  0  2  0  0  0  0  0  0
  197.2750  173.6180  143.3290 C   0  0  0  0  0  0  0  0  0  0  0  0
  197.9410  173.5970  142.1090 O   0  0  0  0  0  1  0  0  0  0  0  0
  196.0830  173.1280  143.4500 C   0  0  0  0  0  0  0  0  0  0  0  0
  194.7020  173.2060  145.3980 C   0  0  1  0  0  3  0  0  0  0  0  0
  194.9410  172.7870  143.9560 C   0  0  0  0  0  0  0  0  0  0  0  0
  195.6850  174.2890  145.9260 C   0  0  0  0  0  2  0  0  0  0  0  0
  197.8800  174.2580  144.5500 C   0  0  0  0  0  2  0  0  0  0  0  0
  194.1070  171.7530  143.2590 C   0  0  1  0  0  3  0  0  0  0  0  0
  194.1090  171.9530  141.7750 C   0  0  0  0  0  0  0  0  0  0  0  0
  194.7580  171.0400  140.9590 O   0  0  0  0  0  0  0  0  0  0  0  0
  193.4960  172.9220  141.2580 O   0  0  0  0  0  1  0  0  0  0  0  0
  194.5380  170.4640  143.5840 O   0  0  0  0  0  0  0  0  0  0  0  0
  193.5740  169.9710  144.4660 C   0  0  0  0  0  2  0  0  0  0  0  0
  195.7520  169.4600  145.5080 C   0  0  0  0  0  1  0  0  0  0  0  0
  194.2530  169.4600  145.7150 C   0  0  0  0  0  2  0  0  0  0  0  0
  1  9  1  6  0  0  0
  1  8  1  0  0  0  0
  3  7  2  0  0  0  0
  4  5  1  0  0  0  0
  5  2  1  1  0  0  0
  6  3  1  0  0  0  0
  6  1  1  0  0  0  0
  7  5  1  0  0  0  0
  8  4  2  0  0  0  0
 11  9  1  0  0  0  0
 11 10  2  0  0  0  0
 12 13  2  0  0  0  0
 12 14  1  0  0  0  0
 13 11  1  0  0  0  0
 14 15  2  0  0  0  0
 15 18  1  0  0  0  0
 15 10  1  0  0  0  0
 16 14  1  0  0  0  0
 16 17  1  0  0  0  0
 17 18  2  0  0  0  0
 19 20  1  0  0  0  0
 20 13  1  0  0  0  0
 21 19  2  0  0  0  0
 22 27  1  0  0  0  0
 22 25  1  1  0  0  0
 22 19  1  0  0  0  0
 24 23  1  0  0  0  0
 25 24  3  0  0  0  0
 26 28  1  0  0  0  0
 27 26  1  0  0  0  0
 27 28  1  0  0  0  0
 29 30  1  6  0  0  0
 29 31  1  0  0  0  0
 29 32  1  0  0  0  0
 32 31  1  6  0  0  0
 32 27  1  0  0  0  0
 33  3  1  0  0  0  0
 34 33  1  0  0  0  0
 35 41  1  0  0  0  0
 36 38  2  0  0  0  0
 36 42  1  0  0  0  0
 37 36  1  0  0  0  0
 38 40  2  0  0  0  0
 39 34  1  6  0  0  0
 39 41  1  0  0  0  0
 40 39  1  0  0  0  0
 42 35  1  0  0  0  0
 43 44  1  6  0  0  0
 43 47  1  0  0  0  0
 43 40  1  0  0  0  0
 45 44  2  0  0  0  0
 46 44  1  0  0  0  0
 47 48  1  0  0  0  0
 48 50  1  0  0  0  0
 49 50  1  0  0  0  0
M  END
>  <MODEL>
3

>  <REMARK>
 VINA RESULT:      -7.4      2.016      5.650
  Name = 
  15 active torsions:
  status: ('A' for Active; 'I' for Inactive)
    1  A    between atoms: C_3  and  C_16
    2  A    between atoms: C_3  and  C_20
    3  A    between atoms: C_3  and  C_46
    4  A    between atoms: C_5  and  O_23
    5  A    between atoms: C_8  and  C_13
    6  A    between atoms: C_8  and  O_25
    7  A    between atoms: C_8  and  C_30
    8  A    between atoms: C_11  and  O_23
    9  A    between atoms: C_20  and  C_38
   10  A    between atoms: C_21  and  O_25
   11  A    between atoms: C_21  and  C_41
   12  A    between atoms: C_22  and  O_33
   13  A    between atoms: C_24  and  N_36
   14  A    between atoms: C_26  and  C_44
   15  A    between atoms: O_33  and  C_44
                            x       y       z     vdW  Elec       q    Type
                         _______ _______ _______ _____ _____    ______ ____

>  <TORSDO>
F 15

$$$$
=
 OpenBabel11042415533D

 50 55  0  0  1  0  0  0  0  0999 V2000
  189.4610  172.3050  140.6280 C   0  0  1  0  0  3  0  0  0  0  0  0
  187.9410  174.9300  137.7980 F   0  0  0  0  0  0  0  0  0  0  0  0
  188.4330  174.5880  141.3330 C   0  0  0  0  0  0  0  0  0  0  0  0
  189.7110  173.7860  138.7350 N   0  0  0  0  0  0  0  0  0  0  0  0
  188.3260  174.1660  138.8800 C   0  0  1  0  0  3  0  0  0  0  0  0
  189.2160  173.3490  141.7130 C   0  0  0  0  0  2  0  0  0  0  0  0
  188.1100  174.9230  140.1110 N   0  0  0  0  0  0  0  0  0  0  0  0
  190.2490  172.9170  139.5140 C   0  0  0  0  0  3  0  0  0  0  0  0
  190.1890  171.2070  141.1730 O   0  0  0  0  0  0  0  0  0  0  0  0
  191.2330  169.7680  139.4910 C   0  0  0  0  0  3  0  0  0  0  0  0
  191.3350  170.6710  140.5710 C   0  0  0  0  0  0  0  0  0  0  0  0
  193.7730  170.5130  140.4640 C   0  0  0  0  0  3  0  0  0  0  0  0
  192.6100  171.0510  141.0550 C   0  0  0  0  0  0  0  0  0  0  0  0
  193.6270  169.6230  139.4030 C   0  0  0  0  0  0  0  0  0  0  0  0
  192.4050  169.2650  138.9310 C   0  0  0  0  0  0  0  0  0  0  0  0
  194.6360  169.0010  138.7040 O   0  0  0  0  0  0  0  0  0  0  0  0
  194.0860  168.1670  137.6870 C   0  0  0  0  0  3  0  0  0  0  0  0
  192.5530  168.3140  137.8040 C   0  0  0  0  0  3  0  0  0  0  0  0
  193.1100  173.3450  142.0920 C   0  0  0  0  0  0  0  0  0  0  0  0
  192.6880  171.9760  142.1500 N   0  0  0  0  0  2  0  0  0  0  0  0
  193.4220  173.8800  140.9940 O   0  0  0  0  0  0  0  0  0  0  0  0
  193.0870  174.1580  143.3520 C   0  0  1  0  0  3  0  0  0  0  0  0
  189.7300  173.3750  145.6460 C   0  0  0  0  0  1  0  0  0  0  0  0
  190.9150  173.6520  144.8410 C   0  0  0  0  0  0  0  0  0  0  0  0
  191.8940  173.8800  144.1750 C   0  0  0  0  0  0  0  0  0  0  0  0
  194.4250  174.8580  145.4190 C   0  0  0  0  0  2  0  0  0  0  0  0
  194.4330  174.0910  144.1080 C   0  0  0  0  0  0  0  0  0  0  0  0
  195.2780  175.3490  144.2630 C   0  0  0  0  0  2  0  0  0  0  0  0
  194.4310  171.8600  145.2910 C   0  0  1  0  0  3  0  0  0  0  0  0
  194.7340  170.5240  145.0340 O   0  0  0  0  0  1  0  0  0  0  0  0
  195.6980  172.5910  145.6650 C   0  0  0  0  0  2  0  0  0  0  0  0
  195.1320  172.7350  144.2630 C   0  0  2  0  0  3  0  0  0  0  0  0
  188.0760  175.4270  142.3890 O   0  0  0  0  0  0  0  0  0  0  0  0
  187.8420  176.8200  142.2230 C   0  0  0  0  0  2  0  0  0  0  0  0
  191.2820  178.1640  143.4920 C   0  0  0  0  0  2  0  0  0  0  0  0
  190.7600  177.0670  145.7500 C   0  0  0  0  0  0  0  0  0  0  0  0
  191.0850  176.6690  147.0420 O   0  0  0  0  0  1  0  0  0  0  0  0
  189.5290  177.1090  145.3520 C   0  0  0  0  0  0  0  0  0  0  0  0
  188.7620  177.6010  143.1440 C   0  0  1  0  0  3  0  0  0  0  0  0
  188.4860  177.2540  144.5990 C   0  0  0  0  0  0  0  0  0  0  0  0
  190.2310  177.3650  142.6920 C   0  0  0  0  0  2  0  0  0  0  0  0
  191.8190  177.4110  144.7380 C   0  0  0  0  0  2  0  0  0  0  0  0
  187.1360  177.4140  145.2330 C   0  0  1  0  0  3  0  0  0  0  0  0
  187.1880  177.1660  146.7090 C   0  0  0  0  0  0  0  0  0  0  0  0
  187.1270  178.2360  147.5880 O   0  0  0  0  0  1  0  0  0  0  0  0
  187.2500  175.9940  147.1600 O   0  0  0  0  0  0  0  0  0  0  0  0
  186.6050  178.6780  144.9620 O   0  0  0  0  0  0  0  0  0  0  0  0
  185.2780  178.4440  144.6000 C   0  0  0  0  0  2  0  0  0  0  0  0
  184.2840  178.0310  142.3790 C   0  0  0  0  0  1  0  0  0  0  0  0
  185.0200  179.0380  143.2350 C   0  0  0  0  0  2  0  0  0  0  0  0
  1  9  1  1  0  0  0
  1  6  1  0  0  0  0
  3  6  1  0  0  0  0
  3 33  1  0  0  0  0
  4  5  1  0  0  0  0
  4  8  2  0  0  0  0
  5  2  1  6  0  0  0
  5  7  1  0  0  0  0
  7  3  2  0  0  0  0
  8  1  1  0  0  0  0
 10 11  1  0  0  0  0
 11 13  2  0  0  0  0
 11  9  1  0  0  0  0
 12 13  1  0  0  0  0
 13 20  1  0  0  0  0
 14 12  2  0  0  0  0
 15 14  1  0  0  0  0
 15 10  2  0  0  0  0
 16 14  1  0  0  0  0
 17 18  2  0  0  0  0
 17 16  1  0  0  0  0
 18 15  1  0  0  0  0
 19 20  1  0  0  0  0
 19 22  1  0  0  0  0
 21 19  2  0  0  0  0
 22 27  1  0  0  0  0
 22 25  1  1  0  0  0
 24 23  1  0  0  0  0
 25 24  3  0  0  0  0
 27 28  1  0  0  0  0
 27 26  1  0  0  0  0
 28 26  1  0  0  0  0
 29 30  1  6  0  0  0
 29 31  1  0  0  0  0
 32 27  1  1  0  0  0
 32 29  1  0  0  0  0
 32 31  1  0  0  0  0
 34 33  1  0  0  0  0
 35 42  1  0  0  0  0
 36 37  1  0  0  0  0
 38 36  2  0  0  0  0
 39 34  1  6  0  0  0
 39 40  1  0  0  0  0
 40 43  1  0  0  0  0
 40 38  2  0  0  0  0
 41 39  1  0  0  0  0
 41 35  1  0  0  0  0
 42 36  1  0  0  0  0
 43 47  1  1  0  0  0
 43 44  1  0  0  0  0
 44 46  2  0  0  0  0
 44 45  1  0  0  0  0
 48 47  1  0  0  0  0
 49 50  1  0  0  0  0
 50 48  1  0  0  0  0
M  END
>  <MODEL>
4

>  <REMARK>
 VINA RESULT:      -7.3      3.008      8.515
  Name = 
  15 active torsions:
  status: ('A' for Active; 'I' for Inactive)
    1  A    between atoms: C_3  and  C_16
    2  A    between atoms: C_3  and  C_20
    3  A    between atoms: C_3  and  C_46
    4  A    between atoms: C_5  and  O_23
    5  A    between atoms: C_8  and  C_13
    6  A    between atoms: C_8  and  O_25
    7  A    between atoms: C_8  and  C_30
    8  A    between atoms: C_11  and  O_23
    9  A    between atoms: C_20  and  C_38
   10  A    between atoms: C_21  and  O_25
   11  A    between atoms: C_21  and  C_41
   12  A    between atoms: C_22  and  O_33
   13  A    between atoms: C_24  and  N_36
   14  A    between atoms: C_26  and  C_44
   15  A    between atoms: O_33  and  C_44
                            x       y       z     vdW  Elec       q    Type
                         _______ _______ _______ _____ _____    ______ ____

>  <TORSDO>
F 15

$$$$
=
 OpenBabel11042415533D

 50 55  0  0  1  0  0  0  0  0999 V2000
  190.8280  173.7140  144.3850 C   0  0  1  0  0  3  0  0  0  0  0  0
  190.2350  175.5740  148.0460 F   0  0  0  0  0  0  0  0  0  0  0  0
  190.3840  176.2730  144.5320 C   0  0  0  0  0  0  0  0  0  0  0  0
  189.5730  174.0800  146.4190 N   0  0  0  0  0  0  0  0  0  0  0  0
  190.4790  175.1520  146.7550 C   0  0  1  0  0  3  0  0  0  0  0  0
  190.5190  175.0310  143.6780 C   0  0  0  0  0  2  0  0  0  0  0  0
  190.3280  176.2810  145.8380 N   0  0  0  0  0  0  0  0  0  0  0  0
  189.7270  173.3920  145.3440 C   0  0  0  0  0  3  0  0  0  0  0  0
  190.9390  172.6670  143.4240 O   0  0  0  0  0  0  0  0  0  0  0  0
  189.5470  172.7790  141.4140 C   0  0  0  0  0  3  0  0  0  0  0  0
  190.8070  172.8740  142.0450 C   0  0  0  0  0  0  0  0  0  0  0  0
  191.8390  173.3920  139.8900 C   0  0  0  0  0  3  0  0  0  0  0  0
  191.9560  173.1900  141.2810 C   0  0  0  0  0  0  0  0  0  0  0  0
  190.5800  173.2850  139.3070 C   0  0  0  0  0  0  0  0  0  0  0  0
  189.4740  172.9920  140.0400 C   0  0  0  0  0  0  0  0  0  0  0  0
  190.2700  173.4490  137.9760 O   0  0  0  0  0  0  0  0  0  0  0  0
  188.8710  173.2640  137.7720 C   0  0  0  0  0  3  0  0  0  0  0  0
  188.2800  172.9460  139.1630 C   0  0  0  0  0  3  0  0  0  0  0  0
  194.1180  172.2110  142.2580 C   0  0  0  0  0  0  0  0  0  0  0  0
  193.2250  173.2870  141.9470 N   0  0  0  0  0  2  0  0  0  0  0  0
  193.8550  171.0290  141.9070 O   0  0  0  0  0  0  0  0  0  0  0  0
  195.4200  172.5300  142.9310 C   0  0  1  0  0  3  0  0  0  0  0  0
  196.5130  176.4950  142.4600 C   0  0  0  0  0  1  0  0  0  0  0  0
  196.1240  175.0990  142.6270 C   0  0  0  0  0  0  0  0  0  0  0  0
  195.8040  173.9450  142.7640 C   0  0  0  0  0  0  0  0  0  0  0  0
  194.1580  172.2080  145.1340 C   0  0  0  0  0  2  0  0  0  0  0  0
  195.4630  172.0070  144.3840 C   0  0  0  0  0  0  0  0  0  0  0  0
  195.3930  172.9910  145.5460 C   0  0  0  0  0  2  0  0  0  0  0  0
  197.5510  170.6850  144.9070 C   0  0  1  0  0  3  0  0  0  0  0  0
  197.9400  169.5680  145.6430 O   0  0  0  0  0  1  0  0  0  0  0  0
  197.0310  170.2340  143.5630 C   0  0  0  0  0  2  0  0  0  0  0  0
  196.0510  170.6180  144.6580 C   0  0  2  0  0  3  0  0  0  0  0  0
  190.2830  177.4790  143.8370 O   0  0  0  0  0  0  0  0  0  0  0  0
  189.0850  178.2440  143.7890 C   0  0  0  0  0  2  0  0  0  0  0  0
  187.4990  176.5070  140.6720 C   0  0  0  0  0  2  0  0  0  0  0  0
  185.4690  178.0460  140.9780 C   0  0  0  0  0  0  0  0  0  0  0  0
  184.2500  178.5860  140.5850 O   0  0  0  0  0  1  0  0  0  0  0  0
  185.8960  178.1700  142.1930 C   0  0  0  0  0  0  0  0  0  0  0  0
  188.0180  177.4690  143.0370 C   0  0  1  0  0  3  0  0  0  0  0  0
  186.6500  178.1000  143.2430 C   0  0  0  0  0  0  0  0  0  0  0  0
  188.4540  177.3450  141.5500 C   0  0  0  0  0  2  0  0  0  0  0  0
  186.3750  177.3430  140.0030 C   0  0  0  0  0  2  0  0  0  0  0  0
  186.0440  178.3070  144.6000 C   0  0  1  0  0  3  0  0  0  0  0  0
  184.9810  179.3600  144.5740 C   0  0  0  0  0  0  0  0  0  0  0  0
  185.3140  180.6650  144.2470 O   0  0  0  0  0  0  0  0  0  0  0  0
  183.7810  179.0660  144.8090 O   0  0  0  0  0  1  0  0  0  0  0  0
  185.5390  177.1060  145.1070 O   0  0  0  0  0  0  0  0  0  0  0  0
  186.5190  176.6410  145.9850 C   0  0  0  0  0  2  0  0  0  0  0  0
  185.9470  177.8610  148.0530 C   0  0  0  0  0  1  0  0  0  0  0  0
  186.9340  177.7620  146.9100 C   0  0  0  0  0  2  0  0  0  0  0  0
  1  9  1  6  0  0  0
  1  8  1  0  0  0  0
  3  7  2  0  0  0  0
  4  5  1  0  0  0  0
  5  2  1  1  0  0  0
  6  1  1  0  0  0  0
  6  3  1  0  0  0  0
  7  5  1  0  0  0  0
  8  4  2  0  0  0  0
 10 11  1  0  0  0  0
 11  9  1  0  0  0  0
 12 13  1  0  0  0  0
 13 20  1  0  0  0  0
 13 11  2  0  0  0  0
 14 12  2  0  0  0  0
 14 15  1  0  0  0  0
 15 10  2  0  0  0  0
 16 14  1  0  0  0  0
 17 16  1  0  0  0  0
 17 18  2  0  0  0  0
 18 15  1  0  0  0  0
 19 22  1  0  0  0  0
 20 19  1  0  0  0  0
 21 19  2  0  0  0  0
 22 25  1  1  0  0  0
 22 27  1  0  0  0  0
 23 24  1  0  0  0  0
 24 25  3  0  0  0  0
 26 28  1  0  0  0  0
 27 32  1  0  0  0  0
 27 26  1  0  0  0  0
 27 28  1  0  0  0  0
 29 30  1  1  0  0  0
 31 29  1  0  0  0  0
 32 31  1  6  0  0  0
 32 29  1  0  0  0  0
 33  3  1  0  0  0  0
 34 33  1  0  0  0  0
 35 41  1  0  0  0  0
 36 38  2  0  0  0  0
 37 36  1  0  0  0  0
 38 40  2  0  0  0  0
 39 40  1  0  0  0  0
 39 34  1  1  0  0  0
 40 43  1  0  0  0  0
 41 39  1  0  0  0  0
 42 35  1  0  0  0  0
 42 36  1  0  0  0  0
 43 44  1  6  0  0  0
 43 47  1  0  0  0  0
 44 46  1  0  0  0  0
 45 44  2  0  0  0  0
 47 48  1  0  0  0  0
 48 50  1  0  0  0  0
 50 49  1  0  0  0  0
M  END
>  <MODEL>
5

>  <REMARK>
 VINA RESULT:      -7.2      2.160      8.853
  Name = 
  15 active torsions:
  status: ('A' for Active; 'I' for Inactive)
    1  A    between atoms: C_3  and  C_16
    2  A    between atoms: C_3  and  C_20
    3  A    between atoms: C_3  and  C_46
    4  A    between atoms: C_5  and  O_23
    5  A    between atoms: C_8  and  C_13
    6  A    between atoms: C_8  and  O_25
    7  A    between atoms: C_8  and  C_30
    8  A    between atoms: C_11  and  O_23
    9  A    between atoms: C_20  and  C_38
   10  A    between atoms: C_21  and  O_25
   11  A    between atoms: C_21  and  C_41
   12  A    between atoms: C_22  and  O_33
   13  A    between atoms: C_24  and  N_36
   14  A    between atoms: C_26  and  C_44
   15  A    between atoms: O_33  and  C_44
                            x       y       z     vdW  Elec       q    Type
                         _______ _______ _______ _____ _____    ______ ____

>  <TORSDO>
F 15

$$$$
=
 OpenBabel11042415533D

 50 55  0  0  1  0  0  0  0  0999 V2000
  192.0030  172.7050  141.9170 C   0  0  1  0  0  3  0  0  0  0  0  0
  188.9440  171.6050  144.4950 F   0  0  0  0  0  0  0  0  0  0  0  0
  190.1230  174.3840  142.5610 C   0  0  0  0  0  0  0  0  0  0  0  0
  190.0640  171.3810  142.4920 N   0  0  0  0  0  0  0  0  0  0  0  0
  189.9080  172.1730  143.6880 C   0  0  1  0  0  3  0  0  0  0  0  0
  191.3120  174.0460  141.6870 C   0  0  0  0  0  2  0  0  0  0  0  0
  189.5260  173.5470  143.3690 N   0  0  0  0  0  0  0  0  0  0  0  0
  191.0320  171.5940  141.6730 C   0  0  0  0  0  3  0  0  0  0  0  0
  193.1060  172.5730  141.0240 O   0  0  0  0  0  0  0  0  0  0  0  0
  192.5500  173.3400  138.7670 C   0  0  0  0  0  3  0  0  0  0  0  0
  193.3250  173.4360  139.9430 C   0  0  0  0  0  0  0  0  0  0  0  0
  194.5760  175.2920  138.9570 C   0  0  0  0  0  3  0  0  0  0  0  0
  194.3370  174.4210  140.0410 C   0  0  0  0  0  0  0  0  0  0  0  0
  193.7900  175.1600  137.8150 C   0  0  0  0  0  0  0  0  0  0  0  0
  192.8120  174.2220  137.7230 C   0  0  0  0  0  0  0  0  0  0  0  0
  193.8730  175.9130  136.6660 O   0  0  0  0  0  0  0  0  0  0  0  0
  192.8950  175.4770  135.7240 C   0  0  0  0  0  3  0  0  0  0  0  0
  192.1410  174.3150  136.4040 C   0  0  0  0  0  3  0  0  0  0  0  0
  194.8400  175.3330  142.3870 C   0  0  0  0  0  0  0  0  0  0  0  0
  195.1090  174.5040  141.2490 N   0  0  0  0  0  2  0  0  0  0  0  0
  193.8140  176.0650  142.4270 O   0  0  0  0  0  0  0  0  0  0  0  0
  195.7550  175.2460  143.5720 C   0  0  1  0  0  3  0  0  0  0  0  0
  194.1920  177.1720  146.8870 C   0  0  0  0  0  1  0  0  0  0  0  0
  194.7460  176.4920  145.7210 C   0  0  0  0  0  0  0  0  0  0  0  0
  195.2030  175.9300  144.7560 C   0  0  0  0  0  0  0  0  0  0  0  0
  197.2810  173.6970  144.9230 C   0  0  0  0  0  2  0  0  0  0  0  0
  196.2430  173.8010  143.8200 C   0  0  0  0  0  0  0  0  0  0  0  0
  197.6790  173.4170  143.4840 C   0  0  0  0  0  2  0  0  0  0  0  0
  194.3770  172.7970  145.1960 C   0  0  1  0  0  3  0  0  0  0  0  0
  193.1670  172.1320  145.0130 O   0  0  0  0  0  1  0  0  0  0  0  0
  195.5060  171.7960  145.1290 C   0  0  0  0  0  2  0  0  0  0  0  0
  195.2080  172.6740  143.9270 C   0  0  2  0  0  3  0  0  0  0  0  0
  189.6360  175.6860  142.4440 O   0  0  0  0  0  0  0  0  0  0  0  0
  189.2480  176.4690  143.5660 C   0  0  0  0  0  2  0  0  0  0  0  0
  185.7610  177.2640  141.9960 C   0  0  0  0  0  2  0  0  0  0  0  0
  185.4710  179.0570  143.8080 C   0  0  0  0  0  0  0  0  0  0  0  0
  184.8090  180.1240  144.4030 O   0  0  0  0  0  1  0  0  0  0  0  0
  186.3720  178.3850  144.4500 C   0  0  0  0  0  0  0  0  0  0  0  0
  187.7380  176.6330  143.5710 C   0  0  1  0  0  3  0  0  0  0  0  0
  187.2990  177.5240  144.7230 C   0  0  0  0  0  0  0  0  0  0  0  0
  187.2890  177.1270  142.1670 C   0  0  0  0  0  2  0  0  0  0  0  0
  185.2170  178.6670  142.3760 C   0  0  0  0  0  2  0  0  0  0  0  0
  187.6250  177.2240  146.1560 C   0  0  1  0  0  3  0  0  0  0  0  0
  186.5220  177.6520  147.0740 C   0  0  0  0  0  0  0  0  0  0  0  0
  186.6870  178.7750  147.8690 O   0  0  0  0  0  1  0  0  0  0  0  0
  185.4330  177.0240  147.1030 O   0  0  0  0  0  0  0  0  0  0  0  0
  187.9120  175.8660  146.3270 O   0  0  0  0  0  0  0  0  0  0  0  0
  189.0540  175.8350  147.1290 C   0  0  0  0  0  2  0  0  0  0  0  0
  191.2110  174.9220  146.3500 C   0  0  0  0  0  1  0  0  0  0  0  0
  189.8280  174.5680  146.8470 C   0  0  0  0  0  2  0  0  0  0  0  0
  1  9  1  6  0  0  0
  3  7  2  0  0  0  0
  4  5  1  0  0  0  0
  5  2  1  1  0  0  0
  6  1  1  0  0  0  0
  6  3  1  0  0  0  0
  7  5  1  0  0  0  0
  8  1  1  0  0  0  0
  8  4  2  0  0  0  0
 10 11  1  0  0  0  0
 11 13  2  0  0  0  0
 11  9  1  0  0  0  0
 12 13  1  0  0  0  0
 13 20  1  0  0  0  0
 14 12  2  0  0  0  0
 15 14  1  0  0  0  0
 15 10  2  0  0  0  0
 16 14  1  0  0  0  0
 17 18  2  0  0  0  0
 17 16  1  0  0  0  0
 18 15  1  0  0  0  0
 19 21  2  0  0  0  0
 19 22  1  0  0  0  0
 20 19  1  0  0  0  0
 22 27  1  0  0  0  0
 22 25  1  1  0  0  0
 24 23  1  0  0  0  0
 25 24  3  0  0  0  0
 27 26  1  0  0  0  0
 28 27  1  0  0  0  0
 28 26  1  0  0  0  0
 29 30  1  6  0  0  0
 31 29  1  0  0  0  0
 32 27  1  1  0  0  0
 32 31  1  0  0  0  0
 32 29  1  0  0  0  0
 33  3  1  0  0  0  0
 33 34  1  0  0  0  0
 35 41  1  0  0  0  0
 35 42  1  0  0  0  0
 36 37  1  0  0  0  0
 36 38  2  0  0  0  0
 38 40  2  0  0  0  0
 39 34  1  6  0  0  0
 39 40  1  0  0  0  0
 40 43  1  0  0  0  0
 41 39  1  0  0  0  0
 42 36  1  0  0  0  0
 43 47  1  6  0  0  0
 43 44  1  0  0  0  0
 44 46  2  0  0  0  0
 44 45  1  0  0  0  0
 47 48  1  0  0  0  0
 49 50  1  0  0  0  0
 50 48  1  0  0  0  0
M  END
>  <MODEL>
6

>  <REMARK>
 VINA RESULT:      -7.0      2.678      8.592
  Name = 
  15 active torsions:
  status: ('A' for Active; 'I' for Inactive)
    1  A    between atoms: C_3  and  C_16
    2  A    between atoms: C_3  and  C_20
    3  A    between atoms: C_3  and  C_46
    4  A    between atoms: C_5  and  O_23
    5  A    between atoms: C_8  and  C_13
    6  A    between atoms: C_8  and  O_25
    7  A    between atoms: C_8  and  C_30
    8  A    between atoms: C_11  and  O_23
    9  A    between atoms: C_20  and  C_38
   10  A    between atoms: C_21  and  O_25
   11  A    between atoms: C_21  and  C_41
   12  A    between atoms: C_22  and  O_33
   13  A    between atoms: C_24  and  N_36
   14  A    between atoms: C_26  and  C_44
   15  A    between atoms: O_33  and  C_44
                            x       y       z     vdW  Elec       q    Type
                         _______ _______ _______ _____ _____    ______ ____

>  <TORSDO>
F 15

$$$$
=
 OpenBabel11042415533D

 50 55  0  0  1  0  0  0  0  0999 V2000
  191.1020  171.5950  142.2100 C   0  0  1  0  0  3  0  0  0  0  0  0
  194.0930  168.7260  142.4010 F   0  0  0  0  0  0  0  0  0  0  0  0
  192.8560  171.6130  144.1320 C   0  0  0  0  0  0  0  0  0  0  0  0
  191.8640  169.3160  142.4680 N   0  0  0  0  0  0  0  0  0  0  0  0
  193.2250  169.7970  142.4660 C   0  0  1  0  0  3  0  0  0  0  0  0
  191.5640  172.1510  143.5540 C   0  0  0  0  0  2  0  0  0  0  0  0
  193.5110  170.5820  143.6660 N   0  0  0  0  0  0  0  0  0  0  0  0
  190.8730  170.1220  142.3300 C   0  0  0  0  0  3  0  0  0  0  0  0
  189.8880  172.2310  141.8180 O   0  0  0  0  0  0  0  0  0  0  0  0
  190.1940  171.9570  139.4050 C   0  0  0  0  0  3  0  0  0  0  0  0
  189.6240  172.6370  140.5030 C   0  0  0  0  0  0  0  0  0  0  0  0
  188.4990  174.1660  138.9630 C   0  0  0  0  0  3  0  0  0  0  0  0
  188.7670  173.7410  140.2810 C   0  0  0  0  0  0  0  0  0  0  0  0
  189.0840  173.4700  137.9090 C   0  0  0  0  0  0  0  0  0  0  0  0
  189.8990  172.4040  138.1200 C   0  0  0  0  0  0  0  0  0  0  0  0
  188.9400  173.7330  136.5660 O   0  0  0  0  0  0  0  0  0  0  0  0
  189.6940  172.7950  135.8000 C   0  0  0  0  0  3  0  0  0  0  0  0
  190.3720  171.8610  136.8240 C   0  0  0  0  0  3  0  0  0  0  0  0
  188.8950  175.1620  142.4150 C   0  0  0  0  0  0  0  0  0  0  0  0
  188.1940  174.4120  141.4140 N   0  0  0  0  0  2  0  0  0  0  0  0
  190.1410  175.3320  142.3420 O   0  0  0  0  0  0  0  0  0  0  0  0
  188.1020  175.8200  143.5050 C   0  0  1  0  0  3  0  0  0  0  0  0
  189.5070  174.8190  147.2690 C   0  0  0  0  0  1  0  0  0  0  0  0
  189.0080  175.1730  145.9440 C   0  0  0  0  0  0  0  0  0  0  0  0
  188.5970  175.4650  144.8490 C   0  0  0  0  0  0  0  0  0  0  0  0
  188.7670  177.8600  142.1090 C   0  0  0  0  0  2  0  0  0  0  0  0
  187.9190  177.3340  143.2540 C   0  0  0  0  0  0  0  0  0  0  0  0
  189.0700  178.2930  143.5320 C   0  0  0  0  0  2  0  0  0  0  0  0
  186.0760  178.4640  144.5580 C   0  0  1  0  0  3  0  0  0  0  0  0
  185.0720  179.4120  144.3690 O   0  0  0  0  0  1  0  0  0  0  0  0
  185.5730  177.1150  144.1030 C   0  0  0  0  0  2  0  0  0  0  0  0
  186.5010  177.9130  143.2050 C   0  0  2  0  0  3  0  0  0  0  0  0
  193.3340  172.2720  145.2640 O   0  0  0  0  0  0  0  0  0  0  0  0
  194.6080  172.9030  145.3090 C   0  0  0  0  0  2  0  0  0  0  0  0
  192.8070  176.1820  146.4340 C   0  0  0  0  0  2  0  0  0  0  0  0
  192.7000  176.8480  143.9590 C   0  0  0  0  0  0  0  0  0  0  0  0
  192.2890  177.6600  142.9090 O   0  0  0  0  0  1  0  0  0  0  0  0
  193.6680  176.0020  143.8120 C   0  0  0  0  0  0  0  0  0  0  0  0
  194.4240  174.4060  145.4220 C   0  0  1  0  0  3  0  0  0  0  0  0
  194.5280  175.0640  144.0550 C   0  0  0  0  0  0  0  0  0  0  0  0
  193.0910  174.6870  146.1730 C   0  0  0  0  0  2  0  0  0  0  0  0
  192.0080  176.8700  145.2950 C   0  0  0  0  0  2  0  0  0  0  0  0
  195.7320  174.9220  143.1710 C   0  0  1  0  0  3  0  0  0  0  0  0
  196.2370  176.2550  142.7110 C   0  0  0  0  0  0  0  0  0  0  0  0
  196.0290  176.6520  141.3990 O   0  0  0  0  0  0  0  0  0  0  0  0
  196.8150  177.0330  143.5120 O   0  0  0  0  0  1  0  0  0  0  0  0
  196.7430  174.2070  143.8200 O   0  0  0  0  0  0  0  0  0  0  0  0
  197.4220  173.5350  142.8020 C   0  0  0  0  0  2  0  0  0  0  0  0
  196.9830  171.1060  142.7990 C   0  0  0  0  0  1  0  0  0  0  0  0
  196.5370  172.4430  142.2480 C   0  0  0  0  0  2  0  0  0  0  0  0
  1  9  1  1  0  0  0
  1  8  1  0  0  0  0
  1  6  1  0  0  0  0
  3 33  1  0  0  0  0
  5  2  1  1  0  0  0
  5  4  1  0  0  0  0
  5  7  1  0  0  0  0
  6  3  1  0  0  0  0
  7  3  2  0  0  0  0
  8  4  2  0  0  0  0
 10 11  1  0  0  0  0
 11  9  1  0  0  0  0
 12 13  1  0  0  0  0
 13 11  2  0  0  0  0
 13 20  1  0  0  0  0
 14 15  1  0  0  0  0
 14 12  2  0  0  0  0
 15 10  2  0  0  0  0
 16 14  1  0  0  0  0
 17 16  1  0  0  0  0
 17 18  2  0  0  0  0
 18 15  1  0  0  0  0
 19 22  1  0  0  0  0
 20 19  1  0  0  0  0
 21 19  2  0  0  0  0
 22 25  1  1  0  0  0
 24 23  1  0  0  0  0
 25 24  3  0  0  0  0
 26 27  1  0  0  0  0
 26 28  1  0  0  0  0
 27 22  1  0  0  0  0
 27 28  1  0  0  0  0
 29 30  1  6  0  0  0
 31 29  1  0  0  0  0
 32 27  1  1  0  0  0
 32 31  1  0  0  0  0
 32 29  1  0  0  0  0
 33 34  1  0  0  0  0
 36 42  1  0  0  0  0
 37 36  1  0  0  0  0
 38 36  2  0  0  0  0
 38 40  2  0  0  0  0
 39 34  1  6  0  0  0
 39 41  1  0  0  0  0
 40 39  1  0  0  0  0
 41 35  1  0  0  0  0
 42 35  1  0  0  0  0
 43 44  1  1  0  0  0
 43 47  1  0  0  0  0
 43 40  1  0  0  0  0
 44 46  1  0  0  0  0
 45 44  2  0  0  0  0
 48 47  1  0  0  0  0
 50 49  1  0  0  0  0
 50 48  1  0  0  0  0
M  END
>  <MODEL>
7

>  <REMARK>
 VINA RESULT:      -7.0      2.902      4.909
  Name = 
  15 active torsions:
  status: ('A' for Active; 'I' for Inactive)
    1  A    between atoms: C_3  and  C_16
    2  A    between atoms: C_3  and  C_20
    3  A    between atoms: C_3  and  C_46
    4  A    between atoms: C_5  and  O_23
    5  A    between atoms: C_8  and  C_13
    6  A    between atoms: C_8  and  O_25
    7  A    between atoms: C_8  and  C_30
    8  A    between atoms: C_11  and  O_23
    9  A    between atoms: C_20  and  C_38
   10  A    between atoms: C_21  and  O_25
   11  A    between atoms: C_21  and  C_41
   12  A    between atoms: C_22  and  O_33
   13  A    between atoms: C_24  and  N_36
   14  A    between atoms: C_26  and  C_44
   15  A    between atoms: O_33  and  C_44
                            x       y       z     vdW  Elec       q    Type
                         _______ _______ _______ _____ _____    ______ ____

>  <TORSDO>
F 15

$$$$
=
 OpenBabel11042415533D

 50 55  0  0  1  0  0  0  0  0999 V2000
  192.1290  173.5130  141.2880 C   0  0  1  0  0  3  0  0  0  0  0  0
  188.0330  173.9080  141.8130 F   0  0  0  0  0  0  0  0  0  0  0  0
  191.1160  175.6580  142.3540 C   0  0  0  0  0  0  0  0  0  0  0  0
  189.8740  173.7040  140.4390 N   0  0  0  0  0  0  0  0  0  0  0  0
  189.4130  173.9310  141.7880 C   0  0  1  0  0  3  0  0  0  0  0  0
  192.3190  174.9460  141.7750 C   0  0  0  0  0  2  0  0  0  0  0  0
  189.8870  175.2140  142.3030 N   0  0  0  0  0  0  0  0  0  0  0  0
  191.1160  173.4890  140.1880 C   0  0  0  0  0  3  0  0  0  0  0  0
  193.3670  173.0020  140.8010 O   0  0  0  0  0  0  0  0  0  0  0  0
  193.8430  173.7170  138.5090 C   0  0  0  0  0  3  0  0  0  0  0  0
  194.1720  173.6880  139.8810 C   0  0  0  0  0  0  0  0  0  0  0  0
  196.1490  175.0530  139.4290 C   0  0  0  0  0  3  0  0  0  0  0  0
  195.3250  174.3650  140.3440 C   0  0  0  0  0  0  0  0  0  0  0  0
  195.7910  175.0540  138.0830 C   0  0  0  0  0  0  0  0  0  0  0  0
  194.6780  174.4130  137.6390 C   0  0  0  0  0  0  0  0  0  0  0  0
  196.4630  175.6650  137.0510 O   0  0  0  0  0  0  0  0  0  0  0  0
  195.7790  175.4420  135.8200 C   0  0  0  0  0  3  0  0  0  0  0  0
  194.5450  174.5830  136.1720 C   0  0  0  0  0  3  0  0  0  0  0  0
  196.5500  173.4390  142.4010 C   0  0  0  0  0  0  0  0  0  0  0  0
  195.6350  174.3270  141.7460 N   0  0  0  0  0  2  0  0  0  0  0  0
  197.2240  172.6020  141.7410 O   0  0  0  0  0  0  0  0  0  0  0  0
  196.7600  173.5860  143.8790 C   0  0  1  0  0  3  0  0  0  0  0  0
  194.9740  177.0020  145.3880 C   0  0  0  0  0  1  0  0  0  0  0  0
  195.6000  175.7960  144.8570 C   0  0  0  0  0  0  0  0  0  0  0  0
  196.1180  174.8000  144.4170 C   0  0  0  0  0  0  0  0  0  0  0  0
  196.8070  172.3350  146.1120 C   0  0  0  0  0  2  0  0  0  0  0  0
  196.4350  172.2810  144.6410 C   0  0  0  0  0  0  0  0  0  0  0  0
  197.5670  171.4130  145.1750 C   0  0  0  0  0  2  0  0  0  0  0  0
  193.9690  172.3820  145.1790 C   0  0  1  0  0  3  0  0  0  0  0  0
  192.7420  172.1080  144.5780 O   0  0  0  0  0  1  0  0  0  0  0  0
  194.5290  171.1060  145.7630 C   0  0  0  0  0  2  0  0  0  0  0  0
  195.0630  171.6250  144.4400 C   0  0  2  0  0  3  0  0  0  0  0  0
  191.3710  176.8930  142.9510 O   0  0  0  0  0  0  0  0  0  0  0  0
  190.3430  177.7210  143.4810 C   0  0  0  0  0  2  0  0  0  0  0  0
  191.6490  176.5380  146.9670 C   0  0  0  0  0  2  0  0  0  0  0  0
  189.4240  175.2960  147.2620 C   0  0  0  0  0  0  0  0  0  0  0  0
  188.5660  174.4280  147.9270 O   0  0  0  0  0  1  0  0  0  0  0  0
  188.9840  176.1150  146.3620 C   0  0  0  0  0  0  0  0  0  0  0  0
  190.2970  177.5660  144.9910 C   0  0  1  0  0  3  0  0  0  0  0  0
  188.9490  177.0170  145.4330 C   0  0  0  0  0  0  0  0  0  0  0  0
  191.5190  176.7140  145.4390 C   0  0  0  0  0  2  0  0  0  0  0  0
  190.9080  175.2880  147.5140 C   0  0  0  0  0  2  0  0  0  0  0  0
  187.6490  177.6900  145.1090 C   0  0  1  0  0  3  0  0  0  0  0  0
  187.1080  177.2370  143.7880 C   0  0  0  0  0  0  0  0  0  0  0  0
  187.0290  178.1350  142.7340 O   0  0  0  0  0  0  0  0  0  0  0  0
  186.7600  176.0420  143.6130 O   0  0  0  0  0  1  0  0  0  0  0  0
  186.7120  177.4780  146.1250 O   0  0  0  0  0  0  0  0  0  0  0  0
  185.9420  178.6420  146.1560 C   0  0  0  0  0  2  0  0  0  0  0  0
  183.9650  179.0430  144.7330 C   0  0  0  0  0  1  0  0  0  0  0  0
  184.4900  178.2870  145.9330 C   0  0  0  0  0  2  0  0  0  0  0  0
  1  9  1  6  0  0  0
  1  6  1  0  0  0  0
  3 33  1  0  0  0  0
  4  5  1  0  0  0  0
  5  2  1  6  0  0  0
  5  7  1  0  0  0  0
  6  3  1  0  0  0  0
  7  3  2  0  0  0  0
  8  4  2  0  0  0  0
  8  1  1  0  0  0  0
 10 11  1  0  0  0  0
 11 13  2  0  0  0  0
 11  9  1  0  0  0  0
 12 13  1  0  0  0  0
 13 20  1  0  0  0  0
 14 12  2  0  0  0  0
 15 14  1  0  0  0  0
 15 10  2  0  0  0  0
 16 14  1  0  0  0  0
 17 18  2  0  0  0  0
 17 16  1  0  0  0  0
 18 15  1  0  0  0  0
 19 22  1  0  0  0  0
 20 19  1  0  0  0  0
 21 19  2  0  0  0  0
 22 25  1  1  0  0  0
 22 27  1  0  0  0  0
 24 23  1  0  0  0  0
 25 24  3  0  0  0  0
 27 28  1  0  0  0  0
 27 26  1  0  0  0  0
 28 26  1  0  0  0  0
 29 30  1  6  0  0  0
 29 31  1  0  0  0  0
 32 27  1  1  0  0  0
 32 29  1  0  0  0  0
 32 31  1  0  0  0  0
 33 34  1  0  0  0  0
 35 42  1  0  0  0  0
 36 42  1  0  0  0  0
 36 37  1  0  0  0  0
 38 36  2  0  0  0  0
 39 34  1  6  0  0  0
 39 40  1  0  0  0  0
 39 41  1  0  0  0  0
 40 38  2  0  0  0  0
 41 35  1  0  0  0  0
 43 44  1  6  0  0  0
 43 40  1  0  0  0  0
 43 47  1  0  0  0  0
 45 44  2  0  0  0  0
 46 44  1  0  0  0  0
 47 48  1  0  0  0  0
 49 50  1  0  0  0  0
 50 48  1  0  0  0  0
M  END
>  <MODEL>
8

>  <REMARK>
 VINA RESULT:      -7.0      2.524      9.068
  Name = 
  15 active torsions:
  status: ('A' for Active; 'I' for Inactive)
    1  A    between atoms: C_3  and  C_16
    2  A    between atoms: C_3  and  C_20
    3  A    between atoms: C_3  and  C_46
    4  A    between atoms: C_5  and  O_23
    5  A    between atoms: C_8  and  C_13
    6  A    between atoms: C_8  and  O_25
    7  A    between atoms: C_8  and  C_30
    8  A    between atoms: C_11  and  O_23
    9  A    between atoms: C_20  and  C_38
   10  A    between atoms: C_21  and  O_25
   11  A    between atoms: C_21  and  C_41
   12  A    between atoms: C_22  and  O_33
   13  A    between atoms: C_24  and  N_36
   14  A    between atoms: C_26  and  C_44
   15  A    between atoms: O_33  and  C_44
                            x       y       z     vdW  Elec       q    Type
                         _______ _______ _______ _____ _____    ______ ____

>  <TORSDO>
F 15

$$$$
=
 OpenBabel11042415533D

 50 55  0  0  1  0  0  0  0  0999 V2000
  191.1110  176.1600  144.2620 C   0  0  1  0  0  3  0  0  0  0  0  0
  190.7760  176.4740  148.3850 F   0  0  0  0  0  0  0  0  0  0  0  0
  193.2250  176.2620  145.7750 C   0  0  0  0  0  0  0  0  0  0  0  0
  190.4640  177.3390  146.2700 N   0  0  0  0  0  0  0  0  0  0  0  0
  191.0870  176.2980  147.0520 C   0  0  1  0  0  3  0  0  0  0  0  0
  192.6260  176.2990  144.3850 C   0  0  0  0  0  2  0  0  0  0  0  0
  192.5390  176.3060  146.8860 N   0  0  0  0  0  0  0  0  0  0  0  0
  190.4460  177.2860  144.9850 C   0  0  0  0  0  3  0  0  0  0  0  0
  190.7360  176.1940  142.8870 O   0  0  0  0  0  0  0  0  0  0  0  0
  191.6590  174.4840  141.4000 C   0  0  0  0  0  3  0  0  0  0  0  0
  190.5720  175.0420  142.1070 C   0  0  0  0  0  0  0  0  0  0  0  0
  189.1160  173.2750  141.2490 C   0  0  0  0  0  3  0  0  0  0  0  0
  189.2970  174.4310  142.0380 C   0  0  0  0  0  0  0  0  0  0  0  0
  190.2130  172.7590  140.5650 C   0  0  0  0  0  0  0  0  0  0  0  0
  191.4400  173.3390  140.6390 C   0  0  0  0  0  0  0  0  0  0  0  0
  190.2320  171.6480  139.7540 O   0  0  0  0  0  0  0  0  0  0  0  0
  191.5450  171.4390  139.2380 C   0  0  0  0  0  3  0  0  0  0  0  0
  192.4120  172.5780  139.8170 C   0  0  0  0  0  3  0  0  0  0  0  0
  187.4410  176.1660  142.4000 C   0  0  0  0  0  0  0  0  0  0  0  0
  188.2090  175.0140  142.7710 N   0  0  0  0  0  2  0  0  0  0  0  0
  187.6530  176.7620  141.3100 O   0  0  0  0  0  0  0  0  0  0  0  0
  186.3150  176.5960  143.2930 C   0  0  1  0  0  3  0  0  0  0  0  0
  187.2670  176.1940  147.3020 C   0  0  0  0  0  1  0  0  0  0  0  0
  186.9270  176.3340  145.8900 C   0  0  0  0  0  0  0  0  0  0  0  0
  186.6480  176.4510  144.7230 C   0  0  0  0  0  0  0  0  0  0  0  0
  184.3280  177.9160  142.3650 C   0  0  0  0  0  2  0  0  0  0  0  0
  185.7520  177.9770  142.8890 C   0  0  0  0  0  0  0  0  0  0  0  0
  185.4630  178.2780  141.4240 C   0  0  0  0  0  2  0  0  0  0  0  0
  185.0500  179.0460  145.0670 C   0  0  1  0  0  3  0  0  0  0  0  0
  185.5990  179.7970  146.1040 O   0  0  0  0  0  1  0  0  0  0  0  0
  184.6600  179.9720  143.9390 C   0  0  0  0  0  2  0  0  0  0  0  0
  185.9420  179.1650  143.8400 C   0  0  2  0  0  3  0  0  0  0  0  0
  194.6180  176.2090  145.8330 O   0  0  0  0  0  0  0  0  0  0  0  0
  195.3530  175.0060  145.6540 C   0  0  0  0  0  2  0  0  0  0  0  0
  197.0350  176.7560  142.5950 C   0  0  0  0  0  2  0  0  0  0  0  0
  195.4230  175.4450  141.0910 C   0  0  0  0  0  0  0  0  0  0  0  0
  194.8390  175.1380  139.8670 O   0  0  0  0  0  1  0  0  0  0  0  0
  195.3120  174.6490  142.1050 C   0  0  0  0  0  0  0  0  0  0  0  0
  196.0900  175.0550  144.3270 C   0  0  1  0  0  3  0  0  0  0  0  0
  195.4090  174.1630  143.3010 C   0  0  0  0  0  0  0  0  0  0  0  0
  196.2320  176.5420  143.8950 C   0  0  0  0  0  2  0  0  0  0  0  0
  196.1600  176.7390  141.3130 C   0  0  0  0  0  2  0  0  0  0  0  0
  195.1790  172.6970  143.5210 C   0  0  1  0  0  3  0  0  0  0  0  0
  196.2930  172.0750  144.3040 C   0  0  0  0  0  0  0  0  0  0  0  0
  196.0520  171.6020  145.5850 O   0  0  0  0  0  1  0  0  0  0  0  0
  197.4370  171.9450  143.7990 O   0  0  0  0  0  0  0  0  0  0  0  0
  193.9490  172.4750  144.1480 O   0  0  0  0  0  0  0  0  0  0  0  0
  193.2880  171.5540  143.3330 C   0  0  0  0  0  2  0  0  0  0  0  0
  191.5020  172.6570  144.6320 C   0  0  0  0  0  1  0  0  0  0  0  0
  191.8340  171.4820  143.7390 C   0  0  0  0  0  2  0  0  0  0  0  0
  1  9  1  6  0  0  0
  1  6  1  0  0  0  0
  1  8  1  0  0  0  0
  3 33  1  0  0  0  0
  3  7  2  0  0  0  0
  4  5  1  0  0  0  0
  5  2  1  1  0  0  0
  6  3  1  0  0  0  0
  7  5  1  0  0  0  0
  8  4  2  0  0  0  0
 10 11  1  0  0  0  0
 11  9  1  0  0  0  0
 12 13  1  0  0  0  0
 13 11  2  0  0  0  0
 13 20  1  0  0  0  0
 14 15  1  0  0  0  0
 14 12  2  0  0  0  0
 15 10  2  0  0  0  0
 16 14  1  0  0  0  0
 17 16  1  0  0  0  0
 17 18  2  0  0  0  0
 18 15  1  0  0  0  0
 19 20  1  0  0  0  0
 19 22  1  0  0  0  0
 21 19  2  0  0  0  0
 22 25  1  1  0  0  0
 24 23  1  0  0  0  0
 25 24  3  0  0  0  0
 26 27  1  0  0  0  0
 27 22  1  0  0  0  0
 28 26  1  0  0  0  0
 28 27  1  0  0  0  0
 29 30  1  1  0  0  0
 31 29  1  0  0  0  0
 32 27  1  6  0  0  0
 32 31  1  0  0  0  0
 32 29  1  0  0  0  0
 34 33  1  0  0  0  0
 35 41  1  0  0  0  0
 36 42  1  0  0  0  0
 36 38  2  0  0  0  0
 37 36  1  0  0  0  0
 38 40  2  0  0  0  0
 39 34  1  1  0  0  0
 40 43  1  0  0  0  0
 40 39  1  0  0  0  0
 41 39  1  0  0  0  0
 42 35  1  0  0  0  0
 43 47  1  1  0  0  0
 43 44  1  0  0  0  0
 44 45  1  0  0  0  0
 46 44  2  0  0  0  0
 48 50  1  0  0  0  0
 48 47  1  0  0  0  0
 50 49  1  0  0  0  0
M  END
>  <MODEL>
9

>  <REMARK>
 VINA RESULT:      -7.0      1.363      2.649
  Name = 
  15 active torsions:
  status: ('A' for Active; 'I' for Inactive)
    1  A    between atoms: C_3  and  C_16
    2  A    between atoms: C_3  and  C_20
    3  A    between atoms: C_3  and  C_46
    4  A    between atoms: C_5  and  O_23
    5  A    between atoms: C_8  and  C_13
    6  A    between atoms: C_8  and  O_25
    7  A    between atoms: C_8  and  C_30
    8  A    between atoms: C_11  and  O_23
    9  A    between atoms: C_20  and  C_38
   10  A    between atoms: C_21  and  O_25
   11  A    between atoms: C_21  and  C_41
   12  A    between atoms: C_22  and  O_33
   13  A    between atoms: C_24  and  N_36
   14  A    between atoms: C_26  and  C_44
   15  A    between atoms: O_33  and  C_44
                            x       y       z     vdW  Elec       q    Type
                         _______ _______ _______ _____ _____    ______ ____

>  <TORSDO>
F 15

$$$$
