=
 OpenBabel11042416153D

 33 37  0  0  1  0  0  0  0  0999 V2000
  194.0940  175.9330  146.5130 C   0  0  0  0  0  2  0  0  0  0  0  0
  189.8350  174.1580  143.2170 C   0  0  1  0  0  3  0  0  0  0  0  0
  187.3750  176.5590  146.0400 C   0  0  0  0  0  0  0  0  0  0  0  0
  189.0200  176.1050  144.6490 C   0  0  1  0  0  3  0  0  0  0  0  0
  194.5090  173.3540  142.7200 C   0  0  0  0  0  3  0  0  0  0  0  0
  196.5430  174.1470  143.8790 C   0  0  0  0  0  2  0  0  0  0  0  0
  190.5430  174.7730  142.0130 C   0  0  0  0  0  2  0  0  0  0  0  0
  196.1640  175.6000  143.7950 C   0  0  0  0  0  0  0  0  0  0  0  0
  192.6920  176.2800  146.8890 C   0  0  0  0  0  3  0  0  0  0  0  0
  193.5610  175.5440  143.4770 C   0  0  1  0  0  3  0  0  0  0  0  0
  190.0660  170.5850  142.2330 O   0  0  0  0  0  1  0  0  0  0  0  0
  194.5660  176.8620  145.4060 C   0  0  0  0  0  2  0  0  0  0  0  0
  197.0230  176.4120  143.4950 O   0  0  0  0  0  0  0  0  0  0  0  0
  188.6670  175.0400  143.6150 C   0  0  0  0  0  2  0  0  0  0  0  0
  190.2900  171.9210  142.2590 N   0  0  0  0  0  0  0  0  0  0  0  0
  187.8120  176.8970  144.8830 N   0  0  0  0  0  0  0  0  0  0  0  0
  193.7610  174.4390  142.4700 C   0  0  0  0  0  0  0  0  0  0  0  0
  186.1740  177.0690  146.6200 N   0  0  0  0  0  2  0  0  0  0  0  0
  194.7730  176.0890  144.1160 C   0  0  1  0  0  0  0  0  0  0  0  0
  192.2220  171.7040  140.9640 O   0  0  0  0  0  0  0  0  0  0  0  0
  191.4050  172.4690  141.5460 C   0  0  0  0  0  0  0  0  0  0  0  0
  194.1700  176.7910  142.9740 N   0  0  0  0  0  2  0  0  0  0  0  0
  188.2030  175.6660  146.6690 O   0  0  0  0  0  0  0  0  0  0  0  0
  189.2650  172.7960  142.8200 C   0  0  0  0  0  2  0  0  0  0  0  0
  195.8220  171.7860  144.0830 C   0  0  0  0  0  1  0  0  0  0  0  0
  190.3720  176.2700  146.5890 C   0  0  0  0  0  2  0  0  0  0  0  0
  191.6050  173.8900  141.5360 N   0  0  0  0  0  0  0  0  0  0  0  0
  195.3410  173.2150  143.9580 C   0  0  2  0  0  3  0  0  0  0  0  0
  192.9160  174.4510  141.2380 C   0  0  0  0  0  2  0  0  0  0  0  0
  191.6930  175.8560  146.2050 N   0  0  0  0  0  0  0  0  0  0  0  0
  189.3510  175.4570  145.9370 N   0  0  2  0  0  0  0  0  0  0  0  0
  185.3440  177.9710  145.9380 C   0  0  0  0  0  0  0  0  0  0  0  0
  184.6300  178.7470  145.3530 C   0  0  0  0  0  3  0  0  0  0  0  0
  1  9  1  0  0  0  0
  2  7  1  6  0  0  0
  2 14  1  0  0  0  0
  3 18  1  0  0  0  0
  3 23  1  0  0  0  0
  4 14  1  6  0  0  0
  4 16  1  0  0  0  0
  4 31  1  0  0  0  0
  5 28  1  0  0  0  0
  6 28  1  0  0  0  0
  8  6  1  0  0  0  0
  8 19  1  0  0  0  0
 10 17  1  6  0  0  0
 10 19  1  0  0  0  0
 11 15  1  0  0  0  0
 12  1  1  0  0  0  0
 13  8  2  0  0  0  0
 15 24  1  0  0  0  0
 16  3  2  0  0  0  0
 17  5  2  0  0  0  0
 19 12  1  1  0  0  0
 20 21  2  0  0  0  0
 21 15  1  0  0  0  0
 22 10  1  0  0  0  0
 22 19  1  0  0  0  0
 24  2  1  0  0  0  0
 27 21  1  0  0  0  0
 27  7  1  0  0  0  0
 28 25  1  6  0  0  0
 29 27  1  0  0  0  0
 29 17  1  0  0  0  0
 30 26  1  0  0  0  0
 30  9  2  0  0  0  0
 31 26  1  1  0  0  0
 31 23  1  0  0  0  0
 32 18  1  0  0  0  0
 33 32  3  0  0  0  0
M  END
>  <MODEL>
1

>  <REMARK>
 VINA RESULT:      -7.9      0.000      0.000
  Name = 
  1 active torsions:
  status: ('A' for Active; 'I' for Inactive)
    1  A    between atoms: C_4  and  N_19
                            x       y       z     vdW  Elec       q    Type
                         _______ _______ _______ _____ _____    ______ ____

>  <TORSDO>
F 1

$$$$
=
 OpenBabel11042416153D

 33 37  0  0  1  0  0  0  0  0999 V2000
  189.1850  173.7910  139.6140 C   0  0  0  0  0  2  0  0  0  0  0  0
  190.4530  176.0350  144.6640 C   0  0  1  0  0  3  0  0  0  0  0  0
  186.5430  178.0850  144.1240 C   0  0  0  0  0  0  0  0  0  0  0  0
  187.9770  176.4160  144.1860 C   0  0  1  0  0  3  0  0  0  0  0  0
  192.9010  172.8070  142.1490 C   0  0  0  0  0  3  0  0  0  0  0  0
  192.4880  171.5510  140.0610 C   0  0  0  0  0  2  0  0  0  0  0  0
  190.5730  174.6240  145.2340 C   0  0  0  0  0  2  0  0  0  0  0  0
  191.1180  171.0880  140.4750 C   0  0  0  0  0  0  0  0  0  0  0  0
  188.2790  174.8230  140.1980 C   0  0  0  0  0  3  0  0  0  0  0  0
  190.4020  172.8260  142.3040 C   0  0  1  0  0  3  0  0  0  0  0  0
  194.0000  177.0770  145.0130 O   0  0  0  0  0  1  0  0  0  0  0  0
  188.9160  172.4480  140.2750 C   0  0  0  0  0  2  0  0  0  0  0  0
  190.8010  169.9310  140.2540 O   0  0  0  0  0  0  0  0  0  0  0  0
  189.1500  176.6550  145.1310 C   0  0  0  0  0  2  0  0  0  0  0  0
  192.8980  176.2920  144.9640 N   0  0  0  0  0  0  0  0  0  0  0  0
  186.7970  177.0240  144.7990 N   0  0  0  0  0  0  0  0  0  0  0  0
  191.7870  172.7010  142.8890 C   0  0  0  0  0  0  0  0  0  0  0  0
  185.4900  178.9970  144.4380 N   0  0  0  0  0  2  0  0  0  0  0  0
  190.1100  172.0170  141.1070 C   0  0  1  0  0  0  0  0  0  0  0  0
  194.1870  174.3520  144.7940 O   0  0  0  0  0  0  0  0  0  0  0  0
  193.0400  174.8690  144.8930 C   0  0  0  0  0  0  0  0  0  0  0  0
  189.6910  171.5390  142.4320 N   0  0  0  0  0  2  0  0  0  0  0  0
  187.3830  178.2330  143.0510 O   0  0  0  0  0  0  0  0  0  0  0  0
  191.5920  176.8950  145.2150 C   0  0  0  0  0  2  0  0  0  0  0  0
  194.2410  173.3000  140.1490 C   0  0  0  0  0  1  0  0  0  0  0  0
  187.6120  176.3450  141.8440 C   0  0  0  0  0  2  0  0  0  0  0  0
  191.8680  174.0410  144.8940 N   0  0  0  0  0  0  0  0  0  0  0  0
  192.8720  172.9000  140.6550 C   0  0  2  0  0  3  0  0  0  0  0  0
  191.9210  172.6800  144.3770 C   0  0  0  0  0  2  0  0  0  0  0  0
  188.5520  175.3990  141.3110 N   0  0  0  0  0  0  0  0  0  0  0  0
  188.2070  177.1370  142.9150 N   0  0  2  0  0  0  0  0  0  0  0  0
  184.6590  178.8190  145.5530 C   0  0  0  0  0  0  0  0  0  0  0  0
  183.9450  178.6660  146.5130 C   0  0  0  0  0  3  0  0  0  0  0  0
  1  9  1  0  0  0  0
  1 12  1  0  0  0  0
  2 14  1  1  0  0  0
  2 24  1  0  0  0  0
  2  7  1  0  0  0  0
  3 18  1  0  0  0  0
  3 16  2  0  0  0  0
  4 16  1  0  0  0  0
  4 14  1  1  0  0  0
  5 17  2  0  0  0  0
  6  8  1  0  0  0  0
  6 28  1  0  0  0  0
  8 19  1  0  0  0  0
  9 30  2  0  0  0  0
 10 22  1  1  0  0  0
 10 17  1  0  0  0  0
 13  8  2  0  0  0  0
 15 11  1  0  0  0  0
 15 24  1  0  0  0  0
 17 29  1  0  0  0  0
 18 32  1  0  0  0  0
 19 12  1  6  0  0  0
 19 10  1  0  0  0  0
 19 22  1  0  0  0  0
 20 21  2  0  0  0  0
 21 27  1  0  0  0  0
 21 15  1  0  0  0  0
 23  3  1  0  0  0  0
 27  7  1  0  0  0  0
 28 25  1  6  0  0  0
 28  5  1  0  0  0  0
 29 27  1  0  0  0  0
 30 26  1  0  0  0  0
 31 26  1  6  0  0  0
 31 23  1  0  0  0  0
 31  4  1  0  0  0  0
 32 33  3  0  0  0  0
M  END
>  <MODEL>
2

>  <REMARK>
 VINA RESULT:      -7.7      2.332      5.238
  Name = 
  1 active torsions:
  status: ('A' for Active; 'I' for Inactive)
    1  A    between atoms: C_4  and  N_19
                            x       y       z     vdW  Elec       q    Type
                         _______ _______ _______ _____ _____    ______ ____

>  <TORSDO>
F 1

$$$$
=
 OpenBabel11042416153D

 33 37  0  0  1  0  0  0  0  0999 V2000
  187.3540  174.5750  141.7860 C   0  0  0  0  0  2  0  0  0  0  0  0
  192.0620  174.8560  144.9320 C   0  0  1  0  0  3  0  0  0  0  0  0
  193.4760  171.7160  142.1170 C   0  0  0  0  0  0  0  0  0  0  0  0
  192.5880  173.6250  142.7610 C   0  0  1  0  0  3  0  0  0  0  0  0
  188.0890  177.4670  145.2940 C   0  0  0  0  0  3  0  0  0  0  0  0
  186.0150  177.6720  143.9640 C   0  0  0  0  0  2  0  0  0  0  0  0
  192.1540  176.3470  144.6180 C   0  0  0  0  0  2  0  0  0  0  0  0
  186.7350  177.8380  142.6540 C   0  0  0  0  0  0  0  0  0  0  0  0
  188.4690  173.6220  141.5110 C   0  0  0  0  0  3  0  0  0  0  0  0
  189.0940  176.7850  143.1050 C   0  0  1  0  0  3  0  0  0  0  0  0
  191.4340  175.0950  148.5850 O   0  0  0  0  0  1  0  0  0  0  0  0
  187.6800  175.9280  141.1730 C   0  0  0  0  0  2  0  0  0  0  0  0
  186.3350  178.6830  141.8710 O   0  0  0  0  0  0  0  0  0  0  0  0
  193.0980  174.1070  144.1160 C   0  0  0  0  0  2  0  0  0  0  0  0
  191.5590  175.4500  147.2830 N   0  0  0  0  0  0  0  0  0  0  0  0
  193.7100  172.9760  142.0830 N   0  0  0  0  0  0  0  0  0  0  0  0
  189.1100  177.5150  144.4250 C   0  0  0  0  0  0  0  0  0  0  0  0
  194.3660  170.7250  141.6030 N   0  0  0  0  0  2  0  0  0  0  0  0
  187.9010  176.9650  142.2590 C   0  0  1  0  0  0  0  0  0  0  0  0
  190.4400  177.4680  147.6410 O   0  0  0  0  0  0  0  0  0  0  0  0
  191.0630  176.7180  146.8400 C   0  0  0  0  0  0  0  0  0  0  0  0
  189.1080  177.7600  141.9980 N   0  0  0  0  0  2  0  0  0  0  0  0
  192.2610  171.4270  142.6830 O   0  0  0  0  0  0  0  0  0  0  0  0
  192.3960  174.6340  146.4080 C   0  0  0  0  0  2  0  0  0  0  0  0
  185.9610  176.6710  146.2300 C   0  0  0  0  0  1  0  0  0  0  0  0
  190.5890  172.7050  141.8790 C   0  0  0  0  0  2  0  0  0  0  0  0
  191.2450  177.1080  145.4720 N   0  0  0  0  0  0  0  0  0  0  0  0
  186.7800  176.8170  144.9670 C   0  0  2  0  0  3  0  0  0  0  0  0
  190.3960  178.1290  144.8720 C   0  0  0  0  0  2  0  0  0  0  0  0
  189.5310  173.6110  142.2300 N   0  0  0  0  0  0  0  0  0  0  0  0
  191.5600  172.5800  142.9610 N   0  0  2  0  0  0  0  0  0  0  0  0
  195.6080  171.0590  141.0430 C   0  0  0  0  0  0  0  0  0  0  0  0
  196.6760  171.3450  140.5630 C   0  0  0  0  0  3  0  0  0  0  0  0
  2 14  1  6  0  0  0
  2 24  1  0  0  0  0
  3 23  1  0  0  0  0
  4 31  1  0  0  0  0
  4 14  1  1  0  0  0
  6 28  1  0  0  0  0
  7  2  1  0  0  0  0
  7 27  1  0  0  0  0
  8  6  1  0  0  0  0
  9  1  1  0  0  0  0
  9 30  2  0  0  0  0
 10 22  1  6  0  0  0
 10 17  1  0  0  0  0
 12  1  1  0  0  0  0
 13  8  2  0  0  0  0
 15 11  1  0  0  0  0
 16  3  2  0  0  0  0
 16  4  1  0  0  0  0
 17 29  1  0  0  0  0
 17  5  2  0  0  0  0
 18  3  1  0  0  0  0
 19 12  1  6  0  0  0
 19  8  1  0  0  0  0
 19 10  1  0  0  0  0
 21 15  1  0  0  0  0
 21 20  2  0  0  0  0
 22 19  1  0  0  0  0
 23 31  1  0  0  0  0
 24 15  1  0  0  0  0
 26 30  1  0  0  0  0
 27 21  1  0  0  0  0
 28  5  1  0  0  0  0
 28 25  1  1  0  0  0
 29 27  1  0  0  0  0
 31 26  1  6  0  0  0
 32 18  1  0  0  0  0
 33 32  3  0  0  0  0
M  END
>  <MODEL>
3

>  <REMARK>
 VINA RESULT:      -7.5      2.650      8.016
  Name = 
  1 active torsions:
  status: ('A' for Active; 'I' for Inactive)
    1  A    between atoms: C_4  and  N_19
                            x       y       z     vdW  Elec       q    Type
                         _______ _______ _______ _____ _____    ______ ____

>  <TORSDO>
F 1

$$$$
=
 OpenBabel11042416153D

 33 37  0  0  1  0  0  0  0  0999 V2000
  190.5440  178.0650  144.2440 C   0  0  0  0  0  2  0  0  0  0  0  0
  191.7610  173.3720  141.3050 C   0  0  1  0  0  3  0  0  0  0  0  0
  195.7630  173.8950  143.1740 C   0  0  0  0  0  0  0  0  0  0  0  0
  193.5700  173.7400  143.0650 C   0  0  1  0  0  3  0  0  0  0  0  0
  187.5940  175.6640  141.6480 C   0  0  0  0  0  3  0  0  0  0  0  0
  186.7650  177.5770  142.9770 C   0  0  0  0  0  2  0  0  0  0  0  0
  190.6080  172.6610  142.0090 C   0  0  0  0  0  2  0  0  0  0  0  0
  187.2710  177.0350  144.2850 C   0  0  0  0  0  0  0  0  0  0  0  0
  191.9420  177.5430  144.2550 C   0  0  0  0  0  3  0  0  0  0  0  0
  189.1640  175.3640  143.5750 C   0  0  1  0  0  3  0  0  0  0  0  0
  190.3980  173.3490  137.8500 O   0  0  0  0  0  1  0  0  0  0  0  0
  189.6910  177.2480  145.2000 C   0  0  0  0  0  2  0  0  0  0  0  0
  186.5500  177.1100  145.2660 O   0  0  0  0  0  0  0  0  0  0  0  0
  193.0760  172.8970  141.8930 C   0  0  0  0  0  2  0  0  0  0  0  0
  190.4630  173.2470  139.2000 N   0  0  0  0  0  0  0  0  0  0  0  0
  194.8070  173.1270  143.5470 N   0  0  0  0  0  0  0  0  0  0  0  0
  188.2360  174.8520  142.5010 C   0  0  0  0  0  0  0  0  0  0  0  0
  197.1440  173.6200  143.4040 N   0  0  0  0  0  2  0  0  0  0  0  0
  188.6530  176.4470  144.4340 C   0  0  1  0  0  0  0  0  0  0  0  0
  188.1360  173.2830  139.3960 O   0  0  0  0  0  0  0  0  0  0  0  0
  189.2560  173.1730  139.9660 C   0  0  0  0  0  0  0  0  0  0  0  0
  188.6020  175.0560  144.9040 N   0  0  0  0  0  2  0  0  0  0  0  0
  195.3070  175.0260  142.5470 O   0  0  0  0  0  0  0  0  0  0  0  0
  191.7560  172.9860  139.8250 C   0  0  0  0  0  2  0  0  0  0  0  0
  187.0550  177.7830  140.5250 C   0  0  0  0  0  1  0  0  0  0  0  0
  193.6270  176.0340  143.6600 C   0  0  0  0  0  2  0  0  0  0  0  0
  189.3330  173.0130  141.3900 N   0  0  0  0  0  0  0  0  0  0  0  0
  187.6140  177.1560  141.7830 C   0  0  2  0  0  3  0  0  0  0  0  0
  188.2090  173.3820  142.2400 C   0  0  0  0  0  2  0  0  0  0  0  0
  192.2780  176.5170  143.5630 N   0  0  0  0  0  0  0  0  0  0  0  0
  193.9320  175.0930  142.5880 N   0  0  2  0  0  0  0  0  0  0  0  0
  197.5740  172.4440  144.0370 C   0  0  0  0  0  0  0  0  0  0  0  0
  197.9410  171.4330  144.5810 C   0  0  0  0  0  3  0  0  0  0  0  0
  1  9  1  0  0  0  0
  1 12  1  0  0  0  0
  2 24  1  6  0  0  0
  2 14  1  0  0  0  0
  2  7  1  0  0  0  0
  3 18  1  0  0  0  0
  3 16  2  0  0  0  0
  4 14  1  6  0  0  0
  4 16  1  0  0  0  0
  5 28  1  0  0  0  0
  5 17  2  0  0  0  0
  6  8  1  0  0  0  0
  8 19  1  0  0  0  0
  8 13  2  0  0  0  0
 10 17  1  6  0  0  0
 10 19  1  0  0  0  0
 10 22  1  0  0  0  0
 11 15  1  0  0  0  0
 15 24  1  0  0  0  0
 15 21  1  0  0  0  0
 18 32  1  0  0  0  0
 19 22  1  0  0  0  0
 19 12  1  1  0  0  0
 20 21  2  0  0  0  0
 21 27  1  0  0  0  0
 23 31  1  0  0  0  0
 23  3  1  0  0  0  0
 27  7  1  0  0  0  0
 27 29  1  0  0  0  0
 28 25  1  6  0  0  0
 28  6  1  0  0  0  0
 29 17  1  0  0  0  0
 30 26  1  0  0  0  0
 30  9  2  0  0  0  0
 31  4  1  0  0  0  0
 31 26  1  1  0  0  0
 32 33  3  0  0  0  0
M  END
>  <MODEL>
4

>  <REMARK>
 VINA RESULT:      -7.3      2.417      7.303
  Name = 
  1 active torsions:
  status: ('A' for Active; 'I' for Inactive)
    1  A    between atoms: C_4  and  N_19
                            x       y       z     vdW  Elec       q    Type
                         _______ _______ _______ _____ _____    ______ ____

>  <TORSDO>
F 1

$$$$
=
 OpenBabel11042416153D

 33 37  0  0  1  0  0  0  0  0999 V2000
  187.6670  174.6260  142.3270 C   0  0  0  0  0  2  0  0  0  0  0  0
  193.3330  174.5320  142.4920 C   0  0  1  0  0  3  0  0  0  0  0  0
  192.8780  172.7200  138.4560 C   0  0  0  0  0  0  0  0  0  0  0  0
  192.5680  174.1660  140.0860 C   0  0  1  0  0  3  0  0  0  0  0  0
  190.2970  176.2870  145.7230 C   0  0  0  0  0  3  0  0  0  0  0  0
  187.8480  176.6170  145.8090 C   0  0  0  0  0  2  0  0  0  0  0  0
  193.3280  176.0410  142.7240 C   0  0  0  0  0  2  0  0  0  0  0  0
  187.7780  177.3020  144.4720 C   0  0  0  0  0  0  0  0  0  0  0  0
  188.4160  173.9840  141.2060 C   0  0  0  0  0  3  0  0  0  0  0  0
  189.9590  176.5080  143.2510 C   0  0  1  0  0  3  0  0  0  0  0  0
  194.7380  173.4730  145.7630 O   0  0  0  0  0  1  0  0  0  0  0  0
  187.6950  176.1360  142.1550 C   0  0  0  0  0  2  0  0  0  0  0  0
  187.0720  178.2910  144.3590 O   0  0  0  0  0  0  0  0  0  0  0  0
  193.7410  174.2470  141.0590 C   0  0  0  0  0  2  0  0  0  0  0  0
  194.1780  174.2470  144.8030 N   0  0  0  0  0  0  0  0  0  0  0  0
  193.1270  173.9410  138.7540 N   0  0  0  0  0  0  0  0  0  0  0  0
  190.7070  176.7610  144.5360 C   0  0  0  0  0  0  0  0  0  0  0  0
  193.3070  172.0880  137.2500 N   0  0  0  0  0  2  0  0  0  0  0  0
  188.5100  176.7820  143.2600 C   0  0  1  0  0  0  0  0  0  0  0  0
  193.5280  175.8570  146.3650 O   0  0  0  0  0  0  0  0  0  0  0  0
  193.5930  175.5060  145.1550 C   0  0  0  0  0  0  0  0  0  0  0  0
  189.4400  177.7830  142.7190 N   0  0  0  0  0  2  0  0  0  0  0  0
  192.1300  172.0910  139.4180 O   0  0  0  0  0  0  0  0  0  0  0  0
  194.3820  173.8910  143.4020 C   0  0  0  0  0  2  0  0  0  0  0  0
  188.9410  174.9340  147.2630 C   0  0  0  0  0  1  0  0  0  0  0  0
  190.3580  173.3100  140.0900 C   0  0  0  0  0  2  0  0  0  0  0  0
  193.0480  176.3440  144.1250 N   0  0  0  0  0  0  0  0  0  0  0  0
  188.9790  175.5990  145.9040 C   0  0  2  0  0  3  0  0  0  0  0  0
  192.0680  177.3720  144.4480 C   0  0  0  0  0  2  0  0  0  0  0  0
  189.6950  173.8900  141.2250 N   0  0  0  0  0  0  0  0  0  0  0  0
  191.7440  172.9770  140.4000 N   0  0  2  0  0  0  0  0  0  0  0  0
  194.0840  172.7600  136.2940 C   0  0  0  0  0  0  0  0  0  0  0  0
  194.7530  173.3380  135.4740 C   0  0  0  0  0  3  0  0  0  0  0  0
  2 14  1  6  0  0  0
  2  7  1  0  0  0  0
  2 24  1  0  0  0  0
  3 16  2  0  0  0  0
  3 23  1  0  0  0  0
  4 31  1  0  0  0  0
  4 14  1  1  0  0  0
  5 28  1  0  0  0  0
  6 28  1  0  0  0  0
  7 27  1  0  0  0  0
  8  6  1  0  0  0  0
  9 30  2  0  0  0  0
  9  1  1  0  0  0  0
 10 22  1  6  0  0  0
 10 19  1  0  0  0  0
 10 17  1  0  0  0  0
 12  1  1  0  0  0  0
 13  8  2  0  0  0  0
 15 21  1  0  0  0  0
 15 11  1  0  0  0  0
 16  4  1  0  0  0  0
 17  5  2  0  0  0  0
 18  3  1  0  0  0  0
 19 12  1  6  0  0  0
 19  8  1  0  0  0  0
 21 20  2  0  0  0  0
 22 19  1  0  0  0  0
 23 31  1  0  0  0  0
 24 15  1  0  0  0  0
 26 30  1  0  0  0  0
 27 29  1  0  0  0  0
 27 21  1  0  0  0  0
 28 25  1  1  0  0  0
 29 17  1  0  0  0  0
 31 26  1  6  0  0  0
 32 18  1  0  0  0  0
 33 32  3  0  0  0  0
M  END
>  <MODEL>
5

>  <REMARK>
 VINA RESULT:      -7.3      2.708      7.706
  Name = 
  1 active torsions:
  status: ('A' for Active; 'I' for Inactive)
    1  A    between atoms: C_4  and  N_19
                            x       y       z     vdW  Elec       q    Type
                         _______ _______ _______ _____ _____    ______ ____

>  <TORSDO>
F 1

$$$$
=
 OpenBabel11042416153D

 33 37  0  0  1  0  0  0  0  0999 V2000
  192.0250  176.4250  146.5330 C   0  0  0  0  0  2  0  0  0  0  0  0
  192.7640  172.5400  142.4720 C   0  0  1  0  0  3  0  0  0  0  0  0
  196.4810  171.6580  144.7500 C   0  0  0  0  0  0  0  0  0  0  0  0
  194.3360  172.0200  144.4120 C   0  0  1  0  0  3  0  0  0  0  0  0
  189.0880  175.5090  143.1070 C   0  0  0  0  0  3  0  0  0  0  0  0
  188.4440  177.1300  144.8590 C   0  0  0  0  0  2  0  0  0  0  0  0
  191.4110  171.9360  142.8370 C   0  0  0  0  0  2  0  0  0  0  0  0
  188.6460  176.1610  145.9910 C   0  0  0  0  0  0  0  0  0  0  0  0
  193.2860  175.6270  146.5130 C   0  0  0  0  0  3  0  0  0  0  0  0
  190.2800  174.3700  144.9910 C   0  0  1  0  0  3  0  0  0  0  0  0
  191.9340  173.7390  139.0560 O   0  0  0  0  0  1  0  0  0  0  0  0
  190.9060  175.5890  147.1330 C   0  0  0  0  0  2  0  0  0  0  0  0
  187.8170  176.1270  146.8850 O   0  0  0  0  0  0  0  0  0  0  0  0
  193.8700  171.6500  143.0070 C   0  0  0  0  0  2  0  0  0  0  0  0
  191.7840  173.2690  140.3180 N   0  0  0  0  0  0  0  0  0  0  0  0
  195.3560  171.0460  144.7990 N   0  0  0  0  0  0  0  0  0  0  0  0
  189.4390  174.3790  143.7390 C   0  0  0  0  0  0  0  0  0  0  0  0
  197.7400  171.0370  145.0080 N   0  0  0  0  0  2  0  0  0  0  0  0
  189.8600  175.2690  146.0810 C   0  0  1  0  0  0  0  0  0  0  0  0
  189.5000  173.7580  140.3140 O   0  0  0  0  0  0  0  0  0  0  0  0
  190.4860  173.2570  140.9220 C   0  0  0  0  0  0  0  0  0  0  0  0
  189.4850  173.8480  146.1190 N   0  0  0  0  0  2  0  0  0  0  0  0
  196.3380  172.9860  144.4420 O   0  0  0  0  0  0  0  0  0  0  0  0
  192.9020  172.5740  140.9490 C   0  0  0  0  0  2  0  0  0  0  0  0
  189.1180  177.9160  142.6070 C   0  0  0  0  0  1  0  0  0  0  0  0
  194.7310  174.0010  145.6520 C   0  0  0  0  0  2  0  0  0  0  0  0
  190.3250  172.7100  142.2390 N   0  0  0  0  0  0  0  0  0  0  0  0
  189.3640  176.8680  143.6720 C   0  0  2  0  0  3  0  0  0  0  0  0
  189.1780  173.0740  143.0590 C   0  0  0  0  0  2  0  0  0  0  0  0
  193.5220  174.7750  145.5830 N   0  0  0  0  0  0  0  0  0  0  0  0
  195.0070  173.3380  144.3820 N   0  0  2  0  0  0  0  0  0  0  0  0
  197.8480  169.6700  145.3060 C   0  0  0  0  0  0  0  0  0  0  0  0
  197.9410  168.4960  145.5630 C   0  0  0  0  0  3  0  0  0  0  0  0
  1 12  1  0  0  0  0
  2 24  1  6  0  0  0
  2  7  1  0  0  0  0
  2 14  1  0  0  0  0
  3 16  2  0  0  0  0
  3 18  1  0  0  0  0
  4 14  1  6  0  0  0
  4 16  1  0  0  0  0
  5 28  1  0  0  0  0
  5 17  2  0  0  0  0
  6  8  1  0  0  0  0
  8 19  1  0  0  0  0
  8 13  2  0  0  0  0
  9  1  1  0  0  0  0
 10 17  1  6  0  0  0
 10 19  1  0  0  0  0
 10 22  1  0  0  0  0
 11 15  1  0  0  0  0
 15 21  1  0  0  0  0
 15 24  1  0  0  0  0
 18 32  1  0  0  0  0
 19 22  1  0  0  0  0
 19 12  1  1  0  0  0
 20 21  2  0  0  0  0
 21 27  1  0  0  0  0
 23  3  1  0  0  0  0
 27  7  1  0  0  0  0
 27 29  1  0  0  0  0
 28 25  1  6  0  0  0
 28  6  1  0  0  0  0
 29 17  1  0  0  0  0
 30 26  1  0  0  0  0
 30  9  2  0  0  0  0
 31  4  1  0  0  0  0
 31 23  1  0  0  0  0
 31 26  1  1  0  0  0
 32 33  3  0  0  0  0
M  END
>  <MODEL>
6

>  <REMARK>
 VINA RESULT:      -7.3      2.517      7.275
  Name = 
  1 active torsions:
  status: ('A' for Active; 'I' for Inactive)
    1  A    between atoms: C_4  and  N_19
                            x       y       z     vdW  Elec       q    Type
                         _______ _______ _______ _____ _____    ______ ____

>  <TORSDO>
F 1

$$$$
=
 OpenBabel11042416153D

 33 37  0  0  1  0  0  0  0  0999 V2000
  192.9640  176.1970  145.9290 C   0  0  0  0  0  2  0  0  0  0  0  0
  190.1410  173.4580  141.8460 C   0  0  1  0  0  3  0  0  0  0  0  0
  186.9950  176.4680  142.7570 C   0  0  0  0  0  0  0  0  0  0  0  0
  189.0020  175.6990  142.2820 C   0  0  1  0  0  3  0  0  0  0  0  0
  194.5750  172.6880  143.4200 C   0  0  0  0  0  3  0  0  0  0  0  0
  196.0770  173.8300  145.0180 C   0  0  0  0  0  2  0  0  0  0  0  0
  191.2980  173.7390  140.8920 C   0  0  0  0  0  2  0  0  0  0  0  0
  195.8740  175.1920  144.4120 C   0  0  0  0  0  0  0  0  0  0  0  0
  191.5560  176.5920  145.6300 C   0  0  0  0  0  3  0  0  0  0  0  0
  193.5890  174.9730  143.1440 C   0  0  1  0  0  3  0  0  0  0  0  0
  190.4410  169.7610  142.0130 O   0  0  0  0  0  1  0  0  0  0  0  0
  193.8920  176.8000  144.8870 C   0  0  0  0  0  2  0  0  0  0  0  0
  196.8450  175.9150  144.2630 O   0  0  0  0  0  0  0  0  0  0  0  0
  188.9830  174.3800  141.5140 C   0  0  0  0  0  2  0  0  0  0  0  0
  190.7440  171.0580  141.7680 N   0  0  0  0  0  0  0  0  0  0  0  0
  187.8630  176.4880  141.8140 N   0  0  0  0  0  0  0  0  0  0  0  0
  194.0660  173.6400  142.6230 C   0  0  0  0  0  0  0  0  0  0  0  0
  185.7090  177.0830  142.6720 N   0  0  0  0  0  2  0  0  0  0  0  0
  194.5090  175.7090  144.0300 C   0  0  1  0  0  0  0  0  0  0  0  0
  192.9980  170.5520  141.4240 O   0  0  0  0  0  0  0  0  0  0  0  0
  192.0850  171.4220  141.4210 C   0  0  0  0  0  0  0  0  0  0  0  0
  194.4400  176.0500  142.6030 N   0  0  0  0  0  2  0  0  0  0  0  0
  187.4500  175.8080  143.8700 O   0  0  0  0  0  0  0  0  0  0  0  0
  189.6560  172.0230  141.6370 C   0  0  0  0  0  2  0  0  0  0  0  0
  195.1460  171.5950  145.5460 C   0  0  0  0  0  1  0  0  0  0  0  0
  189.5290  176.4320  144.4740 C   0  0  0  0  0  2  0  0  0  0  0  0
  192.3870  172.7900  141.1130 N   0  0  0  0  0  0  0  0  0  0  0  0
  194.8640  172.9200  144.8710 C   0  0  2  0  0  3  0  0  0  0  0  0
  193.7530  173.2870  141.2050 C   0  0  0  0  0  2  0  0  0  0  0  0
  190.8600  175.9670  144.7530 N   0  0  0  0  0  0  0  0  0  0  0  0
  188.7690  175.4400  143.7200 N   0  0  2  0  0  0  0  0  0  0  0  0
  185.2730  177.7370  141.5110 C   0  0  0  0  0  0  0  0  0  0  0  0
  184.8970  178.3000  140.5130 C   0  0  0  0  0  3  0  0  0  0  0  0
  2  7  1  6  0  0  0
  3 23  1  0  0  0  0
  4 14  1  6  0  0  0
  4 31  1  0  0  0  0
  5 28  1  0  0  0  0
  7 27  1  0  0  0  0
  8  6  1  0  0  0  0
  9  1  1  0  0  0  0
 10 22  1  6  0  0  0
 10 19  1  0  0  0  0
 12  1  1  0  0  0  0
 13  8  2  0  0  0  0
 14  2  1  0  0  0  0
 15 11  1  0  0  0  0
 16  4  1  0  0  0  0
 16  3  2  0  0  0  0
 17 10  1  0  0  0  0
 17  5  2  0  0  0  0
 18  3  1  0  0  0  0
 19  8  1  0  0  0  0
 19 12  1  1  0  0  0
 21 20  2  0  0  0  0
 21 15  1  0  0  0  0
 22 19  1  0  0  0  0
 24 15  1  0  0  0  0
 24  2  1  0  0  0  0
 26 30  1  0  0  0  0
 27 29  1  0  0  0  0
 27 21  1  0  0  0  0
 28  6  1  0  0  0  0
 28 25  1  1  0  0  0
 29 17  1  0  0  0  0
 30  9  2  0  0  0  0
 31 23  1  0  0  0  0
 31 26  1  1  0  0  0
 32 18  1  0  0  0  0
 33 32  3  0  0  0  0
M  END
>  <MODEL>
7

>  <REMARK>
 VINA RESULT:      -7.2      1.869      2.095
  Name = 
  1 active torsions:
  status: ('A' for Active; 'I' for Inactive)
    1  A    between atoms: C_4  and  N_19
                            x       y       z     vdW  Elec       q    Type
                         _______ _______ _______ _____ _____    ______ ____

>  <TORSDO>
F 1

$$$$
=
 OpenBabel11042416153D

 33 37  0  0  1  0  0  0  0  0999 V2000
  190.1140  173.2380  140.1520 C   0  0  0  0  0  2  0  0  0  0  0  0
  191.5270  175.8540  144.9790 C   0  0  1  0  0  3  0  0  0  0  0  0
  187.5060  177.6970  144.5200 C   0  0  0  0  0  0  0  0  0  0  0  0
  189.0150  176.0980  144.6090 C   0  0  1  0  0  3  0  0  0  0  0  0
  193.9920  172.5780  142.5450 C   0  0  0  0  0  3  0  0  0  0  0  0
  193.5330  171.1740  140.5620 C   0  0  0  0  0  2  0  0  0  0  0  0
  191.7390  174.4890  145.6280 C   0  0  0  0  0  2  0  0  0  0  0  0
  192.2080  170.6810  141.0760 C   0  0  0  0  0  0  0  0  0  0  0  0
  189.1920  174.2670  140.7170 C   0  0  0  0  0  3  0  0  0  0  0  0
  191.5060  172.5010  142.8290 C   0  0  1  0  0  3  0  0  0  0  0  0
  195.0370  177.0660  145.0760 O   0  0  0  0  0  1  0  0  0  0  0  0
  189.9390  171.9310  140.9090 C   0  0  0  0  0  2  0  0  0  0  0  0
  191.9330  169.5000  140.9450 O   0  0  0  0  0  0  0  0  0  0  0  0
  190.2230  176.4470  145.4750 C   0  0  0  0  0  2  0  0  0  0  0  0
  193.9700  176.2330  145.1340 N   0  0  0  0  0  0  0  0  0  0  0  0
  187.8410  176.6940  145.2440 N   0  0  0  0  0  0  0  0  0  0  0  0
  192.9220  172.4720  143.3470 C   0  0  0  0  0  0  0  0  0  0  0  0
  186.4300  178.5830  144.8310 N   0  0  0  0  0  2  0  0  0  0  0  0
  191.1920  171.6050  141.7010 C   0  0  1  0  0  0  0  0  0  0  0  0
  195.3360  174.3430  145.0170 O   0  0  0  0  0  0  0  0  0  0  0  0
  194.1740  174.8160  145.1440 C   0  0  0  0  0  0  0  0  0  0  0  0
  190.8610  171.1960  143.0730 N   0  0  0  0  0  2  0  0  0  0  0  0
  188.2840  177.8120  143.3970 O   0  0  0  0  0  0  0  0  0  0  0  0
  192.6520  176.7950  145.4150 C   0  0  0  0  0  2  0  0  0  0  0  0
  195.2060  172.9970  140.4490 C   0  0  0  0  0  1  0  0  0  0  0  0
  188.5380  175.8610  142.2990 C   0  0  0  0  0  2  0  0  0  0  0  0
  193.0420  173.9410  145.2580 N   0  0  0  0  0  0  0  0  0  0  0  0
  193.8840  172.5740  141.0510 C   0  0  2  0  0  3  0  0  0  0  0  0
  193.1310  172.5530  144.8240 C   0  0  0  0  0  2  0  0  0  0  0  0
  189.4930  174.9240  141.7770 N   0  0  0  0  0  0  0  0  0  0  0  0
  189.1490  176.7460  143.2850 N   0  0  2  0  0  0  0  0  0  0  0  0
  185.6640  178.4420  145.9980 C   0  0  0  0  0  0  0  0  0  0  0  0
  185.0070  178.3210  147.0010 C   0  0  0  0  0  3  0  0  0  0  0  0
  1  9  1  0  0  0  0
  1 12  1  0  0  0  0
  2 24  1  1  0  0  0
  2 14  1  0  0  0  0
  2  7  1  0  0  0  0
  3 18  1  0  0  0  0
  3 16  2  0  0  0  0
  4 16  1  0  0  0  0
  4 14  1  1  0  0  0
  5 17  2  0  0  0  0
  6 28  1  0  0  0  0
  6  8  1  0  0  0  0
  8 19  1  0  0  0  0
  9 30  2  0  0  0  0
 10 22  1  1  0  0  0
 10 17  1  0  0  0  0
 11 15  1  0  0  0  0
 13  8  2  0  0  0  0
 15 21  1  0  0  0  0
 15 24  1  0  0  0  0
 17 29  1  0  0  0  0
 18 32  1  0  0  0  0
 19 12  1  6  0  0  0
 19 10  1  0  0  0  0
 19 22  1  0  0  0  0
 20 21  2  0  0  0  0
 21 27  1  0  0  0  0
 23  3  1  0  0  0  0
 27  7  1  0  0  0  0
 28 25  1  6  0  0  0
 28  5  1  0  0  0  0
 29 27  1  0  0  0  0
 30 26  1  0  0  0  0
 31 26  1  6  0  0  0
 31 23  1  0  0  0  0
 31  4  1  0  0  0  0
 32 33  3  0  0  0  0
M  END
>  <MODEL>
8

>  <REMARK>
 VINA RESULT:      -7.1      2.020      4.996
  Name = 
  1 active torsions:
  status: ('A' for Active; 'I' for Inactive)
    1  A    between atoms: C_4  and  N_19
                            x       y       z     vdW  Elec       q    Type
                         _______ _______ _______ _____ _____    ______ ____

>  <TORSDO>
F 1

$$$$
=
 OpenBabel11042416153D

 33 37  0  0  1  0  0  0  0  0999 V2000
  191.5630  177.2670  144.7820 C   0  0  0  0  0  2  0  0  0  0  0  0
  191.9050  172.9870  141.0800 C   0  0  1  0  0  3  0  0  0  0  0  0
  196.0520  172.6730  142.6580 C   0  0  0  0  0  0  0  0  0  0  0  0
  193.8570  172.8270  142.7150 C   0  0  1  0  0  3  0  0  0  0  0  0
  188.1400  175.7230  142.1160 C   0  0  0  0  0  3  0  0  0  0  0  0
  187.6800  177.4900  143.7830 C   0  0  0  0  0  2  0  0  0  0  0  0
  190.7100  172.3310  141.7650 C   0  0  0  0  0  2  0  0  0  0  0  0
  188.1850  176.6830  144.9480 C   0  0  0  0  0  0  0  0  0  0  0  0
  192.8700  176.5710  144.5960 C   0  0  0  0  0  3  0  0  0  0  0  0
  189.7700  174.9140  143.8360 C   0  0  1  0  0  3  0  0  0  0  0  0
  190.3360  173.6990  137.7900 O   0  0  0  0  0  1  0  0  0  0  0  0
  190.6640  176.4270  145.6750 C   0  0  0  0  0  2  0  0  0  0  0  0
  187.5460  176.6930  145.9870 O   0  0  0  0  0  0  0  0  0  0  0  0
  193.1740  172.2560  141.4750 C   0  0  0  0  0  2  0  0  0  0  0  0
  190.4720  173.3740  139.0980 N   0  0  0  0  0  0  0  0  0  0  0  0
  195.0210  171.9880  142.9920 N   0  0  0  0  0  0  0  0  0  0  0  0
  188.7120  174.7070  142.7810 C   0  0  0  0  0  0  0  0  0  0  0  0
  197.3920  172.1860  142.7260 N   0  0  0  0  0  2  0  0  0  0  0  0
  189.4750  175.9030  144.8890 C   0  0  1  0  0  0  0  0  0  0  0  0
  188.1910  173.6830  139.4950 O   0  0  0  0  0  0  0  0  0  0  0  0
  189.3170  173.3360  139.9450 C   0  0  0  0  0  0  0  0  0  0  0  0
  189.2550  174.4730  145.1470 N   0  0  0  0  0  2  0  0  0  0  0  0
  195.7240  173.9400  142.2490 O   0  0  0  0  0  0  0  0  0  0  0  0
  191.7510  172.8480  139.5650 C   0  0  0  0  0  2  0  0  0  0  0  0
  187.8390  178.0460  141.3740 C   0  0  0  0  0  1  0  0  0  0  0  0
  194.2800  174.9680  143.6400 C   0  0  0  0  0  2  0  0  0  0  0  0
  189.4610  172.9410  141.3170 N   0  0  0  0  0  0  0  0  0  0  0  0
  188.3820  177.1570  142.4720 C   0  0  2  0  0  3  0  0  0  0  0  0
  188.4580  173.3140  142.3050 C   0  0  0  0  0  2  0  0  0  0  0  0
  193.0100  175.6340  143.7320 N   0  0  0  0  0  0  0  0  0  0  0  0
  194.3770  174.1800  142.4170 N   0  0  2  0  0  0  0  0  0  0  0  0
  197.6870  170.8770  143.1370 C   0  0  0  0  0  0  0  0  0  0  0  0
  197.9400  169.7520  143.4890 C   0  0  0  0  0  3  0  0  0  0  0  0
  1 12  1  0  0  0  0
  2 24  1  6  0  0  0
  2 14  1  0  0  0  0
  2  7  1  0  0  0  0
  3 18  1  0  0  0  0
  3 16  2  0  0  0  0
  4 14  1  6  0  0  0
  4 16  1  0  0  0  0
  5 28  1  0  0  0  0
  5 17  2  0  0  0  0
  6  8  1  0  0  0  0
  8 13  2  0  0  0  0
  9  1  1  0  0  0  0
 10 17  1  6  0  0  0
 10 19  1  0  0  0  0
 10 22  1  0  0  0  0
 11 15  1  0  0  0  0
 15 24  1  0  0  0  0
 15 21  1  0  0  0  0
 18 32  1  0  0  0  0
 19  8  1  0  0  0  0
 19 22  1  0  0  0  0
 19 12  1  1  0  0  0
 20 21  2  0  0  0  0
 21 27  1  0  0  0  0
 23 31  1  0  0  0  0
 23  3  1  0  0  0  0
 26 30  1  0  0  0  0
 27  7  1  0  0  0  0
 27 29  1  0  0  0  0
 28 25  1  6  0  0  0
 28  6  1  0  0  0  0
 29 17  1  0  0  0  0
 30  9  2  0  0  0  0
 31  4  1  0  0  0  0
 31 26  1  1  0  0  0
 32 33  3  0  0  0  0
M  END
>  <MODEL>
9

>  <REMARK>
 VINA RESULT:      -6.7      2.444      7.352
  Name = 
  1 active torsions:
  status: ('A' for Active; 'I' for Inactive)
    1  A    between atoms: C_4  and  N_19
                            x       y       z     vdW  Elec       q    Type
                         _______ _______ _______ _____ _____    ______ ____

>  <TORSDO>
F 1

$$$$
