=
 OpenBabel11042418463D

 44 49  0  0  1  0  0  0  0  0999 V2000
  193.1920  176.5460  143.9610 C   0  0  1  0  0  3  0  0  0  0  0  0
  193.7080  175.1920  143.6740 N   0  0  0  0  0  0  0  0  0  0  0  0
  191.1200  175.7980  142.6920 C   0  0  0  0  0  0  0  0  0  0  0  0
  189.7820  176.0010  142.3220 C   0  0  0  0  0  0  0  0  0  0  0  0
  189.7820  178.0080  143.6110 N   0  0  0  0  0  0  0  0  0  0  0  0
  186.2500  179.0680  143.5320 C   0  0  0  0  0  3  0  0  0  0  0  0
  186.8900  175.1750  142.3010 N   0  0  0  0  0  0  0  0  0  0  0  0
  189.1510  175.0620  141.4320 N   0  0  0  0  0  0  0  0  0  0  0  0
  189.1250  177.1560  142.7790 C   0  0  0  0  0  0  0  0  0  0  0  0
  193.3630  174.7960  142.3090 C   0  0  0  0  0  2  0  0  0  0  0  0
  186.7900  176.3840  142.7630 C   0  0  0  0  0  0  0  0  0  0  0  0
  187.9030  174.6880  141.4050 C   0  0  0  0  0  3  0  0  0  0  0  0
  191.8620  174.5820  142.2120 C   0  0  0  0  0  2  0  0  0  0  0  0
  185.4660  177.9510  144.0830 C   0  0  0  0  0  0  0  0  0  0  0  0
  185.7040  176.6940  143.7060 C   0  0  0  0  0  3  0  0  0  0  0  0
  191.7340  176.7000  143.5790 C   0  0  2  0  0  3  0  0  0  0  0  0
  184.3630  178.2330  145.0370 C   0  0  0  0  0  1  0  0  0  0  0  0
  187.7340  177.4680  142.3150 C   0  0  0  0  0  0  0  0  0  0  0  0
  191.0380  177.7890  143.9960 N   0  0  0  0  0  0  0  0  0  0  0  0
  187.2790  178.8560  142.7080 C   0  0  0  0  0  3  0  0  0  0  0  0
  195.1720  175.1510  143.8120 C   0  0  0  0  0  2  0  0  0  0  0  0
  195.8460  174.2190  142.8070 C   0  0  0  0  0  2  0  0  0  0  0  0
  196.5460  173.1010  143.5500 C   0  0  0  0  0  2  0  0  0  0  0  0
  196.1500  171.5060  142.7790 S   0  0  0  0  0  0  0  0  0  0  0  0
  195.2680  170.8960  144.2470 C   0  0  0  0  0  2  0  0  0  0  0  0
  189.4810  172.4900  144.0580 C   0  0  0  0  0  3  0  0  0  0  0  0
  190.6210  171.0530  142.3540 C   0  0  0  0  0  2  0  0  0  0  0  0
  191.7140  171.0430  143.3200 N   0  0  0  0  0  0  0  0  0  0  0  0
  190.7510  172.6610  144.7970 C   0  0  0  0  0  3  0  0  0  0  0  0
  193.8060  171.1320  144.0980 C   0  0  0  0  0  0  0  0  0  0  0  0
  193.0750  171.9890  144.9200 O   0  0  0  0  0  0  0  0  0  0  0  0
  189.4070  171.7350  142.9490 C   0  0  0  0  0  3  0  0  0  0  0  0
  193.0470  170.5850  143.1430 C   0  0  0  0  0  3  0  0  0  0  0  0
  191.7960  171.9450  144.4020 C   0  0  0  0  0  0  0  0  0  0  0  0
  193.4010  176.8830  145.4340 C   0  0  0  0  0  2  0  0  0  0  0  0
  192.9770  175.4400  146.4530 S   0  0  0  0  0  0  0  0  0  0  0  0
  191.8120  176.3840  147.4820 C   0  0  0  0  0  2  0  0  0  0  0  0
  190.5530  176.5900  146.7780 N   0  0  0  0  0  2  0  0  0  0  0  0
  189.4330  175.7110  146.9080 C   0  0  0  0  0  0  0  0  0  0  0  0
  189.5060  174.6780  147.6250 O   0  0  0  0  0  0  0  0  0  0  0  0
  188.1620  176.0310  146.2010 C   0  0  0  0  0  2  0  0  0  0  0  0
  186.2070  176.4330  147.6900 O   0  0  0  0  0  1  0  0  0  0  0  0
  187.6450  178.1430  147.1770 O   0  0  0  0  0  0  0  0  0  0  0  0
  187.3230  176.9340  147.0340 C   0  0  0  0  0  0  0  0  0  0  0  0
  1 35  1  1  0  0  0
  2 21  1  0  0  0  0
  2  1  1  0  0  0  0
  4  3  2  0  0  0  0
  4  9  1  0  0  0  0
  5 19  2  0  0  0  0
  6 14  1  0  0  0  0
  7 11  2  0  0  0  0
  8  4  1  0  0  0  0
  9  5  1  0  0  0  0
 10  2  1  0  0  0  0
 11 15  1  0  0  0  0
 12  8  2  0  0  0  0
 12  7  1  0  0  0  0
 13 10  1  0  0  0  0
 13  3  1  0  0  0  0
 14 17  1  0  0  0  0
 15 14  2  0  0  0  0
 16  3  1  6  0  0  0
 16  1  1  0  0  0  0
 16 19  1  0  0  0  0
 18 20  1  0  0  0  0
 18 11  1  0  0  0  0
 18  9  2  0  0  0  0
 20  6  2  0  0  0  0
 22 23  1  0  0  0  0
 22 21  1  0  0  0  0
 24 23  1  0  0  0  0
 24 25  1  0  0  0  0
 26 29  1  0  0  0  0
 27 32  1  0  0  0  0
 27 28  1  0  0  0  0
 28 34  1  0  0  0  0
 30 25  1  0  0  0  0
 30 31  1  0  0  0  0
 32 26  2  0  0  0  0
 33 28  1  0  0  0  0
 33 30  2  0  0  0  0
 34 29  2  0  0  0  0
 34 31  1  0  0  0  0
 35 36  1  0  0  0  0
 36 37  1  0  0  0  0
 38 39  1  0  0  0  0
 38 37  1  0  0  0  0
 39 40  2  0  0  0  0
 41 39  1  0  0  0  0
 41 44  1  0  0  0  0
 44 43  2  0  0  0  0
 44 42  1  0  0  0  0
M  END
>  <MODEL>
1

>  <REMARK>
 VINA RESULT:      -6.7      0.000      0.000
  Name = 
  12 active torsions:
  status: ('A' for Active; 'I' for Inactive)
    1  A    between atoms: C_1  and  C_25
    2  A    between atoms: C_1  and  C_34
    3  A    between atoms: S_2  and  C_34
    4  A    between atoms: S_2  and  C_41
    5  A    between atoms: C_3  and  S_8
    6  A    between atoms: C_3  and  N_27
    7  A    between atoms: C_4  and  C_36
    8  A    between atoms: N_5  and  C_25
    9  A    between atoms: S_8  and  C_36
   10  A    between atoms: C_12  and  C_22
   11  A    between atoms: C_12  and  C_31
   12  A    between atoms: C_35  and  C_41
                            x       y       z     vdW  Elec       q    Type
                         _______ _______ _______ _____ _____    ______ ____

>  <TORSDO>
F 12

$$$$
=
 OpenBabel11042418463D

 44 49  0  0  1  0  0  0  0  0999 V2000
  191.5370  172.3770  141.9670 C   0  0  1  0  0  3  0  0  0  0  0  0
  192.3130  172.9110  140.8300 N   0  0  0  0  0  0  0  0  0  0  0  0
  191.5540  174.7690  142.8310 C   0  0  0  0  0  0  0  0  0  0  0  0
  191.0710  175.7450  143.7140 C   0  0  0  0  0  0  0  0  0  0  0  0
  189.6460  174.0940  144.6820 N   0  0  0  0  0  0  0  0  0  0  0  0
  187.5460  176.0420  147.0060 C   0  0  0  0  0  3  0  0  0  0  0  0
  189.6370  178.3300  144.2720 N   0  0  0  0  0  0  0  0  0  0  0  0
  191.6180  177.0750  143.6560 N   0  0  0  0  0  0  0  0  0  0  0  0
  190.1170  175.3710  144.6750 C   0  0  0  0  0  0  0  0  0  0  0  0
  193.3010  173.8810  141.3000 C   0  0  0  0  0  2  0  0  0  0  0  0
  188.9780  177.5190  145.0430 C   0  0  2  0  0  3  0  0  0  0  0  0
  191.0170  178.2070  143.8920 C   0  0  0  0  0  3  0  0  0  0  0  0
  192.5850  175.1260  141.7980 C   0  0  0  0  0  2  0  0  0  0  0  0
  186.8760  177.0740  146.1990 C   0  0  0  0  0  0  0  0  0  0  0  0
  187.5520  177.7830  145.2940 C   0  0  0  0  0  3  0  0  0  0  0  0
  191.0060  173.4740  142.8680 C   0  0  0  0  0  0  0  0  0  0  0  0
  185.4370  177.3610  146.4290 C   0  0  0  0  0  1  0  0  0  0  0  0
  189.6600  176.3540  145.7100 C   0  0  0  0  0  0  0  0  0  0  0  0
  190.0750  173.1800  143.8130 N   0  0  0  0  0  0  0  0  0  0  0  0
  188.8250  175.7180  146.8000 C   0  0  0  0  0  3  0  0  0  0  0  0
  193.0230  171.8300  140.1290 C   0  0  0  0  0  2  0  0  0  0  0  0
  194.5210  172.0910  139.9790 C   0  0  0  0  0  2  0  0  0  0  0  0
  195.2900  170.8570  140.4000 C   0  0  0  0  0  2  0  0  0  0  0  0
  194.4670  170.0720  141.8150 S   0  0  0  0  0  0  0  0  0  0  0  0
  195.7380  170.6230  142.9930 C   0  0  0  0  0  2  0  0  0  0  0  0
  193.5250  175.1800  146.2180 C   0  0  0  0  0  3  0  0  0  0  0  0
  195.6980  175.2350  144.9750 C   0  0  0  0  0  2  0  0  0  0  0  0
  195.2260  173.9780  144.4050 N   0  0  0  0  0  0  0  0  0  0  0  0
  193.3060  173.7720  145.8190 C   0  0  0  0  0  3  0  0  0  0  0  0
  195.2930  171.8660  143.6790 C   0  0  0  0  0  0  0  0  0  0  0  0
  194.1550  171.9390  144.4830 O   0  0  0  0  0  0  0  0  0  0  0  0
  194.6080  175.8670  145.8150 C   0  0  0  0  0  3  0  0  0  0  0  0
  195.9490  173.0290  143.6330 C   0  0  0  0  0  3  0  0  0  0  0  0
  194.1520  173.2390  144.9470 C   0  0  0  0  0  0  0  0  0  0  0  0
  190.3970  171.5020  141.4570 C   0  0  0  0  0  2  0  0  0  0  0  0
  189.6840  172.2440  139.9610 S   0  0  0  0  0  0  0  0  0  0  0  0
  188.3970  173.1300  140.8920 C   0  0  0  0  0  2  0  0  0  0  0  0
  188.5750  174.5710  140.7720 N   0  0  0  0  0  2  0  0  0  0  0  0
  187.9030  175.5130  141.6130 C   0  0  0  0  0  0  0  0  0  0  0  0
  187.0830  175.1240  142.4870 O   0  0  0  0  0  0  0  0  0  0  0  0
  188.1910  176.9660  141.4640 C   0  0  0  0  0  2  0  0  0  0  0  0
  186.1210  177.4250  140.1580 O   0  0  0  0  0  0  0  0  0  0  0  0
  186.5710  178.6050  142.0710 O   0  0  0  0  0  1  0  0  0  0  0  0
  186.9280  177.7230  141.2470 C   0  0  0  0  0  0  0  0  0  0  0  0
  1 35  1  6  0  0  0
  1 16  1  0  0  0  0
  2 10  1  0  0  0  0
  2  1  1  0  0  0  0
  3 16  2  0  0  0  0
  3  4  1  0  0  0  0
  4  9  1  0  0  0  0
  7 11  1  0  0  0  0
  8  4  2  0  0  0  0
  8 12  1  0  0  0  0
  9  5  1  0  0  0  0
  9 18  2  0  0  0  0
 10 13  1  0  0  0  0
 11 15  1  1  0  0  0
 11 18  1  0  0  0  0
 12  7  2  0  0  0  0
 13  3  1  0  0  0  0
 14 17  1  0  0  0  0
 14  6  1  0  0  0  0
 15 14  2  0  0  0  0
 16 19  1  0  0  0  0
 18 20  1  0  0  0  0
 19  5  2  0  0  0  0
 20  6  2  0  0  0  0
 21  2  1  0  0  0  0
 22 21  1  0  0  0  0
 22 23  1  0  0  0  0
 23 24  1  0  0  0  0
 24 25  1  0  0  0  0
 25 30  1  0  0  0  0
 27 32  1  0  0  0  0
 28 34  1  0  0  0  0
 28 27  1  0  0  0  0
 29 26  1  0  0  0  0
 30 31  1  0  0  0  0
 31 34  1  0  0  0  0
 32 26  2  0  0  0  0
 33 30  2  0  0  0  0
 33 28  1  0  0  0  0
 34 29  2  0  0  0  0
 36 37  1  0  0  0  0
 36 35  1  0  0  0  0
 38 37  1  0  0  0  0
 38 39  1  0  0  0  0
 39 40  2  0  0  0  0
 41 39  1  0  0  0  0
 42 44  2  0  0  0  0
 44 41  1  0  0  0  0
 44 43  1  0  0  0  0
M  END
>  <MODEL>
2

>  <REMARK>
 VINA RESULT:      -6.7      2.634      4.661
  Name = 
  12 active torsions:
  status: ('A' for Active; 'I' for Inactive)
    1  A    between atoms: C_1  and  C_25
    2  A    between atoms: C_1  and  C_34
    3  A    between atoms: S_2  and  C_34
    4  A    between atoms: S_2  and  C_41
    5  A    between atoms: C_3  and  S_8
    6  A    between atoms: C_3  and  N_27
    7  A    between atoms: C_4  and  C_36
    8  A    between atoms: N_5  and  C_25
    9  A    between atoms: S_8  and  C_36
   10  A    between atoms: C_12  and  C_22
   11  A    between atoms: C_12  and  C_31
   12  A    between atoms: C_35  and  C_41
                            x       y       z     vdW  Elec       q    Type
                         _______ _______ _______ _____ _____    ______ ____

>  <TORSDO>
F 12

$$$$
=
 OpenBabel11042418463D

 44 49  0  0  1  0  0  0  0  0999 V2000
  189.4410  173.2160  141.3080 C   0  0  1  0  0  3  0  0  0  0  0  0
  189.1040  172.7030  139.9650 N   0  0  0  0  0  0  0  0  0  0  0  0
  188.0500  175.2420  140.6550 C   0  0  0  0  0  0  0  0  0  0  0  0
  187.3840  176.4240  141.0100 C   0  0  0  0  0  0  0  0  0  0  0  0
  188.0760  176.0780  143.2670 N   0  0  0  0  0  0  0  0  0  0  0  0
  186.2780  178.7130  145.1190 C   0  0  0  0  0  3  0  0  0  0  0  0
  184.8810  178.0700  141.2830 N   0  0  0  0  0  0  0  0  0  0  0  0
  186.7340  177.1960  139.9840 N   0  0  0  0  0  0  0  0  0  0  0  0
  187.4370  176.8510  142.3470 C   0  0  0  0  0  0  0  0  0  0  0  0
  189.1650  173.7820  138.9800 C   0  0  0  0  0  2  0  0  0  0  0  0
  185.3530  178.1500  142.4900 C   0  0  0  0  0  0  0  0  0  0  0  0
  185.6500  177.9150  140.0780 C   0  0  0  0  0  3  0  0  0  0  0  0
  188.0280  174.7580  139.2320 C   0  0  0  0  0  2  0  0  0  0  0  0
  184.8460  178.5110  144.8490 C   0  0  0  0  0  0  0  0  0  0  0  0
  184.4090  178.2690  143.6120 C   0  0  0  0  0  3  0  0  0  0  0  0
  188.6670  174.4710  141.6570 C   0  0  2  0  0  3  0  0  0  0  0  0
  183.8700  178.6250  145.9620 C   0  0  0  0  0  1  0  0  0  0  0  0
  186.8370  178.1650  142.7460 C   0  0  0  0  0  0  0  0  0  0  0  0
  188.6690  174.9320  142.9340 N   0  0  0  0  0  0  0  0  0  0  0  0
  187.1950  178.5740  144.1570 C   0  0  0  0  0  3  0  0  0  0  0  0
  190.0460  171.6490  139.5560 C   0  0  0  0  0  2  0  0  0  0  0  0
  191.3450  172.1980  138.9680 C   0  0  0  0  0  2  0  0  0  0  0  0
  192.5210  171.6340  139.7370 C   0  0  0  0  0  2  0  0  0  0  0  0
  193.8400  172.8770  139.8430 S   0  0  0  0  0  0  0  0  0  0  0  0
  194.5410  172.1570  141.3580 C   0  0  0  0  0  2  0  0  0  0  0  0
  194.5950  175.6310  146.2560 C   0  0  0  0  0  3  0  0  0  0  0  0
  195.2810  176.3810  143.9680 C   0  0  0  0  0  2  0  0  0  0  0  0
  194.7150  175.1030  143.5480 N   0  0  0  0  0  0  0  0  0  0  0  0
  194.3460  174.2600  145.7570 C   0  0  0  0  0  3  0  0  0  0  0  0
  194.5350  173.1650  142.4510 C   0  0  0  0  0  0  0  0  0  0  0  0
  194.2680  172.8550  143.7860 O   0  0  0  0  0  0  0  0  0  0  0  0
  195.0010  176.6160  145.4370 C   0  0  0  0  0  3  0  0  0  0  0  0
  194.8220  174.4600  142.2860 C   0  0  0  0  0  3  0  0  0  0  0  0
  194.4180  174.0570  144.4480 C   0  0  0  0  0  0  0  0  0  0  0  0
  189.2070  172.1320  142.3550 C   0  0  0  0  0  2  0  0  0  0  0  0
  190.7410  171.8420  143.2840 S   0  0  0  0  0  0  0  0  0  0  0  0
  190.0330  172.4610  144.8410 C   0  0  0  0  0  2  0  0  0  0  0  0
  190.7650  173.6290  145.3110 N   0  0  0  0  0  2  0  0  0  0  0  0
  190.1890  174.6190  146.1660 C   0  0  0  0  0  0  0  0  0  0  0  0
  188.9850  174.5360  146.5260 O   0  0  0  0  0  0  0  0  0  0  0  0
  191.0290  175.7490  146.6520 C   0  0  0  0  0  2  0  0  0  0  0  0
  190.5080  177.5300  144.9900 O   0  0  0  0  0  0  0  0  0  0  0  0
  189.7460  177.6960  147.1460 O   0  0  0  0  0  1  0  0  0  0  0  0
  190.4030  177.0500  146.2890 C   0  0  0  0  0  0  0  0  0  0  0  0
  1 16  1  0  0  0  0
  1 35  1  1  0  0  0
  2  1  1  0  0  0  0
  3  4  2  0  0  0  0
  4  9  1  0  0  0  0
  7 11  2  0  0  0  0
  8 12  2  0  0  0  0
  8  4  1  0  0  0  0
  9 18  2  0  0  0  0
  9  5  1  0  0  0  0
 10 13  1  0  0  0  0
 10  2  1  0  0  0  0
 11 18  1  0  0  0  0
 11 15  1  0  0  0  0
 12  7  1  0  0  0  0
 13  3  1  0  0  0  0
 14  6  1  0  0  0  0
 14 17  1  0  0  0  0
 15 14  2  0  0  0  0
 16  3  1  6  0  0  0
 16 19  1  0  0  0  0
 18 20  1  0  0  0  0
 19  5  2  0  0  0  0
 20  6  2  0  0  0  0
 21  2  1  0  0  0  0
 22 21  1  0  0  0  0
 22 23  1  0  0  0  0
 23 24  1  0  0  0  0
 24 25  1  0  0  0  0
 25 30  1  0  0  0  0
 27 32  1  0  0  0  0
 28 27  1  0  0  0  0
 28 34  1  0  0  0  0
 29 26  1  0  0  0  0
 30 31  1  0  0  0  0
 31 34  1  0  0  0  0
 32 26  2  0  0  0  0
 33 30  2  0  0  0  0
 33 28  1  0  0  0  0
 34 29  2  0  0  0  0
 35 36  1  0  0  0  0
 36 37  1  0  0  0  0
 37 38  1  0  0  0  0
 38 39  1  0  0  0  0
 39 40  2  0  0  0  0
 39 41  1  0  0  0  0
 42 44  2  0  0  0  0
 44 41  1  0  0  0  0
 44 43  1  0  0  0  0
M  END
>  <MODEL>
3

>  <REMARK>
 VINA RESULT:      -6.7      2.266      4.300
  Name = 
  12 active torsions:
  status: ('A' for Active; 'I' for Inactive)
    1  A    between atoms: C_1  and  C_25
    2  A    between atoms: C_1  and  C_34
    3  A    between atoms: S_2  and  C_34
    4  A    between atoms: S_2  and  C_41
    5  A    between atoms: C_3  and  S_8
    6  A    between atoms: C_3  and  N_27
    7  A    between atoms: C_4  and  C_36
    8  A    between atoms: N_5  and  C_25
    9  A    between atoms: S_8  and  C_36
   10  A    between atoms: C_12  and  C_22
   11  A    between atoms: C_12  and  C_31
   12  A    between atoms: C_35  and  C_41
                            x       y       z     vdW  Elec       q    Type
                         _______ _______ _______ _____ _____    ______ ____

>  <TORSDO>
F 12

$$$$
=
 OpenBabel11042418463D

 44 49  0  0  1  0  0  0  0  0999 V2000
  190.0400  175.6890  141.9820 C   0  0  1  0  0  3  0  0  0  0  0  0
  189.1280  176.4890  142.8230 N   0  0  0  0  0  0  0  0  0  0  0  0
  191.8460  176.4050  143.6220 C   0  0  0  0  0  0  0  0  0  0  0  0
  193.1430  176.2670  144.1390 C   0  0  0  0  0  0  0  0  0  0  0  0
  193.5380  174.5340  142.5470 N   0  0  0  0  0  0  0  0  0  0  0  0
  196.8350  173.2090  143.5380 C   0  0  0  0  0  3  0  0  0  0  0  0
  195.0420  175.6170  146.3780 N   0  0  0  0  0  0  0  0  0  0  0  0
  193.5710  177.1420  145.1980 N   0  0  0  0  0  0  0  0  0  0  0  0
  194.0040  175.3250  143.5530 C   0  0  0  0  0  0  0  0  0  0  0  0
  189.7780  177.7320  143.2370 C   0  0  0  0  0  2  0  0  0  0  0  0
  195.4880  174.8280  145.4500 C   0  0  0  0  0  0  0  0  0  0  0  0
  194.3910  176.8820  146.1790 C   0  0  0  0  0  3  0  0  0  0  0  0
  190.8990  177.4130  144.2130 C   0  0  0  0  0  2  0  0  0  0  0  0
  196.7080  172.7770  144.9390 C   0  0  0  0  0  0  0  0  0  0  0  0
  196.0960  173.5460  145.8410 C   0  0  0  0  0  3  0  0  0  0  0  0
  191.4140  175.5380  142.6030 C   0  0  0  0  0  0  0  0  0  0  0  0
  197.3120  171.4890  145.3630 C   0  0  0  0  0  1  0  0  0  0  0  0
  195.4310  175.2250  143.9980 C   0  0  1  0  0  3  0  0  0  0  0  0
  192.2920  174.6380  142.0890 N   0  0  0  0  0  0  0  0  0  0  0  0
  196.2680  174.3380  143.1030 C   0  0  0  0  0  3  0  0  0  0  0  0
  187.9020  176.8320  142.0860 C   0  0  0  0  0  2  0  0  0  0  0  0
  187.4370  178.2680  142.3240 C   0  0  0  0  0  2  0  0  0  0  0  0
  186.0080  178.2560  142.8230 C   0  0  0  0  0  2  0  0  0  0  0  0
  185.9450  178.8860  144.5250 S   0  0  0  0  0  0  0  0  0  0  0  0
  185.8420  177.2210  145.2480 C   0  0  0  0  0  2  0  0  0  0  0  0
  191.0290  175.2820  147.5700 C   0  0  0  0  0  3  0  0  0  0  0  0
  190.2220  177.6500  147.6630 C   0  0  0  0  0  2  0  0  0  0  0  0
  188.9730  177.0810  147.1670 N   0  0  0  0  0  0  0  0  0  0  0  0
  189.8390  174.8830  146.7850 C   0  0  0  0  0  3  0  0  0  0  0  0
  187.1130  176.8880  145.9440 C   0  0  0  0  0  0  0  0  0  0  0  0
  187.7200  175.6330  145.8860 O   0  0  0  0  0  0  0  0  0  0  0  0
  191.2000  176.5440  147.9980 C   0  0  0  0  0  3  0  0  0  0  0  0
  187.8310  177.7580  146.6620 C   0  0  0  0  0  3  0  0  0  0  0  0
  188.8800  175.7840  146.6180 C   0  0  0  0  0  0  0  0  0  0  0  0
  189.4250  174.3230  141.6990 C   0  0  0  0  0  2  0  0  0  0  0  0
  189.1590  173.4400  143.2640 S   0  0  0  0  0  0  0  0  0  0  0  0
  189.6600  171.8390  142.5620 C   0  0  0  0  0  2  0  0  0  0  0  0
  190.9950  171.4730  143.0150 N   0  0  0  0  0  2  0  0  0  0  0  0
  192.0740  171.1940  142.1180 C   0  0  0  0  0  0  0  0  0  0  0  0
  191.8960  171.2180  140.8710 O   0  0  0  0  0  0  0  0  0  0  0  0
  193.4250  170.8910  142.6660 C   0  0  0  0  0  2  0  0  0  0  0  0
  192.9370  169.0630  144.2870 O   0  0  0  0  0  0  0  0  0  0  0  0
  193.5960  171.1290  145.0320 O   0  0  0  0  0  1  0  0  0  0  0  0
  193.3130  170.3800  144.0600 C   0  0  0  0  0  0  0  0  0  0  0  0
  1 35  1  1  0  0  0
  1 16  1  0  0  0  0
  1  2  1  0  0  0  0
  2 10  1  0  0  0  0
  3  4  1  0  0  0  0
  3 13  1  0  0  0  0
  4  8  1  0  0  0  0
  5  9  1  0  0  0  0
  6 14  1  0  0  0  0
  8 12  2  0  0  0  0
  9 18  1  0  0  0  0
  9  4  2  0  0  0  0
 10 13  1  0  0  0  0
 11 15  1  0  0  0  0
 11  7  2  0  0  0  0
 12  7  1  0  0  0  0
 14 17  1  0  0  0  0
 14 15  2  0  0  0  0
 16  3  2  0  0  0  0
 18 20  1  6  0  0  0
 18 11  1  0  0  0  0
 19  5  2  0  0  0  0
 19 16  1  0  0  0  0
 20  6  2  0  0  0  0
 21 22  1  0  0  0  0
 21  2  1  0  0  0  0
 22 23  1  0  0  0  0
 23 24  1  0  0  0  0
 24 25  1  0  0  0  0
 25 30  1  0  0  0  0
 26 32  2  0  0  0  0
 27 32  1  0  0  0  0
 28 27  1  0  0  0  0
 29 26  1  0  0  0  0
 30 33  2  0  0  0  0
 31 30  1  0  0  0  0
 31 34  1  0  0  0  0
 33 28  1  0  0  0  0
 34 29  2  0  0  0  0
 34 28  1  0  0  0  0
 35 36  1  0  0  0  0
 37 38  1  0  0  0  0
 37 36  1  0  0  0  0
 39 41  1  0  0  0  0
 39 38  1  0  0  0  0
 40 39  2  0  0  0  0
 41 44  1  0  0  0  0
 44 42  2  0  0  0  0
 44 43  1  0  0  0  0
M  END
>  <MODEL>
4

>  <REMARK>
 VINA RESULT:      -6.7      2.138      8.119
  Name = 
  12 active torsions:
  status: ('A' for Active; 'I' for Inactive)
    1  A    between atoms: C_1  and  C_25
    2  A    between atoms: C_1  and  C_34
    3  A    between atoms: S_2  and  C_34
    4  A    between atoms: S_2  and  C_41
    5  A    between atoms: C_3  and  S_8
    6  A    between atoms: C_3  and  N_27
    7  A    between atoms: C_4  and  C_36
    8  A    between atoms: N_5  and  C_25
    9  A    between atoms: S_8  and  C_36
   10  A    between atoms: C_12  and  C_22
   11  A    between atoms: C_12  and  C_31
   12  A    between atoms: C_35  and  C_41
                            x       y       z     vdW  Elec       q    Type
                         _______ _______ _______ _____ _____    ______ ____

>  <TORSDO>
F 12

$$$$
=
 OpenBabel11042418463D

 44 49  0  0  1  0  0  0  0  0999 V2000
  190.4390  177.1070  145.0810 C   0  0  1  0  0  3  0  0  0  0  0  0
  190.0410  176.4410  146.3380 N   0  0  0  0  0  0  0  0  0  0  0  0
  192.7410  176.1280  145.5340 C   0  0  0  0  0  0  0  0  0  0  0  0
  194.0380  175.8190  145.0970 C   0  0  0  0  0  0  0  0  0  0  0  0
  193.5010  176.7820  142.9810 N   0  0  0  0  0  0  0  0  0  0  0  0
  196.4440  175.9730  140.9100 C   0  0  0  0  0  3  0  0  0  0  0  0
  196.2090  173.8430  144.4440 N   0  0  0  0  0  0  0  0  0  0  0  0
  194.9580  175.2010  146.0160 N   0  0  0  0  0  0  0  0  0  0  0  0
  194.4170  176.1920  143.7970 C   0  0  0  0  0  0  0  0  0  0  0  0
  191.0960  176.5820  147.3420 C   0  0  0  0  0  2  0  0  0  0  0  0
  196.1560  174.5150  143.3350 C   0  0  0  0  0  0  0  0  0  0  0  0
  195.9040  174.3420  145.7560 C   0  0  0  0  0  3  0  0  0  0  0  0
  192.3020  175.7580  146.9230 C   0  0  0  0  0  2  0  0  0  0  0  0
  196.5810  174.5080  140.9320 C   0  0  0  0  0  0  0  0  0  0  0  0
  196.4680  173.8260  142.0730 C   0  0  0  0  0  2  0  0  0  0  0  0
  191.8320  176.7110  144.6340 C   0  0  0  0  0  0  0  0  0  0  0  0
  196.8950  173.7840  139.6740 C   0  0  0  0  0  1  0  0  0  0  0  0
  195.8260  175.9850  143.3310 C   0  0  0  0  0  0  0  0  0  0  0  0
  192.2560  177.0330  143.3850 N   0  0  0  0  0  0  0  0  0  0  0  0
  196.1160  176.6580  142.0080 C   0  0  0  0  0  3  0  0  0  0  0  0
  188.8080  177.0350  146.8760 C   0  0  0  0  0  2  0  0  0  0  0  0
  187.6280  176.0650  146.8890 C   0  0  0  0  0  2  0  0  0  0  0  0
  186.4080  176.7670  147.4470 C   0  0  0  0  0  2  0  0  0  0  0  0
  186.7500  178.5400  147.6350 S   0  0  0  0  0  0  0  0  0  0  0  0
  185.1390  179.0310  146.9520 C   0  0  0  0  0  2  0  0  0  0  0  0
  185.9310  178.2890  141.0450 C   0  0  0  0  0  3  0  0  0  0  0  0
  183.7080  178.2880  142.1970 C   0  0  0  0  0  2  0  0  0  0  0  0
  184.4770  178.7520  143.3470 N   0  0  0  0  0  0  0  0  0  0  0  0
  186.6280  178.4550  142.3410 C   0  0  0  0  0  3  0  0  0  0  0  0
  185.1580  178.9160  145.4690 C   0  0  0  0  0  0  0  0  0  0  0  0
  186.3280  178.8060  144.7180 O   0  0  0  0  0  0  0  0  0  0  0  0
  184.5900  178.2360  140.9680 C   0  0  0  0  0  3  0  0  0  0  0  0
  184.0640  178.8630  144.7020 C   0  0  0  0  0  3  0  0  0  0  0  0
  185.8840  178.6730  143.4170 C   0  0  0  0  0  0  0  0  0  0  0  0
  189.4180  176.8100  143.9870 C   0  0  0  0  0  2  0  0  0  0  0  0
  189.3610  175.0200  143.6800 S   0  0  0  0  0  0  0  0  0  0  0  0
  189.0510  175.2340  141.9010 C   0  0  0  0  0  2  0  0  0  0  0  0
  189.6710  174.1590  141.1380 N   0  0  0  0  0  2  0  0  0  0  0  0
  189.0110  172.9220  140.8560 C   0  0  0  0  0  0  0  0  0  0  0  0
  187.8550  172.6940  141.3000 O   0  0  0  0  0  0  0  0  0  0  0  0
  189.6940  171.9010  140.0140 C   0  0  0  0  0  2  0  0  0  0  0  0
  190.4130  170.9660  142.2080 O   0  0  0  0  0  1  0  0  0  0  0  0
  191.5890  170.4840  140.3000 O   0  0  0  0  0  0  0  0  0  0  0  0
  190.6270  171.0900  140.8420 C   0  0  0  0  0  0  0  0  0  0  0  0
  1 35  1  6  0  0  0
  1  2  1  0  0  0  0
  2 21  1  0  0  0  0
  2 10  1  0  0  0  0
  3 13  1  0  0  0  0
  4  3  1  0  0  0  0
  4  8  1  0  0  0  0
  5 19  2  0  0  0  0
  5  9  1  0  0  0  0
  6 14  2  0  0  0  0
  6 20  1  0  0  0  0
  7 12  1  0  0  0  0
  9  4  2  0  0  0  0
 11  7  2  0  0  0  0
 12  8  2  0  0  0  0
 13 10  1  0  0  0  0
 14 15  1  0  0  0  0
 15 11  1  0  0  0  0
 16  1  1  0  0  0  0
 16  3  2  0  0  0  0
 17 14  1  0  0  0  0
 18 11  1  0  0  0  0
 18  9  1  0  0  0  0
 19 16  1  0  0  0  0
 20 18  2  0  0  0  0
 21 22  1  0  0  0  0
 22 23  1  0  0  0  0
 23 24  1  0  0  0  0
 25 24  1  0  0  0  0
 26 29  1  0  0  0  0
 27 28  1  0  0  0  0
 28 34  1  0  0  0  0
 28 33  1  0  0  0  0
 29 34  2  0  0  0  0
 30 25  1  0  0  0  0
 31 30  1  0  0  0  0
 32 26  2  0  0  0  0
 32 27  1  0  0  0  0
 33 30  2  0  0  0  0
 34 31  1  0  0  0  0
 36 35  1  0  0  0  0
 37 36  1  0  0  0  0
 38 37  1  0  0  0  0
 39 38  1  0  0  0  0
 39 40  2  0  0  0  0
 41 44  1  0  0  0  0
 41 39  1  0  0  0  0
 43 44  2  0  0  0  0
 44 42  1  0  0  0  0
M  END
>  <MODEL>
5

>  <REMARK>
 VINA RESULT:      -6.5      2.779      8.610
  Name = 
  12 active torsions:
  status: ('A' for Active; 'I' for Inactive)
    1  A    between atoms: C_1  and  C_25
    2  A    between atoms: C_1  and  C_34
    3  A    between atoms: S_2  and  C_34
    4  A    between atoms: S_2  and  C_41
    5  A    between atoms: C_3  and  S_8
    6  A    between atoms: C_3  and  N_27
    7  A    between atoms: C_4  and  C_36
    8  A    between atoms: N_5  and  C_25
    9  A    between atoms: S_8  and  C_36
   10  A    between atoms: C_12  and  C_22
   11  A    between atoms: C_12  and  C_31
   12  A    between atoms: C_35  and  C_41
                            x       y       z     vdW  Elec       q    Type
                         _______ _______ _______ _____ _____    ______ ____

>  <TORSDO>
F 12

$$$$
=
 OpenBabel11042418463D

 44 49  0  0  1  0  0  0  0  0999 V2000
  189.8460  175.7590  142.0070 C   0  0  1  0  0  3  0  0  0  0  0  0
  188.9560  176.5770  142.8540 N   0  0  0  0  0  0  0  0  0  0  0  0
  191.6900  176.4960  143.5950 C   0  0  0  0  0  0  0  0  0  0  0  0
  192.9980  176.3610  144.0860 C   0  0  0  0  0  0  0  0  0  0  0  0
  193.3520  174.6000  142.5160 N   0  0  0  0  0  0  0  0  0  0  0  0
  196.6650  173.2780  143.4580 C   0  0  0  0  0  3  0  0  0  0  0  0
  194.9430  175.7420  146.2950 N   0  0  0  0  0  0  0  0  0  0  0  0
  193.4520  177.2520  145.1200 N   0  0  0  0  0  0  0  0  0  0  0  0
  193.8420  175.4050  143.4980 C   0  0  0  0  0  0  0  0  0  0  0  0
  189.6200  177.8240  143.2320 C   0  0  0  0  0  2  0  0  0  0  0  0
  195.3660  174.9350  145.3700 C   0  0  0  0  0  0  0  0  0  0  0  0
  194.2920  177.0060  146.0870 C   0  0  0  0  0  3  0  0  0  0  0  0
  190.7600  177.5170  144.1890 C   0  0  0  0  0  2  0  0  0  0  0  0
  196.5670  172.8710  144.8690 C   0  0  0  0  0  0  0  0  0  0  0  0
  195.9770  173.6580  145.7700 C   0  0  0  0  0  3  0  0  0  0  0  0
  191.2330  175.6130  142.6010 C   0  0  0  0  0  0  0  0  0  0  0  0
  197.1740  171.5880  145.3020 C   0  0  0  0  0  1  0  0  0  0  0  0
  195.2790  175.3070  143.9130 C   0  0  1  0  0  3  0  0  0  0  0  0
  192.0960  174.7000  142.0840 N   0  0  0  0  0  0  0  0  0  0  0  0
  196.0920  174.4020  143.0160 C   0  0  0  0  0  3  0  0  0  0  0  0
  187.7150  176.9120  142.1380 C   0  0  0  0  0  2  0  0  0  0  0  0
  187.2440  178.3440  142.3850 C   0  0  0  0  0  2  0  0  0  0  0  0
  185.8420  178.3190  142.9560 C   0  0  0  0  0  2  0  0  0  0  0  0
  185.8630  178.9290  144.6660 S   0  0  0  0  0  0  0  0  0  0  0  0
  185.7720  177.2560  145.3730 C   0  0  0  0  0  2  0  0  0  0  0  0
  191.0190  175.2940  147.5390 C   0  0  0  0  0  3  0  0  0  0  0  0
  190.1870  177.6480  147.7310 C   0  0  0  0  0  2  0  0  0  0  0  0
  188.9370  177.0830  147.2350 N   0  0  0  0  0  0  0  0  0  0  0  0
  189.8210  174.9100  146.7600 C   0  0  0  0  0  3  0  0  0  0  0  0
  187.0590  176.9130  146.0360 C   0  0  0  0  0  0  0  0  0  0  0  0
  187.6780  175.6680  145.9230 O   0  0  0  0  0  0  0  0  0  0  0  0
  191.1830  176.5430  148.0100 C   0  0  0  0  0  3  0  0  0  0  0  0
  187.7790  177.7640  146.7740 C   0  0  0  0  0  3  0  0  0  0  0  0
  188.8490  175.8060  146.6410 C   0  0  0  0  0  0  0  0  0  0  0  0
  189.2200  174.3900  141.7610 C   0  0  0  0  0  2  0  0  0  0  0  0
  189.1320  173.4720  143.3270 S   0  0  0  0  0  0  0  0  0  0  0  0
  189.7350  171.9310  142.5720 C   0  0  0  0  0  2  0  0  0  0  0  0
  189.5320  171.9500  141.1300 N   0  0  0  0  0  2  0  0  0  0  0  0
  190.4870  171.4300  140.2010 C   0  0  0  0  0  0  0  0  0  0  0  0
  191.5830  170.9570  140.6020 O   0  0  0  0  0  0  0  0  0  0  0  0
  190.1710  171.4320  138.7450 C   0  0  0  0  0  2  0  0  0  0  0  0
  190.3880  173.7970  137.9940 O   0  0  0  0  0  0  0  0  0  0  0  0
  188.3170  172.8620  138.3010 O   0  0  0  0  0  1  0  0  0  0  0  0
  189.5680  172.7340  138.3500 C   0  0  0  0  0  0  0  0  0  0  0  0
  1 35  1  1  0  0  0
  1 16  1  0  0  0  0
  1  2  1  0  0  0  0
  2 10  1  0  0  0  0
  3  4  1  0  0  0  0
  3 13  1  0  0  0  0
  4  8  1  0  0  0  0
  5  9  1  0  0  0  0
  6 14  1  0  0  0  0
  8 12  2  0  0  0  0
  9 18  1  0  0  0  0
  9  4  2  0  0  0  0
 10 13  1  0  0  0  0
 11 15  1  0  0  0  0
 11  7  2  0  0  0  0
 12  7  1  0  0  0  0
 14 17  1  0  0  0  0
 14 15  2  0  0  0  0
 16  3  2  0  0  0  0
 18 20  1  6  0  0  0
 18 11  1  0  0  0  0
 19  5  2  0  0  0  0
 19 16  1  0  0  0  0
 20  6  2  0  0  0  0
 21 22  1  0  0  0  0
 21  2  1  0  0  0  0
 22 23  1  0  0  0  0
 23 24  1  0  0  0  0
 24 25  1  0  0  0  0
 25 30  1  0  0  0  0
 26 32  2  0  0  0  0
 27 32  1  0  0  0  0
 28 27  1  0  0  0  0
 29 26  1  0  0  0  0
 30 33  2  0  0  0  0
 31 30  1  0  0  0  0
 31 34  1  0  0  0  0
 33 28  1  0  0  0  0
 34 29  2  0  0  0  0
 34 28  1  0  0  0  0
 35 36  1  0  0  0  0
 37 36  1  0  0  0  0
 38 37  1  0  0  0  0
 39 40  2  0  0  0  0
 39 38  1  0  0  0  0
 41 39  1  0  0  0  0
 42 44  2  0  0  0  0
 43 44  1  0  0  0  0
 44 41  1  0  0  0  0
M  END
>  <MODEL>
6

>  <REMARK>
 VINA RESULT:      -6.5      2.855      8.217
  Name = 
  12 active torsions:
  status: ('A' for Active; 'I' for Inactive)
    1  A    between atoms: C_1  and  C_25
    2  A    between atoms: C_1  and  C_34
    3  A    between atoms: S_2  and  C_34
    4  A    between atoms: S_2  and  C_41
    5  A    between atoms: C_3  and  S_8
    6  A    between atoms: C_3  and  N_27
    7  A    between atoms: C_4  and  C_36
    8  A    between atoms: N_5  and  C_25
    9  A    between atoms: S_8  and  C_36
   10  A    between atoms: C_12  and  C_22
   11  A    between atoms: C_12  and  C_31
   12  A    between atoms: C_35  and  C_41
                            x       y       z     vdW  Elec       q    Type
                         _______ _______ _______ _____ _____    ______ ____

>  <TORSDO>
F 12

$$$$
=
 OpenBabel11042418463D

 44 49  0  0  1  0  0  0  0  0999 V2000
  189.5580  173.1090  141.3230 C   0  0  1  0  0  3  0  0  0  0  0  0
  189.2050  172.6770  139.9550 N   0  0  0  0  0  0  0  0  0  0  0  0
  188.1740  175.1780  140.8020 C   0  0  0  0  0  0  0  0  0  0  0  0
  187.5190  176.3420  141.2300 C   0  0  0  0  0  0  0  0  0  0  0  0
  188.2300  175.8620  143.4570 N   0  0  0  0  0  0  0  0  0  0  0  0
  186.4680  178.3960  145.4750 C   0  0  0  0  0  3  0  0  0  0  0  0
  185.0300  177.9840  141.6220 N   0  0  0  0  0  0  0  0  0  0  0  0
  186.8650  177.1760  140.2570 N   0  0  0  0  0  0  0  0  0  0  0  0
  187.5880  176.6900  142.5890 C   0  0  0  0  0  0  0  0  0  0  0  0
  189.2650  173.8110  139.0330 C   0  0  0  0  0  2  0  0  0  0  0  0
  185.5140  177.9910  142.8270 C   0  0  0  0  0  0  0  0  0  0  0  0
  185.7870  177.8940  140.4030 C   0  0  0  0  0  3  0  0  0  0  0  0
  188.1360  174.7780  139.3530 C   0  0  0  0  0  2  0  0  0  0  0  0
  185.0310  178.2180  145.2080 C   0  0  0  0  0  0  0  0  0  0  0  0
  184.5810  178.0510  143.9640 C   0  0  0  0  0  3  0  0  0  0  0  0
  188.7960  174.3470  141.7510 C   0  0  2  0  0  3  0  0  0  0  0  0
  184.0660  178.2740  146.3350 C   0  0  0  0  0  1  0  0  0  0  0  0
  187.0000  177.9830  143.0690 C   0  0  0  0  0  0  0  0  0  0  0  0
  188.8130  174.7340  143.0530 N   0  0  0  0  0  0  0  0  0  0  0  0
  187.3740  178.3070  144.4980 C   0  0  0  0  0  3  0  0  0  0  0  0
  190.1370  171.6430  139.4780 C   0  0  0  0  0  2  0  0  0  0  0  0
  191.4150  172.2180  138.8690 C   0  0  0  0  0  2  0  0  0  0  0  0
  192.6040  171.7890  139.7030 C   0  0  0  0  0  2  0  0  0  0  0  0
  193.8370  173.1220  139.7470 S   0  0  0  0  0  0  0  0  0  0  0  0
  193.1440  173.8540  141.2610 C   0  0  0  0  0  2  0  0  0  0  0  0
  196.6560  173.7810  146.1320 C   0  0  0  0  0  3  0  0  0  0  0  0
  196.0810  171.7690  144.7590 C   0  0  0  0  0  2  0  0  0  0  0  0
  195.5290  172.7510  143.8310 N   0  0  0  0  0  0  0  0  0  0  0  0
  195.7980  174.6360  145.2810 C   0  0  0  0  0  3  0  0  0  0  0  0
  194.0950  173.6800  142.3920 C   0  0  0  0  0  0  0  0  0  0  0  0
  194.4210  174.6970  143.2900 O   0  0  0  0  0  0  0  0  0  0  0  0
  196.8100  172.4690  145.8850 C   0  0  0  0  0  3  0  0  0  0  0  0
  194.7060  172.5300  142.6950 C   0  0  0  0  0  3  0  0  0  0  0  0
  195.2790  174.0930  144.1870 C   0  0  0  0  0  0  0  0  0  0  0  0
  189.3270  171.9680  142.3070 C   0  0  0  0  0  2  0  0  0  0  0  0
  190.9110  171.4730  143.0460 S   0  0  0  0  0  0  0  0  0  0  0  0
  190.5290  172.2630  144.6390 C   0  0  0  0  0  2  0  0  0  0  0  0
  191.4480  173.3620  144.9030 N   0  0  0  0  0  2  0  0  0  0  0  0
  191.1210  174.4670  145.7480 C   0  0  0  0  0  0  0  0  0  0  0  0
  189.9830  174.5550  146.2810 O   0  0  0  0  0  0  0  0  0  0  0  0
  192.1430  175.5160  146.0140 C   0  0  0  0  0  2  0  0  0  0  0  0
  192.8120  177.2620  144.3670 O   0  0  0  0  0  0  0  0  0  0  0  0
  190.7110  177.2770  145.2850 O   0  0  0  0  0  1  0  0  0  0  0  0
  191.8470  176.7390  145.2180 C   0  0  0  0  0  0  0  0  0  0  0  0
  1 16  1  0  0  0  0
  1 35  1  1  0  0  0
  2  1  1  0  0  0  0
  3  4  2  0  0  0  0
  4  9  1  0  0  0  0
  7 11  2  0  0  0  0
  8 12  2  0  0  0  0
  8  4  1  0  0  0  0
  9 18  2  0  0  0  0
  9  5  1  0  0  0  0
 10 13  1  0  0  0  0
 10  2  1  0  0  0  0
 11 18  1  0  0  0  0
 11 15  1  0  0  0  0
 12  7  1  0  0  0  0
 13  3  1  0  0  0  0
 14  6  1  0  0  0  0
 14 17  1  0  0  0  0
 15 14  2  0  0  0  0
 16  3  1  6  0  0  0
 16 19  1  0  0  0  0
 18 20  1  0  0  0  0
 19  5  2  0  0  0  0
 20  6  2  0  0  0  0
 21  2  1  0  0  0  0
 22 21  1  0  0  0  0
 22 23  1  0  0  0  0
 23 24  1  0  0  0  0
 24 25  1  0  0  0  0
 25 30  1  0  0  0  0
 27 32  1  0  0  0  0
 28 34  1  0  0  0  0
 28 27  1  0  0  0  0
 29 26  1  0  0  0  0
 30 33  2  0  0  0  0
 30 31  1  0  0  0  0
 31 34  1  0  0  0  0
 32 26  2  0  0  0  0
 33 28  1  0  0  0  0
 34 29  2  0  0  0  0
 35 36  1  0  0  0  0
 36 37  1  0  0  0  0
 37 38  1  0  0  0  0
 38 39  1  0  0  0  0
 39 41  1  0  0  0  0
 39 40  2  0  0  0  0
 42 44  2  0  0  0  0
 44 43  1  0  0  0  0
 44 41  1  0  0  0  0
M  END
>  <MODEL>
7

>  <REMARK>
 VINA RESULT:      -6.5      2.454      4.523
  Name = 
  12 active torsions:
  status: ('A' for Active; 'I' for Inactive)
    1  A    between atoms: C_1  and  C_25
    2  A    between atoms: C_1  and  C_34
    3  A    between atoms: S_2  and  C_34
    4  A    between atoms: S_2  and  C_41
    5  A    between atoms: C_3  and  S_8
    6  A    between atoms: C_3  and  N_27
    7  A    between atoms: C_4  and  C_36
    8  A    between atoms: N_5  and  C_25
    9  A    between atoms: S_8  and  C_36
   10  A    between atoms: C_12  and  C_22
   11  A    between atoms: C_12  and  C_31
   12  A    between atoms: C_35  and  C_41
                            x       y       z     vdW  Elec       q    Type
                         _______ _______ _______ _____ _____    ______ ____

>  <TORSDO>
F 12

$$$$
=
 OpenBabel11042418463D

 44 49  0  0  1  0  0  0  0  0999 V2000
  194.4790  175.5910  142.7720 C   0  0  1  0  0  3  0  0  0  0  0  0
  195.3330  176.3030  143.7440 N   0  0  0  0  0  0  0  0  0  0  0  0
  192.5610  176.1940  144.3280 C   0  0  0  0  0  0  0  0  0  0  0  0
  191.1850  176.2980  144.5780 C   0  0  0  0  0  0  0  0  0  0  0  0
  190.7750  175.4430  142.3890 N   0  0  0  0  0  0  0  0  0  0  0  0
  187.1220  175.7930  142.0120 C   0  0  0  0  0  3  0  0  0  0  0  0
  188.7200  177.9130  145.1790 N   0  0  0  0  0  0  0  0  0  0  0  0
  190.7400  176.7590  145.8660 N   0  0  0  0  0  0  0  0  0  0  0  0
  190.2870  175.8780  143.5820 C   0  0  0  0  0  0  0  0  0  0  0  0
  194.9140  175.9930  145.1100 C   0  0  0  0  0  2  0  0  0  0  0  0
  188.3290  177.2640  144.1260 C   0  0  0  0  0  0  0  0  0  0  0  0
  189.6780  177.4600  146.1510 C   0  0  0  0  0  3  0  0  0  0  0  0
  193.5540  176.6200  145.3740 C   0  0  0  0  0  2  0  0  0  0  0  0
  186.8160  177.2180  142.2130 C   0  0  0  0  0  0  0  0  0  0  0  0
  187.3640  177.9030  143.2170 C   0  0  0  0  0  2  0  0  0  0  0  0
  193.0020  175.7660  143.0640 C   0  0  0  0  0  0  0  0  0  0  0  0
  185.8460  177.8900  141.3110 C   0  0  0  0  0  1  0  0  0  0  0  0
  188.8130  175.8640  143.8510 C   0  0  0  0  0  0  0  0  0  0  0  0
  192.0820  175.3880  142.1390 N   0  0  0  0  0  0  0  0  0  0  0  0
  188.0230  175.1610  142.7700 C   0  0  0  0  0  3  0  0  0  0  0  0
  196.7410  175.9080  143.5910 C   0  0  0  0  0  2  0  0  0  0  0  0
  197.0710  174.5790  144.2690 C   0  0  0  0  0  2  0  0  0  0  0  0
  197.6060  173.6090  143.2380 C   0  0  0  0  0  2  0  0  0  0  0  0
  196.7790  172.0020  143.4160 S   0  0  0  0  0  0  0  0  0  0  0  0
  195.6410  172.6130  144.6960 C   0  0  0  0  0  2  0  0  0  0  0  0
  189.7570  172.1370  143.5910 C   0  0  0  0  0  3  0  0  0  0  0  0
  191.5600  171.7920  141.8890 C   0  0  0  0  0  2  0  0  0  0  0  0
  192.4480  171.8430  143.0460 N   0  0  0  0  0  0  0  0  0  0  0  0
  190.7630  172.4810  144.6210 C   0  0  0  0  0  3  0  0  0  0  0  0
  194.2320  172.3770  144.2800 C   0  0  0  0  0  0  0  0  0  0  0  0
  193.1320  172.6280  145.1010 O   0  0  0  0  0  0  0  0  0  0  0  0
  190.1160  171.7970  142.3420 C   0  0  0  0  0  3  0  0  0  0  0  0
  193.8650  171.9420  143.0700 C   0  0  0  0  0  3  0  0  0  0  0  0
  192.0430  172.3240  144.3090 C   0  0  0  0  0  0  0  0  0  0  0  0
  194.8050  176.0500  141.3550 C   0  0  0  0  0  2  0  0  0  0  0  0
  195.4010  174.6380  140.3790 S   0  0  0  0  0  0  0  0  0  0  0  0
  194.1460  174.8750  139.0850 C   0  0  0  0  0  2  0  0  0  0  0  0
  193.1360  173.8280  139.1500 N   0  0  0  0  0  2  0  0  0  0  0  0
  192.0710  173.7120  138.2030 C   0  0  0  0  0  0  0  0  0  0  0  0
  191.9410  174.5530  137.2740 O   0  0  0  0  0  0  0  0  0  0  0  0
  191.1170  172.5730  138.3060 C   0  0  0  0  0  2  0  0  0  0  0  0
  189.3960  173.8810  139.5430 O   0  0  0  0  0  1  0  0  0  0  0  0
  188.8560  172.8100  137.5890 O   0  0  0  0  0  0  0  0  0  0  0  0
  189.7250  173.0780  138.4600 C   0  0  0  0  0  0  0  0  0  0  0  0
  1 35  1  6  0  0  0
  1 16  1  0  0  0  0
  1  2  1  0  0  0  0
  2 10  1  0  0  0  0
  3  4  1  0  0  0  0
  3 13  1  0  0  0  0
  4  8  1  0  0  0  0
  5  9  1  0  0  0  0
  6 14  2  0  0  0  0
  6 20  1  0  0  0  0
  7 12  1  0  0  0  0
  8 12  2  0  0  0  0
  9 18  1  0  0  0  0
  9  4  2  0  0  0  0
 10 13  1  0  0  0  0
 11  7  2  0  0  0  0
 14 15  1  0  0  0  0
 15 11  1  0  0  0  0
 16  3  2  0  0  0  0
 17 14  1  0  0  0  0
 18 11  1  0  0  0  0
 19  5  2  0  0  0  0
 19 16  1  0  0  0  0
 20 18  2  0  0  0  0
 21  2  1  0  0  0  0
 21 22  1  0  0  0  0
 23 24  1  0  0  0  0
 23 22  1  0  0  0  0
 24 25  1  0  0  0  0
 26 29  1  0  0  0  0
 27 32  1  0  0  0  0
 27 28  1  0  0  0  0
 28 33  1  0  0  0  0
 28 34  1  0  0  0  0
 30 25  1  0  0  0  0
 30 31  1  0  0  0  0
 32 26  2  0  0  0  0
 33 30  2  0  0  0  0
 34 29  2  0  0  0  0
 34 31  1  0  0  0  0
 36 35  1  0  0  0  0
 37 38  1  0  0  0  0
 37 36  1  0  0  0  0
 39 41  1  0  0  0  0
 39 38  1  0  0  0  0
 40 39  2  0  0  0  0
 41 44  1  0  0  0  0
 43 44  2  0  0  0  0
 44 42  1  0  0  0  0
M  END
>  <MODEL>
8

>  <REMARK>
 VINA RESULT:      -6.3      2.837      4.849
  Name = 
  12 active torsions:
  status: ('A' for Active; 'I' for Inactive)
    1  A    between atoms: C_1  and  C_25
    2  A    between atoms: C_1  and  C_34
    3  A    between atoms: S_2  and  C_34
    4  A    between atoms: S_2  and  C_41
    5  A    between atoms: C_3  and  S_8
    6  A    between atoms: C_3  and  N_27
    7  A    between atoms: C_4  and  C_36
    8  A    between atoms: N_5  and  C_25
    9  A    between atoms: S_8  and  C_36
   10  A    between atoms: C_12  and  C_22
   11  A    between atoms: C_12  and  C_31
   12  A    between atoms: C_35  and  C_41
                            x       y       z     vdW  Elec       q    Type
                         _______ _______ _______ _____ _____    ______ ____

>  <TORSDO>
F 12

$$$$
=
 OpenBabel11042418463D

 44 49  0  0  1  0  0  0  0  0999 V2000
  190.1200  174.8190  143.1610 C   0  0  1  0  0  3  0  0  0  0  0  0
  189.4370  174.2090  144.3200 N   0  0  0  0  0  0  0  0  0  0  0  0
  190.5770  172.4250  142.4350 C   0  0  0  0  0  0  0  0  0  0  0  0
  190.9890  171.5100  141.4550 C   0  0  0  0  0  0  0  0  0  0  0  0
  191.3540  173.3410  139.9700 N   0  0  0  0  0  0  0  0  0  0  0  0
  192.1200  171.6910  136.7610 C   0  0  0  0  0  3  0  0  0  0  0  0
  190.4600  169.1960  139.6080 N   0  0  0  0  0  0  0  0  0  0  0  0
  191.0340  170.1090  141.7800 N   0  0  0  0  0  0  0  0  0  0  0  0
  191.4130  172.0030  140.2100 C   0  0  0  0  0  0  0  0  0  0  0  0
  190.1970  173.0590  144.8090 C   0  0  0  0  0  2  0  0  0  0  0  0
  190.9160  170.0740  138.7670 C   0  0  0  0  0  0  0  0  0  0  0  0
  190.8070  169.0900  140.9980 C   0  0  0  0  0  3  0  0  0  0  0  0
  190.1290  171.9380  143.7850 C   0  0  0  0  0  2  0  0  0  0  0  0
  190.9670  170.8300  136.4480 C   0  0  0  0  0  0  0  0  0  0  0  0
  190.4170  170.0550  137.3830 C   0  0  0  0  0  3  0  0  0  0  0  0
  190.5090  173.7930  142.1160 C   0  0  2  0  0  3  0  0  0  0  0  0
  190.4420  170.7910  135.0600 C   0  0  0  0  0  1  0  0  0  0  0  0
  191.9690  171.0700  139.1770 C   0  0  0  0  0  0  0  0  0  0  0  0
  190.9200  174.2030  140.8880 N   0  0  0  0  0  0  0  0  0  0  0  0
  192.5950  171.7920  138.0050 C   0  0  0  0  0  3  0  0  0  0  0  0
  189.3050  175.1780  145.4180 C   0  0  0  0  0  2  0  0  0  0  0  0
  189.4230  174.5410  146.8020 C   0  0  0  0  0  2  0  0  0  0  0  0
  190.4040  175.3340  147.6380 C   0  0  0  0  0  2  0  0  0  0  0  0
  190.9770  176.7830  146.7050 S   0  0  0  0  0  0  0  0  0  0  0  0
  192.7090  176.2300  146.7060 C   0  0  0  0  0  2  0  0  0  0  0  0
  194.4230  174.9520  141.0940 C   0  0  0  0  0  3  0  0  0  0  0  0
  194.4150  173.3170  142.9900 C   0  0  0  0  0  2  0  0  0  0  0  0
  193.6860  174.3690  143.6910 N   0  0  0  0  0  0  0  0  0  0  0  0
  193.9670  176.0340  141.9950 C   0  0  0  0  0  3  0  0  0  0  0  0
  193.0860  175.7320  145.3560 C   0  0  0  0  0  0  0  0  0  0  0  0
  193.2240  176.5580  144.2390 O   0  0  0  0  0  0  0  0  0  0  0  0
  194.6080  173.6970  141.5380 C   0  0  0  0  0  3  0  0  0  0  0  0
  193.3710  174.4580  145.0740 C   0  0  0  0  0  3  0  0  0  0  0  0
  193.6270  175.7030  143.2340 C   0  0  0  0  0  0  0  0  0  0  0  0
  189.2410  175.9030  142.5480 C   0  0  0  0  0  2  0  0  0  0  0  0
  187.6640  175.1770  142.0130 S   0  0  0  0  0  0  0  0  0  0  0  0
  186.7110  176.6560  142.4740 C   0  0  0  0  0  2  0  0  0  0  0  0
  185.9410  176.4150  143.6870 N   0  0  0  0  0  2  0  0  0  0  0  0
  186.1820  177.1080  144.9140 C   0  0  0  0  0  0  0  0  0  0  0  0
  187.1160  177.9480  145.0070 O   0  0  0  0  0  0  0  0  0  0  0  0
  185.3050  176.8470  146.0890 C   0  0  0  0  0  2  0  0  0  0  0  0
  184.9070  178.6660  147.7440 O   0  0  0  0  0  1  0  0  0  0  0  0
  183.8070  178.6660  145.7320 O   0  0  0  0  0  0  0  0  0  0  0  0
  184.6190  178.0990  146.5090 C   0  0  0  0  0  0  0  0  0  0  0  0
  1 35  1  6  0  0  0
  1  2  1  0  0  0  0
  2 10  1  0  0  0  0
  2 21  1  0  0  0  0
  3 13  1  0  0  0  0
  4  8  1  0  0  0  0
  4  3  2  0  0  0  0
  5  9  1  0  0  0  0
  5 19  2  0  0  0  0
  6 20  2  0  0  0  0
  7 12  1  0  0  0  0
  9  4  1  0  0  0  0
 11 18  1  0  0  0  0
 11  7  2  0  0  0  0
 12  8  2  0  0  0  0
 13 10  1  0  0  0  0
 14  6  1  0  0  0  0
 14 15  2  0  0  0  0
 15 11  1  0  0  0  0
 16 19  1  1  0  0  0
 16  3  1  0  0  0  0
 16  1  1  0  0  0  0
 17 14  1  0  0  0  0
 18  9  2  0  0  0  0
 20 18  1  0  0  0  0
 21 22  1  0  0  0  0
 22 23  1  0  0  0  0
 24 25  1  0  0  0  0
 24 23  1  0  0  0  0
 26 32  2  0  0  0  0
 26 29  1  0  0  0  0
 27 28  1  0  0  0  0
 28 33  1  0  0  0  0
 29 34  2  0  0  0  0
 30 25  1  0  0  0  0
 31 30  1  0  0  0  0
 32 27  1  0  0  0  0
 33 30  2  0  0  0  0
 34 28  1  0  0  0  0
 34 31  1  0  0  0  0
 36 37  1  0  0  0  0
 36 35  1  0  0  0  0
 37 38  1  0  0  0  0
 38 39  1  0  0  0  0
 39 40  2  0  0  0  0
 39 41  1  0  0  0  0
 41 44  1  0  0  0  0
 43 44  2  0  0  0  0
 44 42  1  0  0  0  0
M  END
>  <MODEL>
9

>  <REMARK>
 VINA RESULT:      -6.3      3.033      6.517
  Name = 
  12 active torsions:
  status: ('A' for Active; 'I' for Inactive)
    1  A    between atoms: C_1  and  C_25
    2  A    between atoms: C_1  and  C_34
    3  A    between atoms: S_2  and  C_34
    4  A    between atoms: S_2  and  C_41
    5  A    between atoms: C_3  and  S_8
    6  A    between atoms: C_3  and  N_27
    7  A    between atoms: C_4  and  C_36
    8  A    between atoms: N_5  and  C_25
    9  A    between atoms: S_8  and  C_36
   10  A    between atoms: C_12  and  C_22
   11  A    between atoms: C_12  and  C_31
   12  A    between atoms: C_35  and  C_41
                            x       y       z     vdW  Elec       q    Type
                         _______ _______ _______ _____ _____    ______ ____

>  <TORSDO>
F 12

$$$$
