=
 OpenBabel11042417143D

 49 52  0  0  1  0  0  0  0  0999 V2000
  193.8050  176.2070  143.7270 C   0  0  2  0  0  3  0  0  0  0  0  0
  192.7370  176.0760  144.8030 C   0  0  0  0  0  2  0  0  0  0  0  0
  191.8250  175.2760  142.7180 C   0  0  2  0  0  3  0  0  0  0  0  0
  193.3540  175.2990  142.5740 C   0  0  2  0  0  3  0  0  0  0  0  0
  191.5510  175.6260  144.1040 N   0  0  0  0  0  0  0  0  0  0  0  0
  188.1140  177.1220  144.2660 C   0  0  0  0  0  0  0  0  0  0  0  0
  189.8890  177.3810  142.5830 N   0  0  0  0  0  1  0  0  0  0  0  0
  189.7760  175.4310  145.7660 C   0  0  0  0  0  3  0  0  0  0  0  0
  187.6440  176.5550  145.4670 C   0  0  0  0  0  0  0  0  0  0  0  0
  190.2450  175.9780  144.5680 C   0  0  0  0  0  0  0  0  0  0  0  0
  188.4870  175.7160  146.2110 C   0  0  0  0  0  3  0  0  0  0  0  0
  189.4130  176.8270  143.8120 C   0  0  0  0  0  0  0  0  0  0  0  0
  187.2550  177.9960  143.4970 C   0  0  0  0  0  0  0  0  0  0  0  0
  186.5630  178.6960  142.8830 N   0  0  0  0  0  0  0  0  0  0  0  0
  186.3170  176.8410  145.9240 N   0  0  0  0  0  2  0  0  0  0  0  0
  186.0040  177.3260  147.2630 C   0  0  0  0  0  2  0  0  0  0  0  0
  186.1050  179.5590  148.0300 F   0  0  0  0  0  0  0  0  0  0  0  0
  184.0740  178.6780  147.6140 F   0  0  0  0  0  0  0  0  0  0  0  0
  185.3920  178.7160  147.2010 C   0  0  0  0  0  0  0  0  0  0  0  0
  185.4490  179.1990  145.9080 F   0  0  0  0  0  0  0  0  0  0  0  0
  190.4690  173.2260  143.4230 C   0  0  0  0  0  2  0  0  0  0  0  0
  188.9680  173.2190  141.5270 C   0  0  2  0  0  3  0  0  0  0  0  0
  190.1000  174.1910  141.2300 C   0  0  0  0  0  2  0  0  0  0  0  0
  189.3700  172.4300  142.7590 C   0  0  0  0  0  2  0  0  0  0  0  0
  191.1610  173.9560  142.2870 C   0  0  1  0  0  3  0  0  0  0  0  0
  189.6550  172.2210  139.5360 N   0  0  0  0  0  0  0  0  0  0  0  0
  188.7860  172.3170  140.4220 N   0  0  0  0  0  0  0  0  0  0  0  0
  189.4790  171.3140  138.4280 C   0  0  0  0  0  2  0  0  0  0  0  0
  190.4560  173.2260  137.1280 C   0  0  0  0  0  3  0  0  0  0  0  0
  189.4770  171.3710  135.9330 C   0  0  0  0  0  3  0  0  0  0  0  0
  189.8200  171.9830  137.1380 C   0  0  0  0  0  0  0  0  0  0  0  0
  190.7470  173.8490  135.9050 C   0  0  0  0  0  0  0  0  0  0  0  0
  189.7810  172.0120  134.7330 C   0  0  0  0  0  3  0  0  0  0  0  0
  190.4010  173.2220  134.7440 N   0  0  0  0  0  0  0  0  0  0  0  0
  191.3960  175.1320  135.8670 N   0  0  0  0  0  0  0  0  0  0  0  0
  190.8720  176.1970  135.0130 C   0  0  0  0  0  1  0  0  0  0  0  0
  193.6640  175.9270  136.1890 C   0  0  0  0  0  2  0  0  0  0  0  0
  192.5640  175.3540  136.6720 C   0  0  0  0  0  3  0  0  0  0  0  0
  195.2240  175.9180  144.2550 C   0  0  2  0  0  3  0  0  0  0  0  0
  195.2470  175.5160  145.7300 C   0  0  0  0  0  1  0  0  0  0  0  0
  196.1520  176.9460  143.9630 O   0  0  0  0  0  0  0  0  0  0  0  0
  196.9950  176.5270  142.9200 C   0  0  0  0  0  2  0  0  0  0  0  0
  196.4460  176.9100  141.6950 O   0  0  0  0  0  1  0  0  0  0  0  0
  193.9010  174.0130  142.7180 O   0  0  0  0  0  0  0  0  0  0  0  0
  195.9290  173.2980  141.9400 O   0  0  0  0  0  1  0  0  0  0  0  0
  194.6820  173.8110  141.5740 C   0  0  1  0  0  3  0  0  0  0  0  0
  193.9950  172.8570  140.6550 C   0  0  0  0  0  0  0  0  0  0  0  0
  193.6810  173.2510  139.3600 O   0  0  0  0  0  0  0  0  0  0  0  0
  193.6800  171.7040  141.0490 O   0  0  0  0  0  1  0  0  0  0  0  0
  1 39  1  1  0  0  0
  1  2  1  0  0  0  0
  3  5  1  1  0  0  0
  4  3  1  0  0  0  0
  4 44  1  1  0  0  0
  4  1  1  0  0  0  0
  5 10  1  0  0  0  0
  5  2  1  0  0  0  0
  6  9  1  0  0  0  0
  7 12  1  0  0  0  0
  8 11  1  0  0  0  0
  9 15  1  0  0  0  0
  9 11  2  0  0  0  0
 10  8  2  0  0  0  0
 12  6  2  0  0  0  0
 12 10  1  0  0  0  0
 13  6  1  0  0  0  0
 14 13  3  0  0  0  0
 15 16  1  0  0  0  0
 19 16  1  0  0  0  0
 19 18  1  0  0  0  0
 19 17  1  0  0  0  0
 20 19  1  0  0  0  0
 22 27  1  6  0  0  0
 22 24  1  0  0  0  0
 23 22  1  0  0  0  0
 24 21  1  0  0  0  0
 25 23  1  6  0  0  0
 25  3  1  0  0  0  0
 25 21  1  0  0  0  0
 26 27  2  0  0  0  0
 28 26  1  0  0  0  0
 29 31  1  0  0  0  0
 30 31  2  0  0  0  0
 31 28  1  0  0  0  0
 32 29  2  0  0  0  0
 33 34  2  0  0  0  0
 33 30  1  0  0  0  0
 34 32  1  0  0  0  0
 35 32  1  0  0  0  0
 35 38  1  0  0  0  0
 36 35  1  0  0  0  0
 37 38  2  0  0  0  0
 39 40  1  1  0  0  0
 41 39  1  0  0  0  0
 42 41  1  0  0  0  0
 43 42  1  0  0  0  0
 46 45  1  1  0  0  0
 46 44  1  0  0  0  0
 47 49  1  0  0  0  0
 47 46  1  0  0  0  0
 48 47  2  0  0  0  0
M  END
>  <MODEL>
1

>  <REMARK>
 VINA RESULT:      -6.5      0.000      0.000
  Name = 
  17 active torsions:
  status: ('A' for Active; 'I' for Inactive)
    1  A    between atoms: C_2  and  N_48
    2  A    between atoms: C_5  and  O_6
    3  A    between atoms: C_5  and  C_7
    4  A    between atoms: O_6  and  C_25
    5  A    between atoms: N_9  and  C_13
    6  A    between atoms: N_9  and  C_31
    7  A    between atoms: C_12  and  C_20
    8  A    between atoms: C_14  and  C_45
    9  A    between atoms: C_15  and  O_32
   10  A    between atoms: N_21  and  C_46
   11  A    between atoms: N_23  and  C_40
   12  A    between atoms: C_24  and  C_44
   13  A    between atoms: C_27  and  C_49
   14  A    between atoms: C_29  and  C_46
   15  A    between atoms: O_32  and  C_44
   16  A    between atoms: C_38  and  N_42
   17  A    between atoms: N_42  and  C_49
                            x       y       z     vdW  Elec       q    Type
                         _______ _______ _______ _____ _____    ______ ____

>  <TORSDO>
F 17

$$$$
=
 OpenBabel11042417143D

 49 52  0  0  1  0  0  0  0  0999 V2000
  193.4140  176.4190  144.0300 C   0  0  2  0  0  3  0  0  0  0  0  0
  192.1570  176.5650  144.8760 C   0  0  0  0  0  2  0  0  0  0  0  0
  191.5470  175.5700  142.7640 C   0  0  2  0  0  3  0  0  0  0  0  0
  193.0650  175.4050  142.9300 C   0  0  2  0  0  3  0  0  0  0  0  0
  191.0710  176.1480  144.0120 N   0  0  0  0  0  0  0  0  0  0  0  0
  187.7380  177.0820  145.4610 C   0  0  0  0  0  0  0  0  0  0  0  0
  189.5280  175.6580  146.3650 N   0  0  0  0  0  1  0  0  0  0  0  0
  189.2520  177.5200  143.1410 C   0  0  0  0  0  3  0  0  0  0  0  0
  187.2380  177.9130  144.4390 C   0  0  0  0  0  0  0  0  0  0  0  0
  189.7620  176.7060  144.1560 C   0  0  0  0  0  0  0  0  0  0  0  0
  188.0020  178.1190  143.2810 C   0  0  0  0  0  3  0  0  0  0  0  0
  189.0050  176.4840  145.3230 C   0  0  0  0  0  0  0  0  0  0  0  0
  186.9530  176.8560  146.6550 C   0  0  0  0  0  0  0  0  0  0  0  0
  186.3220  176.6710  147.6110 N   0  0  0  0  0  0  0  0  0  0  0  0
  185.9560  178.5360  144.5840 N   0  0  0  0  0  2  0  0  0  0  0  0
  185.3110  179.3220  143.5380 C   0  0  0  0  0  2  0  0  0  0  0  0
  184.8100  177.1020  142.9030 F   0  0  0  0  0  0  0  0  0  0  0  0
  184.9370  178.6600  141.2800 F   0  0  0  0  0  0  0  0  0  0  0  0
  184.5460  178.4190  142.5840 C   0  0  0  0  0  0  0  0  0  0  0  0
  183.1890  178.6510  142.7020 F   0  0  0  0  0  0  0  0  0  0  0  0
  190.0390  173.6490  143.5240 C   0  0  0  0  0  2  0  0  0  0  0  0
  188.5770  173.6650  141.5990 C   0  0  2  0  0  3  0  0  0  0  0  0
  189.7790  174.5440  141.2860 C   0  0  0  0  0  2  0  0  0  0  0  0
  188.9000  172.9030  142.8700 C   0  0  0  0  0  2  0  0  0  0  0  0
  190.8010  174.2820  142.3740 C   0  0  1  0  0  3  0  0  0  0  0  0
  189.1620  172.6450  139.5860 N   0  0  0  0  0  0  0  0  0  0  0  0
  188.3530  172.7310  140.5280 N   0  0  0  0  0  0  0  0  0  0  0  0
  188.9450  171.7070  138.5130 C   0  0  0  0  0  2  0  0  0  0  0  0
  189.0570  173.5900  136.8570 C   0  0  0  0  0  3  0  0  0  0  0  0
  190.1310  171.4940  136.3270 C   0  0  0  0  0  3  0  0  0  0  0  0
  189.3920  172.2810  137.2090 C   0  0  0  0  0  0  0  0  0  0  0  0
  189.4660  174.1030  135.6180 C   0  0  0  0  0  0  0  0  0  0  0  0
  190.5270  172.0320  135.1030 C   0  0  0  0  0  3  0  0  0  0  0  0
  190.1900  173.3090  134.7780 N   0  0  0  0  0  0  0  0  0  0  0  0
  189.1290  175.4460  135.2280 N   0  0  0  0  0  0  0  0  0  0  0  0
  190.1840  176.4010  134.8890 C   0  0  0  0  0  1  0  0  0  0  0  0
  187.1870  176.5900  136.1210 C   0  0  0  0  0  2  0  0  0  0  0  0
  187.7490  175.8400  135.1770 C   0  0  0  0  0  3  0  0  0  0  0  0
  194.6580  176.0580  144.8650 C   0  0  2  0  0  3  0  0  0  0  0  0
  194.3520  175.8770  146.3520 C   0  0  0  0  0  1  0  0  0  0  0  0
  195.7540  176.9250  144.6420 O   0  0  0  0  0  0  0  0  0  0  0  0
  196.2950  176.6710  143.3710 C   0  0  0  0  0  2  0  0  0  0  0  0
  197.3830  175.8040  143.4950 O   0  0  0  0  0  1  0  0  0  0  0  0
  193.3960  174.1030  143.3390 O   0  0  0  0  0  0  0  0  0  0  0  0
  195.4580  173.1720  143.0030 O   0  0  0  0  0  1  0  0  0  0  0  0
  194.2940  173.6280  142.3760 C   0  0  1  0  0  3  0  0  0  0  0  0
  193.6680  172.5140  141.6050 C   0  0  0  0  0  0  0  0  0  0  0  0
  193.2480  172.7310  140.3000 O   0  0  0  0  0  0  0  0  0  0  0  0
  193.5000  171.3860  142.1360 O   0  0  0  0  0  1  0  0  0  0  0  0
  1 39  1  1  0  0  0
  1  2  1  0  0  0  0
  3  4  1  0  0  0  0
  3  5  1  1  0  0  0
  4 44  1  1  0  0  0
  4  1  1  0  0  0  0
  5 10  1  0  0  0  0
  5  2  1  0  0  0  0
  6 13  1  0  0  0  0
  8 11  2  0  0  0  0
  8 10  1  0  0  0  0
  9 15  1  0  0  0  0
  9  6  2  0  0  0  0
 10 12  2  0  0  0  0
 11  9  1  0  0  0  0
 12  6  1  0  0  0  0
 12  7  1  0  0  0  0
 13 14  3  0  0  0  0
 16 15  1  0  0  0  0
 18 19  1  0  0  0  0
 19 20  1  0  0  0  0
 19 17  1  0  0  0  0
 19 16  1  0  0  0  0
 22 27  1  6  0  0  0
 22 24  1  0  0  0  0
 23 22  1  0  0  0  0
 24 21  1  0  0  0  0
 25 23  1  6  0  0  0
 25  3  1  0  0  0  0
 25 21  1  0  0  0  0
 26 27  2  0  0  0  0
 28 26  1  0  0  0  0
 29 31  1  0  0  0  0
 30 31  2  0  0  0  0
 31 28  1  0  0  0  0
 32 29  2  0  0  0  0
 33 30  1  0  0  0  0
 34 33  2  0  0  0  0
 34 32  1  0  0  0  0
 35 32  1  0  0  0  0
 36 35  1  0  0  0  0
 38 35  1  0  0  0  0
 38 37  2  0  0  0  0
 39 40  1  1  0  0  0
 41 39  1  0  0  0  0
 42 43  1  0  0  0  0
 42 41  1  0  0  0  0
 46 45  1  1  0  0  0
 46 44  1  0  0  0  0
 47 49  1  0  0  0  0
 47 46  1  0  0  0  0
 48 47  2  0  0  0  0
M  END
>  <MODEL>
2

>  <REMARK>
 VINA RESULT:      -6.4      1.774      2.576
  Name = 
  17 active torsions:
  status: ('A' for Active; 'I' for Inactive)
    1  A    between atoms: C_2  and  N_48
    2  A    between atoms: C_5  and  O_6
    3  A    between atoms: C_5  and  C_7
    4  A    between atoms: O_6  and  C_25
    5  A    between atoms: N_9  and  C_13
    6  A    between atoms: N_9  and  C_31
    7  A    between atoms: C_12  and  C_20
    8  A    between atoms: C_14  and  C_45
    9  A    between atoms: C_15  and  O_32
   10  A    between atoms: N_21  and  C_46
   11  A    between atoms: N_23  and  C_40
   12  A    between atoms: C_24  and  C_44
   13  A    between atoms: C_27  and  C_49
   14  A    between atoms: C_29  and  C_46
   15  A    between atoms: O_32  and  C_44
   16  A    between atoms: C_38  and  N_42
   17  A    between atoms: N_42  and  C_49
                            x       y       z     vdW  Elec       q    Type
                         _______ _______ _______ _____ _____    ______ ____

>  <TORSDO>
F 17

$$$$
=
 OpenBabel11042417143D

 49 52  0  0  1  0  0  0  0  0999 V2000
  193.4330  176.5660  144.0510 C   0  0  2  0  0  3  0  0  0  0  0  0
  192.1810  176.6910  144.9080 C   0  0  0  0  0  2  0  0  0  0  0  0
  191.5660  175.7030  142.7950 C   0  0  2  0  0  3  0  0  0  0  0  0
  193.0870  175.5560  142.9470 C   0  0  2  0  0  3  0  0  0  0  0  0
  191.0930  176.2670  144.0510 N   0  0  0  0  0  0  0  0  0  0  0  0
  187.7500  177.1240  145.5230 C   0  0  0  0  0  0  0  0  0  0  0  0
  189.5530  175.6910  146.3860 N   0  0  0  0  0  1  0  0  0  0  0  0
  189.2620  177.6460  143.2180 C   0  0  0  0  0  3  0  0  0  0  0  0
  187.2430  177.9800  144.5250 C   0  0  0  0  0  0  0  0  0  0  0  0
  189.7780  176.8070  144.2090 C   0  0  0  0  0  0  0  0  0  0  0  0
  188.0060  178.2280  143.3750 C   0  0  0  0  0  3  0  0  0  0  0  0
  189.0230  176.5430  145.3680 C   0  0  0  0  0  0  0  0  0  0  0  0
  186.9660  176.8550  146.7090 C   0  0  0  0  0  0  0  0  0  0  0  0
  186.3400  176.6360  147.6600 N   0  0  0  0  0  0  0  0  0  0  0  0
  185.9540  178.5850  144.6860 N   0  0  0  0  0  2  0  0  0  0  0  0
  185.2780  179.3480  143.6440 C   0  0  0  0  0  2  0  0  0  0  0  0
  184.8790  178.6940  141.4090 F   0  0  0  0  0  0  0  0  0  0  0  0
  183.1520  178.6170  142.8540 F   0  0  0  0  0  0  0  0  0  0  0  0
  184.5130  178.4220  142.7120 C   0  0  0  0  0  0  0  0  0  0  0  0
  184.8170  177.1060  143.0020 F   0  0  0  0  0  0  0  0  0  0  0  0
  190.2790  173.6410  143.5880 C   0  0  0  0  0  2  0  0  0  0  0  0
  188.5510  173.7240  141.8990 C   0  0  2  0  0  3  0  0  0  0  0  0
  189.6520  174.6950  141.4980 C   0  0  0  0  0  2  0  0  0  0  0  0
  189.0930  172.8840  143.0390 C   0  0  0  0  0  2  0  0  0  0  0  0
  190.8330  174.4080  142.4030 C   0  0  1  0  0  3  0  0  0  0  0  0
  188.5860  173.1560  139.6380 N   0  0  0  0  0  0  0  0  0  0  0  0
  188.2180  172.8680  140.7920 N   0  0  0  0  0  0  0  0  0  0  0  0
  188.2590  172.2980  138.5260 C   0  0  0  0  0  2  0  0  0  0  0  0
  190.0690  171.3230  137.0870 C   0  0  0  0  0  3  0  0  0  0  0  0
  189.4660  173.6440  136.8070 C   0  0  0  0  0  3  0  0  0  0  0  0
  189.2810  172.4190  137.4460 C   0  0  0  0  0  0  0  0  0  0  0  0
  191.0410  171.4640  136.0850 C   0  0  0  0  0  0  0  0  0  0  0  0
  190.4380  173.7530  135.8120 C   0  0  0  0  0  3  0  0  0  0  0  0
  191.1960  172.6750  135.4770 N   0  0  0  0  0  0  0  0  0  0  0  0
  191.8700  170.3530  135.7000 N   0  0  0  0  0  0  0  0  0  0  0  0
  191.5410  169.5660  134.5130 C   0  0  0  0  0  1  0  0  0  0  0  0
  193.6590  170.9280  137.2320 C   0  0  0  0  0  2  0  0  0  0  0  0
  193.0210  170.0240  136.4940 C   0  0  0  0  0  3  0  0  0  0  0  0
  194.6880  176.2160  144.8730 C   0  0  2  0  0  3  0  0  0  0  0  0
  194.3850  175.9390  146.3460 C   0  0  0  0  0  1  0  0  0  0  0  0
  195.7450  177.1420  144.7060 O   0  0  0  0  0  0  0  0  0  0  0  0
  196.5050  176.7790  143.5810 C   0  0  0  0  0  2  0  0  0  0  0  0
  196.9530  175.4650  143.7270 O   0  0  0  0  0  1  0  0  0  0  0  0
  193.4380  174.2560  143.3450 O   0  0  0  0  0  0  0  0  0  0  0  0
  194.6020  174.6970  141.4260 O   0  0  0  0  0  1  0  0  0  0  0  0
  194.0750  173.6870  142.2350 C   0  0  1  0  0  3  0  0  0  0  0  0
  195.1710  172.7820  142.6900 C   0  0  0  0  0  0  0  0  0  0  0  0
  196.2530  172.5360  141.8550 O   0  0  0  0  0  0  0  0  0  0  0  0
  195.1130  172.2240  143.8170 O   0  0  0  0  0  1  0  0  0  0  0  0
  1 39  1  1  0  0  0
  1  2  1  0  0  0  0
  3  4  1  0  0  0  0
  3  5  1  1  0  0  0
  4 44  1  1  0  0  0
  4  1  1  0  0  0  0
  5 10  1  0  0  0  0
  5  2  1  0  0  0  0
  6 13  1  0  0  0  0
  8 11  2  0  0  0  0
  8 10  1  0  0  0  0
  9 15  1  0  0  0  0
  9  6  2  0  0  0  0
 10 12  2  0  0  0  0
 11  9  1  0  0  0  0
 12  6  1  0  0  0  0
 12  7  1  0  0  0  0
 13 14  3  0  0  0  0
 16 15  1  0  0  0  0
 17 19  1  0  0  0  0
 19 18  1  0  0  0  0
 19 20  1  0  0  0  0
 19 16  1  0  0  0  0
 22 27  1  6  0  0  0
 22 24  1  0  0  0  0
 23 22  1  0  0  0  0
 24 21  1  0  0  0  0
 25 23  1  6  0  0  0
 25  3  1  0  0  0  0
 25 21  1  0  0  0  0
 26 27  2  0  0  0  0
 28 26  1  0  0  0  0
 29 31  1  0  0  0  0
 30 31  2  0  0  0  0
 31 28  1  0  0  0  0
 32 29  2  0  0  0  0
 33 30  1  0  0  0  0
 34 33  2  0  0  0  0
 34 32  1  0  0  0  0
 35 32  1  0  0  0  0
 35 38  1  0  0  0  0
 36 35  1  0  0  0  0
 38 37  2  0  0  0  0
 39 40  1  1  0  0  0
 41 39  1  0  0  0  0
 42 43  1  0  0  0  0
 42 41  1  0  0  0  0
 46 45  1  6  0  0  0
 46 47  1  0  0  0  0
 46 44  1  0  0  0  0
 47 49  1  0  0  0  0
 48 47  2  0  0  0  0
M  END
>  <MODEL>
3

>  <REMARK>
 VINA RESULT:      -6.2      1.922      2.913
  Name = 
  17 active torsions:
  status: ('A' for Active; 'I' for Inactive)
    1  A    between atoms: C_2  and  N_48
    2  A    between atoms: C_5  and  O_6
    3  A    between atoms: C_5  and  C_7
    4  A    between atoms: O_6  and  C_25
    5  A    between atoms: N_9  and  C_13
    6  A    between atoms: N_9  and  C_31
    7  A    between atoms: C_12  and  C_20
    8  A    between atoms: C_14  and  C_45
    9  A    between atoms: C_15  and  O_32
   10  A    between atoms: N_21  and  C_46
   11  A    between atoms: N_23  and  C_40
   12  A    between atoms: C_24  and  C_44
   13  A    between atoms: C_27  and  C_49
   14  A    between atoms: C_29  and  C_46
   15  A    between atoms: O_32  and  C_44
   16  A    between atoms: C_38  and  N_42
   17  A    between atoms: N_42  and  C_49
                            x       y       z     vdW  Elec       q    Type
                         _______ _______ _______ _____ _____    ______ ____

>  <TORSDO>
F 17

$$$$
=
 OpenBabel11042417143D

 49 52  0  0  1  0  0  0  0  0999 V2000
  189.4200  173.0010  140.2520 C   0  0  2  0  0  3  0  0  0  0  0  0
  188.5490  174.2480  140.1910 C   0  0  0  0  0  2  0  0  0  0  0  0
  189.9330  174.3770  142.1630 C   0  0  2  0  0  3  0  0  0  0  0  0
  190.5590  173.3320  141.2280 C   0  0  2  0  0  3  0  0  0  0  0  0
  188.8250  174.9610  141.4220 N   0  0  0  0  0  0  0  0  0  0  0  0
  185.9610  177.3390  141.8940 C   0  0  0  0  0  0  0  0  0  0  0  0
  187.1220  176.6270  139.8460 N   0  0  0  0  0  1  0  0  0  0  0  0
  187.6700  175.7280  143.4280 C   0  0  0  0  0  3  0  0  0  0  0  0
  185.8030  177.2740  143.2920 C   0  0  0  0  0  0  0  0  0  0  0  0
  187.8250  175.7760  142.0400 C   0  0  0  0  0  0  0  0  0  0  0  0
  186.6670  176.4700  144.0490 C   0  0  0  0  0  3  0  0  0  0  0  0
  186.9690  176.5830  141.2670 C   0  0  0  0  0  0  0  0  0  0  0  0
  185.0800  178.1740  141.1070 C   0  0  0  0  0  0  0  0  0  0  0  0
  184.3740  178.8410  140.4730 N   0  0  0  0  0  0  0  0  0  0  0  0
  184.7680  178.0310  143.9330 N   0  0  0  0  0  2  0  0  0  0  0  0
  185.0050  178.9780  145.0160 C   0  0  0  0  0  2  0  0  0  0  0  0
  183.0400  178.8420  146.3220 F   0  0  0  0  0  0  0  0  0  0  0  0
  185.0090  179.0500  147.3980 F   0  0  0  0  0  0  0  0  0  0  0  0
  184.3740  178.4840  146.3080 C   0  0  0  0  0  0  0  0  0  0  0  0
  184.4740  177.1090  146.3870 F   0  0  0  0  0  0  0  0  0  0  0  0
  190.4200  176.8560  142.5640 C   0  0  0  0  0  2  0  0  0  0  0  0
  191.3200  176.6050  144.7940 C   0  0  2  0  0  3  0  0  0  0  0  0
  191.2010  175.2210  144.1750 C   0  0  0  0  0  2  0  0  0  0  0  0
  191.1000  177.6120  143.6810 C   0  0  0  0  0  2  0  0  0  0  0  0
  190.9200  175.4300  142.7000 C   0  0  1  0  0  3  0  0  0  0  0  0
  193.4240  175.8300  145.4320 N   0  0  0  0  0  0  0  0  0  0  0  0
  192.6340  176.7890  145.3490 N   0  0  0  0  0  0  0  0  0  0  0  0
  194.7450  176.0100  145.9820 C   0  0  0  0  0  2  0  0  0  0  0  0
  195.9800  175.1430  143.9770 C   0  0  0  0  0  3  0  0  0  0  0  0
  196.3440  174.1000  146.1230 C   0  0  0  0  0  3  0  0  0  0  0  0
  195.7150  175.0710  145.3470 C   0  0  0  0  0  0  0  0  0  0  0  0
  196.8780  174.2370  143.3940 C   0  0  0  0  0  0  0  0  0  0  0  0
  197.2340  173.2140  145.5170 C   0  0  0  0  0  3  0  0  0  0  0  0
  197.4790  173.2990  144.1820 N   0  0  0  0  0  0  0  0  0  0  0  0
  197.1640  174.2850  141.9850 N   0  0  0  0  0  0  0  0  0  0  0  0
  197.9390  173.2170  141.3550 C   0  0  0  0  0  1  0  0  0  0  0  0
  197.0460  175.5820  139.9400 C   0  0  0  0  0  2  0  0  0  0  0  0
  196.6830  175.3900  141.2050 C   0  0  0  0  0  3  0  0  0  0  0  0
  189.8830  172.5280  138.8610 C   0  0  2  0  0  3  0  0  0  0  0  0
  189.5910  173.5390  137.7520 C   0  0  0  0  0  1  0  0  0  0  0  0
  189.4340  171.2260  138.5330 O   0  0  0  0  0  0  0  0  0  0  0  0
  190.2820  170.6760  137.5570 C   0  0  0  0  0  2  0  0  0  0  0  0
  191.4940  170.3110  138.1460 O   0  0  0  0  0  1  0  0  0  0  0  0
  191.6610  173.8600  140.5360 O   0  0  0  0  0  0  0  0  0  0  0  0
  192.3060  171.8180  141.3400 O   0  0  0  0  0  1  0  0  0  0  0  0
  192.7540  173.0740  140.9220 C   0  0  1  0  0  3  0  0  0  0  0  0
  193.6950  172.9180  139.7750 C   0  0  0  0  0  0  0  0  0  0  0  0
  193.2760  173.2370  138.4900 O   0  0  0  0  0  0  0  0  0  0  0  0
  194.8600  172.4800  139.9600 O   0  0  0  0  0  1  0  0  0  0  0  0
  1 39  1  6  0  0  0
  1  4  1  0  0  0  0
  2  1  1  0  0  0  0
  2  5  1  0  0  0  0
  3  5  1  6  0  0  0
  3 25  1  0  0  0  0
  4 44  1  6  0  0  0
  4  3  1  0  0  0  0
  5 10  1  0  0  0  0
  6  9  1  0  0  0  0
  7 12  1  0  0  0  0
  8 11  1  0  0  0  0
  9 15  1  0  0  0  0
  9 11  2  0  0  0  0
 10  8  2  0  0  0  0
 12  6  2  0  0  0  0
 12 10  1  0  0  0  0
 13  6  1  0  0  0  0
 14 13  3  0  0  0  0
 15 16  1  0  0  0  0
 16 19  1  0  0  0  0
 19 17  1  0  0  0  0
 19 20  1  0  0  0  0
 19 18  1  0  0  0  0
 21 24  1  0  0  0  0
 22 27  1  6  0  0  0
 23 22  1  0  0  0  0
 24 22  1  0  0  0  0
 25 21  1  1  0  0  0
 25 23  1  0  0  0  0
 26 28  1  0  0  0  0
 27 26  2  0  0  0  0
 29 31  1  0  0  0  0
 31 28  1  0  0  0  0
 31 30  2  0  0  0  0
 32 29  2  0  0  0  0
 32 34  1  0  0  0  0
 33 30  1  0  0  0  0
 34 33  2  0  0  0  0
 35 32  1  0  0  0  0
 36 35  1  0  0  0  0
 37 38  2  0  0  0  0
 38 35  1  0  0  0  0
 39 40  1  6  0  0  0
 41 39  1  0  0  0  0
 42 43  1  0  0  0  0
 42 41  1  0  0  0  0
 44 46  1  0  0  0  0
 46 45  1  6  0  0  0
 47 49  1  0  0  0  0
 47 46  1  0  0  0  0
 48 47  2  0  0  0  0
M  END
>  <MODEL>
4

>  <REMARK>
 VINA RESULT:      -6.0      2.716      6.481
  Name = 
  17 active torsions:
  status: ('A' for Active; 'I' for Inactive)
    1  A    between atoms: C_2  and  N_48
    2  A    between atoms: C_5  and  O_6
    3  A    between atoms: C_5  and  C_7
    4  A    between atoms: O_6  and  C_25
    5  A    between atoms: N_9  and  C_13
    6  A    between atoms: N_9  and  C_31
    7  A    between atoms: C_12  and  C_20
    8  A    between atoms: C_14  and  C_45
    9  A    between atoms: C_15  and  O_32
   10  A    between atoms: N_21  and  C_46
   11  A    between atoms: N_23  and  C_40
   12  A    between atoms: C_24  and  C_44
   13  A    between atoms: C_27  and  C_49
   14  A    between atoms: C_29  and  C_46
   15  A    between atoms: O_32  and  C_44
   16  A    between atoms: C_38  and  N_42
   17  A    between atoms: N_42  and  C_49
                            x       y       z     vdW  Elec       q    Type
                         _______ _______ _______ _____ _____    ______ ____

>  <TORSDO>
F 17

$$$$
=
 OpenBabel11042417143D

 49 52  0  0  1  0  0  0  0  0999 V2000
  189.5250  172.5510  138.7890 C   0  0  2  0  0  3  0  0  0  0  0  0
  189.6130  173.9340  139.4180 C   0  0  0  0  0  2  0  0  0  0  0  0
  189.8080  172.2850  141.1680 C   0  0  2  0  0  3  0  0  0  0  0  0
  190.0900  171.5780  139.8340 C   0  0  2  0  0  3  0  0  0  0  0  0
  189.6620  173.6970  140.8460 N   0  0  0  0  0  0  0  0  0  0  0  0
  189.3820  176.5930  143.2160 C   0  0  0  0  0  0  0  0  0  0  0  0
  191.3390  175.6750  142.0430 N   0  0  0  0  0  1  0  0  0  0  0  0
  187.7580  174.6170  142.0610 C   0  0  0  0  0  3  0  0  0  0  0  0
  188.0010  176.5630  143.4930 C   0  0  0  0  0  0  0  0  0  0  0  0
  189.1250  174.6480  141.7690 C   0  0  0  0  0  0  0  0  0  0  0  0
  187.2010  175.5670  142.9150 C   0  0  0  0  0  3  0  0  0  0  0  0
  189.9430  175.6380  142.3460 C   0  0  0  0  0  0  0  0  0  0  0  0
  190.2160  177.6110  143.8160 C   0  0  0  0  0  0  0  0  0  0  0  0
  190.8880  178.4240  144.2990 N   0  0  0  0  0  0  0  0  0  0  0  0
  187.4230  177.5430  144.3650 N   0  0  0  0  0  2  0  0  0  0  0  0
  186.8040  177.2270  145.6470 C   0  0  0  0  0  2  0  0  0  0  0  0
  184.8370  177.4840  146.9300 F   0  0  0  0  0  0  0  0  0  0  0  0
  184.6650  177.6570  144.6900 F   0  0  0  0  0  0  0  0  0  0  0  0
  185.4640  177.9310  145.7840 C   0  0  0  0  0  0  0  0  0  0  0  0
  185.6560  179.2960  145.8760 F   0  0  0  0  0  0  0  0  0  0  0  0
  191.0290  170.5520  142.5980 C   0  0  0  0  0  2  0  0  0  0  0  0
  193.2330  171.5220  142.3910 C   0  0  2  0  0  3  0  0  0  0  0  0
  192.2230  172.5270  141.8570 C   0  0  0  0  0  2  0  0  0  0  0  0
  192.4490  170.4350  143.0990 C   0  0  0  0  0  2  0  0  0  0  0  0
  190.8530  172.0220  142.2660 C   0  0  1  0  0  3  0  0  0  0  0  0
  193.8190  172.2250  144.5350 N   0  0  0  0  0  0  0  0  0  0  0  0
  194.1180  172.1600  143.3290 N   0  0  0  0  0  0  0  0  0  0  0  0
  194.7050  172.8580  145.4800 C   0  0  0  0  0  2  0  0  0  0  0  0
  192.8310  174.3730  146.1820 C   0  0  0  0  0  3  0  0  0  0  0  0
  195.0490  175.2900  145.9240 C   0  0  0  0  0  3  0  0  0  0  0  0
  194.1830  174.1990  145.8780 C   0  0  0  0  0  0  0  0  0  0  0  0
  192.3550  175.6460  146.5310 C   0  0  0  0  0  0  0  0  0  0  0  0
  194.5490  176.5420  146.2770 C   0  0  0  0  0  3  0  0  0  0  0  0
  193.2290  176.6920  146.5690 N   0  0  0  0  0  0  0  0  0  0  0  0
  190.9660  175.8540  146.8430 N   0  0  0  0  0  0  0  0  0  0  0  0
  190.5390  177.0810  147.5140 C   0  0  0  0  0  1  0  0  0  0  0  0
  188.9990  174.5110  147.2930 C   0  0  0  0  0  2  0  0  0  0  0  0
  190.0060  174.8460  146.4910 C   0  0  0  0  0  3  0  0  0  0  0  0
  190.2040  172.4780  137.4080 C   0  0  2  0  0  3  0  0  0  0  0  0
  190.9280  173.7680  137.0250 C   0  0  0  0  0  1  0  0  0  0  0  0
  189.3430  172.0190  136.3830 O   0  0  0  0  0  0  0  0  0  0  0  0
  189.8640  170.8350  135.8350 C   0  0  0  0  0  2  0  0  0  0  0  0
  190.9140  171.1480  134.9680 O   0  0  0  0  0  1  0  0  0  0  0  0
  191.4690  171.3920  139.6350 O   0  0  0  0  0  0  0  0  0  0  0  0
  190.3910  169.4460  139.1030 O   0  0  0  0  0  1  0  0  0  0  0  0
  191.6290  170.0210  139.4010 C   0  0  1  0  0  3  0  0  0  0  0  0
  192.5710  169.8080  138.2630 C   0  0  0  0  0  0  0  0  0  0  0  0
  193.6810  170.6300  138.1240 O   0  0  0  0  0  1  0  0  0  0  0  0
  192.3550  168.9020  137.4170 O   0  0  0  0  0  0  0  0  0  0  0  0
  1 39  1  6  0  0  0
  1  2  1  0  0  0  0
  1  4  1  0  0  0  0
  2  5  1  0  0  0  0
  3  5  1  6  0  0  0
  3 25  1  0  0  0  0
  4 44  1  6  0  0  0
  4  3  1  0  0  0  0
  5 10  1  0  0  0  0
  6  9  1  0  0  0  0
  6 13  1  0  0  0  0
  7 12  1  0  0  0  0
  8 11  1  0  0  0  0
  9 15  1  0  0  0  0
 10  8  2  0  0  0  0
 10 12  1  0  0  0  0
 11  9  2  0  0  0  0
 12  6  2  0  0  0  0
 13 14  3  0  0  0  0
 15 16  1  0  0  0  0
 16 19  1  0  0  0  0
 18 19  1  0  0  0  0
 19 20  1  0  0  0  0
 19 17  1  0  0  0  0
 21 24  1  0  0  0  0
 22 24  1  0  0  0  0
 22 27  1  1  0  0  0
 23 22  1  0  0  0  0
 25 23  1  6  0  0  0
 25 21  1  0  0  0  0
 26 28  1  0  0  0  0
 27 26  2  0  0  0  0
 28 31  1  0  0  0  0
 29 32  1  0  0  0  0
 30 33  2  0  0  0  0
 31 30  1  0  0  0  0
 31 29  2  0  0  0  0
 32 34  2  0  0  0  0
 32 35  1  0  0  0  0
 33 34  1  0  0  0  0
 35 36  1  0  0  0  0
 38 35  1  0  0  0  0
 38 37  2  0  0  0  0
 39 40  1  6  0  0  0
 41 39  1  0  0  0  0
 42 41  1  0  0  0  0
 43 42  1  0  0  0  0
 46 45  1  6  0  0  0
 46 44  1  0  0  0  0
 47 46  1  0  0  0  0
 48 47  1  0  0  0  0
 49 47  2  0  0  0  0
M  END
>  <MODEL>
5

>  <REMARK>
 VINA RESULT:      -6.0      2.905      7.167
  Name = 
  17 active torsions:
  status: ('A' for Active; 'I' for Inactive)
    1  A    between atoms: C_2  and  N_48
    2  A    between atoms: C_5  and  O_6
    3  A    between atoms: C_5  and  C_7
    4  A    between atoms: O_6  and  C_25
    5  A    between atoms: N_9  and  C_13
    6  A    between atoms: N_9  and  C_31
    7  A    between atoms: C_12  and  C_20
    8  A    between atoms: C_14  and  C_45
    9  A    between atoms: C_15  and  O_32
   10  A    between atoms: N_21  and  C_46
   11  A    between atoms: N_23  and  C_40
   12  A    between atoms: C_24  and  C_44
   13  A    between atoms: C_27  and  C_49
   14  A    between atoms: C_29  and  C_46
   15  A    between atoms: O_32  and  C_44
   16  A    between atoms: C_38  and  N_42
   17  A    between atoms: N_42  and  C_49
                            x       y       z     vdW  Elec       q    Type
                         _______ _______ _______ _____ _____    ______ ____

>  <TORSDO>
F 17

$$$$
=
 OpenBabel11042417143D

 49 52  0  0  1  0  0  0  0  0999 V2000
  194.2970  173.8880  144.6630 C   0  0  2  0  0  3  0  0  0  0  0  0
  194.2550  173.8480  143.1420 C   0  0  0  0  0  2  0  0  0  0  0  0
  191.9920  173.9680  143.9670 C   0  0  2  0  0  3  0  0  0  0  0  0
  192.9220  174.4060  145.1080 C   0  0  2  0  0  3  0  0  0  0  0  0
  192.8480  173.7800  142.8050 N   0  0  0  0  0  0  0  0  0  0  0  0
  191.4910  171.1550  140.4930 C   0  0  0  0  0  0  0  0  0  0  0  0
  191.9960  171.0550  142.8980 N   0  0  0  0  0  1  0  0  0  0  0  0
  192.3700  173.8180  140.4140 C   0  0  0  0  0  3  0  0  0  0  0  0
  191.4440  171.8780  139.2850 C   0  0  0  0  0  0  0  0  0  0  0  0
  192.4070  173.1120  141.6200 C   0  0  0  0  0  0  0  0  0  0  0  0
  191.8920  173.2070  139.2560 C   0  0  0  0  0  3  0  0  0  0  0  0
  191.9660  171.7760  141.6630 C   0  0  0  0  0  0  0  0  0  0  0  0
  191.0400  169.7810  140.5290 C   0  0  0  0  0  0  0  0  0  0  0  0
  190.6830  168.6780  140.5590 N   0  0  0  0  0  0  0  0  0  0  0  0
  190.9470  171.2540  138.0940 N   0  0  0  0  0  2  0  0  0  0  0  0
  191.0650  171.8350  136.7620 C   0  0  0  0  0  2  0  0  0  0  0  0
  189.0380  171.1880  135.7350 F   0  0  0  0  0  0  0  0  0  0  0  0
  189.8570  173.2320  135.2560 F   0  0  0  0  0  0  0  0  0  0  0  0
  189.7050  172.2820  136.2490 C   0  0  0  0  0  0  0  0  0  0  0  0
  188.9650  172.8190  137.2830 F   0  0  0  0  0  0  0  0  0  0  0  0
  191.1880  176.1260  142.8540 C   0  0  0  0  0  2  0  0  0  0  0  0
  189.1180  175.2340  141.9790 C   0  0  2  0  0  3  0  0  0  0  0  0
  189.6930  174.2200  142.9570 C   0  0  0  0  0  2  0  0  0  0  0  0
  189.9100  176.5160  142.1480 C   0  0  0  0  0  2  0  0  0  0  0  0
  190.8140  174.9220  143.6980 C   0  0  1  0  0  3  0  0  0  0  0  0
  187.2250  176.5930  142.0340 N   0  0  0  0  0  0  0  0  0  0  0  0
  187.7350  175.4850  142.2810 N   0  0  0  0  0  0  0  0  0  0  0  0
  185.8370  176.8480  142.3310 C   0  0  0  0  0  2  0  0  0  0  0  0
  186.0480  177.4070  144.7690 C   0  0  0  0  0  3  0  0  0  0  0  0
  185.2170  179.0860  143.2460 C   0  0  0  0  0  3  0  0  0  0  0  0
  185.7060  177.8010  143.4730 C   0  0  0  0  0  0  0  0  0  0  0  0
  185.8960  178.3100  145.8320 C   0  0  0  0  0  0  0  0  0  0  0  0
  185.0790  179.9620  144.3210 C   0  0  0  0  0  3  0  0  0  0  0  0
  185.4160  179.5610  145.5760 N   0  0  0  0  0  0  0  0  0  0  0  0
  186.2340  177.9290  147.1770 N   0  0  0  0  0  0  0  0  0  0  0  0
  186.2250  178.9240  148.2480 C   0  0  0  0  0  1  0  0  0  0  0  0
  187.8040  176.0820  147.2440 C   0  0  0  0  0  2  0  0  0  0  0  0
  186.5830  176.5640  147.4570 C   0  0  0  0  0  3  0  0  0  0  0  0
  195.4940  174.6920  145.2070 C   0  0  2  0  0  3  0  0  0  0  0  0
  196.1530  175.5790  144.1500 C   0  0  0  0  0  1  0  0  0  0  0  0
  196.4340  173.8970  145.9040 O   0  0  0  0  0  0  0  0  0  0  0  0
  197.6020  173.7760  145.1310 C   0  0  0  0  0  2  0  0  0  0  0  0
  197.7880  172.4390  144.7760 O   0  0  0  0  0  1  0  0  0  0  0  0
  192.9440  175.8050  145.2410 O   0  0  0  0  0  0  0  0  0  0  0  0
  193.9560  176.9120  146.9670 O   0  0  0  0  0  1  0  0  0  0  0  0
  192.9150  176.0470  146.6200 C   0  0  1  0  0  3  0  0  0  0  0  0
  191.6070  176.6550  147.0000 C   0  0  0  0  0  0  0  0  0  0  0  0
  191.2410  176.7250  148.3380 O   0  0  0  0  0  1  0  0  0  0  0  0
  190.8220  177.0870  146.1150 O   0  0  0  0  0  0  0  0  0  0  0  0
  1  4  1  0  0  0  0
  1 39  1  6  0  0  0
  2  1  1  0  0  0  0
  3  5  1  6  0  0  0
  3  4  1  0  0  0  0
  4 44  1  6  0  0  0
  5  2  1  0  0  0  0
  6 13  1  0  0  0  0
  6 12  1  0  0  0  0
  8 10  1  0  0  0  0
  9  6  2  0  0  0  0
 10 12  2  0  0  0  0
 10  5  1  0  0  0  0
 11  9  1  0  0  0  0
 11  8  2  0  0  0  0
 12  7  1  0  0  0  0
 13 14  3  0  0  0  0
 15  9  1  0  0  0  0
 16 15  1  0  0  0  0
 17 19  1  0  0  0  0
 18 19  1  0  0  0  0
 19 16  1  0  0  0  0
 19 20  1  0  0  0  0
 22 24  1  0  0  0  0
 22 27  1  1  0  0  0
 22 23  1  0  0  0  0
 23 25  1  0  0  0  0
 24 21  1  0  0  0  0
 25 21  1  6  0  0  0
 25  3  1  0  0  0  0
 26 27  2  0  0  0  0
 26 28  1  0  0  0  0
 28 31  1  0  0  0  0
 29 32  1  0  0  0  0
 30 31  1  0  0  0  0
 30 33  2  0  0  0  0
 31 29  2  0  0  0  0
 32 35  1  0  0  0  0
 33 34  1  0  0  0  0
 34 32  2  0  0  0  0
 35 38  1  0  0  0  0
 35 36  1  0  0  0  0
 37 38  2  0  0  0  0
 39 40  1  6  0  0  0
 39 41  1  0  0  0  0
 42 41  1  0  0  0  0
 43 42  1  0  0  0  0
 44 46  1  0  0  0  0
 46 45  1  6  0  0  0
 46 47  1  0  0  0  0
 47 48  1  0  0  0  0
 49 47  2  0  0  0  0
M  END
>  <MODEL>
6

>  <REMARK>
 VINA RESULT:      -5.9      4.041      8.610
  Name = 
  17 active torsions:
  status: ('A' for Active; 'I' for Inactive)
    1  A    between atoms: C_2  and  N_48
    2  A    between atoms: C_5  and  O_6
    3  A    between atoms: C_5  and  C_7
    4  A    between atoms: O_6  and  C_25
    5  A    between atoms: N_9  and  C_13
    6  A    between atoms: N_9  and  C_31
    7  A    between atoms: C_12  and  C_20
    8  A    between atoms: C_14  and  C_45
    9  A    between atoms: C_15  and  O_32
   10  A    between atoms: N_21  and  C_46
   11  A    between atoms: N_23  and  C_40
   12  A    between atoms: C_24  and  C_44
   13  A    between atoms: C_27  and  C_49
   14  A    between atoms: C_29  and  C_46
   15  A    between atoms: O_32  and  C_44
   16  A    between atoms: C_38  and  N_42
   17  A    between atoms: N_42  and  C_49
                            x       y       z     vdW  Elec       q    Type
                         _______ _______ _______ _____ _____    ______ ____

>  <TORSDO>
F 17

$$$$
=
 OpenBabel11042417143D

 49 52  0  0  1  0  0  0  0  0999 V2000
  189.2450  175.2830  145.3820 C   0  0  2  0  0  3  0  0  0  0  0  0
  190.6280  174.9830  145.9420 C   0  0  0  0  0  2  0  0  0  0  0  0
  190.7190  174.8010  143.5380 C   0  0  2  0  0  3  0  0  0  0  0  0
  189.4530  175.5930  143.8930 C   0  0  2  0  0  3  0  0  0  0  0  0
  191.4210  174.5900  144.7950 N   0  0  0  0  0  0  0  0  0  0  0  0
  193.4120  171.4100  144.7360 C   0  0  0  0  0  0  0  0  0  0  0  0
  191.0360  171.8140  144.2470 N   0  0  0  0  0  1  0  0  0  0  0  0
  193.7610  174.1340  145.3100 C   0  0  0  0  0  3  0  0  0  0  0  0
  194.6820  171.8960  145.1060 C   0  0  0  0  0  0  0  0  0  0  0  0
  192.5020  173.6620  144.9310 C   0  0  0  0  0  0  0  0  0  0  0  0
  194.8430  173.2590  145.3960 C   0  0  0  0  0  3  0  0  0  0  0  0
  192.3230  172.2960  144.6410 C   0  0  0  0  0  0  0  0  0  0  0  0
  193.2350  170.0040  144.4450 C   0  0  0  0  0  0  0  0  0  0  0  0
  193.0970  168.8760  144.2110 N   0  0  0  0  0  0  0  0  0  0  0  0
  195.7970  171.0000  145.1880 N   0  0  0  0  0  2  0  0  0  0  0  0
  196.4440  170.6200  146.4380 C   0  0  0  0  0  2  0  0  0  0  0  0
  194.6900  169.3540  147.3880 F   0  0  0  0  0  0  0  0  0  0  0  0
  196.8060  168.7560  147.8780 F   0  0  0  0  0  0  0  0  0  0  0  0
  195.9730  169.2470  146.8900 C   0  0  0  0  0  0  0  0  0  0  0  0
  195.9730  168.3730  145.8210 F   0  0  0  0  0  0  0  0  0  0  0  0
  192.6470  176.3980  143.0160 C   0  0  0  0  0  2  0  0  0  0  0  0
  193.7320  174.9960  141.3720 C   0  0  2  0  0  3  0  0  0  0  0  0
  192.3590  174.4080  141.6620 C   0  0  0  0  0  2  0  0  0  0  0  0
  193.7700  176.3730  142.0060 C   0  0  0  0  0  2  0  0  0  0  0  0
  191.6010  175.4520  142.4580 C   0  0  1  0  0  3  0  0  0  0  0  0
  194.2390  174.1270  139.2690 N   0  0  0  0  0  0  0  0  0  0  0  0
  193.9280  175.1200  139.9520 N   0  0  0  0  0  0  0  0  0  0  0  0
  194.4320  174.2450  137.8440 C   0  0  0  0  0  2  0  0  0  0  0  0
  191.9920  173.8430  137.4130 C   0  0  0  0  0  3  0  0  0  0  0  0
  193.1100  175.6410  136.2530 C   0  0  0  0  0  3  0  0  0  0  0  0
  193.1480  174.5870  137.1630 C   0  0  0  0  0  0  0  0  0  0  0  0
  190.8010  174.1650  136.7460 C   0  0  0  0  0  0  0  0  0  0  0  0
  191.9110  175.9400  135.6070 C   0  0  0  0  0  3  0  0  0  0  0  0
  190.7960  175.2040  135.8630 N   0  0  0  0  0  0  0  0  0  0  0  0
  189.5970  173.4120  136.9800 N   0  0  0  0  0  0  0  0  0  0  0  0
  188.4200  174.0660  137.5510 C   0  0  0  0  0  1  0  0  0  0  0  0
  189.6980  171.5740  135.4030 C   0  0  0  0  0  2  0  0  0  0  0  0
  189.5650  172.0150  136.6510 C   0  0  0  0  0  3  0  0  0  0  0  0
  188.5060  176.3810  146.1710 C   0  0  2  0  0  3  0  0  0  0  0  0
  189.4480  177.4180  146.7840 C   0  0  0  0  0  1  0  0  0  0  0  0
  187.5820  175.8710  147.1130 O   0  0  0  0  0  0  0  0  0  0  0  0
  186.5370  176.7950  147.2840 C   0  0  0  0  0  2  0  0  0  0  0  0
  185.7170  176.7820  146.1530 O   0  0  0  0  0  1  0  0  0  0  0  0
  189.6410  176.9720  143.7010 O   0  0  0  0  0  0  0  0  0  0  0  0
  188.6790  176.2820  141.7440 O   0  0  0  0  0  1  0  0  0  0  0  0
  188.7660  177.3270  142.6680 C   0  0  1  0  0  3  0  0  0  0  0  0
  187.4130  177.6180  143.2270 C   0  0  0  0  0  0  0  0  0  0  0  0
  186.3690  176.7310  143.0030 O   0  0  0  0  0  0  0  0  0  0  0  0
  187.2070  178.6720  143.8840 O   0  0  0  0  0  1  0  0  0  0  0  0
  1  2  1  0  0  0  0
  1 39  1  1  0  0  0
  3  4  1  0  0  0  0
  3  5  1  1  0  0  0
  4 44  1  1  0  0  0
  4  1  1  0  0  0  0
  5 10  1  0  0  0  0
  5  2  1  0  0  0  0
  6  9  1  0  0  0  0
  7 12  1  0  0  0  0
  8 11  1  0  0  0  0
  9 15  1  0  0  0  0
  9 11  2  0  0  0  0
 10  8  2  0  0  0  0
 12  6  2  0  0  0  0
 12 10  1  0  0  0  0
 13  6  1  0  0  0  0
 14 13  3  0  0  0  0
 15 16  1  0  0  0  0
 16 19  1  0  0  0  0
 19 17  1  0  0  0  0
 19 18  1  0  0  0  0
 20 19  1  0  0  0  0
 22 27  1  6  0  0  0
 22 23  1  0  0  0  0
 22 24  1  0  0  0  0
 24 21  1  0  0  0  0
 25 23  1  1  0  0  0
 25 21  1  0  0  0  0
 25  3  1  0  0  0  0
 26 27  2  0  0  0  0
 28 26  1  0  0  0  0
 30 31  2  0  0  0  0
 31 29  1  0  0  0  0
 31 28  1  0  0  0  0
 32 35  1  0  0  0  0
 32 29  2  0  0  0  0
 33 34  2  0  0  0  0
 33 30  1  0  0  0  0
 34 32  1  0  0  0  0
 35 36  1  0  0  0  0
 37 38  2  0  0  0  0
 38 35  1  0  0  0  0
 39 40  1  1  0  0  0
 39 41  1  0  0  0  0
 41 42  1  0  0  0  0
 43 42  1  0  0  0  0
 46 45  1  6  0  0  0
 46 47  1  0  0  0  0
 46 44  1  0  0  0  0
 47 49  1  0  0  0  0
 48 47  2  0  0  0  0
M  END
>  <MODEL>
7

>  <REMARK>
 VINA RESULT:      -5.8      5.158      7.657
  Name = 
  17 active torsions:
  status: ('A' for Active; 'I' for Inactive)
    1  A    between atoms: C_2  and  N_48
    2  A    between atoms: C_5  and  O_6
    3  A    between atoms: C_5  and  C_7
    4  A    between atoms: O_6  and  C_25
    5  A    between atoms: N_9  and  C_13
    6  A    between atoms: N_9  and  C_31
    7  A    between atoms: C_12  and  C_20
    8  A    between atoms: C_14  and  C_45
    9  A    between atoms: C_15  and  O_32
   10  A    between atoms: N_21  and  C_46
   11  A    between atoms: N_23  and  C_40
   12  A    between atoms: C_24  and  C_44
   13  A    between atoms: C_27  and  C_49
   14  A    between atoms: C_29  and  C_46
   15  A    between atoms: O_32  and  C_44
   16  A    between atoms: C_38  and  N_42
   17  A    between atoms: N_42  and  C_49
                            x       y       z     vdW  Elec       q    Type
                         _______ _______ _______ _____ _____    ______ ____

>  <TORSDO>
F 17

$$$$
=
 OpenBabel11042417143D

 49 52  0  0  1  0  0  0  0  0999 V2000
  189.3300  175.1760  145.0780 C   0  0  2  0  0  3  0  0  0  0  0  0
  190.8320  175.0840  145.3080 C   0  0  0  0  0  2  0  0  0  0  0  0
  190.3000  173.9330  143.2560 C   0  0  2  0  0  3  0  0  0  0  0  0
  189.1110  174.8430  143.5950 C   0  0  2  0  0  3  0  0  0  0  0  0
  191.3250  174.2310  144.2460 N   0  0  0  0  0  0  0  0  0  0  0  0
  194.8400  173.1330  144.9660 C   0  0  0  0  0  0  0  0  0  0  0  0
  193.8770  175.3900  144.7960 N   0  0  0  0  0  1  0  0  0  0  0  0
  192.3340  172.0150  144.3850 C   0  0  0  0  0  3  0  0  0  0  0  0
  194.6850  171.7340  144.9230 C   0  0  0  0  0  0  0  0  0  0  0  0
  192.4750  173.4040  144.4400 C   0  0  0  0  0  0  0  0  0  0  0  0
  193.4280  171.1860  144.6250 C   0  0  0  0  0  3  0  0  0  0  0  0
  193.7320  173.9690  144.7320 C   0  0  0  0  0  0  0  0  0  0  0  0
  196.1350  173.7070  145.2620 C   0  0  0  0  0  0  0  0  0  0  0  0
  197.1710  174.1700  145.5000 N   0  0  0  0  0  0  0  0  0  0  0  0
  195.8070  170.8800  145.1760 N   0  0  0  0  0  2  0  0  0  0  0  0
  196.3200  170.5830  146.5080 C   0  0  0  0  0  2  0  0  0  0  0  0
  197.1740  168.6450  147.5550 F   0  0  0  0  0  0  0  0  0  0  0  0
  195.9020  168.3760  145.7150 F   0  0  0  0  0  0  0  0  0  0  0  0
  196.0800  169.1240  146.8630 C   0  0  0  0  0  0  0  0  0  0  0  0
  194.9570  169.0110  147.6580 F   0  0  0  0  0  0  0  0  0  0  0  0
  192.1740  174.7070  141.6970 C   0  0  0  0  0  2  0  0  0  0  0  0
  192.1790  172.7510  140.2750 C   0  0  2  0  0  3  0  0  0  0  0  0
  190.9360  172.6950  141.1510 C   0  0  0  0  0  2  0  0  0  0  0  0
  192.7720  174.1380  140.4320 C   0  0  0  0  0  2  0  0  0  0  0  0
  190.8080  174.0550  141.8080 C   0  0  1  0  0  3  0  0  0  0  0  0
  190.6290  172.4490  138.5600 N   0  0  0  0  0  0  0  0  0  0  0  0
  191.8240  172.5380  138.8980 N   0  0  0  0  0  0  0  0  0  0  0  0
  190.2680  172.2400  137.1790 C   0  0  0  0  0  2  0  0  0  0  0  0
  189.1780  174.3220  136.2970 C   0  0  0  0  0  3  0  0  0  0  0  0
  191.5060  173.9170  135.8070 C   0  0  0  0  0  3  0  0  0  0  0  0
  190.3180  173.5240  136.4200 C   0  0  0  0  0  0  0  0  0  0  0  0
  189.2390  175.5130  135.5600 C   0  0  0  0  0  0  0  0  0  0  0  0
  191.5380  175.1080  135.0830 C   0  0  0  0  0  3  0  0  0  0  0  0
  190.4180  175.8710  134.9750 N   0  0  0  0  0  0  0  0  0  0  0  0
  188.0780  176.3500  135.4140 N   0  0  0  0  0  0  0  0  0  0  0  0
  188.1880  177.6520  134.7570 C   0  0  0  0  0  1  0  0  0  0  0  0
  186.4540  176.0590  137.1900 C   0  0  0  0  0  2  0  0  0  0  0  0
  186.8130  175.8960  135.9200 C   0  0  0  0  0  3  0  0  0  0  0  0
  188.7380  176.5250  145.5290 C   0  0  2  0  0  3  0  0  0  0  0  0
  189.7870  177.4830  146.0960 C   0  0  0  0  0  1  0  0  0  0  0  0
  187.6170  176.3890  146.3820 O   0  0  0  0  0  0  0  0  0  0  0  0
  186.8540  177.5680  146.3350 C   0  0  0  0  0  2  0  0  0  0  0  0
  185.5170  177.2460  146.0920 O   0  0  0  0  0  1  0  0  0  0  0  0
  189.1280  176.0160  142.8220 O   0  0  0  0  0  0  0  0  0  0  0  0
  187.0150  175.1560  142.6470 O   0  0  0  0  0  1  0  0  0  0  0  0
  187.9810  175.9500  142.0210 C   0  0  1  0  0  3  0  0  0  0  0  0
  187.4380  177.3220  141.7990 C   0  0  0  0  0  0  0  0  0  0  0  0
  187.0910  177.7270  140.5170 O   0  0  0  0  0  0  0  0  0  0  0  0
  187.3120  178.1220  142.7620 O   0  0  0  0  0  1  0  0  0  0  0  0
  1  2  1  0  0  0  0
  1 39  1  6  0  0  0
  3  4  1  0  0  0  0
  3  5  1  1  0  0  0
  4 44  1  6  0  0  0
  4  1  1  0  0  0  0
  5 10  1  0  0  0  0
  5  2  1  0  0  0  0
  6 13  1  0  0  0  0
  8 10  2  0  0  0  0
  8 11  1  0  0  0  0
  9  6  1  0  0  0  0
  9 15  1  0  0  0  0
 10 12  1  0  0  0  0
 11  9  2  0  0  0  0
 12  7  1  0  0  0  0
 12  6  2  0  0  0  0
 13 14  3  0  0  0  0
 15 16  1  0  0  0  0
 16 19  1  0  0  0  0
 18 19  1  0  0  0  0
 19 17  1  0  0  0  0
 19 20  1  0  0  0  0
 21 25  1  0  0  0  0
 22 27  1  6  0  0  0
 22 24  1  0  0  0  0
 22 23  1  0  0  0  0
 24 21  1  0  0  0  0
 25 23  1  1  0  0  0
 25  3  1  0  0  0  0
 26 27  2  0  0  0  0
 28 26  1  0  0  0  0
 29 31  1  0  0  0  0
 30 31  2  0  0  0  0
 31 28  1  0  0  0  0
 32 29  2  0  0  0  0
 33 30  1  0  0  0  0
 34 33  2  0  0  0  0
 34 32  1  0  0  0  0
 35 32  1  0  0  0  0
 35 38  1  0  0  0  0
 36 35  1  0  0  0  0
 38 37  2  0  0  0  0
 39 40  1  1  0  0  0
 39 41  1  0  0  0  0
 42 41  1  0  0  0  0
 43 42  1  0  0  0  0
 46 45  1  1  0  0  0
 46 44  1  0  0  0  0
 47 46  1  0  0  0  0
 47 49  1  0  0  0  0
 48 47  2  0  0  0  0
M  END
>  <MODEL>
8

>  <REMARK>
 VINA RESULT:      -5.7      5.223      7.464
  Name = 
  17 active torsions:
  status: ('A' for Active; 'I' for Inactive)
    1  A    between atoms: C_2  and  N_48
    2  A    between atoms: C_5  and  O_6
    3  A    between atoms: C_5  and  C_7
    4  A    between atoms: O_6  and  C_25
    5  A    between atoms: N_9  and  C_13
    6  A    between atoms: N_9  and  C_31
    7  A    between atoms: C_12  and  C_20
    8  A    between atoms: C_14  and  C_45
    9  A    between atoms: C_15  and  O_32
   10  A    between atoms: N_21  and  C_46
   11  A    between atoms: N_23  and  C_40
   12  A    between atoms: C_24  and  C_44
   13  A    between atoms: C_27  and  C_49
   14  A    between atoms: C_29  and  C_46
   15  A    between atoms: O_32  and  C_44
   16  A    between atoms: C_38  and  N_42
   17  A    between atoms: N_42  and  C_49
                            x       y       z     vdW  Elec       q    Type
                         _______ _______ _______ _____ _____    ______ ____

>  <TORSDO>
F 17

$$$$
=
 OpenBabel11042417143D

 49 52  0  0  1  0  0  0  0  0999 V2000
  192.4090  171.3420  137.9960 C   0  0  2  0  0  3  0  0  0  0  0  0
  192.8200  170.6480  139.2870 C   0  0  0  0  0  2  0  0  0  0  0  0
  192.3550  172.9640  139.7780 C   0  0  2  0  0  3  0  0  0  0  0  0
  191.7100  172.6410  138.4220 C   0  0  2  0  0  3  0  0  0  0  0  0
  192.8780  171.7010  140.2800 N   0  0  0  0  0  0  0  0  0  0  0  0
  194.4730  170.6670  143.5150 C   0  0  0  0  0  0  0  0  0  0  0  0
  192.3450  169.9750  142.4920 N   0  0  0  0  0  1  0  0  0  0  0  0
  194.9590  172.3860  141.3520 C   0  0  0  0  0  3  0  0  0  0  0  0
  195.6570  171.4270  143.4710 C   0  0  0  0  0  0  0  0  0  0  0  0
  193.7870  171.6250  141.3810 C   0  0  0  0  0  0  0  0  0  0  0  0
  195.8870  172.2880  142.3880 C   0  0  0  0  0  3  0  0  0  0  0  0
  193.5400  170.7600  142.4650 C   0  0  0  0  0  0  0  0  0  0  0  0
  194.2230  169.7840  144.6340 C   0  0  0  0  0  0  0  0  0  0  0  0
  194.0270  169.0740  145.5300 N   0  0  0  0  0  0  0  0  0  0  0  0
  196.6160  171.3230  144.5310 N   0  0  0  0  0  2  0  0  0  0  0  0
  197.4920  172.4130  144.9450 C   0  0  0  0  0  2  0  0  0  0  0  0
  196.5350  174.5730  144.9920 F   0  0  0  0  0  0  0  0  0  0  0  0
  197.4290  173.7740  146.9000 F   0  0  0  0  0  0  0  0  0  0  0  0
  196.7230  173.4400  145.7600 C   0  0  0  0  0  0  0  0  0  0  0  0
  195.4920  172.9290  146.1210 F   0  0  0  0  0  0  0  0  0  0  0  0
  190.5660  172.7140  141.5890 C   0  0  0  0  0  2  0  0  0  0  0  0
  191.4890  174.3430  143.1190 C   0  0  2  0  0  3  0  0  0  0  0  0
  192.2110  174.4840  141.7860 C   0  0  0  0  0  2  0  0  0  0  0  0
  190.2920  173.4430  142.8830 C   0  0  0  0  0  2  0  0  0  0  0  0
  191.4230  173.6690  140.7800 C   0  0  1  0  0  3  0  0  0  0  0  0
  190.6480  176.4880  142.7600 N   0  0  0  0  0  0  0  0  0  0  0  0
  191.0350  175.6300  143.5750 N   0  0  0  0  0  0  0  0  0  0  0  0
  190.1870  177.7770  143.2130 C   0  0  0  0  0  2  0  0  0  0  0  0
  187.8970  177.9210  144.2310 C   0  0  0  0  0  3  0  0  0  0  0  0
  188.1160  177.9150  141.8270 C   0  0  0  0  0  3  0  0  0  0  0  0
  188.7030  177.8810  143.0910 C   0  0  0  0  0  0  0  0  0  0  0  0
  186.5030  177.9960  144.0940 C   0  0  0  0  0  0  0  0  0  0  0  0
  186.7280  177.9920  141.7220 C   0  0  0  0  0  3  0  0  0  0  0  0
  185.9600  178.0290  142.8440 N   0  0  0  0  0  0  0  0  0  0  0  0
  185.6500  178.0320  145.2520 N   0  0  0  0  0  0  0  0  0  0  0  0
  184.3180  178.6300  145.1660 C   0  0  0  0  0  1  0  0  0  0  0  0
  185.8880  178.0610  147.6650 C   0  0  0  0  0  2  0  0  0  0  0  0
  186.1190  177.4780  146.4910 C   0  0  0  0  0  3  0  0  0  0  0  0
  191.5740  170.4370  137.0710 C   0  0  2  0  0  3  0  0  0  0  0  0
  191.0500  169.1810  137.7690 C   0  0  0  0  0  1  0  0  0  0  0  0
  192.2170  170.1410  135.8450 O   0  0  0  0  0  0  0  0  0  0  0  0
  191.7790  171.0440  134.8620 C   0  0  0  0  0  2  0  0  0  0  0  0
  190.4310  170.8080  134.5830 O   0  0  0  0  0  1  0  0  0  0  0  0
  190.3260  172.4350  138.5500 O   0  0  0  0  0  0  0  0  0  0  0  0
  189.6640  173.3690  136.5700 O   0  0  0  0  0  1  0  0  0  0  0  0
  189.7270  173.5510  137.9540 C   0  0  1  0  0  3  0  0  0  0  0  0
  188.3510  173.7400  138.5010 C   0  0  0  0  0  0  0  0  0  0  0  0
  187.8160  172.7930  139.3640 O   0  0  0  0  0  1  0  0  0  0  0  0
  187.6640  174.7410  138.1700 O   0  0  0  0  0  0  0  0  0  0  0  0
  1 39  1  1  0  0  0
  1  4  1  0  0  0  0
  1  2  1  0  0  0  0
  2  5  1  0  0  0  0
  3  5  1  1  0  0  0
  3 25  1  0  0  0  0
  4 44  1  1  0  0  0
  4  3  1  0  0  0  0
  5 10  1  0  0  0  0
  6 13  1  0  0  0  0
  8 10  2  0  0  0  0
  8 11  1  0  0  0  0
  9  6  1  0  0  0  0
  9 15  1  0  0  0  0
 10 12  1  0  0  0  0
 11  9  2  0  0  0  0
 12  7  1  0  0  0  0
 12  6  2  0  0  0  0
 13 14  3  0  0  0  0
 15 16  1  0  0  0  0
 16 19  1  0  0  0  0
 17 19  1  0  0  0  0
 19 20  1  0  0  0  0
 19 18  1  0  0  0  0
 21 24  1  0  0  0  0
 22 27  1  6  0  0  0
 23 22  1  0  0  0  0
 24 22  1  0  0  0  0
 25 21  1  1  0  0  0
 25 23  1  0  0  0  0
 26 28  1  0  0  0  0
 26 27  2  0  0  0  0
 30 31  1  0  0  0  0
 31 28  1  0  0  0  0
 31 29  2  0  0  0  0
 32 29  1  0  0  0  0
 32 35  1  0  0  0  0
 33 30  2  0  0  0  0
 33 34  1  0  0  0  0
 34 32  2  0  0  0  0
 35 38  1  0  0  0  0
 36 35  1  0  0  0  0
 38 37  2  0  0  0  0
 39 40  1  1  0  0  0
 41 39  1  0  0  0  0
 42 41  1  0  0  0  0
 43 42  1  0  0  0  0
 46 45  1  6  0  0  0
 46 47  1  0  0  0  0
 46 44  1  0  0  0  0
 47 48  1  0  0  0  0
 49 47  2  0  0  0  0
M  END
>  <MODEL>
9

>  <REMARK>
 VINA RESULT:      -5.6      4.473      9.073
  Name = 
  17 active torsions:
  status: ('A' for Active; 'I' for Inactive)
    1  A    between atoms: C_2  and  N_48
    2  A    between atoms: C_5  and  O_6
    3  A    between atoms: C_5  and  C_7
    4  A    between atoms: O_6  and  C_25
    5  A    between atoms: N_9  and  C_13
    6  A    between atoms: N_9  and  C_31
    7  A    between atoms: C_12  and  C_20
    8  A    between atoms: C_14  and  C_45
    9  A    between atoms: C_15  and  O_32
   10  A    between atoms: N_21  and  C_46
   11  A    between atoms: N_23  and  C_40
   12  A    between atoms: C_24  and  C_44
   13  A    between atoms: C_27  and  C_49
   14  A    between atoms: C_29  and  C_46
   15  A    between atoms: O_32  and  C_44
   16  A    between atoms: C_38  and  N_42
   17  A    between atoms: N_42  and  C_49
                            x       y       z     vdW  Elec       q    Type
                         _______ _______ _______ _____ _____    ______ ____

>  <TORSDO>
F 17

$$$$
