=
 OpenBabel11042416293D

 29 32  0  0  1  0  0  0  0  0999 V2000
  185.4310  178.7860  145.2350 C   0  0  0  0  0  0  0  0  0  0  0  0
  186.8690  177.2830  140.8460 C   0  0  0  0  0  0  0  0  0  0  0  0
  189.3350  177.0980  143.5470 C   0  0  0  0  0  3  0  0  0  0  0  0
  188.4970  176.0390  141.5480 C   0  0  0  0  0  0  0  0  0  0  0  0
  187.4930  176.1830  140.5580 N   0  0  0  0  0  0  0  0  0  0  0  0
  190.3200  175.0190  142.7250 C   0  0  0  0  0  0  0  0  0  0  0  0
  183.9200  178.6620  143.3810 N   0  0  0  0  0  0  0  0  0  0  0  0
  187.3910  178.0130  142.0600 C   0  0  1  0  0  3  0  0  0  0  0  0
  186.2540  178.2280  143.0260 C   0  0  0  0  0  0  0  0  0  0  0  0
  190.2810  176.0670  143.6680 C   0  0  0  0  0  3  0  0  0  0  0  0
  185.5690  177.5650  140.3250 N   0  0  0  0  0  0  0  0  0  0  0  0
  184.1360  178.8740  144.7070 C   0  0  0  0  0  3  0  0  0  0  0  0
  189.4200  175.0000  141.6470 C   0  0  0  0  0  3  0  0  0  0  0  0
  191.3240  173.9330  142.8700 C   0  0  0  0  0  1  0  0  0  0  0  0
  183.3110  178.3740  140.5220 C   0  0  0  0  0  1  0  0  0  0  0  0
  186.4910  178.4750  144.3830 C   0  0  0  0  0  3  0  0  0  0  0  0
  184.9360  178.3520  142.5300 C   0  0  0  0  0  0  0  0  0  0  0  0
  184.6600  178.1020  141.0890 C   0  0  0  0  0  0  0  0  0  0  0  0
  188.4340  177.0390  142.4840 C   0  0  0  0  0  0  0  0  0  0  0  0
  184.5140  178.5750  147.5360 C   0  0  0  0  0  1  0  0  0  0  0  0
  185.6960  179.0160  146.6930 C   0  0  1  0  0  3  0  0  0  0  0  0
  186.9610  178.2960  147.1460 C   0  0  0  0  0  2  0  0  0  0  0  0
  186.7120  176.8030  147.2660 C   0  0  0  0  0  2  0  0  0  0  0  0
  187.8220  176.0370  146.5710 C   0  0  0  0  0  2  0  0  0  0  0  0
  188.5730  175.1720  147.5710 C   0  0  0  0  0  2  0  0  0  0  0  0
  190.8390  176.8660  148.0140 O   0  0  0  0  0  0  0  0  0  0  0  0
  189.9290  174.9160  147.1030 N   0  0  0  0  0  2  0  0  0  0  0  0
  192.3030  175.5160  146.8250 N   0  0  0  0  0  1  0  0  0  0  0  0
  191.0140  175.8130  147.3450 C   0  0  0  0  0  0  0  0  0  0  0  0
  1 21  1  0  0  0  0
  3 10  1  0  0  0  0
  4 13  2  0  0  0  0
  4 19  1  0  0  0  0
  5  2  2  0  0  0  0
  5  4  1  0  0  0  0
  6 14  1  0  0  0  0
  6 10  2  0  0  0  0
  7 12  2  0  0  0  0
  8  2  1  6  0  0  0
  8 19  1  0  0  0  0
  8  9  1  0  0  0  0
  9 16  1  0  0  0  0
 11  2  1  0  0  0  0
 11 18  2  0  0  0  0
 12  1  1  0  0  0  0
 13  6  1  0  0  0  0
 15 18  1  0  0  0  0
 16  1  2  0  0  0  0
 17  9  2  0  0  0  0
 17  7  1  0  0  0  0
 18 17  1  0  0  0  0
 19  3  2  0  0  0  0
 21 22  1  0  0  0  0
 21 20  1  1  0  0  0
 22 23  1  0  0  0  0
 24 23  1  0  0  0  0
 24 25  1  0  0  0  0
 27 29  1  0  0  0  0
 27 25  1  0  0  0  0
 28 29  1  0  0  0  0
 29 26  2  0  0  0  0
M  END
>  <MODEL>
1

>  <REMARK>
 VINA RESULT:      -7.8      0.000      0.000
  Name = 
  6 active torsions:
  status: ('A' for Active; 'I' for Inactive)
    1  A    between atoms: C_1  and  C_27
    2  A    between atoms: C_17  and  C_19
    3  A    between atoms: C_17  and  C_29
    4  A    between atoms: C_19  and  C_27
    5  A    between atoms: N_21  and  C_26
    6  A    between atoms: C_26  and  C_29
                            x       y       z     vdW  Elec       q    Type
                         _______ _______ _______ _____ _____    ______ ____

>  <TORSDO>
F 6

$$$$
=
 OpenBabel11042416293D

 29 32  0  0  1  0  0  0  0  0999 V2000
  189.0820  174.5470  142.9040 C   0  0  0  0  0  0  0  0  0  0  0  0
  185.5130  177.8330  142.6850 C   0  0  0  0  0  0  0  0  0  0  0  0
  186.4690  176.6500  146.0160 C   0  0  0  0  0  3  0  0  0  0  0  0
  185.7250  178.5440  144.7200 C   0  0  0  0  0  0  0  0  0  0  0  0
  185.3960  178.9140  143.3920 N   0  0  0  0  0  0  0  0  0  0  0  0
  186.1290  178.8290  147.0670 C   0  0  0  0  0  0  0  0  0  0  0  0
  188.4310  175.5740  140.8400 N   0  0  0  0  0  0  0  0  0  0  0  0
  185.9250  176.6060  143.4620 C   0  0  1  0  0  3  0  0  0  0  0  0
  187.1610  176.0200  142.8280 C   0  0  0  0  0  0  0  0  0  0  0  0
  186.4860  177.4680  147.1570 C   0  0  0  0  0  3  0  0  0  0  0  0
  185.6440  177.8790  141.2630 N   0  0  0  0  0  0  0  0  0  0  0  0
  189.2780  174.7670  141.5340 C   0  0  0  0  0  3  0  0  0  0  0  0
  185.7400  179.3800  145.8340 C   0  0  0  0  0  3  0  0  0  0  0  0
  186.1560  179.6830  148.2830 C   0  0  0  0  0  1  0  0  0  0  0  0
  186.6100  177.1690  139.1760 C   0  0  0  0  0  1  0  0  0  0  0  0
  188.0090  175.1680  143.5440 C   0  0  0  0  0  3  0  0  0  0  0  0
  187.3800  176.1950  141.4420 C   0  0  0  0  0  0  0  0  0  0  0  0
  186.4870  177.0910  140.6580 C   0  0  0  0  0  0  0  0  0  0  0  0
  186.1080  177.2290  144.8010 C   0  0  0  0  0  0  0  0  0  0  0  0
  191.4510  174.0480  143.4670 C   0  0  0  0  0  1  0  0  0  0  0  0
  190.0010  173.6610  143.6910 C   0  0  1  0  0  3  0  0  0  0  0  0
  189.6720  173.7040  145.1790 C   0  0  0  0  0  2  0  0  0  0  0  0
  190.6830  174.5560  145.9260 C   0  0  0  0  0  2  0  0  0  0  0  0
  189.9630  175.5230  146.8480 C   0  0  0  0  0  2  0  0  0  0  0  0
  190.3870  176.9520  146.5490 C   0  0  0  0  0  2  0  0  0  0  0  0
  192.0130  177.5340  144.2650 O   0  0  0  0  0  0  0  0  0  0  0  0
  189.8960  177.3640  145.2410 N   0  0  0  0  0  2  0  0  0  0  0  0
  190.2170  178.0900  142.9070 N   0  0  0  0  0  1  0  0  0  0  0  0
  190.7650  177.6560  144.1450 C   0  0  0  0  0  0  0  0  0  0  0  0
  1 16  1  0  0  0  0
  1 21  1  0  0  0  0
  2  5  2  0  0  0  0
  3 10  1  0  0  0  0
  4 19  1  0  0  0  0
  4 13  2  0  0  0  0
  5  4  1  0  0  0  0
  6 10  2  0  0  0  0
  6 14  1  0  0  0  0
  7 17  2  0  0  0  0
  7 12  1  0  0  0  0
  8  2  1  6  0  0  0
  8 19  1  0  0  0  0
  9  8  1  0  0  0  0
  9 16  2  0  0  0  0
 11  2  1  0  0  0  0
 12  1  2  0  0  0  0
 13  6  1  0  0  0  0
 15 18  1  0  0  0  0
 17  9  1  0  0  0  0
 18 11  2  0  0  0  0
 18 17  1  0  0  0  0
 19  3  2  0  0  0  0
 21 20  1  1  0  0  0
 21 22  1  0  0  0  0
 22 23  1  0  0  0  0
 23 24  1  0  0  0  0
 25 24  1  0  0  0  0
 27 25  1  0  0  0  0
 28 29  1  0  0  0  0
 29 26  2  0  0  0  0
 29 27  1  0  0  0  0
M  END
>  <MODEL>
2

>  <REMARK>
 VINA RESULT:      -7.7      1.799      5.090
  Name = 
  6 active torsions:
  status: ('A' for Active; 'I' for Inactive)
    1  A    between atoms: C_1  and  C_27
    2  A    between atoms: C_17  and  C_19
    3  A    between atoms: C_17  and  C_29
    4  A    between atoms: C_19  and  C_27
    5  A    between atoms: N_21  and  C_26
    6  A    between atoms: C_26  and  C_29
                            x       y       z     vdW  Elec       q    Type
                         _______ _______ _______ _____ _____    ______ ____

>  <TORSDO>
F 6

$$$$
=
 OpenBabel11042416293D

 29 32  0  0  1  0  0  0  0  0999 V2000
  188.5210  176.1880  146.2830 C   0  0  0  0  0  0  0  0  0  0  0  0
  187.2920  177.7610  141.8560 C   0  0  0  0  0  0  0  0  0  0  0  0
  189.7180  175.0230  142.0230 C   0  0  0  0  0  3  0  0  0  0  0  0
  187.8580  175.9560  140.8010 C   0  0  0  0  0  0  0  0  0  0  0  0
  186.9460  177.0410  140.8330 N   0  0  0  0  0  0  0  0  0  0  0  0
  188.8460  173.9120  140.0300 C   0  0  0  0  0  0  0  0  0  0  0  0
  186.8240  177.8460  145.9530 N   0  0  0  0  0  0  0  0  0  0  0  0
  188.4860  177.2470  142.6230 C   0  0  1  0  0  3  0  0  0  0  0  0
  188.0990  177.0800  144.0710 C   0  0  0  0  0  0  0  0  0  0  0  0
  189.7650  173.9680  141.0970 C   0  0  0  0  0  3  0  0  0  0  0  0
  186.3960  178.7070  142.4410 N   0  0  0  0  0  0  0  0  0  0  0  0
  187.5020  177.0100  146.7840 C   0  0  0  0  0  3  0  0  0  0  0  0
  187.8770  174.9180  139.8730 C   0  0  0  0  0  3  0  0  0  0  0  0
  188.9060  172.7860  139.0610 C   0  0  0  0  0  1  0  0  0  0  0  0
  185.3670  179.8050  144.3200 C   0  0  0  0  0  1  0  0  0  0  0  0
  188.8240  176.2390  144.9220 C   0  0  0  0  0  3  0  0  0  0  0  0
  187.0970  177.9100  144.6220 C   0  0  0  0  0  0  0  0  0  0  0  0
  186.3180  178.8190  143.7370 C   0  0  0  0  0  0  0  0  0  0  0  0
  188.7290  175.9920  141.8610 C   0  0  0  0  0  0  0  0  0  0  0  0
  189.5930  173.9530  146.4670 C   0  0  0  0  0  1  0  0  0  0  0  0
  189.2850  175.2590  147.1770 C   0  0  1  0  0  3  0  0  0  0  0  0
  190.5750  175.9020  147.6730 C   0  0  0  0  0  2  0  0  0  0  0  0
  191.7780  175.2970  146.9720 C   0  0  0  0  0  2  0  0  0  0  0  0
  192.4760  176.3560  146.1380 C   0  0  0  0  0  2  0  0  0  0  0  0
  193.9290  176.4900  146.5650 C   0  0  0  0  0  2  0  0  0  0  0  0
  195.4670  174.8890  144.7560 O   0  0  0  0  0  0  0  0  0  0  0  0
  194.7380  176.9940  145.4630 N   0  0  0  0  0  2  0  0  0  0  0  0
  196.2930  176.7040  143.5730 N   0  0  0  0  0  1  0  0  0  0  0  0
  195.4960  176.1390  144.6060 C   0  0  0  0  0  0  0  0  0  0  0  0
  1 12  1  0  0  0  0
  1 21  1  0  0  0  0
  2 11  1  0  0  0  0
  4  5  1  0  0  0  0
  4 19  2  0  0  0  0
  5  2  2  0  0  0  0
  6 10  1  0  0  0  0
  7 12  2  0  0  0  0
  8  2  1  6  0  0  0
  8  9  1  0  0  0  0
  9 17  2  0  0  0  0
  9 16  1  0  0  0  0
 10  3  2  0  0  0  0
 11 18  2  0  0  0  0
 13  6  2  0  0  0  0
 13  4  1  0  0  0  0
 14  6  1  0  0  0  0
 16  1  2  0  0  0  0
 17  7  1  0  0  0  0
 18 15  1  0  0  0  0
 18 17  1  0  0  0  0
 19  3  1  0  0  0  0
 19  8  1  0  0  0  0
 21 20  1  6  0  0  0
 21 22  1  0  0  0  0
 23 22  1  0  0  0  0
 24 25  1  0  0  0  0
 24 23  1  0  0  0  0
 27 25  1  0  0  0  0
 28 29  1  0  0  0  0
 29 26  2  0  0  0  0
 29 27  1  0  0  0  0
M  END
>  <MODEL>
3

>  <REMARK>
 VINA RESULT:      -7.4      2.452      4.052
  Name = 
  6 active torsions:
  status: ('A' for Active; 'I' for Inactive)
    1  A    between atoms: C_1  and  C_27
    2  A    between atoms: C_17  and  C_19
    3  A    between atoms: C_17  and  C_29
    4  A    between atoms: C_19  and  C_27
    5  A    between atoms: N_21  and  C_26
    6  A    between atoms: C_26  and  C_29
                            x       y       z     vdW  Elec       q    Type
                         _______ _______ _______ _____ _____    ______ ____

>  <TORSDO>
F 6

$$$$
=
 OpenBabel11042416293D

 29 32  0  0  1  0  0  0  0  0999 V2000
  187.1790  177.1710  145.8830 C   0  0  0  0  0  0  0  0  0  0  0  0
  191.1270  174.5930  144.7180 C   0  0  0  0  0  0  0  0  0  0  0  0
  188.1770  174.1510  142.5940 C   0  0  0  0  0  3  0  0  0  0  0  0
  190.5860  174.2620  142.6470 C   0  0  0  0  0  0  0  0  0  0  0  0
  191.6650  174.4660  143.5450 N   0  0  0  0  0  0  0  0  0  0  0  0
  189.4860  173.9220  140.5440 C   0  0  0  0  0  0  0  0  0  0  0  0
  189.2600  177.4480  147.0380 N   0  0  0  0  0  0  0  0  0  0  0  0
  189.6220  174.4770  144.7460 C   0  0  1  0  0  3  0  0  0  0  0  0
  189.0500  175.7120  145.3950 C   0  0  0  0  0  0  0  0  0  0  0  0
  188.2410  173.9540  141.2050 C   0  0  0  0  0  3  0  0  0  0  0  0
  191.8360  175.1890  145.8060 N   0  0  0  0  0  0  0  0  0  0  0  0
  187.9780  177.8450  146.8180 C   0  0  0  0  0  3  0  0  0  0  0  0
  190.6790  174.0760  141.2700 C   0  0  0  0  0  3  0  0  0  0  0  0
  189.5360  173.7170  139.0730 C   0  0  0  0  0  1  0  0  0  0  0  0
  191.9930  176.6260  147.7300 C   0  0  0  0  0  1  0  0  0  0  0  0
  187.7200  176.0930  145.1830 C   0  0  0  0  0  3  0  0  0  0  0  0
  189.8120  176.4030  146.3640 C   0  0  0  0  0  0  0  0  0  0  0  0
  191.2260  176.0110  146.6120 C   0  0  0  0  0  0  0  0  0  0  0  0
  189.3740  174.3300  143.2860 C   0  0  0  0  0  0  0  0  0  0  0  0
  184.8070  176.8840  146.5700 C   0  0  0  0  0  1  0  0  0  0  0  0
  185.7630  177.5870  145.6230 C   0  0  1  0  0  3  0  0  0  0  0  0
  185.5990  179.0980  145.7400 C   0  0  0  0  0  2  0  0  0  0  0  0
  185.4460  179.7270  144.3660 C   0  0  0  0  0  2  0  0  0  0  0  0
  184.6920  178.7840  143.4470 C   0  0  0  0  0  2  0  0  0  0  0  0
  185.4740  178.5590  142.1640 C   0  0  0  0  0  2  0  0  0  0  0  0
  187.4250  177.1850  140.5800 O   0  0  0  0  0  0  0  0  0  0  0  0
  186.9030  178.4940  142.4450 N   0  0  0  0  0  2  0  0  0  0  0  0
  189.1970  177.7230  141.9770 N   0  0  0  0  0  1  0  0  0  0  0  0
  187.8220  177.7750  141.6200 C   0  0  0  0  0  0  0  0  0  0  0  0
  1 12  1  0  0  0  0
  2  8  1  0  0  0  0
  2 11  1  0  0  0  0
  3 19  1  0  0  0  0
  4 19  2  0  0  0  0
  4  5  1  0  0  0  0
  5  2  2  0  0  0  0
  6 10  1  0  0  0  0
  6 13  2  0  0  0  0
  8 19  1  6  0  0  0
  8  9  1  0  0  0  0
  9 17  2  0  0  0  0
 10  3  2  0  0  0  0
 11 18  2  0  0  0  0
 12  7  2  0  0  0  0
 13  4  1  0  0  0  0
 14  6  1  0  0  0  0
 16  9  1  0  0  0  0
 16  1  2  0  0  0  0
 17 18  1  0  0  0  0
 17  7  1  0  0  0  0
 18 15  1  0  0  0  0
 21 22  1  0  0  0  0
 21  1  1  0  0  0  0
 21 20  1  1  0  0  0
 23 22  1  0  0  0  0
 24 23  1  0  0  0  0
 25 27  1  0  0  0  0
 25 24  1  0  0  0  0
 26 29  2  0  0  0  0
 29 28  1  0  0  0  0
 29 27  1  0  0  0  0
M  END
>  <MODEL>
4

>  <REMARK>
 VINA RESULT:      -7.3      2.309      5.541
  Name = 
  6 active torsions:
  status: ('A' for Active; 'I' for Inactive)
    1  A    between atoms: C_1  and  C_27
    2  A    between atoms: C_17  and  C_19
    3  A    between atoms: C_17  and  C_29
    4  A    between atoms: C_19  and  C_27
    5  A    between atoms: N_21  and  C_26
    6  A    between atoms: C_26  and  C_29
                            x       y       z     vdW  Elec       q    Type
                         _______ _______ _______ _____ _____    ______ ____

>  <TORSDO>
F 6

$$$$
=
 OpenBabel11042416293D

 29 32  0  0  1  0  0  0  0  0999 V2000
  188.1910  176.5750  146.2630 C   0  0  0  0  0  0  0  0  0  0  0  0
  191.8850  174.4180  143.9650 C   0  0  0  0  0  0  0  0  0  0  0  0
  188.5120  173.6200  142.7840 C   0  0  0  0  0  3  0  0  0  0  0  0
  190.8060  173.9920  142.1360 C   0  0  0  0  0  0  0  0  0  0  0  0
  192.0690  174.3280  142.6840 N   0  0  0  0  0  0  0  0  0  0  0  0
  189.1860  173.4960  140.4390 C   0  0  0  0  0  0  0  0  0  0  0  0
  190.4740  177.0970  146.7670 N   0  0  0  0  0  0  0  0  0  0  0  0
  190.4750  174.1400  144.4270 C   0  0  1  0  0  3  0  0  0  0  0  0
  189.9850  175.3180  145.2320 C   0  0  0  0  0  0  0  0  0  0  0  0
  188.1910  173.4050  141.4340 C   0  0  0  0  0  3  0  0  0  0  0  0
  192.8110  175.1070  144.8080 N   0  0  0  0  0  0  0  0  0  0  0  0
  189.1480  177.3480  146.9340 C   0  0  0  0  0  3  0  0  0  0  0  0
  190.5140  173.7910  140.7890 C   0  0  0  0  0  3  0  0  0  0  0  0
  188.8290  173.2700  139.0140 C   0  0  0  0  0  1  0  0  0  0  0  0
  193.3630  176.5880  146.6230 C   0  0  0  0  0  1  0  0  0  0  0  0
  188.6180  175.5480  145.4210 C   0  0  0  0  0  3  0  0  0  0  0  0
  190.9160  176.1050  145.9470 C   0  0  0  0  0  0  0  0  0  0  0  0
  192.3760  175.8730  145.7680 C   0  0  0  0  0  0  0  0  0  0  0  0
  189.8310  173.9400  143.1000 C   0  0  0  0  0  0  0  0  0  0  0  0
  186.4770  177.9250  147.4550 C   0  0  0  0  0  1  0  0  0  0  0  0
  186.7230  176.8300  146.4320 C   0  0  1  0  0  3  0  0  0  0  0  0
  186.0680  177.1980  145.1050 C   0  0  0  0  0  2  0  0  0  0  0  0
  186.3330  178.6540  144.7630 C   0  0  0  0  0  2  0  0  0  0  0  0
  185.3130  179.1400  143.7500 C   0  0  0  0  0  2  0  0  0  0  0  0
  184.7430  177.9660  142.9710 C   0  0  0  0  0  2  0  0  0  0  0  0
  187.0510  176.7030  141.8400 O   0  0  0  0  0  0  0  0  0  0  0  0
  185.1510  178.0380  141.5740 N   0  0  0  0  0  2  0  0  0  0  0  0
  186.6850  177.5410  139.7090 N   0  0  0  0  0  1  0  0  0  0  0  0
  186.3270  177.3960  141.0770 C   0  0  0  0  0  0  0  0  0  0  0  0
  1 21  1  0  0  0  0
  1 12  1  0  0  0  0
  2  8  1  0  0  0  0
  2 11  1  0  0  0  0
  3 19  1  0  0  0  0
  4  5  1  0  0  0  0
  4 19  2  0  0  0  0
  5  2  2  0  0  0  0
  6 13  2  0  0  0  0
  6 10  1  0  0  0  0
  7 12  2  0  0  0  0
  8 19  1  6  0  0  0
  8  9  1  0  0  0  0
  9 16  1  0  0  0  0
  9 17  2  0  0  0  0
 10  3  2  0  0  0  0
 11 18  2  0  0  0  0
 13  4  1  0  0  0  0
 14  6  1  0  0  0  0
 16  1  2  0  0  0  0
 17  7  1  0  0  0  0
 18 17  1  0  0  0  0
 18 15  1  0  0  0  0
 21 20  1  1  0  0  0
 22 21  1  0  0  0  0
 23 22  1  0  0  0  0
 24 23  1  0  0  0  0
 25 24  1  0  0  0  0
 27 25  1  0  0  0  0
 28 29  1  0  0  0  0
 29 27  1  0  0  0  0
 29 26  2  0  0  0  0
M  END
>  <MODEL>
5

>  <REMARK>
 VINA RESULT:      -7.1      2.246      6.017
  Name = 
  6 active torsions:
  status: ('A' for Active; 'I' for Inactive)
    1  A    between atoms: C_1  and  C_27
    2  A    between atoms: C_17  and  C_19
    3  A    between atoms: C_17  and  C_29
    4  A    between atoms: C_19  and  C_27
    5  A    between atoms: N_21  and  C_26
    6  A    between atoms: C_26  and  C_29
                            x       y       z     vdW  Elec       q    Type
                         _______ _______ _______ _____ _____    ______ ____

>  <TORSDO>
F 6

$$$$
=
 OpenBabel11042416293D

 29 32  0  0  1  0  0  0  0  0999 V2000
  189.0130  174.5330  142.8760 C   0  0  0  0  0  0  0  0  0  0  0  0
  185.4970  177.8730  142.6250 C   0  0  0  0  0  0  0  0  0  0  0  0
  186.4020  176.6730  145.9640 C   0  0  0  0  0  3  0  0  0  0  0  0
  185.7000  178.5790  144.6620 C   0  0  0  0  0  0  0  0  0  0  0  0
  185.3890  178.9560  143.3320 N   0  0  0  0  0  0  0  0  0  0  0  0
  186.0850  178.8570  147.0130 C   0  0  0  0  0  0  0  0  0  0  0  0
  188.3980  175.5720  140.8070 N   0  0  0  0  0  0  0  0  0  0  0  0
  185.8820  176.6390  143.4040 C   0  0  1  0  0  3  0  0  0  0  0  0
  187.1160  176.0350  142.7820 C   0  0  0  0  0  0  0  0  0  0  0  0
  186.4200  177.4900  147.1060 C   0  0  0  0  0  3  0  0  0  0  0  0
  185.6420  177.9180  141.2040 N   0  0  0  0  0  0  0  0  0  0  0  0
  189.2260  174.7520  141.5080 C   0  0  0  0  0  3  0  0  0  0  0  0
  185.7170  179.4150  145.7770 C   0  0  0  0  0  3  0  0  0  0  0  0
  186.1130  179.7090  148.2300 C   0  0  0  0  0  1  0  0  0  0  0  0
  186.6190  177.1950  139.1270 C   0  0  0  0  0  1  0  0  0  0  0  0
  187.9440  175.1700  143.5060 C   0  0  0  0  0  3  0  0  0  0  0  0
  187.3510  176.2090  141.3990 C   0  0  0  0  0  0  0  0  0  0  0  0
  186.4790  177.1180  140.6070 C   0  0  0  0  0  0  0  0  0  0  0  0
  186.0620  177.2590  144.7460 C   0  0  0  0  0  0  0  0  0  0  0  0
  191.2840  173.5340  143.0330 C   0  0  0  0  0  1  0  0  0  0  0  0
  189.9100  173.6330  143.6710 C   0  0  1  0  0  3  0  0  0  0  0  0
  190.0370  174.1100  145.1140 C   0  0  0  0  0  2  0  0  0  0  0  0
  191.1760  175.1060  145.2490 C   0  0  0  0  0  2  0  0  0  0  0  0
  191.5070  175.3160  146.7150 C   0  0  0  0  0  2  0  0  0  0  0  0
  192.7930  176.1150  146.8560 C   0  0  0  0  0  2  0  0  0  0  0  0
  194.8140  177.8500  145.8070 O   0  0  0  0  0  0  0  0  0  0  0  0
  193.7140  175.7880  145.7760 N   0  0  0  0  0  2  0  0  0  0  0  0
  195.5330  176.3360  144.2040 N   0  0  0  0  0  1  0  0  0  0  0  0
  194.6910  176.7090  145.2880 C   0  0  0  0  0  0  0  0  0  0  0  0
  1 16  1  0  0  0  0
  1 21  1  0  0  0  0
  2  5  2  0  0  0  0
  3 10  1  0  0  0  0
  4 19  1  0  0  0  0
  4 13  2  0  0  0  0
  5  4  1  0  0  0  0
  6 10  2  0  0  0  0
  6 14  1  0  0  0  0
  7 17  2  0  0  0  0
  7 12  1  0  0  0  0
  8  2  1  6  0  0  0
  8 19  1  0  0  0  0
  9  8  1  0  0  0  0
  9 16  2  0  0  0  0
 11  2  1  0  0  0  0
 12  1  2  0  0  0  0
 13  6  1  0  0  0  0
 15 18  1  0  0  0  0
 17  9  1  0  0  0  0
 18 11  2  0  0  0  0
 18 17  1  0  0  0  0
 19  3  2  0  0  0  0
 21 20  1  6  0  0  0
 21 22  1  0  0  0  0
 22 23  1  0  0  0  0
 23 24  1  0  0  0  0
 24 25  1  0  0  0  0
 27 25  1  0  0  0  0
 28 29  1  0  0  0  0
 29 27  1  0  0  0  0
 29 26  2  0  0  0  0
M  END
>  <MODEL>
6

>  <REMARK>
 VINA RESULT:      -7.0      1.944      5.220
  Name = 
  6 active torsions:
  status: ('A' for Active; 'I' for Inactive)
    1  A    between atoms: C_1  and  C_27
    2  A    between atoms: C_17  and  C_19
    3  A    between atoms: C_17  and  C_29
    4  A    between atoms: C_19  and  C_27
    5  A    between atoms: N_21  and  C_26
    6  A    between atoms: C_26  and  C_29
                            x       y       z     vdW  Elec       q    Type
                         _______ _______ _______ _____ _____    ______ ____

>  <TORSDO>
F 6

$$$$
=
 OpenBabel11042416293D

 29 32  0  0  1  0  0  0  0  0999 V2000
  188.8370  176.0700  144.1720 C   0  0  0  0  0  0  0  0  0  0  0  0
  185.1690  179.1070  145.1250 C   0  0  0  0  0  0  0  0  0  0  0  0
  185.6780  178.1780  141.6200 C   0  0  0  0  0  3  0  0  0  0  0  0
  184.0460  178.6890  143.3210 C   0  0  0  0  0  0  0  0  0  0  0  0
  183.9480  179.0240  144.6950 N   0  0  0  0  0  0  0  0  0  0  0  0
  183.2870  178.1320  141.1160 C   0  0  0  0  0  0  0  0  0  0  0  0
  188.2300  176.6590  146.4130 N   0  0  0  0  0  0  0  0  0  0  0  0
  186.2300  178.8480  144.0830 C   0  0  1  0  0  3  0  0  0  0  0  0
  187.1360  177.7470  144.5750 C   0  0  0  0  0  0  0  0  0  0  0  0
  184.6290  177.9810  140.7070 C   0  0  0  0  0  3  0  0  0  0  0  0
  185.4780  179.0410  146.5190 N   0  0  0  0  0  0  0  0  0  0  0  0
  188.9760  175.9100  145.5580 C   0  0  0  0  0  3  0  0  0  0  0  0
  182.9850  178.4930  142.4400 C   0  0  0  0  0  3  0  0  0  0  0  0
  182.1890  177.9160  140.1390 C   0  0  0  0  0  1  0  0  0  0  0  0
  186.8000  178.2980  148.3870 C   0  0  0  0  0  1  0  0  0  0  0  0
  187.9210  177.0030  143.6860 C   0  0  0  0  0  3  0  0  0  0  0  0
  187.3270  177.5730  145.9640 C   0  0  0  0  0  0  0  0  0  0  0  0
  186.5090  178.3580  146.9290 C   0  0  0  0  0  0  0  0  0  0  0  0
  185.3490  178.5060  142.9340 C   0  0  0  0  0  0  0  0  0  0  0  0
  188.8200  174.8650  141.9980 C   0  0  0  0  0  1  0  0  0  0  0  0
  189.6480  175.2570  143.2080 C   0  0  1  0  0  3  0  0  0  0  0  0
  190.8980  176.0090  142.7650 C   0  0  0  0  0  2  0  0  0  0  0  0
  192.1230  175.4870  143.4980 C   0  0  0  0  0  2  0  0  0  0  0  0
  192.5810  176.5050  144.5260 C   0  0  0  0  0  2  0  0  0  0  0  0
  192.7950  175.8330  145.8730 C   0  0  0  0  0  2  0  0  0  0  0  0
  191.1210  175.4460  148.1650 O   0  0  0  0  0  0  0  0  0  0  0  0
  192.6010  176.7910  146.9540 N   0  0  0  0  0  2  0  0  0  0  0  0
  191.5660  177.5370  149.0630 N   0  0  0  0  0  1  0  0  0  0  0  0
  191.7360  176.5410  148.0640 C   0  0  0  0  0  0  0  0  0  0  0  0
  1 12  1  0  0  0  0
  2 11  1  0  0  0  0
  3 19  1  0  0  0  0
  4  5  1  0  0  0  0
  5  2  2  0  0  0  0
  6 13  2  0  0  0  0
  8 19  1  6  0  0  0
  8  9  1  0  0  0  0
  8  2  1  0  0  0  0
  9 17  2  0  0  0  0
 10  6  1  0  0  0  0
 10  3  2  0  0  0  0
 11 18  2  0  0  0  0
 12  7  2  0  0  0  0
 13  4  1  0  0  0  0
 14  6  1  0  0  0  0
 16  1  2  0  0  0  0
 16  9  1  0  0  0  0
 17  7  1  0  0  0  0
 17 18  1  0  0  0  0
 18 15  1  0  0  0  0
 19  4  2  0  0  0  0
 21 20  1  6  0  0  0
 21  1  1  0  0  0  0
 22 21  1  0  0  0  0
 22 23  1  0  0  0  0
 23 24  1  0  0  0  0
 24 25  1  0  0  0  0
 25 27  1  0  0  0  0
 27 29  1  0  0  0  0
 29 26  2  0  0  0  0
 29 28  1  0  0  0  0
M  END
>  <MODEL>
7

>  <REMARK>
 VINA RESULT:      -6.9      1.936      5.636
  Name = 
  6 active torsions:
  status: ('A' for Active; 'I' for Inactive)
    1  A    between atoms: C_1  and  C_27
    2  A    between atoms: C_17  and  C_19
    3  A    between atoms: C_17  and  C_29
    4  A    between atoms: C_19  and  C_27
    5  A    between atoms: N_21  and  C_26
    6  A    between atoms: C_26  and  C_29
                            x       y       z     vdW  Elec       q    Type
                         _______ _______ _______ _____ _____    ______ ____

>  <TORSDO>
F 6

$$$$
=
 OpenBabel11042416293D

 29 32  0  0  1  0  0  0  0  0999 V2000
  189.2160  176.6280  145.8510 C   0  0  0  0  0  0  0  0  0  0  0  0
  185.2600  178.7290  143.9760 C   0  0  0  0  0  0  0  0  0  0  0  0
  187.9860  177.9690  141.6520 C   0  0  0  0  0  3  0  0  0  0  0  0
  185.5930  178.0760  141.9370 C   0  0  0  0  0  0  0  0  0  0  0  0
  184.6080  178.3700  142.9130 N   0  0  0  0  0  0  0  0  0  0  0  0
  186.4800  177.3760  139.8220 C   0  0  0  0  0  0  0  0  0  0  0  0
  187.2590  177.0440  147.1670 N   0  0  0  0  0  0  0  0  0  0  0  0
  186.7620  178.7300  143.8310 C   0  0  1  0  0  3  0  0  0  0  0  0
  187.3570  177.8640  144.9130 C   0  0  0  0  0  0  0  0  0  0  0  0
  187.7850  177.5410  140.3300 C   0  0  0  0  0  3  0  0  0  0  0  0
  184.6480  178.7260  145.2660 N   0  0  0  0  0  0  0  0  0  0  0  0
  188.4970  176.4940  147.0460 C   0  0  0  0  0  3  0  0  0  0  0  0
  185.3640  177.6470  140.6320 C   0  0  0  0  0  3  0  0  0  0  0  0
  186.2840  176.9190  138.4220 C   0  0  0  0  0  1  0  0  0  0  0  0
  184.6420  178.2930  147.6340 C   0  0  0  0  0  1  0  0  0  0  0  0
  188.6430  177.3280  144.7890 C   0  0  0  0  0  3  0  0  0  0  0  0
  186.6760  177.7280  146.1450 C   0  0  0  0  0  0  0  0  0  0  0  0
  185.3090  178.2960  146.3030 C   0  0  0  0  0  0  0  0  0  0  0  0
  186.8620  178.2020  142.4430 C   0  0  0  0  0  0  0  0  0  0  0  0
  191.0440  175.3800  146.9830 C   0  0  0  0  0  1  0  0  0  0  0  0
  190.5830  176.0320  145.6920 C   0  0  1  0  0  3  0  0  0  0  0  0
  190.6180  175.0200  144.5530 C   0  0  0  0  0  2  0  0  0  0  0  0
  189.7460  173.8190  144.8780 C   0  0  0  0  0  2  0  0  0  0  0  0
  190.1670  172.6310  144.0330 C   0  0  0  0  0  2  0  0  0  0  0  0
  189.0090  172.1640  143.1660 C   0  0  0  0  0  2  0  0  0  0  0  0
  187.6630  174.4000  141.9870 O   0  0  0  0  0  0  0  0  0  0  0  0
  189.1800  172.6310  141.7970 N   0  0  0  0  0  2  0  0  0  0  0  0
  188.6520  174.1230  139.9070 N   0  0  0  0  0  1  0  0  0  0  0  0
  188.4630  173.7470  141.2650 C   0  0  0  0  0  0  0  0  0  0  0  0
  1 12  1  0  0  0  0
  2 11  1  0  0  0  0
  3 19  1  0  0  0  0
  4 19  2  0  0  0  0
  4  5  1  0  0  0  0
  5  2  2  0  0  0  0
  6 10  1  0  0  0  0
  6 13  2  0  0  0  0
  8 19  1  6  0  0  0
  8  2  1  0  0  0  0
  8  9  1  0  0  0  0
  9 17  2  0  0  0  0
 10  3  2  0  0  0  0
 11 18  2  0  0  0  0
 12  7  2  0  0  0  0
 13  4  1  0  0  0  0
 14  6  1  0  0  0  0
 16  9  1  0  0  0  0
 16  1  2  0  0  0  0
 17 18  1  0  0  0  0
 17  7  1  0  0  0  0
 18 15  1  0  0  0  0
 21  1  1  0  0  0  0
 21 20  1  1  0  0  0
 22 23  1  0  0  0  0
 22 21  1  0  0  0  0
 24 23  1  0  0  0  0
 25 24  1  0  0  0  0
 27 25  1  0  0  0  0
 28 29  1  0  0  0  0
 29 27  1  0  0  0  0
 29 26  2  0  0  0  0
M  END
>  <MODEL>
8

>  <REMARK>
 VINA RESULT:      -6.9      2.256      5.218
  Name = 
  6 active torsions:
  status: ('A' for Active; 'I' for Inactive)
    1  A    between atoms: C_1  and  C_27
    2  A    between atoms: C_17  and  C_19
    3  A    between atoms: C_17  and  C_29
    4  A    between atoms: C_19  and  C_27
    5  A    between atoms: N_21  and  C_26
    6  A    between atoms: C_26  and  C_29
                            x       y       z     vdW  Elec       q    Type
                         _______ _______ _______ _____ _____    ______ ____

>  <TORSDO>
F 6

$$$$
=
 OpenBabel11042416293D

 29 32  0  0  1  0  0  0  0  0999 V2000
  188.6610  176.1810  146.0740 C   0  0  0  0  0  0  0  0  0  0  0  0
  185.1420  178.8500  144.0560 C   0  0  0  0  0  0  0  0  0  0  0  0
  187.9110  177.8470  141.8790 C   0  0  0  0  0  3  0  0  0  0  0  0
  185.5360  178.2480  142.0130 C   0  0  0  0  0  0  0  0  0  0  0  0
  184.5270  178.6230  142.9360 N   0  0  0  0  0  0  0  0  0  0  0  0
  186.4760  177.5310  139.9270 C   0  0  0  0  0  0  0  0  0  0  0  0
  186.6820  176.7880  147.2800 N   0  0  0  0  0  0  0  0  0  0  0  0
  186.6390  178.6640  144.0100 C   0  0  1  0  0  3  0  0  0  0  0  0
  187.0420  177.6840  145.0830 C   0  0  0  0  0  0  0  0  0  0  0  0
  187.7530  177.5070  140.5260 C   0  0  0  0  0  3  0  0  0  0  0  0
  184.4430  178.8690  145.3020 N   0  0  0  0  0  0  0  0  0  0  0  0
  187.8470  176.0900  147.2120 C   0  0  0  0  0  3  0  0  0  0  0  0
  185.3480  177.9080  140.6750 C   0  0  0  0  0  3  0  0  0  0  0  0
  186.3260  177.1640  138.4950 C   0  0  0  0  0  1  0  0  0  0  0  0
  184.2150  178.3400  147.6390 C   0  0  0  0  0  1  0  0  0  0  0  0
  188.2570  176.9940  145.0150 C   0  0  0  0  0  3  0  0  0  0  0  0
  186.2630  177.5840  146.2580 C   0  0  0  0  0  0  0  0  0  0  0  0
  184.9700  178.3140  146.3560 C   0  0  0  0  0  0  0  0  0  0  0  0
  186.7710  178.1890  142.6060 C   0  0  0  0  0  0  0  0  0  0  0  0
  190.5960  175.2670  147.3400 C   0  0  0  0  0  1  0  0  0  0  0  0
  189.9510  175.4230  145.9750 C   0  0  1  0  0  3  0  0  0  0  0  0
  189.7420  174.0550  145.3350 C   0  0  0  0  0  2  0  0  0  0  0  0
  191.0150  173.5840  144.6540 C   0  0  0  0  0  2  0  0  0  0  0  0
  191.6120  174.7150  143.8370 C   0  0  0  0  0  2  0  0  0  0  0  0
  193.1230  174.7440  144.0010 C   0  0  0  0  0  2  0  0  0  0  0  0
  194.4580  175.2680  146.4800 O   0  0  0  0  0  0  0  0  0  0  0  0
  193.5570  176.0530  144.4720 N   0  0  0  0  0  2  0  0  0  0  0  0
  194.5670  177.5600  146.1410 N   0  0  0  0  0  1  0  0  0  0  0  0
  194.2050  176.2470  145.7300 C   0  0  0  0  0  0  0  0  0  0  0  0
  1 12  1  0  0  0  0
  2 11  1  0  0  0  0
  3 19  1  0  0  0  0
  4 19  2  0  0  0  0
  4  5  1  0  0  0  0
  5  2  2  0  0  0  0
  6 10  1  0  0  0  0
  6 13  2  0  0  0  0
  8 19  1  6  0  0  0
  8  2  1  0  0  0  0
  8  9  1  0  0  0  0
  9 17  2  0  0  0  0
 10  3  2  0  0  0  0
 11 18  2  0  0  0  0
 12  7  2  0  0  0  0
 13  4  1  0  0  0  0
 14  6  1  0  0  0  0
 16  9  1  0  0  0  0
 16  1  2  0  0  0  0
 17 18  1  0  0  0  0
 17  7  1  0  0  0  0
 18 15  1  0  0  0  0
 21  1  1  0  0  0  0
 21 20  1  1  0  0  0
 22 21  1  0  0  0  0
 23 22  1  0  0  0  0
 24 25  1  0  0  0  0
 24 23  1  0  0  0  0
 25 27  1  0  0  0  0
 27 29  1  0  0  0  0
 29 28  1  0  0  0  0
 29 26  2  0  0  0  0
M  END
>  <MODEL>
9

>  <REMARK>
 VINA RESULT:      -6.8      1.979      4.777
  Name = 
  6 active torsions:
  status: ('A' for Active; 'I' for Inactive)
    1  A    between atoms: C_1  and  C_27
    2  A    between atoms: C_17  and  C_19
    3  A    between atoms: C_17  and  C_29
    4  A    between atoms: C_19  and  C_27
    5  A    between atoms: N_21  and  C_26
    6  A    between atoms: C_26  and  C_29
                            x       y       z     vdW  Elec       q    Type
                         _______ _______ _______ _____ _____    ______ ____

>  <TORSDO>
F 6

$$$$
