=
 OpenBabel11042416083D

 34 39  0  0  1  0  0  0  0  0999 V2000
  186.5970  177.6580  144.5090 N   0  0  2  0  0  0  0  0  0  0  0  0
  185.9140  176.6310  146.6340 C   0  0  0  0  0  2  0  0  0  0  0  0
  187.2870  176.5420  147.2920 C   0  0  0  0  0  2  0  0  0  0  0  0
  185.8220  177.8560  145.7300 C   0  0  0  0  0  2  0  0  0  0  0  0
  188.0190  177.8850  144.7670 C   0  0  0  0  0  2  0  0  0  0  0  0
  188.3200  175.9980  146.3470 C   0  0  0  0  0  3  0  0  0  0  0  0
  188.6700  176.6060  145.2000 C   0  0  0  0  0  0  0  0  0  0  0  0
  182.1190  178.2440  140.9790 C   0  0  0  0  0  3  0  0  0  0  0  0
  184.8130  178.0340  141.4860 C   0  0  0  0  0  0  0  0  0  0  0  0
  186.2260  178.0400  141.9430 C   0  0  1  0  0  3  0  0  0  0  0  0
  183.9780  178.4870  142.4660 C   0  0  0  0  0  0  0  0  0  0  0  0
  184.3500  177.7030  140.2530 N   0  0  0  0  0  0  0  0  0  0  0  0
  183.0140  177.7950  139.9870 C   0  0  0  0  0  3  0  0  0  0  0  0
  182.6090  178.6020  142.2440 C   0  0  0  0  0  3  0  0  0  0  0  0
  184.6650  178.8130  143.6560 N   0  0  0  0  0  2  0  0  0  0  0  0
  186.0860  178.5270  143.4350 C   0  0  1  0  0  3  0  0  0  0  0  0
  186.8680  176.7060  141.7010 C   0  0  0  0  0  3  0  0  0  0  0  0
  188.0080  176.6390  141.2750 O   0  0  0  0  0  0  0  0  0  0  0  0
  189.7200  176.0090  144.3050 C   0  0  1  0  0  3  0  0  0  0  0  0
  191.7730  177.5630  144.6640 C   0  0  1  0  0  3  0  0  0  0  0  0
  190.9580  178.4050  143.9010 O   0  0  0  0  0  1  0  0  0  0  0  0
  191.1350  176.1780  144.9050 C   0  0  2  0  0  3  0  0  0  0  0  0
  191.8140  176.3470  142.5100 O   0  0  0  0  0  1  0  0  0  0  0  0
  192.2200  176.3590  143.8490 C   0  0  1  0  0  0  0  0  0  0  0  0
  193.5700  175.8030  144.1690 C   0  0  0  0  0  0  0  0  0  0  0  0
  196.1250  174.8390  144.7900 C   0  0  0  0  0  0  0  0  0  0  0  0
  193.8470  175.3240  145.4550 C   0  0  0  0  0  3  0  0  0  0  0  0
  194.5850  175.8200  143.2020 C   0  0  0  0  0  3  0  0  0  0  0  0
  195.1220  174.8380  145.7640 C   0  0  0  0  0  3  0  0  0  0  0  0
  195.8580  175.3330  143.5110 C   0  0  0  0  0  3  0  0  0  0  0  0
  197.3890  174.3550  145.0970 O   0  0  0  0  0  1  0  0  0  0  0  0
  190.4480  173.8560  143.2840 N   0  0  0  0  0  2  0  0  0  0  0  0
  189.3140  174.5800  143.8810 C   0  0  1  0  0  3  0  0  0  0  0  0
  189.9890  173.5290  144.6440 C   0  0  0  0  0  2  0  0  0  0  0  0
  1  5  1  1  0  0  0
  1  4  1  0  0  0  0
  2  3  1  0  0  0  0
  4  2  1  0  0  0  0
  5  7  1  0  0  0  0
  6  3  1  0  0  0  0
  7  6  2  0  0  0  0
  8 14  1  0  0  0  0
  9 10  1  0  0  0  0
  9 11  1  0  0  0  0
 10 17  1  1  0  0  0
 10 16  1  0  0  0  0
 11 15  1  0  0  0  0
 12  9  2  0  0  0  0
 13 12  1  0  0  0  0
 13  8  2  0  0  0  0
 14 11  2  0  0  0  0
 16 15  1  1  0  0  0
 16  1  1  0  0  0  0
 18 17  2  0  0  0  0
 19  7  1  1  0  0  0
 20 21  1  6  0  0  0
 20 22  1  0  0  0  0
 22 19  1  6  0  0  0
 24 23  1  6  0  0  0
 24 25  1  0  0  0  0
 24 20  1  0  0  0  0
 24 22  1  0  0  0  0
 25 27  1  0  0  0  0
 26 31  1  0  0  0  0
 26 29  1  0  0  0  0
 27 29  2  0  0  0  0
 28 30  1  0  0  0  0
 28 25  2  0  0  0  0
 30 26  2  0  0  0  0
 32 33  1  0  0  0  0
 32 34  1  0  0  0  0
 33 19  1  1  0  0  0
 33 34  1  0  0  0  0
M  END
>  <MODEL>
1

>  <REMARK>
 VINA RESULT:      -7.4      0.000      0.000
  Name = 
  6 active torsions:
  status: ('A' for Active; 'I' for Inactive)
    1  A    between atoms: C_1  and  C_32
    2  A    between atoms: N_2  and  C_33
    3  A    between atoms: C_9  and  C_19
    4  A    between atoms: C_10  and  C_29
    5  A    between atoms: C_26  and  C_29
    6  A    between atoms: C_29  and  C_34
                            x       y       z     vdW  Elec       q    Type
                         _______ _______ _______ _____ _____    ______ ____

>  <TORSDO>
F 6

$$$$
=
 OpenBabel11042416083D

 34 39  0  0  1  0  0  0  0  0999 V2000
  193.9870  173.7510  145.1210 N   0  0  2  0  0  0  0  0  0  0  0  0
  194.7320  175.5170  143.5830 C   0  0  0  0  0  2  0  0  0  0  0  0
  193.9430  176.6790  144.1770 C   0  0  0  0  0  2  0  0  0  0  0  0
  195.1390  174.5240  144.6670 C   0  0  0  0  0  2  0  0  0  0  0  0
  193.1860  174.5360  146.0610 C   0  0  0  0  0  2  0  0  0  0  0  0
  192.5160  176.2980  144.4510 C   0  0  0  0  0  3  0  0  0  0  0  0
  192.1580  175.3320  145.3150 C   0  0  0  0  0  0  0  0  0  0  0  0
  197.8510  169.5850  144.3630 C   0  0  0  0  0  3  0  0  0  0  0  0
  195.2770  170.4920  144.6970 C   0  0  0  0  0  0  0  0  0  0  0  0
  193.9760  171.1320  145.0160 C   0  0  1  0  0  3  0  0  0  0  0  0
  196.3190  171.2450  145.1540 C   0  0  0  0  0  0  0  0  0  0  0  0
  195.4760  169.2900  144.0980 N   0  0  0  0  0  0  0  0  0  0  0  0
  196.7490  168.8280  143.9180 C   0  0  0  0  0  3  0  0  0  0  0  0
  197.6340  170.8180  144.9980 C   0  0  0  0  0  3  0  0  0  0  0  0
  195.8940  172.4380  145.7790 N   0  0  0  0  0  2  0  0  0  0  0  0
  194.4310  172.4740  145.7060 C   0  0  1  0  0  3  0  0  0  0  0  0
  193.1190  171.2340  143.7880 C   0  0  0  0  0  3  0  0  0  0  0  0
  192.0000  170.7500  143.7760 O   0  0  0  0  0  0  0  0  0  0  0  0
  190.7090  175.0090  145.5470 C   0  0  1  0  0  3  0  0  0  0  0  0
  189.8340  177.1520  146.7320 C   0  0  1  0  0  3  0  0  0  0  0  0
  190.6140  176.6050  147.7570 O   0  0  0  0  0  1  0  0  0  0  0  0
  189.8270  176.2770  145.4600 C   0  0  2  0  0  3  0  0  0  0  0  0
  188.5050  175.1270  147.2360 O   0  0  0  0  0  1  0  0  0  0  0  0
  188.6450  176.2570  146.4220 C   0  0  1  0  0  0  0  0  0  0  0  0
  187.3970  176.9420  145.9680 C   0  0  0  0  0  0  0  0  0  0  0  0
  185.0750  178.2910  145.1710 C   0  0  0  0  0  0  0  0  0  0  0  0
  187.4350  177.8300  144.8850 C   0  0  0  0  0  3  0  0  0  0  0  0
  186.1960  176.7520  146.6650 C   0  0  0  0  0  3  0  0  0  0  0  0
  186.2740  178.5000  144.4840 C   0  0  0  0  0  3  0  0  0  0  0  0
  185.0360  177.4210  146.2630 C   0  0  0  0  0  3  0  0  0  0  0  0
  183.9230  178.9540  144.7720 O   0  0  0  0  0  1  0  0  0  0  0  0
  189.2660  174.2000  143.6840 N   0  0  0  0  0  2  0  0  0  0  0  0
  190.2800  173.8080  144.6750 C   0  0  1  0  0  3  0  0  0  0  0  0
  190.6540  173.9420  143.2670 C   0  0  0  0  0  2  0  0  0  0  0  0
  1  4  1  1  0  0  0
  1 16  1  0  0  0  0
  1  5  1  0  0  0  0
  2  3  1  0  0  0  0
  2  4  1  0  0  0  0
  3  6  1  0  0  0  0
  6  7  2  0  0  0  0
  7  5  1  0  0  0  0
  8 14  1  0  0  0  0
  9 10  1  0  0  0  0
  9 11  1  0  0  0  0
 10 17  1  6  0  0  0
 10 16  1  0  0  0  0
 11 15  1  0  0  0  0
 12  9  2  0  0  0  0
 13 12  1  0  0  0  0
 13  8  2  0  0  0  0
 14 11  2  0  0  0  0
 16 15  1  6  0  0  0
 18 17  2  0  0  0  0
 19  7  1  6  0  0  0
 20 21  1  1  0  0  0
 22 19  1  1  0  0  0
 22 24  1  0  0  0  0
 22 20  1  0  0  0  0
 24 20  1  0  0  0  0
 24 23  1  1  0  0  0
 25 24  1  0  0  0  0
 25 28  1  0  0  0  0
 26 30  1  0  0  0  0
 27 25  2  0  0  0  0
 29 27  1  0  0  0  0
 29 26  2  0  0  0  0
 30 28  2  0  0  0  0
 31 26  1  0  0  0  0
 32 33  1  0  0  0  0
 33 19  1  1  0  0  0
 34 32  1  0  0  0  0
 34 33  1  0  0  0  0
M  END
>  <MODEL>
2

>  <REMARK>
 VINA RESULT:      -7.2      3.405      9.780
  Name = 
  6 active torsions:
  status: ('A' for Active; 'I' for Inactive)
    1  A    between atoms: C_1  and  C_32
    2  A    between atoms: N_2  and  C_33
    3  A    between atoms: C_9  and  C_19
    4  A    between atoms: C_10  and  C_29
    5  A    between atoms: C_26  and  C_29
    6  A    between atoms: C_29  and  C_34
                            x       y       z     vdW  Elec       q    Type
                         _______ _______ _______ _____ _____    ______ ____

>  <TORSDO>
F 6

$$$$
=
 OpenBabel11042416083D

 34 39  0  0  1  0  0  0  0  0999 V2000
  188.8000  176.6220  144.9810 N   0  0  2  0  0  0  0  0  0  0  0  0
  188.5650  175.2910  147.0330 C   0  0  0  0  0  2  0  0  0  0  0  0
  190.0320  174.9240  147.2310 C   0  0  0  0  0  2  0  0  0  0  0  0
  188.4300  176.6680  146.3930 C   0  0  0  0  0  2  0  0  0  0  0  0
  190.2560  176.6350  144.8360 C   0  0  0  0  0  2  0  0  0  0  0  0
  190.6650  174.4590  145.9510 C   0  0  0  0  0  3  0  0  0  0  0  0
  190.7840  175.2320  144.8570 C   0  0  0  0  0  0  0  0  0  0  0  0
  183.6410  178.8250  143.8030 C   0  0  0  0  0  3  0  0  0  0  0  0
  186.1060  177.8580  143.0640 C   0  0  0  0  0  0  0  0  0  0  0  0
  187.5130  177.4350  142.8480 C   0  0  1  0  0  3  0  0  0  0  0  0
  185.9340  178.3730  144.3150 C   0  0  0  0  0  0  0  0  0  0  0  0
  185.0920  177.8300  142.1600 N   0  0  0  0  0  0  0  0  0  0  0  0
  183.8600  178.3010  142.5140 C   0  0  0  0  0  3  0  0  0  0  0  0
  184.6990  178.8670  144.7230 C   0  0  0  0  0  3  0  0  0  0  0  0
  187.1200  178.3430  145.0820 N   0  0  0  0  0  2  0  0  0  0  0  0
  188.1640  177.7330  144.2520 C   0  0  1  0  0  3  0  0  0  0  0  0
  187.5710  176.0270  142.3350 C   0  0  0  0  0  3  0  0  0  0  0  0
  186.7990  175.1840  142.7580 O   0  0  0  0  0  0  0  0  0  0  0  0
  191.4370  174.7040  143.6120 C   0  0  1  0  0  3  0  0  0  0  0  0
  189.8150  172.9590  142.5710 C   0  0  1  0  0  3  0  0  0  0  0  0
  190.3840  172.1880  143.5900 O   0  0  0  0  0  1  0  0  0  0  0  0
  190.3930  174.3900  142.5150 C   0  0  2  0  0  3  0  0  0  0  0  0
  192.1330  172.7870  141.7240 O   0  0  0  0  0  1  0  0  0  0  0  0
  190.8570  173.3270  141.5260 C   0  0  1  0  0  0  0  0  0  0  0  0
  190.3710  173.4590  140.1190 C   0  0  0  0  0  0  0  0  0  0  0  0
  189.4700  173.7920  137.4880 C   0  0  0  0  0  0  0  0  0  0  0  0
  191.2760  173.3990  139.0520 C   0  0  0  0  0  3  0  0  0  0  0  0
  189.0160  173.7100  139.8640 C   0  0  0  0  0  3  0  0  0  0  0  0
  190.8250  173.5600  137.7380 C   0  0  0  0  0  3  0  0  0  0  0  0
  188.5660  173.8700  138.5500 C   0  0  0  0  0  3  0  0  0  0  0  0
  189.0230  173.9490  136.1830 O   0  0  0  0  0  1  0  0  0  0  0  0
  193.5250  175.8570  144.3340 N   0  0  0  0  0  2  0  0  0  0  0  0
  192.6200  175.6090  143.2010 C   0  0  1  0  0  3  0  0  0  0  0  0
  193.9180  174.9360  143.2540 C   0  0  0  0  0  2  0  0  0  0  0  0
  1  5  1  1  0  0  0
  1  4  1  0  0  0  0
  2  3  1  0  0  0  0
  4  2  1  0  0  0  0
  5  7  1  0  0  0  0
  6  3  1  0  0  0  0
  7  6  2  0  0  0  0
  8 14  1  0  0  0  0
  9 11  1  0  0  0  0
 10 17  1  1  0  0  0
 10  9  1  0  0  0  0
 10 16  1  0  0  0  0
 11 14  2  0  0  0  0
 11 15  1  0  0  0  0
 12 13  1  0  0  0  0
 12  9  2  0  0  0  0
 13  8  2  0  0  0  0
 16  1  1  0  0  0  0
 16 15  1  1  0  0  0
 17 18  2  0  0  0  0
 19  7  1  1  0  0  0
 20 21  1  1  0  0  0
 22 20  1  0  0  0  0
 22 19  1  1  0  0  0
 24 23  1  1  0  0  0
 24 22  1  0  0  0  0
 24 20  1  0  0  0  0
 25 24  1  0  0  0  0
 26 29  2  0  0  0  0
 26 30  1  0  0  0  0
 27 25  2  0  0  0  0
 28 25  1  0  0  0  0
 29 27  1  0  0  0  0
 30 28  2  0  0  0  0
 31 26  1  0  0  0  0
 33 34  1  0  0  0  0
 33 19  1  1  0  0  0
 33 32  1  0  0  0  0
 34 32  1  0  0  0  0
M  END
>  <MODEL>
3

>  <REMARK>
 VINA RESULT:      -7.1      2.976      4.927
  Name = 
  6 active torsions:
  status: ('A' for Active; 'I' for Inactive)
    1  A    between atoms: C_1  and  C_32
    2  A    between atoms: N_2  and  C_33
    3  A    between atoms: C_9  and  C_19
    4  A    between atoms: C_10  and  C_29
    5  A    between atoms: C_26  and  C_29
    6  A    between atoms: C_29  and  C_34
                            x       y       z     vdW  Elec       q    Type
                         _______ _______ _______ _____ _____    ______ ____

>  <TORSDO>
F 6

$$$$
=
 OpenBabel11042416083D

 34 39  0  0  1  0  0  0  0  0999 V2000
  191.7850  172.8260  143.5400 N   0  0  2  0  0  0  0  0  0  0  0  0
  194.1780  172.4760  143.9730 C   0  0  0  0  0  2  0  0  0  0  0  0
  194.2210  172.9770  145.4120 C   0  0  0  0  0  2  0  0  0  0  0  0
  192.8360  171.8200  143.6650 C   0  0  0  0  0  2  0  0  0  0  0  0
  191.3340  173.2560  144.8640 C   0  0  0  0  0  2  0  0  0  0  0  0
  193.4810  174.2740  145.5710 C   0  0  0  0  0  3  0  0  0  0  0  0
  192.1650  174.4120  145.3350 C   0  0  0  0  0  0  0  0  0  0  0  0
  190.6780  168.9790  139.4370 C   0  0  0  0  0  3  0  0  0  0  0  0
  190.6110  171.5240  140.4760 C   0  0  0  0  0  0  0  0  0  0  0  0
  190.5420  172.7990  141.2330 C   0  0  1  0  0  3  0  0  0  0  0  0
  190.7010  170.4550  141.3200 C   0  0  0  0  0  0  0  0  0  0  0  0
  190.5310  171.3620  139.1300 N   0  0  0  0  0  0  0  0  0  0  0  0
  190.5700  170.1050  138.5970 C   0  0  0  0  0  3  0  0  0  0  0  0
  190.7410  169.1540  140.8280 C   0  0  0  0  0  3  0  0  0  0  0  0
  190.7330  170.8390  142.6790 N   0  0  0  0  0  2  0  0  0  0  0  0
  190.6760  172.3030  142.7230 C   0  0  1  0  0  3  0  0  0  0  0  0
  191.5630  173.7730  140.7260 C   0  0  0  0  0  3  0  0  0  0  0  0
  192.7150  173.4190  140.5400 O   0  0  0  0  0  0  0  0  0  0  0  0
  191.4870  175.7390  145.5220 C   0  0  1  0  0  3  0  0  0  0  0  0
  189.6570  175.9310  143.6850 C   0  0  1  0  0  3  0  0  0  0  0  0
  190.7940  176.2440  142.9330 O   0  0  0  0  0  1  0  0  0  0  0  0
  189.9830  175.6610  145.1700 C   0  0  2  0  0  3  0  0  0  0  0  0
  190.2580  178.0980  144.7160 O   0  0  0  0  0  1  0  0  0  0  0  0
  189.3940  176.9980  144.7360 C   0  0  1  0  0  0  0  0  0  0  0  0
  187.9620  177.2480  145.0860 C   0  0  0  0  0  0  0  0  0  0  0  0
  185.3050  177.7770  145.7960 C   0  0  0  0  0  0  0  0  0  0  0  0
  187.2030  178.1580  144.3400 C   0  0  0  0  0  3  0  0  0  0  0  0
  187.3910  176.6220  146.2040 C   0  0  0  0  0  3  0  0  0  0  0  0
  185.8740  178.4190  144.6920 C   0  0  0  0  0  3  0  0  0  0  0  0
  186.0640  176.8820  146.5530 C   0  0  0  0  0  3  0  0  0  0  0  0
  183.9850  178.0350  146.1420 O   0  0  0  0  0  1  0  0  0  0  0  0
  190.6330  176.7030  147.6560 N   0  0  0  0  0  2  0  0  0  0  0  0
  191.8420  176.3350  146.9030 C   0  0  1  0  0  3  0  0  0  0  0  0
  191.4060  175.5070  148.0280 C   0  0  0  0  0  2  0  0  0  0  0  0
  1  4  1  1  0  0  0
  1  5  1  0  0  0  0
  2  3  1  0  0  0  0
  3  6  1  0  0  0  0
  4  2  1  0  0  0  0
  5  7  1  0  0  0  0
  7  6  2  0  0  0  0
  8 14  1  0  0  0  0
  9 10  1  0  0  0  0
  9 11  1  0  0  0  0
 10 17  1  6  0  0  0
 10 16  1  0  0  0  0
 11 15  1  0  0  0  0
 12  9  2  0  0  0  0
 13 12  1  0  0  0  0
 13  8  2  0  0  0  0
 14 11  2  0  0  0  0
 16 15  1  6  0  0  0
 16  1  1  0  0  0  0
 18 17  2  0  0  0  0
 19  7  1  1  0  0  0
 20 21  1  6  0  0  0
 20 24  1  0  0  0  0
 20 22  1  0  0  0  0
 22 19  1  6  0  0  0
 24 23  1  1  0  0  0
 24 25  1  0  0  0  0
 24 22  1  0  0  0  0
 25 28  1  0  0  0  0
 26 31  1  0  0  0  0
 26 30  1  0  0  0  0
 27 29  1  0  0  0  0
 27 25  2  0  0  0  0
 28 30  2  0  0  0  0
 29 26  2  0  0  0  0
 32 34  1  0  0  0  0
 33 19  1  6  0  0  0
 33 32  1  0  0  0  0
 33 34  1  0  0  0  0
M  END
>  <MODEL>
4

>  <REMARK>
 VINA RESULT:      -7.0      3.382      7.925
  Name = 
  6 active torsions:
  status: ('A' for Active; 'I' for Inactive)
    1  A    between atoms: C_1  and  C_32
    2  A    between atoms: N_2  and  C_33
    3  A    between atoms: C_9  and  C_19
    4  A    between atoms: C_10  and  C_29
    5  A    between atoms: C_26  and  C_29
    6  A    between atoms: C_29  and  C_34
                            x       y       z     vdW  Elec       q    Type
                         _______ _______ _______ _____ _____    ______ ____

>  <TORSDO>
F 6

$$$$
=
 OpenBabel11042416083D

 34 39  0  0  1  0  0  0  0  0999 V2000
  189.4460  176.7030  144.9520 N   0  0  2  0  0  0  0  0  0  0  0  0
  188.5640  175.2980  146.7650 C   0  0  0  0  0  2  0  0  0  0  0  0
  189.8250  175.2140  147.6180 C   0  0  0  0  0  2  0  0  0  0  0  0
  188.4810  176.6400  146.0460 C   0  0  0  0  0  2  0  0  0  0  0  0
  190.7820  176.9990  145.4700 C   0  0  0  0  0  2  0  0  0  0  0  0
  191.0390  174.9130  146.7860 C   0  0  0  0  0  3  0  0  0  0  0  0
  191.4910  175.7230  145.8120 C   0  0  0  0  0  0  0  0  0  0  0  0
  184.8040  178.3680  142.0310 C   0  0  0  0  0  3  0  0  0  0  0  0
  187.4210  177.5410  142.1850 C   0  0  0  0  0  0  0  0  0  0  0  0
  188.8450  177.2160  142.4540 C   0  0  1  0  0  3  0  0  0  0  0  0
  186.8450  178.1500  143.2610 C   0  0  0  0  0  0  0  0  0  0  0  0
  186.7400  177.3510  141.0250 N   0  0  0  0  0  0  0  0  0  0  0  0
  185.4370  177.7510  140.9340 C   0  0  0  0  0  3  0  0  0  0  0  0
  185.5210  178.5770  143.2180 C   0  0  0  0  0  3  0  0  0  0  0  0
  187.7350  178.2850  144.3490 N   0  0  0  0  0  2  0  0  0  0  0  0
  189.0130  177.6890  143.9470 C   0  0  1  0  0  3  0  0  0  0  0  0
  189.1290  175.7770  142.1400 C   0  0  0  0  0  3  0  0  0  0  0  0
  188.3620  174.9030  142.5070 O   0  0  0  0  0  0  0  0  0  0  0  0
  192.7180  175.3630  145.0240 C   0  0  1  0  0  3  0  0  0  0  0  0
  191.9570  173.7030  143.1730 C   0  0  1  0  0  3  0  0  0  0  0  0
  191.9920  172.8420  144.2760 O   0  0  0  0  0  1  0  0  0  0  0  0
  192.3850  175.1430  143.5300 C   0  0  2  0  0  3  0  0  0  0  0  0
  194.3940  173.6640  143.5990 O   0  0  0  0  0  1  0  0  0  0  0  0
  193.3530  174.1960  142.8290 C   0  0  1  0  0  0  0  0  0  0  0  0
  193.6270  174.4630  141.3840 C   0  0  0  0  0  0  0  0  0  0  0  0
  194.1880  174.8920  138.6730 C   0  0  0  0  0  0  0  0  0  0  0  0
  192.7780  173.9420  140.3980 C   0  0  0  0  0  3  0  0  0  0  0  0
  194.7700  175.1800  141.0040 C   0  0  0  0  0  3  0  0  0  0  0  0
  193.0560  174.1600  139.0450 C   0  0  0  0  0  3  0  0  0  0  0  0
  195.0460  175.3990  139.6520 C   0  0  0  0  0  3  0  0  0  0  0  0
  194.4610  175.1110  137.3300 O   0  0  0  0  0  1  0  0  0  0  0  0
  193.9470  176.6360  146.7780 N   0  0  0  0  0  2  0  0  0  0  0  0
  193.8670  176.3470  145.3380 C   0  0  1  0  0  3  0  0  0  0  0  0
  194.9410  175.7580  146.1380 C   0  0  0  0  0  2  0  0  0  0  0  0
  1  5  1  1  0  0  0
  1  4  1  0  0  0  0
  2  3  1  0  0  0  0
  4  2  1  0  0  0  0
  5  7  1  0  0  0  0
  6  3  1  0  0  0  0
  7  6  2  0  0  0  0
  8 14  1  0  0  0  0
  9 10  1  0  0  0  0
  9 11  1  0  0  0  0
 10 17  1  1  0  0  0
 10 16  1  0  0  0  0
 11 15  1  0  0  0  0
 12  9  2  0  0  0  0
 13 12  1  0  0  0  0
 13  8  2  0  0  0  0
 14 11  2  0  0  0  0
 16 15  1  1  0  0  0
 16  1  1  0  0  0  0
 17 18  2  0  0  0  0
 19  7  1  1  0  0  0
 20 22  1  0  0  0  0
 20 21  1  1  0  0  0
 22 19  1  1  0  0  0
 24 20  1  0  0  0  0
 24 22  1  0  0  0  0
 24 23  1  1  0  0  0
 25 24  1  0  0  0  0
 26 29  2  0  0  0  0
 26 30  1  0  0  0  0
 27 25  2  0  0  0  0
 28 25  1  0  0  0  0
 29 27  1  0  0  0  0
 30 28  2  0  0  0  0
 31 26  1  0  0  0  0
 33 19  1  1  0  0  0
 33 34  1  0  0  0  0
 33 32  1  0  0  0  0
 34 32  1  0  0  0  0
M  END
>  <MODEL>
5

>  <REMARK>
 VINA RESULT:      -6.9      2.672      3.996
  Name = 
  6 active torsions:
  status: ('A' for Active; 'I' for Inactive)
    1  A    between atoms: C_1  and  C_32
    2  A    between atoms: N_2  and  C_33
    3  A    between atoms: C_9  and  C_19
    4  A    between atoms: C_10  and  C_29
    5  A    between atoms: C_26  and  C_29
    6  A    between atoms: C_29  and  C_34
                            x       y       z     vdW  Elec       q    Type
                         _______ _______ _______ _____ _____    ______ ____

>  <TORSDO>
F 6

$$$$
=
 OpenBabel11042416083D

 34 39  0  0  1  0  0  0  0  0999 V2000
  194.6990  174.2960  144.4490 N   0  0  2  0  0  0  0  0  0  0  0  0
  195.3570  176.6440  144.1530 C   0  0  0  0  0  2  0  0  0  0  0  0
  194.6650  177.2270  145.3800 C   0  0  0  0  0  2  0  0  0  0  0  0
  195.8290  175.2190  144.4200 C   0  0  0  0  0  2  0  0  0  0  0  0
  194.0140  174.3710  145.7400 C   0  0  0  0  0  2  0  0  0  0  0  0
  193.2570  176.7210  145.5160 C   0  0  0  0  0  3  0  0  0  0  0  0
  192.9490  175.4240  145.6910 C   0  0  0  0  0  0  0  0  0  0  0  0
  195.0570  169.0760  146.7910 C   0  0  0  0  0  3  0  0  0  0  0  0
  196.1440  171.2580  145.5190 C   0  0  0  0  0  0  0  0  0  0  0  0
  196.5370  172.4480  144.7240 C   0  0  1  0  0  3  0  0  0  0  0  0
  194.8080  171.0090  145.4030 C   0  0  0  0  0  0  0  0  0  0  0  0
  196.9610  170.4390  146.2320 N   0  0  0  0  0  0  0  0  0  0  0  0
  196.4350  169.3550  146.8750 C   0  0  0  0  0  3  0  0  0  0  0  0
  194.2240  169.9160  146.0370 C   0  0  0  0  0  3  0  0  0  0  0  0
  194.1480  171.9560  144.5890 N   0  0  0  0  0  2  0  0  0  0  0  0
  195.1530  172.9270  144.1440 C   0  0  1  0  0  3  0  0  0  0  0  0
  197.3150  173.4160  145.5670 C   0  0  0  0  0  3  0  0  0  0  0  0
  197.1910  173.4160  146.7790 O   0  0  0  0  0  0  0  0  0  0  0  0
  191.5170  174.9880  145.8290 C   0  0  1  0  0  3  0  0  0  0  0  0
  190.4450  176.7240  147.4410 C   0  0  1  0  0  3  0  0  0  0  0  0
  191.1880  175.9660  148.3530 O   0  0  0  0  0  1  0  0  0  0  0  0
  190.5710  176.2010  145.9940 C   0  0  2  0  0  3  0  0  0  0  0  0
  189.2060  174.5870  147.3180 O   0  0  0  0  0  1  0  0  0  0  0  0
  189.3320  175.8900  146.8260 C   0  0  1  0  0  0  0  0  0  0  0  0
  188.0790  176.6190  146.4630 C   0  0  0  0  0  0  0  0  0  0  0  0
  185.7060  177.9180  145.7360 C   0  0  0  0  0  0  0  0  0  0  0  0
  186.9310  176.4840  147.2550 C   0  0  0  0  0  3  0  0  0  0  0  0
  188.0250  177.3890  145.2930 C   0  0  0  0  0  3  0  0  0  0  0  0
  185.7480  177.1360  146.8940 C   0  0  0  0  0  3  0  0  0  0  0  0
  186.8430  178.0410  144.9340 C   0  0  0  0  0  3  0  0  0  0  0  0
  184.5320  178.5670  145.3800 O   0  0  0  0  0  1  0  0  0  0  0  0
  189.9310  174.3750  144.0080 N   0  0  0  0  0  2  0  0  0  0  0  0
  191.1550  173.9750  144.7200 C   0  0  1  0  0  3  0  0  0  0  0  0
  191.2480  174.5270  143.3690 C   0  0  0  0  0  2  0  0  0  0  0  0
  1  4  1  1  0  0  0
  1  5  1  0  0  0  0
  2  4  1  0  0  0  0
  2  3  1  0  0  0  0
  3  6  1  0  0  0  0
  6  7  2  0  0  0  0
  7  5  1  0  0  0  0
  8 13  1  0  0  0  0
  9 12  1  0  0  0  0
 10  9  1  0  0  0  0
 10 17  1  1  0  0  0
 11  9  2  0  0  0  0
 11 14  1  0  0  0  0
 12 13  2  0  0  0  0
 14  8  2  0  0  0  0
 15 11  1  0  0  0  0
 16  1  1  0  0  0  0
 16 15  1  1  0  0  0
 16 10  1  0  0  0  0
 17 18  2  0  0  0  0
 19  7  1  6  0  0  0
 20 21  1  1  0  0  0
 22 19  1  1  0  0  0
 22 24  1  0  0  0  0
 22 20  1  0  0  0  0
 24 23  1  1  0  0  0
 24 20  1  0  0  0  0
 25 24  1  0  0  0  0
 25 27  1  0  0  0  0
 26 29  1  0  0  0  0
 28 25  2  0  0  0  0
 29 27  2  0  0  0  0
 30 28  1  0  0  0  0
 30 26  2  0  0  0  0
 31 26  1  0  0  0  0
 32 33  1  0  0  0  0
 33 19  1  1  0  0  0
 34 32  1  0  0  0  0
 34 33  1  0  0  0  0
M  END
>  <MODEL>
6

>  <REMARK>
 VINA RESULT:      -6.7      3.444      9.777
  Name = 
  6 active torsions:
  status: ('A' for Active; 'I' for Inactive)
    1  A    between atoms: C_1  and  C_32
    2  A    between atoms: N_2  and  C_33
    3  A    between atoms: C_9  and  C_19
    4  A    between atoms: C_10  and  C_29
    5  A    between atoms: C_26  and  C_29
    6  A    between atoms: C_29  and  C_34
                            x       y       z     vdW  Elec       q    Type
                         _______ _______ _______ _____ _____    ______ ____

>  <TORSDO>
F 6

$$$$
=
 OpenBabel11042416083D

 34 39  0  0  1  0  0  0  0  0999 V2000
  192.4760  173.7450  142.7960 N   0  0  2  0  0  0  0  0  0  0  0  0
  191.0220  171.7670  142.9050 C   0  0  0  0  0  2  0  0  0  0  0  0
  189.8970  172.2660  142.0040 C   0  0  0  0  0  2  0  0  0  0  0  0
  192.3670  172.3290  142.4570 C   0  0  0  0  0  2  0  0  0  0  0  0
  191.7490  174.5580  141.8210 C   0  0  0  0  0  2  0  0  0  0  0  0
  189.4940  173.6720  142.3470 C   0  0  0  0  0  3  0  0  0  0  0  0
  190.3240  174.7250  142.2570 C   0  0  0  0  0  0  0  0  0  0  0  0
  197.4020  172.1420  145.2500 C   0  0  0  0  0  3  0  0  0  0  0  0
  195.4430  173.9890  144.6920 C   0  0  0  0  0  0  0  0  0  0  0  0
  194.3760  174.8910  144.1900 C   0  0  1  0  0  3  0  0  0  0  0  0
  195.6310  172.9330  143.8490 C   0  0  0  0  0  0  0  0  0  0  0  0
  196.2170  174.1660  145.7940 N   0  0  0  0  0  0  0  0  0  0  0  0
  197.1900  173.2540  146.0890 C   0  0  0  0  0  3  0  0  0  0  0  0
  196.6100  171.9780  144.1040 C   0  0  0  0  0  3  0  0  0  0  0  0
  194.7500  172.9570  142.7450 N   0  0  0  0  0  2  0  0  0  0  0  0
  193.8930  174.1370  142.8930 C   0  0  1  0  0  3  0  0  0  0  0  0
  193.3610  175.1600  145.2610 C   0  0  0  0  0  3  0  0  0  0  0  0
  193.4330  176.1710  145.9380 O   0  0  0  0  0  0  0  0  0  0  0  0
  189.8510  176.1070  142.6080 C   0  0  1  0  0  3  0  0  0  0  0  0
  187.3040  176.0000  142.0980 C   0  0  1  0  0  3  0  0  0  0  0  0
  187.8160  176.0020  140.7950 O   0  0  0  0  0  1  0  0  0  0  0  0
  188.4100  176.0840  143.1710 C   0  0  2  0  0  3  0  0  0  0  0  0
  188.2350  178.2900  142.0180 O   0  0  0  0  0  1  0  0  0  0  0  0
  187.5960  177.3180  142.7960 C   0  0  1  0  0  0  0  0  0  0  0  0
  186.5830  177.7830  143.7910 C   0  0  0  0  0  0  0  0  0  0  0  0
  184.6220  178.6210  145.6070 C   0  0  0  0  0  0  0  0  0  0  0  0
  186.2050  176.9510  144.8530 C   0  0  0  0  0  3  0  0  0  0  0  0
  185.9560  179.0270  143.6290 C   0  0  0  0  0  3  0  0  0  0  0  0
  185.2300  177.3720  145.7630 C   0  0  0  0  0  3  0  0  0  0  0  0
  184.9830  179.4470  144.5390 C   0  0  0  0  0  3  0  0  0  0  0  0
  183.6560  179.0390  146.5120 O   0  0  0  0  0  1  0  0  0  0  0  0
  190.6740  178.2910  143.4810 N   0  0  0  0  0  2  0  0  0  0  0  0
  190.9130  176.8400  143.4590 C   0  0  1  0  0  3  0  0  0  0  0  0
  190.3680  177.4670  144.6620 C   0  0  0  0  0  2  0  0  0  0  0  0
  1  5  1  6  0  0  0
  1 16  1  0  0  0  0
  3  6  1  0  0  0  0
  3  2  1  0  0  0  0
  4  1  1  0  0  0  0
  4  2  1  0  0  0  0
  5  7  1  0  0  0  0
  7  6  2  0  0  0  0
  8 13  1  0  0  0  0
  9 12  1  0  0  0  0
 10  9  1  0  0  0  0
 10 17  1  1  0  0  0
 11 14  1  0  0  0  0
 11  9  2  0  0  0  0
 12 13  2  0  0  0  0
 14  8  2  0  0  0  0
 15 11  1  0  0  0  0
 16 15  1  1  0  0  0
 16 10  1  0  0  0  0
 17 18  2  0  0  0  0
 19  7  1  1  0  0  0
 20 21  1  6  0  0  0
 20 24  1  0  0  0  0
 20 22  1  0  0  0  0
 22 19  1  6  0  0  0
 24 23  1  6  0  0  0
 24 22  1  0  0  0  0
 24 25  1  0  0  0  0
 25 27  1  0  0  0  0
 26 29  1  0  0  0  0
 26 31  1  0  0  0  0
 27 29  2  0  0  0  0
 28 25  2  0  0  0  0
 28 30  1  0  0  0  0
 30 26  2  0  0  0  0
 32 34  1  0  0  0  0
 33 19  1  6  0  0  0
 33 32  1  0  0  0  0
 33 34  1  0  0  0  0
M  END
>  <MODEL>
7

>  <REMARK>
 VINA RESULT:      -6.7      2.875      9.341
  Name = 
  6 active torsions:
  status: ('A' for Active; 'I' for Inactive)
    1  A    between atoms: C_1  and  C_32
    2  A    between atoms: N_2  and  C_33
    3  A    between atoms: C_9  and  C_19
    4  A    between atoms: C_10  and  C_29
    5  A    between atoms: C_26  and  C_29
    6  A    between atoms: C_29  and  C_34
                            x       y       z     vdW  Elec       q    Type
                         _______ _______ _______ _____ _____    ______ ____

>  <TORSDO>
F 6

$$$$
=
 OpenBabel11042416083D

 34 39  0  0  1  0  0  0  0  0999 V2000
  194.2060  174.5350  144.1000 N   0  0  2  0  0  0  0  0  0  0  0  0
  195.3380  176.1020  145.6160 C   0  0  0  0  0  2  0  0  0  0  0  0
  194.1690  176.3970  146.5480 C   0  0  0  0  0  2  0  0  0  0  0  0
  195.2690  174.6720  145.0910 C   0  0  0  0  0  2  0  0  0  0  0  0
  192.9070  174.4150  144.7620 C   0  0  0  0  0  2  0  0  0  0  0  0
  192.9060  176.6740  145.7830 C   0  0  0  0  0  3  0  0  0  0  0  0
  192.3150  175.7750  144.9760 C   0  0  0  0  0  0  0  0  0  0  0  0
  197.5730  172.9670  139.7340 C   0  0  0  0  0  3  0  0  0  0  0  0
  195.1160  173.2940  140.9230 C   0  0  0  0  0  0  0  0  0  0  0  0
  193.8910  173.4120  141.7530 C   0  0  1  0  0  3  0  0  0  0  0  0
  196.2270  173.1590  141.7020 C   0  0  0  0  0  0  0  0  0  0  0  0
  195.1880  173.2490  139.5670 N   0  0  0  0  0  0  0  0  0  0  0  0
  196.4020  173.0930  138.9610 C   0  0  0  0  0  3  0  0  0  0  0  0
  197.4860  172.9960  141.1340 C   0  0  0  0  0  3  0  0  0  0  0  0
  195.9290  173.1960  143.0830 N   0  0  0  0  0  2  0  0  0  0  0  0
  194.4810  173.3900  143.2140 C   0  0  1  0  0  3  0  0  0  0  0  0
  193.0840  174.6080  141.3430 C   0  0  0  0  0  3  0  0  0  0  0  0
  191.9310  174.4760  140.9690 O   0  0  0  0  0  0  0  0  0  0  0  0
  191.0470  176.1170  144.2470 C   0  0  1  0  0  3  0  0  0  0  0  0
  189.2860  175.2850  145.9690 C   0  0  1  0  0  3  0  0  0  0  0  0
  189.8390  174.0620  145.5720 O   0  0  0  0  0  1  0  0  0  0  0  0
  189.9120  176.4870  145.2310 C   0  0  2  0  0  3  0  0  0  0  0  0
  188.4960  175.2060  143.6260 O   0  0  0  0  0  1  0  0  0  0  0  0
  188.5500  175.9450  144.8130 C   0  0  1  0  0  0  0  0  0  0  0  0
  187.3580  176.7730  145.1690 C   0  0  0  0  0  0  0  0  0  0  0  0
  185.0750  178.2710  145.7950 C   0  0  0  0  0  0  0  0  0  0  0  0
  186.6500  176.5160  146.3500 C   0  0  0  0  0  3  0  0  0  0  0  0
  186.9040  177.7680  144.2920 C   0  0  0  0  0  3  0  0  0  0  0  0
  185.5120  177.2670  146.6640 C   0  0  0  0  0  3  0  0  0  0  0  0
  185.7690  178.5180  144.6070 C   0  0  0  0  0  3  0  0  0  0  0  0
  183.9480  179.0170  146.1090 O   0  0  0  0  0  1  0  0  0  0  0  0
  190.1230  177.8780  142.7450 N   0  0  0  0  0  2  0  0  0  0  0  0
  191.3340  177.1260  143.1120 C   0  0  1  0  0  3  0  0  0  0  0  0
  191.1940  178.5240  143.5220 C   0  0  0  0  0  2  0  0  0  0  0  0
  1  5  1  1  0  0  0
  1  4  1  0  0  0  0
  2  3  1  0  0  0  0
  4  2  1  0  0  0  0
  5  7  1  0  0  0  0
  6  3  1  0  0  0  0
  7  6  2  0  0  0  0
  8 14  1  0  0  0  0
  9 11  1  0  0  0  0
  9 10  1  0  0  0  0
 10 17  1  6  0  0  0
 10 16  1  0  0  0  0
 11 15  1  0  0  0  0
 12  9  2  0  0  0  0
 13 12  1  0  0  0  0
 13  8  2  0  0  0  0
 14 11  2  0  0  0  0
 16 15  1  6  0  0  0
 16  1  1  0  0  0  0
 18 17  2  0  0  0  0
 19  7  1  1  0  0  0
 20 21  1  6  0  0  0
 22 19  1  6  0  0  0
 22 20  1  0  0  0  0
 24 23  1  6  0  0  0
 24 25  1  0  0  0  0
 24 22  1  0  0  0  0
 24 20  1  0  0  0  0
 25 27  1  0  0  0  0
 26 31  1  0  0  0  0
 26 29  1  0  0  0  0
 27 29  2  0  0  0  0
 28 30  1  0  0  0  0
 28 25  2  0  0  0  0
 30 26  2  0  0  0  0
 32 33  1  0  0  0  0
 32 34  1  0  0  0  0
 33 34  1  0  0  0  0
 33 19  1  1  0  0  0
M  END
>  <MODEL>
8

>  <REMARK>
 VINA RESULT:      -6.6      3.066      9.041
  Name = 
  6 active torsions:
  status: ('A' for Active; 'I' for Inactive)
    1  A    between atoms: C_1  and  C_32
    2  A    between atoms: N_2  and  C_33
    3  A    between atoms: C_9  and  C_19
    4  A    between atoms: C_10  and  C_29
    5  A    between atoms: C_26  and  C_29
    6  A    between atoms: C_29  and  C_34
                            x       y       z     vdW  Elec       q    Type
                         _______ _______ _______ _____ _____    ______ ____

>  <TORSDO>
F 6

$$$$
=
 OpenBabel11042416083D

 34 39  0  0  1  0  0  0  0  0999 V2000
  192.2640  173.7910  141.8630 N   0  0  2  0  0  0  0  0  0  0  0  0
  191.6040  171.4390  142.1280 C   0  0  0  0  0  2  0  0  0  0  0  0
  190.1110  171.6480  142.3500 C   0  0  0  0  0  2  0  0  0  0  0  0
  192.1690  172.4990  141.1890 C   0  0  0  0  0  2  0  0  0  0  0  0
  190.9540  174.4410  141.9010 C   0  0  0  0  0  2  0  0  0  0  0  0
  189.8460  172.7500  143.3360 C   0  0  0  0  0  3  0  0  0  0  0  0
  190.2150  174.0280  143.1380 C   0  0  0  0  0  0  0  0  0  0  0  0
  197.9410  174.5030  141.5180 C   0  0  0  0  0  3  0  0  0  0  0  0
  195.3900  175.4260  141.9650 C   0  0  0  0  0  0  0  0  0  0  0  0
  193.9520  175.7870  142.0440 C   0  0  1  0  0  3  0  0  0  0  0  0
  195.5780  174.3210  141.1870 C   0  0  0  0  0  0  0  0  0  0  0  0
  196.4370  176.1000  142.5090 N   0  0  0  0  0  0  0  0  0  0  0  0
  197.7100  175.6500  142.3020 C   0  0  0  0  0  3  0  0  0  0  0  0
  196.8550  173.8240  140.9440 C   0  0  0  0  0  3  0  0  0  0  0  0
  194.3650  173.7960  140.6890 N   0  0  0  0  0  2  0  0  0  0  0  0
  193.2790  174.6330  141.2070 C   0  0  1  0  0  3  0  0  0  0  0  0
  193.5250  175.9560  143.4720 C   0  0  0  0  0  3  0  0  0  0  0  0
  192.8840  176.9360  143.8110 O   0  0  0  0  0  0  0  0  0  0  0  0
  189.9090  175.0820  144.1640 C   0  0  1  0  0  3  0  0  0  0  0  0
  188.5180  176.9410  142.9950 C   0  0  1  0  0  3  0  0  0  0  0  0
  189.8030  177.2870  142.5620 O   0  0  0  0  0  1  0  0  0  0  0  0
  188.5160  175.7130  143.9290 C   0  0  2  0  0  3  0  0  0  0  0  0
  189.5080  177.6500  145.1480 O   0  0  0  0  0  1  0  0  0  0  0  0
  188.3870  177.1210  144.4990 C   0  0  1  0  0  0  0  0  0  0  0  0
  187.0400  177.5200  145.0060 C   0  0  0  0  0  0  0  0  0  0  0  0
  184.5510  178.3140  146.0180 C   0  0  0  0  0  0  0  0  0  0  0  0
  186.4080  178.6650  144.5040 C   0  0  0  0  0  3  0  0  0  0  0  0
  186.4290  176.7880  146.0350 C   0  0  0  0  0  3  0  0  0  0  0  0
  185.1640  179.0590  145.0060 C   0  0  0  0  0  3  0  0  0  0  0  0
  185.1860  177.1810  146.5350 C   0  0  0  0  0  3  0  0  0  0  0  0
  183.3150  178.7040  146.5140 O   0  0  0  0  0  1  0  0  0  0  0  0
  191.6190  174.2250  145.7610 N   0  0  0  0  0  2  0  0  0  0  0  0
  190.1940  174.5470  145.5850 C   0  0  1  0  0  3  0  0  0  0  0  0
  191.0460  175.4300  146.3830 C   0  0  0  0  0  2  0  0  0  0  0  0
  1  4  1  6  0  0  0
  1  5  1  0  0  0  0
  2  3  1  0  0  0  0
  3  6  1  0  0  0  0
  4  2  1  0  0  0  0
  5  7  1  0  0  0  0
  7  6  2  0  0  0  0
  8 13  1  0  0  0  0
  9 10  1  0  0  0  0
  9 12  1  0  0  0  0
 10 17  1  1  0  0  0
 11  9  2  0  0  0  0
 13 12  2  0  0  0  0
 14 11  1  0  0  0  0
 14  8  2  0  0  0  0
 15 11  1  0  0  0  0
 16 15  1  1  0  0  0
 16  1  1  0  0  0  0
 16 10  1  0  0  0  0
 17 18  2  0  0  0  0
 19  7  1  6  0  0  0
 20 21  1  1  0  0  0
 20 22  1  0  0  0  0
 20 24  1  0  0  0  0
 22 19  1  1  0  0  0
 22 24  1  0  0  0  0
 24 25  1  0  0  0  0
 24 23  1  1  0  0  0
 25 28  1  0  0  0  0
 26 31  1  0  0  0  0
 26 30  1  0  0  0  0
 27 25  2  0  0  0  0
 27 29  1  0  0  0  0
 28 30  2  0  0  0  0
 29 26  2  0  0  0  0
 32 34  1  0  0  0  0
 33 19  1  6  0  0  0
 33 32  1  0  0  0  0
 33 34  1  0  0  0  0
M  END
>  <MODEL>
9

>  <REMARK>
 VINA RESULT:      -6.6      3.417      8.922
  Name = 
  6 active torsions:
  status: ('A' for Active; 'I' for Inactive)
    1  A    between atoms: C_1  and  C_32
    2  A    between atoms: N_2  and  C_33
    3  A    between atoms: C_9  and  C_19
    4  A    between atoms: C_10  and  C_29
    5  A    between atoms: C_26  and  C_29
    6  A    between atoms: C_29  and  C_34
                            x       y       z     vdW  Elec       q    Type
                         _______ _______ _______ _____ _____    ______ ____

>  <TORSDO>
F 6

$$$$
