=
 OpenBabel11042419153D

 43 49  0  0  1  0  0  0  0  0999 V2000
  191.9800  175.0470  143.7910 N   0  0  0  0  0  0  0  0  0  0  0  0
  192.7090  173.8290  144.1000 C   0  0  0  0  0  2  0  0  0  0  0  0
  190.6870  175.3840  143.9110 C   0  0  0  0  0  0  0  0  0  0  0  0
  189.8460  173.0540  141.0060 C   0  0  0  0  0  2  0  0  0  0  0  0
  192.6720  176.1130  144.1590 C   0  0  0  0  0  0  0  0  0  0  0  0
  195.6230  171.4360  141.3110 C   0  0  0  0  0  2  0  0  0  0  0  0
  190.6540  176.7180  144.3000 C   0  0  0  0  0  0  0  0  0  0  0  0
  194.7300  171.3320  144.2050 C   0  0  0  0  0  0  0  0  0  0  0  0
  188.6700  174.5460  142.6160 C   0  0  2  0  0  3  0  0  0  0  0  0
  194.3700  170.2280  139.5460 C   0  0  0  0  0  0  0  0  0  0  0  0
  192.3160  170.0800  138.1840 C   0  0  0  0  0  2  0  0  0  0  0  0
  191.9130  177.1680  144.5180 N   0  0  0  0  0  0  0  0  0  0  0  0
  195.1730  172.0840  145.1750 C   0  0  0  0  0  0  0  0  0  0  0  0
  189.5470  174.4090  143.8660 C   0  0  0  0  0  2  0  0  0  0  0  0
  189.4660  174.4870  141.3210 C   0  0  0  0  0  2  0  0  0  0  0  0
  191.7930  171.5030  138.2970 C   0  0  0  0  0  2  0  0  0  0  0  0
  195.0920  173.5470  145.2150 C   0  0  0  0  0  0  0  0  0  0  0  0
  194.0010  174.3850  144.6700 C   0  0  0  0  0  0  0  0  0  0  0  0
  197.0850  170.6090  146.0250 N   0  0  0  0  0  1  0  0  0  0  0  0
  195.0300  170.7290  138.5950 O   0  0  0  0  0  0  0  0  0  0  0  0
  196.1210  174.0280  145.8390 N   0  0  0  0  0  0  0  0  0  0  0  0
  193.9560  175.7280  144.6950 C   0  0  0  0  0  0  0  0  0  0  0  0
  196.9670  172.9830  146.2280 N   0  0  0  0  0  0  0  0  0  0  0  0
  194.9700  170.1270  140.9090 C   0  0  2  0  0  3  0  0  0  0  0  0
  190.8670  171.6170  139.4930 C   0  0  0  0  0  2  0  0  0  0  0  0
  190.5650  173.0120  139.7460 N   0  0  0  0  0  2  0  0  0  0  0  0
  194.2390  171.0920  141.8290 C   0  0  1  0  0  3  0  0  0  0  0  0
  194.9620  176.6610  145.2800 C   0  0  0  0  0  1  0  0  0  0  0  0
  196.4430  171.8680  145.8500 C   0  0  0  0  0  0  0  0  0  0  0  0
  187.8910  175.7700  142.6620 N   0  0  0  0  0  1  0  0  0  0  0  0
  193.0750  169.7480  139.3400 O   0  0  0  0  0  0  0  0  0  0  0  0
  194.3080  170.5760  143.2270 C   0  0  0  0  0  3  0  0  0  0  0  0
  189.4330  177.4840  144.6910 C   0  0  0  0  0  2  0  0  0  0  0  0
  188.7130  176.7830  145.8280 C   0  0  1  0  0  3  0  0  0  0  0  0
  188.8180  177.5610  146.9930 O   0  0  0  0  0  0  0  0  0  0  0  0
  187.5940  177.6210  146.3020 C   0  0  2  0  0  3  0  0  0  0  0  0
  186.5780  176.7530  147.0210 C   0  0  0  0  0  2  0  0  0  0  0  0
  185.4280  177.2180  145.0440 C   0  0  0  0  0  2  0  0  0  0  0  0
  184.4230  178.2710  144.6320 C   0  0  1  0  0  3  0  0  0  0  0  0
  184.0120  178.9560  145.9130 C   0  0  0  0  0  2  0  0  0  0  0  0
  185.0320  179.1910  143.7780 O   0  0  0  0  0  1  0  0  0  0  0  0
  185.2540  176.9770  146.4670 N   0  0  0  0  0  0  0  0  0  0  0  0
  184.7620  178.2340  147.0140 C   0  0  0  0  0  2  0  0  0  0  0  0
  1  3  1  0  0  0  0
  1  2  1  0  0  0  0
  1  5  1  0  0  0  0
  2 18  1  0  0  0  0
  3  7  2  0  0  0  0
  4 15  1  0  0  0  0
  5 12  2  0  0  0  0
  5 22  1  0  0  0  0
  7 12  1  0  0  0  0
  7 33  1  0  0  0  0
  8 13  2  0  0  0  0
  9 30  1  1  0  0  0
  9 14  1  0  0  0  0
 10 24  1  0  0  0  0
 11 16  1  0  0  0  0
 11 31  1  0  0  0  0
 13 17  1  0  0  0  0
 13 29  1  0  0  0  0
 14  3  1  0  0  0  0
 15  9  1  0  0  0  0
 16 25  1  0  0  0  0
 17 21  2  0  0  0  0
 18 22  2  0  0  0  0
 18 17  1  0  0  0  0
 20 10  2  0  0  0  0
 21 23  1  0  0  0  0
 22 28  1  0  0  0  0
 24  6  1  6  0  0  0
 24 27  1  0  0  0  0
 25 26  1  0  0  0  0
 26  4  1  0  0  0  0
 27  6  1  1  0  0  0
 27 32  1  0  0  0  0
 29 19  1  0  0  0  0
 29 23  2  0  0  0  0
 31 10  1  0  0  0  0
 32  8  2  0  0  0  0
 34 33  1  6  0  0  0
 34 36  1  0  0  0  0
 34 35  1  0  0  0  0
 36 35  1  0  0  0  0
 36 37  1  1  0  0  0
 38 42  1  0  0  0  0
 39 41  1  6  0  0  0
 39 38  1  0  0  0  0
 39 40  1  0  0  0  0
 40 43  1  0  0  0  0
 42 43  1  0  0  0  0
 42 37  1  0  0  0  0
M  END
>  <MODEL>
1

>  <REMARK>
 VINA RESULT:      -8.7      0.000      0.000
  Name = 
  4 active torsions:
  status: ('A' for Active; 'I' for Inactive)
    1  A    between atoms: C_5  and  C_9
    2  A    between atoms: C_5  and  C_22
    3  A    between atoms: C_12  and  N_24
    4  A    between atoms: C_12  and  C_42
                            x       y       z     vdW  Elec       q    Type
                         _______ _______ _______ _____ _____    ______ ____

>  <TORSDO>
F 4

$$$$
=
 OpenBabel11042419153D

 43 49  0  0  1  0  0  0  0  0999 V2000
  191.0710  174.6290  143.7560 N   0  0  0  0  0  0  0  0  0  0  0  0
  191.7320  174.5290  142.4670 C   0  0  0  0  0  2  0  0  0  0  0  0
  191.0560  175.5880  144.6940 C   0  0  0  0  0  0  0  0  0  0  0  0
  194.6680  174.7310  145.5830 C   0  0  0  0  0  2  0  0  0  0  0  0
  189.8340  174.1650  143.6860 C   0  0  0  0  0  0  0  0  0  0  0  0
  194.4000  171.0190  140.8670 C   0  0  0  0  0  2  0  0  0  0  0  0
  189.7680  175.6180  145.2180 C   0  0  0  0  0  0  0  0  0  0  0  0
  193.2260  173.5910  139.7800 C   0  0  0  0  0  0  0  0  0  0  0  0
  192.9110  176.3670  146.2430 C   0  0  2  0  0  3  0  0  0  0  0  0
  196.6090  171.0010  141.9910 C   0  0  0  0  0  0  0  0  0  0  0  0
  197.9410  171.6320  143.9720 C   0  0  0  0  0  2  0  0  0  0  0  0
  188.9720  174.7560  144.5380 N   0  0  0  0  0  0  0  0  0  0  0  0
  192.0010  173.7640  139.3660 C   0  0  0  0  0  0  0  0  0  0  0  0
  192.1640  176.5740  144.9210 C   0  0  0  0  0  2  0  0  0  0  0  0
  193.4240  174.9460  146.4210 C   0  0  0  0  0  2  0  0  0  0  0  0
  196.8440  171.8210  145.0070 C   0  0  0  0  0  2  0  0  0  0  0  0
  190.7980  173.5750  140.1820 C   0  0  0  0  0  0  0  0  0  0  0  0
  190.6600  173.8560  141.6280 C   0  0  0  0  0  0  0  0  0  0  0  0
  192.3000  173.2040  136.8860 N   0  0  0  0  0  1  0  0  0  0  0  0
  196.5200  169.7990  142.3670 O   0  0  0  0  0  0  0  0  0  0  0  0
  189.8260  173.1430  139.4410 N   0  0  0  0  0  0  0  0  0  0  0  0
  189.5550  173.6530  142.3660 C   0  0  0  0  0  0  0  0  0  0  0  0
  190.2740  172.9780  138.1250 N   0  0  0  0  0  0  0  0  0  0  0  0
  195.8440  171.4770  140.8010 C   0  0  2  0  0  3  0  0  0  0  0  0
  196.3690  173.2610  144.9970 C   0  0  0  0  0  2  0  0  0  0  0  0
  195.1680  173.3860  145.8000 N   0  0  0  0  0  2  0  0  0  0  0  0
  194.7620  172.4350  141.2770 C   0  0  1  0  0  3  0  0  0  0  0  0
  188.2370  173.1270  141.9040 C   0  0  0  0  0  1  0  0  0  0  0  0
  191.5150  173.3220  138.0690 C   0  0  0  0  0  0  0  0  0  0  0  0
  192.0750  176.7360  147.3720 N   0  0  0  0  0  1  0  0  0  0  0  0
  197.4320  171.9010  142.6710 O   0  0  0  0  0  0  0  0  0  0  0  0
  194.4530  173.3990  140.1820 C   0  0  0  0  0  3  0  0  0  0  0  0
  189.2420  176.6220  146.1900 C   0  0  0  0  0  2  0  0  0  0  0  0
  187.7410  176.4690  146.3440 C   0  0  1  0  0  3  0  0  0  0  0  0
  187.2410  177.5470  147.0930 O   0  0  0  0  0  0  0  0  0  0  0  0
  187.0550  177.6080  145.7000 C   0  0  2  0  0  3  0  0  0  0  0  0
  185.6240  177.2210  145.3750 C   0  0  0  0  0  2  0  0  0  0  0  0
  186.0270  176.4710  143.2020 C   0  0  0  0  0  2  0  0  0  0  0  0
  186.5480  177.1250  141.9410 C   0  0  1  0  0  3  0  0  0  0  0  0
  186.5660  178.6050  142.2340 C   0  0  0  0  0  2  0  0  0  0  0  0
  187.8460  176.6780  141.6840 O   0  0  0  0  0  1  0  0  0  0  0  0
  185.3430  177.4930  143.9760 N   0  0  0  0  0  0  0  0  0  0  0  0
  186.0060  178.7440  143.6360 C   0  0  0  0  0  2  0  0  0  0  0  0
  1  3  1  0  0  0  0
  2  1  1  0  0  0  0
  3 14  1  0  0  0  0
  3  7  2  0  0  0  0
  4 26  1  0  0  0  0
  4 15  1  0  0  0  0
  5  1  1  0  0  0  0
  5 12  2  0  0  0  0
  6 27  1  0  0  0  0
  7 33  1  0  0  0  0
  8 32  2  0  0  0  0
  9 15  1  0  0  0  0
  9 30  1  1  0  0  0
 10 20  2  0  0  0  0
 10 31  1  0  0  0  0
 11 16  1  0  0  0  0
 12  7  1  0  0  0  0
 13  8  2  0  0  0  0
 13 17  1  0  0  0  0
 14  9  1  0  0  0  0
 17 18  1  0  0  0  0
 18 22  2  0  0  0  0
 18  2  1  0  0  0  0
 19 29  1  0  0  0  0
 21 17  2  0  0  0  0
 22  5  1  0  0  0  0
 23 21  1  0  0  0  0
 24  6  1  1  0  0  0
 24 27  1  0  0  0  0
 24 10  1  0  0  0  0
 25 16  1  0  0  0  0
 25 26  1  0  0  0  0
 27 32  1  6  0  0  0
 28 22  1  0  0  0  0
 29 23  2  0  0  0  0
 29 13  1  0  0  0  0
 31 11  1  0  0  0  0
 34 33  1  6  0  0  0
 34 35  1  0  0  0  0
 36 37  1  1  0  0  0
 36 34  1  0  0  0  0
 36 35  1  0  0  0  0
 38 42  1  0  0  0  0
 39 41  1  1  0  0  0
 39 40  1  0  0  0  0
 39 38  1  0  0  0  0
 40 43  1  0  0  0  0
 42 37  1  0  0  0  0
 43 42  1  0  0  0  0
M  END
>  <MODEL>
2

>  <REMARK>
 VINA RESULT:      -8.4      2.127      5.444
  Name = 
  4 active torsions:
  status: ('A' for Active; 'I' for Inactive)
    1  A    between atoms: C_5  and  C_9
    2  A    between atoms: C_5  and  C_22
    3  A    between atoms: C_12  and  N_24
    4  A    between atoms: C_12  and  C_42
                            x       y       z     vdW  Elec       q    Type
                         _______ _______ _______ _____ _____    ______ ____

>  <TORSDO>
F 4

$$$$
=
 OpenBabel11042419153D

 43 49  0  0  1  0  0  0  0  0999 V2000
  191.5000  174.6720  142.0400 N   0  0  0  0  0  0  0  0  0  0  0  0
  192.5960  173.8950  142.5930 C   0  0  0  0  0  2  0  0  0  0  0  0
  190.2580  174.3410  141.6580 C   0  0  0  0  0  0  0  0  0  0  0  0
  191.7080  172.5220  138.6310 C   0  0  0  0  0  2  0  0  0  0  0  0
  191.3970  175.8390  142.6540 C   0  0  0  0  0  0  0  0  0  0  0  0
  197.0430  173.7350  141.1110 C   0  0  0  0  0  2  0  0  0  0  0  0
  189.4320  175.4000  142.0170 C   0  0  0  0  0  0  0  0  0  0  0  0
  195.4370  172.6520  143.4400 C   0  0  0  0  0  0  0  0  0  0  0  0
  189.4900  172.9440  139.6820 C   0  0  2  0  0  3  0  0  0  0  0  0
  197.2260  172.4660  138.9900 C   0  0  0  0  0  0  0  0  0  0  0  0
  196.1030  171.6610  136.9430 C   0  0  0  0  0  2  0  0  0  0  0  0
  190.1410  176.3280  142.7050 N   0  0  0  0  0  0  0  0  0  0  0  0
  195.0960  173.3120  144.5130 C   0  0  0  0  0  0  0  0  0  0  0  0
  189.8510  172.9810  141.1710 C   0  0  0  0  0  2  0  0  0  0  0  0
  190.5790  173.5210  138.7900 C   0  0  0  0  0  2  0  0  0  0  0  0
  194.9310  172.6260  136.8600 C   0  0  0  0  0  2  0  0  0  0  0  0
  194.2800  174.5300  144.5330 C   0  0  0  0  0  0  0  0  0  0  0  0
  193.1630  174.8580  143.6200 C   0  0  0  0  0  0  0  0  0  0  0  0
  197.0900  172.7520  146.0170 N   0  0  0  0  0  1  0  0  0  0  0  0
  197.8120  173.3940  138.3680 O   0  0  0  0  0  0  0  0  0  0  0  0
  194.6570  175.2970  145.5080 N   0  0  0  0  0  0  0  0  0  0  0  0
  192.4420  175.9930  143.6380 C   0  0  0  0  0  0  0  0  0  0  0  0
  195.7330  174.7070  146.1820 N   0  0  0  0  0  0  0  0  0  0  0  0
  197.3120  172.3830  140.4770 C   0  0  2  0  0  3  0  0  0  0  0  0
  193.7420  172.0560  137.6110 C   0  0  0  0  0  2  0  0  0  0  0  0
  192.7150  173.0710  137.7420 N   0  0  0  0  0  2  0  0  0  0  0  0
  195.9400  172.6940  141.0560 C   0  0  1  0  0  3  0  0  0  0  0  0
  192.5850  177.1470  144.5720 C   0  0  0  0  0  1  0  0  0  0  0  0
  195.9990  173.5780  145.6210 C   0  0  0  0  0  0  0  0  0  0  0  0
  188.2350  173.6320  139.4370 N   0  0  0  0  0  1  0  0  0  0  0  0
  196.4990  171.4940  138.2980 O   0  0  0  0  0  0  0  0  0  0  0  0
  195.7990  172.0000  142.3690 C   0  0  0  0  0  3  0  0  0  0  0  0
  187.9420  175.4190  141.9190 C   0  0  0  0  0  2  0  0  0  0  0  0
  187.4170  176.8230  142.1480 C   0  0  1  0  0  3  0  0  0  0  0  0
  186.2860  177.0330  141.3420 O   0  0  0  0  0  0  0  0  0  0  0  0
  186.0490  176.7620  142.7020 C   0  0  2  0  0  3  0  0  0  0  0  0
  185.7320  178.0620  143.4170 C   0  0  0  0  0  2  0  0  0  0  0  0
  184.9330  179.0110  145.3930 C   0  0  0  0  0  2  0  0  0  0  0  0
  184.9740  178.6040  146.8500 C   0  0  1  0  0  3  0  0  0  0  0  0
  185.4700  177.1790  146.8540 C   0  0  0  0  0  2  0  0  0  0  0  0
  185.8740  179.4190  147.5390 O   0  0  0  0  0  1  0  0  0  0  0  0
  184.9290  177.7950  144.5970 N   0  0  0  0  0  0  0  0  0  0  0  0
  185.6450  176.8080  145.3950 C   0  0  0  0  0  2  0  0  0  0  0  0
  1  2  1  0  0  0  0
  1  5  1  0  0  0  0
  2 18  1  0  0  0  0
  3  7  2  0  0  0  0
  3  1  1  0  0  0  0
  4 15  1  0  0  0  0
  5 12  2  0  0  0  0
  5 22  1  0  0  0  0
  7 12  1  0  0  0  0
  8 13  2  0  0  0  0
  9 30  1  1  0  0  0
  9 14  1  0  0  0  0
 10 24  1  0  0  0  0
 11 31  1  0  0  0  0
 13 17  1  0  0  0  0
 13 29  1  0  0  0  0
 14  3  1  0  0  0  0
 15  9  1  0  0  0  0
 16 11  1  0  0  0  0
 16 25  1  0  0  0  0
 17 21  2  0  0  0  0
 18 22  2  0  0  0  0
 18 17  1  0  0  0  0
 20 10  2  0  0  0  0
 21 23  1  0  0  0  0
 22 28  1  0  0  0  0
 24 27  1  0  0  0  0
 24  6  1  1  0  0  0
 25 26  1  0  0  0  0
 26  4  1  0  0  0  0
 27  6  1  1  0  0  0
 27 32  1  0  0  0  0
 29 19  1  0  0  0  0
 29 23  2  0  0  0  0
 31 10  1  0  0  0  0
 32  8  2  0  0  0  0
 33  7  1  0  0  0  0
 34 33  1  6  0  0  0
 34 36  1  0  0  0  0
 35 34  1  0  0  0  0
 35 36  1  0  0  0  0
 36 37  1  1  0  0  0
 37 42  1  0  0  0  0
 38 39  1  0  0  0  0
 39 40  1  0  0  0  0
 39 41  1  1  0  0  0
 42 38  1  0  0  0  0
 42 43  1  0  0  0  0
 43 40  1  0  0  0  0
M  END
>  <MODEL>
3

>  <REMARK>
 VINA RESULT:      -8.4      1.994      2.994
  Name = 
  4 active torsions:
  status: ('A' for Active; 'I' for Inactive)
    1  A    between atoms: C_5  and  C_9
    2  A    between atoms: C_5  and  C_22
    3  A    between atoms: C_12  and  N_24
    4  A    between atoms: C_12  and  C_42
                            x       y       z     vdW  Elec       q    Type
                         _______ _______ _______ _____ _____    ______ ____

>  <TORSDO>
F 4

$$$$
=
 OpenBabel11042419153D

 43 49  0  0  1  0  0  0  0  0999 V2000
  191.4690  172.7920  142.2990 N   0  0  0  0  0  0  0  0  0  0  0  0
  191.9410  174.0750  142.7890 C   0  0  0  0  0  2  0  0  0  0  0  0
  191.2080  172.3330  141.0670 C   0  0  0  0  0  0  0  0  0  0  0  0
  188.1090  174.5570  140.9290 C   0  0  0  0  0  2  0  0  0  0  0  0
  192.0610  171.7990  142.9430 C   0  0  0  0  0  0  0  0  0  0  0  0
  190.0700  176.7240  146.1780 C   0  0  0  0  0  2  0  0  0  0  0  0
  191.6140  171.0030  141.0380 C   0  0  0  0  0  0  0  0  0  0  0  0
  192.5600  176.7550  144.4520 C   0  0  0  0  0  0  0  0  0  0  0  0
  189.3440  172.9670  139.4630 C   0  0  2  0  0  3  0  0  0  0  0  0
  187.9730  177.7980  145.4080 C   0  0  0  0  0  0  0  0  0  0  0  0
  186.0550  177.7420  143.8530 C   0  0  0  0  0  2  0  0  0  0  0  0
  192.2120  170.6770  142.2100 N   0  0  0  0  0  0  0  0  0  0  0  0
  193.6430  176.0540  144.6500 C   0  0  0  0  0  0  0  0  0  0  0  0
  190.7930  173.1930  139.9090 C   0  0  0  0  0  2  0  0  0  0  0  0
  188.3440  173.0960  140.6030 C   0  0  0  0  0  2  0  0  0  0  0  0
  186.0550  176.2760  143.4510 C   0  0  0  0  0  2  0  0  0  0  0  0
  193.7050  174.5900  144.6930 C   0  0  0  0  0  0  0  0  0  0  0  0
  192.8880  173.6480  143.8950 C   0  0  0  0  0  0  0  0  0  0  0  0
  194.9750  177.7090  146.0770 N   0  0  0  0  0  1  0  0  0  0  0  0
  187.2780  177.3580  146.3650 O   0  0  0  0  0  0  0  0  0  0  0  0
  194.6230  174.2120  145.5260 N   0  0  0  0  0  0  0  0  0  0  0  0
  192.9430  172.3070  143.9660 C   0  0  0  0  0  0  0  0  0  0  0  0
  195.2120  175.3360  146.1180 N   0  0  0  0  0  0  0  0  0  0  0  0
  189.4480  177.9620  145.5600 C   0  0  2  0  0  3  0  0  0  0  0  0
  186.9230  176.0790  142.2230 C   0  0  0  0  0  2  0  0  0  0  0  0
  187.1200  174.6620  141.9850 N   0  0  0  0  0  2  0  0  0  0  0  0
  190.1400  176.9360  144.6760 C   0  0  1  0  0  3  0  0  0  0  0  0
  193.8320  171.4770  144.8300 C   0  0  0  0  0  1  0  0  0  0  0  0
  194.6580  176.3930  145.6330 C   0  0  0  0  0  0  0  0  0  0  0  0
  189.1960  171.6730  138.8200 N   0  0  0  0  0  1  0  0  0  0  0  0
  187.3730  178.1500  144.1960 O   0  0  0  0  0  0  0  0  0  0  0  0
  191.4770  177.4620  144.2760 C   0  0  0  0  0  3  0  0  0  0  0  0
  191.6490  170.1250  139.8310 C   0  0  0  0  0  2  0  0  0  0  0  0
  192.6630  170.6450  138.8300 C   0  0  1  0  0  3  0  0  0  0  0  0
  193.2090  169.5640  138.1190 O   0  0  0  0  0  0  0  0  0  0  0  0
  192.2240  170.3210  137.4580 C   0  0  2  0  0  3  0  0  0  0  0  0
  192.8980  171.2580  136.4740 C   0  0  0  0  0  2  0  0  0  0  0  0
  191.5530  172.9340  135.5650 C   0  0  0  0  0  2  0  0  0  0  0  0
  190.1010  173.0090  135.1470 C   0  0  1  0  0  3  0  0  0  0  0  0
  189.6010  171.5850  135.1760 C   0  0  0  0  0  2  0  0  0  0  0  0
  189.3870  173.7790  136.0660 O   0  0  0  0  0  1  0  0  0  0  0  0
  191.9930  171.5610  135.3790 N   0  0  0  0  0  0  0  0  0  0  0  0
  190.8020  170.7440  135.5620 C   0  0  0  0  0  2  0  0  0  0  0  0
  1  2  1  0  0  0  0
  1  5  1  0  0  0  0
  2 18  1  0  0  0  0
  3  1  1  0  0  0  0
  4 26  1  0  0  0  0
  5 22  1  0  0  0  0
  7  3  2  0  0  0  0
  7 12  1  0  0  0  0
  8 13  2  0  0  0  0
  9 30  1  1  0  0  0
  9 14  1  0  0  0  0
  9 15  1  0  0  0  0
 10 24  1  0  0  0  0
 10 20  2  0  0  0  0
 11 31  1  0  0  0  0
 12  5  2  0  0  0  0
 13 17  1  0  0  0  0
 13 29  1  0  0  0  0
 14  3  1  0  0  0  0
 15  4  1  0  0  0  0
 16 11  1  0  0  0  0
 17 21  2  0  0  0  0
 18 22  2  0  0  0  0
 18 17  1  0  0  0  0
 21 23  1  0  0  0  0
 22 28  1  0  0  0  0
 24  6  1  1  0  0  0
 25 16  1  0  0  0  0
 26 25  1  0  0  0  0
 27 32  1  1  0  0  0
 27 24  1  0  0  0  0
 27  6  1  0  0  0  0
 29 19  1  0  0  0  0
 29 23  2  0  0  0  0
 31 10  1  0  0  0  0
 32  8  2  0  0  0  0
 33  7  1  0  0  0  0
 34 33  1  1  0  0  0
 35 34  1  0  0  0  0
 36 37  1  6  0  0  0
 36 35  1  0  0  0  0
 36 34  1  0  0  0  0
 39 40  1  0  0  0  0
 39 38  1  0  0  0  0
 39 41  1  1  0  0  0
 40 43  1  0  0  0  0
 42 43  1  0  0  0  0
 42 38  1  0  0  0  0
 42 37  1  0  0  0  0
M  END
>  <MODEL>
4

>  <REMARK>
 VINA RESULT:      -8.2      2.276      8.518
  Name = 
  4 active torsions:
  status: ('A' for Active; 'I' for Inactive)
    1  A    between atoms: C_5  and  C_9
    2  A    between atoms: C_5  and  C_22
    3  A    between atoms: C_12  and  N_24
    4  A    between atoms: C_12  and  C_42
                            x       y       z     vdW  Elec       q    Type
                         _______ _______ _______ _____ _____    ______ ____

>  <TORSDO>
F 4

$$$$
=
 OpenBabel11042419153D

 43 49  0  0  1  0  0  0  0  0999 V2000
  191.5300  174.1620  141.3710 N   0  0  0  0  0  0  0  0  0  0  0  0
  192.8490  174.5690  140.9190 C   0  0  0  0  0  2  0  0  0  0  0  0
  190.6360  174.7370  142.1880 C   0  0  0  0  0  0  0  0  0  0  0  0
  192.9010  173.9590  145.1610 C   0  0  0  0  0  2  0  0  0  0  0  0
  190.8340  173.6390  140.3750 C   0  0  0  0  0  0  0  0  0  0  0  0
  196.8200  172.0730  141.0170 C   0  0  0  0  0  2  0  0  0  0  0  0
  189.3780  174.4690  141.6600 C   0  0  0  0  0  0  0  0  0  0  0  0
  195.9000  174.7450  139.9230 C   0  0  0  0  0  0  0  0  0  0  0  0
  190.7390  175.1050  144.6990 C   0  0  2  0  0  3  0  0  0  0  0  0
  197.6850  171.8730  143.3310 C   0  0  0  0  0  0  0  0  0  0  0  0
  197.1850  171.9090  145.7490 C   0  0  0  0  0  2  0  0  0  0  0  0
  189.5020  173.8230  140.4750 N   0  0  0  0  0  0  0  0  0  0  0  0
  195.2390  174.9360  138.8140 C   0  0  0  0  0  0  0  0  0  0  0  0
  190.9840  175.6830  143.3000 C   0  0  0  0  0  2  0  0  0  0  0  0
  191.4190  173.7620  144.9150 C   0  0  0  0  0  2  0  0  0  0  0  0
  195.6910  171.6320  145.7380 C   0  0  0  0  0  2  0  0  0  0  0  0
  193.9210  174.3710  138.5070 C   0  0  0  0  0  0  0  0  0  0  0  0
  192.8210  174.1280  139.4660 C   0  0  0  0  0  0  0  0  0  0  0  0
  197.1940  175.2870  137.2000 N   0  0  0  0  0  1  0  0  0  0  0  0
  197.7440  170.6130  143.3070 O   0  0  0  0  0  0  0  0  0  0  0  0
  193.8290  174.1320  137.2370 N   0  0  0  0  0  0  0  0  0  0  0  0
  191.6280  173.5850  139.1700 C   0  0  0  0  0  0  0  0  0  0  0  0
  195.0330  174.4680  136.6060 N   0  0  0  0  0  0  0  0  0  0  0  0
  197.7510  172.6560  142.0620 C   0  0  2  0  0  3  0  0  0  0  0  0
  194.9260  172.9400  145.6670 C   0  0  0  0  0  2  0  0  0  0  0  0
  193.5240  172.6730  145.4100 N   0  0  0  0  0  2  0  0  0  0  0  0
  196.3920  173.2910  141.8160 C   0  0  1  0  0  3  0  0  0  0  0  0
  191.1400  173.1320  137.8350 C   0  0  0  0  0  1  0  0  0  0  0  0
  195.8490  174.9210  137.4950 C   0  0  0  0  0  0  0  0  0  0  0  0
  189.3160  174.9890  144.9670 N   0  0  0  0  0  1  0  0  0  0  0  0
  197.5680  172.5580  144.5430 O   0  0  0  0  0  0  0  0  0  0  0  0
  196.5760  174.5390  141.0210 C   0  0  0  0  0  3  0  0  0  0  0  0
  188.0840  175.0280  142.1540 C   0  0  0  0  0  2  0  0  0  0  0  0
  187.9240  176.4660  141.6980 C   0  0  1  0  0  3  0  0  0  0  0  0
  186.7320  176.5900  140.9670 O   0  0  0  0  0  0  0  0  0  0  0  0
  186.7060  177.0470  142.2970 C   0  0  2  0  0  3  0  0  0  0  0  0
  186.8140  178.5610  142.3020 C   0  0  0  0  0  2  0  0  0  0  0  0
  186.8160  178.2720  144.6170 C   0  0  0  0  0  2  0  0  0  0  0  0
  185.7320  178.1200  145.6610 C   0  0  1  0  0  3  0  0  0  0  0  0
  184.4430  178.4570  144.9530 C   0  0  0  0  0  2  0  0  0  0  0  0
  185.6940  176.7980  146.1080 O   0  0  0  0  0  1  0  0  0  0  0  0
  186.2800  179.0920  143.5430 N   0  0  0  0  0  0  0  0  0  0  0  0
  184.8460  178.8380  143.5420 C   0  0  0  0  0  2  0  0  0  0  0  0
  1  3  1  0  0  0  0
  2  1  1  0  0  0  0
  3 14  1  0  0  0  0
  4 26  1  0  0  0  0
  5 12  2  0  0  0  0
  5  1  1  0  0  0  0
  7 33  1  0  0  0  0
  7  3  2  0  0  0  0
  8 32  2  0  0  0  0
  9 15  1  0  0  0  0
  9 30  1  6  0  0  0
 10 31  1  0  0  0  0
 12  7  1  0  0  0  0
 13  8  2  0  0  0  0
 14  9  1  0  0  0  0
 15  4  1  0  0  0  0
 16 11  1  0  0  0  0
 17 13  1  0  0  0  0
 17 18  1  0  0  0  0
 18  2  1  0  0  0  0
 19 29  1  0  0  0  0
 20 10  2  0  0  0  0
 21 17  2  0  0  0  0
 22 18  2  0  0  0  0
 22  5  1  0  0  0  0
 23 21  1  0  0  0  0
 23 29  2  0  0  0  0
 24  6  1  6  0  0  0
 24 10  1  0  0  0  0
 25 16  1  0  0  0  0
 26 25  1  0  0  0  0
 27  6  1  6  0  0  0
 27 24  1  0  0  0  0
 28 22  1  0  0  0  0
 29 13  1  0  0  0  0
 31 11  1  0  0  0  0
 32 27  1  0  0  0  0
 34 33  1  1  0  0  0
 34 36  1  0  0  0  0
 35 34  1  0  0  0  0
 35 36  1  0  0  0  0
 36 37  1  6  0  0  0
 37 42  1  0  0  0  0
 38 39  1  0  0  0  0
 39 41  1  6  0  0  0
 40 39  1  0  0  0  0
 42 38  1  0  0  0  0
 43 42  1  0  0  0  0
 43 40  1  0  0  0  0
M  END
>  <MODEL>
5

>  <REMARK>
 VINA RESULT:      -8.1      3.128      5.649
  Name = 
  4 active torsions:
  status: ('A' for Active; 'I' for Inactive)
    1  A    between atoms: C_5  and  C_9
    2  A    between atoms: C_5  and  C_22
    3  A    between atoms: C_12  and  N_24
    4  A    between atoms: C_12  and  C_42
                            x       y       z     vdW  Elec       q    Type
                         _______ _______ _______ _____ _____    ______ ____

>  <TORSDO>
F 4

$$$$
=
 OpenBabel11042419153D

 43 49  0  0  1  0  0  0  0  0999 V2000
  188.8690  174.8000  141.8020 N   0  0  0  0  0  0  0  0  0  0  0  0
  188.5940  174.9800  143.2170 C   0  0  0  0  0  2  0  0  0  0  0  0
  188.9790  173.7070  141.0330 C   0  0  0  0  0  0  0  0  0  0  0  0
  192.3020  172.8890  142.7230 C   0  0  0  0  0  2  0  0  0  0  0  0
  188.2130  175.6930  141.0800 C   0  0  0  0  0  0  0  0  0  0  0  0
  191.0200  177.5280  146.3180 C   0  0  0  0  0  2  0  0  0  0  0  0
  188.4160  174.0230  139.8020 C   0  0  0  0  0  0  0  0  0  0  0  0
  188.4280  175.9610  146.2730 C   0  0  0  0  0  0  0  0  0  0  0  0
  190.7780  171.9150  141.0110 C   0  0  2  0  0  3  0  0  0  0  0  0
  193.1660  176.4250  146.8860 C   0  0  0  0  0  0  0  0  0  0  0  0
  194.9390  174.8470  146.2050 C   0  0  0  0  0  2  0  0  0  0  0  0
  187.8740  175.2650  139.8470 N   0  0  0  0  0  0  0  0  0  0  0  0
  187.2870  176.3730  145.7910 C   0  0  0  0  0  0  0  0  0  0  0  0
  189.4040  172.3560  141.5290 C   0  0  0  0  0  2  0  0  0  0  0  0
  191.8700  172.9420  141.2720 C   0  0  0  0  0  2  0  0  0  0  0  0
  194.7340  174.8180  144.6990 C   0  0  0  0  0  2  0  0  0  0  0  0
  187.0530  176.7760  144.4020 C   0  0  0  0  0  0  0  0  0  0  0  0
  187.6890  176.1980  143.1960 C   0  0  0  0  0  0  0  0  0  0  0  0
  186.2750  177.4090  147.9020 N   0  0  0  0  0  1  0  0  0  0  0  0
  193.8740  177.4290  146.5970 O   0  0  0  0  0  0  0  0  0  0  0  0
  186.1630  177.7170  144.3600 N   0  0  0  0  0  0  0  0  0  0  0  0
  187.4790  176.5990  141.9310 C   0  0  0  0  0  0  0  0  0  0  0  0
  185.7590  178.0410  145.6610 N   0  0  0  0  0  0  0  0  0  0  0  0
  191.7370  176.5980  147.2790 C   0  0  2  0  0  3  0  0  0  0  0  0
  193.7570  173.7160  144.3340 C   0  0  0  0  0  2  0  0  0  0  0  0
  193.3740  173.8420  142.9420 N   0  0  0  0  0  2  0  0  0  0  0  0
  190.8620  176.0250  146.1750 C   0  0  1  0  0  3  0  0  0  0  0  0
  186.5660  177.6790  141.4570 C   0  0  0  0  0  1  0  0  0  0  0  0
  186.3970  177.2870  146.4880 C   0  0  0  0  0  0  0  0  0  0  0  0
  190.7210  171.6030  139.5940 N   0  0  0  0  0  1  0  0  0  0  0  0
  193.7100  175.1390  146.8570 O   0  0  0  0  0  0  0  0  0  0  0  0
  189.5720  175.5690  146.7660 C   0  0  0  0  0  3  0  0  0  0  0  0
  188.1840  173.0710  138.6750 C   0  0  0  0  0  2  0  0  0  0  0  0
  188.5640  173.7150  137.3550 C   0  0  1  0  0  3  0  0  0  0  0  0
  189.9180  174.0880  137.3940 O   0  0  0  0  0  0  0  0  0  0  0  0
  189.6080  172.9110  136.6890 C   0  0  2  0  0  3  0  0  0  0  0  0
  189.6090  173.2110  135.2020 C   0  0  0  0  0  2  0  0  0  0  0  0
  190.4680  171.0420  135.2370 C   0  0  0  0  0  2  0  0  0  0  0  0
  191.8650  170.4610  135.2210 C   0  0  1  0  0  3  0  0  0  0  0  0
  192.7770  171.6190  134.8990 C   0  0  0  0  0  2  0  0  0  0  0  0
  192.1750  169.9520  136.4830 O   0  0  0  0  0  1  0  0  0  0  0  0
  190.5070  172.3010  134.5130 N   0  0  0  0  0  0  0  0  0  0  0  0
  191.8610  172.8090  134.6930 C   0  0  0  0  0  2  0  0  0  0  0  0
  1  2  1  0  0  0  0
  3 14  1  0  0  0  0
  3  1  1  0  0  0  0
  4 26  1  0  0  0  0
  5  1  1  0  0  0  0
  5 22  1  0  0  0  0
  7 12  1  0  0  0  0
  7  3  2  0  0  0  0
  8 32  2  0  0  0  0
  9 30  1  6  0  0  0
  9 15  1  0  0  0  0
  9 14  1  0  0  0  0
 10 24  1  0  0  0  0
 11 31  1  0  0  0  0
 12  5  2  0  0  0  0
 13  8  2  0  0  0  0
 13 29  1  0  0  0  0
 15  4  1  0  0  0  0
 16 11  1  0  0  0  0
 17 13  1  0  0  0  0
 18  2  1  0  0  0  0
 18 17  1  0  0  0  0
 20 10  2  0  0  0  0
 21 17  2  0  0  0  0
 21 23  1  0  0  0  0
 22 18  2  0  0  0  0
 23 29  2  0  0  0  0
 24  6  1  6  0  0  0
 25 16  1  0  0  0  0
 26 25  1  0  0  0  0
 27  6  1  6  0  0  0
 27 32  1  0  0  0  0
 27 24  1  0  0  0  0
 28 22  1  0  0  0  0
 29 19  1  0  0  0  0
 31 10  1  0  0  0  0
 33  7  1  0  0  0  0
 34 35  1  0  0  0  0
 34 33  1  1  0  0  0
 36 37  1  6  0  0  0
 36 34  1  0  0  0  0
 36 35  1  0  0  0  0
 39 38  1  0  0  0  0
 39 41  1  1  0  0  0
 40 39  1  0  0  0  0
 42 43  1  0  0  0  0
 42 37  1  0  0  0  0
 42 38  1  0  0  0  0
 43 40  1  0  0  0  0
M  END
>  <MODEL>
6

>  <REMARK>
 VINA RESULT:      -8.0      3.083      9.324
  Name = 
  4 active torsions:
  status: ('A' for Active; 'I' for Inactive)
    1  A    between atoms: C_5  and  C_9
    2  A    between atoms: C_5  and  C_22
    3  A    between atoms: C_12  and  N_24
    4  A    between atoms: C_12  and  C_42
                            x       y       z     vdW  Elec       q    Type
                         _______ _______ _______ _____ _____    ______ ____

>  <TORSDO>
F 4

$$$$
=
 OpenBabel11042419153D

 43 49  0  0  1  0  0  0  0  0999 V2000
  191.6830  172.9340  142.1060 N   0  0  0  0  0  0  0  0  0  0  0  0
  192.0970  174.1880  142.7100 C   0  0  0  0  0  2  0  0  0  0  0  0
  191.4900  172.5630  140.8320 C   0  0  0  0  0  0  0  0  0  0  0  0
  188.3390  174.7150  140.7190 C   0  0  0  0  0  2  0  0  0  0  0  0
  192.2750  171.9110  142.7010 C   0  0  0  0  0  0  0  0  0  0  0  0
  190.0080  176.5290  146.1970 C   0  0  0  0  0  2  0  0  0  0  0  0
  191.9330  171.2500  140.7240 C   0  0  0  0  0  0  0  0  0  0  0  0
  192.5690  176.7500  144.5940 C   0  0  0  0  0  0  0  0  0  0  0  0
  189.6790  173.2700  139.1970 C   0  0  2  0  0  3  0  0  0  0  0  0
  187.9170  177.6050  145.4150 C   0  0  0  0  0  0  0  0  0  0  0  0
  186.0710  177.6190  143.7740 C   0  0  0  0  0  2  0  0  0  0  0  0
  192.4890  170.8510  141.8940 N   0  0  0  0  0  0  0  0  0  0  0  0
  193.6610  176.0630  144.7880 C   0  0  0  0  0  0  0  0  0  0  0  0
  191.1010  173.4970  139.7240 C   0  0  0  0  0  2  0  0  0  0  0  0
  188.6280  173.2890  140.2970 C   0  0  0  0  0  2  0  0  0  0  0  0
  186.1290  176.1880  143.2650 C   0  0  0  0  0  2  0  0  0  0  0  0
  193.7630  174.6020  144.7250 C   0  0  0  0  0  0  0  0  0  0  0  0
  193.0080  173.7030  143.8240 C   0  0  0  0  0  0  0  0  0  0  0  0
  194.8830  177.6380  146.3930 N   0  0  0  0  0  1  0  0  0  0  0  0
  187.1940  177.0780  146.3050 O   0  0  0  0  0  0  0  0  0  0  0  0
  194.6540  174.1850  145.5690 N   0  0  0  0  0  0  0  0  0  0  0  0
  193.0960  172.3620  143.7980 C   0  0  0  0  0  0  0  0  0  0  0  0
  195.1850  175.2750  146.2690 N   0  0  0  0  0  0  0  0  0  0  0  0
  189.3790  177.7940  145.6460 C   0  0  2  0  0  3  0  0  0  0  0  0
  187.0550  176.1050  142.0670 C   0  0  0  0  0  2  0  0  0  0  0  0
  187.3020  174.7160  141.7350 N   0  0  0  0  0  2  0  0  0  0  0  0
  190.1370  176.8540  144.7200 C   0  0  1  0  0  3  0  0  0  0  0  0
  193.9700  171.4920  144.6380 C   0  0  0  0  0  1  0  0  0  0  0  0
  194.6230  176.3520  145.8390 C   0  0  0  0  0  0  0  0  0  0  0  0
  189.5960  172.0250  138.4540 N   0  0  0  0  0  1  0  0  0  0  0  0
  187.3610  178.0330  144.2070 O   0  0  0  0  0  0  0  0  0  0  0  0
  191.4750  177.4420  144.4220 C   0  0  0  0  0  3  0  0  0  0  0  0
  192.0450  170.4660  139.4580 C   0  0  0  0  0  2  0  0  0  0  0  0
  193.4840  170.4400  138.9800 C   0  0  1  0  0  3  0  0  0  0  0  0
  193.5310  169.9180  137.6770 O   0  0  0  0  0  0  0  0  0  0  0  0
  193.6360  171.3150  137.8010 C   0  0  2  0  0  3  0  0  0  0  0  0
  195.0920  171.7160  137.6500 C   0  0  0  0  0  2  0  0  0  0  0  0
  195.5020  173.7850  138.6480 C   0  0  0  0  0  2  0  0  0  0  0  0
  194.7590  175.1030  138.6870 C   0  0  1  0  0  3  0  0  0  0  0  0
  193.6640  174.9760  137.6570 C   0  0  0  0  0  2  0  0  0  0  0  0
  194.2000  175.2880  139.9530 O   0  0  0  0  0  1  0  0  0  0  0  0
  195.1880  173.1410  137.3840 N   0  0  0  0  0  0  0  0  0  0  0  0
  193.8540  173.6080  137.0330 C   0  0  0  0  0  2  0  0  0  0  0  0
  1  5  1  0  0  0  0
  1  2  1  0  0  0  0
  2 18  1  0  0  0  0
  3  1  1  0  0  0  0
  4 26  1  0  0  0  0
  5 22  1  0  0  0  0
  7  3  2  0  0  0  0
  7 12  1  0  0  0  0
  8 13  2  0  0  0  0
  9 30  1  1  0  0  0
  9 14  1  0  0  0  0
  9 15  1  0  0  0  0
 10 24  1  0  0  0  0
 10 20  2  0  0  0  0
 11 31  1  0  0  0  0
 12  5  2  0  0  0  0
 13 29  1  0  0  0  0
 14  3  1  0  0  0  0
 15  4  1  0  0  0  0
 16 11  1  0  0  0  0
 17 13  1  0  0  0  0
 17 21  2  0  0  0  0
 18 17  1  0  0  0  0
 21 23  1  0  0  0  0
 22 18  2  0  0  0  0
 22 28  1  0  0  0  0
 24  6  1  1  0  0  0
 25 16  1  0  0  0  0
 26 25  1  0  0  0  0
 27 32  1  1  0  0  0
 27 24  1  0  0  0  0
 27  6  1  0  0  0  0
 29 23  2  0  0  0  0
 29 19  1  0  0  0  0
 31 10  1  0  0  0  0
 32  8  2  0  0  0  0
 33  7  1  0  0  0  0
 34 33  1  6  0  0  0
 35 36  1  0  0  0  0
 35 34  1  0  0  0  0
 36 37  1  1  0  0  0
 36 34  1  0  0  0  0
 38 39  1  0  0  0  0
 39 41  1  1  0  0  0
 40 39  1  0  0  0  0
 42 37  1  0  0  0  0
 42 38  1  0  0  0  0
 43 42  1  0  0  0  0
 43 40  1  0  0  0  0
M  END
>  <MODEL>
7

>  <REMARK>
 VINA RESULT:      -8.0      2.292      8.472
  Name = 
  4 active torsions:
  status: ('A' for Active; 'I' for Inactive)
    1  A    between atoms: C_5  and  C_9
    2  A    between atoms: C_5  and  C_22
    3  A    between atoms: C_12  and  N_24
    4  A    between atoms: C_12  and  C_42
                            x       y       z     vdW  Elec       q    Type
                         _______ _______ _______ _____ _____    ______ ____

>  <TORSDO>
F 4

$$$$
=
 OpenBabel11042419153D

 43 49  0  0  1  0  0  0  0  0999 V2000
  191.1690  174.5130  143.0140 N   0  0  0  0  0  0  0  0  0  0  0  0
  191.3090  174.5050  141.5690 C   0  0  0  0  0  2  0  0  0  0  0  0
  191.3870  175.4580  143.9400 C   0  0  0  0  0  0  0  0  0  0  0  0
  195.1460  175.0840  143.3900 C   0  0  0  0  0  2  0  0  0  0  0  0
  190.0610  173.8890  143.3800 C   0  0  0  0  0  0  0  0  0  0  0  0
  193.5970  171.3830  138.9180 C   0  0  0  0  0  2  0  0  0  0  0  0
  190.3940  175.3160  144.9020 C   0  0  0  0  0  0  0  0  0  0  0  0
  191.7990  173.7810  138.4750 C   0  0  0  0  0  0  0  0  0  0  0  0
  193.5760  176.4720  144.7350 C   0  0  2  0  0  3  0  0  0  0  0  0
  196.0500  171.6540  139.1460 C   0  0  0  0  0  0  0  0  0  0  0  0
  197.9360  172.4510  140.5270 C   0  0  0  0  0  2  0  0  0  0  0  0
  189.5130  174.3590  144.5200 N   0  0  0  0  0  0  0  0  0  0  0  0
  190.4960  173.7910  138.5510 C   0  0  0  0  0  0  0  0  0  0  0  0
  192.3710  176.5820  143.7930 C   0  0  0  0  0  2  0  0  0  0  0  0
  194.2870  175.1300  144.6370 C   0  0  0  0  0  2  0  0  0  0  0  0
  197.2890  172.4900  141.9030 C   0  0  0  0  0  2  0  0  0  0  0  0
  189.7160  173.4420  139.7420 C   0  0  0  0  0  0  0  0  0  0  0  0
  190.0940  173.6990  141.1500 C   0  0  0  0  0  0  0  0  0  0  0  0
  189.9170  173.2830  136.1100 N   0  0  0  0  0  1  0  0  0  0  0  0
  196.2540  170.4510  139.4660 O   0  0  0  0  0  0  0  0  0  0  0  0
  188.5990  172.8880  139.3900 N   0  0  0  0  0  0  0  0  0  0  0  0
  189.3760  173.3480  142.2310 C   0  0  0  0  0  0  0  0  0  0  0  0
  188.5420  172.7880  137.9950 N   0  0  0  0  0  0  0  0  0  0  0  0
  194.8460  172.0290  138.3490 C   0  0  2  0  0  3  0  0  0  0  0  0
  196.6720  173.8540  142.1430 C   0  0  0  0  0  2  0  0  0  0  0  0
  195.8510  173.8170  143.3370 N   0  0  0  0  0  2  0  0  0  0  0  0
  193.9110  172.8330  139.2390 C   0  0  1  0  0  3  0  0  0  0  0  0
  188.0550  172.6550  142.2610 C   0  0  0  0  0  1  0  0  0  0  0  0
  189.6200  173.2920  137.5030 C   0  0  0  0  0  0  0  0  0  0  0  0
  193.1820  176.7230  146.1100 N   0  0  0  0  0  1  0  0  0  0  0  0
  196.9510  172.6530  139.5220 O   0  0  0  0  0  0  0  0  0  0  0  0
  193.1010  173.7520  138.3870 C   0  0  0  0  0  3  0  0  0  0  0  0
  190.1490  176.2380  146.0500 C   0  0  0  0  0  2  0  0  0  0  0  0
  188.6900  176.1920  146.4620 C   0  0  1  0  0  3  0  0  0  0  0  0
  188.3350  177.4180  147.0490 O   0  0  0  0  0  0  0  0  0  0  0  0
  187.9280  177.2150  145.7180 C   0  0  2  0  0  3  0  0  0  0  0  0
  186.4580  176.8420  145.7020 C   0  0  0  0  0  2  0  0  0  0  0  0
  186.9070  176.8490  143.4120 C   0  0  0  0  0  2  0  0  0  0  0  0
  186.7990  177.8900  142.3200 C   0  0  1  0  0  3  0  0  0  0  0  0
  186.0330  179.0360  142.9330 C   0  0  0  0  0  2  0  0  0  0  0  0
  188.0770  178.3190  141.9530 O   0  0  0  0  0  1  0  0  0  0  0  0
  185.8840  177.1430  144.4020 N   0  0  0  0  0  0  0  0  0  0  0  0
  185.6870  178.5850  144.3380 C   0  0  0  0  0  2  0  0  0  0  0  0
  1  5  1  0  0  0  0
  1  3  1  0  0  0  0
  2  1  1  0  0  0  0
  3  7  2  0  0  0  0
  4 15  1  0  0  0  0
  5 12  2  0  0  0  0
  6 27  1  0  0  0  0
  7 33  1  0  0  0  0
  8 13  2  0  0  0  0
  9 30  1  1  0  0  0
 10 20  2  0  0  0  0
 10 31  1  0  0  0  0
 11 16  1  0  0  0  0
 12  7  1  0  0  0  0
 13 17  1  0  0  0  0
 14  3  1  0  0  0  0
 14  9  1  0  0  0  0
 15  9  1  0  0  0  0
 16 25  1  0  0  0  0
 17 18  1  0  0  0  0
 18  2  1  0  0  0  0
 18 22  2  0  0  0  0
 19 29  1  0  0  0  0
 21 17  2  0  0  0  0
 22 28  1  0  0  0  0
 22  5  1  0  0  0  0
 23 21  1  0  0  0  0
 24  6  1  1  0  0  0
 24 10  1  0  0  0  0
 24 27  1  0  0  0  0
 25 26  1  0  0  0  0
 26  4  1  0  0  0  0
 27 32  1  6  0  0  0
 29 23  2  0  0  0  0
 29 13  1  0  0  0  0
 31 11  1  0  0  0  0
 32  8  2  0  0  0  0
 34 33  1  6  0  0  0
 34 35  1  0  0  0  0
 36 37  1  1  0  0  0
 36 34  1  0  0  0  0
 36 35  1  0  0  0  0
 38 42  1  0  0  0  0
 39 41  1  1  0  0  0
 39 40  1  0  0  0  0
 39 38  1  0  0  0  0
 40 43  1  0  0  0  0
 42 37  1  0  0  0  0
 43 42  1  0  0  0  0
M  END
>  <MODEL>
8

>  <REMARK>
 VINA RESULT:      -7.9      2.234      5.607
  Name = 
  4 active torsions:
  status: ('A' for Active; 'I' for Inactive)
    1  A    between atoms: C_5  and  C_9
    2  A    between atoms: C_5  and  C_22
    3  A    between atoms: C_12  and  N_24
    4  A    between atoms: C_12  and  C_42
                            x       y       z     vdW  Elec       q    Type
                         _______ _______ _______ _____ _____    ______ ____

>  <TORSDO>
F 4

$$$$
=
 OpenBabel11042419153D

 43 49  0  0  1  0  0  0  0  0999 V2000
  192.4820  174.0180  142.7660 N   0  0  0  0  0  0  0  0  0  0  0  0
  192.0290  174.1910  141.3970 C   0  0  0  0  0  2  0  0  0  0  0  0
  192.6830  174.8850  143.7690 C   0  0  0  0  0  0  0  0  0  0  0  0
  195.7610  176.2240  141.9510 C   0  0  0  0  0  2  0  0  0  0  0  0
  191.9270  172.9480  143.3110 C   0  0  0  0  0  0  0  0  0  0  0  0
  194.0520  172.6000  137.4760 C   0  0  0  0  0  2  0  0  0  0  0  0
  192.2830  174.2470  144.9380 C   0  0  0  0  0  0  0  0  0  0  0  0
  191.4790  174.0090  138.2350 C   0  0  0  0  0  0  0  0  0  0  0  0
  194.4630  176.6780  144.0270 C   0  0  2  0  0  3  0  0  0  0  0  0
  196.1030  173.8880  136.9500 C   0  0  0  0  0  0  0  0  0  0  0  0
  197.9410  175.3070  137.7900 C   0  0  0  0  0  2  0  0  0  0  0  0
  191.7450  173.0380  144.6450 N   0  0  0  0  0  0  0  0  0  0  0  0
  190.4110  173.4460  138.7310 C   0  0  0  0  0  0  0  0  0  0  0  0
  193.0360  176.3320  143.5860 C   0  0  0  0  0  2  0  0  0  0  0  0
  195.5170  175.7910  143.3820 C   0  0  0  0  0  2  0  0  0  0  0  0
  197.9290  174.9480  139.2680 C   0  0  0  0  0  2  0  0  0  0  0  0
  190.3580  172.6970  139.9900 C   0  0  0  0  0  0  0  0  0  0  0  0
  191.1390  172.9750  141.2160 C   0  0  0  0  0  0  0  0  0  0  0  0
  189.1430  172.9410  136.5660 N   0  0  0  0  0  1  0  0  0  0  0  0
  196.8460  172.8700  136.8850 O   0  0  0  0  0  0  0  0  0  0  0  0
  189.4840  171.7440  139.8990 N   0  0  0  0  0  0  0  0  0  0  0  0
  191.0950  172.2600  142.3530 C   0  0  0  0  0  0  0  0  0  0  0  0
  188.9200  171.7440  138.6180 N   0  0  0  0  0  0  0  0  0  0  0  0
  194.6360  173.7670  136.7040 C   0  0  2  0  0  3  0  0  0  0  0  0
  197.0020  175.8860  140.0170 C   0  0  0  0  0  2  0  0  0  0  0  0
  196.8000  175.3970  141.3670 N   0  0  0  0  0  2  0  0  0  0  0  0
  193.9070  174.0110  138.0160 C   0  0  1  0  0  3  0  0  0  0  0  0
  190.2530  171.0630  142.6430 C   0  0  0  0  0  1  0  0  0  0  0  0
  189.4440  172.7050  137.9390 C   0  0  0  0  0  0  0  0  0  0  0  0
  194.5850  176.6200  145.4730 N   0  0  0  0  0  1  0  0  0  0  0  0
  196.6400  175.1450  137.2410 O   0  0  0  0  0  0  0  0  0  0  0  0
  192.5490  174.5540  137.7230 C   0  0  0  0  0  3  0  0  0  0  0  0
  192.1930  174.8750  146.2900 C   0  0  0  0  0  2  0  0  0  0  0  0
  190.7420  175.1090  146.6660 C   0  0  1  0  0  3  0  0  0  0  0  0
  190.6800  176.0370  147.7190 O   0  0  0  0  0  0  0  0  0  0  0  0
  190.3880  176.5240  146.4320 C   0  0  2  0  0  3  0  0  0  0  0  0
  188.8840  176.6530  146.2830 C   0  0  0  0  0  2  0  0  0  0  0  0
  188.0390  176.4830  144.1140 C   0  0  0  0  0  2  0  0  0  0  0  0
  188.5390  176.9110  142.7520 C   0  0  1  0  0  3  0  0  0  0  0  0
  189.7260  177.8030  143.0220 C   0  0  0  0  0  2  0  0  0  0  0  0
  188.9460  175.7890  142.0280 O   0  0  0  0  0  1  0  0  0  0  0  0
  188.5680  177.4210  145.0910 N   0  0  0  0  0  0  0  0  0  0  0  0
  189.8280  177.8910  144.5320 C   0  0  0  0  0  2  0  0  0  0  0  0
  1  5  1  0  0  0  0
  1  3  1  0  0  0  0
  2  1  1  0  0  0  0
  3  7  2  0  0  0  0
  4 15  1  0  0  0  0
  5 12  2  0  0  0  0
  7 33  1  0  0  0  0
  8 13  2  0  0  0  0
  9 30  1  1  0  0  0
 10 31  1  0  0  0  0
 11 16  1  0  0  0  0
 12  7  1  0  0  0  0
 13 17  1  0  0  0  0
 14  3  1  0  0  0  0
 14  9  1  0  0  0  0
 15  9  1  0  0  0  0
 16 25  1  0  0  0  0
 17 18  1  0  0  0  0
 18  2  1  0  0  0  0
 18 22  2  0  0  0  0
 19 29  1  0  0  0  0
 20 10  2  0  0  0  0
 21 17  2  0  0  0  0
 22 28  1  0  0  0  0
 22  5  1  0  0  0  0
 23 21  1  0  0  0  0
 24 10  1  0  0  0  0
 24  6  1  1  0  0  0
 24 27  1  0  0  0  0
 25 26  1  0  0  0  0
 26  4  1  0  0  0  0
 27  6  1  6  0  0  0
 29 23  2  0  0  0  0
 29 13  1  0  0  0  0
 31 11  1  0  0  0  0
 32 27  1  0  0  0  0
 32  8  2  0  0  0  0
 34 33  1  6  0  0  0
 34 35  1  0  0  0  0
 36 37  1  1  0  0  0
 36 34  1  0  0  0  0
 36 35  1  0  0  0  0
 38 42  1  0  0  0  0
 39 41  1  6  0  0  0
 39 40  1  0  0  0  0
 39 38  1  0  0  0  0
 40 43  1  0  0  0  0
 42 37  1  0  0  0  0
 43 42  1  0  0  0  0
M  END
>  <MODEL>
9

>  <REMARK>
 VINA RESULT:      -7.8      3.171      6.130
  Name = 
  4 active torsions:
  status: ('A' for Active; 'I' for Inactive)
    1  A    between atoms: C_5  and  C_9
    2  A    between atoms: C_5  and  C_22
    3  A    between atoms: C_12  and  N_24
    4  A    between atoms: C_12  and  C_42
                            x       y       z     vdW  Elec       q    Type
                         _______ _______ _______ _____ _____    ______ ____

>  <TORSDO>
F 4

$$$$
