=
 OpenBabel11042413403D

 42 43  0  0  1  0  0  0  0  0999 V2000
  194.0410  176.3100  146.4840 C   0  0  0  0  0  0  0  0  0  0  0  0
  192.6720  176.0310  146.5090 C   0  0  0  0  0  3  0  0  0  0  0  0
  194.4780  174.0970  145.5850 C   0  0  0  0  0  0  0  0  0  0  0  0
  194.9430  175.3470  146.0230 C   0  0  0  0  0  3  0  0  0  0  0  0
  192.2030  174.7840  146.0780 C   0  0  0  0  0  0  0  0  0  0  0  0
  193.1060  173.8220  145.6120 C   0  0  0  0  0  3  0  0  0  0  0  0
  194.5040  177.5450  146.9150 O   0  0  0  0  0  1  0  0  0  0  0  0
  196.6760  173.0130  145.9350 C   0  0  0  0  0  1  0  0  0  0  0  0
  195.4220  173.0520  145.0710 C   0  0  2  0  0  3  0  0  0  0  0  0
  195.7680  173.2700  143.5900 C   0  0  1  0  0  3  0  0  0  0  0  0
  194.1880  173.5660  141.6430 N   0  0  0  0  0  2  0  0  0  0  0  0
  194.6830  172.7460  142.7000 C   0  0  0  0  0  0  0  0  0  0  0  0
  194.2190  171.5870  142.8770 O   0  0  0  0  0  0  0  0  0  0  0  0
  193.1750  173.1110  140.7920 N   0  0  0  0  0  0  0  0  0  0  0  0
  192.7390  173.8710  139.8440 C   0  0  0  0  0  3  0  0  0  0  0  0
  191.4440  173.2940  138.7600 P   0  0  1  0  0  0  0  0  0  0  0  0
  191.4350  174.2310  137.3520 O   0  0  0  0  0  0  0  0  0  0  0  0
  191.6930  171.8470  138.3980 O   0  0  0  0  0  1  0  0  0  0  0  0
  189.8680  173.4500  139.5880 C   0  0  0  0  0  0  0  0  0  0  0  0
  188.8160  173.0710  139.0070 O   0  0  0  0  0  0  0  0  0  0  0  0
  189.8180  173.9780  140.9140 N   0  0  0  0  0  2  0  0  0  0  0  0
  188.5790  174.0820  141.6710 C   0  0  0  0  0  2  0  0  0  0  0  0
  188.8200  174.8440  142.9620 C   0  0  0  0  0  2  0  0  0  0  0  0
  190.7280  176.2670  143.0030 O   0  0  0  0  0  1  0  0  0  0  0  0
  189.5240  176.1220  142.6690 C   0  0  0  0  0  0  0  0  0  0  0  0
  188.8630  177.1410  141.9980 O   0  0  0  0  0  0  0  0  0  0  0  0
  197.2810  174.7190  142.8650 C   0  0  0  0  0  1  0  0  0  0  0  0
  195.9670  174.6300  143.3280 O   0  0  0  0  0  0  0  0  0  0  0  0
  190.7430  174.4960  146.0880 C   0  0  0  0  0  2  0  0  0  0  0  0
  190.0820  175.1820  147.2700 C   0  0  0  0  0  2  0  0  0  0  0  0
  188.5700  177.0080  146.3780 C   0  0  0  0  0  0  0  0  0  0  0  0
  189.5630  177.7690  146.2150 O   0  0  0  0  0  0  0  0  0  0  0  0
  188.7730  175.6850  146.8860 N   0  0  0  0  0  2  0  0  0  0  0  0
  186.8890  178.6180  148.1850 O   0  0  0  0  0  1  0  0  0  0  0  0
  185.4060  177.6090  144.3900 C   0  0  0  0  0  0  0  0  0  0  0  0
  187.2110  177.4950  146.0360 C   0  0  0  0  0  0  0  0  0  0  0  0
  186.6840  177.1780  144.7730 C   0  0  0  0  0  3  0  0  0  0  0  0
  186.4250  178.2660  146.9230 C   0  0  0  0  0  0  0  0  0  0  0  0
  184.6450  178.3680  145.2800 C   0  0  0  0  0  3  0  0  0  0  0  0
  185.1520  178.6940  146.5380 C   0  0  0  0  0  3  0  0  0  0  0  0
  184.8720  177.2970  143.1370 O   0  0  0  0  0  0  0  0  0  0  0  0
  184.1330  178.2320  142.3630 C   0  0  0  0  0  1  0  0  0  0  0  0
  1  2  1  0  0  0  0
  1  7  1  0  0  0  0
  3  6  2  0  0  0  0
  3  4  1  0  0  0  0
  4  1  2  0  0  0  0
  5 29  1  0  0  0  0
  5  2  2  0  0  0  0
  6  5  1  0  0  0  0
  9  3  1  0  0  0  0
  9  8  1  1  0  0  0
 10 12  1  6  0  0  0
 10  9  1  0  0  0  0
 11 12  1  0  0  0  0
 12 13  2  0  0  0  0
 14 11  1  0  0  0  0
 15 14  2  0  0  0  0
 16 17  2  6  0  0  0
 16 19  1  0  0  0  0
 16 15  1  0  0  0  0
 18 16  1  0  0  0  0
 19 21  1  0  0  0  0
 20 19  2  0  0  0  0
 21 22  1  0  0  0  0
 22 23  1  0  0  0  0
 25 23  1  0  0  0  0
 25 24  1  0  0  0  0
 26 25  2  0  0  0  0
 27 28  1  0  0  0  0
 28 10  1  0  0  0  0
 29 30  1  0  0  0  0
 31 33  1  0  0  0  0
 32 31  2  0  0  0  0
 33 30  1  0  0  0  0
 35 37  2  0  0  0  0
 35 39  1  0  0  0  0
 36 31  1  0  0  0  0
 36 38  2  0  0  0  0
 37 36  1  0  0  0  0
 38 34  1  0  0  0  0
 39 40  2  0  0  0  0
 40 38  1  0  0  0  0
 41 35  1  0  0  0  0
 42 41  1  0  0  0  0
M  END
>  <MODEL>
1

>  <REMARK>
 VINA RESULT:      -6.8      0.000      0.000
  Name = 
  15 active torsions:
  status: ('A' for Active; 'I' for Inactive)
    1  A    between atoms: C_1  and  P_20
    2  A    between atoms: C_4  and  C_32
    3  A    between atoms: C_4  and  N_42
    4  A    between atoms: C_5  and  C_32
    5  A    between atoms: C_6  and  O_21
    6  A    between atoms: C_9  and  C_12
    7  A    between atoms: C_10  and  C_19
    8  A    between atoms: C_10  and  C_23
    9  A    between atoms: C_10  and  O_38
   10  A    between atoms: N_11  and  N_37
   11  A    between atoms: C_14  and  C_25
   12  A    between atoms: C_14  and  C_26
   13  A    between atoms: C_16  and  C_19
   14  A    between atoms: P_20  and  C_41
   15  A    between atoms: C_26  and  N_29
                            x       y       z     vdW  Elec       q    Type
                         _______ _______ _______ _____ _____    ______ ____

>  <TORSDO>
F 15

$$$$
=
 OpenBabel11042413403D

 42 43  0  0  1  0  0  0  0  0999 V2000
  185.7730  177.7260  146.7610 C   0  0  0  0  0  0  0  0  0  0  0  0
  187.0730  177.5080  147.2270 C   0  0  0  0  0  3  0  0  0  0  0  0
  186.3850  176.7850  144.6080 C   0  0  0  0  0  0  0  0  0  0  0  0
  185.4290  177.3660  145.4560 C   0  0  0  0  0  3  0  0  0  0  0  0
  188.0320  176.9340  146.3850 C   0  0  0  0  0  0  0  0  0  0  0  0
  187.6850  176.5690  145.0800 C   0  0  0  0  0  3  0  0  0  0  0  0
  184.8240  178.2990  147.5970 O   0  0  0  0  0  1  0  0  0  0  0  0
  186.9890  175.2830  142.7350 C   0  0  0  0  0  1  0  0  0  0  0  0
  186.0380  176.3750  143.2090 C   0  0  2  0  0  3  0  0  0  0  0  0
  186.0330  177.5700  142.2440 C   0  0  1  0  0  3  0  0  0  0  0  0
  183.6340  177.9300  141.5440 N   0  0  0  0  0  2  0  0  0  0  0  0
  184.7470  178.3340  142.3380 C   0  0  0  0  0  0  0  0  0  0  0  0
  184.6480  179.3190  143.1200 O   0  0  0  0  0  0  0  0  0  0  0  0
  182.4180  178.6190  141.6040 N   0  0  0  0  0  0  0  0  0  0  0  0
  181.4640  178.3160  140.7900 C   0  0  0  0  0  3  0  0  0  0  0  0
  179.9130  179.1980  140.8630 P   0  0  1  0  0  0  0  0  0  0  0  0
  179.2300  179.0010  142.3970 O   0  0  0  0  0  1  0  0  0  0  0  0
  180.1540  180.6680  140.6060 O   0  0  0  0  0  0  0  0  0  0  0  0
  178.8010  178.5400  139.6290 C   0  0  0  0  0  0  0  0  0  0  0  0
  178.1030  179.3250  138.9330 O   0  0  0  0  0  0  0  0  0  0  0  0
  178.7330  177.1280  139.4240 N   0  0  0  0  0  2  0  0  0  0  0  0
  177.8930  176.5240  138.4000 C   0  0  0  0  0  2  0  0  0  0  0  0
  178.3990  175.1310  138.0670 C   0  0  0  0  0  2  0  0  0  0  0  0
  179.5150  176.1430  136.2250 O   0  0  0  0  0  0  0  0  0  0  0  0
  179.5070  175.2200  137.0790 C   0  0  0  0  0  0  0  0  0  0  0  0
  180.5500  174.3040  137.1200 O   0  0  0  0  0  1  0  0  0  0  0  0
  188.0250  178.1950  141.4990 C   0  0  0  0  0  1  0  0  0  0  0  0
  187.1030  178.4280  142.5210 O   0  0  0  0  0  0  0  0  0  0  0  0
  189.4090  176.6850  146.8900 C   0  0  0  0  0  2  0  0  0  0  0  0
  189.6710  175.1910  146.9780 C   0  0  0  0  0  2  0  0  0  0  0  0
  191.8050  174.7490  145.6870 C   0  0  0  0  0  0  0  0  0  0  0  0
  191.1810  174.8500  144.5950 O   0  0  0  0  0  0  0  0  0  0  0  0
  191.1020  174.9330  146.9200 N   0  0  0  0  0  2  0  0  0  0  0  0
  193.9180  176.8000  145.8010 O   0  0  0  0  0  1  0  0  0  0  0  0
  195.0210  172.7540  145.5910 C   0  0  0  0  0  0  0  0  0  0  0  0
  193.2570  174.4470  145.6740 C   0  0  0  0  0  0  0  0  0  0  0  0
  193.6620  173.1040  145.6060 C   0  0  0  0  0  3  0  0  0  0  0  0
  194.2510  175.4520  145.7290 C   0  0  0  0  0  0  0  0  0  0  0  0
  195.9860  173.7600  145.6450 C   0  0  0  0  0  3  0  0  0  0  0  0
  195.6040  175.1000  145.7140 C   0  0  0  0  0  3  0  0  0  0  0  0
  195.4340  171.4220  145.5230 O   0  0  0  0  0  0  0  0  0  0  0  0
  196.6610  171.0280  144.9250 C   0  0  0  0  0  1  0  0  0  0  0  0
  1  2  1  0  0  0  0
  1  7  1  0  0  0  0
  3  6  2  0  0  0  0
  3  4  1  0  0  0  0
  4  1  2  0  0  0  0
  5 29  1  0  0  0  0
  5  2  2  0  0  0  0
  6  5  1  0  0  0  0
  9  8  1  6  0  0  0
  9  3  1  0  0  0  0
 10 12  1  1  0  0  0
 10 28  1  0  0  0  0
 10  9  1  0  0  0  0
 11 14  1  0  0  0  0
 11 12  1  0  0  0  0
 12 13  2  0  0  0  0
 15 16  1  0  0  0  0
 15 14  2  0  0  0  0
 16 18  2  6  0  0  0
 16 17  1  0  0  0  0
 19 16  1  0  0  0  0
 20 19  2  0  0  0  0
 21 19  1  0  0  0  0
 22 21  1  0  0  0  0
 23 22  1  0  0  0  0
 24 25  2  0  0  0  0
 25 26  1  0  0  0  0
 25 23  1  0  0  0  0
 27 28  1  0  0  0  0
 29 30  1  0  0  0  0
 31 33  1  0  0  0  0
 32 31  2  0  0  0  0
 33 30  1  0  0  0  0
 35 37  2  0  0  0  0
 35 39  1  0  0  0  0
 36 31  1  0  0  0  0
 36 38  2  0  0  0  0
 37 36  1  0  0  0  0
 38 34  1  0  0  0  0
 39 40  2  0  0  0  0
 40 38  1  0  0  0  0
 41 35  1  0  0  0  0
 42 41  1  0  0  0  0
M  END
>  <MODEL>
2

>  <REMARK>
 VINA RESULT:      -6.5      4.918     10.220
  Name = 
  15 active torsions:
  status: ('A' for Active; 'I' for Inactive)
    1  A    between atoms: C_1  and  P_20
    2  A    between atoms: C_4  and  C_32
    3  A    between atoms: C_4  and  N_42
    4  A    between atoms: C_5  and  C_32
    5  A    between atoms: C_6  and  O_21
    6  A    between atoms: C_9  and  C_12
    7  A    between atoms: C_10  and  C_19
    8  A    between atoms: C_10  and  C_23
    9  A    between atoms: C_10  and  O_38
   10  A    between atoms: N_11  and  N_37
   11  A    between atoms: C_14  and  C_25
   12  A    between atoms: C_14  and  C_26
   13  A    between atoms: C_16  and  C_19
   14  A    between atoms: P_20  and  C_41
   15  A    between atoms: C_26  and  N_29
                            x       y       z     vdW  Elec       q    Type
                         _______ _______ _______ _____ _____    ______ ____

>  <TORSDO>
F 15

$$$$
=
 OpenBabel11042413403D

 42 43  0  0  1  0  0  0  0  0999 V2000
  191.8240  176.2550  146.9140 C   0  0  0  0  0  0  0  0  0  0  0  0
  191.1960  176.7970  145.7900 C   0  0  0  0  0  3  0  0  0  0  0  0
  193.8330  175.8650  145.6070 C   0  0  0  0  0  0  0  0  0  0  0  0
  193.1390  175.7890  146.8250 C   0  0  0  0  0  3  0  0  0  0  0  0
  191.8810  176.8710  144.5720 C   0  0  0  0  0  0  0  0  0  0  0  0
  193.1990  176.4100  144.4840 C   0  0  0  0  0  3  0  0  0  0  0  0
  191.1420  176.1790  148.1210 O   0  0  0  0  0  1  0  0  0  0  0  0
  195.8920  175.9760  144.2370 C   0  0  0  0  0  1  0  0  0  0  0  0
  195.2490  175.3890  145.4870 C   0  0  2  0  0  3  0  0  0  0  0  0
  195.3420  173.8550  145.4970 C   0  0  1  0  0  3  0  0  0  0  0  0
  193.1570  172.7020  144.9770 N   0  0  0  0  0  2  0  0  0  0  0  0
  194.3890  173.2500  144.5130 C   0  0  0  0  0  0  0  0  0  0  0  0
  194.6690  173.2350  143.2830 O   0  0  0  0  0  0  0  0  0  0  0  0
  192.2420  172.1280  144.0880 N   0  0  0  0  0  0  0  0  0  0  0  0
  191.2100  172.7990  143.7000 C   0  0  0  0  0  3  0  0  0  0  0  0
  190.0400  172.0650  142.5690 P   0  0  1  0  0  0  0  0  0  0  0  0
  190.5570  170.5070  142.1640 O   0  0  0  0  0  0  0  0  0  0  0  0
  188.6810  171.9880  143.2270 O   0  0  0  0  0  1  0  0  0  0  0  0
  189.9440  173.0620  141.0900 C   0  0  0  0  0  0  0  0  0  0  0  0
  191.0020  173.4470  140.5240 O   0  0  0  0  0  0  0  0  0  0  0  0
  188.6650  173.3920  140.5450 N   0  0  0  0  0  2  0  0  0  0  0  0
  188.5090  174.1510  139.3130 C   0  0  0  0  0  2  0  0  0  0  0  0
  188.3460  173.2050  138.1350 C   0  0  0  0  0  2  0  0  0  0  0  0
  190.2910  172.2580  137.1440 O   0  0  0  0  0  1  0  0  0  0  0  0
  189.5520  173.2690  137.2670 C   0  0  0  0  0  0  0  0  0  0  0  0
  189.8440  174.4310  136.5670 O   0  0  0  0  0  0  0  0  0  0  0  0
  196.8200  172.2570  145.9140 C   0  0  0  0  0  1  0  0  0  0  0  0
  196.6440  173.4410  145.1970 O   0  0  0  0  0  0  0  0  0  0  0  0
  191.2170  177.4670  143.3810 C   0  0  0  0  0  2  0  0  0  0  0  0
  190.2840  176.4540  142.7410 C   0  0  0  0  0  2  0  0  0  0  0  0
  188.1400  177.7800  142.4880 C   0  0  0  0  0  0  0  0  0  0  0  0
  188.6530  178.4540  141.5520 O   0  0  0  0  0  0  0  0  0  0  0  0
  188.9070  176.7430  143.1100 N   0  0  0  0  0  2  0  0  0  0  0  0
  185.7710  177.4550  140.7660 O   0  0  0  0  0  1  0  0  0  0  0  0
  185.2510  178.8120  144.7050 C   0  0  0  0  0  0  0  0  0  0  0  0
  186.7520  178.0690  142.9220 C   0  0  0  0  0  0  0  0  0  0  0  0
  186.5410  178.5220  144.2340 C   0  0  0  0  0  3  0  0  0  0  0  0
  185.6320  177.9040  142.0740 C   0  0  0  0  0  0  0  0  0  0  0  0
  184.1590  178.6450  143.8520 C   0  0  0  0  0  3  0  0  0  0  0  0
  184.3480  178.1940  142.5460 C   0  0  0  0  0  3  0  0  0  0  0  0
  185.0310  179.2650  146.0070 O   0  0  0  0  0  0  0  0  0  0  0  0
  185.5190  178.5790  147.1520 C   0  0  0  0  0  1  0  0  0  0  0  0
  1  7  1  0  0  0  0
  2  1  2  0  0  0  0
  3  4  2  0  0  0  0
  4  1  1  0  0  0  0
  5  2  1  0  0  0  0
  6  5  2  0  0  0  0
  6  3  1  0  0  0  0
  9  8  1  6  0  0  0
  9 10  1  0  0  0  0
  9  3  1  0  0  0  0
 10 12  1  6  0  0  0
 12 11  1  0  0  0  0
 13 12  2  0  0  0  0
 14 11  1  0  0  0  0
 15 14  2  0  0  0  0
 16 17  2  6  0  0  0
 16 18  1  0  0  0  0
 16 15  1  0  0  0  0
 19 16  1  0  0  0  0
 20 19  2  0  0  0  0
 21 19  1  0  0  0  0
 22 21  1  0  0  0  0
 23 22  1  0  0  0  0
 24 25  1  0  0  0  0
 25 23  1  0  0  0  0
 26 25  2  0  0  0  0
 28 10  1  0  0  0  0
 28 27  1  0  0  0  0
 29  5  1  0  0  0  0
 30 33  1  0  0  0  0
 30 29  1  0  0  0  0
 31 36  1  0  0  0  0
 31 33  1  0  0  0  0
 32 31  2  0  0  0  0
 34 38  1  0  0  0  0
 35 41  1  0  0  0  0
 36 37  2  0  0  0  0
 37 35  1  0  0  0  0
 38 40  2  0  0  0  0
 38 36  1  0  0  0  0
 39 35  2  0  0  0  0
 40 39  1  0  0  0  0
 41 42  1  0  0  0  0
M  END
>  <MODEL>
3

>  <REMARK>
 VINA RESULT:      -6.5      2.233      3.907
  Name = 
  15 active torsions:
  status: ('A' for Active; 'I' for Inactive)
    1  A    between atoms: C_1  and  P_20
    2  A    between atoms: C_4  and  C_32
    3  A    between atoms: C_4  and  N_42
    4  A    between atoms: C_5  and  C_32
    5  A    between atoms: C_6  and  O_21
    6  A    between atoms: C_9  and  C_12
    7  A    between atoms: C_10  and  C_19
    8  A    between atoms: C_10  and  C_23
    9  A    between atoms: C_10  and  O_38
   10  A    between atoms: N_11  and  N_37
   11  A    between atoms: C_14  and  C_25
   12  A    between atoms: C_14  and  C_26
   13  A    between atoms: C_16  and  C_19
   14  A    between atoms: P_20  and  C_41
   15  A    between atoms: C_26  and  N_29
                            x       y       z     vdW  Elec       q    Type
                         _______ _______ _______ _____ _____    ______ ____

>  <TORSDO>
F 15

$$$$
=
 OpenBabel11042413403D

 42 43  0  0  1  0  0  0  0  0999 V2000
  186.7570  177.1250  146.4770 C   0  0  0  0  0  0  0  0  0  0  0  0
  185.9370  177.6800  145.4910 C   0  0  0  0  0  3  0  0  0  0  0  0
  188.7200  177.6890  145.1650 C   0  0  0  0  0  0  0  0  0  0  0  0
  188.1450  177.1280  146.3160 C   0  0  0  0  0  3  0  0  0  0  0  0
  186.5050  178.2360  144.3380 C   0  0  0  0  0  0  0  0  0  0  0  0
  187.8950  178.2440  144.1810 C   0  0  0  0  0  3  0  0  0  0  0  0
  186.1910  176.5700  147.6170 O   0  0  0  0  0  1  0  0  0  0  0  0
  190.5400  177.9430  143.5050 C   0  0  0  0  0  1  0  0  0  0  0  0
  190.2070  177.7210  144.9750 C   0  0  2  0  0  3  0  0  0  0  0  0
  190.8830  176.4530  145.5180 C   0  0  1  0  0  3  0  0  0  0  0  0
  193.3120  176.7480  144.8950 N   0  0  0  0  0  2  0  0  0  0  0  0
  192.0710  176.0770  144.6870 C   0  0  0  0  0  0  0  0  0  0  0  0
  191.9780  175.1680  143.8170 O   0  0  0  0  0  0  0  0  0  0  0  0
  194.4430  176.4250  144.1380 N   0  0  0  0  0  0  0  0  0  0  0  0
  195.3890  175.7200  144.6590 C   0  0  0  0  0  3  0  0  0  0  0  0
  196.8350  175.3110  143.6950 P   0  0  1  0  0  0  0  0  0  0  0  0
  197.6120  176.7360  143.2220 O   0  0  0  0  0  0  0  0  0  0  0  0
  197.7810  174.4770  144.5300 O   0  0  0  0  0  1  0  0  0  0  0  0
  196.3380  174.3960  142.2440 C   0  0  0  0  0  0  0  0  0  0  0  0
  196.1300  173.1550  142.3260 O   0  0  0  0  0  0  0  0  0  0  0  0
  196.1530  175.0840  141.0060 N   0  0  0  0  0  2  0  0  0  0  0  0
  195.6950  174.4160  139.7970 C   0  0  0  0  0  2  0  0  0  0  0  0
  194.4240  175.0730  139.2880 C   0  0  0  0  0  2  0  0  0  0  0  0
  192.5350  174.4810  140.6090 O   0  0  0  0  0  1  0  0  0  0  0  0
  193.2510  174.2160  139.6090 C   0  0  0  0  0  0  0  0  0  0  0  0
  192.9270  173.1450  138.7870 O   0  0  0  0  0  0  0  0  0  0  0  0
  191.1900  175.3790  147.4330 C   0  0  0  0  0  1  0  0  0  0  0  0
  191.2860  176.6420  146.8450 O   0  0  0  0  0  0  0  0  0  0  0  0
  185.6310  178.8430  143.2990 C   0  0  0  0  0  2  0  0  0  0  0  0
  185.1970  177.7870  142.2980 C   0  0  0  0  0  2  0  0  0  0  0  0
  187.1680  176.4180  141.4860 C   0  0  0  0  0  0  0  0  0  0  0  0
  187.4200  177.2820  140.6020 O   0  0  0  0  0  0  0  0  0  0  0  0
  186.0740  176.6290  142.3840 N   0  0  0  0  0  2  0  0  0  0  0  0
  188.0110  174.8020  139.1710 O   0  0  0  0  0  1  0  0  0  0  0  0
  189.2500  173.6500  143.0130 C   0  0  0  0  0  0  0  0  0  0  0  0
  188.0140  175.2030  141.5840 C   0  0  0  0  0  0  0  0  0  0  0  0
  188.4480  174.7900  142.8540 C   0  0  0  0  0  3  0  0  0  0  0  0
  188.4030  174.4450  140.4560 C   0  0  0  0  0  0  0  0  0  0  0  0
  189.6230  172.9140  141.8870 C   0  0  0  0  0  3  0  0  0  0  0  0
  189.2020  173.3090  140.6180 C   0  0  0  0  0  3  0  0  0  0  0  0
  189.6860  173.2310  144.2720 O   0  0  0  0  0  0  0  0  0  0  0  0
  190.0650  171.8880  144.5450 C   0  0  0  0  0  1  0  0  0  0  0  0
  1  7  1  0  0  0  0
  2  1  2  0  0  0  0
  3  4  2  0  0  0  0
  4  1  1  0  0  0  0
  5  2  1  0  0  0  0
  6  5  2  0  0  0  0
  6  3  1  0  0  0  0
  9  8  1  6  0  0  0
  9  3  1  0  0  0  0
  9 10  1  0  0  0  0
 10 12  1  6  0  0  0
 10 28  1  0  0  0  0
 12 11  1  0  0  0  0
 13 12  2  0  0  0  0
 14 15  2  0  0  0  0
 14 11  1  0  0  0  0
 16 17  2  6  0  0  0
 16 18  1  0  0  0  0
 16 15  1  0  0  0  0
 19 20  2  0  0  0  0
 19 16  1  0  0  0  0
 21 19  1  0  0  0  0
 22 21  1  0  0  0  0
 23 25  1  0  0  0  0
 23 22  1  0  0  0  0
 25 24  1  0  0  0  0
 26 25  2  0  0  0  0
 28 27  1  0  0  0  0
 29  5  1  0  0  0  0
 30 33  1  0  0  0  0
 30 29  1  0  0  0  0
 31 36  1  0  0  0  0
 31 33  1  0  0  0  0
 32 31  2  0  0  0  0
 34 38  1  0  0  0  0
 35 41  1  0  0  0  0
 36 37  2  0  0  0  0
 37 35  1  0  0  0  0
 38 40  2  0  0  0  0
 38 36  1  0  0  0  0
 39 35  2  0  0  0  0
 40 39  1  0  0  0  0
 41 42  1  0  0  0  0
M  END
>  <MODEL>
4

>  <REMARK>
 VINA RESULT:      -6.3      2.514      6.876
  Name = 
  15 active torsions:
  status: ('A' for Active; 'I' for Inactive)
    1  A    between atoms: C_1  and  P_20
    2  A    between atoms: C_4  and  C_32
    3  A    between atoms: C_4  and  N_42
    4  A    between atoms: C_5  and  C_32
    5  A    between atoms: C_6  and  O_21
    6  A    between atoms: C_9  and  C_12
    7  A    between atoms: C_10  and  C_19
    8  A    between atoms: C_10  and  C_23
    9  A    between atoms: C_10  and  O_38
   10  A    between atoms: N_11  and  N_37
   11  A    between atoms: C_14  and  C_25
   12  A    between atoms: C_14  and  C_26
   13  A    between atoms: C_16  and  C_19
   14  A    between atoms: P_20  and  C_41
   15  A    between atoms: C_26  and  N_29
                            x       y       z     vdW  Elec       q    Type
                         _______ _______ _______ _____ _____    ______ ____

>  <TORSDO>
F 15

$$$$
=
 OpenBabel11042413403D

 42 43  0  0  1  0  0  0  0  0999 V2000
  185.5030  177.7400  146.7360 C   0  0  0  0  0  0  0  0  0  0  0  0
  185.1710  177.5890  145.3870 C   0  0  0  0  0  3  0  0  0  0  0  0
  187.6650  176.7170  146.3210 C   0  0  0  0  0  0  0  0  0  0  0  0
  186.7460  177.3050  147.2040 C   0  0  0  0  0  3  0  0  0  0  0  0
  186.0820  176.9990  144.5030 C   0  0  0  0  0  0  0  0  0  0  0  0
  187.3280  176.5690  144.9710 C   0  0  0  0  0  3  0  0  0  0  0  0
  184.5970  178.3220  147.6120 O   0  0  0  0  0  1  0  0  0  0  0  0
  189.8880  177.4610  147.1180 C   0  0  0  0  0  1  0  0  0  0  0  0
  189.0120  176.2580  146.7920 C   0  0  2  0  0  3  0  0  0  0  0  0
  189.6910  175.3290  145.7740 C   0  0  1  0  0  3  0  0  0  0  0  0
  191.7010  176.2550  144.5580 N   0  0  0  0  0  2  0  0  0  0  0  0
  191.1640  175.5930  145.7020 C   0  0  0  0  0  0  0  0  0  0  0  0
  191.9200  175.2420  146.6480 O   0  0  0  0  0  0  0  0  0  0  0  0
  193.0710  176.5180  144.4550 N   0  0  0  0  0  0  0  0  0  0  0  0
  193.8040  175.8200  143.6530 C   0  0  0  0  0  3  0  0  0  0  0  0
  195.5530  176.1520  143.5240 P   0  0  1  0  0  0  0  0  0  0  0  0
  195.9070  176.6780  141.9560 O   0  0  0  0  0  0  0  0  0  0  0  0
  195.9390  177.2290  144.5130 O   0  0  0  0  0  1  0  0  0  0  0  0
  196.4660  174.6560  143.8690 C   0  0  0  0  0  0  0  0  0  0  0  0
  197.6840  174.7230  144.1830 O   0  0  0  0  0  0  0  0  0  0  0  0
  195.7970  173.3940  143.8120 N   0  0  0  0  0  2  0  0  0  0  0  0
  196.4610  172.1400  144.1360 C   0  0  0  0  0  2  0  0  0  0  0  0
  195.4950  170.9810  143.9640 C   0  0  0  0  0  2  0  0  0  0  0  0
  194.7460  170.5210  146.1760 O   0  0  0  0  0  1  0  0  0  0  0  0
  194.4760  171.0090  145.0480 C   0  0  0  0  0  0  0  0  0  0  0  0
  193.2420  171.6030  144.8260 O   0  0  0  0  0  0  0  0  0  0  0  0
  189.7230  173.2760  144.9390 C   0  0  0  0  0  1  0  0  0  0  0  0
  189.4760  173.9890  146.1140 O   0  0  0  0  0  0  0  0  0  0  0  0
  185.7340  176.8570  143.0640 C   0  0  0  0  0  2  0  0  0  0  0  0
  186.9630  177.0920  142.2030 C   0  0  0  0  0  2  0  0  0  0  0  0
  188.5650  175.3110  141.3770 C   0  0  0  0  0  0  0  0  0  0  0  0
  189.4970  175.8130  142.0640 O   0  0  0  0  0  0  0  0  0  0  0  0
  187.2610  175.9000  141.4250 N   0  0  0  0  0  2  0  0  0  0  0  0
  187.7370  175.0520  138.5610 O   0  0  0  0  0  1  0  0  0  0  0  0
  189.8160  171.8840  140.3690 C   0  0  0  0  0  0  0  0  0  0  0  0
  188.8340  174.1180  140.5380 C   0  0  0  0  0  0  0  0  0  0  0  0
  189.5300  173.0400  141.1100 C   0  0  0  0  0  3  0  0  0  0  0  0
  188.4250  174.0200  139.1880 C   0  0  0  0  0  0  0  0  0  0  0  0
  189.4020  171.8060  139.0380 C   0  0  0  0  0  3  0  0  0  0  0  0
  188.7110  172.8660  138.4530 C   0  0  0  0  0  3  0  0  0  0  0  0
  190.5060  170.8070  140.9280 O   0  0  0  0  0  0  0  0  0  0  0  0
  190.9190  170.7820  142.2880 C   0  0  0  0  0  1  0  0  0  0  0  0
  1  4  1  0  0  0  0
  1  7  1  0  0  0  0
  2  1  2  0  0  0  0
  3  9  1  0  0  0  0
  3  4  2  0  0  0  0
  5  6  2  0  0  0  0
  5  2  1  0  0  0  0
  6  3  1  0  0  0  0
  9  8  1  6  0  0  0
 10 12  1  1  0  0  0
 10 28  1  0  0  0  0
 10  9  1  0  0  0  0
 11 12  1  0  0  0  0
 12 13  2  0  0  0  0
 14 11  1  0  0  0  0
 15 14  2  0  0  0  0
 16 17  2  6  0  0  0
 16 15  1  0  0  0  0
 16 19  1  0  0  0  0
 16 18  1  0  0  0  0
 19 20  2  0  0  0  0
 21 19  1  0  0  0  0
 21 22  1  0  0  0  0
 23 22  1  0  0  0  0
 23 25  1  0  0  0  0
 25 24  1  0  0  0  0
 26 25  2  0  0  0  0
 27 28  1  0  0  0  0
 29  5  1  0  0  0  0
 30 29  1  0  0  0  0
 31 33  1  0  0  0  0
 31 32  2  0  0  0  0
 33 30  1  0  0  0  0
 34 38  1  0  0  0  0
 35 41  1  0  0  0  0
 35 37  1  0  0  0  0
 36 37  2  0  0  0  0
 36 31  1  0  0  0  0
 38 36  1  0  0  0  0
 39 35  2  0  0  0  0
 40 39  1  0  0  0  0
 40 38  2  0  0  0  0
 41 42  1  0  0  0  0
M  END
>  <MODEL>
5

>  <REMARK>
 VINA RESULT:      -6.3      2.554      7.644
  Name = 
  15 active torsions:
  status: ('A' for Active; 'I' for Inactive)
    1  A    between atoms: C_1  and  P_20
    2  A    between atoms: C_4  and  C_32
    3  A    between atoms: C_4  and  N_42
    4  A    between atoms: C_5  and  C_32
    5  A    between atoms: C_6  and  O_21
    6  A    between atoms: C_9  and  C_12
    7  A    between atoms: C_10  and  C_19
    8  A    between atoms: C_10  and  C_23
    9  A    between atoms: C_10  and  O_38
   10  A    between atoms: N_11  and  N_37
   11  A    between atoms: C_14  and  C_25
   12  A    between atoms: C_14  and  C_26
   13  A    between atoms: C_16  and  C_19
   14  A    between atoms: P_20  and  C_41
   15  A    between atoms: C_26  and  N_29
                            x       y       z     vdW  Elec       q    Type
                         _______ _______ _______ _____ _____    ______ ____

>  <TORSDO>
F 15

$$$$
=
 OpenBabel11042413403D

 42 43  0  0  1  0  0  0  0  0999 V2000
  187.0760  177.0630  145.7880 C   0  0  0  0  0  0  0  0  0  0  0  0
  186.5480  177.4590  144.5560 C   0  0  0  0  0  3  0  0  0  0  0  0
  189.3140  177.5710  144.9950 C   0  0  0  0  0  0  0  0  0  0  0  0
  188.4550  177.1190  146.0090 C   0  0  0  0  0  3  0  0  0  0  0  0
  187.4010  177.9050  143.5400 C   0  0  0  0  0  0  0  0  0  0  0  0
  188.7810  177.9650  143.7630 C   0  0  0  0  0  3  0  0  0  0  0  0
  186.2290  176.6170  146.7940 O   0  0  0  0  0  1  0  0  0  0  0  0
  191.5070  177.8300  143.8750 C   0  0  0  0  0  1  0  0  0  0  0  0
  190.7950  177.6550  145.2110 C   0  0  2  0  0  3  0  0  0  0  0  0
  191.3340  176.4390  145.9790 C   0  0  1  0  0  3  0  0  0  0  0  0
  193.0840  175.0690  144.7810 N   0  0  0  0  0  2  0  0  0  0  0  0
  192.7660  176.1700  145.6280 C   0  0  0  0  0  0  0  0  0  0  0  0
  193.6800  176.9180  146.0700 O   0  0  0  0  0  0  0  0  0  0  0  0
  194.4090  174.7860  144.4320 N   0  0  0  0  0  0  0  0  0  0  0  0
  194.8720  175.1690  143.2900 C   0  0  0  0  0  3  0  0  0  0  0  0
  196.5610  174.8050  142.8420 P   0  0  1  0  0  0  0  0  0  0  0  0
  196.5890  174.0580  141.3250 O   0  0  0  0  0  0  0  0  0  0  0  0
  197.3580  176.0890  142.7840 O   0  0  0  0  0  1  0  0  0  0  0  0
  197.2710  173.7040  144.0580 C   0  0  0  0  0  0  0  0  0  0  0  0
  197.9410  174.1770  145.0150 O   0  0  0  0  0  0  0  0  0  0  0  0
  197.0480  172.2980  143.9490 N   0  0  0  0  0  2  0  0  0  0  0  0
  197.5460  171.3470  144.9320 C   0  0  0  0  0  2  0  0  0  0  0  0
  196.5550  171.2120  146.0750 C   0  0  0  0  0  2  0  0  0  0  0  0
  195.0670  169.7260  144.9600 O   0  0  0  0  0  0  0  0  0  0  0  0
  195.2200  170.8310  145.5410 C   0  0  0  0  0  0  0  0  0  0  0  0
  194.1350  171.6800  145.7150 O   0  0  0  0  0  1  0  0  0  0  0  0
  191.1210  175.3620  147.9050 C   0  0  0  0  0  1  0  0  0  0  0  0
  191.2250  176.6420  147.3590 O   0  0  0  0  0  0  0  0  0  0  0  0
  186.8350  178.3440  142.2350 C   0  0  0  0  0  2  0  0  0  0  0  0
  186.3530  177.1400  141.4440 C   0  0  0  0  0  2  0  0  0  0  0  0
  187.8940  175.1300  141.4070 C   0  0  0  0  0  0  0  0  0  0  0  0
  187.2240  174.5830  142.3250 O   0  0  0  0  0  0  0  0  0  0  0  0
  187.4900  176.4090  140.9070 N   0  0  0  0  0  2  0  0  0  0  0  0
  190.3880  174.6890  142.9130 O   0  0  0  0  0  1  0  0  0  0  0  0
  190.1230  173.2890  138.9640 C   0  0  0  0  0  0  0  0  0  0  0  0
  189.0850  174.4370  140.8580 C   0  0  0  0  0  0  0  0  0  0  0  0
  189.0310  173.9530  139.5410 C   0  0  0  0  0  3  0  0  0  0  0  0
  190.2700  174.2390  141.6030 C   0  0  0  0  0  0  0  0  0  0  0  0
  191.2850  173.1040  139.7160 C   0  0  0  0  0  3  0  0  0  0  0  0
  191.3570  173.5760  141.0260 C   0  0  0  0  0  3  0  0  0  0  0  0
  190.0800  172.8060  137.6550 O   0  0  0  0  0  0  0  0  0  0  0  0
  190.8130  173.4000  136.5920 C   0  0  0  0  0  1  0  0  0  0  0  0
  1  4  1  0  0  0  0
  1  7  1  0  0  0  0
  2  1  2  0  0  0  0
  3  9  1  0  0  0  0
  3  4  2  0  0  0  0
  5  6  2  0  0  0  0
  5  2  1  0  0  0  0
  6  3  1  0  0  0  0
  9  8  1  6  0  0  0
  9 10  1  0  0  0  0
 10 12  1  1  0  0  0
 10 28  1  0  0  0  0
 11 12  1  0  0  0  0
 12 13  2  0  0  0  0
 14 11  1  0  0  0  0
 15 14  2  0  0  0  0
 16 17  2  6  0  0  0
 16 15  1  0  0  0  0
 16 19  1  0  0  0  0
 18 16  1  0  0  0  0
 19 20  2  0  0  0  0
 21 19  1  0  0  0  0
 21 22  1  0  0  0  0
 22 23  1  0  0  0  0
 24 25  2  0  0  0  0
 25 26  1  0  0  0  0
 25 23  1  0  0  0  0
 28 27  1  0  0  0  0
 29  5  1  0  0  0  0
 30 29  1  0  0  0  0
 31 32  2  0  0  0  0
 33 31  1  0  0  0  0
 33 30  1  0  0  0  0
 35 37  2  0  0  0  0
 35 39  1  0  0  0  0
 36 31  1  0  0  0  0
 36 38  2  0  0  0  0
 37 36  1  0  0  0  0
 38 34  1  0  0  0  0
 39 40  2  0  0  0  0
 40 38  1  0  0  0  0
 41 35  1  0  0  0  0
 42 41  1  0  0  0  0
M  END
>  <MODEL>
6

>  <REMARK>
 VINA RESULT:      -6.2      2.463      7.428
  Name = 
  15 active torsions:
  status: ('A' for Active; 'I' for Inactive)
    1  A    between atoms: C_1  and  P_20
    2  A    between atoms: C_4  and  C_32
    3  A    between atoms: C_4  and  N_42
    4  A    between atoms: C_5  and  C_32
    5  A    between atoms: C_6  and  O_21
    6  A    between atoms: C_9  and  C_12
    7  A    between atoms: C_10  and  C_19
    8  A    between atoms: C_10  and  C_23
    9  A    between atoms: C_10  and  O_38
   10  A    between atoms: N_11  and  N_37
   11  A    between atoms: C_14  and  C_25
   12  A    between atoms: C_14  and  C_26
   13  A    between atoms: C_16  and  C_19
   14  A    between atoms: P_20  and  C_41
   15  A    between atoms: C_26  and  N_29
                            x       y       z     vdW  Elec       q    Type
                         _______ _______ _______ _____ _____    ______ ____

>  <TORSDO>
F 15

$$$$
=
 OpenBabel11042413403D

 42 43  0  0  1  0  0  0  0  0999 V2000
  186.7350  176.9330  146.7630 C   0  0  0  0  0  0  0  0  0  0  0  0
  188.0860  176.5830  146.6990 C   0  0  0  0  0  3  0  0  0  0  0  0
  186.9820  178.2630  144.7470 C   0  0  0  0  0  0  0  0  0  0  0  0
  186.1820  177.7700  145.7900 C   0  0  0  0  0  3  0  0  0  0  0  0
  188.8900  177.0760  145.6640 C   0  0  0  0  0  0  0  0  0  0  0  0
  188.3340  177.9100  144.6880 C   0  0  0  0  0  3  0  0  0  0  0  0
  185.9400  176.4460  147.7920 O   0  0  0  0  0  1  0  0  0  0  0  0
  185.3100  180.0250  144.2680 C   0  0  0  0  0  1  0  0  0  0  0  0
  186.4110  179.1500  143.6820 C   0  0  2  0  0  3  0  0  0  0  0  0
  185.9050  178.3460  142.4750 C   0  0  1  0  0  3  0  0  0  0  0  0
  186.9650  176.0810  142.1300 N   0  0  0  0  0  2  0  0  0  0  0  0
  186.9920  177.4880  141.9040 C   0  0  0  0  0  0  0  0  0  0  0  0
  187.9180  178.0050  141.2200 O   0  0  0  0  0  0  0  0  0  0  0  0
  187.9630  175.2470  141.6140 N   0  0  0  0  0  0  0  0  0  0  0  0
  188.0530  174.0240  142.0120 C   0  0  0  0  0  3  0  0  0  0  0  0
  189.3290  172.9610  141.3570 P   0  0  1  0  0  0  0  0  0  0  0  0
  189.6010  171.6860  142.4340 O   0  0  0  0  0  1  0  0  0  0  0  0
  188.8890  172.4050  140.0220 O   0  0  0  0  0  0  0  0  0  0  0  0
  190.8350  173.9010  141.1570 C   0  0  0  0  0  0  0  0  0  0  0  0
  191.0450  174.9100  141.8830 O   0  0  0  0  0  0  0  0  0  0  0  0
  191.8040  173.4830  140.1940 N   0  0  0  0  0  2  0  0  0  0  0  0
  193.0770  174.1640  140.0150 C   0  0  0  0  0  2  0  0  0  0  0  0
  194.2220  173.1770  140.1620 C   0  0  0  0  0  2  0  0  0  0  0  0
  196.0720  174.6300  140.5180 O   0  0  0  0  0  0  0  0  0  0  0  0
  195.2940  173.7700  141.0050 C   0  0  0  0  0  0  0  0  0  0  0  0
  195.4150  173.3990  142.3370 O   0  0  0  0  0  1  0  0  0  0  0  0
  183.7850  177.9170  141.9890 C   0  0  0  0  0  1  0  0  0  0  0  0
  184.8220  177.5390  142.8430 O   0  0  0  0  0  0  0  0  0  0  0  0
  190.3240  176.6870  145.5880 C   0  0  0  0  0  2  0  0  0  0  0  0
  190.6190  175.5780  146.5830 C   0  0  0  0  0  2  0  0  0  0  0  0
  192.5770  174.2930  145.6180 C   0  0  0  0  0  0  0  0  0  0  0  0
  191.8190  173.7520  144.7670 O   0  0  0  0  0  0  0  0  0  0  0  0
  192.0320  175.2390  146.5450 N   0  0  0  0  0  2  0  0  0  0  0  0
  194.7540  176.2730  145.4730 O   0  0  0  0  0  1  0  0  0  0  0  0
  195.7270  172.1990  145.7660 C   0  0  0  0  0  0  0  0  0  0  0  0
  194.0190  173.9450  145.6400 C   0  0  0  0  0  0  0  0  0  0  0  0
  194.3800  172.5920  145.7400 C   0  0  0  0  0  3  0  0  0  0  0  0
  195.0440  174.9170  145.5690 C   0  0  0  0  0  0  0  0  0  0  0  0
  196.7240  173.1720  145.6930 C   0  0  0  0  0  3  0  0  0  0  0  0
  196.3850  174.5220  145.5940 C   0  0  0  0  0  3  0  0  0  0  0  0
  196.0960  170.8560  145.8630 O   0  0  0  0  0  0  0  0  0  0  0  0
  195.5190  169.8400  145.0550 C   0  0  0  0  0  1  0  0  0  0  0  0
  1  7  1  0  0  0  0
  2  1  1  0  0  0  0
  3  4  1  0  0  0  0
  4  1  2  0  0  0  0
  5  2  2  0  0  0  0
  6  3  2  0  0  0  0
  6  5  1  0  0  0  0
  9  8  1  1  0  0  0
  9  3  1  0  0  0  0
 10 12  1  1  0  0  0
 10 28  1  0  0  0  0
 10  9  1  0  0  0  0
 12 11  1  0  0  0  0
 13 12  2  0  0  0  0
 14 15  2  0  0  0  0
 14 11  1  0  0  0  0
 16 18  2  6  0  0  0
 16 15  1  0  0  0  0
 16 17  1  0  0  0  0
 19 16  1  0  0  0  0
 19 20  2  0  0  0  0
 21 19  1  0  0  0  0
 22 23  1  0  0  0  0
 22 21  1  0  0  0  0
 23 25  1  0  0  0  0
 24 25  2  0  0  0  0
 25 26  1  0  0  0  0
 27 28  1  0  0  0  0
 29  5  1  0  0  0  0
 29 30  1  0  0  0  0
 31 36  1  0  0  0  0
 31 33  1  0  0  0  0
 32 31  2  0  0  0  0
 33 30  1  0  0  0  0
 34 38  1  0  0  0  0
 35 41  1  0  0  0  0
 36 37  2  0  0  0  0
 37 35  1  0  0  0  0
 38 40  2  0  0  0  0
 38 36  1  0  0  0  0
 39 35  2  0  0  0  0
 40 39  1  0  0  0  0
 42 41  1  0  0  0  0
M  END
>  <MODEL>
7

>  <REMARK>
 VINA RESULT:      -6.1      2.015      8.289
  Name = 
  15 active torsions:
  status: ('A' for Active; 'I' for Inactive)
    1  A    between atoms: C_1  and  P_20
    2  A    between atoms: C_4  and  C_32
    3  A    between atoms: C_4  and  N_42
    4  A    between atoms: C_5  and  C_32
    5  A    between atoms: C_6  and  O_21
    6  A    between atoms: C_9  and  C_12
    7  A    between atoms: C_10  and  C_19
    8  A    between atoms: C_10  and  C_23
    9  A    between atoms: C_10  and  O_38
   10  A    between atoms: N_11  and  N_37
   11  A    between atoms: C_14  and  C_25
   12  A    between atoms: C_14  and  C_26
   13  A    between atoms: C_16  and  C_19
   14  A    between atoms: P_20  and  C_41
   15  A    between atoms: C_26  and  N_29
                            x       y       z     vdW  Elec       q    Type
                         _______ _______ _______ _____ _____    ______ ____

>  <TORSDO>
F 15

$$$$
=
 OpenBabel11042413403D

 42 43  0  0  1  0  0  0  0  0999 V2000
  186.7610  176.8860  146.7390 C   0  0  0  0  0  0  0  0  0  0  0  0
  188.0960  176.4740  146.7170 C   0  0  0  0  0  3  0  0  0  0  0  0
  187.1280  178.1910  144.7250 C   0  0  0  0  0  0  0  0  0  0  0  0
  186.2770  177.7420  145.7460 C   0  0  0  0  0  3  0  0  0  0  0  0
  188.9510  176.9230  145.7040 C   0  0  0  0  0  0  0  0  0  0  0  0
  188.4640  177.7760  144.7070 C   0  0  0  0  0  3  0  0  0  0  0  0
  185.9150  176.4420  147.7470 O   0  0  0  0  0  1  0  0  0  0  0  0
  185.5550  180.0260  144.1880 C   0  0  0  0  0  1  0  0  0  0  0  0
  186.6300  179.0970  143.6390 C   0  0  2  0  0  3  0  0  0  0  0  0
  186.1230  178.3090  142.4220 C   0  0  1  0  0  3  0  0  0  0  0  0
  187.1640  176.1190  141.7180 N   0  0  0  0  0  2  0  0  0  0  0  0
  187.2340  177.5430  141.7730 C   0  0  0  0  0  0  0  0  0  0  0  0
  188.2180  178.1510  141.2710 O   0  0  0  0  0  0  0  0  0  0  0  0
  188.1830  175.3700  141.1210 N   0  0  0  0  0  0  0  0  0  0  0  0
  188.4730  174.1970  141.5760 C   0  0  0  0  0  3  0  0  0  0  0  0
  189.7770  173.2420  140.8170 P   0  0  1  0  0  0  0  0  0  0  0  0
  189.2680  172.7150  139.2930 O   0  0  0  0  0  0  0  0  0  0  0  0
  191.0110  174.1010  140.6650 O   0  0  0  0  0  1  0  0  0  0  0  0
  190.1440  171.8260  141.8420 C   0  0  0  0  0  0  0  0  0  0  0  0
  189.4150  171.5660  142.8370 O   0  0  0  0  0  0  0  0  0  0  0  0
  191.2480  170.9830  141.5090 N   0  0  0  0  0  2  0  0  0  0  0  0
  191.5740  169.7810  142.2640 C   0  0  0  0  0  2  0  0  0  0  0  0
  190.9140  168.5710  141.6260 C   0  0  0  0  0  2  0  0  0  0  0  0
  190.4360  168.6500  139.2960 O   0  0  0  0  0  0  0  0  0  0  0  0
  191.3020  168.4830  140.1930 C   0  0  0  0  0  0  0  0  0  0  0  0
  192.6250  168.2500  139.8440 O   0  0  0  0  0  1  0  0  0  0  0  0
  183.9530  177.9160  142.1890 C   0  0  0  0  0  1  0  0  0  0  0  0
  185.1070  177.4230  142.8000 O   0  0  0  0  0  0  0  0  0  0  0  0
  190.3680  176.4680  145.6720 C   0  0  0  0  0  2  0  0  0  0  0  0
  190.4310  174.9760  145.3940 C   0  0  0  0  0  2  0  0  0  0  0  0
  192.8500  174.5130  144.7980 C   0  0  0  0  0  0  0  0  0  0  0  0
  192.6880  175.0510  143.6690 O   0  0  0  0  0  0  0  0  0  0  0  0
  191.7540  174.4660  145.7190 N   0  0  0  0  0  2  0  0  0  0  0  0
  195.3160  176.1050  145.0560 O   0  0  0  0  0  1  0  0  0  0  0  0
  195.4890  171.9650  145.7330 C   0  0  0  0  0  0  0  0  0  0  0  0
  194.1720  173.9440  145.1560 C   0  0  0  0  0  0  0  0  0  0  0  0
  194.2660  172.5630  145.3910 C   0  0  0  0  0  3  0  0  0  0  0  0
  195.3410  174.7320  145.2730 C   0  0  0  0  0  0  0  0  0  0  0  0
  196.6310  172.7590  145.8420 C   0  0  0  0  0  3  0  0  0  0  0  0
  196.5570  174.1330  145.6130 C   0  0  0  0  0  3  0  0  0  0  0  0
  195.5930  170.5930  145.9680 O   0  0  0  0  0  0  0  0  0  0  0  0
  196.8060  169.9720  146.3700 C   0  0  0  0  0  1  0  0  0  0  0  0
  1  7  1  0  0  0  0
  2  1  1  0  0  0  0
  3  4  1  0  0  0  0
  4  1  2  0  0  0  0
  5  2  2  0  0  0  0
  6  3  2  0  0  0  0
  6  5  1  0  0  0  0
  9  8  1  1  0  0  0
  9  3  1  0  0  0  0
 10 12  1  1  0  0  0
 10 28  1  0  0  0  0
 10  9  1  0  0  0  0
 11 12  1  0  0  0  0
 13 12  2  0  0  0  0
 14 15  2  0  0  0  0
 14 11  1  0  0  0  0
 16 17  2  6  0  0  0
 16 15  1  0  0  0  0
 16 19  1  0  0  0  0
 18 16  1  0  0  0  0
 19 20  2  0  0  0  0
 21 19  1  0  0  0  0
 21 22  1  0  0  0  0
 23 22  1  0  0  0  0
 24 25  2  0  0  0  0
 25 23  1  0  0  0  0
 26 25  1  0  0  0  0
 27 28  1  0  0  0  0
 29  5  1  0  0  0  0
 30 29  1  0  0  0  0
 30 33  1  0  0  0  0
 31 36  1  0  0  0  0
 31 33  1  0  0  0  0
 32 31  2  0  0  0  0
 34 38  1  0  0  0  0
 35 39  1  0  0  0  0
 35 41  1  0  0  0  0
 36 38  2  0  0  0  0
 36 37  1  0  0  0  0
 37 35  2  0  0  0  0
 38 40  1  0  0  0  0
 40 39  2  0  0  0  0
 41 42  1  0  0  0  0
M  END
>  <MODEL>
8

>  <REMARK>
 VINA RESULT:      -6.1      2.509      8.443
  Name = 
  15 active torsions:
  status: ('A' for Active; 'I' for Inactive)
    1  A    between atoms: C_1  and  P_20
    2  A    between atoms: C_4  and  C_32
    3  A    between atoms: C_4  and  N_42
    4  A    between atoms: C_5  and  C_32
    5  A    between atoms: C_6  and  O_21
    6  A    between atoms: C_9  and  C_12
    7  A    between atoms: C_10  and  C_19
    8  A    between atoms: C_10  and  C_23
    9  A    between atoms: C_10  and  O_38
   10  A    between atoms: N_11  and  N_37
   11  A    between atoms: C_14  and  C_25
   12  A    between atoms: C_14  and  C_26
   13  A    between atoms: C_16  and  C_19
   14  A    between atoms: P_20  and  C_41
   15  A    between atoms: C_26  and  N_29
                            x       y       z     vdW  Elec       q    Type
                         _______ _______ _______ _____ _____    ______ ____

>  <TORSDO>
F 15

$$$$
=
 OpenBabel11042413403D

 42 43  0  0  1  0  0  0  0  0999 V2000
  185.6700  177.3960  144.5070 C   0  0  0  0  0  0  0  0  0  0  0  0
  186.3770  177.0570  145.6640 C   0  0  0  0  0  3  0  0  0  0  0  0
  187.5430  176.6630  143.1470 C   0  0  0  0  0  0  0  0  0  0  0  0
  186.2510  177.2010  143.2510 C   0  0  0  0  0  3  0  0  0  0  0  0
  187.6680  176.5260  145.5660 C   0  0  0  0  0  0  0  0  0  0  0  0
  188.2460  176.3250  144.3080 C   0  0  0  0  0  3  0  0  0  0  0  0
  184.3910  177.9270  144.6060 O   0  0  0  0  0  1  0  0  0  0  0  0
  187.3960  177.1480  140.7230 C   0  0  0  0  0  1  0  0  0  0  0  0
  188.1820  176.4280  141.8110 C   0  0  2  0  0  3  0  0  0  0  0  0
  188.3280  174.9310  141.5000 C   0  0  1  0  0  3  0  0  0  0  0  0
  190.7390  174.8290  142.2410 N   0  0  0  0  0  2  0  0  0  0  0  0
  189.7580  174.5700  141.2390 C   0  0  0  0  0  0  0  0  0  0  0  0
  190.0910  174.0350  140.1470 O   0  0  0  0  0  0  0  0  0  0  0  0
  192.0850  174.5070  142.0340 N   0  0  0  0  0  0  0  0  0  0  0  0
  192.9870  175.4260  142.1070 C   0  0  0  0  0  3  0  0  0  0  0  0
  194.7040  175.0170  141.8380 P   0  0  1  0  0  0  0  0  0  0  0  0
  195.6750  176.0480  142.7620 O   0  0  0  0  0  1  0  0  0  0  0  0
  194.9550  173.5850  142.2540 O   0  0  0  0  0  0  0  0  0  0  0  0
  195.0960  175.2250  140.1070 C   0  0  0  0  0  0  0  0  0  0  0  0
  196.2250  175.6720  139.7710 O   0  0  0  0  0  0  0  0  0  0  0  0
  194.1350  174.8550  139.1180 N   0  0  0  0  0  2  0  0  0  0  0  0
  194.4050  174.9420  137.6900 C   0  0  0  0  0  2  0  0  0  0  0  0
  194.0170  173.6430  137.0070 C   0  0  0  0  0  2  0  0  0  0  0  0
  191.8860  174.2530  136.1400 O   0  0  0  0  0  0  0  0  0  0  0  0
  192.5350  173.5310  136.9400 C   0  0  0  0  0  0  0  0  0  0  0  0
  191.8710  172.6070  137.7360 O   0  0  0  0  0  1  0  0  0  0  0  0
  187.6110  172.8970  142.0140 C   0  0  0  0  0  1  0  0  0  0  0  0
  187.8420  174.1600  142.5620 O   0  0  0  0  0  0  0  0  0  0  0  0
  188.4110  176.1470  146.7990 C   0  0  0  0  0  2  0  0  0  0  0  0
  189.6370  177.0280  146.9610 C   0  0  0  0  0  2  0  0  0  0  0  0
  191.7610  176.2440  145.8250 C   0  0  0  0  0  0  0  0  0  0  0  0
  191.5520  177.0310  144.8620 O   0  0  0  0  0  0  0  0  0  0  0  0
  190.8420  176.2140  146.9220 N   0  0  0  0  0  2  0  0  0  0  0  0
  194.5020  177.1820  146.3670 O   0  0  0  0  0  1  0  0  0  0  0  0
  193.8780  173.1240  145.4880 C   0  0  0  0  0  0  0  0  0  0  0  0
  192.9580  175.3680  145.8070 C   0  0  0  0  0  0  0  0  0  0  0  0
  192.7860  174.0040  145.5190 C   0  0  0  0  0  3  0  0  0  0  0  0
  194.2630  175.8440  146.0710 C   0  0  0  0  0  0  0  0  0  0  0  0
  195.1590  173.6140  145.7490 C   0  0  0  0  0  3  0  0  0  0  0  0
  195.3490  174.9650  146.0380 C   0  0  0  0  0  3  0  0  0  0  0  0
  193.7180  171.7670  145.2010 O   0  0  0  0  0  0  0  0  0  0  0  0
  194.5980  170.7670  145.6960 C   0  0  0  0  0  1  0  0  0  0  0  0
  1  7  1  0  0  0  0
  1  2  1  0  0  0  0
  3  4  1  0  0  0  0
  3  6  2  0  0  0  0
  4  1  2  0  0  0  0
  5  2  2  0  0  0  0
  5 29  1  0  0  0  0
  6  5  1  0  0  0  0
  9  8  1  6  0  0  0
  9  3  1  0  0  0  0
 10 12  1  1  0  0  0
 10  9  1  0  0  0  0
 10 28  1  0  0  0  0
 12 11  1  0  0  0  0
 13 12  2  0  0  0  0
 14 15  2  0  0  0  0
 14 11  1  0  0  0  0
 16 15  1  0  0  0  0
 16 18  2  1  0  0  0
 16 17  1  0  0  0  0
 19 16  1  0  0  0  0
 20 19  2  0  0  0  0
 21 19  1  0  0  0  0
 22 21  1  0  0  0  0
 23 22  1  0  0  0  0
 24 25  2  0  0  0  0
 25 23  1  0  0  0  0
 25 26  1  0  0  0  0
 27 28  1  0  0  0  0
 29 30  1  0  0  0  0
 31 33  1  0  0  0  0
 32 31  2  0  0  0  0
 33 30  1  0  0  0  0
 35 37  2  0  0  0  0
 35 39  1  0  0  0  0
 36 31  1  0  0  0  0
 36 38  2  0  0  0  0
 37 36  1  0  0  0  0
 38 34  1  0  0  0  0
 39 40  2  0  0  0  0
 40 38  1  0  0  0  0
 41 35  1  0  0  0  0
 41 42  1  0  0  0  0
M  END
>  <MODEL>
9

>  <REMARK>
 VINA RESULT:      -6.1      2.057      7.418
  Name = 
  15 active torsions:
  status: ('A' for Active; 'I' for Inactive)
    1  A    between atoms: C_1  and  P_20
    2  A    between atoms: C_4  and  C_32
    3  A    between atoms: C_4  and  N_42
    4  A    between atoms: C_5  and  C_32
    5  A    between atoms: C_6  and  O_21
    6  A    between atoms: C_9  and  C_12
    7  A    between atoms: C_10  and  C_19
    8  A    between atoms: C_10  and  C_23
    9  A    between atoms: C_10  and  O_38
   10  A    between atoms: N_11  and  N_37
   11  A    between atoms: C_14  and  C_25
   12  A    between atoms: C_14  and  C_26
   13  A    between atoms: C_16  and  C_19
   14  A    between atoms: P_20  and  C_41
   15  A    between atoms: C_26  and  N_29
                            x       y       z     vdW  Elec       q    Type
                         _______ _______ _______ _____ _____    ______ ____

>  <TORSDO>
F 15

$$$$
