=
 OpenBabel11042415383D

 46 53  0  0  1  0  0  0  0  0999 V2000
  190.8670  175.2550  146.0170 C   0  0  0  0  0  3  0  0  0  0  0  0
  194.3940  176.6910  143.9110 C   0  0  0  0  0  3  0  0  0  0  0  0
  192.0840  178.4020  144.3860 O   0  0  0  0  0  1  0  0  0  0  0  0
  192.0930  177.0800  144.8230 C   0  0  0  0  0  0  0  0  0  0  0  0
  195.3120  173.2050  144.6860 C   0  0  0  0  0  0  0  0  0  0  0  0
  195.2230  175.5700  143.8920 C   0  0  0  0  0  0  0  0  0  0  0  0
  196.6330  175.5090  143.3750 C   0  0  1  0  0  3  0  0  0  0  0  0
  194.7320  172.1660  145.2240 C   0  0  0  0  0  0  0  0  0  0  0  0
  193.2330  176.3010  144.5600 C   0  0  0  0  0  0  0  0  0  0  0  0
  194.1830  171.1800  145.7350 O   0  0  0  0  0  0  0  0  0  0  0  0
  197.0210  174.0520  143.0610 C   0  0  0  0  0  2  0  0  0  0  0  0
  193.3890  174.9230  144.9530 C   0  0  0  0  0  0  0  0  0  0  0  0
  190.9560  176.5720  145.5140 C   0  0  0  0  0  0  0  0  0  0  0  0
  196.7490  173.1190  144.2520 C   0  0  0  0  0  2  0  0  0  0  0  0
  192.1540  174.1650  145.8010 S   0  0  0  0  0  0  0  0  0  0  0  0
  194.6290  174.5030  144.5400 C   0  0  0  0  0  0  0  0  0  0  0  0
  187.7140  176.9070  146.4530 C   0  0  0  0  0  0  0  0  0  0  0  0
  187.6040  177.0820  145.0160 C   0  0  0  0  0  0  0  0  0  0  0  0
  189.7840  177.4900  145.7070 C   0  0  1  0  0  3  0  0  0  0  0  0
  188.8060  177.4100  144.5590 C   0  0  0  0  0  3  0  0  0  0  0  0
  189.0180  177.1200  146.8490 O   0  0  0  0  0  0  0  0  0  0  0  0
  186.7840  176.5810  147.2420 O   0  0  0  0  0  0  0  0  0  0  0  0
  187.3870  175.2950  142.5630 C   0  0  0  0  0  3  0  0  0  0  0  0
  187.2570  177.4200  140.7120 C   0  0  0  0  0  2  0  0  0  0  0  0
  185.8360  178.2960  143.8290 N   0  0  0  0  0  0  0  0  0  0  0  0
  186.6800  176.3930  142.8470 C   0  0  0  0  0  0  0  0  0  0  0  0
  186.0060  178.5560  142.4830 O   0  0  0  0  0  0  0  0  0  0  0  0
  187.6740  176.0690  140.2980 N   0  0  0  0  0  0  0  0  0  0  0  0
  186.3720  176.9680  144.1520 C   0  0  1  0  0  3  0  0  0  0  0  0
  187.7750  175.0870  141.1520 C   0  0  0  0  0  3  0  0  0  0  0  0
  186.2080  177.3230  141.8260 C   0  0  1  0  0  3  0  0  0  0  0  0
  184.1660  178.6360  145.5650 C   0  0  0  0  0  1  0  0  0  0  0  0
  184.4040  178.2840  144.1100 C   0  0  0  0  0  2  0  0  0  0  0  0
  196.7650  176.3150  142.2070 O   0  0  0  0  0  0  0  0  0  0  0  0
  197.7900  175.5640  140.1610 C   0  0  0  0  0  3  0  0  0  0  0  0
  196.6360  175.8050  140.9120 C   0  0  0  0  0  0  0  0  0  0  0  0
  195.2830  175.0000  139.0620 C   0  0  0  0  0  3  0  0  0  0  0  0
  196.4380  174.7510  138.3070 C   0  0  0  0  0  0  0  0  0  0  0  0
  197.6930  175.0400  138.8680 C   0  0  0  0  0  3  0  0  0  0  0  0
  195.3790  175.5220  140.3550 C   0  0  0  0  0  3  0  0  0  0  0  0
  197.8510  172.5580  134.5130 C   0  0  0  0  0  1  0  0  0  0  0  0
  195.4890  173.0900  135.0730 C   0  0  0  0  0  2  0  0  0  0  0  0
  196.8490  173.6820  134.7240 C   0  0  1  0  0  3  0  0  0  0  0  0
  197.2720  174.5210  135.9160 C   0  0  0  0  0  2  0  0  0  0  0  0
  196.3390  174.2040  136.9820 N   0  0  0  0  0  0  0  0  0  0  0  0
  195.2880  173.2980  136.5640 C   0  0  0  0  0  2  0  0  0  0  0  0
  2  9  1  0  0  0  0
  3  4  1  0  0  0  0
  4 13  1  0  0  0  0
  5  8  2  0  0  0  0
  6  2  2  0  0  0  0
  6 16  1  0  0  0  0
  7 34  1  6  0  0  0
  7  6  1  0  0  0  0
  8 10  2  0  0  0  0
  9  4  2  0  0  0  0
  9 12  1  0  0  0  0
 11  7  1  0  0  0  0
 11 14  1  0  0  0  0
 12 15  1  0  0  0  0
 13  1  2  0  0  0  0
 14  5  1  0  0  0  0
 15  1  1  0  0  0  0
 16  5  1  0  0  0  0
 16 12  2  0  0  0  0
 17 21  1  0  0  0  0
 17 22  2  0  0  0  0
 18 17  1  0  0  0  0
 19 13  1  6  0  0  0
 19 21  1  0  0  0  0
 20 18  2  0  0  0  0
 20 19  1  0  0  0  0
 23 26  2  0  0  0  0
 25 33  1  0  0  0  0
 25 29  1  0  0  0  0
 26 29  1  0  0  0  0
 27 25  1  0  0  0  0
 28 24  1  0  0  0  0
 28 30  2  0  0  0  0
 29 18  1  1  0  0  0
 30 23  1  0  0  0  0
 31 24  1  6  0  0  0
 31 27  1  0  0  0  0
 31 26  1  0  0  0  0
 33 32  1  0  0  0  0
 35 36  1  0  0  0  0
 36 34  1  0  0  0  0
 37 40  1  0  0  0  0
 38 39  1  0  0  0  0
 38 37  2  0  0  0  0
 39 35  2  0  0  0  0
 40 36  2  0  0  0  0
 42 46  1  0  0  0  0
 43 41  1  1  0  0  0
 43 42  1  0  0  0  0
 43 44  1  0  0  0  0
 44 45  1  0  0  0  0
 45 38  1  0  0  0  0
 46 45  1  0  0  0  0
M  END
>  <MODEL>
1

>  <REMARK>
 VINA RESULT:      -9.0      0.000      0.000
  Name = 
  6 active torsions:
  status: ('A' for Active; 'I' for Inactive)
    1  A    between atoms: C_14  and  O_18
    2  A    between atoms: C_16  and  N_27
    3  A    between atoms: C_17  and  O_18
    4  A    between atoms: C_24  and  N_37
    5  A    between atoms: C_26  and  C_38
    6  A    between atoms: C_30  and  C_39
                            x       y       z     vdW  Elec       q    Type
                         _______ _______ _______ _____ _____    ______ ____

>  <TORSDO>
F 6

$$$$
=
 OpenBabel11042415383D

 46 53  0  0  1  0  0  0  0  0999 V2000
  192.6830  173.9270  140.6500 C   0  0  0  0  0  3  0  0  0  0  0  0
  191.1960  174.0110  144.7390 C   0  0  0  0  0  3  0  0  0  0  0  0
  189.7520  172.6500  142.6060 O   0  0  0  0  0  1  0  0  0  0  0  0
  190.9500  173.3100  142.3460 C   0  0  0  0  0  0  0  0  0  0  0  0
  194.3330  175.9300  145.0080 C   0  0  0  0  0  0  0  0  0  0  0  0
  192.1620  174.7640  145.4060 C   0  0  0  0  0  0  0  0  0  0  0  0
  192.2210  175.0370  146.8820 C   0  0  1  0  0  3  0  0  0  0  0  0
  195.2540  176.3670  144.1920 C   0  0  0  0  0  0  0  0  0  0  0  0
  191.5990  173.9540  143.4140 C   0  0  0  0  0  0  0  0  0  0  0  0
  196.1280  176.7820  143.4170 O   0  0  0  0  0  0  0  0  0  0  0  0
  193.0960  176.2740  147.1600 C   0  0  0  0  0  2  0  0  0  0  0  0
  192.8440  174.6710  143.3000 C   0  0  0  0  0  0  0  0  0  0  0  0
  191.4680  173.3070  141.0200 C   0  0  0  0  0  0  0  0  0  0  0  0
  194.4740  176.1610  146.4870 C   0  0  0  0  0  2  0  0  0  0  0  0
  193.6130  174.7510  141.8100 S   0  0  0  0  0  0  0  0  0  0  0  0
  193.1730  175.1490  144.5450 C   0  0  0  0  0  0  0  0  0  0  0  0
  191.4890  171.3290  138.2650 C   0  0  0  0  0  0  0  0  0  0  0  0
  191.1400  172.6100  137.6800 C   0  0  0  0  0  0  0  0  0  0  0  0
  190.6680  172.6120  139.9550 C   0  0  1  0  0  3  0  0  0  0  0  0
  190.6710  173.3810  138.6550 C   0  0  0  0  0  3  0  0  0  0  0  0
  191.2360  171.3500  139.6210 O   0  0  0  0  0  0  0  0  0  0  0  0
  191.9800  170.3360  137.6570 O   0  0  0  0  0  0  0  0  0  0  0  0
  193.6750  173.6410  136.3480 C   0  0  0  0  0  3  0  0  0  0  0  0
  192.7310  176.2780  136.0150 C   0  0  0  0  0  2  0  0  0  0  0  0
  190.1070  173.9110  135.8770 N   0  0  0  0  0  0  0  0  0  0  0  0
  192.4060  173.8630  135.9880 C   0  0  0  0  0  0  0  0  0  0  0  0
  190.5690  175.1930  135.6430 O   0  0  0  0  0  0  0  0  0  0  0  0
  194.1730  175.9760  136.0170 N   0  0  0  0  0  0  0  0  0  0  0  0
  191.2300  173.0350  136.2350 C   0  0  1  0  0  3  0  0  0  0  0  0
  194.6230  174.7660  136.2090 C   0  0  0  0  0  3  0  0  0  0  0  0
  191.9550  175.1140  135.3880 C   0  0  1  0  0  3  0  0  0  0  0  0
  189.4670  171.8940  134.6790 C   0  0  0  0  0  1  0  0  0  0  0  0
  189.5210  173.4080  134.6400 C   0  0  0  0  0  2  0  0  0  0  0  0
  190.9090  175.2380  147.4000 O   0  0  0  0  0  0  0  0  0  0  0  0
  188.5940  175.5630  146.8180 C   0  0  0  0  0  3  0  0  0  0  0  0
  189.9280  175.9710  146.7250 C   0  0  0  0  0  0  0  0  0  0  0  0
  189.2450  177.8280  145.3150 C   0  0  0  0  0  3  0  0  0  0  0  0
  187.9050  177.4260  145.4110 C   0  0  0  0  0  0  0  0  0  0  0  0
  187.5890  176.2860  146.1670 C   0  0  0  0  0  3  0  0  0  0  0  0
  190.2500  177.1080  145.9680 C   0  0  0  0  0  3  0  0  0  0  0  0
  184.3080  178.1240  142.6220 C   0  0  0  0  0  1  0  0  0  0  0  0
  185.1100  179.7080  144.3620 C   0  0  0  0  0  2  0  0  0  0  0  0
  185.4580  179.0260  143.0440 C   0  0  1  0  0  3  0  0  0  0  0  0
  186.6930  178.1830  143.3090 C   0  0  0  0  0  2  0  0  0  0  0  0
  186.8710  178.1730  144.7490 N   0  0  0  0  0  0  0  0  0  0  0  0
  185.9140  179.0100  145.4440 C   0  0  0  0  0  2  0  0  0  0  0  0
  1 13  2  0  0  0  0
  1 15  1  0  0  0  0
  2  6  2  0  0  0  0
  4  3  1  0  0  0  0
  4  9  2  0  0  0  0
  5 14  1  0  0  0  0
  6  7  1  0  0  0  0
  7 11  1  0  0  0  0
  7 34  1  6  0  0  0
  8  5  2  0  0  0  0
  9  2  1  0  0  0  0
 10  8  2  0  0  0  0
 12  9  1  0  0  0  0
 12 16  2  0  0  0  0
 13  4  1  0  0  0  0
 14 11  1  0  0  0  0
 15 12  1  0  0  0  0
 16  5  1  0  0  0  0
 16  6  1  0  0  0  0
 17 21  1  0  0  0  0
 18 17  1  0  0  0  0
 18 20  2  0  0  0  0
 19 13  1  1  0  0  0
 20 19  1  0  0  0  0
 21 19  1  0  0  0  0
 22 17  2  0  0  0  0
 24 28  1  0  0  0  0
 25 29  1  0  0  0  0
 26 29  1  0  0  0  0
 26 23  2  0  0  0  0
 27 25  1  0  0  0  0
 28 30  2  0  0  0  0
 29 18  1  1  0  0  0
 30 23  1  0  0  0  0
 31 27  1  0  0  0  0
 31 26  1  0  0  0  0
 31 24  1  1  0  0  0
 33 32  1  0  0  0  0
 33 25  1  0  0  0  0
 36 35  1  0  0  0  0
 36 34  1  0  0  0  0
 37 38  2  0  0  0  0
 37 40  1  0  0  0  0
 38 39  1  0  0  0  0
 39 35  2  0  0  0  0
 40 36  2  0  0  0  0
 42 46  1  0  0  0  0
 43 41  1  1  0  0  0
 43 44  1  0  0  0  0
 43 42  1  0  0  0  0
 44 45  1  0  0  0  0
 45 38  1  0  0  0  0
 45 46  1  0  0  0  0
M  END
>  <MODEL>
2

>  <REMARK>
 VINA RESULT:      -8.9      3.607      9.261
  Name = 
  6 active torsions:
  status: ('A' for Active; 'I' for Inactive)
    1  A    between atoms: C_14  and  O_18
    2  A    between atoms: C_16  and  N_27
    3  A    between atoms: C_17  and  O_18
    4  A    between atoms: C_24  and  N_37
    5  A    between atoms: C_26  and  C_38
    6  A    between atoms: C_30  and  C_39
                            x       y       z     vdW  Elec       q    Type
                         _______ _______ _______ _____ _____    ______ ____

>  <TORSDO>
F 6

$$$$
=
 OpenBabel11042415383D

 46 53  0  0  1  0  0  0  0  0999 V2000
  191.2380  175.5990  146.2290 C   0  0  0  0  0  3  0  0  0  0  0  0
  193.5250  176.3410  142.6010 C   0  0  0  0  0  3  0  0  0  0  0  0
  191.3350  178.0800  143.4210 O   0  0  0  0  0  1  0  0  0  0  0  0
  191.6830  176.9660  144.1820 C   0  0  0  0  0  0  0  0  0  0  0  0
  195.1300  173.2990  143.9280 C   0  0  0  0  0  0  0  0  0  0  0  0
  194.4350  175.2850  142.5860 C   0  0  0  0  0  0  0  0  0  0  0  0
  195.5540  175.0840  141.6040 C   0  0  1  0  0  3  0  0  0  0  0  0
  194.9340  172.4770  144.9250 C   0  0  0  0  0  0  0  0  0  0  0  0
  192.7440  176.1610  143.7330 C   0  0  0  0  0  0  0  0  0  0  0  0
  194.7490  171.6970  145.8690 O   0  0  0  0  0  0  0  0  0  0  0  0
  195.9970  173.6090  141.5980 C   0  0  0  0  0  2  0  0  0  0  0  0
  193.2200  174.9830  144.4140 C   0  0  0  0  0  0  0  0  0  0  0  0
  190.9570  176.6880  145.3740 C   0  0  0  0  0  0  0  0  0  0  0  0
  196.3080  173.1010  143.0150 C   0  0  0  0  0  2  0  0  0  0  0  0
  192.4940  174.5170  145.8550 S   0  0  0  0  0  0  0  0  0  0  0  0
  194.2700  174.4720  143.6920 C   0  0  0  0  0  0  0  0  0  0  0  0
  187.7980  176.9860  146.5750 C   0  0  0  0  0  0  0  0  0  0  0  0
  187.5880  177.2900  145.1720 C   0  0  0  0  0  0  0  0  0  0  0  0
  189.8210  177.6030  145.7340 C   0  0  1  0  0  3  0  0  0  0  0  0
  188.7620  177.6400  144.6580 C   0  0  0  0  0  3  0  0  0  0  0  0
  189.1320  177.1420  146.8920 O   0  0  0  0  0  0  0  0  0  0  0  0
  186.9200  176.6040  147.3990 O   0  0  0  0  0  0  0  0  0  0  0  0
  187.1410  175.6920  142.6210 C   0  0  0  0  0  3  0  0  0  0  0  0
  186.9490  177.9480  140.9390 C   0  0  0  0  0  2  0  0  0  0  0  0
  185.7810  178.6350  144.2050 N   0  0  0  0  0  0  0  0  0  0  0  0
  186.4920  176.7860  143.0320 C   0  0  0  0  0  0  0  0  0  0  0  0
  185.8650  178.9870  142.8710 O   0  0  0  0  0  0  0  0  0  0  0  0
  187.2920  176.6190  140.4020 N   0  0  0  0  0  0  0  0  0  0  0  0
  186.2960  177.2730  144.3940 C   0  0  1  0  0  3  0  0  0  0  0  0
  187.4210  175.5760  141.1750 C   0  0  0  0  0  3  0  0  0  0  0  0
  185.9790  177.8000  142.1160 C   0  0  1  0  0  3  0  0  0  0  0  0
  184.2550  178.5820  146.0980 C   0  0  0  0  0  1  0  0  0  0  0  0
  184.3730  178.6420  144.5880 C   0  0  0  0  0  2  0  0  0  0  0  0
  195.1410  175.4770  140.2980 O   0  0  0  0  0  0  0  0  0  0  0  0
  193.1150  174.3060  139.7290 C   0  0  0  0  0  3  0  0  0  0  0  0
  194.4420  174.6290  139.4330 C   0  0  0  0  0  0  0  0  0  0  0  0
  194.3080  173.2720  137.4220 C   0  0  0  0  0  3  0  0  0  0  0  0
  192.9740  172.9510  137.7120 C   0  0  0  0  0  0  0  0  0  0  0  0
  192.3850  173.4730  138.8740 C   0  0  0  0  0  3  0  0  0  0  0  0
  195.0370  174.1070  138.2740 C   0  0  0  0  0  3  0  0  0  0  0  0
  189.3760  171.6090  135.1710 C   0  0  0  0  0  1  0  0  0  0  0  0
  191.6700  170.6640  135.0310 C   0  0  0  0  0  2  0  0  0  0  0  0
  190.4420  170.8230  135.9180 C   0  0  1  0  0  3  0  0  0  0  0  0
  190.8910  171.6110  137.1360 C   0  0  0  0  0  2  0  0  0  0  0  0
  192.2220  172.1010  136.8290 N   0  0  0  0  0  0  0  0  0  0  0  0
  192.7200  171.6290  135.5530 C   0  0  0  0  0  2  0  0  0  0  0  0
  2  9  1  0  0  0  0
  3  4  1  0  0  0  0
  4 13  1  0  0  0  0
  5  8  2  0  0  0  0
  6  2  2  0  0  0  0
  6 16  1  0  0  0  0
  7 34  1  6  0  0  0
  7  6  1  0  0  0  0
  8 10  2  0  0  0  0
  9  4  2  0  0  0  0
  9 12  1  0  0  0  0
 11  7  1  0  0  0  0
 11 14  1  0  0  0  0
 12 15  1  0  0  0  0
 13  1  2  0  0  0  0
 14  5  1  0  0  0  0
 15  1  1  0  0  0  0
 16  5  1  0  0  0  0
 16 12  2  0  0  0  0
 17 21  1  0  0  0  0
 17 22  2  0  0  0  0
 18 17  1  0  0  0  0
 19 13  1  6  0  0  0
 19 21  1  0  0  0  0
 20 18  2  0  0  0  0
 20 19  1  0  0  0  0
 23 26  2  0  0  0  0
 25 29  1  0  0  0  0
 25 33  1  0  0  0  0
 26 29  1  0  0  0  0
 27 25  1  0  0  0  0
 28 24  1  0  0  0  0
 28 30  2  0  0  0  0
 29 18  1  1  0  0  0
 30 23  1  0  0  0  0
 31 24  1  6  0  0  0
 31 27  1  0  0  0  0
 31 26  1  0  0  0  0
 33 32  1  0  0  0  0
 36 35  1  0  0  0  0
 36 34  1  0  0  0  0
 37 38  2  0  0  0  0
 37 40  1  0  0  0  0
 38 39  1  0  0  0  0
 39 35  2  0  0  0  0
 40 36  2  0  0  0  0
 42 46  1  0  0  0  0
 42 43  1  0  0  0  0
 43 41  1  6  0  0  0
 43 44  1  0  0  0  0
 45 44  1  0  0  0  0
 45 38  1  0  0  0  0
 46 45  1  0  0  0  0
M  END
>  <MODEL>
3

>  <REMARK>
 VINA RESULT:      -8.8      2.085      2.757
  Name = 
  6 active torsions:
  status: ('A' for Active; 'I' for Inactive)
    1  A    between atoms: C_14  and  O_18
    2  A    between atoms: C_16  and  N_27
    3  A    between atoms: C_17  and  O_18
    4  A    between atoms: C_24  and  N_37
    5  A    between atoms: C_26  and  C_38
    6  A    between atoms: C_30  and  C_39
                            x       y       z     vdW  Elec       q    Type
                         _______ _______ _______ _____ _____    ______ ____

>  <TORSDO>
F 6

$$$$
=
 OpenBabel11042415383D

 46 53  0  0  1  0  0  0  0  0999 V2000
  191.5970  174.2020  143.4650 C   0  0  0  0  0  3  0  0  0  0  0  0
  187.7690  175.9350  142.3270 C   0  0  0  0  0  3  0  0  0  0  0  0
  189.2810  174.2240  140.5170 O   0  0  0  0  0  1  0  0  0  0  0  0
  189.7690  174.5250  141.7870 C   0  0  0  0  0  0  0  0  0  0  0  0
  188.2210  177.2180  145.7550 C   0  0  0  0  0  0  0  0  0  0  0  0
  187.4170  176.6770  143.4540 C   0  0  0  0  0  0  0  0  0  0  0  0
  186.1270  177.4160  143.6700 C   0  0  1  0  0  3  0  0  0  0  0  0
  189.1510  177.1760  146.6710 C   0  0  0  0  0  0  0  0  0  0  0  0
  188.9980  175.3600  142.6140 C   0  0  0  0  0  0  0  0  0  0  0  0
  190.0320  177.1370  147.5410 O   0  0  0  0  0  0  0  0  0  0  0  0
  186.3050  178.4910  144.7590 C   0  0  0  0  0  2  0  0  0  0  0  0
  189.3690  175.7540  143.9490 C   0  0  0  0  0  0  0  0  0  0  0  0
  191.0190  173.9790  142.1940 C   0  0  0  0  0  0  0  0  0  0  0  0
  186.9150  177.9050  146.0440 C   0  0  0  0  0  2  0  0  0  0  0  0
  190.8050  175.1830  144.6060 S   0  0  0  0  0  0  0  0  0  0  0  0
  188.3710  176.5550  144.4480 C   0  0  0  0  0  0  0  0  0  0  0  0
  193.5930  171.8390  141.6470 C   0  0  0  0  0  0  0  0  0  0  0  0
  194.0760  173.0280  140.9720 C   0  0  0  0  0  0  0  0  0  0  0  0
  191.7670  173.1260  141.2110 C   0  0  1  0  0  3  0  0  0  0  0  0
  193.0260  173.8010  140.7200 C   0  0  0  0  0  3  0  0  0  0  0  0
  192.2260  171.9200  141.8140 O   0  0  0  0  0  0  0  0  0  0  0  0
  194.2940  170.8720  142.0600 O   0  0  0  0  0  0  0  0  0  0  0  0
  196.1240  174.3400  142.8010 C   0  0  0  0  0  3  0  0  0  0  0  0
  196.2110  176.7750  141.3800 C   0  0  0  0  0  2  0  0  0  0  0  0
  195.5130  174.0330  139.2580 N   0  0  0  0  0  0  0  0  0  0  0  0
  196.0930  174.3410  141.4650 C   0  0  0  0  0  0  0  0  0  0  0  0
  195.8990  175.3510  139.4140 O   0  0  0  0  0  0  0  0  0  0  0  0
  196.6330  176.6960  142.7890 N   0  0  0  0  0  0  0  0  0  0  0  0
  195.4900  173.3630  140.5650 C   0  0  1  0  0  3  0  0  0  0  0  0
  196.5610  175.5840  143.4680 C   0  0  0  0  0  3  0  0  0  0  0  0
  196.5550  175.4670  140.6580 C   0  0  1  0  0  3  0  0  0  0  0  0
  196.5080  171.8780  138.7250 C   0  0  0  0  0  1  0  0  0  0  0  0
  196.5090  173.3640  138.4280 C   0  0  0  0  0  2  0  0  0  0  0  0
  185.6940  178.0190  142.4540 O   0  0  0  0  0  0  0  0  0  0  0  0
  183.9030  178.0600  140.8440 C   0  0  0  0  0  3  0  0  0  0  0  0
  184.3470  178.2500  142.1550 C   0  0  0  0  0  0  0  0  0  0  0  0
  182.0920  178.8650  142.8140 C   0  0  0  0  0  3  0  0  0  0  0  0
  181.6400  178.6700  141.5010 C   0  0  0  0  0  0  0  0  0  0  0  0
  182.5580  178.2680  140.5180 C   0  0  0  0  0  3  0  0  0  0  0  0
  183.4340  178.6550  143.1410 C   0  0  0  0  0  3  0  0  0  0  0  0
  178.0250  179.5950  138.8030 C   0  0  0  0  0  1  0  0  0  0  0  0
  177.9070  178.6000  141.0770 C   0  0  0  0  0  2  0  0  0  0  0  0
  178.2800  179.8450  140.2810 C   0  0  1  0  0  3  0  0  0  0  0  0
  179.7650  180.0710  140.5080 C   0  0  0  0  0  2  0  0  0  0  0  0
  180.2570  178.8760  141.1680 N   0  0  0  0  0  0  0  0  0  0  0  0
  179.2080  177.9240  141.4740 C   0  0  0  0  0  2  0  0  0  0  0  0
  1 15  1  0  0  0  0
  2  9  1  0  0  0  0
  2  6  2  0  0  0  0
  3  4  1  0  0  0  0
  4 13  1  0  0  0  0
  4  9  2  0  0  0  0
  5 14  1  0  0  0  0
  5  8  2  0  0  0  0
  6  7  1  0  0  0  0
  6 16  1  0  0  0  0
  7 34  1  6  0  0  0
  7 11  1  0  0  0  0
  8 10  2  0  0  0  0
  9 12  1  0  0  0  0
 11 14  1  0  0  0  0
 12 16  2  0  0  0  0
 12 15  1  0  0  0  0
 13  1  2  0  0  0  0
 16  5  1  0  0  0  0
 17 21  1  0  0  0  0
 17 22  2  0  0  0  0
 18 17  1  0  0  0  0
 19 21  1  0  0  0  0
 19 13  1  1  0  0  0
 20 18  2  0  0  0  0
 20 19  1  0  0  0  0
 23 30  1  0  0  0  0
 24 28  1  0  0  0  0
 25 27  1  0  0  0  0
 25 29  1  0  0  0  0
 26 23  2  0  0  0  0
 27 31  1  0  0  0  0
 28 30  2  0  0  0  0
 29 18  1  1  0  0  0
 29 26  1  0  0  0  0
 31 24  1  1  0  0  0
 31 26  1  0  0  0  0
 33 32  1  0  0  0  0
 33 25  1  0  0  0  0
 35 36  1  0  0  0  0
 36 34  1  0  0  0  0
 36 40  2  0  0  0  0
 37 40  1  0  0  0  0
 38 37  2  0  0  0  0
 39 35  2  0  0  0  0
 39 38  1  0  0  0  0
 42 46  1  0  0  0  0
 43 41  1  6  0  0  0
 43 44  1  0  0  0  0
 43 42  1  0  0  0  0
 44 45  1  0  0  0  0
 45 46  1  0  0  0  0
 45 38  1  0  0  0  0
M  END
>  <MODEL>
4

>  <REMARK>
 VINA RESULT:      -8.7      3.538     11.565
  Name = 
  6 active torsions:
  status: ('A' for Active; 'I' for Inactive)
    1  A    between atoms: C_14  and  O_18
    2  A    between atoms: C_16  and  N_27
    3  A    between atoms: C_17  and  O_18
    4  A    between atoms: C_24  and  N_37
    5  A    between atoms: C_26  and  C_38
    6  A    between atoms: C_30  and  C_39
                            x       y       z     vdW  Elec       q    Type
                         _______ _______ _______ _____ _____    ______ ____

>  <TORSDO>
F 6

$$$$
=
 OpenBabel11042415383D

 46 53  0  0  1  0  0  0  0  0999 V2000
  190.3850  175.5060  146.0890 C   0  0  0  0  0  3  0  0  0  0  0  0
  186.8890  176.4020  143.6570 C   0  0  0  0  0  3  0  0  0  0  0  0
  188.9720  174.5820  142.7430 O   0  0  0  0  0  1  0  0  0  0  0  0
  189.0680  175.2080  143.9830 C   0  0  0  0  0  0  0  0  0  0  0  0
  186.2790  178.4240  146.6790 C   0  0  0  0  0  0  0  0  0  0  0  0
  186.1820  177.3050  144.4500 C   0  0  0  0  0  0  0  0  0  0  0  0
  184.8260  177.8820  144.1560 C   0  0  1  0  0  3  0  0  0  0  0  0
  186.9210  178.7070  147.7800 C   0  0  0  0  0  0  0  0  0  0  0  0
  188.0340  176.0790  144.3680 C   0  0  0  0  0  0  0  0  0  0  0  0
  187.5310  178.9770  148.8250 O   0  0  0  0  0  0  0  0  0  0  0  0
  184.6120  179.1750  144.9650 C   0  0  0  0  0  2  0  0  0  0  0  0
  187.9920  176.7930  145.6200 C   0  0  0  0  0  0  0  0  0  0  0  0
  190.1980  174.9420  144.8070 C   0  0  0  0  0  0  0  0  0  0  0  0
  184.8920  178.9640  146.4620 C   0  0  0  0  0  2  0  0  0  0  0  0
  189.2350  176.5810  146.7290 S   0  0  0  0  0  0  0  0  0  0  0  0
  186.8340  177.5300  145.6480 C   0  0  0  0  0  0  0  0  0  0  0  0
  193.1340  173.3360  145.3610 C   0  0  0  0  0  0  0  0  0  0  0  0
  193.5500  174.3480  144.4070 C   0  0  0  0  0  0  0  0  0  0  0  0
  191.2540  174.0170  144.2730 C   0  0  1  0  0  3  0  0  0  0  0  0
  192.4630  174.7690  143.7700 C   0  0  0  0  0  3  0  0  0  0  0  0
  191.7660  173.1700  145.2970 O   0  0  0  0  0  0  0  0  0  0  0  0
  193.8820  172.7070  146.1610 O   0  0  0  0  0  0  0  0  0  0  0  0
  194.3040  176.0410  141.9940 C   0  0  0  0  0  3  0  0  0  0  0  0
  195.8410  174.0330  140.7450 C   0  0  0  0  0  2  0  0  0  0  0  0
  195.9260  173.7580  144.2700 N   0  0  0  0  0  0  0  0  0  0  0  0
  195.0950  175.2470  142.7230 C   0  0  0  0  0  0  0  0  0  0  0  0
  196.4490  173.4220  143.0360 O   0  0  0  0  0  0  0  0  0  0  0  0
  195.2820  175.1580  139.9760 N   0  0  0  0  0  0  0  0  0  0  0  0
  194.9450  174.8410  144.1170 C   0  0  1  0  0  3  0  0  0  0  0  0
  194.5370  176.0720  140.5350 C   0  0  0  0  0  3  0  0  0  0  0  0
  196.2140  174.5010  142.1570 C   0  0  1  0  0  3  0  0  0  0  0  0
  197.1080  173.4200  146.3680 C   0  0  0  0  0  1  0  0  0  0  0  0
  197.0150  174.2520  145.1050 C   0  0  0  0  0  2  0  0  0  0  0  0
  184.6960  178.1490  142.7620 O   0  0  0  0  0  0  0  0  0  0  0  0
  183.3250  177.9220  140.7950 C   0  0  0  0  0  3  0  0  0  0  0  0
  183.4590  178.3120  142.1300 C   0  0  0  0  0  0  0  0  0  0  0  0
  181.1250  178.9850  142.1530 C   0  0  0  0  0  3  0  0  0  0  0  0
  180.9840  178.5880  140.8150 C   0  0  0  0  0  0  0  0  0  0  0  0
  182.0950  178.0570  140.1410 C   0  0  0  0  0  3  0  0  0  0  0  0
  182.3520  178.8470  142.8070 C   0  0  0  0  0  3  0  0  0  0  0  0
  177.8820  180.4140  137.9430 C   0  0  0  0  0  1  0  0  0  0  0  0
  177.7160  178.1740  139.0060 C   0  0  0  0  0  2  0  0  0  0  0  0
  177.7330  179.6760  139.2640 C   0  0  1  0  0  3  0  0  0  0  0  0
  178.9450  179.9490  140.1360 C   0  0  0  0  0  2  0  0  0  0  0  0
  179.7190  178.7210  140.1450 N   0  0  0  0  0  0  0  0  0  0  0  0
  179.0730  177.6390  139.4280 C   0  0  0  0  0  2  0  0  0  0  0  0
  1 15  1  0  0  0  0
  2  9  1  0  0  0  0
  2  6  2  0  0  0  0
  3  4  1  0  0  0  0
  4  9  2  0  0  0  0
  4 13  1  0  0  0  0
  5  8  2  0  0  0  0
  6 16  1  0  0  0  0
  7 34  1  6  0  0  0
  7  6  1  0  0  0  0
  7 11  1  0  0  0  0
  8 10  2  0  0  0  0
  9 12  1  0  0  0  0
 11 14  1  0  0  0  0
 12 16  2  0  0  0  0
 12 15  1  0  0  0  0
 13  1  2  0  0  0  0
 14  5  1  0  0  0  0
 16  5  1  0  0  0  0
 17 22  2  0  0  0  0
 18 17  1  0  0  0  0
 19 13  1  1  0  0  0
 19 21  1  0  0  0  0
 20 19  1  0  0  0  0
 20 18  2  0  0  0  0
 21 17  1  0  0  0  0
 23 26  2  0  0  0  0
 25 33  1  0  0  0  0
 26 29  1  0  0  0  0
 27 25  1  0  0  0  0
 28 30  2  0  0  0  0
 28 24  1  0  0  0  0
 29 25  1  0  0  0  0
 29 18  1  6  0  0  0
 30 23  1  0  0  0  0
 31 24  1  6  0  0  0
 31 26  1  0  0  0  0
 31 27  1  0  0  0  0
 33 32  1  0  0  0  0
 35 36  1  0  0  0  0
 36 34  1  0  0  0  0
 36 40  2  0  0  0  0
 37 40  1  0  0  0  0
 38 37  2  0  0  0  0
 39 35  2  0  0  0  0
 39 38  1  0  0  0  0
 42 43  1  0  0  0  0
 42 46  1  0  0  0  0
 43 41  1  6  0  0  0
 43 44  1  0  0  0  0
 44 45  1  0  0  0  0
 45 38  1  0  0  0  0
 46 45  1  0  0  0  0
M  END
>  <MODEL>
5

>  <REMARK>
 VINA RESULT:      -8.2      3.739     11.635
  Name = 
  6 active torsions:
  status: ('A' for Active; 'I' for Inactive)
    1  A    between atoms: C_14  and  O_18
    2  A    between atoms: C_16  and  N_27
    3  A    between atoms: C_17  and  O_18
    4  A    between atoms: C_24  and  N_37
    5  A    between atoms: C_26  and  C_38
    6  A    between atoms: C_30  and  C_39
                            x       y       z     vdW  Elec       q    Type
                         _______ _______ _______ _____ _____    ______ ____

>  <TORSDO>
F 6

$$$$
=
 OpenBabel11042415383D

 46 53  0  0  1  0  0  0  0  0999 V2000
  190.5200  174.9750  145.5600 C   0  0  0  0  0  3  0  0  0  0  0  0
  186.9660  176.1410  143.3340 C   0  0  0  0  0  3  0  0  0  0  0  0
  188.8780  174.2130  142.2780 O   0  0  0  0  0  1  0  0  0  0  0  0
  189.0780  174.8050  143.5220 C   0  0  0  0  0  0  0  0  0  0  0  0
  186.6460  178.1350  146.4190 C   0  0  0  0  0  0  0  0  0  0  0  0
  186.3620  177.0710  144.1790 C   0  0  0  0  0  0  0  0  0  0  0  0
  185.0330  177.7390  143.9680 C   0  0  1  0  0  3  0  0  0  0  0  0
  187.3620  178.3530  147.4890 C   0  0  0  0  0  0  0  0  0  0  0  0
  188.1250  175.7320  143.9770 C   0  0  0  0  0  0  0  0  0  0  0  0
  188.0410  178.5610  148.5050 O   0  0  0  0  0  0  0  0  0  0  0  0
  184.9440  179.0260  144.8100 C   0  0  0  0  0  2  0  0  0  0  0  0
  188.1940  176.4200  145.2420 C   0  0  0  0  0  0  0  0  0  0  0  0
  190.2300  174.4510  144.2790 C   0  0  0  0  0  0  0  0  0  0  0  0
  185.2880  178.7660  146.2860 C   0  0  0  0  0  2  0  0  0  0  0  0
  189.4760  176.1070  146.2790 S   0  0  0  0  0  0  0  0  0  0  0  0
  187.0880  177.2290  145.3450 C   0  0  0  0  0  0  0  0  0  0  0  0
  193.1010  172.6790  144.6330 C   0  0  0  0  0  0  0  0  0  0  0  0
  193.5100  173.6730  143.6580 C   0  0  0  0  0  0  0  0  0  0  0  0
  191.1950  173.4720  143.6750 C   0  0  1  0  0  3  0  0  0  0  0  0
  192.4100  174.1590  143.0960 C   0  0  0  0  0  3  0  0  0  0  0  0
  191.7250  172.5900  144.6590 O   0  0  0  0  0  0  0  0  0  0  0  0
  193.8630  172.0030  145.3810 O   0  0  0  0  0  0  0  0  0  0  0  0
  195.4790  171.9070  142.1540 C   0  0  0  0  0  3  0  0  0  0  0  0
  197.2480  171.5900  144.3280 C   0  0  0  0  0  2  0  0  0  0  0  0
  195.5950  174.7150  144.4170 N   0  0  0  0  0  0  0  0  0  0  0  0
  195.7480  172.9390  142.9600 C   0  0  0  0  0  0  0  0  0  0  0  0
  196.6190  173.8960  144.8550 O   0  0  0  0  0  0  0  0  0  0  0  0
  197.2300  170.6300  143.2110 N   0  0  0  0  0  0  0  0  0  0  0  0
  194.9090  174.0900  143.2780 C   0  0  1  0  0  3  0  0  0  0  0  0
  196.3900  170.7440  142.2190 C   0  0  0  0  0  3  0  0  0  0  0  0
  196.9320  172.9990  143.8110 C   0  0  1  0  0  3  0  0  0  0  0  0
  195.6680  176.2930  142.5670 C   0  0  0  0  0  1  0  0  0  0  0  0
  196.1840  175.9680  143.9540 C   0  0  0  0  0  2  0  0  0  0  0  0
  184.8470  178.0430  142.5880 O   0  0  0  0  0  0  0  0  0  0  0  0
  183.3850  177.8590  140.6830 C   0  0  0  0  0  3  0  0  0  0  0  0
  183.5870  178.2370  142.0130 C   0  0  0  0  0  0  0  0  0  0  0  0
  181.2720  178.9590  142.1440 C   0  0  0  0  0  3  0  0  0  0  0  0
  181.0620  178.5750  140.8120 C   0  0  0  0  0  0  0  0  0  0  0  0
  182.1310  178.0250  140.0860 C   0  0  0  0  0  3  0  0  0  0  0  0
  182.5230  178.7900  142.7430 C   0  0  0  0  0  3  0  0  0  0  0  0
  177.9010  180.4290  138.0240 C   0  0  0  0  0  1  0  0  0  0  0  0
  177.6920  178.2420  139.1840 C   0  0  0  0  0  2  0  0  0  0  0  0
  177.7880  179.7500  139.3790 C   0  0  1  0  0  3  0  0  0  0  0  0
  179.0540  180.0000  140.1790 C   0  0  0  0  0  2  0  0  0  0  0  0
  179.7720  178.7390  140.2010 N   0  0  0  0  0  0  0  0  0  0  0  0
  179.0440  177.6620  139.5610 C   0  0  0  0  0  2  0  0  0  0  0  0
  1 15  1  0  0  0  0
  2  9  1  0  0  0  0
  2  6  2  0  0  0  0
  3  4  1  0  0  0  0
  4  9  2  0  0  0  0
  4 13  1  0  0  0  0
  5  8  2  0  0  0  0
  6 16  1  0  0  0  0
  7 34  1  6  0  0  0
  7  6  1  0  0  0  0
  7 11  1  0  0  0  0
  8 10  2  0  0  0  0
  9 12  1  0  0  0  0
 11 14  1  0  0  0  0
 12 16  2  0  0  0  0
 12 15  1  0  0  0  0
 13  1  2  0  0  0  0
 14  5  1  0  0  0  0
 16  5  1  0  0  0  0
 17 21  1  0  0  0  0
 17 22  2  0  0  0  0
 18 17  1  0  0  0  0
 19 13  1  1  0  0  0
 19 21  1  0  0  0  0
 20 18  2  0  0  0  0
 20 19  1  0  0  0  0
 23 30  1  0  0  0  0
 23 26  2  0  0  0  0
 25 27  1  0  0  0  0
 26 29  1  0  0  0  0
 26 31  1  0  0  0  0
 28 24  1  0  0  0  0
 29 18  1  1  0  0  0
 29 25  1  0  0  0  0
 30 28  2  0  0  0  0
 31 24  1  1  0  0  0
 31 27  1  0  0  0  0
 32 33  1  0  0  0  0
 33 25  1  0  0  0  0
 35 36  1  0  0  0  0
 36 34  1  0  0  0  0
 36 40  2  0  0  0  0
 37 40  1  0  0  0  0
 38 37  2  0  0  0  0
 39 35  2  0  0  0  0
 39 38  1  0  0  0  0
 42 43  1  0  0  0  0
 42 46  1  0  0  0  0
 43 41  1  6  0  0  0
 43 44  1  0  0  0  0
 44 45  1  0  0  0  0
 45 38  1  0  0  0  0
 46 45  1  0  0  0  0
M  END
>  <MODEL>
6

>  <REMARK>
 VINA RESULT:      -8.2      3.879     11.740
  Name = 
  6 active torsions:
  status: ('A' for Active; 'I' for Inactive)
    1  A    between atoms: C_14  and  O_18
    2  A    between atoms: C_16  and  N_27
    3  A    between atoms: C_17  and  O_18
    4  A    between atoms: C_24  and  N_37
    5  A    between atoms: C_26  and  C_38
    6  A    between atoms: C_30  and  C_39
                            x       y       z     vdW  Elec       q    Type
                         _______ _______ _______ _____ _____    ______ ____

>  <TORSDO>
F 6

$$$$
=
 OpenBabel11042415383D

 46 53  0  0  1  0  0  0  0  0999 V2000
  191.4900  176.9230  147.4070 C   0  0  0  0  0  3  0  0  0  0  0  0
  189.6040  175.8280  143.6400 C   0  0  0  0  0  3  0  0  0  0  0  0
  192.4620  175.4780  144.0880 O   0  0  0  0  0  1  0  0  0  0  0  0
  191.6460  176.0150  145.0810 C   0  0  0  0  0  0  0  0  0  0  0  0
  186.7510  177.0920  145.6040 C   0  0  0  0  0  0  0  0  0  0  0  0
  188.2690  176.1720  143.8490 C   0  0  0  0  0  0  0  0  0  0  0  0
  187.1240  175.9200  142.9110 C   0  0  1  0  0  3  0  0  0  0  0  0
  186.5720  177.6480  146.7720 C   0  0  0  0  0  0  0  0  0  0  0  0
  190.2760  176.1660  144.8050 C   0  0  0  0  0  0  0  0  0  0  0  0
  186.4020  178.1750  147.8810 O   0  0  0  0  0  0  0  0  0  0  0  0
  185.9480  176.8580  143.2420 C   0  0  0  0  0  2  0  0  0  0  0  0
  189.3110  176.7010  145.7320 C   0  0  0  0  0  0  0  0  0  0  0  0
  192.2260  176.3880  146.3260 C   0  0  0  0  0  0  0  0  0  0  0  0
  185.5660  176.7900  144.7300 C   0  0  0  0  0  2  0  0  0  0  0  0
  189.8140  177.1710  147.2630 S   0  0  0  0  0  0  0  0  0  0  0  0
  188.0810  176.6810  145.1210 C   0  0  0  0  0  0  0  0  0  0  0  0
  195.2780  176.3100  144.8480 C   0  0  0  0  0  0  0  0  0  0  0  0
  195.0830  174.9040  145.1500 C   0  0  0  0  0  0  0  0  0  0  0  0
  193.7080  176.2100  146.4920 C   0  0  1  0  0  3  0  0  0  0  0  0
  194.1590  174.8230  146.0990 C   0  0  0  0  0  3  0  0  0  0  0  0
  194.4350  177.0750  145.6260 O   0  0  0  0  0  0  0  0  0  0  0  0
  196.0700  176.7900  143.9880 O   0  0  0  0  0  0  0  0  0  0  0  0
  194.8820  174.0520  142.2350 C   0  0  0  0  0  3  0  0  0  0  0  0
  193.4680  171.6690  142.7650 C   0  0  0  0  0  2  0  0  0  0  0  0
  195.6400  172.5320  145.4190 N   0  0  0  0  0  0  0  0  0  0  0  0
  195.2020  173.2990  143.2940 C   0  0  0  0  0  0  0  0  0  0  0  0
  194.8460  171.5940  144.7870 O   0  0  0  0  0  0  0  0  0  0  0  0
  193.4270  172.3040  141.4360 N   0  0  0  0  0  0  0  0  0  0  0  0
  195.7970  173.7130  144.5600 C   0  0  1  0  0  3  0  0  0  0  0  0
  194.0460  173.4260  141.1900 C   0  0  0  0  0  3  0  0  0  0  0  0
  194.8430  171.8890  143.4070 C   0  0  1  0  0  3  0  0  0  0  0  0
  196.8150  170.5280  146.1400 C   0  0  0  0  0  1  0  0  0  0  0  0
  196.9600  171.9450  145.6230 C   0  0  0  0  0  2  0  0  0  0  0  0
  187.5400  176.1140  141.5610 O   0  0  0  0  0  0  0  0  0  0  0  0
  187.8160  175.1930  139.3530 C   0  0  0  0  0  3  0  0  0  0  0  0
  187.9630  175.0660  140.7370 C   0  0  0  0  0  0  0  0  0  0  0  0
  188.9630  172.8760  140.4140 C   0  0  0  0  0  3  0  0  0  0  0  0
  188.8250  173.0030  139.0250 C   0  0  0  0  0  0  0  0  0  0  0  0
  188.2450  174.1690  138.5010 C   0  0  0  0  0  3  0  0  0  0  0  0
  188.5380  173.9000  141.2650 C   0  0  0  0  0  3  0  0  0  0  0  0
  191.3370  171.0430  135.7000 C   0  0  0  0  0  1  0  0  0  0  0  0
  189.9480  169.8250  137.3630 C   0  0  0  0  0  2  0  0  0  0  0  0
  189.9180  170.7900  136.1840 C   0  0  1  0  0  3  0  0  0  0  0  0
  189.3220  172.0860  136.7050 C   0  0  0  0  0  2  0  0  0  0  0  0
  189.2720  171.9530  138.1500 N   0  0  0  0  0  0  0  0  0  0  0  0
  189.7000  170.6490  138.6140 C   0  0  0  0  0  2  0  0  0  0  0  0
  2  6  2  0  0  0  0
  2  9  1  0  0  0  0
  3  4  1  0  0  0  0
  4 13  1  0  0  0  0
  5  8  2  0  0  0  0
  6 16  1  0  0  0  0
  7 34  1  6  0  0  0
  7 11  1  0  0  0  0
  7  6  1  0  0  0  0
  8 10  2  0  0  0  0
  9  4  2  0  0  0  0
  9 12  1  0  0  0  0
 11 14  1  0  0  0  0
 12 15  1  0  0  0  0
 13  1  2  0  0  0  0
 14  5  1  0  0  0  0
 15  1  1  0  0  0  0
 16  5  1  0  0  0  0
 16 12  2  0  0  0  0
 17 18  1  0  0  0  0
 17 21  1  0  0  0  0
 18 20  2  0  0  0  0
 19 13  1  6  0  0  0
 20 19  1  0  0  0  0
 21 19  1  0  0  0  0
 22 17  2  0  0  0  0
 23 26  2  0  0  0  0
 25 33  1  0  0  0  0
 26 31  1  0  0  0  0
 26 29  1  0  0  0  0
 27 25  1  0  0  0  0
 28 24  1  0  0  0  0
 29 18  1  1  0  0  0
 29 25  1  0  0  0  0
 30 28  2  0  0  0  0
 30 23  1  0  0  0  0
 31 24  1  1  0  0  0
 31 27  1  0  0  0  0
 33 32  1  0  0  0  0
 35 36  1  0  0  0  0
 36 40  2  0  0  0  0
 36 34  1  0  0  0  0
 37 40  1  0  0  0  0
 38 37  2  0  0  0  0
 39 38  1  0  0  0  0
 39 35  2  0  0  0  0
 42 46  1  0  0  0  0
 43 41  1  1  0  0  0
 43 44  1  0  0  0  0
 43 42  1  0  0  0  0
 44 45  1  0  0  0  0
 45 46  1  0  0  0  0
 45 38  1  0  0  0  0
M  END
>  <MODEL>
7

>  <REMARK>
 VINA RESULT:      -8.2      3.247      8.318
  Name = 
  6 active torsions:
  status: ('A' for Active; 'I' for Inactive)
    1  A    between atoms: C_14  and  O_18
    2  A    between atoms: C_16  and  N_27
    3  A    between atoms: C_17  and  O_18
    4  A    between atoms: C_24  and  N_37
    5  A    between atoms: C_26  and  C_38
    6  A    between atoms: C_30  and  C_39
                            x       y       z     vdW  Elec       q    Type
                         _______ _______ _______ _____ _____    ______ ____

>  <TORSDO>
F 6

$$$$
=
 OpenBabel11042415383D

 46 53  0  0  1  0  0  0  0  0999 V2000
  188.5670  174.5360  139.9320 C   0  0  0  0  0  3  0  0  0  0  0  0
  190.3220  170.7920  141.2920 C   0  0  0  0  0  3  0  0  0  0  0  0
  188.5170  172.3440  142.9720 O   0  0  0  0  0  1  0  0  0  0  0  0
  188.8570  172.7850  141.6960 C   0  0  0  0  0  0  0  0  0  0  0  0
  191.7270  171.1290  137.8990 C   0  0  0  0  0  0  0  0  0  0  0  0
  191.1120  170.4090  140.2090 C   0  0  0  0  0  0  0  0  0  0  0  0
  191.8820  169.1250  140.0740 C   0  0  1  0  0  3  0  0  0  0  0  0
  191.7040  172.0190  136.9440 C   0  0  0  0  0  0  0  0  0  0  0  0
  189.7370  171.9970  140.9330 C   0  0  0  0  0  0  0  0  0  0  0  0
  191.6830  172.8640  136.0370 O   0  0  0  0  0  0  0  0  0  0  0  0
  192.9940  169.2800  139.0200 C   0  0  0  0  0  2  0  0  0  0  0  0
  190.1750  172.3210  139.5990 C   0  0  0  0  0  0  0  0  0  0  0  0
  188.3050  174.0070  141.2160 C   0  0  0  0  0  0  0  0  0  0  0  0
  192.4480  169.8260  137.6900 C   0  0  0  0  0  2  0  0  0  0  0  0
  189.6040  173.7180  138.8630 S   0  0  0  0  0  0  0  0  0  0  0  0
  191.0110  171.3190  139.1730 C   0  0  0  0  0  0  0  0  0  0  0  0
  187.3000  177.0410  142.3510 C   0  0  0  0  0  0  0  0  0  0  0  0
  188.0350  176.5480  143.5000 C   0  0  0  0  0  0  0  0  0  0  0  0
  187.4020  174.7780  142.1350 C   0  0  1  0  0  3  0  0  0  0  0  0
  188.1180  175.2270  143.3870 C   0  0  0  0  0  3  0  0  0  0  0  0
  186.9570  175.9880  141.5300 O   0  0  0  0  0  0  0  0  0  0  0  0
  187.0270  178.2480  142.0970 O   0  0  0  0  0  0  0  0  0  0  0  0
  190.7810  177.8590  143.5310 C   0  0  0  0  0  3  0  0  0  0  0  0
  191.8640  176.1350  145.4840 C   0  0  0  0  0  2  0  0  0  0  0  0
  188.3880  176.6110  145.9260 N   0  0  0  0  0  0  0  0  0  0  0  0
  190.0400  177.4740  144.5760 C   0  0  0  0  0  0  0  0  0  0  0  0
  189.6050  176.1880  146.4250 O   0  0  0  0  0  0  0  0  0  0  0  0
  192.7320  176.8860  144.5600 N   0  0  0  0  0  0  0  0  0  0  0  0
  188.5910  177.3330  144.6630 C   0  0  1  0  0  3  0  0  0  0  0  0
  192.2420  177.6570  143.6280 C   0  0  0  0  0  3  0  0  0  0  0  0
  190.6160  176.9610  145.8150 C   0  0  1  0  0  3  0  0  0  0  0  0
  186.3140  177.2810  147.0070 C   0  0  0  0  0  1  0  0  0  0  0  0
  187.8030  177.5400  146.8860 C   0  0  0  0  0  2  0  0  0  0  0  0
  192.4450  168.7540  141.3300 O   0  0  0  0  0  0  0  0  0  0  0  0
  194.2060  170.3790  141.5740 C   0  0  0  0  0  3  0  0  0  0  0  0
  193.1590  169.6440  142.1380 C   0  0  0  0  0  0  0  0  0  0  0  0
  193.5670  170.7310  144.2710 C   0  0  0  0  0  3  0  0  0  0  0  0
  194.6130  171.4750  143.7080 C   0  0  0  0  0  0  0  0  0  0  0  0
  194.9280  171.2890  142.3520 C   0  0  0  0  0  3  0  0  0  0  0  0
  192.8430  169.8240  143.4930 C   0  0  0  0  0  3  0  0  0  0  0  0
  195.3170  175.2920  146.1860 C   0  0  0  0  0  1  0  0  0  0  0  0
  196.8150  173.3100  146.1380 C   0  0  0  0  0  2  0  0  0  0  0  0
  196.2450  174.4600  145.3160 C   0  0  1  0  0  3  0  0  0  0  0  0
  195.4510  173.8280  144.1870 C   0  0  0  0  0  2  0  0  0  0  0  0
  195.3510  172.4160  144.5060 N   0  0  0  0  0  0  0  0  0  0  0  0
  196.0860  172.0520  145.7010 C   0  0  0  0  0  2  0  0  0  0  0  0
  1 13  2  0  0  0  0
  4  3  1  0  0  0  0
  5 16  1  0  0  0  0
  6  2  2  0  0  0  0
  7  6  1  0  0  0  0
  7 34  1  1  0  0  0
  8  5  2  0  0  0  0
  9  2  1  0  0  0  0
  9  4  2  0  0  0  0
 10  8  2  0  0  0  0
 11  7  1  0  0  0  0
 12  9  1  0  0  0  0
 13  4  1  0  0  0  0
 14  5  1  0  0  0  0
 14 11  1  0  0  0  0
 15 12  1  0  0  0  0
 15  1  1  0  0  0  0
 16 12  2  0  0  0  0
 16  6  1  0  0  0  0
 17 18  1  0  0  0  0
 19 13  1  6  0  0  0
 19 20  1  0  0  0  0
 20 18  2  0  0  0  0
 21 19  1  0  0  0  0
 21 17  1  0  0  0  0
 22 17  2  0  0  0  0
 23 30  1  0  0  0  0
 23 26  2  0  0  0  0
 25 27  1  0  0  0  0
 25 33  1  0  0  0  0
 26 29  1  0  0  0  0
 26 31  1  0  0  0  0
 28 24  1  0  0  0  0
 29 18  1  6  0  0  0
 29 25  1  0  0  0  0
 30 28  2  0  0  0  0
 31 24  1  6  0  0  0
 31 27  1  0  0  0  0
 33 32  1  0  0  0  0
 34 36  1  0  0  0  0
 35 36  2  0  0  0  0
 35 39  1  0  0  0  0
 36 40  1  0  0  0  0
 38 37  1  0  0  0  0
 38 45  1  0  0  0  0
 39 38  2  0  0  0  0
 40 37  2  0  0  0  0
 43 42  1  0  0  0  0
 43 41  1  1  0  0  0
 44 45  1  0  0  0  0
 44 43  1  0  0  0  0
 45 46  1  0  0  0  0
 46 42  1  0  0  0  0
M  END
>  <MODEL>
8

>  <REMARK>
 VINA RESULT:      -7.8      3.820      7.014
  Name = 
  6 active torsions:
  status: ('A' for Active; 'I' for Inactive)
    1  A    between atoms: C_14  and  O_18
    2  A    between atoms: C_16  and  N_27
    3  A    between atoms: C_17  and  O_18
    4  A    between atoms: C_24  and  N_37
    5  A    between atoms: C_26  and  C_38
    6  A    between atoms: C_30  and  C_39
                            x       y       z     vdW  Elec       q    Type
                         _______ _______ _______ _____ _____    ______ ____

>  <TORSDO>
F 6

$$$$
=
 OpenBabel11042415383D

 46 53  0  0  1  0  0  0  0  0999 V2000
  188.7960  176.3200  144.2250 C   0  0  0  0  0  3  0  0  0  0  0  0
  192.4550  174.4180  142.8320 C   0  0  0  0  0  3  0  0  0  0  0  0
  190.0100  174.3900  141.2490 O   0  0  0  0  0  1  0  0  0  0  0  0
  190.0440  175.0120  142.4950 C   0  0  0  0  0  0  0  0  0  0  0  0
  193.4790  175.7830  146.1010 C   0  0  0  0  0  0  0  0  0  0  0  0
  193.3450  174.6500  143.8810 C   0  0  0  0  0  0  0  0  0  0  0  0
  194.8060  174.3020  143.9070 C   0  0  1  0  0  3  0  0  0  0  0  0
  192.9020  176.4020  147.0960 C   0  0  0  0  0  0  0  0  0  0  0  0
  191.2510  174.9880  143.2150 C   0  0  0  0  0  0  0  0  0  0  0  0
  192.3560  176.9880  148.0420 O   0  0  0  0  0  0  0  0  0  0  0  0
  195.3140  174.2450  145.3600 C   0  0  0  0  0  2  0  0  0  0  0  0
  191.4410  175.5910  144.5100 C   0  0  0  0  0  0  0  0  0  0  0  0
  188.8670  175.6430  142.9860 C   0  0  0  0  0  0  0  0  0  0  0  0
  194.9600  175.5240  146.1380 C   0  0  0  0  0  2  0  0  0  0  0  0
  190.1610  176.4030  145.2350 S   0  0  0  0  0  0  0  0  0  0  0  0
  192.7430  175.3790  144.8900 C   0  0  0  0  0  0  0  0  0  0  0  0
  187.0580  176.9930  140.4540 C   0  0  0  0  0  0  0  0  0  0  0  0
  186.2470  177.3630  141.5990 C   0  0  0  0  0  0  0  0  0  0  0  0
  187.6280  175.5750  142.1400 C   0  0  1  0  0  3  0  0  0  0  0  0
  186.5740  176.5540  142.6000 C   0  0  0  0  0  3  0  0  0  0  0  0
  187.8980  175.9530  140.7940 O   0  0  0  0  0  0  0  0  0  0  0  0
  187.0430  177.5410  139.3160 O   0  0  0  0  0  0  0  0  0  0  0  0
  186.1280  179.4960  143.7650 C   0  0  0  0  0  3  0  0  0  0  0  0
  183.7920  178.4880  144.9850 C   0  0  0  0  0  2  0  0  0  0  0  0
  183.8450  177.8480  141.5080 N   0  0  0  0  0  0  0  0  0  0  0  0
  185.1250  179.0260  143.0160 C   0  0  0  0  0  0  0  0  0  0  0  0
  183.1430  177.9160  142.6960 O   0  0  0  0  0  0  0  0  0  0  0  0
  184.7260  179.3580  145.7220 N   0  0  0  0  0  0  0  0  0  0  0  0
  185.1830  178.4290  141.6860 C   0  0  1  0  0  3  0  0  0  0  0  0
  185.8290  179.7990  145.1810 C   0  0  0  0  0  3  0  0  0  0  0  0
  183.7570  178.8940  143.5070 C   0  0  1  0  0  3  0  0  0  0  0  0
  181.6530  178.3460  140.5810 C   0  0  0  0  0  1  0  0  0  0  0  0
  183.1360  178.6490  140.5150 C   0  0  0  0  0  2  0  0  0  0  0  0
  195.0270  173.0510  143.2620 O   0  0  0  0  0  0  0  0  0  0  0  0
  194.7880  172.1710  141.0320 C   0  0  0  0  0  3  0  0  0  0  0  0
  195.5040  172.9430  141.9520 C   0  0  0  0  0  0  0  0  0  0  0  0
  197.1190  173.4820  140.2190 C   0  0  0  0  0  3  0  0  0  0  0  0
  196.4000  172.7140  139.2910 C   0  0  0  0  0  0  0  0  0  0  0  0
  195.2320  172.0580  139.7100 C   0  0  0  0  0  3  0  0  0  0  0  0
  196.6750  173.5980  141.5390 C   0  0  0  0  0  3  0  0  0  0  0  0
  197.2420  170.6500  135.2620 C   0  0  0  0  0  1  0  0  0  0  0  0
  197.2440  173.1050  135.6510 C   0  0  0  0  0  2  0  0  0  0  0  0
  197.9400  171.7910  135.9850 C   0  0  1  0  0  3  0  0  0  0  0  0
  197.8020  171.6010  137.4850 C   0  0  0  0  0  2  0  0  0  0  0  0
  196.8520  172.6040  137.9310 N   0  0  0  0  0  0  0  0  0  0  0  0
  196.4250  173.4920  136.8690 C   0  0  0  0  0  2  0  0  0  0  0  0
  1 15  1  0  0  0  0
  2  9  1  0  0  0  0
  2  6  2  0  0  0  0
  3  4  1  0  0  0  0
  4 13  1  0  0  0  0
  4  9  2  0  0  0  0
  5 14  1  0  0  0  0
  5  8  2  0  0  0  0
  6  7  1  0  0  0  0
  6 16  1  0  0  0  0
  7 34  1  1  0  0  0
  7 11  1  0  0  0  0
  8 10  2  0  0  0  0
  9 12  1  0  0  0  0
 11 14  1  0  0  0  0
 12 16  2  0  0  0  0
 12 15  1  0  0  0  0
 13  1  2  0  0  0  0
 16  5  1  0  0  0  0
 17 21  1  0  0  0  0
 17 18  1  0  0  0  0
 18 20  2  0  0  0  0
 19 20  1  0  0  0  0
 19 13  1  1  0  0  0
 21 19  1  0  0  0  0
 22 17  2  0  0  0  0
 23 30  1  0  0  0  0
 24 28  1  0  0  0  0
 25 29  1  0  0  0  0
 25 27  1  0  0  0  0
 26 31  1  0  0  0  0
 26 23  2  0  0  0  0
 27 31  1  0  0  0  0
 29 18  1  1  0  0  0
 29 26  1  0  0  0  0
 30 28  2  0  0  0  0
 31 24  1  1  0  0  0
 33 32  1  0  0  0  0
 33 25  1  0  0  0  0
 35 36  1  0  0  0  0
 36 34  1  0  0  0  0
 37 40  1  0  0  0  0
 38 39  1  0  0  0  0
 38 37  2  0  0  0  0
 39 35  2  0  0  0  0
 40 36  2  0  0  0  0
 42 43  1  0  0  0  0
 42 46  1  0  0  0  0
 43 41  1  6  0  0  0
 43 44  1  0  0  0  0
 44 45  1  0  0  0  0
 45 38  1  0  0  0  0
 46 45  1  0  0  0  0
M  END
>  <MODEL>
9

>  <REMARK>
 VINA RESULT:      -7.6      2.396      4.019
  Name = 
  6 active torsions:
  status: ('A' for Active; 'I' for Inactive)
    1  A    between atoms: C_14  and  O_18
    2  A    between atoms: C_16  and  N_27
    3  A    between atoms: C_17  and  O_18
    4  A    between atoms: C_24  and  N_37
    5  A    between atoms: C_26  and  C_38
    6  A    between atoms: C_30  and  C_39
                            x       y       z     vdW  Elec       q    Type
                         _______ _______ _______ _____ _____    ______ ____

>  <TORSDO>
F 6

$$$$
