=
 OpenBabel11042414453D

 36 39  0  0  1  0  0  0  0  0999 V2000
  185.5120  178.0030  144.6550 C   0  0  0  0  0  0  0  0  0  0  0  0
  187.9360  175.3010  142.5500 C   0  0  0  0  0  3  0  0  0  0  0  0
  189.4230  175.1030  144.3990 N   0  0  0  0  0  0  0  0  0  0  0  0
  187.5120  176.5320  144.6140 C   0  0  0  0  0  0  0  0  0  0  0  0
  189.0840  174.7580  143.1300 C   0  0  0  0  0  0  0  0  0  0  0  0
  185.9860  176.7590  142.6480 N   0  0  0  0  0  0  0  0  0  0  0  0
  183.7140  179.0500  143.9590 N   0  0  0  0  0  0  0  0  0  0  0  0
  185.2500  177.5840  143.3190 C   0  0  0  0  0  0  0  0  0  0  0  0
  186.6720  177.4970  145.4460 C   0  0  0  0  0  2  0  0  0  0  0  0
  187.1510  176.1940  143.2760 C   0  0  0  0  0  0  0  0  0  0  0  0
  184.6160  178.8570  145.0270 N   0  0  0  0  0  0  0  0  0  0  0  0
  188.6700  175.9480  145.1620 C   0  0  0  0  0  0  0  0  0  0  0  0
  184.0670  178.3180  142.9450 C   0  0  0  0  0  0  0  0  0  0  0  0
  190.1130  177.2540  146.6390 N   0  0  0  0  0  2  0  0  0  0  0  0
  189.5870  174.9750  147.2810 C   0  0  0  0  0  2  0  0  0  0  0  0
  189.0730  176.2260  146.5890 C   0  0  2  0  0  3  0  0  0  0  0  0
  191.0780  175.1710  147.3600 C   0  0  0  0  0  2  0  0  0  0  0  0
  191.2700  176.6700  147.3180 C   0  0  2  0  0  3  0  0  0  0  0  0
  190.6040  178.4380  148.8550 N   0  0  0  0  0  1  0  0  0  0  0  0
  191.3720  177.2100  148.7380 C   0  0  0  0  0  2  0  0  0  0  0  0
  183.3550  178.2700  141.6620 C   0  0  0  0  0  0  0  0  0  0  0  0
  181.9250  178.2340  141.6360 N   0  0  0  0  0  2  0  0  0  0  0  0
  184.0100  178.2540  140.5840 O   0  0  0  0  0  0  0  0  0  0  0  0
  181.1630  178.2670  140.3920 C   0  0  0  0  0  2  0  0  0  0  0  0
  178.9500  178.9380  139.9270 O   0  0  0  0  0  0  0  0  0  0  0  0
  179.1430  177.6700  141.8950 C   0  0  0  0  0  1  0  0  0  0  0  0
  179.6980  178.3430  140.6880 C   0  0  0  0  0  0  0  0  0  0  0  0
  190.4330  174.0430  141.2640 N   0  0  0  0  0  0  0  0  0  0  0  0
  189.9120  173.7810  142.4180 C   0  0  0  0  0  3  0  0  0  0  0  0
  191.2360  173.0520  140.5600 C   0  0  0  0  0  2  0  0  0  0  0  0
  190.3770  172.2460  139.5900 C   0  0  0  0  0  2  0  0  0  0  0  0
  189.8530  174.3660  136.3830 C   0  0  0  0  0  1  0  0  0  0  0  0
  188.2850  173.9030  138.2760 C   0  0  0  0  0  1  0  0  0  0  0  0
  191.5050  172.3650  137.4980 O   0  0  0  0  0  0  0  0  0  0  0  0
  190.5270  172.7610  138.1880 C   0  0  0  0  0  0  0  0  0  0  0  0
  189.5670  173.6680  137.6270 N   0  0  0  0  0  0  0  0  0  0  0  0
  1 11  2  0  0  0  0
  1  9  1  0  0  0  0
  2  5  2  0  0  0  0
  2 10  1  0  0  0  0
  3 12  2  0  0  0  0
  4 12  1  0  0  0  0
  4  9  1  0  0  0  0
  5  3  1  0  0  0  0
  6 10  1  0  0  0  0
  6  8  2  0  0  0  0
  7 11  1  0  0  0  0
  8  1  1  0  0  0  0
 10  4  2  0  0  0  0
 13  8  1  0  0  0  0
 13  7  2  0  0  0  0
 14 18  1  0  0  0  0
 15 17  1  0  0  0  0
 16 12  1  6  0  0  0
 16 14  1  0  0  0  0
 16 15  1  0  0  0  0
 18 17  1  0  0  0  0
 18 20  1  1  0  0  0
 20 19  1  0  0  0  0
 21 13  1  0  0  0  0
 22 21  1  0  0  0  0
 23 21  2  0  0  0  0
 24 27  1  0  0  0  0
 24 22  1  0  0  0  0
 25 27  2  0  0  0  0
 27 26  1  0  0  0  0
 28 29  2  0  0  0  0
 29  5  1  0  0  0  0
 30 28  1  0  0  0  0
 31 30  1  0  0  0  0
 32 36  1  0  0  0  0
 34 35  2  0  0  0  0
 35 31  1  0  0  0  0
 36 35  1  0  0  0  0
 36 33  1  0  0  0  0
M  END
>  <MODEL>
1

>  <REMARK>
 VINA RESULT:      -7.4      0.000      0.000
  Name = 
  9 active torsions:
  status: ('A' for Active; 'I' for Inactive)
    1  A    between atoms: N_6  and  C_30
    2  A    between atoms: C_9  and  C_10
    3  A    between atoms: C_11  and  C_20
    4  A    between atoms: C_11  and  N_27
    5  A    between atoms: C_12  and  C_32
    6  A    between atoms: C_15  and  C_35
    7  A    between atoms: C_24  and  C_29
    8  A    between atoms: C_24  and  C_30
    9  A    between atoms: C_31  and  C_33
                            x       y       z     vdW  Elec       q    Type
                         _______ _______ _______ _____ _____    ______ ____

>  <TORSDO>
F 9

$$$$
=
 OpenBabel11042414453D

 36 39  0  0  1  0  0  0  0  0999 V2000
  185.5100  178.0120  144.7040 C   0  0  0  0  0  0  0  0  0  0  0  0
  187.9370  175.3140  142.5960 C   0  0  0  0  0  3  0  0  0  0  0  0
  189.4260  175.1180  144.4440 N   0  0  0  0  0  0  0  0  0  0  0  0
  187.5120  176.5440  144.6610 C   0  0  0  0  0  0  0  0  0  0  0  0
  189.0870  174.7730  143.1750 C   0  0  0  0  0  0  0  0  0  0  0  0
  185.9850  176.7700  142.6960 N   0  0  0  0  0  0  0  0  0  0  0  0
  183.7100  179.0570  144.0100 N   0  0  0  0  0  0  0  0  0  0  0  0
  185.2490  177.5930  143.3680 C   0  0  0  0  0  0  0  0  0  0  0  0
  186.6720  177.5060  145.4940 C   0  0  0  0  0  2  0  0  0  0  0  0
  187.1510  176.2050  143.3230 C   0  0  0  0  0  0  0  0  0  0  0  0
  184.6140  178.8640  145.0780 N   0  0  0  0  0  0  0  0  0  0  0  0
  188.6720  175.9610  145.2080 C   0  0  0  0  0  0  0  0  0  0  0  0
  184.0640  178.3250  142.9950 C   0  0  0  0  0  0  0  0  0  0  0  0
  190.1130  177.2690  146.6850 N   0  0  0  0  0  2  0  0  0  0  0  0
  189.5930  174.9880  147.3250 C   0  0  0  0  0  2  0  0  0  0  0  0
  189.0760  176.2390  146.6340 C   0  0  2  0  0  3  0  0  0  0  0  0
  191.0830  175.1870  147.4030 C   0  0  0  0  0  2  0  0  0  0  0  0
  191.2720  176.6870  147.3620 C   0  0  2  0  0  3  0  0  0  0  0  0
  190.6180  178.4610  148.8960 N   0  0  0  0  0  1  0  0  0  0  0  0
  191.3740  177.2260  148.7820 C   0  0  0  0  0  2  0  0  0  0  0  0
  183.3510  178.2770  141.7130 C   0  0  0  0  0  0  0  0  0  0  0  0
  181.9200  178.2860  141.6860 N   0  0  0  0  0  2  0  0  0  0  0  0
  184.0050  178.2210  140.6360 O   0  0  0  0  0  0  0  0  0  0  0  0
  181.1610  178.3210  140.4420 C   0  0  0  0  0  2  0  0  0  0  0  0
  179.3400  177.6800  141.7980 O   0  0  0  0  0  0  0  0  0  0  0  0
  178.6880  178.5210  139.7030 C   0  0  0  0  0  1  0  0  0  0  0  0
  179.7030  178.1320  140.7230 C   0  0  0  0  0  0  0  0  0  0  0  0
  191.1960  173.9420  142.3530 N   0  0  0  0  0  0  0  0  0  0  0  0
  189.9150  173.7970  142.4620 C   0  0  0  0  0  3  0  0  0  0  0  0
  192.0010  172.9730  141.6220 C   0  0  0  0  0  2  0  0  0  0  0  0
  193.4880  173.1890  141.8890 C   0  0  0  0  0  2  0  0  0  0  0  0
  194.3410  174.3370  145.4960 C   0  0  0  0  0  1  0  0  0  0  0  0
  194.8470  175.4270  143.3020 C   0  0  0  0  0  1  0  0  0  0  0  0
  193.5680  172.0760  143.9900 O   0  0  0  0  0  0  0  0  0  0  0  0
  193.7800  173.1470  143.3600 C   0  0  0  0  0  0  0  0  0  0  0  0
  194.3130  174.2920  144.0420 N   0  0  0  0  0  0  0  0  0  0  0  0
  1 11  2  0  0  0  0
  1  9  1  0  0  0  0
  2  5  2  0  0  0  0
  2 10  1  0  0  0  0
  3 12  2  0  0  0  0
  4 12  1  0  0  0  0
  4  9  1  0  0  0  0
  5  3  1  0  0  0  0
  6 10  1  0  0  0  0
  6  8  2  0  0  0  0
  7 11  1  0  0  0  0
  8  1  1  0  0  0  0
 10  4  2  0  0  0  0
 13  8  1  0  0  0  0
 13  7  2  0  0  0  0
 14 18  1  0  0  0  0
 15 17  1  0  0  0  0
 16 12  1  6  0  0  0
 16 14  1  0  0  0  0
 16 15  1  0  0  0  0
 18 17  1  0  0  0  0
 18 20  1  1  0  0  0
 20 19  1  0  0  0  0
 21 13  1  0  0  0  0
 22 21  1  0  0  0  0
 23 21  2  0  0  0  0
 24 27  1  0  0  0  0
 24 22  1  0  0  0  0
 26 27  1  0  0  0  0
 27 25  2  0  0  0  0
 28 29  2  0  0  0  0
 29  5  1  0  0  0  0
 30 31  1  0  0  0  0
 30 28  1  0  0  0  0
 31 35  1  0  0  0  0
 33 36  1  0  0  0  0
 35 34  2  0  0  0  0
 35 36  1  0  0  0  0
 36 32  1  0  0  0  0
M  END
>  <MODEL>
2

>  <REMARK>
 VINA RESULT:      -7.3      2.094      3.128
  Name = 
  9 active torsions:
  status: ('A' for Active; 'I' for Inactive)
    1  A    between atoms: N_6  and  C_30
    2  A    between atoms: C_9  and  C_10
    3  A    between atoms: C_11  and  C_20
    4  A    between atoms: C_11  and  N_27
    5  A    between atoms: C_12  and  C_32
    6  A    between atoms: C_15  and  C_35
    7  A    between atoms: C_24  and  C_29
    8  A    between atoms: C_24  and  C_30
    9  A    between atoms: C_31  and  C_33
                            x       y       z     vdW  Elec       q    Type
                         _______ _______ _______ _____ _____    ______ ____

>  <TORSDO>
F 9

$$$$
=
 OpenBabel11042414453D

 36 39  0  0  1  0  0  0  0  0999 V2000
  186.8440  176.8050  141.2110 C   0  0  0  0  0  0  0  0  0  0  0  0
  189.4620  175.0940  144.0090 C   0  0  0  0  0  3  0  0  0  0  0  0
  190.4160  173.6850  142.3420 N   0  0  0  0  0  0  0  0  0  0  0  0
  188.6800  175.2070  141.6990 C   0  0  0  0  0  0  0  0  0  0  0  0
  190.3710  174.1030  143.6340 C   0  0  1  0  0  3  0  0  0  0  0  0
  187.6630  176.6470  143.4700 N   0  0  0  0  0  0  0  0  0  0  0  0
  185.2840  178.3110  141.5450 N   0  0  0  0  0  0  0  0  0  0  0  0
  186.8710  177.1650  142.5890 C   0  0  0  0  0  0  0  0  0  0  0  0
  187.7700  175.7920  140.6240 C   0  0  0  0  0  3  0  0  0  0  0  0
  188.6080  175.6450  143.0550 C   0  0  0  0  0  0  0  0  0  0  0  0
  185.9200  177.4730  140.6030 N   0  0  0  0  0  0  0  0  0  0  0  0
  189.6230  174.2150  141.3660 C   0  0  0  0  0  0  0  0  0  0  0  0
  185.8220  178.1450  142.7170 C   0  0  0  0  0  0  0  0  0  0  0  0
  189.0150  172.5270  139.7080 N   0  0  0  0  0  2  0  0  0  0  0  0
  191.2390  173.4880  139.5940 C   0  0  0  0  0  2  0  0  0  0  0  0
  189.7830  173.7500  139.9400 C   0  0  2  0  0  3  0  0  0  0  0  0
  191.3550  171.9880  139.5580 C   0  0  0  0  0  2  0  0  0  0  0  0
  189.9560  171.5020  139.2560 C   0  0  2  0  0  3  0  0  0  0  0  0
  189.7050  169.8580  137.4760 N   0  0  0  0  0  1  0  0  0  0  0  0
  189.8080  171.2800  137.7560 C   0  0  0  0  0  2  0  0  0  0  0  0
  185.4070  178.8560  143.9330 C   0  0  0  0  0  0  0  0  0  0  0  0
  184.7370  178.1520  144.9820 N   0  0  0  0  0  2  0  0  0  0  0  0
  185.6400  180.0910  144.0450 O   0  0  0  0  0  0  0  0  0  0  0  0
  184.3740  178.7870  146.2440 C   0  0  0  0  0  2  0  0  0  0  0  0
  185.9300  179.6460  147.7950 O   0  0  0  0  0  0  0  0  0  0  0  0
  186.0630  177.3140  147.5380 C   0  0  0  0  0  1  0  0  0  0  0  0
  185.4950  178.6560  147.2280 C   0  0  0  0  0  0  0  0  0  0  0  0
  192.5920  173.7330  144.4970 N   0  0  0  0  0  0  0  0  0  0  0  0
  191.3180  173.5310  144.5950 C   0  0  0  0  0  3  0  0  0  0  0  0
  193.5210  173.1390  145.4490 C   0  0  0  0  0  2  0  0  0  0  0  0
  194.5890  174.1450  145.8680 C   0  0  0  0  0  2  0  0  0  0  0  0
  196.3830  176.5950  143.4520 C   0  0  0  0  0  1  0  0  0  0  0  0
  194.6610  177.0450  145.2080 C   0  0  0  0  0  1  0  0  0  0  0  0
  195.8060  173.8570  143.8440 O   0  0  0  0  0  0  0  0  0  0  0  0
  195.3220  174.6770  144.6710 C   0  0  0  0  0  0  0  0  0  0  0  0
  195.4550  176.0890  144.4510 N   0  0  0  0  0  0  0  0  0  0  0  0
  1  8  1  0  0  0  0
  3  5  1  0  0  0  0
  4 10  1  0  0  0  0
  5  2  1  0  0  0  0
  5 29  1  6  0  0  0
  7 13  2  0  0  0  0
  8 13  1  0  0  0  0
  8  6  2  0  0  0  0
  9  1  1  0  0  0  0
  9  4  2  0  0  0  0
 10  6  1  0  0  0  0
 10  2  2  0  0  0  0
 11  1  2  0  0  0  0
 11  7  1  0  0  0  0
 12  4  1  0  0  0  0
 12  3  2  0  0  0  0
 13 21  1  0  0  0  0
 14 16  1  0  0  0  0
 15 16  1  0  0  0  0
 16 12  1  1  0  0  0
 17 15  1  0  0  0  0
 18 20  1  6  0  0  0
 18 17  1  0  0  0  0
 18 14  1  0  0  0  0
 19 20  1  0  0  0  0
 21 23  2  0  0  0  0
 21 22  1  0  0  0  0
 22 24  1  0  0  0  0
 24 27  1  0  0  0  0
 27 26  1  0  0  0  0
 27 25  2  0  0  0  0
 28 29  2  0  0  0  0
 28 30  1  0  0  0  0
 30 31  1  0  0  0  0
 32 36  1  0  0  0  0
 34 35  2  0  0  0  0
 35 31  1  0  0  0  0
 36 35  1  0  0  0  0
 36 33  1  0  0  0  0
M  END
>  <MODEL>
3

>  <REMARK>
 VINA RESULT:      -7.1      3.589      6.928
  Name = 
  9 active torsions:
  status: ('A' for Active; 'I' for Inactive)
    1  A    between atoms: N_6  and  C_30
    2  A    between atoms: C_9  and  C_10
    3  A    between atoms: C_11  and  C_20
    4  A    between atoms: C_11  and  N_27
    5  A    between atoms: C_12  and  C_32
    6  A    between atoms: C_15  and  C_35
    7  A    between atoms: C_24  and  C_29
    8  A    between atoms: C_24  and  C_30
    9  A    between atoms: C_31  and  C_33
                            x       y       z     vdW  Elec       q    Type
                         _______ _______ _______ _____ _____    ______ ____

>  <TORSDO>
F 9

$$$$
=
 OpenBabel11042414453D

 36 39  0  0  1  0  0  0  0  0999 V2000
  185.4250  178.0830  144.2060 C   0  0  0  0  0  0  0  0  0  0  0  0
  187.5640  175.3630  141.8320 C   0  0  0  0  0  3  0  0  0  0  0  0
  189.2840  175.1940  143.4710 N   0  0  0  0  0  0  0  0  0  0  0  0
  187.4100  176.6190  143.9190 C   0  0  0  0  0  0  0  0  0  0  0  0
  188.7820  174.8310  142.2620 C   0  0  0  0  0  0  0  0  0  0  0  0
  185.6360  176.8150  142.1700 N   0  0  0  0  0  0  0  0  0  0  0  0
  183.5460  179.1140  143.7420 N   0  0  0  0  0  0  0  0  0  0  0  0
  184.9920  177.6460  142.9210 C   0  0  0  0  0  0  0  0  0  0  0  0
  186.6830  177.5910  144.8430 C   0  0  0  0  0  2  0  0  0  0  0  0
  186.8770  176.2620  142.6450 C   0  0  0  0  0  0  0  0  0  0  0  0
  184.5830  178.9380  144.6830 N   0  0  0  0  0  0  0  0  0  0  0  0
  188.6340  176.0460  144.3160 C   0  0  0  0  0  0  0  0  0  0  0  0
  183.7650  178.3700  142.6990 C   0  0  0  0  0  0  0  0  0  0  0  0
  190.6070  175.8800  145.7490 N   0  0  0  0  0  2  0  0  0  0  0  0
  188.4230  175.6860  146.7870 C   0  0  0  0  0  2  0  0  0  0  0  0
  189.2210  176.3430  145.6730 C   0  0  2  0  0  3  0  0  0  0  0  0
  189.2790  174.5320  147.2350 C   0  0  0  0  0  2  0  0  0  0  0  0
  190.6880  174.9300  146.8590 C   0  0  2  0  0  3  0  0  0  0  0  0
  192.4410  176.4500  147.5990 N   0  0  0  0  0  1  0  0  0  0  0  0
  191.3690  175.5810  148.0550 C   0  0  0  0  0  2  0  0  0  0  0  0
  182.8900  178.3030  141.5220 C   0  0  0  0  0  0  0  0  0  0  0  0
  181.4690  178.2840  141.6850 N   0  0  0  0  0  2  0  0  0  0  0  0
  183.3970  178.2560  140.3680 O   0  0  0  0  0  0  0  0  0  0  0  0
  180.5510  178.2990  140.5520 C   0  0  0  0  0  2  0  0  0  0  0  0
  178.7820  177.2770  141.7330 O   0  0  0  0  0  0  0  0  0  0  0  0
  178.1620  179.2880  140.6870 C   0  0  0  0  0  1  0  0  0  0  0  0
  179.1360  178.2150  141.0340 C   0  0  0  0  0  0  0  0  0  0  0  0
  189.3450  173.7540  140.1790 N   0  0  0  0  0  0  0  0  0  0  0  0
  189.5130  173.8480  141.4590 C   0  0  0  0  0  3  0  0  0  0  0  0
  190.0650  172.7560  139.4000 C   0  0  0  0  0  2  0  0  0  0  0  0
  191.3220  172.2960  140.1320 C   0  0  0  0  0  2  0  0  0  0  0  0
  191.0500  168.7660  141.7190 C   0  0  0  0  0  1  0  0  0  0  0  0
  191.5340  170.9740  142.7880 C   0  0  0  0  0  1  0  0  0  0  0  0
  191.4010  170.0890  139.2470 O   0  0  0  0  0  0  0  0  0  0  0  0
  191.3370  170.8030  140.2840 C   0  0  0  0  0  0  0  0  0  0  0  0
  191.3040  170.1920  141.5820 N   0  0  0  0  0  0  0  0  0  0  0  0
  1 11  2  0  0  0  0
  1  9  1  0  0  0  0
  2  5  2  0  0  0  0
  2 10  1  0  0  0  0
  3 12  2  0  0  0  0
  4 12  1  0  0  0  0
  4  9  1  0  0  0  0
  5  3  1  0  0  0  0
  6 10  1  0  0  0  0
  6  8  2  0  0  0  0
  7 11  1  0  0  0  0
  8  1  1  0  0  0  0
 10  4  2  0  0  0  0
 13  8  1  0  0  0  0
 13  7  2  0  0  0  0
 14 18  1  0  0  0  0
 15 17  1  0  0  0  0
 16 12  1  6  0  0  0
 16 14  1  0  0  0  0
 16 15  1  0  0  0  0
 18 17  1  0  0  0  0
 18 20  1  1  0  0  0
 19 20  1  0  0  0  0
 21 22  1  0  0  0  0
 21 13  1  0  0  0  0
 23 21  2  0  0  0  0
 24 27  1  0  0  0  0
 24 22  1  0  0  0  0
 26 27  1  0  0  0  0
 27 25  2  0  0  0  0
 28 29  2  0  0  0  0
 29  5  1  0  0  0  0
 30 31  1  0  0  0  0
 30 28  1  0  0  0  0
 31 35  1  0  0  0  0
 34 35  2  0  0  0  0
 35 36  1  0  0  0  0
 36 32  1  0  0  0  0
 36 33  1  0  0  0  0
M  END
>  <MODEL>
4

>  <REMARK>
 VINA RESULT:      -6.9      1.564      2.356
  Name = 
  9 active torsions:
  status: ('A' for Active; 'I' for Inactive)
    1  A    between atoms: N_6  and  C_30
    2  A    between atoms: C_9  and  C_10
    3  A    between atoms: C_11  and  C_20
    4  A    between atoms: C_11  and  N_27
    5  A    between atoms: C_12  and  C_32
    6  A    between atoms: C_15  and  C_35
    7  A    between atoms: C_24  and  C_29
    8  A    between atoms: C_24  and  C_30
    9  A    between atoms: C_31  and  C_33
                            x       y       z     vdW  Elec       q    Type
                         _______ _______ _______ _____ _____    ______ ____

>  <TORSDO>
F 9

$$$$
=
 OpenBabel11042414453D

 36 39  0  0  1  0  0  0  0  0999 V2000
  192.1710  176.3980  145.9590 C   0  0  0  0  0  0  0  0  0  0  0  0
  190.3220  174.6730  142.6110 C   0  0  0  0  0  3  0  0  0  0  0  0
  188.2380  175.6810  143.1690 N   0  0  0  0  0  0  0  0  0  0  0  0
  190.1280  176.1020  144.5800 C   0  0  0  0  0  0  0  0  0  0  0  0
  188.9700  174.8920  142.3400 C   0  0  0  0  0  0  0  0  0  0  0  0
  192.2960  175.0020  144.0010 N   0  0  0  0  0  0  0  0  0  0  0  0
  194.2400  176.1580  146.6500 N   0  0  0  0  0  0  0  0  0  0  0  0
  192.8460  175.5500  145.0350 C   0  0  0  0  0  0  0  0  0  0  0  0
  190.7340  176.7740  145.8080 C   0  0  0  0  0  2  0  0  0  0  0  0
  190.9070  175.2620  143.7290 C   0  0  0  0  0  0  0  0  0  0  0  0
  192.9830  176.7520  146.8990 N   0  0  0  0  0  0  0  0  0  0  0  0
  188.7720  176.3050  144.2580 C   0  0  0  0  0  0  0  0  0  0  0  0
  194.1830  175.4450  145.5640 C   0  0  0  0  0  0  0  0  0  0  0  0
  187.0890  176.4550  146.0230 N   0  0  0  0  0  2  0  0  0  0  0  0
  187.0020  178.0780  144.2220 C   0  0  0  0  0  2  0  0  0  0  0  0
  187.9120  177.2240  145.0890 C   0  0  2  0  0  3  0  0  0  0  0  0
  185.6350  177.4730  144.3990 C   0  0  0  0  0  2  0  0  0  0  0  0
  185.6910  176.7830  145.7430 C   0  0  2  0  0  3  0  0  0  0  0  0
  184.0870  178.5410  146.2620 N   0  0  0  0  0  1  0  0  0  0  0  0
  185.1470  177.7160  146.8170 C   0  0  0  0  0  2  0  0  0  0  0  0
  195.3080  174.6860  145.0050 C   0  0  0  0  0  0  0  0  0  0  0  0
  196.1180  173.8720  145.8580 N   0  0  0  0  0  2  0  0  0  0  0  0
  195.5600  174.7600  143.7710 O   0  0  0  0  0  0  0  0  0  0  0  0
  197.1970  173.0340  145.3460 C   0  0  0  0  0  2  0  0  0  0  0  0
  196.2770  171.4020  143.9120 O   0  0  0  0  0  0  0  0  0  0  0  0
  196.6880  170.6060  146.0850 C   0  0  0  0  0  1  0  0  0  0  0  0
  196.6820  171.6640  145.0350 C   0  0  0  0  0  0  0  0  0  0  0  0
  188.9770  173.5880  140.3120 N   0  0  0  0  0  0  0  0  0  0  0  0
  188.3280  174.3290  141.1490 C   0  0  0  0  0  3  0  0  0  0  0  0
  188.3280  173.0550  139.1220 C   0  0  0  0  0  2  0  0  0  0  0  0
  188.2060  174.1260  138.0420 C   0  0  0  0  0  2  0  0  0  0  0  0
  190.5130  174.8400  135.0050 C   0  0  0  0  0  1  0  0  0  0  0  0
  188.2240  175.7050  135.5200 C   0  0  0  0  0  1  0  0  0  0  0  0
  190.1130  173.0290  137.1360 O   0  0  0  0  0  0  0  0  0  0  0  0
  189.2750  173.9620  137.0010 C   0  0  0  0  0  0  0  0  0  0  0  0
  189.3360  174.8280  135.8590 N   0  0  0  0  0  0  0  0  0  0  0  0
  1 11  2  0  0  0  0
  2 10  1  0  0  0  0
  3 12  2  0  0  0  0
  4  9  1  0  0  0  0
  5  2  2  0  0  0  0
  5  3  1  0  0  0  0
  6  8  2  0  0  0  0
  7 11  1  0  0  0  0
  8 13  1  0  0  0  0
  8  1  1  0  0  0  0
  9  1  1  0  0  0  0
 10  6  1  0  0  0  0
 10  4  2  0  0  0  0
 12  4  1  0  0  0  0
 13  7  2  0  0  0  0
 15 17  1  0  0  0  0
 15 16  1  0  0  0  0
 16 12  1  6  0  0  0
 16 14  1  0  0  0  0
 17 18  1  0  0  0  0
 18 14  1  0  0  0  0
 18 20  1  1  0  0  0
 19 20  1  0  0  0  0
 21 13  1  0  0  0  0
 21 22  1  0  0  0  0
 23 21  2  0  0  0  0
 24 22  1  0  0  0  0
 25 27  2  0  0  0  0
 27 24  1  0  0  0  0
 27 26  1  0  0  0  0
 28 29  2  0  0  0  0
 29  5  1  0  0  0  0
 30 28  1  0  0  0  0
 31 30  1  0  0  0  0
 32 36  1  0  0  0  0
 33 36  1  0  0  0  0
 35 34  2  0  0  0  0
 35 31  1  0  0  0  0
 36 35  1  0  0  0  0
M  END
>  <MODEL>
5

>  <REMARK>
 VINA RESULT:      -6.8      3.831      8.762
  Name = 
  9 active torsions:
  status: ('A' for Active; 'I' for Inactive)
    1  A    between atoms: N_6  and  C_30
    2  A    between atoms: C_9  and  C_10
    3  A    between atoms: C_11  and  C_20
    4  A    between atoms: C_11  and  N_27
    5  A    between atoms: C_12  and  C_32
    6  A    between atoms: C_15  and  C_35
    7  A    between atoms: C_24  and  C_29
    8  A    between atoms: C_24  and  C_30
    9  A    between atoms: C_31  and  C_33
                            x       y       z     vdW  Elec       q    Type
                         _______ _______ _______ _____ _____    ______ ____

>  <TORSDO>
F 9

$$$$
=
 OpenBabel11042414453D

 36 39  0  0  1  0  0  0  0  0999 V2000
  190.9290  176.5970  146.2280 C   0  0  0  0  0  0  0  0  0  0  0  0
  189.6240  175.3070  142.4540 C   0  0  0  0  0  3  0  0  0  0  0  0
  187.5990  176.5420  142.6670 N   0  0  0  0  0  0  0  0  0  0  0  0
  189.1940  176.6400  144.4530 C   0  0  0  0  0  0  0  0  0  0  0  0
  188.3910  175.7120  141.9390 C   0  0  0  0  0  0  0  0  0  0  0  0
  191.2930  175.3040  144.2300 N   0  0  0  0  0  0  0  0  0  0  0  0
  192.7690  176.0570  147.2930 N   0  0  0  0  0  0  0  0  0  0  0  0
  191.6780  175.7200  145.3920 C   0  0  0  0  0  0  0  0  0  0  0  0
  189.6070  177.1620  145.8250 C   0  0  0  0  0  2  0  0  0  0  0  0
  190.0300  175.7550  143.7090 C   0  0  0  0  0  0  0  0  0  0  0  0
  191.5650  176.7930  147.3350 N   0  0  0  0  0  0  0  0  0  0  0  0
  187.9650  177.0330  143.8860 C   0  0  0  0  0  0  0  0  0  0  0  0
  192.8560  175.4170  146.1650 C   0  0  0  0  0  0  0  0  0  0  0  0
  186.1000  177.2990  145.4410 N   0  0  0  0  0  2  0  0  0  0  0  0
  186.3050  178.8910  143.6230 C   0  0  0  0  0  2  0  0  0  0  0  0
  187.0630  178.0090  144.6000 C   0  0  2  0  0  3  0  0  0  0  0  0
  184.8970  178.3590  143.6470 C   0  0  0  0  0  2  0  0  0  0  0  0
  184.7620  177.6910  144.9970 C   0  0  2  0  0  3  0  0  0  0  0  0
  184.6390  178.3890  147.3270 N   0  0  0  0  0  1  0  0  0  0  0  0
  184.1470  178.6690  145.9880 C   0  0  0  0  0  2  0  0  0  0  0  0
  193.9770  174.5510  145.7810 C   0  0  0  0  0  0  0  0  0  0  0  0
  195.2990  175.0890  145.6830 N   0  0  0  0  0  2  0  0  0  0  0  0
  193.7680  173.3320  145.5330 O   0  0  0  0  0  0  0  0  0  0  0  0
  196.4610  174.2600  145.3850 C   0  0  0  0  0  2  0  0  0  0  0  0
  197.5160  173.7060  143.3490 O   0  0  0  0  0  0  0  0  0  0  0  0
  196.8300  175.9500  143.4600 C   0  0  0  0  0  1  0  0  0  0  0  0
  196.9830  174.5780  144.0180 C   0  0  0  0  0  0  0  0  0  0  0  0
  188.6370  174.4810  139.8810 N   0  0  0  0  0  0  0  0  0  0  0  0
  187.9470  175.3020  140.6050 C   0  0  0  0  0  3  0  0  0  0  0  0
  188.1920  174.1010  138.5470 C   0  0  0  0  0  2  0  0  0  0  0  0
  189.3420  173.5070  137.7380 C   0  0  0  0  0  2  0  0  0  0  0  0
  191.7720  171.4360  139.9420 C   0  0  0  0  0  1  0  0  0  0  0  0
  192.1650  173.5550  138.6740 C   0  0  0  0  0  1  0  0  0  0  0  0
  189.3160  171.2730  138.5560 O   0  0  0  0  0  0  0  0  0  0  0  0
  189.9650  172.3500  138.4620 C   0  0  0  0  0  0  0  0  0  0  0  0
  191.2830  172.4500  139.0210 N   0  0  0  0  0  0  0  0  0  0  0  0
  1 11  2  0  0  0  0
  2 10  1  0  0  0  0
  3 12  2  0  0  0  0
  4  9  1  0  0  0  0
  5  2  2  0  0  0  0
  5  3  1  0  0  0  0
  6  8  2  0  0  0  0
  7 11  1  0  0  0  0
  8 13  1  0  0  0  0
  8  1  1  0  0  0  0
  9  1  1  0  0  0  0
 10  6  1  0  0  0  0
 10  4  2  0  0  0  0
 12  4  1  0  0  0  0
 13  7  2  0  0  0  0
 15 17  1  0  0  0  0
 15 16  1  0  0  0  0
 16 12  1  6  0  0  0
 16 14  1  0  0  0  0
 17 18  1  0  0  0  0
 18 14  1  0  0  0  0
 18 20  1  1  0  0  0
 20 19  1  0  0  0  0
 21 13  1  0  0  0  0
 22 21  1  0  0  0  0
 23 21  2  0  0  0  0
 24 22  1  0  0  0  0
 25 27  2  0  0  0  0
 26 27  1  0  0  0  0
 27 24  1  0  0  0  0
 28 29  2  0  0  0  0
 29  5  1  0  0  0  0
 30 28  1  0  0  0  0
 31 35  1  0  0  0  0
 31 30  1  0  0  0  0
 33 36  1  0  0  0  0
 35 34  2  0  0  0  0
 35 36  1  0  0  0  0
 36 32  1  0  0  0  0
M  END
>  <MODEL>
6

>  <REMARK>
 VINA RESULT:      -6.8      3.628      8.452
  Name = 
  9 active torsions:
  status: ('A' for Active; 'I' for Inactive)
    1  A    between atoms: N_6  and  C_30
    2  A    between atoms: C_9  and  C_10
    3  A    between atoms: C_11  and  C_20
    4  A    between atoms: C_11  and  N_27
    5  A    between atoms: C_12  and  C_32
    6  A    between atoms: C_15  and  C_35
    7  A    between atoms: C_24  and  C_29
    8  A    between atoms: C_24  and  C_30
    9  A    between atoms: C_31  and  C_33
                            x       y       z     vdW  Elec       q    Type
                         _______ _______ _______ _____ _____    ______ ____

>  <TORSDO>
F 9

$$$$
=
 OpenBabel11042414453D

 36 39  0  0  1  0  0  0  0  0999 V2000
  188.0230  176.8290  145.8160 C   0  0  0  0  0  0  0  0  0  0  0  0
  188.4730  175.0780  142.0290 C   0  0  0  0  0  3  0  0  0  0  0  0
  190.6050  174.1990  142.6240 N   0  0  0  0  0  0  0  0  0  0  0  0
  189.3900  175.4620  144.2580 C   0  0  0  0  0  0  0  0  0  0  0  0
  189.6190  174.3510  141.7020 C   0  0  0  0  0  0  0  0  0  0  0  0
  187.1740  176.4120  143.6020 N   0  0  0  0  0  0  0  0  0  0  0  0
  186.3750  178.0730  146.5570 N   0  0  0  0  0  0  0  0  0  0  0  0
  187.0550  176.9360  144.7770 C   0  0  0  0  0  0  0  0  0  0  0  0
  189.2920  176.0560  145.6590 C   0  0  0  0  0  2  0  0  0  0  0  0
  188.3530  175.6450  143.2960 C   0  0  0  0  0  0  0  0  0  0  0  0
  187.6270  177.4910  146.8520 N   0  0  0  0  0  0  0  0  0  0  0  0
  190.5200  174.7070  143.8870 C   0  0  0  0  0  0  0  0  0  0  0  0
  186.0200  177.7650  145.3440 C   0  0  0  0  0  0  0  0  0  0  0  0
  192.7160  175.3940  144.7090 N   0  0  0  0  0  2  0  0  0  0  0  0
  192.1800  173.0280  144.7260 C   0  0  0  0  0  2  0  0  0  0  0  0
  191.6250  174.4340  144.8780 C   0  0  2  0  0  3  0  0  0  0  0  0
  193.5180  173.2190  144.0620 C   0  0  0  0  0  2  0  0  0  0  0  0
  193.9300  174.6270  144.4280 C   0  0  2  0  0  3  0  0  0  0  0  0
  194.6080  175.7850  146.4610 N   0  0  0  0  0  1  0  0  0  0  0  0
  194.8240  174.5910  145.6610 C   0  0  0  0  0  2  0  0  0  0  0  0
  184.7730  178.2010  144.7040 C   0  0  0  0  0  0  0  0  0  0  0  0
  184.6310  178.1220  143.2830 N   0  0  0  0  0  2  0  0  0  0  0  0
  183.8320  178.6510  145.4130 O   0  0  0  0  0  0  0  0  0  0  0  0
  183.3880  178.4650  142.6010 C   0  0  0  0  0  2  0  0  0  0  0  0
  182.5140  177.9890  140.4620 O   0  0  0  0  0  0  0  0  0  0  0  0
  184.8550  178.1930  140.4850 C   0  0  0  0  0  1  0  0  0  0  0  0
  183.5130  178.1910  141.1340 C   0  0  0  0  0  0  0  0  0  0  0  0
  189.1180  172.6200  140.1000 N   0  0  0  0  0  0  0  0  0  0  0  0
  189.7650  173.7000  140.3970 C   0  0  0  0  0  3  0  0  0  0  0  0
  189.2910  171.9740  138.8050 C   0  0  0  0  0  2  0  0  0  0  0  0
  190.6450  171.2750  138.7230 C   0  0  0  0  0  2  0  0  0  0  0  0
  190.8070  168.5320  141.4620 C   0  0  0  0  0  1  0  0  0  0  0  0
  191.9100  170.7740  141.3680 C   0  0  0  0  0  1  0  0  0  0  0  0
  190.1260  168.9530  138.7530 O   0  0  0  0  0  0  0  0  0  0  0  0
  190.5970  169.9330  139.3920 C   0  0  0  0  0  0  0  0  0  0  0  0
  191.0960  169.7520  140.7260 N   0  0  0  0  0  0  0  0  0  0  0  0
  1 11  2  0  0  0  0
  2 10  1  0  0  0  0
  3 12  2  0  0  0  0
  4  9  1  0  0  0  0
  5  2  2  0  0  0  0
  5  3  1  0  0  0  0
  6  8  2  0  0  0  0
  7 11  1  0  0  0  0
  8 13  1  0  0  0  0
  8  1  1  0  0  0  0
  9  1  1  0  0  0  0
 10  6  1  0  0  0  0
 10  4  2  0  0  0  0
 12  4  1  0  0  0  0
 13  7  2  0  0  0  0
 14 16  1  0  0  0  0
 15 16  1  0  0  0  0
 16 12  1  6  0  0  0
 17 18  1  0  0  0  0
 17 15  1  0  0  0  0
 18 14  1  0  0  0  0
 18 20  1  1  0  0  0
 20 19  1  0  0  0  0
 21 13  1  0  0  0  0
 21 23  2  0  0  0  0
 22 21  1  0  0  0  0
 24 22  1  0  0  0  0
 25 27  2  0  0  0  0
 26 27  1  0  0  0  0
 27 24  1  0  0  0  0
 28 29  2  0  0  0  0
 29  5  1  0  0  0  0
 30 28  1  0  0  0  0
 31 30  1  0  0  0  0
 31 35  1  0  0  0  0
 34 35  2  0  0  0  0
 35 36  1  0  0  0  0
 36 33  1  0  0  0  0
 36 32  1  0  0  0  0
M  END
>  <MODEL>
7

>  <REMARK>
 VINA RESULT:      -6.8      2.561      3.764
  Name = 
  9 active torsions:
  status: ('A' for Active; 'I' for Inactive)
    1  A    between atoms: N_6  and  C_30
    2  A    between atoms: C_9  and  C_10
    3  A    between atoms: C_11  and  C_20
    4  A    between atoms: C_11  and  N_27
    5  A    between atoms: C_12  and  C_32
    6  A    between atoms: C_15  and  C_35
    7  A    between atoms: C_24  and  C_29
    8  A    between atoms: C_24  and  C_30
    9  A    between atoms: C_31  and  C_33
                            x       y       z     vdW  Elec       q    Type
                         _______ _______ _______ _____ _____    ______ ____

>  <TORSDO>
F 9

$$$$
=
 OpenBabel11042414453D

 36 39  0  0  1  0  0  0  0  0999 V2000
  189.5920  176.8640  146.2110 C   0  0  0  0  0  0  0  0  0  0  0  0
  190.0160  175.0080  142.4710 C   0  0  0  0  0  3  0  0  0  0  0  0
  192.3160  174.5560  142.8900 N   0  0  0  0  0  0  0  0  0  0  0  0
  191.0410  175.6750  144.5830 C   0  0  0  0  0  0  0  0  0  0  0  0
  191.2410  174.4780  142.0630 C   0  0  0  0  0  0  0  0  0  0  0  0
  188.6400  176.1780  144.1080 N   0  0  0  0  0  0  0  0  0  0  0  0
  187.8170  177.8360  147.0580 N   0  0  0  0  0  0  0  0  0  0  0  0
  188.5320  176.7380  145.2680 C   0  0  0  0  0  0  0  0  0  0  0  0
  190.9600  176.3210  145.9620 C   0  0  0  0  0  2  0  0  0  0  0  0
  189.9070  175.6160  143.7200 C   0  0  0  0  0  0  0  0  0  0  0  0
  189.1750  177.5030  147.2530 N   0  0  0  0  0  0  0  0  0  0  0  0
  192.2520  175.1130  144.1340 C   0  0  0  0  0  0  0  0  0  0  0  0
  187.4180  177.4010  145.8990 C   0  0  0  0  0  0  0  0  0  0  0  0
  194.6840  175.3250  144.2370 N   0  0  0  0  0  2  0  0  0  0  0  0
  193.6080  173.7790  145.7650 C   0  0  0  0  0  2  0  0  0  0  0  0
  193.4710  175.0970  145.0220 C   0  0  2  0  0  3  0  0  0  0  0  0
  194.7370  173.0680  145.0680 C   0  0  0  0  0  2  0  0  0  0  0  0
  195.5610  174.1720  144.4460 C   0  0  2  0  0  3  0  0  0  0  0  0
  197.1900  173.3570  146.0620 N   0  0  0  0  0  1  0  0  0  0  0  0
  196.7020  174.5450  145.3830 C   0  0  0  0  0  2  0  0  0  0  0  0
  186.0610  177.5720  145.3660 C   0  0  0  0  0  0  0  0  0  0  0  0
  185.8120  178.5240  144.3290 N   0  0  0  0  0  2  0  0  0  0  0  0
  185.1150  176.8790  145.8330 O   0  0  0  0  0  0  0  0  0  0  0  0
  184.5020  178.6800  143.7070 C   0  0  0  0  0  2  0  0  0  0  0  0
  183.4920  178.0130  141.6810 O   0  0  0  0  0  0  0  0  0  0  0  0
  185.8350  177.8460  141.6510 C   0  0  0  0  0  1  0  0  0  0  0  0
  184.5330  178.1600  142.3030 C   0  0  0  0  0  0  0  0  0  0  0  0
  191.4900  172.5030  140.7020 N   0  0  0  0  0  0  0  0  0  0  0  0
  191.3860  173.7900  140.7770 C   0  0  0  0  0  3  0  0  0  0  0  0
  191.6560  171.8370  139.4170 C   0  0  0  0  0  2  0  0  0  0  0  0
  190.3340  171.2460  138.9350 C   0  0  0  0  0  2  0  0  0  0  0  0
  188.1920  174.1930  137.6000 C   0  0  0  0  0  1  0  0  0  0  0  0
  188.0960  173.0060  139.7990 C   0  0  0  0  0  1  0  0  0  0  0  0
  189.9240  172.1250  136.7620 O   0  0  0  0  0  0  0  0  0  0  0  0
  189.6420  172.1840  137.9900 C   0  0  0  0  0  0  0  0  0  0  0  0
  188.6580  173.1170  138.4610 N   0  0  0  0  0  0  0  0  0  0  0  0
  1 11  2  0  0  0  0
  2 10  1  0  0  0  0
  3 12  2  0  0  0  0
  4  9  1  0  0  0  0
  5  2  2  0  0  0  0
  5  3  1  0  0  0  0
  6  8  2  0  0  0  0
  7 11  1  0  0  0  0
  8 13  1  0  0  0  0
  8  1  1  0  0  0  0
  9  1  1  0  0  0  0
 10  6  1  0  0  0  0
 10  4  2  0  0  0  0
 12  4  1  0  0  0  0
 13  7  2  0  0  0  0
 14 18  1  0  0  0  0
 14 16  1  0  0  0  0
 16 12  1  6  0  0  0
 16 15  1  0  0  0  0
 17 15  1  0  0  0  0
 18 17  1  0  0  0  0
 18 20  1  1  0  0  0
 20 19  1  0  0  0  0
 21 23  2  0  0  0  0
 21 13  1  0  0  0  0
 22 21  1  0  0  0  0
 24 22  1  0  0  0  0
 25 27  2  0  0  0  0
 26 27  1  0  0  0  0
 27 24  1  0  0  0  0
 28 29  2  0  0  0  0
 29  5  1  0  0  0  0
 30 28  1  0  0  0  0
 31 30  1  0  0  0  0
 32 36  1  0  0  0  0
 34 35  2  0  0  0  0
 35 36  1  0  0  0  0
 35 31  1  0  0  0  0
 36 33  1  0  0  0  0
M  END
>  <MODEL>
8

>  <REMARK>
 VINA RESULT:      -6.6      2.898      4.316
  Name = 
  9 active torsions:
  status: ('A' for Active; 'I' for Inactive)
    1  A    between atoms: N_6  and  C_30
    2  A    between atoms: C_9  and  C_10
    3  A    between atoms: C_11  and  C_20
    4  A    between atoms: C_11  and  N_27
    5  A    between atoms: C_12  and  C_32
    6  A    between atoms: C_15  and  C_35
    7  A    between atoms: C_24  and  C_29
    8  A    between atoms: C_24  and  C_30
    9  A    between atoms: C_31  and  C_33
                            x       y       z     vdW  Elec       q    Type
                         _______ _______ _______ _____ _____    ______ ____

>  <TORSDO>
F 9

$$$$
=
 OpenBabel11042414453D

 36 39  0  0  1  0  0  0  0  0999 V2000
  188.7940  176.6800  145.7560 C   0  0  0  0  0  0  0  0  0  0  0  0
  188.4890  174.8170  142.0090 C   0  0  0  0  0  3  0  0  0  0  0  0
  190.7300  174.0250  142.1540 N   0  0  0  0  0  0  0  0  0  0  0  0
  189.8460  175.3040  143.9780 C   0  0  0  0  0  0  0  0  0  0  0  0
  189.5640  174.1140  141.4620 C   0  0  0  0  0  0  0  0  0  0  0  0
  187.5070  176.1620  143.7890 N   0  0  0  0  0  0  0  0  0  0  0  0
  187.2960  177.8970  146.8010 N   0  0  0  0  0  0  0  0  0  0  0  0
  187.6220  176.7220  144.9480 C   0  0  0  0  0  0  0  0  0  0  0  0
  190.0270  175.9430  145.3510 C   0  0  0  0  0  2  0  0  0  0  0  0
  188.6210  175.4220  143.2570 C   0  0  0  0  0  0  0  0  0  0  0  0
  188.6040  177.3640  146.8360 N   0  0  0  0  0  0  0  0  0  0  0  0
  190.8980  174.5730  143.3920 C   0  0  0  0  0  0  0  0  0  0  0  0
  186.7020  177.5360  145.7020 C   0  0  0  0  0  0  0  0  0  0  0  0
  193.1370  175.4510  143.8280 N   0  0  0  0  0  2  0  0  0  0  0  0
  192.8470  173.0440  143.7670 C   0  0  0  0  0  2  0  0  0  0  0  0
  192.1990  174.3690  144.1290 C   0  0  2  0  0  3  0  0  0  0  0  0
  194.0010  173.4180  142.8760 C   0  0  0  0  0  2  0  0  0  0  0  0
  194.3390  174.8400  143.2620 C   0  0  2  0  0  3  0  0  0  0  0  0
  196.5190  175.7350  143.8770 N   0  0  0  0  0  1  0  0  0  0  0  0
  195.4590  174.8340  144.2950 C   0  0  0  0  0  2  0  0  0  0  0  0
  185.3320  177.9110  145.3340 C   0  0  0  0  0  0  0  0  0  0  0  0
  185.0460  178.3790  144.0120 N   0  0  0  0  0  2  0  0  0  0  0  0
  184.4090  177.8240  146.1900 O   0  0  0  0  0  0  0  0  0  0  0  0
  183.6920  178.6890  143.5670 C   0  0  0  0  0  2  0  0  0  0  0  0
  184.4810  177.9320  141.4760 O   0  0  0  0  0  0  0  0  0  0  0  0
  182.1600  178.2930  141.5190 C   0  0  0  0  0  1  0  0  0  0  0  0
  183.5160  178.2870  142.1360 C   0  0  0  0  0  0  0  0  0  0  0  0
  188.7820  173.9270  139.1890 N   0  0  0  0  0  0  0  0  0  0  0  0
  189.4520  173.4240  140.1750 C   0  0  0  0  0  3  0  0  0  0  0  0
  188.6630  173.2170  137.9230 C   0  0  0  0  0  2  0  0  0  0  0  0
  190.0380  172.9180  137.3340 C   0  0  0  0  0  2  0  0  0  0  0  0
  192.6800  175.5970  136.3820 C   0  0  0  0  0  1  0  0  0  0  0  0
  192.6790  173.9360  138.2520 C   0  0  0  0  0  1  0  0  0  0  0  0
  189.9800  174.8720  135.9770 O   0  0  0  0  0  0  0  0  0  0  0  0
  190.6590  174.1610  136.7670 C   0  0  0  0  0  0  0  0  0  0  0  0
  191.9910  174.5550  137.1290 N   0  0  0  0  0  0  0  0  0  0  0  0
  1 11  2  0  0  0  0
  2 10  1  0  0  0  0
  3 12  2  0  0  0  0
  4  9  1  0  0  0  0
  5  2  2  0  0  0  0
  5  3  1  0  0  0  0
  6  8  2  0  0  0  0
  7 11  1  0  0  0  0
  8 13  1  0  0  0  0
  8  1  1  0  0  0  0
  9  1  1  0  0  0  0
 10  6  1  0  0  0  0
 10  4  2  0  0  0  0
 12  4  1  0  0  0  0
 13  7  2  0  0  0  0
 14 16  1  0  0  0  0
 15 16  1  0  0  0  0
 16 12  1  6  0  0  0
 17 18  1  0  0  0  0
 17 15  1  0  0  0  0
 18 14  1  0  0  0  0
 18 20  1  1  0  0  0
 19 20  1  0  0  0  0
 21 13  1  0  0  0  0
 21 23  2  0  0  0  0
 22 21  1  0  0  0  0
 24 22  1  0  0  0  0
 25 27  2  0  0  0  0
 26 27  1  0  0  0  0
 27 24  1  0  0  0  0
 28 29  2  0  0  0  0
 29  5  1  0  0  0  0
 30 28  1  0  0  0  0
 31 30  1  0  0  0  0
 32 36  1  0  0  0  0
 34 35  2  0  0  0  0
 35 36  1  0  0  0  0
 35 31  1  0  0  0  0
 36 33  1  0  0  0  0
M  END
>  <MODEL>
9

>  <REMARK>
 VINA RESULT:      -6.4      2.617      4.055
  Name = 
  9 active torsions:
  status: ('A' for Active; 'I' for Inactive)
    1  A    between atoms: N_6  and  C_30
    2  A    between atoms: C_9  and  C_10
    3  A    between atoms: C_11  and  C_20
    4  A    between atoms: C_11  and  N_27
    5  A    between atoms: C_12  and  C_32
    6  A    between atoms: C_15  and  C_35
    7  A    between atoms: C_24  and  C_29
    8  A    between atoms: C_24  and  C_30
    9  A    between atoms: C_31  and  C_33
                            x       y       z     vdW  Elec       q    Type
                         _______ _______ _______ _____ _____    ______ ____

>  <TORSDO>
F 9

$$$$
