=
 OpenBabel11042416153D

 33 36  0  0  1  0  0  0  0  0999 V2000
  189.9890  172.0450  139.6780 C   0  0  0  0  0  0  0  0  0  0  0  0
  184.0860  177.7800  145.1080 F   0  0  0  0  0  0  0  0  0  0  0  0
  188.6820  172.8190  141.3890 C   0  0  1  0  0  3  0  0  0  0  0  0
  188.4960  173.9330  138.9940 C   0  0  0  0  0  1  0  0  0  0  0  0
  184.8590  178.8050  146.9530 F   0  0  0  0  0  0  0  0  0  0  0  0
  187.7430  177.8950  140.9030 C   0  0  0  0  0  2  0  0  0  0  0  0
  188.9270  174.0220  142.2620 C   0  0  1  0  0  3  0  0  0  0  0  0
  190.7340  171.8210  138.1110 Cl  0  0  0  0  0  0  0  0  0  0  0  0
  188.7750  177.0670  146.2800 C   0  0  0  0  0  2  0  0  0  0  0  0
  185.3760  178.6670  141.0940 C   0  0  0  0  0  2  0  0  0  0  0  0
  189.5400  174.9080  144.3920 N   0  0  0  0  0  0  0  0  0  0  0  0
  185.9140  176.1950  146.4150 O   0  0  0  0  0  1  0  0  0  0  0  0
  189.1660  176.1560  143.9880 C   0  0  1  0  0  3  0  0  0  0  0  0
  185.1970  178.3760  145.6790 C   0  0  0  0  0  0  0  0  0  0  0  0
  189.1000  172.9780  139.9670 C   0  0  0  0  0  0  0  0  0  0  0  0
  187.5440  177.9240  146.5110 C   0  0  0  0  0  2  0  0  0  0  0  0
  189.6190  171.7250  141.7940 C   0  0  0  0  0  0  0  0  0  0  0  0
  186.3420  177.3550  145.7700 C   0  0  1  0  0  3  0  0  0  0  0  0
  185.5980  179.6010  144.8470 C   0  0  0  0  0  2  0  0  0  0  0  0
  188.5410  175.2630  141.8670 N   0  0  0  0  0  0  0  0  0  0  0  0
  190.3530  171.2930  140.8280 N   0  0  0  0  0  0  0  0  0  0  0  0
  189.3540  177.3360  144.8940 C   0  0  2  0  0  3  0  0  0  0  0  0
  186.0780  179.2720  143.4320 C   0  0  0  0  0  2  0  0  0  0  0  0
  189.9750  171.5180  143.1640 N   0  0  0  0  0  0  0  0  0  0  0  0
  186.0000  176.9250  139.4740 C   0  0  0  0  0  1  0  0  0  0  0  0
  188.3040  177.6450  142.2220 N   0  0  0  0  0  2  0  0  0  0  0  0
  188.6650  176.3370  142.6890 C   0  0  0  0  0  0  0  0  0  0  0  0
  189.8700  172.5000  144.0120 C   0  0  0  0  0  3  0  0  0  0  0  0
  186.2870  177.4700  140.8520 C   0  0  1  0  0  3  0  0  0  0  0  0
  184.9390  178.7770  142.5520 C   0  0  0  0  0  2  0  0  0  0  0  0
  189.4250  173.8390  143.5670 C   0  0  0  0  0  0  0  0  0  0  0  0
  190.8300  177.6990  144.9900 C   0  0  0  0  0  2  0  0  0  0  0  0
  191.2410  178.5420  143.7890 C   0  0  0  0  0  1  0  0  0  0  0  0
  1 15  2  0  0  0  0
  1 21  1  0  0  0  0
  2 14  1  0  0  0  0
  3 15  1  6  0  0  0
  3 17  1  0  0  0  0
  3  7  1  0  0  0  0
  4 15  1  0  0  0  0
  6 26  1  0  0  0  0
  7 20  1  1  0  0  0
  7 31  1  0  0  0  0
  8  1  1  0  0  0  0
  9 16  1  0  0  0  0
 10 30  1  0  0  0  0
 13 27  1  6  0  0  0
 13 11  1  0  0  0  0
 13 22  1  0  0  0  0
 14 18  1  0  0  0  0
 14  5  1  0  0  0  0
 17 24  1  0  0  0  0
 18 12  1  1  0  0  0
 18 16  1  0  0  0  0
 19 14  1  0  0  0  0
 20 27  2  0  0  0  0
 21 17  2  0  0  0  0
 22 32  1  1  0  0  0
 22  9  1  0  0  0  0
 23 19  1  0  0  0  0
 24 28  2  0  0  0  0
 26 27  1  0  0  0  0
 29 25  1  6  0  0  0
 29  6  1  0  0  0  0
 29 10  1  0  0  0  0
 30 23  1  0  0  0  0
 31 28  1  0  0  0  0
 31 11  2  0  0  0  0
 33 32  1  0  0  0  0
M  END
>  <MODEL>
1

>  <REMARK>
 VINA RESULT:      -9.0      0.000      0.000
  Name = 
  1 active torsions:
  status: ('A' for Active; 'I' for Inactive)
    1  A    between atoms: C_13  and  C_23
                            x       y       z     vdW  Elec       q    Type
                         _______ _______ _______ _____ _____    ______ ____

>  <TORSDO>
F 1

$$$$
=
 OpenBabel11042416153D

 33 36  0  0  1  0  0  0  0  0999 V2000
  195.6480  174.9030  144.9660 C   0  0  0  0  0  0  0  0  0  0  0  0
  186.9420  179.2210  143.2970 F   0  0  0  0  0  0  0  0  0  0  0  0
  193.9560  176.0710  143.9610 C   0  0  1  0  0  3  0  0  0  0  0  0
  193.8740  175.6370  146.5720 C   0  0  0  0  0  1  0  0  0  0  0  0
  185.5010  178.3630  141.8000 F   0  0  0  0  0  0  0  0  0  0  0  0
  189.4300  175.2920  146.3680 C   0  0  0  0  0  2  0  0  0  0  0  0
  192.6110  175.5500  143.5280 C   0  0  1  0  0  3  0  0  0  0  0  0
  196.6540  174.1050  146.1540 Cl  0  0  0  0  0  0  0  0  0  0  0  0
  188.2920  175.1530  140.9520 C   0  0  0  0  0  2  0  0  0  0  0  0
  188.0750  177.2970  146.9810 C   0  0  0  0  0  2  0  0  0  0  0  0
  191.1390  174.9180  141.7570 N   0  0  0  0  0  0  0  0  0  0  0  0
  188.2850  178.1400  141.1540 O   0  0  0  0  0  1  0  0  0  0  0  0
  190.1030  174.8300  142.6410 C   0  0  1  0  0  3  0  0  0  0  0  0
  186.4710  178.0450  142.7380 C   0  0  0  0  0  0  0  0  0  0  0  0
  194.4850  175.4750  145.2210 C   0  0  0  0  0  0  0  0  0  0  0  0
  187.1330  176.0650  141.3080 C   0  0  0  0  0  2  0  0  0  0  0  0
  194.9980  175.5780  143.0070 C   0  0  0  0  0  0  0  0  0  0  0  0
  187.6250  177.3000  142.0510 C   0  0  1  0  0  3  0  0  0  0  0  0
  185.8200  177.1900  143.8330 C   0  0  0  0  0  2  0  0  0  0  0  0
  191.5740  175.4770  144.4030 N   0  0  0  0  0  0  0  0  0  0  0  0
  195.9480  174.9210  143.5770 N   0  0  0  0  0  0  0  0  0  0  0  0
  188.7510  174.3750  142.1810 C   0  0  2  0  0  3  0  0  0  0  0  0
  186.7920  176.6920  144.9050 C   0  0  0  0  0  2  0  0  0  0  0  0
  194.7280  175.4540  141.6080 N   0  0  0  0  0  0  0  0  0  0  0  0
  190.4120  177.0900  147.7180 C   0  0  0  0  0  1  0  0  0  0  0  0
  189.2700  174.9830  144.9560 N   0  0  0  0  0  2  0  0  0  0  0  0
  190.3310  175.1080  143.9980 C   0  0  0  0  0  0  0  0  0  0  0  0
  193.4990  175.3310  141.1970 C   0  0  0  0  0  3  0  0  0  0  0  0
  189.4580  176.7930  146.5880 C   0  0  1  0  0  3  0  0  0  0  0  0
  187.2900  177.8280  145.7860 C   0  0  0  0  0  2  0  0  0  0  0  0
  192.3810  175.2780  142.1640 C   0  0  0  0  0  0  0  0  0  0  0  0
  188.7650  172.8790  141.8960 C   0  0  0  0  0  2  0  0  0  0  0  0
  188.6750  172.6310  140.3950 C   0  0  0  0  0  1  0  0  0  0  0  0
  1 15  2  0  0  0  0
  1  8  1  0  0  0  0
  3 17  1  6  0  0  0
  3 15  1  0  0  0  0
  5 14  1  0  0  0  0
  6 29  1  0  0  0  0
  7 31  1  6  0  0  0
  7  3  1  0  0  0  0
  7 20  1  0  0  0  0
  9 16  1  0  0  0  0
  9 22  1  0  0  0  0
 11 31  2  0  0  0  0
 13 11  1  1  0  0  0
 13 27  1  0  0  0  0
 14  2  1  0  0  0  0
 14 19  1  0  0  0  0
 15  4  1  0  0  0  0
 16 18  1  0  0  0  0
 17 21  2  0  0  0  0
 18 12  1  6  0  0  0
 18 14  1  0  0  0  0
 19 23  1  0  0  0  0
 21  1  1  0  0  0  0
 22 32  1  6  0  0  0
 22 13  1  0  0  0  0
 23 30  1  0  0  0  0
 24 17  1  0  0  0  0
 26  6  1  0  0  0  0
 27 20  2  0  0  0  0
 27 26  1  0  0  0  0
 28 24  2  0  0  0  0
 28 31  1  0  0  0  0
 29 10  1  0  0  0  0
 29 25  1  1  0  0  0
 30 10  1  0  0  0  0
 33 32  1  0  0  0  0
M  END
>  <MODEL>
2

>  <REMARK>
 VINA RESULT:      -8.8      3.635      5.875
  Name = 
  1 active torsions:
  status: ('A' for Active; 'I' for Inactive)
    1  A    between atoms: C_13  and  C_23
                            x       y       z     vdW  Elec       q    Type
                         _______ _______ _______ _____ _____    ______ ____

>  <TORSDO>
F 1

$$$$
=
 OpenBabel11042416153D

 33 36  0  0  1  0  0  0  0  0999 V2000
  189.5650  171.5980  138.6190 C   0  0  0  0  0  0  0  0  0  0  0  0
  195.3620  176.9270  144.5530 F   0  0  0  0  0  0  0  0  0  0  0  0
  190.4780  173.3590  139.7600 C   0  0  1  0  0  3  0  0  0  0  0  0
  191.8560  171.1130  139.5010 C   0  0  0  0  0  1  0  0  0  0  0  0
  194.5780  177.7450  146.4950 F   0  0  0  0  0  0  0  0  0  0  0  0
  193.6110  171.7310  143.5570 C   0  0  0  0  0  2  0  0  0  0  0  0
  190.5180  173.5660  141.2510 C   0  0  1  0  0  3  0  0  0  0  0  0
  189.3210  170.0370  137.8680 Cl  0  0  0  0  0  0  0  0  0  0  0  0
  190.7170  175.9360  145.6990 C   0  0  0  0  0  2  0  0  0  0  0  0
  195.8920  172.7380  143.7000 C   0  0  0  0  0  2  0  0  0  0  0  0
  189.7220  174.7390  143.1730 N   0  0  0  0  0  0  0  0  0  0  0  0
  192.7250  177.6690  144.3090 O   0  0  0  0  0  1  0  0  0  0  0  0
  190.7020  174.1710  143.9330 C   0  0  1  0  0  3  0  0  0  0  0  0
  194.5000  176.6820  145.6080 C   0  0  0  0  0  0  0  0  0  0  0  0
  190.6310  171.9440  139.3170 C   0  0  0  0  0  0  0  0  0  0  0  0
  192.0580  176.4190  146.2200 C   0  0  0  0  0  2  0  0  0  0  0  0
  189.0860  173.6140  139.2710 C   0  0  0  0  0  0  0  0  0  0  0  0
  193.0610  176.5580  145.0830 C   0  0  1  0  0  3  0  0  0  0  0  0
  194.9460  175.4100  146.3400 C   0  0  0  0  0  2  0  0  0  0  0  0
  191.5030  173.0140  142.0080 N   0  0  0  0  0  0  0  0  0  0  0  0
  188.5770  172.6200  138.6300 N   0  0  0  0  0  0  0  0  0  0  0  0
  190.7700  174.4400  145.4070 C   0  0  2  0  0  3  0  0  0  0  0  0
  194.8340  174.1320  145.5060 C   0  0  0  0  0  2  0  0  0  0  0  0
  188.2720  174.6410  139.8440 N   0  0  0  0  0  0  0  0  0  0  0  0
  195.1120  171.6880  141.6170 C   0  0  0  0  0  1  0  0  0  0  0  0
  192.6200  172.6340  144.1200 N   0  0  0  0  0  2  0  0  0  0  0  0
  191.6070  173.2790  143.3360 C   0  0  0  0  0  0  0  0  0  0  0  0
  188.5220  175.0640  141.0490 C   0  0  0  0  0  3  0  0  0  0  0  0
  194.6790  172.5070  142.8070 C   0  0  1  0  0  3  0  0  0  0  0  0
  195.8590  174.1030  144.3810 C   0  0  0  0  0  2  0  0  0  0  0  0
  189.6130  174.4660  141.8490 C   0  0  0  0  0  0  0  0  0  0  0  0
  189.6460  173.7110  146.1300 C   0  0  0  0  0  2  0  0  0  0  0  0
  189.0780  174.5900  147.2370 C   0  0  0  0  0  1  0  0  0  0  0  0
  1 21  1  0  0  0  0
  1 15  2  0  0  0  0
  2 14  1  0  0  0  0
  3 17  1  1  0  0  0
  3  7  1  0  0  0  0
  6 26  1  0  0  0  0
  7 31  1  6  0  0  0
  7 20  1  0  0  0  0
  8  1  1  0  0  0  0
  9 16  1  0  0  0  0
 10 30  1  0  0  0  0
 13 11  1  1  0  0  0
 13 22  1  0  0  0  0
 14 19  1  0  0  0  0
 14  5  1  0  0  0  0
 15  4  1  0  0  0  0
 15  3  1  0  0  0  0
 17 24  1  0  0  0  0
 18 12  1  1  0  0  0
 18 14  1  0  0  0  0
 18 16  1  0  0  0  0
 20 27  2  0  0  0  0
 21 17  2  0  0  0  0
 22  9  1  0  0  0  0
 22 32  1  1  0  0  0
 23 19  1  0  0  0  0
 24 28  2  0  0  0  0
 27 13  1  0  0  0  0
 27 26  1  0  0  0  0
 28 31  1  0  0  0  0
 29 25  1  6  0  0  0
 29  6  1  0  0  0  0
 29 10  1  0  0  0  0
 30 23  1  0  0  0  0
 31 11  2  0  0  0  0
 32 33  1  0  0  0  0
M  END
>  <MODEL>
3

>  <REMARK>
 VINA RESULT:      -7.9      4.164      6.739
  Name = 
  1 active torsions:
  status: ('A' for Active; 'I' for Inactive)
    1  A    between atoms: C_13  and  C_23
                            x       y       z     vdW  Elec       q    Type
                         _______ _______ _______ _____ _____    ______ ____

>  <TORSDO>
F 1

$$$$
=
 OpenBabel11042416153D

 33 36  0  0  1  0  0  0  0  0999 V2000
  193.5190  168.9980  142.0250 C   0  0  0  0  0  0  0  0  0  0  0  0
  187.7660  175.7070  146.3970 F   0  0  0  0  0  0  0  0  0  0  0  0
  192.4530  170.2390  143.6260 C   0  0  1  0  0  3  0  0  0  0  0  0
  191.5510  170.2640  141.1370 C   0  0  0  0  0  1  0  0  0  0  0  0
  188.6620  177.4710  147.4630 F   0  0  0  0  0  0  0  0  0  0  0  0
  190.3780  174.5420  141.6130 C   0  0  0  0  0  2  0  0  0  0  0  0
  192.6100  171.7100  143.9040 C   0  0  1  0  0  3  0  0  0  0  0  0
  193.9590  168.2500  140.5060 Cl  0  0  0  0  0  0  0  0  0  0  0  0
  192.6370  176.0770  146.4290 C   0  0  0  0  0  2  0  0  0  0  0  0
  187.9900  175.0450  142.1460 C   0  0  0  0  0  2  0  0  0  0  0  0
  193.4420  173.4450  145.3180 N   0  0  0  0  0  0  0  0  0  0  0  0
  190.1160  175.0080  147.6400 O   0  0  0  0  0  1  0  0  0  0  0  0
  192.7370  174.3720  144.6080 C   0  0  1  0  0  3  0  0  0  0  0  0
  188.8170  176.6070  146.3900 C   0  0  0  0  0  0  0  0  0  0  0  0
  192.5290  169.8580  142.1870 C   0  0  0  0  0  0  0  0  0  0  0  0
  191.3260  176.8050  146.6590 C   0  0  0  0  0  2  0  0  0  0  0  0
  193.6650  169.5170  144.1290 C   0  0  0  0  0  0  0  0  0  0  0  0
  190.1470  175.8500  146.5300 C   0  0  1  0  0  3  0  0  0  0  0  0
  188.7690  177.4310  145.0970 C   0  0  0  0  0  2  0  0  0  0  0  0
  191.8970  172.6340  143.2070 N   0  0  0  0  0  0  0  0  0  0  0  0
  194.2610  168.8210  143.2240 N   0  0  0  0  0  0  0  0  0  0  0  0
  192.8500  175.8290  144.9390 C   0  0  2  0  0  3  0  0  0  0  0  0
  189.0100  176.6180  143.8230 C   0  0  0  0  0  2  0  0  0  0  0  0
  194.3280  169.9230  145.3290 N   0  0  0  0  0  0  0  0  0  0  0  0
  188.6270  172.8830  141.1610 C   0  0  0  0  0  1  0  0  0  0  0  0
  191.2360  174.9110  142.7280 N   0  0  0  0  0  2  0  0  0  0  0  0
  191.9540  173.9550  143.5190 C   0  0  0  0  0  0  0  0  0  0  0  0
  194.1920  171.1440  145.7600 C   0  0  0  0  0  3  0  0  0  0  0  0
  189.0660  173.9660  142.1150 C   0  0  1  0  0  3  0  0  0  0  0  0
  187.8470  175.6820  143.5250 C   0  0  0  0  0  2  0  0  0  0  0  0
  193.3920  172.1280  145.0000 C   0  0  0  0  0  0  0  0  0  0  0  0
  194.2030  176.3690  144.4930 C   0  0  0  0  0  2  0  0  0  0  0  0
  194.8400  177.1810  145.6150 C   0  0  0  0  0  1  0  0  0  0  0  0
  1 15  2  0  0  0  0
  1 21  1  0  0  0  0
  3 15  1  6  0  0  0
  3  7  1  0  0  0  0
  3 17  1  0  0  0  0
  4 15  1  0  0  0  0
  6 29  1  0  0  0  0
  6 26  1  0  0  0  0
  7 20  1  1  0  0  0
  7 31  1  0  0  0  0
  8  1  1  0  0  0  0
  9 16  1  0  0  0  0
 10 30  1  0  0  0  0
 13 27  1  6  0  0  0
 13 22  1  0  0  0  0
 13 11  1  0  0  0  0
 14  2  1  0  0  0  0
 14 18  1  0  0  0  0
 14  5  1  0  0  0  0
 17 24  1  0  0  0  0
 18 16  1  0  0  0  0
 18 12  1  1  0  0  0
 19 14  1  0  0  0  0
 20 27  2  0  0  0  0
 21 17  2  0  0  0  0
 22 32  1  1  0  0  0
 22  9  1  0  0  0  0
 23 19  1  0  0  0  0
 24 28  2  0  0  0  0
 26 27  1  0  0  0  0
 29 25  1  6  0  0  0
 29 10  1  0  0  0  0
 30 23  1  0  0  0  0
 31 11  2  0  0  0  0
 31 28  1  0  0  0  0
 32 33  1  0  0  0  0
M  END
>  <MODEL>
4

>  <REMARK>
 VINA RESULT:      -7.4      3.328      4.522
  Name = 
  1 active torsions:
  status: ('A' for Active; 'I' for Inactive)
    1  A    between atoms: C_13  and  C_23
                            x       y       z     vdW  Elec       q    Type
                         _______ _______ _______ _____ _____    ______ ____

>  <TORSDO>
F 1

$$$$
=
 OpenBabel11042416153D

 33 36  0  0  1  0  0  0  0  0999 V2000
  188.5140  173.9690  137.3340 C   0  0  0  0  0  0  0  0  0  0  0  0
  187.9470  175.1620  147.1060 F   0  0  0  0  0  0  0  0  0  0  0  0
  188.5160  173.5390  139.5820 C   0  0  1  0  0  3  0  0  0  0  0  0
  187.4410  175.7850  138.6810 C   0  0  0  0  0  1  0  0  0  0  0  0
  189.7880  175.0350  148.3880 F   0  0  0  0  0  0  0  0  0  0  0  0
  188.8400  177.9160  142.3430 C   0  0  0  0  0  2  0  0  0  0  0  0
  189.4780  174.0600  140.6170 C   0  0  1  0  0  3  0  0  0  0  0  0
  188.2700  174.7250  135.7760 Cl  0  0  0  0  0  0  0  0  0  0  0  0
  192.1990  174.3030  144.8570 C   0  0  0  0  0  2  0  0  0  0  0  0
  187.2000  178.2500  144.1960 C   0  0  0  0  0  2  0  0  0  0  0  0
  191.2970  173.6460  142.1070 N   0  0  0  0  0  0  0  0  0  0  0  0
  189.6910  173.2730  146.1290 O   0  0  0  0  0  1  0  0  0  0  0  0
  191.1140  174.8710  142.6800 C   0  0  1  0  0  3  0  0  0  0  0  0
  189.3050  175.4230  147.1480 C   0  0  0  0  0  0  0  0  0  0  0  0
  188.1780  174.5020  138.4950 C   0  0  0  0  0  0  0  0  0  0  0  0
  191.5330  174.7780  146.1360 C   0  0  0  0  0  2  0  0  0  0  0  0
  189.2020  172.4880  138.7660 C   0  0  0  0  0  0  0  0  0  0  0  0
  190.0210  174.6260  146.0470 C   0  0  1  0  0  3  0  0  0  0  0  0
  189.5350  176.9320  146.9930 C   0  0  0  0  0  2  0  0  0  0  0  0
  189.2890  175.2730  141.2000 N   0  0  0  0  0  0  0  0  0  0  0  0
  189.1980  172.7340  137.5020 N   0  0  0  0  0  0  0  0  0  0  0  0
  192.0400  175.3490  143.7580 C   0  0  2  0  0  3  0  0  0  0  0  0
  189.1230  177.4940  145.6300 C   0  0  0  0  0  2  0  0  0  0  0  0
  190.1350  171.5790  139.3570 N   0  0  0  0  0  0  0  0  0  0  0  0
  186.4290  177.7750  141.9090 C   0  0  0  0  0  1  0  0  0  0  0  0
  189.9030  177.0160  142.7620 N   0  0  0  0  0  2  0  0  0  0  0  0
  190.0910  175.7070  142.2070 C   0  0  0  0  0  0  0  0  0  0  0  0
  190.7380  171.9030  140.4630 C   0  0  0  0  0  3  0  0  0  0  0  0
  187.5070  177.4750  142.9210 C   0  0  1  0  0  3  0  0  0  0  0  0
  187.6110  177.4870  145.4520 C   0  0  0  0  0  2  0  0  0  0  0  0
  190.5010  173.2190  141.0960 C   0  0  0  0  0  0  0  0  0  0  0  0
  193.3950  175.7160  143.1670 C   0  0  0  0  0  2  0  0  0  0  0  0
  194.2680  176.3770  144.2260 C   0  0  0  0  0  1  0  0  0  0  0  0
  1 21  1  0  0  0  0
  1 15  2  0  0  0  0
  2 14  1  0  0  0  0
  3 15  1  6  0  0  0
  3  7  1  0  0  0  0
  6 26  1  0  0  0  0
  6 29  1  0  0  0  0
  7 31  1  1  0  0  0
  7 20  1  0  0  0  0
  8  1  1  0  0  0  0
  9 16  1  0  0  0  0
 10 30  1  0  0  0  0
 13 11  1  6  0  0  0
 13 22  1  0  0  0  0
 14  5  1  0  0  0  0
 15  4  1  0  0  0  0
 17 24  1  0  0  0  0
 17  3  1  0  0  0  0
 18 12  1  1  0  0  0
 18 16  1  0  0  0  0
 18 14  1  0  0  0  0
 19 14  1  0  0  0  0
 20 27  2  0  0  0  0
 21 17  2  0  0  0  0
 22 32  1  6  0  0  0
 22  9  1  0  0  0  0
 23 19  1  0  0  0  0
 24 28  2  0  0  0  0
 27 13  1  0  0  0  0
 27 26  1  0  0  0  0
 28 31  1  0  0  0  0
 29 25  1  6  0  0  0
 29 10  1  0  0  0  0
 30 23  1  0  0  0  0
 31 11  2  0  0  0  0
 32 33  1  0  0  0  0
M  END
>  <MODEL>
5

>  <REMARK>
 VINA RESULT:      -7.3      2.677      3.688
  Name = 
  1 active torsions:
  status: ('A' for Active; 'I' for Inactive)
    1  A    between atoms: C_13  and  C_23
                            x       y       z     vdW  Elec       q    Type
                         _______ _______ _______ _____ _____    ______ ____

>  <TORSDO>
F 1

$$$$
=
 OpenBabel11042416153D

 33 36  0  0  1  0  0  0  0  0999 V2000
  196.1840  175.0060  138.6740 C   0  0  0  0  0  0  0  0  0  0  0  0
  190.0360  176.8860  146.1500 F   0  0  0  0  0  0  0  0  0  0  0  0
  194.2790  175.4160  139.8730 C   0  0  1  0  0  3  0  0  0  0  0  0
  196.6380  175.9860  140.9310 C   0  0  0  0  0  1  0  0  0  0  0  0
  188.6300  175.3050  146.9070 F   0  0  0  0  0  0  0  0  0  0  0  0
  195.0920  174.8630  144.9630 C   0  0  0  0  0  2  0  0  0  0  0  0
  193.6660  174.5570  140.9480 C   0  0  1  0  0  3  0  0  0  0  0  0
  197.8590  174.8890  138.1820 Cl  0  0  0  0  0  0  0  0  0  0  0  0
  190.1770  172.5180  143.9660 C   0  0  0  0  0  2  0  0  0  0  0  0
  194.3280  176.6990  146.4730 C   0  0  0  0  0  2  0  0  0  0  0  0
  191.9250  173.0740  141.6330 N   0  0  0  0  0  0  0  0  0  0  0  0
  189.1230  175.3180  144.0840 O   0  0  0  0  0  1  0  0  0  0  0  0
  192.3560  173.1550  142.9250 C   0  0  1  0  0  3  0  0  0  0  0  0
  189.8840  175.5260  146.3610 C   0  0  0  0  0  0  0  0  0  0  0  0
  195.7690  175.4320  139.8530 C   0  0  0  0  0  0  0  0  0  0  0  0
  189.7100  173.2930  145.1840 C   0  0  0  0  0  2  0  0  0  0  0  0
  194.0280  174.7800  138.5410 C   0  0  0  0  0  0  0  0  0  0  0  0
  190.0010  174.7790  145.0240 C   0  0  1  0  0  3  0  0  0  0  0  0
  190.9390  175.0500  147.3680 C   0  0  0  0  0  2  0  0  0  0  0  0
  194.0840  174.6480  142.2380 N   0  0  0  0  0  0  0  0  0  0  0  0
  195.1040  174.5510  137.8700 N   0  0  0  0  0  0  0  0  0  0  0  0
  191.6920  172.3450  143.9980 C   0  0  2  0  0  3  0  0  0  0  0  0
  192.3810  175.1570  146.8680 C   0  0  0  0  0  2  0  0  0  0  0  0
  192.8030  174.0980  138.2610 N   0  0  0  0  0  0  0  0  0  0  0  0
  195.8340  177.1710  144.5860 C   0  0  0  0  0  1  0  0  0  0  0  0
  193.9690  174.0250  144.5730 N   0  0  0  0  0  2  0  0  0  0  0  0
  193.4690  173.9540  143.2310 C   0  0  0  0  0  0  0  0  0  0  0  0
  192.0870  173.6300  139.2420 C   0  0  0  0  0  3  0  0  0  0  0  0
  194.6730  176.3200  145.0390 C   0  0  1  0  0  3  0  0  0  0  0  0
  192.8320  176.6070  146.7540 C   0  0  0  0  0  2  0  0  0  0  0  0
  192.5460  173.7600  140.6420 C   0  0  0  0  0  0  0  0  0  0  0  0
  192.0680  170.8750  143.8590 C   0  0  0  0  0  2  0  0  0  0  0  0
  193.3950  170.6050  144.5580 C   0  0  0  0  0  1  0  0  0  0  0  0
  1 15  2  0  0  0  0
  2 14  1  0  0  0  0
  3 17  1  6  0  0  0
  3  7  1  0  0  0  0
  6 29  1  0  0  0  0
  7 31  1  1  0  0  0
  7 20  1  0  0  0  0
  8  1  1  0  0  0  0
  9 22  1  0  0  0  0
  9 16  1  0  0  0  0
 10 30  1  0  0  0  0
 13 11  1  6  0  0  0
 13 27  1  0  0  0  0
 13 22  1  0  0  0  0
 14  5  1  0  0  0  0
 14 19  1  0  0  0  0
 15  3  1  0  0  0  0
 15  4  1  0  0  0  0
 18 12  1  6  0  0  0
 18 16  1  0  0  0  0
 18 14  1  0  0  0  0
 20 27  2  0  0  0  0
 21 17  2  0  0  0  0
 21  1  1  0  0  0  0
 22 32  1  6  0  0  0
 23 19  1  0  0  0  0
 24 17  1  0  0  0  0
 24 28  2  0  0  0  0
 26  6  1  0  0  0  0
 27 26  1  0  0  0  0
 28 31  1  0  0  0  0
 29 25  1  1  0  0  0
 29 10  1  0  0  0  0
 30 23  1  0  0  0  0
 31 11  2  0  0  0  0
 32 33  1  0  0  0  0
M  END
>  <MODEL>
6

>  <REMARK>
 VINA RESULT:      -7.3      4.488      6.881
  Name = 
  1 active torsions:
  status: ('A' for Active; 'I' for Inactive)
    1  A    between atoms: C_13  and  C_23
                            x       y       z     vdW  Elec       q    Type
                         _______ _______ _______ _____ _____    ______ ____

>  <TORSDO>
F 1

$$$$
=
 OpenBabel11042416153D

 33 36  0  0  1  0  0  0  0  0999 V2000
  187.4900  176.7800  143.2940 C   0  0  0  0  0  0  0  0  0  0  0  0
  195.6390  171.5910  145.2690 F   0  0  0  0  0  0  0  0  0  0  0  0
  188.9970  175.0630  143.4260 C   0  0  1  0  0  3  0  0  0  0  0  0
  189.2990  177.1890  144.9740 C   0  0  0  0  0  1  0  0  0  0  0  0
  197.0420  170.9840  143.6220 F   0  0  0  0  0  0  0  0  0  0  0  0
  193.7310  176.7910  144.6460 C   0  0  0  0  0  2  0  0  0  0  0  0
  190.3500  174.9740  142.7700 C   0  0  1  0  0  3  0  0  0  0  0  0
  186.6440  178.2880  143.5610 Cl  0  0  0  0  0  0  0  0  0  0  0  0
  194.4970  172.9620  140.7210 C   0  0  0  0  0  2  0  0  0  0  0  0
  194.9410  175.6560  146.5130 C   0  0  0  0  0  2  0  0  0  0  0  0
  191.7450  174.0130  141.0880 N   0  0  0  0  0  0  0  0  0  0  0  0
  194.2520  171.0000  142.9690 O   0  0  0  0  0  1  0  0  0  0  0  0
  192.8440  174.5770  141.6670 C   0  0  1  0  0  3  0  0  0  0  0  0
  196.1730  171.9740  144.0510 C   0  0  0  0  0  0  0  0  0  0  0  0
  188.6120  176.4250  143.8930 C   0  0  0  0  0  0  0  0  0  0  0  0
  195.5920  172.4400  141.6320 C   0  0  0  0  0  2  0  0  0  0  0  0
  187.9390  174.8580  142.3880 C   0  0  0  0  0  0  0  0  0  0  0  0
  195.0440  172.1460  143.0220 C   0  0  1  0  0  3  0  0  0  0  0  0
  196.9720  173.2710  144.2340 C   0  0  0  0  0  2  0  0  0  0  0  0
  191.4480  175.5230  143.3540 N   0  0  0  0  0  0  0  0  0  0  0  0
  187.0930  175.8270  142.3160 N   0  0  0  0  0  0  0  0  0  0  0  0
  194.1960  174.4240  141.0390 C   0  0  2  0  0  3  0  0  0  0  0  0
  196.1250  174.4820  144.6300 C   0  0  0  0  0  2  0  0  0  0  0  0
  188.1210  173.9340  141.3110 N   0  0  0  0  0  0  0  0  0  0  0  0
  192.6890  176.5820  146.8580 C   0  0  0  0  0  1  0  0  0  0  0  0
  193.8190  176.0000  143.4290 N   0  0  0  0  0  2  0  0  0  0  0  0
  192.6870  175.3600  142.8230 C   0  0  0  0  0  0  0  0  0  0  0  0
  189.3250  173.5940  140.9500 C   0  0  0  0  0  3  0  0  0  0  0  0
  193.5850  175.8910  145.8600 C   0  0  1  0  0  3  0  0  0  0  0  0
  195.5900  174.3560  146.0500 C   0  0  0  0  0  2  0  0  0  0  0  0
  190.5070  174.1840  141.6140 C   0  0  0  0  0  0  0  0  0  0  0  0
  194.2950  175.2780  139.7820 C   0  0  0  0  0  2  0  0  0  0  0  0
  195.7290  175.2910  139.2680 C   0  0  0  0  0  1  0  0  0  0  0  0
  1  8  1  0  0  0  0
  1 15  2  0  0  0  0
  3 17  1  6  0  0  0
  3 15  1  0  0  0  0
  5 14  1  0  0  0  0
  6 29  1  0  0  0  0
  7 31  1  1  0  0  0
  7 20  1  0  0  0  0
  7  3  1  0  0  0  0
  9 22  1  0  0  0  0
  9 16  1  0  0  0  0
 11 31  2  0  0  0  0
 13 11  1  6  0  0  0
 13 27  1  0  0  0  0
 14 19  1  0  0  0  0
 14  2  1  0  0  0  0
 15  4  1  0  0  0  0
 16 18  1  0  0  0  0
 18 12  1  6  0  0  0
 18 14  1  0  0  0  0
 19 23  1  0  0  0  0
 21 17  2  0  0  0  0
 21  1  1  0  0  0  0
 22 32  1  6  0  0  0
 22 13  1  0  0  0  0
 23 30  1  0  0  0  0
 24 17  1  0  0  0  0
 26  6  1  0  0  0  0
 27 20  2  0  0  0  0
 27 26  1  0  0  0  0
 28 24  2  0  0  0  0
 28 31  1  0  0  0  0
 29 10  1  0  0  0  0
 29 25  1  1  0  0  0
 30 10  1  0  0  0  0
 33 32  1  0  0  0  0
M  END
>  <MODEL>
7

>  <REMARK>
 VINA RESULT:      -7.2      5.683      8.369
  Name = 
  1 active torsions:
  status: ('A' for Active; 'I' for Inactive)
    1  A    between atoms: C_13  and  C_23
                            x       y       z     vdW  Elec       q    Type
                         _______ _______ _______ _____ _____    ______ ____

>  <TORSDO>
F 1

$$$$
=
 OpenBabel11042416153D

 33 36  0  0  1  0  0  0  0  0999 V2000
  185.1430  178.1600  141.0440 C   0  0  0  0  0  0  0  0  0  0  0  0
  193.9200  174.1050  139.1080 F   0  0  0  0  0  0  0  0  0  0  0  0
  187.3780  177.6750  141.1150 C   0  0  1  0  0  3  0  0  0  0  0  0
  185.9470  176.9410  139.0120 C   0  0  0  0  0  1  0  0  0  0  0  0
  194.8830  172.6960  140.5710 F   0  0  0  0  0  0  0  0  0  0  0  0
  188.4340  173.2580  138.6120 C   0  0  0  0  0  2  0  0  0  0  0  0
  188.0240  176.3720  141.5080 C   0  0  1  0  0  3  0  0  0  0  0  0
  183.4760  178.2950  140.5320 Cl  0  0  0  0  0  0  0  0  0  0  0  0
  191.4850  173.1320  143.2300 C   0  0  0  0  0  2  0  0  0  0  0  0
  190.2900  173.2790  136.9410 C   0  0  0  0  0  2  0  0  0  0  0  0
  189.2800  175.1140  143.1020 N   0  0  0  0  0  0  0  0  0  0  0  0
  193.3860  174.8650  141.6970 O   0  0  0  0  0  1  0  0  0  0  0  0
  189.4300  174.1050  142.1970 C   0  0  1  0  0  3  0  0  0  0  0  0
  193.6710  173.1250  140.0530 C   0  0  0  0  0  0  0  0  0  0  0  0
  186.0950  177.5410  140.3690 C   0  0  0  0  0  0  0  0  0  0  0  0
  192.6140  172.7010  142.3130 C   0  0  0  0  0  2  0  0  0  0  0  0
  186.8700  178.3570  142.3460 C   0  0  0  0  0  0  0  0  0  0  0  0
  192.8070  173.7040  141.1840 C   0  0  1  0  0  3  0  0  0  0  0  0
  192.9870  171.9310  139.3740 C   0  0  0  0  0  2  0  0  0  0  0  0
  188.1890  175.3720  140.6030 N   0  0  0  0  0  0  0  0  0  0  0  0
  185.6110  178.6280  142.3020 N   0  0  0  0  0  0  0  0  0  0  0  0
  190.1360  172.8390  142.5830 C   0  0  2  0  0  3  0  0  0  0  0  0
  191.5920  172.2350  138.8230 C   0  0  0  0  0  2  0  0  0  0  0  0
  187.5850  178.2900  143.5830 N   0  0  0  0  0  0  0  0  0  0  0  0
  188.4350  174.8860  136.7770 C   0  0  0  0  0  1  0  0  0  0  0  0
  188.9670  173.1720  139.9630 N   0  0  0  0  0  2  0  0  0  0  0  0
  188.8610  174.2350  140.9200 C   0  0  0  0  0  0  0  0  0  0  0  0
  188.4170  177.3120  143.7950 C   0  0  0  0  0  3  0  0  0  0  0  0
  189.3170  174.1350  137.7430 C   0  0  1  0  0  3  0  0  0  0  0  0
  191.6520  173.1630  137.6180 C   0  0  0  0  0  2  0  0  0  0  0  0
  188.6000  176.2440  142.7880 C   0  0  0  0  0  0  0  0  0  0  0  0
  189.2610  172.0100  143.5140 C   0  0  0  0  0  2  0  0  0  0  0  0
  189.6920  172.2170  144.9610 C   0  0  0  0  0  1  0  0  0  0  0  0
  1 21  1  0  0  0  0
  2 14  1  0  0  0  0
  3 15  1  6  0  0  0
  3  7  1  0  0  0  0
  3 17  1  0  0  0  0
  4 15  1  0  0  0  0
  6 26  1  0  0  0  0
  7 20  1  6  0  0  0
  7 31  1  0  0  0  0
  8  1  1  0  0  0  0
 10 30  1  0  0  0  0
 10 29  1  0  0  0  0
 13 27  1  1  0  0  0
 13 22  1  0  0  0  0
 13 11  1  0  0  0  0
 14  5  1  0  0  0  0
 14 18  1  0  0  0  0
 15  1  2  0  0  0  0
 16  9  1  0  0  0  0
 17 24  1  0  0  0  0
 18 12  1  1  0  0  0
 18 16  1  0  0  0  0
 19 14  1  0  0  0  0
 20 27  2  0  0  0  0
 21 17  2  0  0  0  0
 22  9  1  0  0  0  0
 22 32  1  1  0  0  0
 23 19  1  0  0  0  0
 24 28  2  0  0  0  0
 26 27  1  0  0  0  0
 29 25  1  6  0  0  0
 29  6  1  0  0  0  0
 30 23  1  0  0  0  0
 31 11  2  0  0  0  0
 31 28  1  0  0  0  0
 32 33  1  0  0  0  0
M  END
>  <MODEL>
8

>  <REMARK>
 VINA RESULT:      -7.1      4.283      7.409
  Name = 
  1 active torsions:
  status: ('A' for Active; 'I' for Inactive)
    1  A    between atoms: C_13  and  C_23
                            x       y       z     vdW  Elec       q    Type
                         _______ _______ _______ _____ _____    ______ ____

>  <TORSDO>
F 1

$$$$
=
 OpenBabel11042416153D

 33 36  0  0  1  0  0  0  0  0999 V2000
  190.2200  171.1620  139.0220 C   0  0  0  0  0  0  0  0  0  0  0  0
  189.6490  175.5930  147.8130 F   0  0  0  0  0  0  0  0  0  0  0  0
  190.4700  171.6120  141.2520 C   0  0  1  0  0  3  0  0  0  0  0  0
  188.6090  172.8830  139.8630 C   0  0  0  0  0  1  0  0  0  0  0  0
  191.4580  176.5580  148.7330 F   0  0  0  0  0  0  0  0  0  0  0  0
  189.2710  176.5390  142.3330 C   0  0  0  0  0  2  0  0  0  0  0  0
  191.2140  172.7610  141.8800 C   0  0  1  0  0  3  0  0  0  0  0  0
  189.6520  171.1690  137.3680 Cl  0  0  0  0  0  0  0  0  0  0  0  0
  193.8230  175.4210  145.2800 C   0  0  0  0  0  2  0  0  0  0  0  0
  187.7000  176.9690  144.2260 C   0  0  0  0  0  2  0  0  0  0  0  0
  193.1160  173.5460  143.0910 N   0  0  0  0  0  0  0  0  0  0  0  0
  191.9250  174.1660  147.2250 O   0  0  0  0  0  1  0  0  0  0  0  0
  192.5190  174.7610  143.2550 C   0  0  1  0  0  3  0  0  0  0  0  0
  190.8160  176.2830  147.5360 C   0  0  0  0  0  0  0  0  0  0  0  0
  189.7590  171.9410  139.9840 C   0  0  0  0  0  0  0  0  0  0  0  0
  193.0820  176.0840  146.4260 C   0  0  0  0  0  2  0  0  0  0  0  0
  191.4610  170.6240  140.7210 C   0  0  0  0  0  0  0  0  0  0  0  0
  191.7300  175.4210  146.6510 C   0  0  1  0  0  3  0  0  0  0  0  0
  190.4670  177.6150  146.8590 C   0  0  0  0  0  2  0  0  0  0  0  0
  190.6150  173.9690  142.0580 N   0  0  0  0  0  0  0  0  0  0  0  0
  191.3170  170.3740  139.4650 N   0  0  0  0  0  0  0  0  0  0  0  0
  193.2470  175.8770  143.9430 C   0  0  2  0  0  3  0  0  0  0  0  0
  189.8230  177.4700  145.4780 C   0  0  0  0  0  2  0  0  0  0  0  0
  192.6870  170.3560  141.4080 N   0  0  0  0  0  0  0  0  0  0  0  0
  187.0670  175.4650  142.3860 C   0  0  0  0  0  1  0  0  0  0  0  0
  190.6080  176.2600  142.8360 N   0  0  0  0  0  2  0  0  0  0  0  0
  191.2420  174.9790  142.7150 C   0  0  0  0  0  0  0  0  0  0  0  0
  193.1730  171.2420  142.2280 C   0  0  0  0  0  3  0  0  0  0  0  0
  188.2200  175.9290  143.2410 C   0  0  1  0  0  3  0  0  0  0  0  0
  188.4140  176.9000  145.5720 C   0  0  0  0  0  2  0  0  0  0  0  0
  192.4940  172.5410  142.4260 C   0  0  0  0  0  0  0  0  0  0  0  0
  194.3460  176.4250  143.0430 C   0  0  0  0  0  2  0  0  0  0  0  0
  195.6990  176.3040  143.7330 C   0  0  0  0  0  1  0  0  0  0  0  0
  1 21  1  0  0  0  0
  1 15  2  0  0  0  0
  3 15  1  6  0  0  0
  3  7  1  0  0  0  0
  4 15  1  0  0  0  0
  6 26  1  0  0  0  0
  6 29  1  0  0  0  0
  7 20  1  1  0  0  0
  7 31  1  0  0  0  0
  8  1  1  0  0  0  0
  9 16  1  0  0  0  0
 10 30  1  0  0  0  0
 11 13  1  0  0  0  0
 13 27  1  6  0  0  0
 13 22  1  0  0  0  0
 14  2  1  0  0  0  0
 14  5  1  0  0  0  0
 16 18  1  0  0  0  0
 17  3  1  0  0  0  0
 17 24  1  0  0  0  0
 18 12  1  1  0  0  0
 18 14  1  0  0  0  0
 19 14  1  0  0  0  0
 20 27  2  0  0  0  0
 21 17  2  0  0  0  0
 22 32  1  6  0  0  0
 22  9  1  0  0  0  0
 23 30  1  0  0  0  0
 23 19  1  0  0  0  0
 24 28  2  0  0  0  0
 27 26  1  0  0  0  0
 28 31  1  0  0  0  0
 29 25  1  6  0  0  0
 29 10  1  0  0  0  0
 31 11  2  0  0  0  0
 32 33  1  0  0  0  0
M  END
>  <MODEL>
9

>  <REMARK>
 VINA RESULT:      -6.9      3.092      4.186
  Name = 
  1 active torsions:
  status: ('A' for Active; 'I' for Inactive)
    1  A    between atoms: C_13  and  C_23
                            x       y       z     vdW  Elec       q    Type
                         _______ _______ _______ _____ _____    ______ ____

>  <TORSDO>
F 1

$$$$
