=
 OpenBabel11042417373D

 33 36  0  0  1  0  0  0  0  0999 V2000
  190.9680  174.6490  142.3730 C   0  0  0  0  0  0  0  0  0  0  0  0
  190.5660  175.6670  144.6510 C   0  0  1  0  0  3  0  0  0  0  0  0
  188.8810  177.0020  145.6930 C   0  0  1  0  0  3  0  0  0  0  0  0
  189.7760  174.9240  141.6320 N   0  0  0  0  0  2  0  0  0  0  0  0
  188.6160  175.6000  142.1290 C   0  0  0  0  0  0  0  0  0  0  0  0
  191.6260  173.6110  142.0860 O   0  0  0  0  0  0  0  0  0  0  0  0
  188.2960  175.6410  143.5860 C   0  0  0  0  0  2  0  0  0  0  0  0
  191.4840  175.6100  143.4230 C   0  0  1  0  0  3  0  0  0  0  0  0
  191.1610  176.4440  145.8140 C   0  0  0  0  0  2  0  0  0  0  0  0
  187.8040  176.1090  141.3140 O   0  0  0  0  0  0  0  0  0  0  0  0
  190.0730  177.1030  146.5330 N   0  0  0  0  0  2  0  0  0  0  0  0
  189.3300  176.4620  144.3390 C   0  0  2  0  0  3  0  0  0  0  0  0
  197.4890  172.1560  144.9500 C   0  0  0  0  0  1  0  0  0  0  0  0
  192.9310  175.3630  143.7660 C   0  0  0  0  0  0  0  0  0  0  0  0
  193.2650  174.2370  144.5390 C   0  0  0  0  0  3  0  0  0  0  0  0
  194.6070  174.0240  144.8530 C   0  0  0  0  0  0  0  0  0  0  0  0
  196.7110  173.2700  145.6210 C   0  0  2  0  0  3  0  0  0  0  0  0
  193.9480  176.2460  143.3320 C   0  0  0  0  0  3  0  0  0  0  0  0
  195.2900  176.0060  143.6640 C   0  0  0  0  0  3  0  0  0  0  0  0
  195.2060  172.9180  145.6390 C   0  0  0  0  0  2  0  0  0  0  0  0
  195.5810  174.8780  144.4290 C   0  0  0  0  0  0  0  0  0  0  0  0
  196.8240  174.4690  144.8540 O   0  0  0  0  0  0  0  0  0  0  0  0
  187.8070  176.1520  146.3880 C   0  0  1  0  0  3  0  0  0  0  0  0
  188.3870  175.2280  147.2620 O   0  0  0  0  0  1  0  0  0  0  0  0
  186.8300  177.0440  147.1390 C   0  0  0  0  0  2  0  0  0  0  0  0
  185.4360  176.9720  146.5320 C   0  0  0  0  0  2  0  0  0  0  0  0
  185.5790  179.3120  147.2440 N   0  0  0  0  0  1  0  0  0  0  0  0
  184.7060  178.3030  146.6650 C   0  0  1  0  0  3  0  0  0  0  0  0
  184.1860  178.7730  145.3130 C   0  0  0  0  0  2  0  0  0  0  0  0
  184.9580  177.4690  142.9070 O   0  0  0  0  0  1  0  0  0  0  0  0
  185.6130  178.4880  143.2530 C   0  0  0  0  0  0  0  0  0  0  0  0
  186.6660  178.9290  142.4650 O   0  0  0  0  0  0  0  0  0  0  0  0
  185.2800  179.1930  144.4480 N   0  0  0  0  0  2  0  0  0  0  0  0
  1  8  1  0  0  0  0
  2  9  1  1  0  0  0
  3 23  1  1  0  0  0
  3 11  1  0  0  0  0
  4  5  1  0  0  0  0
  4  1  1  0  0  0  0
  5  7  1  0  0  0  0
  6  1  2  0  0  0  0
  8 14  1  1  0  0  0
  8  2  1  0  0  0  0
  9 11  1  0  0  0  0
 10  5  2  0  0  0  0
 12  7  1  1  0  0  0
 12  2  1  0  0  0  0
 12  3  1  0  0  0  0
 14 15  1  0  0  0  0
 15 16  2  0  0  0  0
 16 20  1  0  0  0  0
 17 13  1  6  0  0  0
 17 20  1  0  0  0  0
 18 19  1  0  0  0  0
 18 14  2  0  0  0  0
 19 21  2  0  0  0  0
 21 16  1  0  0  0  0
 21 22  1  0  0  0  0
 22 17  1  0  0  0  0
 23 25  1  0  0  0  0
 23 24  1  1  0  0  0
 26 28  1  0  0  0  0
 26 25  1  0  0  0  0
 28 27  1  6  0  0  0
 29 28  1  0  0  0  0
 30 31  1  0  0  0  0
 31 33  1  0  0  0  0
 32 31  2  0  0  0  0
 33 29  1  0  0  0  0
M  END
>  <MODEL>
1

>  <REMARK>
 VINA RESULT:      -7.6      0.000      0.000
  Name = 
  7 active torsions:
  status: ('A' for Active; 'I' for Inactive)
    1  A    between atoms: C_3  and  C_19
    2  A    between atoms: C_5  and  C_8
    3  A    between atoms: C_5  and  C_21
    4  A    between atoms: C_16  and  N_26
    5  A    between atoms: C_16  and  C_33
    6  A    between atoms: C_21  and  C_30
    7  A    between atoms: C_30  and  C_33
                            x       y       z     vdW  Elec       q    Type
                         _______ _______ _______ _____ _____    ______ ____

>  <TORSDO>
F 7

$$$$
=
 OpenBabel11042417373D

 33 36  0  0  1  0  0  0  0  0999 V2000
  191.3800  176.1560  146.9100 C   0  0  0  0  0  0  0  0  0  0  0  0
  190.9330  176.1370  144.4220 C   0  0  1  0  0  3  0  0  0  0  0  0
  189.0400  175.8670  142.9910 C   0  0  1  0  0  3  0  0  0  0  0  0
  190.0860  176.0740  147.5160 N   0  0  0  0  0  2  0  0  0  0  0  0
  188.8360  176.0310  146.8210 C   0  0  0  0  0  0  0  0  0  0  0  0
  192.2960  176.7570  147.5350 O   0  0  0  0  0  0  0  0  0  0  0  0
  188.6850  176.5790  145.4410 C   0  0  0  0  0  2  0  0  0  0  0  0
  191.6780  175.4760  145.5910 C   0  0  1  0  0  3  0  0  0  0  0  0
  191.3780  175.6290  143.0600 C   0  0  0  0  0  2  0  0  0  0  0  0
  187.8180  175.5900  147.4140 O   0  0  0  0  0  0  0  0  0  0  0  0
  190.2250  175.6480  142.1630 N   0  0  0  0  0  2  0  0  0  0  0  0
  189.4820  175.7500  144.4470 C   0  0  2  0  0  3  0  0  0  0  0  0
  197.9070  172.4520  144.0520 C   0  0  0  0  0  1  0  0  0  0  0  0
  193.1570  175.3180  145.3480 C   0  0  0  0  0  0  0  0  0  0  0  0
  193.7690  174.0880  145.6450 C   0  0  0  0  0  3  0  0  0  0  0  0
  195.1390  173.9590  145.4200 C   0  0  0  0  0  0  0  0  0  0  0  0
  197.3950  173.2860  145.2090 C   0  0  2  0  0  3  0  0  0  0  0  0
  193.9320  176.3860  144.8360 C   0  0  0  0  0  3  0  0  0  0  0  0
  195.3100  176.2260  144.6200 C   0  0  0  0  0  3  0  0  0  0  0  0
  196.0040  172.7740  145.6450 C   0  0  0  0  0  2  0  0  0  0  0  0
  195.8790  174.9910  144.9240 C   0  0  0  0  0  0  0  0  0  0  0  0
  197.2010  174.6350  144.7820 O   0  0  0  0  0  0  0  0  0  0  0  0
  188.3780  177.2050  142.6370 C   0  0  1  0  0  3  0  0  0  0  0  0
  189.2610  178.0320  141.9350 O   0  0  0  0  0  1  0  0  0  0  0  0
  187.1160  176.9730  141.8200 C   0  0  0  0  0  2  0  0  0  0  0  0
  185.8690  177.0670  142.6890 C   0  0  0  0  0  2  0  0  0  0  0  0
  183.7110  178.1810  142.3680 N   0  0  0  0  0  1  0  0  0  0  0  0
  185.1460  178.3920  142.4760 C   0  0  1  0  0  3  0  0  0  0  0  0
  185.4490  179.3620  143.6100 C   0  0  0  0  0  2  0  0  0  0  0  0
  183.7340  178.9070  145.8320 O   0  0  0  0  0  0  0  0  0  0  0  0
  184.9080  178.4590  145.9020 C   0  0  0  0  0  0  0  0  0  0  0  0
  185.3160  177.7720  147.0370 O   0  0  0  0  0  1  0  0  0  0  0  0
  185.8240  178.6490  144.8240 N   0  0  0  0  0  2  0  0  0  0  0  0
  1  4  1  0  0  0  0
  1  6  2  0  0  0  0
  2  9  1  6  0  0  0
  2 12  1  0  0  0  0
  2  8  1  0  0  0  0
  3 23  1  1  0  0  0
  3 12  1  0  0  0  0
  5 10  2  0  0  0  0
  5  4  1  0  0  0  0
  7  5  1  0  0  0  0
  8 14  1  6  0  0  0
  8  1  1  0  0  0  0
 11  3  1  0  0  0  0
 11  9  1  0  0  0  0
 12  7  1  1  0  0  0
 14 15  1  0  0  0  0
 16 15  2  0  0  0  0
 16 20  1  0  0  0  0
 17 13  1  6  0  0  0
 17 20  1  0  0  0  0
 18 14  2  0  0  0  0
 19 18  1  0  0  0  0
 19 21  2  0  0  0  0
 21 16  1  0  0  0  0
 22 21  1  0  0  0  0
 22 17  1  0  0  0  0
 23 24  1  6  0  0  0
 25 23  1  0  0  0  0
 25 26  1  0  0  0  0
 28 27  1  1  0  0  0
 28 26  1  0  0  0  0
 28 29  1  0  0  0  0
 29 33  1  0  0  0  0
 30 31  2  0  0  0  0
 31 32  1  0  0  0  0
 33 31  1  0  0  0  0
M  END
>  <MODEL>
2

>  <REMARK>
 VINA RESULT:      -7.6      1.670      3.522
  Name = 
  7 active torsions:
  status: ('A' for Active; 'I' for Inactive)
    1  A    between atoms: C_3  and  C_19
    2  A    between atoms: C_5  and  C_8
    3  A    between atoms: C_5  and  C_21
    4  A    between atoms: C_16  and  N_26
    5  A    between atoms: C_16  and  C_33
    6  A    between atoms: C_21  and  C_30
    7  A    between atoms: C_30  and  C_33
                            x       y       z     vdW  Elec       q    Type
                         _______ _______ _______ _____ _____    ______ ____

>  <TORSDO>
F 7

$$$$
=
 OpenBabel11042417373D

 33 36  0  0  1  0  0  0  0  0999 V2000
  193.0070  175.6530  143.4250 C   0  0  0  0  0  0  0  0  0  0  0  0
  191.9090  175.3080  145.6750 C   0  0  1  0  0  3  0  0  0  0  0  0
  190.2930  176.4420  147.0210 C   0  0  1  0  0  3  0  0  0  0  0  0
  192.3450  176.7910  142.8640 N   0  0  0  0  0  2  0  0  0  0  0  0
  191.2730  177.5210  143.4690 C   0  0  0  0  0  0  0  0  0  0  0  0
  193.4680  174.7810  142.6380 O   0  0  0  0  0  0  0  0  0  0  0  0
  190.3760  176.8980  144.4870 C   0  0  0  0  0  2  0  0  0  0  0  0
  193.2260  175.5240  144.9170 C   0  0  1  0  0  3  0  0  0  0  0  0
  192.1070  174.9520  147.1400 C   0  0  0  0  0  2  0  0  0  0  0  0
  191.0290  178.6920  143.0800 O   0  0  0  0  0  0  0  0  0  0  0  0
  190.9980  175.5160  147.9060 N   0  0  0  0  0  2  0  0  0  0  0  0
  191.1440  176.5980  145.7640 C   0  0  2  0  0  3  0  0  0  0  0  0
  196.8790  169.4440  144.9530 C   0  0  0  0  0  1  0  0  0  0  0  0
  194.2860  174.5080  145.2560 C   0  0  0  0  0  0  0  0  0  0  0  0
  193.9510  173.1420  145.2420 C   0  0  0  0  0  3  0  0  0  0  0  0
  194.9410  172.2140  145.5630 C   0  0  0  0  0  0  0  0  0  0  0  0
  196.2640  170.3130  146.0320 C   0  0  2  0  0  3  0  0  0  0  0  0
  195.6010  174.9070  145.5930 C   0  0  0  0  0  3  0  0  0  0  0  0
  196.5770  173.9490  145.9120 C   0  0  0  0  0  3  0  0  0  0  0  0
  194.8380  170.7350  145.6100 C   0  0  0  0  0  2  0  0  0  0  0  0
  196.2060  172.6060  145.8840 C   0  0  0  0  0  0  0  0  0  0  0  0
  197.0100  171.5240  146.1600 O   0  0  0  0  0  0  0  0  0  0  0  0
  188.8630  175.9500  146.7590 C   0  0  1  0  0  3  0  0  0  0  0  0
  188.5950  174.7810  147.4790 O   0  0  0  0  0  1  0  0  0  0  0  0
  187.8560  177.0310  147.1200 C   0  0  0  0  0  2  0  0  0  0  0  0
  186.6120  176.9430  146.2470 C   0  0  0  0  0  2  0  0  0  0  0  0
  185.9840  178.9630  147.4830 N   0  0  0  0  0  1  0  0  0  0  0  0
  185.4710  177.7710  146.8250 C   0  0  1  0  0  3  0  0  0  0  0  0
  184.4780  178.1590  145.7370 C   0  0  0  0  0  2  0  0  0  0  0  0
  185.4750  180.2590  144.1000 O   0  0  0  0  0  1  0  0  0  0  0  0
  185.5380  179.0870  143.6450 C   0  0  0  0  0  0  0  0  0  0  0  0
  186.0820  178.8640  142.3870 O   0  0  0  0  0  0  0  0  0  0  0  0
  185.0580  177.9830  144.4120 N   0  0  0  0  0  2  0  0  0  0  0  0
  1  8  1  0  0  0  0
  2 12  1  0  0  0  0
  2  9  1  1  0  0  0
  3 23  1  6  0  0  0
  3 11  1  0  0  0  0
  4  1  1  0  0  0  0
  4  5  1  0  0  0  0
  5  7  1  0  0  0  0
  6  1  2  0  0  0  0
  8 14  1  6  0  0  0
  8  2  1  0  0  0  0
  9 11  1  0  0  0  0
 10  5  2  0  0  0  0
 12  7  1  6  0  0  0
 12  3  1  0  0  0  0
 14 18  1  0  0  0  0
 15 14  2  0  0  0  0
 15 16  1  0  0  0  0
 16 20  1  0  0  0  0
 16 21  2  0  0  0  0
 17 13  1  6  0  0  0
 17 22  1  0  0  0  0
 18 19  2  0  0  0  0
 20 17  1  0  0  0  0
 21 19  1  0  0  0  0
 21 22  1  0  0  0  0
 23 25  1  0  0  0  0
 23 24  1  1  0  0  0
 26 28  1  0  0  0  0
 26 25  1  0  0  0  0
 28 27  1  6  0  0  0
 29 28  1  0  0  0  0
 31 30  1  0  0  0  0
 31 33  1  0  0  0  0
 32 31  2  0  0  0  0
 33 29  1  0  0  0  0
M  END
>  <MODEL>
3

>  <REMARK>
 VINA RESULT:      -7.5      1.781      2.331
  Name = 
  7 active torsions:
  status: ('A' for Active; 'I' for Inactive)
    1  A    between atoms: C_3  and  C_19
    2  A    between atoms: C_5  and  C_8
    3  A    between atoms: C_5  and  C_21
    4  A    between atoms: C_16  and  N_26
    5  A    between atoms: C_16  and  C_33
    6  A    between atoms: C_21  and  C_30
    7  A    between atoms: C_30  and  C_33
                            x       y       z     vdW  Elec       q    Type
                         _______ _______ _______ _____ _____    ______ ____

>  <TORSDO>
F 7

$$$$
=
 OpenBabel11042417373D

 33 36  0  0  1  0  0  0  0  0999 V2000
  189.8730  174.2910  142.1550 C   0  0  0  0  0  0  0  0  0  0  0  0
  189.6620  175.5360  144.3450 C   0  0  1  0  0  3  0  0  0  0  0  0
  188.4410  177.4140  145.1750 C   0  0  1  0  0  3  0  0  0  0  0  0
  188.8960  174.8900  141.2980 N   0  0  0  0  0  2  0  0  0  0  0  0
  187.9930  175.9390  141.6590 C   0  0  0  0  0  0  0  0  0  0  0  0
  190.1690  173.0790  141.9710 O   0  0  0  0  0  0  0  0  0  0  0  0
  187.5960  176.1800  143.0780 C   0  0  0  0  0  2  0  0  0  0  0  0
  190.5990  175.1000  143.2100 C   0  0  1  0  0  3  0  0  0  0  0  0
  190.3940  176.1520  145.5270 C   0  0  0  0  0  2  0  0  0  0  0  0
  187.4570  176.6290  140.7540 O   0  0  0  0  0  0  0  0  0  0  0  0
  189.5350  177.1770  146.1170 N   0  0  0  0  0  2  0  0  0  0  0  0
  188.7850  176.6670  143.8900 C   0  0  2  0  0  3  0  0  0  0  0  0
  197.3510  174.1390  145.1590 C   0  0  0  0  0  1  0  0  0  0  0  0
  191.8520  174.4180  143.6940 C   0  0  0  0  0  0  0  0  0  0  0  0
  193.0990  174.8740  143.2310 C   0  0  0  0  0  3  0  0  0  0  0  0
  194.2500  174.2300  143.6830 C   0  0  0  0  0  0  0  0  0  0  0  0
  196.4310  173.4590  144.1650 C   0  0  2  0  0  3  0  0  0  0  0  0
  191.7910  173.3280  144.5960 C   0  0  0  0  0  3  0  0  0  0  0  0
  192.9670  172.6990  145.0340 C   0  0  0  0  0  3  0  0  0  0  0  0
  195.6650  174.5250  143.3500 C   0  0  0  0  0  2  0  0  0  0  0  0
  194.1820  173.1820  144.5540 C   0  0  0  0  0  0  0  0  0  0  0  0
  195.4370  172.7080  144.8620 O   0  0  0  0  0  0  0  0  0  0  0  0
  187.0990  177.0100  145.8010 C   0  0  1  0  0  3  0  0  0  0  0  0
  187.2880  176.4170  147.0540 O   0  0  0  0  0  1  0  0  0  0  0  0
  186.1870  178.2210  145.9250 C   0  0  0  0  0  2  0  0  0  0  0  0
  184.8120  177.9410  145.3350 C   0  0  0  0  0  2  0  0  0  0  0  0
  185.4640  179.9890  144.1580 N   0  0  0  0  0  1  0  0  0  0  0  0
  184.4840  178.9150  144.2100 C   0  0  1  0  0  3  0  0  0  0  0  0
  184.4260  178.1940  142.8690 C   0  0  0  0  0  2  0  0  0  0  0  0
  183.8480  178.0300  140.0890 O   0  0  0  0  0  0  0  0  0  0  0  0
  182.8790  178.1920  140.8770 C   0  0  0  0  0  0  0  0  0  0  0  0
  181.5900  178.2820  140.3710 O   0  0  0  0  0  1  0  0  0  0  0  0
  183.0940  178.2820  142.2850 N   0  0  0  0  0  2  0  0  0  0  0  0
  1  8  1  0  0  0  0
  2  9  1  1  0  0  0
  3 23  1  1  0  0  0
  3 11  1  0  0  0  0
  4  5  1  0  0  0  0
  4  1  1  0  0  0  0
  5  7  1  0  0  0  0
  6  1  2  0  0  0  0
  8 14  1  1  0  0  0
  8  2  1  0  0  0  0
  9 11  1  0  0  0  0
 10  5  2  0  0  0  0
 12  7  1  1  0  0  0
 12  2  1  0  0  0  0
 12  3  1  0  0  0  0
 14 18  1  0  0  0  0
 15 16  1  0  0  0  0
 15 14  2  0  0  0  0
 16 21  2  0  0  0  0
 17 22  1  0  0  0  0
 17 13  1  1  0  0  0
 18 19  2  0  0  0  0
 20 16  1  0  0  0  0
 20 17  1  0  0  0  0
 21 22  1  0  0  0  0
 21 19  1  0  0  0  0
 23 25  1  0  0  0  0
 23 24  1  1  0  0  0
 26 25  1  0  0  0  0
 28 27  1  6  0  0  0
 28 26  1  0  0  0  0
 29 28  1  0  0  0  0
 30 31  2  0  0  0  0
 31 33  1  0  0  0  0
 32 31  1  0  0  0  0
 33 29  1  0  0  0  0
M  END
>  <MODEL>
4

>  <REMARK>
 VINA RESULT:      -7.2      1.695      2.277
  Name = 
  7 active torsions:
  status: ('A' for Active; 'I' for Inactive)
    1  A    between atoms: C_3  and  C_19
    2  A    between atoms: C_5  and  C_8
    3  A    between atoms: C_5  and  C_21
    4  A    between atoms: C_16  and  N_26
    5  A    between atoms: C_16  and  C_33
    6  A    between atoms: C_21  and  C_30
    7  A    between atoms: C_30  and  C_33
                            x       y       z     vdW  Elec       q    Type
                         _______ _______ _______ _____ _____    ______ ____

>  <TORSDO>
F 7

$$$$
=
 OpenBabel11042417373D

 33 36  0  0  1  0  0  0  0  0999 V2000
  190.7220  176.8370  146.9100 C   0  0  0  0  0  0  0  0  0  0  0  0
  190.4480  175.0060  145.1890 C   0  0  1  0  0  3  0  0  0  0  0  0
  191.8790  173.6240  143.8670 C   0  0  1  0  0  3  0  0  0  0  0  0
  192.1320  176.9110  147.1440 N   0  0  0  0  0  2  0  0  0  0  0  0
  193.1280  176.0810  146.5390 C   0  0  0  0  0  0  0  0  0  0  0  0
  189.9420  177.1490  147.8500 O   0  0  0  0  0  0  0  0  0  0  0  0
  192.8020  174.7260  146.0040 C   0  0  0  0  0  2  0  0  0  0  0  0
  190.1670  176.4710  145.5490 C   0  0  1  0  0  3  0  0  0  0  0  0
  189.7160  174.5420  143.9390 C   0  0  0  0  0  2  0  0  0  0  0  0
  194.3250  176.4680  146.5240 O   0  0  0  0  0  0  0  0  0  0  0  0
  190.5540  173.5610  143.2530 N   0  0  0  0  0  2  0  0  0  0  0  0
  191.8870  174.8340  144.7960 C   0  0  2  0  0  3  0  0  0  0  0  0
  184.0260  178.2900  142.5000 C   0  0  0  0  0  1  0  0  0  0  0  0
  188.7190  176.8600  145.3970 C   0  0  0  0  0  0  0  0  0  0  0  0
  188.3450  177.6880  144.3240 C   0  0  0  0  0  3  0  0  0  0  0  0
  187.0030  178.0440  144.1990 C   0  0  0  0  0  0  0  0  0  0  0  0
  184.8820  178.8950  143.5950 C   0  0  2  0  0  3  0  0  0  0  0  0
  187.7410  176.4140  146.3170 C   0  0  0  0  0  3  0  0  0  0  0  0
  186.3960  176.7900  146.1660 C   0  0  0  0  0  3  0  0  0  0  0  0
  186.3650  178.8900  143.1600 C   0  0  0  0  0  2  0  0  0  0  0  0
  186.0650  177.6080  145.0880 C   0  0  0  0  0  0  0  0  0  0  0  0
  184.8140  178.0800  144.7660 O   0  0  0  0  0  0  0  0  0  0  0  0
  192.2120  172.2950  144.5590 C   0  0  1  0  0  3  0  0  0  0  0  0
  191.2610  171.3170  144.2510 O   0  0  0  0  0  1  0  0  0  0  0  0
  193.6010  171.8210  144.1570 C   0  0  0  0  0  2  0  0  0  0  0  0
  194.4420  171.4750  145.3780 C   0  0  0  0  0  2  0  0  0  0  0  0
  196.8460  171.5510  145.8470 N   0  0  0  0  0  1  0  0  0  0  0  0
  195.6920  172.3440  145.4530 C   0  0  1  0  0  3  0  0  0  0  0  0
  195.9560  173.0280  144.1180 C   0  0  0  0  0  2  0  0  0  0  0  0
  194.8360  175.2020  142.6680 O   0  0  0  0  0  0  0  0  0  0  0  0
  195.7020  175.4700  143.5420 C   0  0  0  0  0  0  0  0  0  0  0  0
  196.0730  176.7890  143.7620 O   0  0  0  0  0  1  0  0  0  0  0  0
  196.3070  174.4290  144.3080 N   0  0  0  0  0  2  0  0  0  0  0  0
  1  4  1  0  0  0  0
  1  6  2  0  0  0  0
  2  9  1  6  0  0  0
  2  8  1  0  0  0  0
  3 23  1  1  0  0  0
  3 12  1  0  0  0  0
  5  4  1  0  0  0  0
  7  5  1  0  0  0  0
  8 14  1  1  0  0  0
  8  1  1  0  0  0  0
 10  5  2  0  0  0  0
 11  3  1  0  0  0  0
 11  9  1  0  0  0  0
 12  2  1  0  0  0  0
 12  7  1  1  0  0  0
 14 18  1  0  0  0  0
 15 14  2  0  0  0  0
 16 15  1  0  0  0  0
 16 21  2  0  0  0  0
 17 13  1  6  0  0  0
 17 22  1  0  0  0  0
 19 18  2  0  0  0  0
 20 17  1  0  0  0  0
 20 16  1  0  0  0  0
 21 19  1  0  0  0  0
 22 21  1  0  0  0  0
 23 24  1  6  0  0  0
 25 23  1  0  0  0  0
 25 26  1  0  0  0  0
 26 28  1  0  0  0  0
 28 27  1  6  0  0  0
 29 33  1  0  0  0  0
 29 28  1  0  0  0  0
 30 31  2  0  0  0  0
 31 32  1  0  0  0  0
 31 33  1  0  0  0  0
M  END
>  <MODEL>
5

>  <REMARK>
 VINA RESULT:      -7.0      2.678      8.884
  Name = 
  7 active torsions:
  status: ('A' for Active; 'I' for Inactive)
    1  A    between atoms: C_3  and  C_19
    2  A    between atoms: C_5  and  C_8
    3  A    between atoms: C_5  and  C_21
    4  A    between atoms: C_16  and  N_26
    5  A    between atoms: C_16  and  C_33
    6  A    between atoms: C_21  and  C_30
    7  A    between atoms: C_30  and  C_33
                            x       y       z     vdW  Elec       q    Type
                         _______ _______ _______ _____ _____    ______ ____

>  <TORSDO>
F 7

$$$$
=
 OpenBabel11042417373D

 33 36  0  0  1  0  0  0  0  0999 V2000
  191.3340  174.9960  144.1620 C   0  0  0  0  0  0  0  0  0  0  0  0
  189.1760  175.5470  142.9670 C   0  0  1  0  0  3  0  0  0  0  0  0
  187.2610  176.9170  143.3670 C   0  0  1  0  0  3  0  0  0  0  0  0
  191.3480  175.8530  145.3070 N   0  0  0  0  0  2  0  0  0  0  0  0
  190.3510  176.8230  145.6420 C   0  0  0  0  0  0  0  0  0  0  0  0
  192.4380  174.6490  143.6600 O   0  0  0  0  0  0  0  0  0  0  0  0
  189.4610  177.4240  144.6040 C   0  0  0  0  0  2  0  0  0  0  0  0
  190.0380  174.4480  143.6030 C   0  0  1  0  0  3  0  0  0  0  0  0
  187.9800  175.0070  142.2000 C   0  0  0  0  0  2  0  0  0  0  0  0
  190.2700  177.2400  146.8260 O   0  0  0  0  0  0  0  0  0  0  0  0
  186.8830  175.9640  142.3230 N   0  0  0  0  0  2  0  0  0  0  0  0
  188.5200  176.3750  144.0350 C   0  0  2  0  0  3  0  0  0  0  0  0
  192.5200  170.4840  138.2690 C   0  0  0  0  0  1  0  0  0  0  0  0
  190.2590  173.2610  142.7000 C   0  0  0  0  0  0  0  0  0  0  0  0
  190.5390  173.4820  141.3410 C   0  0  0  0  0  3  0  0  0  0  0  0
  190.7360  172.3740  140.5170 C   0  0  0  0  0  0  0  0  0  0  0  0
  191.1320  170.8310  138.7710 C   0  0  2  0  0  3  0  0  0  0  0  0
  190.1800  171.9380  143.1980 C   0  0  0  0  0  3  0  0  0  0  0  0
  190.3830  170.8420  142.3450 C   0  0  0  0  0  3  0  0  0  0  0  0
  191.0480  172.3450  139.0670 C   0  0  0  0  0  2  0  0  0  0  0  0
  190.6610  171.1030  141.0050 C   0  0  0  0  0  0  0  0  0  0  0  0
  190.8920  170.1740  140.0150 O   0  0  0  0  0  0  0  0  0  0  0  0
  187.4140  178.3250  142.7760 C   0  0  1  0  0  3  0  0  0  0  0  0
  187.9810  178.2740  141.4980 O   0  0  0  0  0  1  0  0  0  0  0  0
  186.0660  179.0280  142.7240 C   0  0  0  0  0  2  0  0  0  0  0  0
  185.6920  179.6080  144.0800 C   0  0  0  0  0  2  0  0  0  0  0  0
  183.6530  178.3990  143.4570 N   0  0  0  0  0  1  0  0  0  0  0  0
  184.3180  179.1230  144.5300 C   0  0  1  0  0  3  0  0  0  0  0  0
  184.4340  178.2400  145.7650 C   0  0  0  0  0  2  0  0  0  0  0  0
  186.7080  177.0870  147.0230 O   0  0  0  0  0  0  0  0  0  0  0  0
  186.3660  178.2440  147.3850 C   0  0  0  0  0  0  0  0  0  0  0  0
  187.0960  178.9020  148.3650 O   0  0  0  0  0  1  0  0  0  0  0  0
  185.2350  178.8850  146.7970 N   0  0  0  0  0  2  0  0  0  0  0  0
  1  4  1  0  0  0  0
  2  9  1  6  0  0  0
  2  8  1  0  0  0  0
  2 12  1  0  0  0  0
  3 23  1  6  0  0  0
  3 12  1  0  0  0  0
  4  5  1  0  0  0  0
  5 10  2  0  0  0  0
  6  1  2  0  0  0  0
  7  5  1  0  0  0  0
  8 14  1  6  0  0  0
  8  1  1  0  0  0  0
  9 11  1  0  0  0  0
 11  3  1  0  0  0  0
 12  7  1  6  0  0  0
 14 18  1  0  0  0  0
 15 14  2  0  0  0  0
 16 21  2  0  0  0  0
 16 15  1  0  0  0  0
 17 13  1  1  0  0  0
 17 20  1  0  0  0  0
 17 22  1  0  0  0  0
 19 18  2  0  0  0  0
 20 16  1  0  0  0  0
 21 19  1  0  0  0  0
 22 21  1  0  0  0  0
 23 24  1  6  0  0  0
 25 23  1  0  0  0  0
 25 26  1  0  0  0  0
 26 28  1  0  0  0  0
 28 27  1  6  0  0  0
 28 29  1  0  0  0  0
 29 33  1  0  0  0  0
 30 31  2  0  0  0  0
 31 32  1  0  0  0  0
 33 31  1  0  0  0  0
M  END
>  <MODEL>
6

>  <REMARK>
 VINA RESULT:      -7.0      2.799      5.087
  Name = 
  7 active torsions:
  status: ('A' for Active; 'I' for Inactive)
    1  A    between atoms: C_3  and  C_19
    2  A    between atoms: C_5  and  C_8
    3  A    between atoms: C_5  and  C_21
    4  A    between atoms: C_16  and  N_26
    5  A    between atoms: C_16  and  C_33
    6  A    between atoms: C_21  and  C_30
    7  A    between atoms: C_30  and  C_33
                            x       y       z     vdW  Elec       q    Type
                         _______ _______ _______ _____ _____    ______ ____

>  <TORSDO>
F 7

$$$$
=
 OpenBabel11042417373D

 33 36  0  0  1  0  0  0  0  0999 V2000
  190.1900  173.3780  143.8380 C   0  0  0  0  0  0  0  0  0  0  0  0
  191.9850  174.9120  144.7410 C   0  0  1  0  0  3  0  0  0  0  0  0
  194.1780  174.6810  145.6570 C   0  0  1  0  0  3  0  0  0  0  0  0
  190.7870  172.0780  143.8320 N   0  0  0  0  0  2  0  0  0  0  0  0
  192.1280  171.7690  144.2260 C   0  0  0  0  0  0  0  0  0  0  0  0
  189.3040  173.6340  142.9770 O   0  0  0  0  0  0  0  0  0  0  0  0
  193.2120  172.7940  144.1950 C   0  0  0  0  0  2  0  0  0  0  0  0
  190.5440  174.4040  144.8930 C   0  0  1  0  0  3  0  0  0  0  0  0
  192.3030  176.0990  145.6360 C   0  0  0  0  0  2  0  0  0  0  0  0
  192.4210  170.5850  144.5340 O   0  0  0  0  0  0  0  0  0  0  0  0
  193.7080  176.0140  146.0300 N   0  0  0  0  0  2  0  0  0  0  0  0
  192.9550  173.8750  145.2310 C   0  0  2  0  0  3  0  0  0  0  0  0
  186.0510  179.1340  147.6780 C   0  0  0  0  0  1  0  0  0  0  0  0
  189.5250  175.5100  144.9840 C   0  0  0  0  0  0  0  0  0  0  0  0
  188.6090  175.5080  146.0510 C   0  0  0  0  0  3  0  0  0  0  0  0
  187.6680  176.5350  146.1180 C   0  0  0  0  0  0  0  0  0  0  0  0
  185.9230  178.0430  146.6340 C   0  0  2  0  0  3  0  0  0  0  0  0
  189.4720  176.5380  144.0120 C   0  0  0  0  0  3  0  0  0  0  0  0
  188.5120  177.5590  144.1050 C   0  0  0  0  0  3  0  0  0  0  0  0
  186.6140  176.7560  147.1380 C   0  0  0  0  0  2  0  0  0  0  0  0
  187.6250  177.5230  145.1790 C   0  0  0  0  0  0  0  0  0  0  0  0
  186.6220  178.4260  145.4490 O   0  0  0  0  0  0  0  0  0  0  0  0
  195.2740  174.7800  144.5870 C   0  0  1  0  0  3  0  0  0  0  0  0
  195.2400  176.0240  143.9480 O   0  0  0  0  0  1  0  0  0  0  0  0
  196.6430  174.5450  145.2060 C   0  0  0  0  0  2  0  0  0  0  0  0
  196.6960  173.2140  145.9450 C   0  0  0  0  0  2  0  0  0  0  0  0
  197.8740  172.2980  144.0020 N   0  0  0  0  0  1  0  0  0  0  0  0
  196.8200  172.0470  144.9720 C   0  0  1  0  0  3  0  0  0  0  0  0
  197.0920  170.7480  145.7180 C   0  0  0  0  0  2  0  0  0  0  0  0
  196.9110  168.8240  147.8040 O   0  0  0  0  0  1  0  0  0  0  0  0
  195.8390  169.1890  147.2540 C   0  0  0  0  0  0  0  0  0  0  0  0
  194.6310  168.6510  147.6770 O   0  0  0  0  0  0  0  0  0  0  0  0
  195.8540  170.1520  146.2010 N   0  0  0  0  0  2  0  0  0  0  0  0
  1  8  1  0  0  0  0
  2  8  1  0  0  0  0
  2 12  1  0  0  0  0
  2  9  1  1  0  0  0
  3 23  1  6  0  0  0
  3 11  1  0  0  0  0
  4  1  1  0  0  0  0
  4  5  1  0  0  0  0
  5 10  2  0  0  0  0
  6  1  2  0  0  0  0
  7  5  1  0  0  0  0
  8 14  1  6  0  0  0
  9 11  1  0  0  0  0
 12  7  1  6  0  0  0
 12  3  1  0  0  0  0
 14 15  1  0  0  0  0
 15 16  2  0  0  0  0
 16 20  1  0  0  0  0
 17 20  1  0  0  0  0
 17 13  1  1  0  0  0
 18 19  1  0  0  0  0
 18 14  2  0  0  0  0
 19 21  2  0  0  0  0
 21 22  1  0  0  0  0
 21 16  1  0  0  0  0
 22 17  1  0  0  0  0
 23 24  1  1  0  0  0
 23 25  1  0  0  0  0
 25 26  1  0  0  0  0
 28 27  1  6  0  0  0
 28 29  1  0  0  0  0
 28 26  1  0  0  0  0
 29 33  1  0  0  0  0
 31 32  2  0  0  0  0
 31 30  1  0  0  0  0
 33 31  1  0  0  0  0
M  END
>  <MODEL>
7

>  <REMARK>
 VINA RESULT:      -7.0      3.333      9.277
  Name = 
  7 active torsions:
  status: ('A' for Active; 'I' for Inactive)
    1  A    between atoms: C_3  and  C_19
    2  A    between atoms: C_5  and  C_8
    3  A    between atoms: C_5  and  C_21
    4  A    between atoms: C_16  and  N_26
    5  A    between atoms: C_16  and  C_33
    6  A    between atoms: C_21  and  C_30
    7  A    between atoms: C_30  and  C_33
                            x       y       z     vdW  Elec       q    Type
                         _______ _______ _______ _____ _____    ______ ____

>  <TORSDO>
F 7

$$$$
=
 OpenBabel11042417373D

 33 36  0  0  1  0  0  0  0  0999 V2000
  189.4560  174.1670  144.0710 C   0  0  0  0  0  0  0  0  0  0  0  0
  191.0740  175.5810  145.4020 C   0  0  1  0  0  3  0  0  0  0  0  0
  193.2360  175.3050  146.3800 C   0  0  1  0  0  3  0  0  0  0  0  0
  190.1590  172.9480  143.8140 N   0  0  0  0  0  2  0  0  0  0  0  0
  191.5020  172.6530  144.2130 C   0  0  0  0  0  0  0  0  0  0  0  0
  188.5920  174.5470  143.2340 O   0  0  0  0  0  0  0  0  0  0  0  0
  192.4970  173.7340  144.4780 C   0  0  0  0  0  2  0  0  0  0  0  0
  189.6760  174.9510  145.3480 C   0  0  1  0  0  3  0  0  0  0  0  0
  191.2520  176.5540  146.5560 C   0  0  0  0  0  2  0  0  0  0  0  0
  191.8780  171.4550  144.2690 O   0  0  0  0  0  0  0  0  0  0  0  0
  192.6400  176.4830  147.0090 N   0  0  0  0  0  2  0  0  0  0  0  0
  192.1040  174.5320  145.7110 C   0  0  2  0  0  3  0  0  0  0  0  0
  184.0670  179.1530  144.2530 C   0  0  0  0  0  1  0  0  0  0  0  0
  188.5640  175.9320  145.6170 C   0  0  0  0  0  0  0  0  0  0  0  0
  188.1470  176.7890  144.5830 C   0  0  0  0  0  3  0  0  0  0  0  0
  187.1210  177.6960  144.8490 C   0  0  0  0  0  0  0  0  0  0  0  0
  185.4510  179.3680  144.8340 C   0  0  2  0  0  3  0  0  0  0  0  0
  187.9470  176.0090  146.8880 C   0  0  0  0  0  3  0  0  0  0  0  0
  186.9170  176.9320  147.1260 C   0  0  0  0  0  3  0  0  0  0  0  0
  186.5050  178.6870  143.9330 C   0  0  0  0  0  2  0  0  0  0  0  0
  186.5290  177.7610  146.0760 C   0  0  0  0  0  0  0  0  0  0  0  0
  185.5450  178.7230  146.1050 O   0  0  0  0  0  0  0  0  0  0  0  0
  194.3670  175.7210  145.4290 C   0  0  1  0  0  3  0  0  0  0  0  0
  194.5800  177.1030  145.4780 O   0  0  0  0  0  1  0  0  0  0  0  0
  195.6490  174.9790  145.7740 C   0  0  0  0  0  2  0  0  0  0  0  0
  196.5630  174.8610  144.5630 C   0  0  0  0  0  2  0  0  0  0  0  0
  196.1750  174.6180  142.1560 N   0  0  0  0  0  1  0  0  0  0  0  0
  195.9150  174.0300  143.4610 C   0  0  1  0  0  3  0  0  0  0  0  0
  196.4190  172.5930  143.4990 C   0  0  0  0  0  2  0  0  0  0  0  0
  196.6780  171.5650  146.1370 O   0  0  0  0  0  1  0  0  0  0  0  0
  195.6530  171.2380  145.4830 C   0  0  0  0  0  0  0  0  0  0  0  0
  194.7050  170.4050  146.0600 O   0  0  0  0  0  0  0  0  0  0  0  0
  195.4560  171.7180  144.1530 N   0  0  0  0  0  2  0  0  0  0  0  0
  1  8  1  0  0  0  0
  2 12  1  0  0  0  0
  2  9  1  1  0  0  0
  3 23  1  6  0  0  0
  3 11  1  0  0  0  0
  4  1  1  0  0  0  0
  4  5  1  0  0  0  0
  5 10  2  0  0  0  0
  5  7  1  0  0  0  0
  6  1  2  0  0  0  0
  8  2  1  0  0  0  0
  8 14  1  6  0  0  0
  9 11  1  0  0  0  0
 12  7  1  6  0  0  0
 12  3  1  0  0  0  0
 14 18  1  0  0  0  0
 15 16  1  0  0  0  0
 15 14  2  0  0  0  0
 16 21  2  0  0  0  0
 17 13  1  6  0  0  0
 17 22  1  0  0  0  0
 18 19  2  0  0  0  0
 20 17  1  0  0  0  0
 20 16  1  0  0  0  0
 21 22  1  0  0  0  0
 21 19  1  0  0  0  0
 23 24  1  1  0  0  0
 23 25  1  0  0  0  0
 26 25  1  0  0  0  0
 28 27  1  6  0  0  0
 28 29  1  0  0  0  0
 28 26  1  0  0  0  0
 29 33  1  0  0  0  0
 31 32  2  0  0  0  0
 31 30  1  0  0  0  0
 33 31  1  0  0  0  0
M  END
>  <MODEL>
8

>  <REMARK>
 VINA RESULT:      -7.0      2.834      8.930
  Name = 
  7 active torsions:
  status: ('A' for Active; 'I' for Inactive)
    1  A    between atoms: C_3  and  C_19
    2  A    between atoms: C_5  and  C_8
    3  A    between atoms: C_5  and  C_21
    4  A    between atoms: C_16  and  N_26
    5  A    between atoms: C_16  and  C_33
    6  A    between atoms: C_21  and  C_30
    7  A    between atoms: C_30  and  C_33
                            x       y       z     vdW  Elec       q    Type
                         _______ _______ _______ _____ _____    ______ ____

>  <TORSDO>
F 7

$$$$
=
 OpenBabel11042417373D

 33 36  0  0  1  0  0  0  0  0999 V2000
  190.7790  176.4060  147.0770 C   0  0  0  0  0  0  0  0  0  0  0  0
  190.5780  176.5100  144.5600 C   0  0  1  0  0  3  0  0  0  0  0  0
  188.8170  176.4670  142.9460 C   0  0  1  0  0  3  0  0  0  0  0  0
  189.4300  176.4270  147.5540 N   0  0  0  0  0  2  0  0  0  0  0  0
  188.2550  176.5250  146.7430 C   0  0  0  0  0  0  0  0  0  0  0  0
  191.6810  176.8970  147.8100 O   0  0  0  0  0  0  0  0  0  0  0  0
  188.2900  177.1290  145.3790 C   0  0  0  0  0  2  0  0  0  0  0  0
  191.1410  175.7440  145.7650 C   0  0  1  0  0  3  0  0  0  0  0  0
  191.1050  176.0070  143.2260 C   0  0  0  0  0  2  0  0  0  0  0  0
  187.1480  176.1630  147.2180 O   0  0  0  0  0  0  0  0  0  0  0  0
  190.0520  176.1650  142.2250 N   0  0  0  0  0  2  0  0  0  0  0  0
  189.1020  176.2620  144.4310 C   0  0  2  0  0  3  0  0  0  0  0  0
  197.1910  172.4000  144.1730 C   0  0  0  0  0  1  0  0  0  0  0  0
  192.6160  175.4550  145.6560 C   0  0  0  0  0  0  0  0  0  0  0  0
  193.0520  174.1180  145.6750 C   0  0  0  0  0  3  0  0  0  0  0  0
  194.4200  173.8660  145.5790 C   0  0  0  0  0  0  0  0  0  0  0  0
  196.6040  172.9720  145.4480 C   0  0  2  0  0  3  0  0  0  0  0  0
  193.5610  176.5020  145.5440 C   0  0  0  0  0  3  0  0  0  0  0  0
  194.9330  176.2180  145.4490 C   0  0  0  0  0  3  0  0  0  0  0  0
  195.1200  172.5580  145.5690 C   0  0  0  0  0  2  0  0  0  0  0  0
  195.3240  174.8810  145.4690 C   0  0  0  0  0  0  0  0  0  0  0  0
  196.6100  174.3980  145.3850 O   0  0  0  0  0  0  0  0  0  0  0  0
  188.3170  177.8730  142.5870 C   0  0  1  0  0  3  0  0  0  0  0  0
  189.1370  178.4650  141.6210 O   0  0  0  0  0  1  0  0  0  0  0  0
  186.8800  177.8140  142.0910 C   0  0  0  0  0  2  0  0  0  0  0  0
  185.9850  178.7620  142.8770 C   0  0  0  0  0  2  0  0  0  0  0  0
  185.0470  177.9790  145.0020 N   0  0  0  0  0  1  0  0  0  0  0  0
  184.8490  178.0090  143.5610 C   0  0  1  0  0  3  0  0  0  0  0  0
  183.5040  178.6410  143.2300 C   0  0  0  0  0  2  0  0  0  0  0  0
  180.9190  179.1750  142.1720 O   0  0  0  0  0  1  0  0  0  0  0  0
  181.7150  178.5120  141.4570 C   0  0  0  0  0  0  0  0  0  0  0  0
  181.3120  178.0740  140.2030 O   0  0  0  0  0  0  0  0  0  0  0  0
  183.0290  178.2070  141.9230 N   0  0  0  0  0  2  0  0  0  0  0  0
  1  4  1  0  0  0  0
  1  6  2  0  0  0  0
  2  9  1  6  0  0  0
  2  8  1  0  0  0  0
  3 23  1  1  0  0  0
  3 12  1  0  0  0  0
  5 10  2  0  0  0  0
  5  4  1  0  0  0  0
  7  5  1  0  0  0  0
  8 14  1  6  0  0  0
  8  1  1  0  0  0  0
 11  3  1  0  0  0  0
 11  9  1  0  0  0  0
 12  2  1  0  0  0  0
 12  7  1  1  0  0  0
 14 15  1  0  0  0  0
 16 15  2  0  0  0  0
 17 13  1  6  0  0  0
 17 20  1  0  0  0  0
 18 14  2  0  0  0  0
 19 21  2  0  0  0  0
 19 18  1  0  0  0  0
 20 16  1  0  0  0  0
 21 16  1  0  0  0  0
 22 17  1  0  0  0  0
 22 21  1  0  0  0  0
 23 24  1  6  0  0  0
 25 23  1  0  0  0  0
 25 26  1  0  0  0  0
 26 28  1  0  0  0  0
 28 27  1  1  0  0  0
 29 28  1  0  0  0  0
 31 33  1  0  0  0  0
 31 30  1  0  0  0  0
 32 31  2  0  0  0  0
 33 29  1  0  0  0  0
M  END
>  <MODEL>
9

>  <REMARK>
 VINA RESULT:      -6.9      2.035      3.638
  Name = 
  7 active torsions:
  status: ('A' for Active; 'I' for Inactive)
    1  A    between atoms: C_3  and  C_19
    2  A    between atoms: C_5  and  C_8
    3  A    between atoms: C_5  and  C_21
    4  A    between atoms: C_16  and  N_26
    5  A    between atoms: C_16  and  C_33
    6  A    between atoms: C_21  and  C_30
    7  A    between atoms: C_30  and  C_33
                            x       y       z     vdW  Elec       q    Type
                         _______ _______ _______ _____ _____    ______ ____

>  <TORSDO>
F 7

$$$$
