=
 OpenBabel11042415323D

 47 51  0  0  1  0  0  0  0  0999 V2000
  194.3820  175.9600  146.3560 C   0  0  0  0  0  3  0  0  0  0  0  0
  191.9770  175.9260  145.8450 C   0  0  0  0  0  0  0  0  0  0  0  0
  194.6560  174.9820  145.2210 C   0  0  0  0  0  0  0  0  0  0  0  0
  193.6550  174.5520  144.4710 C   0  0  0  0  0  3  0  0  0  0  0  0
  190.7810  176.3280  146.0470 N   0  0  0  0  0  0  0  0  0  0  0  0
  192.2720  174.7840  144.9030 C   0  0  2  0  0  3  0  0  0  0  0  0
  193.1730  176.3830  146.5890 C   0  0  0  0  0  3  0  0  0  0  0  0
  196.8800  175.1490  144.2280 O   0  0  0  0  0  0  0  0  0  0  0  0
  196.0670  174.5700  145.0140 C   0  0  0  0  0  0  0  0  0  0  0  0
  197.2330  173.5620  146.8040 O   0  0  0  0  0  0  0  0  0  0  0  0
  196.2720  172.0720  145.3740 N   0  0  0  0  0  2  0  0  0  0  0  0
  196.5320  173.3900  145.7770 C   0  0  0  0  0  0  0  0  0  0  0  0
  194.4080  169.2520  146.5870 C   0  0  0  0  0  3  0  0  0  0  0  0
  196.6670  168.8380  147.1580 C   0  0  0  0  0  3  0  0  0  0  0  0
  194.7840  170.3940  145.9170 C   0  0  0  0  0  3  0  0  0  0  0  0
  197.0640  169.9980  146.4930 C   0  0  0  0  0  3  0  0  0  0  0  0
  196.0830  170.7840  145.9150 C   0  0  0  0  0  0  0  0  0  0  0  0
  195.3410  168.4510  147.2440 C   0  0  0  0  0  3  0  0  0  0  0  0
  190.0660  177.0740  146.9380 O   0  0  0  0  0  0  0  0  0  0  0  0
  188.6450  177.2070  146.8720 C   0  0  0  0  0  2  0  0  0  0  0  0
  188.1690  176.7580  145.5240 C   0  0  0  0  0  2  0  0  0  0  0  0
  186.6670  177.0280  145.7060 C   0  0  0  0  0  2  0  0  0  0  0  0
  185.9290  178.0410  144.9750 C   0  0  1  0  0  3  0  0  0  0  0  0
  185.8660  176.4150  142.8900 O   0  0  0  0  0  1  0  0  0  0  0  0
  186.4470  178.8850  142.4600 O   0  0  0  0  0  0  0  0  0  0  0  0
  185.6790  177.8310  143.3870 P   0  0  0  0  0  0  0  0  0  0  0  0
  184.0960  178.2600  143.4130 O   0  0  0  0  0  1  0  0  0  0  0  0
  184.6510  178.4000  147.0940 C   0  0  0  0  0  1  0  0  0  0  0  0
  185.3500  179.1390  145.8150 C   0  0  0  0  0  2  0  0  0  0  0  0
  191.2870  173.9430  144.1980 C   0  0  0  0  0  2  0  0  0  0  0  0
  188.7810  174.4410  142.7560 C   0  0  0  0  0  2  0  0  0  0  0  0
  191.3770  173.4520  141.5970 C   0  0  0  0  0  2  0  0  0  0  0  0
  190.0310  175.3450  142.6370 C   0  0  0  0  0  2  0  0  0  0  0  0
  191.2740  174.4940  142.7770 C   0  0  1  0  0  3  0  0  0  0  0  0
  190.0910  172.8300  141.3530 C   0  0  1  0  0  3  0  0  0  0  0  0
  188.8520  173.0620  142.0450 C   0  0  0  0  0  2  0  0  0  0  0  0
  189.8390  172.3530  140.0020 N   0  0  0  0  0  2  0  0  0  0  0  0
  190.4720  174.8750  135.6540 C   0  0  2  0  0  3  0  0  0  0  0  0
  189.5170  175.6060  134.8610 C   0  0  0  0  0  2  0  0  0  0  0  0
  187.7610  175.3190  136.6030 C   0  0  0  0  0  2  0  0  0  0  0  0
  188.6370  174.3220  137.3330 C   0  0  0  0  0  0  0  0  0  0  0  0
  188.1440  175.3290  135.2370 O   0  0  0  0  0  0  0  0  0  0  0  0
  188.3260  173.6120  138.4690 C   0  0  0  0  0  3  0  0  0  0  0  0
  189.9370  174.2360  136.8780 C   0  0  0  0  0  0  0  0  0  0  0  0
  191.8880  175.3160  135.6350 C   0  0  0  0  0  1  0  0  0  0  0  0
  190.7630  173.2320  137.9210 S   0  0  0  0  0  0  0  0  0  0  0  0
  189.5070  172.9510  138.9020 C   0  0  0  0  0  0  0  0  0  0  0  0
  1  7  2  0  0  0  0
  2  5  2  0  0  0  0
  2  7  1  0  0  0  0
  3  1  1  0  0  0  0
  4  6  1  0  0  0  0
  4  3  2  0  0  0  0
  5 19  1  0  0  0  0
  6 30  1  6  0  0  0
  6  2  1  0  0  0  0
  8  9  2  0  0  0  0
  9  3  1  0  0  0  0
  9 12  1  0  0  0  0
 11 12  1  0  0  0  0
 11 17  1  0  0  0  0
 12 10  2  0  0  0  0
 13 18  1  0  0  0  0
 14 18  2  0  0  0  0
 15 13  2  0  0  0  0
 16 14  1  0  0  0  0
 17 15  1  0  0  0  0
 17 16  2  0  0  0  0
 20 19  1  0  0  0  0
 21 22  1  0  0  0  0
 21 20  1  0  0  0  0
 23 22  1  1  0  0  0
 23 29  1  0  0  0  0
 24 26  1  0  0  0  0
 25 26  2  0  0  0  0
 26 27  1  0  0  0  0
 26 23  1  0  0  0  0
 29 28  1  0  0  0  0
 32 34  1  0  0  0  0
 33 31  1  0  0  0  0
 33 34  1  0  0  0  0
 34 30  1  1  0  0  0
 35 37  1  6  0  0  0
 35 32  1  0  0  0  0
 35 36  1  0  0  0  0
 36 31  1  0  0  0  0
 38 45  1  1  0  0  0
 38 44  1  0  0  0  0
 39 42  1  0  0  0  0
 39 38  1  0  0  0  0
 40 41  1  0  0  0  0
 41 43  1  0  0  0  0
 42 40  1  0  0  0  0
 43 47  2  0  0  0  0
 44 41  2  0  0  0  0
 44 46  1  0  0  0  0
 46 47  1  0  0  0  0
 47 37  1  0  0  0  0
M  END
>  <MODEL>
1

>  <REMARK>
 VINA RESULT:      -7.8      0.000      0.000
  Name = 
  14 active torsions:
  status: ('A' for Active; 'I' for Inactive)
    1  A    between atoms: C_2  and  C_5
    2  A    between atoms: C_2  and  C_40
    3  A    between atoms: C_5  and  O_21
    4  A    between atoms: P_12  and  C_28
    5  A    between atoms: C_13  and  C_31
    6  A    between atoms: N_17  and  C_29
    7  A    between atoms: O_21  and  N_43
    8  A    between atoms: C_22  and  C_46
    9  A    between atoms: C_25  and  N_26
   10  A    between atoms: N_26  and  C_42
   11  A    between atoms: C_28  and  C_33
   12  A    between atoms: C_28  and  C_40
   13  A    between atoms: C_31  and  C_44
   14  A    between atoms: C_34  and  C_46
                            x       y       z     vdW  Elec       q    Type
                         _______ _______ _______ _____ _____    ______ ____

>  <TORSDO>
F 14

$$$$
=
 OpenBabel11042415323D

 47 51  0  0  1  0  0  0  0  0999 V2000
  184.8300  178.0970  142.6810 C   0  0  0  0  0  3  0  0  0  0  0  0
  186.5120  177.5490  140.9720 C   0  0  0  0  0  0  0  0  0  0  0  0
  185.9270  178.3350  143.7100 C   0  0  0  0  0  0  0  0  0  0  0  0
  187.1950  178.2020  143.3580 C   0  0  0  0  0  3  0  0  0  0  0  0
  186.8350  177.2380  139.7760 N   0  0  0  0  0  0  0  0  0  0  0  0
  187.5320  177.5580  142.0840 C   0  0  2  0  0  3  0  0  0  0  0  0
  185.1300  177.7740  141.4550 C   0  0  0  0  0  3  0  0  0  0  0  0
  184.6660  179.6490  145.3360 O   0  0  0  0  0  0  0  0  0  0  0  0
  185.4940  178.7210  145.0770 C   0  0  0  0  0  0  0  0  0  0  0  0
  185.3480  177.4670  147.0740 O   0  0  0  0  0  0  0  0  0  0  0  0
  187.4830  177.8370  146.3710 N   0  0  0  0  0  2  0  0  0  0  0  0
  186.0970  177.9690  146.2000 C   0  0  0  0  0  0  0  0  0  0  0  0
  190.7070  176.7770  147.5500 C   0  0  0  0  0  3  0  0  0  0  0  0
  189.3890  174.8170  147.3920 C   0  0  0  0  0  3  0  0  0  0  0  0
  189.6140  177.5410  147.2060 C   0  0  0  0  0  3  0  0  0  0  0  0
  188.2760  175.5750  147.0320 C   0  0  0  0  0  3  0  0  0  0  0  0
  188.4350  176.9430  146.9040 C   0  0  0  0  0  0  0  0  0  0  0  0
  190.6270  175.3870  147.6330 C   0  0  0  0  0  3  0  0  0  0  0  0
  186.2540  176.8570  138.6020 O   0  0  0  0  0  0  0  0  0  0  0  0
  186.9990  176.6540  137.4000 C   0  0  0  0  0  2  0  0  0  0  0  0
  187.0140  175.1930  137.0670 C   0  0  0  0  0  2  0  0  0  0  0  0
  188.1300  174.7480  138.0260 C   0  0  0  0  0  2  0  0  0  0  0  0
  188.6420  173.3920  138.1020 C   0  0  1  0  0  3  0  0  0  0  0  0
  189.1210  172.2110  135.7850 O   0  0  0  0  0  0  0  0  0  0  0  0
  190.9440  172.0690  137.5960 O   0  0  0  0  0  1  0  0  0  0  0  0
  189.7160  172.8990  136.9930 P   0  0  0  0  0  0  0  0  0  0  0  0
  190.2690  174.3990  136.6250 O   0  0  0  0  0  1  0  0  0  0  0  0
  188.4120  173.6170  140.5820 C   0  0  0  0  0  1  0  0  0  0  0  0
  188.2090  172.6140  139.3080 C   0  0  0  0  0  2  0  0  0  0  0  0
  188.9420  177.1380  141.9930 C   0  0  0  0  0  2  0  0  0  0  0  0
  191.7390  177.2020  142.8750 C   0  0  0  0  0  2  0  0  0  0  0  0
  189.5830  175.3230  143.8120 C   0  0  0  0  0  2  0  0  0  0  0  0
  190.5540  177.6740  143.7510 C   0  0  0  0  0  2  0  0  0  0  0  0
  189.3370  176.8340  143.4330 C   0  0  1  0  0  3  0  0  0  0  0  0
  190.8980  174.8950  143.3750 C   0  0  1  0  0  3  0  0  0  0  0  0
  191.8930  175.6700  142.6830 C   0  0  0  0  0  2  0  0  0  0  0  0
  191.5220  173.8200  144.1300 N   0  0  0  0  0  2  0  0  0  0  0  0
  195.4880  170.9760  145.4900 C   0  0  2  0  0  3  0  0  0  0  0  0
  196.8010  171.3710  145.9300 C   0  0  0  0  0  2  0  0  0  0  0  0
  196.1290  173.7670  145.9850 C   0  0  0  0  0  2  0  0  0  0  0  0
  194.8380  173.4300  145.2680 C   0  0  0  0  0  0  0  0  0  0  0  0
  197.0860  172.7690  145.6700 O   0  0  0  0  0  0  0  0  0  0  0  0
  193.8600  174.3040  144.8530 C   0  0  0  0  0  3  0  0  0  0  0  0
  194.5630  172.0830  145.1520 C   0  0  0  0  0  0  0  0  0  0  0  0
  194.9260  169.7030  146.0030 C   0  0  0  0  0  1  0  0  0  0  0  0
  193.0340  171.9420  144.5040 S   0  0  0  0  0  0  0  0  0  0  0  0
  192.7540  173.5330  144.4030 C   0  0  0  0  0  0  0  0  0  0  0  0
  1  3  1  0  0  0  0
  2  7  1  0  0  0  0
  2  6  1  0  0  0  0
  3  9  1  0  0  0  0
  4  3  2  0  0  0  0
  5  2  2  0  0  0  0
  6 30  1  6  0  0  0
  6  4  1  0  0  0  0
  7  1  2  0  0  0  0
  9  8  2  0  0  0  0
  9 12  1  0  0  0  0
 11 17  1  0  0  0  0
 12 11  1  0  0  0  0
 12 10  2  0  0  0  0
 13 18  1  0  0  0  0
 14 18  2  0  0  0  0
 15 13  2  0  0  0  0
 16 14  1  0  0  0  0
 17 16  2  0  0  0  0
 17 15  1  0  0  0  0
 19  5  1  0  0  0  0
 20 19  1  0  0  0  0
 21 20  1  0  0  0  0
 21 22  1  0  0  0  0
 23 22  1  1  0  0  0
 23 29  1  0  0  0  0
 24 26  2  0  0  0  0
 26 25  1  0  0  0  0
 26 23  1  0  0  0  0
 27 26  1  0  0  0  0
 29 28  1  0  0  0  0
 31 33  1  0  0  0  0
 34 30  1  6  0  0  0
 34 33  1  0  0  0  0
 34 32  1  0  0  0  0
 35 32  1  0  0  0  0
 35 37  1  1  0  0  0
 36 31  1  0  0  0  0
 36 35  1  0  0  0  0
 37 47  1  0  0  0  0
 38 39  1  0  0  0  0
 38 45  1  1  0  0  0
 41 40  1  0  0  0  0
 42 39  1  0  0  0  0
 42 40  1  0  0  0  0
 43 41  1  0  0  0  0
 44 41  2  0  0  0  0
 44 38  1  0  0  0  0
 46 44  1  0  0  0  0
 47 46  1  0  0  0  0
 47 43  2  0  0  0  0
M  END
>  <MODEL>
2

>  <REMARK>
 VINA RESULT:      -7.7      2.891      9.151
  Name = 
  14 active torsions:
  status: ('A' for Active; 'I' for Inactive)
    1  A    between atoms: C_2  and  C_5
    2  A    between atoms: C_2  and  C_40
    3  A    between atoms: C_5  and  O_21
    4  A    between atoms: P_12  and  C_28
    5  A    between atoms: C_13  and  C_31
    6  A    between atoms: N_17  and  C_29
    7  A    between atoms: O_21  and  N_43
    8  A    between atoms: C_22  and  C_46
    9  A    between atoms: C_25  and  N_26
   10  A    between atoms: N_26  and  C_42
   11  A    between atoms: C_28  and  C_33
   12  A    between atoms: C_28  and  C_40
   13  A    between atoms: C_31  and  C_44
   14  A    between atoms: C_34  and  C_46
                            x       y       z     vdW  Elec       q    Type
                         _______ _______ _______ _____ _____    ______ ____

>  <TORSDO>
F 14

$$$$
=
 OpenBabel11042415323D

 47 51  0  0  1  0  0  0  0  0999 V2000
  189.2590  177.5250  147.0720 C   0  0  0  0  0  3  0  0  0  0  0  0
  190.8670  175.6880  146.7700 C   0  0  0  0  0  0  0  0  0  0  0  0
  188.1110  176.6110  146.6630 C   0  0  0  0  0  0  0  0  0  0  0  0
  188.3560  175.3470  146.3610 C   0  0  0  0  0  3  0  0  0  0  0  0
  192.0510  175.2140  146.8290 N   0  0  0  0  0  0  0  0  0  0  0  0
  189.7390  174.9060  146.1430 C   0  0  2  0  0  3  0  0  0  0  0  0
  190.4780  177.0690  147.1370 C   0  0  0  0  0  3  0  0  0  0  0  0
  185.9460  177.2090  147.6200 O   0  0  0  0  0  0  0  0  0  0  0  0
  186.7520  177.2090  146.6380 C   0  0  0  0  0  0  0  0  0  0  0  0
  186.1980  179.0760  145.3000 O   0  0  0  0  0  0  0  0  0  0  0  0
  185.9930  177.0780  144.2260 N   0  0  0  0  0  2  0  0  0  0  0  0
  186.3240  177.8280  145.3640 C   0  0  0  0  0  0  0  0  0  0  0  0
  187.3210  176.6900  140.9110 C   0  0  0  0  0  3  0  0  0  0  0  0
  185.3940  178.0470  140.6910 C   0  0  0  0  0  3  0  0  0  0  0  0
  187.0580  176.5310  142.2530 C   0  0  0  0  0  3  0  0  0  0  0  0
  185.1190  177.9050  142.0510 C   0  0  0  0  0  3  0  0  0  0  0  0
  186.0040  177.1690  142.8190 C   0  0  0  0  0  0  0  0  0  0  0  0
  186.5030  177.4710  140.0950 C   0  0  0  0  0  3  0  0  0  0  0  0
  193.3350  175.6290  147.0350 O   0  0  0  0  0  0  0  0  0  0  0  0
  193.9100  176.7380  146.3430 C   0  0  0  0  0  2  0  0  0  0  0  0
  194.9960  176.2460  145.4350 C   0  0  0  0  0  2  0  0  0  0  0  0
  194.1170  175.6060  144.3480 C   0  0  0  0  0  2  0  0  0  0  0  0
  194.1420  175.9950  142.9500 C   0  0  1  0  0  3  0  0  0  0  0  0
  196.6130  176.8940  142.6630 O   0  0  0  0  0  1  0  0  0  0  0  0
  195.4040  176.0350  140.5600 O   0  0  0  0  0  0  0  0  0  0  0  0
  195.5520  175.9470  142.1510 P   0  0  0  0  0  0  0  0  0  0  0  0
  195.8980  174.3880  142.5280 O   0  0  0  0  0  1  0  0  0  0  0  0
  191.9960  177.1750  143.4520 C   0  0  0  0  0  1  0  0  0  0  0  0
  192.8020  176.2840  142.3450 C   0  0  0  0  0  2  0  0  0  0  0  0
  189.8390  173.6060  145.4560 C   0  0  0  0  0  2  0  0  0  0  0  0
  188.8340  172.9970  142.7680 C   0  0  0  0  0  2  0  0  0  0  0  0
  191.6790  172.8020  143.7290 C   0  0  0  0  0  2  0  0  0  0  0  0
  189.6810  174.2470  143.1020 C   0  0  0  0  0  2  0  0  0  0  0  0
  190.6580  173.9050  144.2060 C   0  0  1  0  0  3  0  0  0  0  0  0
  190.9920  171.7470  143.0110 C   0  0  1  0  0  3  0  0  0  0  0  0
  189.5840  171.6390  142.7350 C   0  0  0  0  0  2  0  0  0  0  0  0
  191.7640  171.0210  142.0150 N   0  0  0  0  0  2  0  0  0  0  0  0
  191.0850  172.0580  137.1020 C   0  0  2  0  0  3  0  0  0  0  0  0
  190.6100  171.2130  136.0360 C   0  0  0  0  0  2  0  0  0  0  0  0
  190.0730  169.3870  137.6400 C   0  0  0  0  0  2  0  0  0  0  0  0
  190.8090  170.1250  138.7400 C   0  0  0  0  0  0  0  0  0  0  0  0
  190.6010  169.8080  136.3920 O   0  0  0  0  0  0  0  0  0  0  0  0
  191.0210  169.7030  140.0320 C   0  0  0  0  0  3  0  0  0  0  0  0
  191.1780  171.4200  138.4360 C   0  0  0  0  0  0  0  0  0  0  0  0
  190.8160  173.5140  137.0210 C   0  0  0  0  0  1  0  0  0  0  0  0
  191.8020  172.0970  139.8250 S   0  0  0  0  0  0  0  0  0  0  0  0
  191.5840  170.7900  140.7540 C   0  0  0  0  0  0  0  0  0  0  0  0
  1  7  2  0  0  0  0
  2  5  2  0  0  0  0
  2  7  1  0  0  0  0
  3  1  1  0  0  0  0
  4  3  2  0  0  0  0
  5 19  1  0  0  0  0
  6 30  1  1  0  0  0
  6  4  1  0  0  0  0
  6  2  1  0  0  0  0
  9  3  1  0  0  0  0
  9  8  2  0  0  0  0
 10 12  2  0  0  0  0
 11 12  1  0  0  0  0
 12  9  1  0  0  0  0
 13 15  1  0  0  0  0
 14 16  2  0  0  0  0
 15 17  2  0  0  0  0
 16 17  1  0  0  0  0
 17 11  1  0  0  0  0
 18 14  1  0  0  0  0
 18 13  2  0  0  0  0
 20 19  1  0  0  0  0
 21 20  1  0  0  0  0
 22 21  1  0  0  0  0
 23 29  1  6  0  0  0
 23 22  1  0  0  0  0
 25 26  2  0  0  0  0
 26 27  1  0  0  0  0
 26 24  1  0  0  0  0
 26 23  1  0  0  0  0
 29 28  1  0  0  0  0
 31 33  1  0  0  0  0
 32 34  1  0  0  0  0
 33 34  1  0  0  0  0
 34 30  1  1  0  0  0
 35 37  1  6  0  0  0
 35 32  1  0  0  0  0
 36 31  1  0  0  0  0
 36 35  1  0  0  0  0
 38 45  1  1  0  0  0
 38 44  1  0  0  0  0
 39 42  1  0  0  0  0
 39 38  1  0  0  0  0
 40 41  1  0  0  0  0
 41 43  1  0  0  0  0
 42 40  1  0  0  0  0
 43 47  2  0  0  0  0
 44 41  2  0  0  0  0
 44 46  1  0  0  0  0
 46 47  1  0  0  0  0
 47 37  1  0  0  0  0
M  END
>  <MODEL>
3

>  <REMARK>
 VINA RESULT:      -7.6      3.513      7.890
  Name = 
  14 active torsions:
  status: ('A' for Active; 'I' for Inactive)
    1  A    between atoms: C_2  and  C_5
    2  A    between atoms: C_2  and  C_40
    3  A    between atoms: C_5  and  O_21
    4  A    between atoms: P_12  and  C_28
    5  A    between atoms: C_13  and  C_31
    6  A    between atoms: N_17  and  C_29
    7  A    between atoms: O_21  and  N_43
    8  A    between atoms: C_22  and  C_46
    9  A    between atoms: C_25  and  N_26
   10  A    between atoms: N_26  and  C_42
   11  A    between atoms: C_28  and  C_33
   12  A    between atoms: C_28  and  C_40
   13  A    between atoms: C_31  and  C_44
   14  A    between atoms: C_34  and  C_46
                            x       y       z     vdW  Elec       q    Type
                         _______ _______ _______ _____ _____    ______ ____

>  <TORSDO>
F 14

$$$$
=
 OpenBabel11042415323D

 47 51  0  0  1  0  0  0  0  0999 V2000
  185.3830  177.9470  140.6510 C   0  0  0  0  0  3  0  0  0  0  0  0
  183.5680  178.4150  142.2430 C   0  0  0  0  0  0  0  0  0  0  0  0
  186.3710  177.7790  141.7980 C   0  0  0  0  0  0  0  0  0  0  0  0
  185.9520  177.9050  143.0460 C   0  0  0  0  0  3  0  0  0  0  0  0
  182.3430  178.6610  142.5070 N   0  0  0  0  0  0  0  0  0  0  0  0
  184.6290  178.4790  143.3150 C   0  0  2  0  0  3  0  0  0  0  0  0
  184.1280  178.2040  140.8890 C   0  0  0  0  0  3  0  0  0  0  0  0
  188.6920  178.3330  141.2830 O   0  0  0  0  0  0  0  0  0  0  0  0
  187.7760  177.4660  141.4340 C   0  0  0  0  0  0  0  0  0  0  0  0
  187.8540  175.5090  140.1130 O   0  0  0  0  0  0  0  0  0  0  0  0
  188.6310  175.2210  142.2350 N   0  0  0  0  0  2  0  0  0  0  0  0
  188.1030  176.0380  141.2240 C   0  0  0  0  0  0  0  0  0  0  0  0
  191.5170  173.1500  141.7010 C   0  0  0  0  0  3  0  0  0  0  0  0
  189.9790  171.8290  142.9220 C   0  0  0  0  0  3  0  0  0  0  0  0
  190.6690  174.2310  141.7980 C   0  0  0  0  0  3  0  0  0  0  0  0
  189.1030  172.9100  143.0200 C   0  0  0  0  0  3  0  0  0  0  0  0
  189.4630  174.0950  142.4030 C   0  0  0  0  0  0  0  0  0  0  0  0
  191.1840  171.9110  142.2470 C   0  0  0  0  0  3  0  0  0  0  0  0
  181.1780  178.9690  141.8660 O   0  0  0  0  0  0  0  0  0  0  0  0
  179.9130  178.4350  142.2610 C   0  0  0  0  0  2  0  0  0  0  0  0
  178.9040  179.5410  142.3170 C   0  0  0  0  0  2  0  0  0  0  0  0
  178.0010  179.0910  141.1580 C   0  0  0  0  0  2  0  0  0  0  0  0
  178.0290  179.6770  139.8300 C   0  0  1  0  0  3  0  0  0  0  0  0
  177.6910  182.1260  140.7670 O   0  0  0  0  0  1  0  0  0  0  0  0
  177.9980  181.8520  138.2270 O   0  0  0  0  0  0  0  0  0  0  0  0
  178.3050  181.2670  139.6850 P   0  0  0  0  0  0  0  0  0  0  0  0
  179.9340  181.1650  139.8420 O   0  0  0  0  0  1  0  0  0  0  0  0
  178.2410  177.2320  139.3480 C   0  0  0  0  0  1  0  0  0  0  0  0
  177.9270  178.6980  138.6990 C   0  0  0  0  0  2  0  0  0  0  0  0
  184.4480  178.9070  144.7140 C   0  0  0  0  0  2  0  0  0  0  0  0
  185.1490  178.8670  147.5620 C   0  0  0  0  0  2  0  0  0  0  0  0
  185.8390  176.7930  145.4930 C   0  0  0  0  0  2  0  0  0  0  0  0
  184.0810  177.9420  146.9300 C   0  0  0  0  0  2  0  0  0  0  0  0
  184.4900  177.6090  145.5120 C   0  0  1  0  0  3  0  0  0  0  0  0
  186.7990  177.3730  146.4120 C   0  0  1  0  0  3  0  0  0  0  0  0
  186.6310  178.5300  147.2490 C   0  0  0  0  0  2  0  0  0  0  0  0
  187.7920  176.4730  146.9770 N   0  0  0  0  0  2  0  0  0  0  0  0
  192.0900  176.5600  144.2960 C   0  0  2  0  0  3  0  0  0  0  0  0
  193.1100  175.5530  144.1520 C   0  0  0  0  0  2  0  0  0  0  0  0
  191.7450  173.9010  145.4180 C   0  0  0  0  0  2  0  0  0  0  0  0
  190.7820  174.9980  145.8270 C   0  0  0  0  0  0  0  0  0  0  0  0
  193.0020  174.4960  145.1370 O   0  0  0  0  0  0  0  0  0  0  0  0
  189.6850  174.8830  146.6490 C   0  0  0  0  0  3  0  0  0  0  0  0
  190.9570  176.2050  145.1820 C   0  0  0  0  0  0  0  0  0  0  0  0
  191.8530  177.4910  143.1660 C   0  0  0  0  0  1  0  0  0  0  0  0
  189.7000  177.1990  145.6390 S   0  0  0  0  0  0  0  0  0  0  0  0
  188.9750  176.1130  146.5960 C   0  0  0  0  0  0  0  0  0  0  0  0
  1  7  2  0  0  0  0
  1  3  1  0  0  0  0
  2  5  2  0  0  0  0
  2  6  1  0  0  0  0
  3  4  2  0  0  0  0
  4  6  1  0  0  0  0
  6 30  1  1  0  0  0
  7  2  1  0  0  0  0
  8  9  2  0  0  0  0
  9  3  1  0  0  0  0
 10 12  2  0  0  0  0
 11 17  1  0  0  0  0
 12  9  1  0  0  0  0
 12 11  1  0  0  0  0
 13 15  2  0  0  0  0
 13 18  1  0  0  0  0
 14 16  1  0  0  0  0
 15 17  1  0  0  0  0
 17 16  2  0  0  0  0
 18 14  2  0  0  0  0
 19 20  1  0  0  0  0
 19  5  1  0  0  0  0
 20 21  1  0  0  0  0
 22 21  1  0  0  0  0
 23 29  1  6  0  0  0
 23 22  1  0  0  0  0
 25 26  2  0  0  0  0
 26 23  1  0  0  0  0
 26 27  1  0  0  0  0
 26 24  1  0  0  0  0
 29 28  1  0  0  0  0
 32 34  1  0  0  0  0
 32 35  1  0  0  0  0
 33 31  1  0  0  0  0
 34 30  1  6  0  0  0
 34 33  1  0  0  0  0
 35 37  1  1  0  0  0
 35 36  1  0  0  0  0
 36 31  1  0  0  0  0
 38 45  1  6  0  0  0
 38 44  1  0  0  0  0
 39 38  1  0  0  0  0
 39 42  1  0  0  0  0
 40 41  1  0  0  0  0
 41 43  1  0  0  0  0
 42 40  1  0  0  0  0
 44 46  1  0  0  0  0
 44 41  2  0  0  0  0
 46 47  1  0  0  0  0
 47 43  2  0  0  0  0
 47 37  1  0  0  0  0
M  END
>  <MODEL>
4

>  <REMARK>
 VINA RESULT:      -7.6      4.807      9.070
  Name = 
  14 active torsions:
  status: ('A' for Active; 'I' for Inactive)
    1  A    between atoms: C_2  and  C_5
    2  A    between atoms: C_2  and  C_40
    3  A    between atoms: C_5  and  O_21
    4  A    between atoms: P_12  and  C_28
    5  A    between atoms: C_13  and  C_31
    6  A    between atoms: N_17  and  C_29
    7  A    between atoms: O_21  and  N_43
    8  A    between atoms: C_22  and  C_46
    9  A    between atoms: C_25  and  N_26
   10  A    between atoms: N_26  and  C_42
   11  A    between atoms: C_28  and  C_33
   12  A    between atoms: C_28  and  C_40
   13  A    between atoms: C_31  and  C_44
   14  A    between atoms: C_34  and  C_46
                            x       y       z     vdW  Elec       q    Type
                         _______ _______ _______ _____ _____    ______ ____

>  <TORSDO>
F 14

$$$$
=
 OpenBabel11042415323D

 47 51  0  0  1  0  0  0  0  0999 V2000
  188.9750  177.7240  147.1520 C   0  0  0  0  0  3  0  0  0  0  0  0
  190.7550  176.1590  146.4940 C   0  0  0  0  0  0  0  0  0  0  0  0
  187.9280  176.8400  146.4880 C   0  0  0  0  0  0  0  0  0  0  0  0
  188.2970  175.7100  145.9060 C   0  0  0  0  0  3  0  0  0  0  0  0
  191.9780  175.7880  146.4910 N   0  0  0  0  0  0  0  0  0  0  0  0
  189.7200  175.4560  145.6510 C   0  0  2  0  0  3  0  0  0  0  0  0
  190.2290  177.3730  147.1600 C   0  0  0  0  0  3  0  0  0  0  0  0
  185.7410  177.1290  147.5340 O   0  0  0  0  0  0  0  0  0  0  0  0
  186.5200  177.3060  146.5460 C   0  0  0  0  0  0  0  0  0  0  0  0
  186.0230  179.2650  145.3230 O   0  0  0  0  0  0  0  0  0  0  0  0
  185.4390  177.3400  144.2560 N   0  0  0  0  0  2  0  0  0  0  0  0
  186.0050  178.0100  145.3500 C   0  0  0  0  0  0  0  0  0  0  0  0
  186.4300  177.2790  140.8040 C   0  0  0  0  0  3  0  0  0  0  0  0
  184.2940  178.2980  140.8550 C   0  0  0  0  0  3  0  0  0  0  0  0
  186.3500  177.0380  142.1570 C   0  0  0  0  0  3  0  0  0  0  0  0
  184.2020  178.0710  142.2280 C   0  0  0  0  0  3  0  0  0  0  0  0
  185.2760  177.4730  142.8610 C   0  0  0  0  0  0  0  0  0  0  0  0
  185.4080  177.9340  140.1180 C   0  0  0  0  0  3  0  0  0  0  0  0
  193.2110  176.2510  146.8460 O   0  0  0  0  0  0  0  0  0  0  0  0
  194.3890  175.9750  146.0860 C   0  0  0  0  0  2  0  0  0  0  0  0
  194.1680  176.3890  144.6620 C   0  0  0  0  0  2  0  0  0  0  0  0
  194.6400  175.1010  143.9700 C   0  0  0  0  0  2  0  0  0  0  0  0
  195.9930  174.8860  143.4910 C   0  0  1  0  0  3  0  0  0  0  0  0
  197.9260  175.6520  141.8560 O   0  0  0  0  0  1  0  0  0  0  0  0
  197.0740  177.3620  143.5810 O   0  0  0  0  0  1  0  0  0  0  0  0
  196.7350  176.0800  142.6840 P   0  0  0  0  0  0  0  0  0  0  0  0
  195.4480  176.4640  141.7430 O   0  0  0  0  0  0  0  0  0  0  0  0
  197.3120  173.8930  145.3690 C   0  0  0  0  0  1  0  0  0  0  0  0
  196.6230  173.5940  143.9180 C   0  0  0  0  0  2  0  0  0  0  0  0
  189.9580  174.3730  144.6800 C   0  0  0  0  0  2  0  0  0  0  0  0
  189.1160  172.9640  142.2480 C   0  0  0  0  0  2  0  0  0  0  0  0
  191.2440  175.0800  142.4750 C   0  0  0  0  0  2  0  0  0  0  0  0
  188.7800  174.4460  142.5380 C   0  0  0  0  0  2  0  0  0  0  0  0
  189.9140  175.0680  143.3240 C   0  0  1  0  0  3  0  0  0  0  0  0
  191.4330  173.8100  141.8040 C   0  0  1  0  0  3  0  0  0  0  0  0
  190.5850  172.6500  141.8560 C   0  0  0  0  0  2  0  0  0  0  0  0
  192.1940  173.8310  140.5650 N   0  0  0  0  0  2  0  0  0  0  0  0
  196.4450  174.7970  137.9820 C   0  0  2  0  0  3  0  0  0  0  0  0
  197.7680  174.2510  138.1420 C   0  0  0  0  0  2  0  0  0  0  0  0
  196.9570  172.6210  139.8400 C   0  0  0  0  0  2  0  0  0  0  0  0
  195.6240  173.3390  139.9050 C   0  0  0  0  0  0  0  0  0  0  0  0
  197.9380  173.5450  139.3970 O   0  0  0  0  0  0  0  0  0  0  0  0
  194.5580  173.0490  140.7230 C   0  0  0  0  0  3  0  0  0  0  0  0
  195.4240  174.2980  138.9320 C   0  0  0  0  0  0  0  0  0  0  0  0
  196.0160  175.2220  136.6270 C   0  0  0  0  0  1  0  0  0  0  0  0
  193.8500  174.8270  139.0740 S   0  0  0  0  0  0  0  0  0  0  0  0
  193.4630  173.8550  140.3090 C   0  0  0  0  0  0  0  0  0  0  0  0
  1  7  2  0  0  0  0
  2  7  1  0  0  0  0
  3  9  1  0  0  0  0
  3  1  1  0  0  0  0
  4  3  2  0  0  0  0
  5  2  2  0  0  0  0
  5 19  1  0  0  0  0
  6 30  1  1  0  0  0
  6  4  1  0  0  0  0
  6  2  1  0  0  0  0
  9  8  2  0  0  0  0
 10 12  2  0  0  0  0
 11 12  1  0  0  0  0
 12  9  1  0  0  0  0
 13 15  1  0  0  0  0
 14 16  2  0  0  0  0
 15 17  2  0  0  0  0
 16 17  1  0  0  0  0
 17 11  1  0  0  0  0
 18 13  2  0  0  0  0
 18 14  1  0  0  0  0
 20 19  1  0  0  0  0
 21 20  1  0  0  0  0
 22 21  1  0  0  0  0
 23 29  1  1  0  0  0
 23 22  1  0  0  0  0
 24 26  1  0  0  0  0
 26 23  1  0  0  0  0
 26 25  1  0  0  0  0
 27 26  2  0  0  0  0
 29 28  1  0  0  0  0
 31 33  1  0  0  0  0
 32 34  1  0  0  0  0
 33 34  1  0  0  0  0
 34 30  1  1  0  0  0
 35 37  1  6  0  0  0
 35 36  1  0  0  0  0
 35 32  1  0  0  0  0
 36 31  1  0  0  0  0
 38 45  1  6  0  0  0
 38 39  1  0  0  0  0
 38 44  1  0  0  0  0
 39 42  1  0  0  0  0
 40 41  1  0  0  0  0
 41 43  1  0  0  0  0
 42 40  1  0  0  0  0
 44 46  1  0  0  0  0
 44 41  2  0  0  0  0
 46 47  1  0  0  0  0
 47 37  1  0  0  0  0
 47 43  2  0  0  0  0
M  END
>  <MODEL>
5

>  <REMARK>
 VINA RESULT:      -7.6      3.902      8.916
  Name = 
  14 active torsions:
  status: ('A' for Active; 'I' for Inactive)
    1  A    between atoms: C_2  and  C_5
    2  A    between atoms: C_2  and  C_40
    3  A    between atoms: C_5  and  O_21
    4  A    between atoms: P_12  and  C_28
    5  A    between atoms: C_13  and  C_31
    6  A    between atoms: N_17  and  C_29
    7  A    between atoms: O_21  and  N_43
    8  A    between atoms: C_22  and  C_46
    9  A    between atoms: C_25  and  N_26
   10  A    between atoms: N_26  and  C_42
   11  A    between atoms: C_28  and  C_33
   12  A    between atoms: C_28  and  C_40
   13  A    between atoms: C_31  and  C_44
   14  A    between atoms: C_34  and  C_46
                            x       y       z     vdW  Elec       q    Type
                         _______ _______ _______ _____ _____    ______ ____

>  <TORSDO>
F 14

$$$$
=
 OpenBabel11042415323D

 47 51  0  0  1  0  0  0  0  0999 V2000
  188.8730  177.8800  147.2240 C   0  0  0  0  0  3  0  0  0  0  0  0
  190.6990  176.2870  146.8020 C   0  0  0  0  0  0  0  0  0  0  0  0
  187.8580  176.8920  146.6640 C   0  0  0  0  0  0  0  0  0  0  0  0
  188.2630  175.7060  146.2400 C   0  0  0  0  0  3  0  0  0  0  0  0
  191.9290  175.9490  146.8660 N   0  0  0  0  0  0  0  0  0  0  0  0
  189.6950  175.4560  146.0420 C   0  0  2  0  0  3  0  0  0  0  0  0
  190.1340  177.5640  147.2970 C   0  0  0  0  0  3  0  0  0  0  0  0
  185.6230  177.1830  147.6030 O   0  0  0  0  0  0  0  0  0  0  0  0
  186.4390  177.3270  146.6400 C   0  0  0  0  0  0  0  0  0  0  0  0
  185.7990  179.2000  145.3510 O   0  0  0  0  0  0  0  0  0  0  0  0
  185.6200  177.2160  144.2460 N   0  0  0  0  0  2  0  0  0  0  0  0
  185.9610  177.9560  145.3890 C   0  0  0  0  0  0  0  0  0  0  0  0
  186.9040  177.0090  140.8980 C   0  0  0  0  0  3  0  0  0  0  0  0
  184.8560  178.1860  140.7430 C   0  0  0  0  0  3  0  0  0  0  0  0
  186.6860  176.8030  142.2420 C   0  0  0  0  0  3  0  0  0  0  0  0
  184.6260  177.9960  142.1050 C   0  0  0  0  0  3  0  0  0  0  0  0
  185.5910  177.3320  142.8410 C   0  0  0  0  0  0  0  0  0  0  0  0
  186.0000  177.7250  140.1150 C   0  0  0  0  0  3  0  0  0  0  0  0
  193.1460  176.4840  147.1770 O   0  0  0  0  0  0  0  0  0  0  0  0
  194.3420  176.1500  146.4700 C   0  0  0  0  0  2  0  0  0  0  0  0
  194.1210  176.3510  145.0010 C   0  0  0  0  0  2  0  0  0  0  0  0
  194.5680  174.9670  144.5070 C   0  0  0  0  0  2  0  0  0  0  0  0
  195.6400  174.7520  143.5510 C   0  0  1  0  0  3  0  0  0  0  0  0
  196.8210  176.9300  142.6260 O   0  0  0  0  0  1  0  0  0  0  0  0
  194.4640  176.3860  141.7470 O   0  0  0  0  0  1  0  0  0  0  0  0
  195.8360  175.8180  142.3460 P   0  0  0  0  0  0  0  0  0  0  0  0
  196.4320  174.7360  141.2680 O   0  0  0  0  0  0  0  0  0  0  0  0
  196.7760  173.6470  145.4850 C   0  0  0  0  0  1  0  0  0  0  0  0
  196.5550  173.6080  143.8670 C   0  0  0  0  0  2  0  0  0  0  0  0
  189.9750  174.2610  145.2250 C   0  0  0  0  0  2  0  0  0  0  0  0
  189.5270  172.4300  142.9770 C   0  0  0  0  0  2  0  0  0  0  0  0
  191.2360  174.9070  142.9870 C   0  0  0  0  0  2  0  0  0  0  0  0
  188.9220  173.8520  143.0570 C   0  0  0  0  0  2  0  0  0  0  0  0
  189.8850  174.7610  143.7880 C   0  0  1  0  0  3  0  0  0  0  0  0
  191.6800  173.6170  142.4960 C   0  0  1  0  0  3  0  0  0  0  0  0
  191.0470  172.3390  142.6760 C   0  0  0  0  0  2  0  0  0  0  0  0
  192.4930  173.6190  141.2910 N   0  0  0  0  0  2  0  0  0  0  0  0
  192.8710  174.7600  136.3690 C   0  0  2  0  0  3  0  0  0  0  0  0
  191.9190  174.5820  135.3030 C   0  0  0  0  0  2  0  0  0  0  0  0
  190.1640  173.8520  136.9100 C   0  0  0  0  0  2  0  0  0  0  0  0
  191.2000  173.7610  138.0120 C   0  0  0  0  0  0  0  0  0  0  0  0
  190.8270  173.7010  135.6650 O   0  0  0  0  0  0  0  0  0  0  0  0
  191.0060  173.3400  139.3080 C   0  0  0  0  0  3  0  0  0  0  0  0
  192.4350  174.2950  137.7060 C   0  0  0  0  0  0  0  0  0  0  0  0
  193.8270  175.8910  136.2800 C   0  0  0  0  0  1  0  0  0  0  0  0
  193.3520  174.2540  139.0960 S   0  0  0  0  0  0  0  0  0  0  0  0
  192.2020  173.6010  140.0290 C   0  0  0  0  0  0  0  0  0  0  0  0
  1  7  2  0  0  0  0
  2  5  2  0  0  0  0
  2  7  1  0  0  0  0
  3  1  1  0  0  0  0
  4  3  2  0  0  0  0
  5 19  1  0  0  0  0
  6 30  1  1  0  0  0
  6  4  1  0  0  0  0
  6  2  1  0  0  0  0
  9  3  1  0  0  0  0
  9  8  2  0  0  0  0
 10 12  2  0  0  0  0
 11 12  1  0  0  0  0
 12  9  1  0  0  0  0
 13 15  1  0  0  0  0
 14 16  2  0  0  0  0
 15 17  2  0  0  0  0
 16 17  1  0  0  0  0
 17 11  1  0  0  0  0
 18 14  1  0  0  0  0
 18 13  2  0  0  0  0
 20 19  1  0  0  0  0
 21 20  1  0  0  0  0
 22 21  1  0  0  0  0
 23 29  1  1  0  0  0
 23 22  1  0  0  0  0
 25 26  1  0  0  0  0
 26 24  1  0  0  0  0
 26 23  1  0  0  0  0
 27 26  2  0  0  0  0
 29 28  1  0  0  0  0
 31 33  1  0  0  0  0
 32 34  1  0  0  0  0
 33 34  1  0  0  0  0
 34 30  1  1  0  0  0
 35 37  1  6  0  0  0
 35 36  1  0  0  0  0
 35 32  1  0  0  0  0
 36 31  1  0  0  0  0
 38 45  1  1  0  0  0
 38 44  1  0  0  0  0
 39 42  1  0  0  0  0
 39 38  1  0  0  0  0
 40 41  1  0  0  0  0
 41 43  1  0  0  0  0
 42 40  1  0  0  0  0
 43 47  2  0  0  0  0
 44 41  2  0  0  0  0
 44 46  1  0  0  0  0
 46 47  1  0  0  0  0
 47 37  1  0  0  0  0
M  END
>  <MODEL>
6

>  <REMARK>
 VINA RESULT:      -7.5      3.019      8.200
  Name = 
  14 active torsions:
  status: ('A' for Active; 'I' for Inactive)
    1  A    between atoms: C_2  and  C_5
    2  A    between atoms: C_2  and  C_40
    3  A    between atoms: C_5  and  O_21
    4  A    between atoms: P_12  and  C_28
    5  A    between atoms: C_13  and  C_31
    6  A    between atoms: N_17  and  C_29
    7  A    between atoms: O_21  and  N_43
    8  A    between atoms: C_22  and  C_46
    9  A    between atoms: C_25  and  N_26
   10  A    between atoms: N_26  and  C_42
   11  A    between atoms: C_28  and  C_33
   12  A    between atoms: C_28  and  C_40
   13  A    between atoms: C_31  and  C_44
   14  A    between atoms: C_34  and  C_46
                            x       y       z     vdW  Elec       q    Type
                         _______ _______ _______ _____ _____    ______ ____

>  <TORSDO>
F 14

$$$$
=
 OpenBabel11042415323D

 47 51  0  0  1  0  0  0  0  0999 V2000
  191.9120  176.1470  147.2040 C   0  0  0  0  0  3  0  0  0  0  0  0
  189.6720  175.5210  146.4050 C   0  0  0  0  0  0  0  0  0  0  0  0
  192.5410  175.5940  145.9320 C   0  0  0  0  0  0  0  0  0  0  0  0
  191.7680  175.0760  144.9910 C   0  0  0  0  0  3  0  0  0  0  0  0
  188.4020  175.4890  146.5380 N   0  0  0  0  0  0  0  0  0  0  0  0
  190.3630  174.7760  145.2890 C   0  0  2  0  0  3  0  0  0  0  0  0
  190.6210  176.1240  147.3690 C   0  0  0  0  0  3  0  0  0  0  0  0
  194.7770  176.2250  146.6800 O   0  0  0  0  0  0  0  0  0  0  0  0
  194.0180  175.6820  145.8180 C   0  0  0  0  0  0  0  0  0  0  0  0
  195.0670  173.9310  144.6300 O   0  0  0  0  0  0  0  0  0  0  0  0
  194.7830  175.8330  143.4090 N   0  0  0  0  0  2  0  0  0  0  0  0
  194.6250  175.1050  144.5980 C   0  0  0  0  0  0  0  0  0  0  0  0
  193.6400  174.7030  140.1960 C   0  0  0  0  0  3  0  0  0  0  0  0
  195.8770  175.4110  139.8840 C   0  0  0  0  0  3  0  0  0  0  0  0
  193.6850  175.1300  141.5040 C   0  0  0  0  0  3  0  0  0  0  0  0
  195.9430  175.8390  141.2100 C   0  0  0  0  0  3  0  0  0  0  0  0
  194.8340  175.6410  142.0120 C   0  0  0  0  0  0  0  0  0  0  0  0
  194.7460  174.8160  139.3540 C   0  0  0  0  0  3  0  0  0  0  0  0
  187.4420  175.7550  147.4710 O   0  0  0  0  0  0  0  0  0  0  0  0
  186.6620  176.9520  147.4580 C   0  0  0  0  0  2  0  0  0  0  0  0
  185.5760  176.8230  146.4330 C   0  0  0  0  0  2  0  0  0  0  0  0
  186.0260  177.9390  145.4760 C   0  0  0  0  0  2  0  0  0  0  0  0
  186.1720  177.7690  144.0420 C   0  0  1  0  0  3  0  0  0  0  0  0
  183.7500  178.2760  143.1090 O   0  0  0  0  0  1  0  0  0  0  0  0
  185.7470  178.7110  141.5450 O   0  0  0  0  0  0  0  0  0  0  0  0
  185.2190  178.6300  143.0540 P   0  0  0  0  0  0  0  0  0  0  0  0
  185.5200  180.0800  143.7590 O   0  0  0  0  0  1  0  0  0  0  0  0
  188.6610  177.7820  143.8080 C   0  0  0  0  0  1  0  0  0  0  0  0
  187.3070  176.8880  143.6160 C   0  0  0  0  0  2  0  0  0  0  0  0
  189.7350  173.8730  144.3070 C   0  0  0  0  0  2  0  0  0  0  0  0
  188.6100  174.0560  141.6050 C   0  0  0  0  0  2  0  0  0  0  0  0
  191.1330  172.6380  142.4270 C   0  0  0  0  0  2  0  0  0  0  0  0
  189.8770  174.8190  142.0580 C   0  0  0  0  0  2  0  0  0  0  0  0
  190.6230  173.9830  143.0740 C   0  0  1  0  0  3  0  0  0  0  0  0
  190.0960  172.0390  141.6110 C   0  0  1  0  0  3  0  0  0  0  0  0
  188.7640  172.5290  141.3770 C   0  0  0  0  0  2  0  0  0  0  0  0
  190.5330  171.2020  140.5050 N   0  0  0  0  0  2  0  0  0  0  0  0
  194.5900  171.4620  137.4820 C   0  0  2  0  0  3  0  0  0  0  0  0
  194.7820  172.1880  136.2530 C   0  0  0  0  0  2  0  0  0  0  0  0
  192.5800  173.3200  136.5060 C   0  0  0  0  0  2  0  0  0  0  0  0
  192.2200  172.3840  137.6420 C   0  0  0  0  0  0  0  0  0  0  0  0
  193.5400  172.6740  135.6860 O   0  0  0  0  0  0  0  0  0  0  0  0
  191.0370  172.3350  138.3410 C   0  0  0  0  0  3  0  0  0  0  0  0
  193.2550  171.5980  138.1070 C   0  0  0  0  0  0  0  0  0  0  0  0
  195.7690  171.2220  138.3500 C   0  0  0  0  0  1  0  0  0  0  0  0
  192.6970  170.7900  139.4540 S   0  0  0  0  0  0  0  0  0  0  0  0
  191.2160  171.4420  139.4320 C   0  0  0  0  0  0  0  0  0  0  0  0
  1  7  2  0  0  0  0
  2  5  2  0  0  0  0
  2  7  1  0  0  0  0
  3  1  1  0  0  0  0
  4  6  1  0  0  0  0
  4  3  2  0  0  0  0
  5 19  1  0  0  0  0
  6 30  1  6  0  0  0
  6  2  1  0  0  0  0
  9  3  1  0  0  0  0
  9  8  2  0  0  0  0
 11 12  1  0  0  0  0
 12 10  2  0  0  0  0
 12  9  1  0  0  0  0
 13 15  1  0  0  0  0
 14 16  2  0  0  0  0
 15 17  2  0  0  0  0
 16 17  1  0  0  0  0
 17 11  1  0  0  0  0
 18 14  1  0  0  0  0
 18 13  2  0  0  0  0
 20 19  1  0  0  0  0
 21 20  1  0  0  0  0
 22 21  1  0  0  0  0
 23 29  1  6  0  0  0
 23 22  1  0  0  0  0
 25 26  2  0  0  0  0
 26 24  1  0  0  0  0
 26 27  1  0  0  0  0
 26 23  1  0  0  0  0
 29 28  1  0  0  0  0
 31 33  1  0  0  0  0
 32 34  1  0  0  0  0
 33 34  1  0  0  0  0
 34 30  1  1  0  0  0
 35 37  1  6  0  0  0
 35 32  1  0  0  0  0
 36 31  1  0  0  0  0
 36 35  1  0  0  0  0
 38 44  1  0  0  0  0
 38 45  1  1  0  0  0
 39 38  1  0  0  0  0
 40 41  1  0  0  0  0
 41 44  2  0  0  0  0
 41 43  1  0  0  0  0
 42 39  1  0  0  0  0
 42 40  1  0  0  0  0
 43 47  2  0  0  0  0
 44 46  1  0  0  0  0
 47 46  1  0  0  0  0
 47 37  1  0  0  0  0
M  END
>  <MODEL>
7

>  <REMARK>
 VINA RESULT:      -7.4      3.105      4.232
  Name = 
  14 active torsions:
  status: ('A' for Active; 'I' for Inactive)
    1  A    between atoms: C_2  and  C_5
    2  A    between atoms: C_2  and  C_40
    3  A    between atoms: C_5  and  O_21
    4  A    between atoms: P_12  and  C_28
    5  A    between atoms: C_13  and  C_31
    6  A    between atoms: N_17  and  C_29
    7  A    between atoms: O_21  and  N_43
    8  A    between atoms: C_22  and  C_46
    9  A    between atoms: C_25  and  N_26
   10  A    between atoms: N_26  and  C_42
   11  A    between atoms: C_28  and  C_33
   12  A    between atoms: C_28  and  C_40
   13  A    between atoms: C_31  and  C_44
   14  A    between atoms: C_34  and  C_46
                            x       y       z     vdW  Elec       q    Type
                         _______ _______ _______ _____ _____    ______ ____

>  <TORSDO>
F 14

$$$$
=
 OpenBabel11042415323D

 47 51  0  0  1  0  0  0  0  0999 V2000
  191.7010  176.7780  147.2040 C   0  0  0  0  0  3  0  0  0  0  0  0
  189.6380  175.7910  146.3000 C   0  0  0  0  0  0  0  0  0  0  0  0
  192.5110  176.1680  146.0680 C   0  0  0  0  0  0  0  0  0  0  0  0
  191.9000  175.4560  145.1360 C   0  0  0  0  0  3  0  0  0  0  0  0
  188.3730  175.6150  146.3280 N   0  0  0  0  0  0  0  0  0  0  0  0
  190.5160  175.0180  145.3470 C   0  0  2  0  0  3  0  0  0  0  0  0
  190.4100  176.6110  147.2610 C   0  0  0  0  0  3  0  0  0  0  0  0
  194.5690  177.1930  146.8920 O   0  0  0  0  0  0  0  0  0  0  0  0
  193.9740  176.4280  146.0710 C   0  0  0  0  0  0  0  0  0  0  0  0
  195.2360  174.6060  145.2530 O   0  0  0  0  0  0  0  0  0  0  0  0
  195.0790  176.3480  143.7940 N   0  0  0  0  0  2  0  0  0  0  0  0
  194.7690  175.7490  145.0240 C   0  0  0  0  0  0  0  0  0  0  0  0
  194.5830  174.6370  140.6750 C   0  0  0  0  0  3  0  0  0  0  0  0
  196.6660  175.7470  140.4900 C   0  0  0  0  0  3  0  0  0  0  0  0
  194.3820  175.2160  141.9080 C   0  0  0  0  0  3  0  0  0  0  0  0
  196.4830  176.3330  141.7430 C   0  0  0  0  0  3  0  0  0  0  0  0
  195.3390  176.0080  142.4510 C   0  0  0  0  0  0  0  0  0  0  0  0
  195.7440  174.8740  139.9390 C   0  0  0  0  0  3  0  0  0  0  0  0
  187.3010  175.8620  147.1350 O   0  0  0  0  0  0  0  0  0  0  0  0
  186.2510  176.7610  146.7750 C   0  0  0  0  0  2  0  0  0  0  0  0
  186.7920  178.1580  146.7220 C   0  0  0  0  0  2  0  0  0  0  0  0
  187.0530  178.2490  145.2100 C   0  0  0  0  0  2  0  0  0  0  0  0
  186.0770  178.7210  144.2450 C   0  0  1  0  0  3  0  0  0  0  0  0
  187.2700  177.9380  142.0180 O   0  0  0  0  0  1  0  0  0  0  0  0
  184.7550  178.4710  141.9010 O   0  0  0  0  0  0  0  0  0  0  0  0
  185.9800  177.9810  142.8060 P   0  0  0  0  0  0  0  0  0  0  0  0
  185.5890  176.5060  143.4080 O   0  0  0  0  0  1  0  0  0  0  0  0
  183.7630  179.0250  145.1400 C   0  0  0  0  0  1  0  0  0  0  0  0
  185.1520  179.7890  144.7450 C   0  0  0  0  0  2  0  0  0  0  0  0
  190.0960  173.9400  144.4340 C   0  0  0  0  0  2  0  0  0  0  0  0
  188.1280  174.4290  142.3150 C   0  0  0  0  0  2  0  0  0  0  0  0
  190.9160  173.3470  141.9870 C   0  0  0  0  0  2  0  0  0  0  0  0
  189.3850  175.3040  142.5340 C   0  0  0  0  0  2  0  0  0  0  0  0
  190.5090  174.4350  143.0530 C   0  0  1  0  0  3  0  0  0  0  0  0
  189.7370  172.7400  141.4010 C   0  0  1  0  0  3  0  0  0  0  0  0
  188.3590  173.0240  141.6990 C   0  0  0  0  0  2  0  0  0  0  0  0
  189.8710  172.2170  140.0510 N   0  0  0  0  0  2  0  0  0  0  0  0
  191.7970  174.8300  136.1610 C   0  0  2  0  0  3  0  0  0  0  0  0
  191.1320  175.4490  135.0440 C   0  0  0  0  0  2  0  0  0  0  0  0
  188.8970  174.9430  136.0150 C   0  0  0  0  0  2  0  0  0  0  0  0
  189.5420  174.0510  137.0560 C   0  0  0  0  0  0  0  0  0  0  0  0
  189.7600  175.0090  134.8910 O   0  0  0  0  0  0  0  0  0  0  0  0
  188.9100  173.3000  138.0200 C   0  0  0  0  0  3  0  0  0  0  0  0
  190.9190  174.1220  137.1210 C   0  0  0  0  0  0  0  0  0  0  0  0
  193.0590  175.4350  136.6550 C   0  0  0  0  0  1  0  0  0  0  0  0
  191.4010  173.2140  138.4330 S   0  0  0  0  0  0  0  0  0  0  0  0
  189.9100  172.7790  138.8860 C   0  0  0  0  0  0  0  0  0  0  0  0
  1  7  2  0  0  0  0
  2  5  2  0  0  0  0
  2  7  1  0  0  0  0
  3  9  1  0  0  0  0
  3  1  1  0  0  0  0
  4  6  1  0  0  0  0
  4  3  2  0  0  0  0
  5 19  1  0  0  0  0
  6 30  1  6  0  0  0
  6  2  1  0  0  0  0
  9  8  2  0  0  0  0
 11 12  1  0  0  0  0
 12 10  2  0  0  0  0
 12  9  1  0  0  0  0
 13 15  1  0  0  0  0
 14 16  2  0  0  0  0
 15 17  2  0  0  0  0
 16 17  1  0  0  0  0
 17 11  1  0  0  0  0
 18 14  1  0  0  0  0
 18 13  2  0  0  0  0
 20 19  1  0  0  0  0
 21 20  1  0  0  0  0
 22 21  1  0  0  0  0
 23 29  1  1  0  0  0
 23 22  1  0  0  0  0
 24 26  1  0  0  0  0
 25 26  2  0  0  0  0
 26 27  1  0  0  0  0
 26 23  1  0  0  0  0
 29 28  1  0  0  0  0
 31 33  1  0  0  0  0
 32 34  1  0  0  0  0
 33 34  1  0  0  0  0
 34 30  1  1  0  0  0
 35 37  1  6  0  0  0
 35 36  1  0  0  0  0
 35 32  1  0  0  0  0
 36 31  1  0  0  0  0
 38 45  1  1  0  0  0
 38 44  1  0  0  0  0
 39 38  1  0  0  0  0
 40 41  1  0  0  0  0
 41 44  2  0  0  0  0
 41 43  1  0  0  0  0
 42 39  1  0  0  0  0
 42 40  1  0  0  0  0
 43 47  2  0  0  0  0
 44 46  1  0  0  0  0
 46 47  1  0  0  0  0
 47 37  1  0  0  0  0
M  END
>  <MODEL>
8

>  <REMARK>
 VINA RESULT:      -7.4      2.768      3.465
  Name = 
  14 active torsions:
  status: ('A' for Active; 'I' for Inactive)
    1  A    between atoms: C_2  and  C_5
    2  A    between atoms: C_2  and  C_40
    3  A    between atoms: C_5  and  O_21
    4  A    between atoms: P_12  and  C_28
    5  A    between atoms: C_13  and  C_31
    6  A    between atoms: N_17  and  C_29
    7  A    between atoms: O_21  and  N_43
    8  A    between atoms: C_22  and  C_46
    9  A    between atoms: C_25  and  N_26
   10  A    between atoms: N_26  and  C_42
   11  A    between atoms: C_28  and  C_33
   12  A    between atoms: C_28  and  C_40
   13  A    between atoms: C_31  and  C_44
   14  A    between atoms: C_34  and  C_46
                            x       y       z     vdW  Elec       q    Type
                         _______ _______ _______ _____ _____    ______ ____

>  <TORSDO>
F 14

$$$$
=
 OpenBabel11042415323D

 47 51  0  0  1  0  0  0  0  0999 V2000
  188.8960  177.9010  146.9480 C   0  0  0  0  0  3  0  0  0  0  0  0
  190.6600  176.1890  146.8610 C   0  0  0  0  0  0  0  0  0  0  0  0
  187.8220  176.8240  146.8760 C   0  0  0  0  0  0  0  0  0  0  0  0
  188.1740  175.5500  146.8240 C   0  0  0  0  0  3  0  0  0  0  0  0
  191.8890  175.8440  146.8830 N   0  0  0  0  0  0  0  0  0  0  0  0
  189.5700  175.1930  146.5480 C   0  0  2  0  0  3  0  0  0  0  0  0
  190.1580  177.5780  146.9680 C   0  0  0  0  0  3  0  0  0  0  0  0
  185.6620  177.3060  147.9090 O   0  0  0  0  0  0  0  0  0  0  0  0
  186.4090  177.2810  146.8810 C   0  0  0  0  0  0  0  0  0  0  0  0
  185.2030  178.7930  145.5250 O   0  0  0  0  0  0  0  0  0  0  0  0
  185.9600  176.9560  144.4110 N   0  0  0  0  0  2  0  0  0  0  0  0
  185.8500  177.7190  145.5830 C   0  0  0  0  0  0  0  0  0  0  0  0
  187.4070  176.6660  141.1360 C   0  0  0  0  0  3  0  0  0  0  0  0
  185.5510  178.1170  140.9060 C   0  0  0  0  0  3  0  0  0  0  0  0
  187.0820  176.4560  142.4570 C   0  0  0  0  0  3  0  0  0  0  0  0
  185.2140  177.9230  142.2450 C   0  0  0  0  0  3  0  0  0  0  0  0
  186.0330  177.1130  143.0110 C   0  0  0  0  0  0  0  0  0  0  0  0
  186.6580  177.5210  140.3280 C   0  0  0  0  0  3  0  0  0  0  0  0
  193.1330  176.4040  146.8480 O   0  0  0  0  0  0  0  0  0  0  0  0
  193.9670  176.3640  145.6890 C   0  0  0  0  0  2  0  0  0  0  0  0
  195.1710  175.5190  145.9740 C   0  0  0  0  0  2  0  0  0  0  0  0
  195.2710  174.7920  144.6230 C   0  0  0  0  0  2  0  0  0  0  0  0
  196.4370  174.8370  143.7610 C   0  0  1  0  0  3  0  0  0  0  0  0
  195.1540  176.2660  141.9440 O   0  0  0  0  0  1  0  0  0  0  0  0
  197.6070  175.6520  141.4650 O   0  0  0  0  0  0  0  0  0  0  0  0
  196.4890  175.9390  142.5740 P   0  0  0  0  0  0  0  0  0  0  0  0
  197.0330  177.1670  143.5150 O   0  0  0  0  0  1  0  0  0  0  0  0
  196.8430  172.6090  144.8220 C   0  0  0  0  0  1  0  0  0  0  0  0
  197.5550  173.9190  144.1540 C   0  0  0  0  0  2  0  0  0  0  0  0
  189.7480  173.7860  146.1450 C   0  0  0  0  0  2  0  0  0  0  0  0
  191.0650  171.9680  144.2570 C   0  0  0  0  0  2  0  0  0  0  0  0
  190.1540  174.7870  143.7270 C   0  0  0  0  0  2  0  0  0  0  0  0
  189.5690  172.3510  144.1740 C   0  0  0  0  0  2  0  0  0  0  0  0
  189.3920  173.7720  144.6630 C   0  0  1  0  0  3  0  0  0  0  0  0
  191.4750  174.2870  143.4010 C   0  0  1  0  0  3  0  0  0  0  0  0
  192.0850  173.0580  143.8330 C   0  0  0  0  0  2  0  0  0  0  0  0
  192.0480  174.7250  142.1380 N   0  0  0  0  0  2  0  0  0  0  0  0
  190.8370  171.7790  138.1980 C   0  0  2  0  0  3  0  0  0  0  0  0
  191.6600  171.2880  137.1240 C   0  0  0  0  0  2  0  0  0  0  0  0
  193.7110  172.2040  138.1960 C   0  0  0  0  0  2  0  0  0  0  0  0
  192.8610  172.9670  139.1910 C   0  0  0  0  0  0  0  0  0  0  0  0
  192.9340  171.9730  137.0320 O   0  0  0  0  0  0  0  0  0  0  0  0
  193.2940  173.8280  140.1730 C   0  0  0  0  0  3  0  0  0  0  0  0
  191.5200  172.6430  139.1890 C   0  0  0  0  0  0  0  0  0  0  0  0
  189.6850  170.9550  138.6390 C   0  0  0  0  0  1  0  0  0  0  0  0
  190.8120  173.4530  140.4620 S   0  0  0  0  0  0  0  0  0  0  0  0
  192.1730  174.1590  140.9810 C   0  0  0  0  0  0  0  0  0  0  0  0
  1  7  2  0  0  0  0
  2  5  2  0  0  0  0
  2  7  1  0  0  0  0
  3  9  1  0  0  0  0
  3  1  1  0  0  0  0
  4  3  2  0  0  0  0
  6 30  1  1  0  0  0
  6  4  1  0  0  0  0
  6  2  1  0  0  0  0
  9  8  2  0  0  0  0
 10 12  2  0  0  0  0
 11 12  1  0  0  0  0
 12  9  1  0  0  0  0
 13 15  1  0  0  0  0
 14 16  2  0  0  0  0
 15 17  2  0  0  0  0
 16 17  1  0  0  0  0
 17 11  1  0  0  0  0
 18 14  1  0  0  0  0
 18 13  2  0  0  0  0
 19  5  1  0  0  0  0
 20 21  1  0  0  0  0
 20 19  1  0  0  0  0
 22 21  1  0  0  0  0
 23 29  1  1  0  0  0
 23 22  1  0  0  0  0
 24 26  1  0  0  0  0
 25 26  2  0  0  0  0
 26 27  1  0  0  0  0
 26 23  1  0  0  0  0
 29 28  1  0  0  0  0
 32 34  1  0  0  0  0
 33 31  1  0  0  0  0
 33 34  1  0  0  0  0
 34 30  1  1  0  0  0
 35 37  1  6  0  0  0
 35 32  1  0  0  0  0
 35 36  1  0  0  0  0
 36 31  1  0  0  0  0
 38 45  1  1  0  0  0
 38 44  1  0  0  0  0
 39 38  1  0  0  0  0
 40 41  1  0  0  0  0
 41 43  1  0  0  0  0
 42 39  1  0  0  0  0
 42 40  1  0  0  0  0
 43 47  2  0  0  0  0
 44 41  2  0  0  0  0
 44 46  1  0  0  0  0
 46 47  1  0  0  0  0
 47 37  1  0  0  0  0
M  END
>  <MODEL>
9

>  <REMARK>
 VINA RESULT:      -7.4      3.376      8.507
  Name = 
  14 active torsions:
  status: ('A' for Active; 'I' for Inactive)
    1  A    between atoms: C_2  and  C_5
    2  A    between atoms: C_2  and  C_40
    3  A    between atoms: C_5  and  O_21
    4  A    between atoms: P_12  and  C_28
    5  A    between atoms: C_13  and  C_31
    6  A    between atoms: N_17  and  C_29
    7  A    between atoms: O_21  and  N_43
    8  A    between atoms: C_22  and  C_46
    9  A    between atoms: C_25  and  N_26
   10  A    between atoms: N_26  and  C_42
   11  A    between atoms: C_28  and  C_33
   12  A    between atoms: C_28  and  C_40
   13  A    between atoms: C_31  and  C_44
   14  A    between atoms: C_34  and  C_46
                            x       y       z     vdW  Elec       q    Type
                         _______ _______ _______ _____ _____    ______ ____

>  <TORSDO>
F 14

$$$$
