=
 OpenBabel11042418563D

 68 73  0  0  1  0  0  0  0  0999 V2000
  187.0410  178.2650  147.6800 C   0  0  0  0  0  2  0  0  0  0  0  0
  188.1020  176.4730  143.0780 C   0  0  0  0  0  2  0  0  0  0  0  0
  189.6590  176.9390  146.8600 C   0  0  0  0  0  0  0  0  0  0  0  0
  189.8070  175.7240  144.7700 C   0  0  0  0  0  0  0  0  0  0  0  0
  188.3300  178.9490  147.2380 C   0  0  0  0  0  2  0  0  0  0  0  0
  186.7980  176.3960  143.8590 C   0  0  0  0  0  2  0  0  0  0  0  0
  184.7850  177.6340  144.6720 C   0  0  0  0  0  2  0  0  0  0  0  0
  189.5230  178.0840  147.4750 C   0  0  0  0  0  3  0  0  0  0  0  0
  189.7820  175.7900  146.2480 C   0  0  0  0  0  0  0  0  0  0  0  0
  186.1630  177.7730  144.0760 C   0  0  1  0  0  0  0  0  0  0  0  0
  185.8880  178.3110  145.4740 C   0  0  2  0  0  3  0  0  0  0  0  0
  189.2700  176.8840  143.9630 C   0  0  0  0  0  2  0  0  0  0  0  0
  185.4810  176.5860  147.1040 F   0  0  0  0  0  0  0  0  0  0  0  0
  190.4120  174.6860  144.1760 C   0  0  0  0  0  3  0  0  0  0  0  0
  186.4560  177.4070  146.5710 C   0  0  2  0  0  3  0  0  0  0  0  0
  190.1120  174.5960  147.0810 C   0  0  0  0  0  2  0  0  0  0  0  0
  191.4010  174.8020  147.8700 C   0  0  0  0  0  2  0  0  0  0  0  0
  192.4210  175.6530  147.1140 C   0  0  0  0  0  2  0  0  0  0  0  0
  193.3480  174.7960  146.2660 C   0  0  0  0  0  2  0  0  0  0  0  0
  196.1470  175.1000  144.4390 N   0  0  0  0  0  0  0  0  0  0  0  0
  194.7330  175.4120  146.2440 C   0  0  1  0  0  3  0  0  0  0  0  0
  195.6920  174.5380  145.5100 C   0  0  0  0  0  0  0  0  0  0  0  0
  194.7770  176.5680  145.3060 C   0  0  0  0  0  0  0  0  0  0  0  0
  195.5830  176.3730  144.3190 N   0  0  0  0  0  0  0  0  0  0  0  0
  194.0810  177.7960  145.5050 N   0  0  0  0  0  1  0  0  0  0  0  0
  196.0610  173.2180  145.9220 N   0  0  0  0  0  2  0  0  0  0  0  0
  197.0320  172.4100  145.1920 C   0  0  1  0  0  3  0  0  0  0  0  0
  196.5300  170.9930  144.9270 C   0  0  2  0  0  0  0  0  0  0  0  0
  197.0350  170.0670  146.0190 C   0  0  0  0  0  1  0  0  0  0  0  0
  195.9330  172.0500  142.1390 O   0  0  0  0  0  1  0  0  0  0  0  0
  197.1090  170.6180  143.6310 N   0  0  2  0  0  0  0  0  0  0  0  0
  197.1350  171.8580  142.8380 C   0  0  2  0  0  3  0  0  0  0  0  0
  197.3070  173.0020  143.8220 C   0  0  0  0  0  2  0  0  0  0  0  0
  195.1260  170.9570  144.8860 O   0  0  0  0  0  1  0  0  0  0  0  0
  197.2080  168.2640  142.9810 C   0  0  0  0  0  2  0  0  0  0  0  0
  197.1380  169.0970  141.7220 C   0  0  0  0  0  2  0  0  0  0  0  0
  196.3750  169.5370  142.9590 C   0  0  0  0  0  3  0  0  0  0  0  0
  186.1950  178.8240  142.9770 C   0  0  0  0  0  2  0  0  0  0  0  0
  185.0310  178.7340  142.1680 O   0  0  0  0  0  0  0  0  0  0  0  0
  183.9000  178.0470  140.1620 O   0  0  0  0  0  0  0  0  0  0  0  0
  185.0650  178.1330  140.9100 C   0  0  0  0  0  0  0  0  0  0  0  0
  186.1450  177.6820  140.4360 O   0  0  0  0  0  1  0  0  0  0  0  0
  190.5610  174.5440  142.6870 C   0  0  1  0  0  3  0  0  0  0  0  0
  192.8500  173.9600  141.8050 C   0  0  0  0  0  3  0  0  0  0  0  0
  191.6610  173.5940  142.2930 C   0  0  0  0  0  3  0  0  0  0  0  0
  193.3130  175.3460  141.5640 C   0  0  0  0  0  0  0  0  0  0  0  0
  194.3100  175.6120  140.5760 N   0  0  0  0  0  2  0  0  0  0  0  0
  192.8270  176.3100  142.2130 O   0  0  0  0  0  0  0  0  0  0  0  0
  194.8510  174.5800  139.7040 C   0  0  0  0  0  2  0  0  0  0  0  0
  193.9070  174.3360  138.5450 C   0  0  1  0  0  3  0  0  0  0  0  0
  193.2180  175.9990  136.9820 O   0  0  0  0  0  0  0  0  0  0  0  0
  194.1720  175.3360  137.4640 C   0  0  0  0  0  0  0  0  0  0  0  0
  195.4640  175.5390  136.9910 O   0  0  0  0  0  1  0  0  0  0  0  0
  194.0790  172.8910  138.0490 C   0  0  0  0  0  2  0  0  0  0  0  0
  191.9700  169.5500  140.9110 C   0  0  0  0  0  1  0  0  0  0  0  0
  191.7100  170.6730  139.9250 C   0  0  2  0  0  3  0  0  0  0  0  0
  191.9350  169.8030  137.5600 C   0  0  0  0  0  2  0  0  0  0  0  0
  192.7610  171.0430  137.1610 C   0  0  0  0  0  2  0  0  0  0  0  0
  192.9130  172.0210  138.2590 N   0  0  0  0  0  0  0  0  0  0  0  0
  190.9690  170.1330  138.6950 C   0  0  0  0  0  2  0  0  0  0  0  0
  193.0320  171.3540  139.5580 C   0  0  0  0  0  2  0  0  0  0  0  0
  189.3330  174.2880  142.0360 O   0  0  0  0  0  0  0  0  0  0  0  0
  189.3630  173.0080  141.4510 C   0  0  0  0  0  2  0  0  0  0  0  0
  188.3750  172.9330  140.2960 C   0  0  0  0  0  2  0  0  0  0  0  0
  188.6730  173.9810  139.2320 C   0  0  0  0  0  2  0  0  0  0  0  0
  190.0350  173.7490  138.5860 C   0  0  0  0  0  2  0  0  0  0  0  0
  189.9290  173.7280  137.0670 C   0  0  0  0  0  2  0  0  0  0  0  0
  189.1910  172.6230  136.6470 O   0  0  0  0  0  1  0  0  0  0  0  0
  2  6  1  0  0  0  0
  2 12  1  0  0  0  0
  3  8  2  0  0  0  0
  4  9  1  0  0  0  0
  5  8  1  0  0  0  0
  5  1  1  0  0  0  0
  6 10  1  0  0  0  0
  9  3  2  0  0  0  0
  9 16  1  0  0  0  0
 10 38  1  6  0  0  0
 10  7  1  0  0  0  0
 10 11  1  0  0  0  0
 11  7  1  1  0  0  0
 11 15  1  0  0  0  0
 12  4  1  0  0  0  0
 14  4  2  0  0  0  0
 15 13  1  1  0  0  0
 15  1  1  0  0  0  0
 16 17  1  0  0  0  0
 18 17  1  0  0  0  0
 19 18  1  0  0  0  0
 20 22  2  0  0  0  0
 21 19  1  6  0  0  0
 22 26  1  0  0  0  0
 22 21  1  0  0  0  0
 23 25  1  0  0  0  0
 23 21  1  0  0  0  0
 24 20  1  0  0  0  0
 24 23  2  0  0  0  0
 27 26  1  6  0  0  0
 28 27  1  0  0  0  0
 28 29  1  1  0  0  0
 31 37  1  6  0  0  0
 31 28  1  0  0  0  0
 32 30  1  1  0  0  0
 32 31  1  0  0  0  0
 32 33  1  0  0  0  0
 33 27  1  0  0  0  0
 34 28  1  0  0  0  0
 36 37  1  0  0  0  0
 36 35  1  0  0  0  0
 37 35  1  0  0  0  0
 39 38  1  0  0  0  0
 40 41  2  0  0  0  0
 41 39  1  0  0  0  0
 42 41  1  0  0  0  0
 43 45  1  1  0  0  0
 43 14  1  0  0  0  0
 44 45  2  0  0  0  0
 46 44  1  0  0  0  0
 46 48  2  0  0  0  0
 47 46  1  0  0  0  0
 49 47  1  0  0  0  0
 50 54  1  6  0  0  0
 50 49  1  0  0  0  0
 51 52  2  0  0  0  0
 52 50  1  0  0  0  0
 53 52  1  0  0  0  0
 54 59  1  0  0  0  0
 56 55  1  1  0  0  0
 57 60  1  0  0  0  0
 58 57  1  0  0  0  0
 58 59  1  0  0  0  0
 59 61  1  0  0  0  0
 60 56  1  0  0  0  0
 61 56  1  0  0  0  0
 62 43  1  0  0  0  0
 63 62  1  0  0  0  0
 64 63  1  0  0  0  0
 65 64  1  0  0  0  0
 66 65  1  0  0  0  0
 67 66  1  0  0  0  0
 68 67  1  0  0  0  0
M  END
>  <MODEL>
1

>  <REMARK>
 VINA RESULT:      -6.0      0.000      0.000
  Name = 
  24 active torsions:
  status: ('A' for Active; 'I' for Inactive)
    1  A    between atoms: C_1  and  C_38
    2  A    between atoms: C_1  and  O_52
    3  A    between atoms: C_2  and  C_4
    4  A    between atoms: C_3  and  N_61
    5  A    between atoms: C_5  and  C_35
    6  A    between atoms: C_5  and  N_42
    7  A    between atoms: C_10  and  C_31
    8  A    between atoms: C_10  and  C_58
    9  A    between atoms: C_16  and  C_18
   10  A    between atoms: C_16  and  C_25
   11  A    between atoms: C_18  and  C_27
   12  A    between atoms: C_22  and  C_33
   13  A    between atoms: C_27  and  C_33
   14  A    between atoms: C_29  and  O_52
   15  A    between atoms: C_31  and  C_34
   16  A    between atoms: C_32  and  C_58
   17  A    between atoms: C_34  and  O_56
   18  A    between atoms: C_35  and  C_37
   19  A    between atoms: C_35  and  C_47
   20  A    between atoms: N_36  and  C_67
   21  A    between atoms: C_37  and  N_60
   22  A    between atoms: C_55  and  C_57
   23  A    between atoms: O_56  and  C_57
   24  A    between atoms: C_57  and  C_64
                            x       y       z     vdW  Elec       q    Type
                         _______ _______ _______ _____ _____    ______ ____

>  <TORSDO>
F 24

$$$$
=
 OpenBabel11042418563D

 68 73  0  0  1  0  0  0  0  0999 V2000
  197.0740  175.6250  142.4620 C   0  0  0  0  0  2  0  0  0  0  0  0
  193.3160  172.7690  144.2580 C   0  0  0  0  0  2  0  0  0  0  0  0
  194.6400  174.7070  140.8770 C   0  0  0  0  0  0  0  0  0  0  0  0
  193.2020  172.9660  141.7530 C   0  0  0  0  0  0  0  0  0  0  0  0
  195.7860  176.3990  142.2080 C   0  0  0  0  0  2  0  0  0  0  0  0
  194.8120  172.6580  144.5190 C   0  0  0  0  0  2  0  0  0  0  0  0
  196.7950  173.6240  145.6950 C   0  0  0  0  0  2  0  0  0  0  0  0
  195.0950  175.9280  140.9720 C   0  0  0  0  0  3  0  0  0  0  0  0
  194.1980  173.4800  140.7860 C   0  0  0  0  0  0  0  0  0  0  0  0
  195.3640  173.8650  145.2860 C   0  0  1  0  0  0  0  0  0  0  0  0
  196.4700  174.7360  144.7070 C   0  0  2  0  0  3  0  0  0  0  0  0
  193.0120  173.6750  143.0740 C   0  0  0  0  0  2  0  0  0  0  0  0
  197.9390  173.5560  143.2080 F   0  0  0  0  0  0  0  0  0  0  0  0
  192.4060  171.9510  141.3880 C   0  0  0  0  0  3  0  0  0  0  0  0
  196.8170  174.3610  143.2640 C   0  0  2  0  0  3  0  0  0  0  0  0
  194.5620  172.7020  139.5640 C   0  0  0  0  0  2  0  0  0  0  0  0
  196.0470  172.8280  139.2430 C   0  0  0  0  0  2  0  0  0  0  0  0
  196.5980  171.5970  138.5250 C   0  0  0  0  0  2  0  0  0  0  0  0
  195.6500  170.4130  138.6330 C   0  0  0  0  0  2  0  0  0  0  0  0
  194.6510  171.1400  135.5120 N   0  0  0  0  0  0  0  0  0  0  0  0
  195.4120  169.8240  137.2570 C   0  0  1  0  0  3  0  0  0  0  0  0
  194.2760  170.5070  136.5750 C   0  0  0  0  0  0  0  0  0  0  0  0
  196.4820  170.2520  136.3130 C   0  0  0  0  0  0  0  0  0  0  0  0
  196.0270  170.9710  135.3430 N   0  0  0  0  0  0  0  0  0  0  0  0
  197.8470  169.8500  136.4030 N   0  0  0  0  0  1  0  0  0  0  0  0
  192.9240  170.4880  137.0420 N   0  0  0  0  0  2  0  0  0  0  0  0
  191.8350  171.1400  136.3220 C   0  0  1  0  0  3  0  0  0  0  0  0
  190.7730  171.7060  137.2610 C   0  0  2  0  0  0  0  0  0  0  0  0
  189.6530  170.6940  137.4230 C   0  0  0  0  0  1  0  0  0  0  0  0
  192.1570  174.3620  136.7390 O   0  0  0  0  0  1  0  0  0  0  0  0
  190.2750  172.9140  136.5920 N   0  0  2  0  0  0  0  0  0  0  0  0
  191.4420  173.4910  135.9030 C   0  0  2  0  0  3  0  0  0  0  0  0
  192.3460  172.3300  135.5310 C   0  0  0  0  0  2  0  0  0  0  0  0
  191.3230  172.0110  138.5170 O   0  0  0  0  0  1  0  0  0  0  0  0
  188.1640  173.5280  137.6600 C   0  0  0  0  0  2  0  0  0  0  0  0
  188.5890  174.6710  136.7680 C   0  0  0  0  0  2  0  0  0  0  0  0
  189.6400  173.8670  137.5130 C   0  0  0  0  0  3  0  0  0  0  0  0
  194.5590  174.5050  146.4070 C   0  0  0  0  0  2  0  0  0  0  0  0
  194.5860  175.9200  146.2930 O   0  0  0  0  0  0  0  0  0  0  0  0
  192.8360  177.1270  147.4140 O   0  0  0  0  0  1  0  0  0  0  0  0
  193.4100  176.6670  146.2370 C   0  0  0  0  0  0  0  0  0  0  0  0
  192.8700  176.9450  145.1300 O   0  0  0  0  0  0  0  0  0  0  0  0
  191.3140  171.3900  142.2570 C   0  0  1  0  0  3  0  0  0  0  0  0
  189.2260  172.5730  143.0300 C   0  0  0  0  0  3  0  0  0  0  0  0
  189.9880  172.0770  142.0520 C   0  0  0  0  0  3  0  0  0  0  0  0
  189.5280  172.5510  144.4790 C   0  0  0  0  0  0  0  0  0  0  0  0
  189.9080  173.7510  145.1560 N   0  0  0  0  0  2  0  0  0  0  0  0
  189.4430  171.4820  145.1400 O   0  0  0  0  0  0  0  0  0  0  0  0
  189.9310  175.0510  144.5010 C   0  0  0  0  0  2  0  0  0  0  0  0
  188.9240  175.9750  145.1540 C   0  0  1  0  0  3  0  0  0  0  0  0
  189.5700  177.6910  146.6780 O   0  0  0  0  0  0  0  0  0  0  0  0
  189.4630  176.4560  146.4650 C   0  0  0  0  0  0  0  0  0  0  0  0
  189.8410  175.5490  147.4490 O   0  0  0  0  0  1  0  0  0  0  0  0
  188.6130  177.1390  144.1990 C   0  0  0  0  0  2  0  0  0  0  0  0
  185.2780  178.0720  140.7620 C   0  0  0  0  0  1  0  0  0  0  0  0
  185.5240  177.3780  142.0880 C   0  0  2  0  0  3  0  0  0  0  0  0
  185.3480  179.0530  143.9760 C   0  0  0  0  0  2  0  0  0  0  0  0
  186.6260  178.4850  144.6260 C   0  0  0  0  0  2  0  0  0  0  0  0
  187.1860  177.3270  143.8970 N   0  0  0  0  0  0  0  0  0  0  0  0
  184.6200  177.9790  143.1720 C   0  0  0  0  0  2  0  0  0  0  0  0
  187.0100  177.4680  142.4500 C   0  0  0  0  0  2  0  0  0  0  0  0
  191.2350  169.9810  142.1960 O   0  0  0  0  0  0  0  0  0  0  0  0
  192.5240  169.4260  142.3140 C   0  0  0  0  0  2  0  0  0  0  0  0
  192.7330  168.8740  143.7160 C   0  0  0  0  0  2  0  0  0  0  0  0
  194.1520  169.1210  144.2110 C   0  0  0  0  0  2  0  0  0  0  0  0
  194.3610  168.5550  145.6120 C   0  0  0  0  0  2  0  0  0  0  0  0
  194.9510  169.6000  146.5480 C   0  0  0  0  0  2  0  0  0  0  0  0
  196.2660  169.8880  146.1870 O   0  0  0  0  0  1  0  0  0  0  0  0
  1 15  1  0  0  0  0
  2  6  1  0  0  0  0
  3  8  2  0  0  0  0
  4 12  1  0  0  0  0
  5  1  1  0  0  0  0
  6 10  1  0  0  0  0
  8  5  1  0  0  0  0
  9  3  2  0  0  0  0
  9  4  1  0  0  0  0
 10  7  1  0  0  0  0
 10 38  1  1  0  0  0
 11 10  1  0  0  0  0
 11  7  1  1  0  0  0
 12  2  1  0  0  0  0
 14  4  2  0  0  0  0
 15 13  1  1  0  0  0
 15 11  1  0  0  0  0
 16  9  1  0  0  0  0
 17 16  1  0  0  0  0
 18 19  1  0  0  0  0
 18 17  1  0  0  0  0
 20 22  2  0  0  0  0
 21 19  1  1  0  0  0
 22 26  1  0  0  0  0
 22 21  1  0  0  0  0
 23 25  1  0  0  0  0
 23 21  1  0  0  0  0
 24 20  1  0  0  0  0
 24 23  2  0  0  0  0
 27 26  1  1  0  0  0
 27 28  1  0  0  0  0
 28 29  1  1  0  0  0
 28 34  1  0  0  0  0
 31 28  1  0  0  0  0
 31 37  1  1  0  0  0
 32 31  1  0  0  0  0
 32 30  1  1  0  0  0
 33 32  1  0  0  0  0
 33 27  1  0  0  0  0
 36 37  1  0  0  0  0
 36 35  1  0  0  0  0
 37 35  1  0  0  0  0
 39 38  1  0  0  0  0
 41 39  1  0  0  0  0
 41 40  1  0  0  0  0
 42 41  2  0  0  0  0
 43 14  1  6  0  0  0
 44 46  1  0  0  0  0
 45 43  1  0  0  0  0
 45 44  2  0  0  0  0
 46 48  2  0  0  0  0
 46 47  1  0  0  0  0
 49 50  1  0  0  0  0
 49 47  1  0  0  0  0
 50 54  1  6  0  0  0
 50 52  1  0  0  0  0
 52 51  2  0  0  0  0
 52 53  1  0  0  0  0
 56 55  1  6  0  0  0
 56 61  1  0  0  0  0
 56 60  1  0  0  0  0
 57 58  1  0  0  0  0
 59 54  1  0  0  0  0
 59 58  1  0  0  0  0
 60 57  1  0  0  0  0
 61 59  1  0  0  0  0
 62 43  1  0  0  0  0
 62 63  1  0  0  0  0
 63 64  1  0  0  0  0
 64 65  1  0  0  0  0
 65 66  1  0  0  0  0
 66 67  1  0  0  0  0
 68 67  1  0  0  0  0
M  END
>  <MODEL>
2

>  <REMARK>
 VINA RESULT:      -5.5      3.536      9.507
  Name = 
  24 active torsions:
  status: ('A' for Active; 'I' for Inactive)
    1  A    between atoms: C_1  and  C_38
    2  A    between atoms: C_1  and  O_52
    3  A    between atoms: C_2  and  C_4
    4  A    between atoms: C_3  and  N_61
    5  A    between atoms: C_5  and  C_35
    6  A    between atoms: C_5  and  N_42
    7  A    between atoms: C_10  and  C_31
    8  A    between atoms: C_10  and  C_58
    9  A    between atoms: C_16  and  C_18
   10  A    between atoms: C_16  and  C_25
   11  A    between atoms: C_18  and  C_27
   12  A    between atoms: C_22  and  C_33
   13  A    between atoms: C_27  and  C_33
   14  A    between atoms: C_29  and  O_52
   15  A    between atoms: C_31  and  C_34
   16  A    between atoms: C_32  and  C_58
   17  A    between atoms: C_34  and  O_56
   18  A    between atoms: C_35  and  C_37
   19  A    between atoms: C_35  and  C_47
   20  A    between atoms: N_36  and  C_67
   21  A    between atoms: C_37  and  N_60
   22  A    between atoms: C_55  and  C_57
   23  A    between atoms: O_56  and  C_57
   24  A    between atoms: C_57  and  C_64
                            x       y       z     vdW  Elec       q    Type
                         _______ _______ _______ _____ _____    ______ ____

>  <TORSDO>
F 24

$$$$
=
 OpenBabel11042418563D

 68 73  0  0  1  0  0  0  0  0999 V2000
  191.7770  169.4370  137.1250 C   0  0  0  0  0  2  0  0  0  0  0  0
  189.7760  173.2150  139.8140 C   0  0  0  0  0  2  0  0  0  0  0  0
  191.3540  169.4280  140.1420 C   0  0  0  0  0  0  0  0  0  0  0  0
  190.8330  171.4870  141.3060 C   0  0  0  0  0  0  0  0  0  0  0  0
  190.6040  168.8430  137.8960 C   0  0  0  0  0  2  0  0  0  0  0  0
  190.7430  173.2830  138.6400 C   0  0  0  0  0  2  0  0  0  0  0  0
  191.0300  173.0510  136.1680 C   0  0  0  0  0  2  0  0  0  0  0  0
  190.9830  168.5010  139.2990 C   0  0  0  0  0  3  0  0  0  0  0  0
  191.7340  170.3600  140.9770 C   0  0  0  0  0  0  0  0  0  0  0  0
  190.1140  172.7820  137.3350 C   0  0  1  0  0  0  0  0  0  0  0  0
  190.7120  171.6150  136.5610 C   0  0  2  0  0  3  0  0  0  0  0  0
  189.6770  171.8090  140.3880 C   0  0  0  0  0  2  0  0  0  0  0  0
  193.0900  171.3840  136.8560 F   0  0  0  0  0  0  0  0  0  0  0  0
  190.9930  172.1270  142.4730 C   0  0  0  0  0  3  0  0  0  0  0  0
  191.8630  170.9430  137.3130 C   0  0  2  0  0  3  0  0  0  0  0  0
  192.9980  170.1320  141.7380 C   0  0  0  0  0  2  0  0  0  0  0  0
  194.0580  171.1720  141.3880 C   0  0  0  0  0  2  0  0  0  0  0  0
  195.2440  171.1480  142.3510 C   0  0  0  0  0  2  0  0  0  0  0  0
  195.3170  172.4190  143.1830 C   0  0  0  0  0  2  0  0  0  0  0  0
  197.0260  175.0460  141.9810 N   0  0  0  0  0  0  0  0  0  0  0  0
  196.7010  173.0260  143.0640 C   0  0  1  0  0  3  0  0  0  0  0  0
  196.8420  173.7810  141.7860 C   0  0  0  0  0  0  0  0  0  0  0  0
  196.8420  174.1890  143.9850 C   0  0  0  0  0  0  0  0  0  0  0  0
  197.0370  175.2970  143.3550 N   0  0  0  0  0  0  0  0  0  0  0  0
  196.8520  174.0960  145.4070 N   0  0  0  0  0  1  0  0  0  0  0  0
  196.7660  173.1890  140.4860 N   0  0  0  0  0  2  0  0  0  0  0  0
  196.9460  173.9610  139.2600 C   0  0  1  0  0  3  0  0  0  0  0  0
  196.6470  173.1420  138.0070 C   0  0  2  0  0  0  0  0  0  0  0  0
  197.9410  172.5570  137.4680 C   0  0  0  0  0  1  0  0  0  0  0  0
  193.9850  174.6100  138.0480 O   0  0  0  0  0  1  0  0  0  0  0  0
  196.0830  174.1000  137.0490 N   0  0  2  0  0  0  0  0  0  0  0  0
  195.3030  175.0520  137.8570 C   0  0  2  0  0  3  0  0  0  0  0  0
  195.9840  175.1330  139.2120 C   0  0  0  0  0  2  0  0  0  0  0  0
  195.7380  172.1080  138.2860 O   0  0  0  0  0  1  0  0  0  0  0  0
  195.8460  173.8180  134.6330 C   0  0  0  0  0  2  0  0  0  0  0  0
  194.6180  174.5330  135.1450 C   0  0  0  0  0  2  0  0  0  0  0  0
  195.2770  173.4640  135.9980 C   0  0  0  0  0  3  0  0  0  0  0  0
  188.6660  173.1050  136.9980 C   0  0  0  0  0  2  0  0  0  0  0  0
  188.3690  174.4560  137.3210 O   0  0  0  0  0  0  0  0  0  0  0  0
  188.5520  175.5730  135.2010 O   0  0  0  0  0  0  0  0  0  0  0  0
  187.8450  175.3310  136.3700 C   0  0  0  0  0  0  0  0  0  0  0  0
  186.7280  175.8910  136.5500 O   0  0  0  0  0  1  0  0  0  0  0  0
  190.0990  173.2390  142.9470 C   0  0  1  0  0  3  0  0  0  0  0  0
  190.3720  173.5330  145.4360 C   0  0  0  0  0  3  0  0  0  0  0  0
  189.6790  173.0850  144.3850 C   0  0  0  0  0  3  0  0  0  0  0  0
  191.6610  174.2600  145.3950 C   0  0  0  0  0  0  0  0  0  0  0  0
  191.6980  175.6760  145.5860 N   0  0  0  0  0  2  0  0  0  0  0  0
  192.7430  173.6430  145.2060 O   0  0  0  0  0  0  0  0  0  0  0  0
  190.5160  176.4570  145.9150 C   0  0  0  0  0  2  0  0  0  0  0  0
  190.1410  176.2390  147.3660 C   0  0  1  0  0  3  0  0  0  0  0  0
  191.6300  177.2860  148.9060 O   0  0  0  0  0  1  0  0  0  0  0  0
  190.6060  177.4030  148.1840 C   0  0  0  0  0  0  0  0  0  0  0  0
  189.9170  178.6100  148.1500 O   0  0  0  0  0  0  0  0  0  0  0  0
  188.6210  176.0330  147.4700 C   0  0  0  0  0  2  0  0  0  0  0  0
  184.6200  178.8210  147.3410 C   0  0  0  0  0  1  0  0  0  0  0  0
  186.0380  178.6720  146.8240 C   0  0  2  0  0  3  0  0  0  0  0  0
  186.0690  177.0710  144.8650 C   0  0  0  0  0  2  0  0  0  0  0  0
  187.3110  176.3600  145.4400 C   0  0  0  0  0  2  0  0  0  0  0  0
  187.8130  176.9790  146.6860 N   0  0  0  0  0  0  0  0  0  0  0  0
  186.0290  178.5350  145.2960 C   0  0  0  0  0  2  0  0  0  0  0  0
  186.7150  177.4840  147.5140 C   0  0  0  0  0  2  0  0  0  0  0  0
  190.6110  174.5210  142.6430 O   0  0  0  0  0  0  0  0  0  0  0  0
  189.6160  175.2950  142.0150 C   0  0  0  0  0  2  0  0  0  0  0  0
  188.2340  174.8240  142.4420 C   0  0  0  0  0  2  0  0  0  0  0  0
  187.1360  175.7040  141.8610 C   0  0  0  0  0  2  0  0  0  0  0  0
  187.6520  176.5440  140.6980 C   0  0  0  0  0  2  0  0  0  0  0  0
  186.7420  177.7350  140.4300 C   0  0  0  0  0  2  0  0  0  0  0  0
  186.3990  178.3620  141.6270 O   0  0  0  0  0  1  0  0  0  0  0  0
  1 15  1  0  0  0  0
  1  5  1  0  0  0  0
  2 12  1  0  0  0  0
  3  9  2  0  0  0  0
  4 14  2  0  0  0  0
  5  8  1  0  0  0  0
  6  2  1  0  0  0  0
  7 10  1  0  0  0  0
  8  3  2  0  0  0  0
  9  4  1  0  0  0  0
  9 16  1  0  0  0  0
 10 38  1  6  0  0  0
 10  6  1  0  0  0  0
 11  7  1  6  0  0  0
 11 15  1  0  0  0  0
 11 10  1  0  0  0  0
 12  4  1  0  0  0  0
 15 13  1  6  0  0  0
 17 16  1  0  0  0  0
 17 18  1  0  0  0  0
 18 19  1  0  0  0  0
 20 24  1  0  0  0  0
 21 19  1  6  0  0  0
 21 23  1  0  0  0  0
 22 20  2  0  0  0  0
 22 21  1  0  0  0  0
 23 25  1  0  0  0  0
 24 23  2  0  0  0  0
 26 22  1  0  0  0  0
 27 26  1  1  0  0  0
 28 29  1  6  0  0  0
 28 34  1  0  0  0  0
 28 27  1  0  0  0  0
 31 37  1  6  0  0  0
 31 32  1  0  0  0  0
 31 28  1  0  0  0  0
 32 30  1  1  0  0  0
 32 33  1  0  0  0  0
 33 27  1  0  0  0  0
 35 36  1  0  0  0  0
 35 37  1  0  0  0  0
 36 37  1  0  0  0  0
 38 39  1  0  0  0  0
 40 41  2  0  0  0  0
 41 42  1  0  0  0  0
 41 39  1  0  0  0  0
 43 14  1  1  0  0  0
 43 45  1  0  0  0  0
 45 44  2  0  0  0  0
 46 44  1  0  0  0  0
 46 47  1  0  0  0  0
 47 49  1  0  0  0  0
 48 46  2  0  0  0  0
 50 49  1  6  0  0  0
 50 54  1  0  0  0  0
 50 52  1  0  0  0  0
 52 51  1  0  0  0  0
 53 52  2  0  0  0  0
 56 55  1  1  0  0  0
 56 61  1  0  0  0  0
 57 60  1  0  0  0  0
 57 58  1  0  0  0  0
 58 59  1  0  0  0  0
 59 54  1  0  0  0  0
 59 61  1  0  0  0  0
 60 56  1  0  0  0  0
 62 43  1  0  0  0  0
 63 64  1  0  0  0  0
 63 62  1  0  0  0  0
 65 64  1  0  0  0  0
 66 65  1  0  0  0  0
 67 66  1  0  0  0  0
 67 68  1  0  0  0  0
M  END
>  <MODEL>
3

>  <REMARK>
 VINA RESULT:      -5.2      2.981      8.325
  Name = 
  24 active torsions:
  status: ('A' for Active; 'I' for Inactive)
    1  A    between atoms: C_1  and  C_38
    2  A    between atoms: C_1  and  O_52
    3  A    between atoms: C_2  and  C_4
    4  A    between atoms: C_3  and  N_61
    5  A    between atoms: C_5  and  C_35
    6  A    between atoms: C_5  and  N_42
    7  A    between atoms: C_10  and  C_31
    8  A    between atoms: C_10  and  C_58
    9  A    between atoms: C_16  and  C_18
   10  A    between atoms: C_16  and  C_25
   11  A    between atoms: C_18  and  C_27
   12  A    between atoms: C_22  and  C_33
   13  A    between atoms: C_27  and  C_33
   14  A    between atoms: C_29  and  O_52
   15  A    between atoms: C_31  and  C_34
   16  A    between atoms: C_32  and  C_58
   17  A    between atoms: C_34  and  O_56
   18  A    between atoms: C_35  and  C_37
   19  A    between atoms: C_35  and  C_47
   20  A    between atoms: N_36  and  C_67
   21  A    between atoms: C_37  and  N_60
   22  A    between atoms: C_55  and  C_57
   23  A    between atoms: O_56  and  C_57
   24  A    between atoms: C_57  and  C_64
                            x       y       z     vdW  Elec       q    Type
                         _______ _______ _______ _____ _____    ______ ____

>  <TORSDO>
F 24

$$$$
=
 OpenBabel11042418563D

 68 73  0  0  1  0  0  0  0  0999 V2000
  196.4600  173.1310  141.5380 C   0  0  0  0  0  2  0  0  0  0  0  0
  192.6210  172.6830  138.2870 C   0  0  0  0  0  2  0  0  0  0  0  0
  193.7930  171.7810  142.1280 C   0  0  0  0  0  0  0  0  0  0  0  0
  191.9170  172.0820  140.6260 C   0  0  0  0  0  0  0  0  0  0  0  0
  196.1340  171.6440  141.4580 C   0  0  0  0  0  2  0  0  0  0  0  0
  193.5540  173.8650  138.5100 C   0  0  0  0  0  2  0  0  0  0  0  0
  195.8470  174.7970  138.1640 C   0  0  0  0  0  2  0  0  0  0  0  0
  194.9830  171.2830  142.3370 C   0  0  0  0  0  3  0  0  0  0  0  0
  192.6080  172.2910  141.9180 C   0  0  0  0  0  0  0  0  0  0  0  0
  195.0010  173.5500  138.1180 C   0  0  1  0  0  0  0  0  0  0  0  0
  196.1380  173.6530  139.1250 C   0  0  2  0  0  3  0  0  0  0  0  0
  192.7160  171.6650  139.4130 C   0  0  0  0  0  2  0  0  0  0  0  0
  195.7430  175.2780  140.8580 F   0  0  0  0  0  0  0  0  0  0  0  0
  190.5790  172.1530  140.5860 C   0  0  0  0  0  3  0  0  0  0  0  0
  195.6390  173.9360  140.5450 C   0  0  2  0  0  3  0  0  0  0  0  0
  191.8990  172.8950  143.0850 C   0  0  0  0  0  2  0  0  0  0  0  0
  191.2880  171.8250  143.9840 C   0  0  0  0  0  2  0  0  0  0  0  0
  190.1080  172.3500  144.8020 C   0  0  0  0  0  2  0  0  0  0  0  0
  190.0540  173.8690  144.7980 C   0  0  0  0  0  2  0  0  0  0  0  0
  191.6330  176.2800  146.5180 N   0  0  0  0  0  0  0  0  0  0  0  0
  190.3340  174.3930  146.1930 C   0  0  1  0  0  3  0  0  0  0  0  0
  191.6870  175.0140  146.2650 C   0  0  0  0  0  0  0  0  0  0  0  0
  189.5460  175.6300  146.4540 C   0  0  0  0  0  0  0  0  0  0  0  0
  190.2950  176.6620  146.6460 N   0  0  0  0  0  0  0  0  0  0  0  0
  188.1260  175.6730  146.5710 N   0  0  0  0  0  1  0  0  0  0  0  0
  192.9130  174.3040  146.0640 N   0  0  0  0  0  2  0  0  0  0  0  0
  194.2190  174.9440  146.1800 C   0  0  1  0  0  3  0  0  0  0  0  0
  195.0130  174.8910  144.8780 C   0  0  2  0  0  0  0  0  0  0  0  0
  195.9390  173.6880  144.9020 C   0  0  0  0  0  1  0  0  0  0  0  0
  194.0930  177.7700  144.5500 O   0  0  0  0  0  1  0  0  0  0  0  0
  195.7940  176.1340  144.8540 N   0  0  2  0  0  0  0  0  0  0  0  0
  194.9350  177.1490  145.4860 C   0  0  2  0  0  3  0  0  0  0  0  0
  194.0720  176.4200  146.5000 C   0  0  0  0  0  2  0  0  0  0  0  0
  194.1550  174.8070  143.7690 O   0  0  0  0  0  1  0  0  0  0  0  0
  197.6740  176.1220  143.2930 C   0  0  0  0  0  2  0  0  0  0  0  0
  197.3280  177.5600  143.6000 C   0  0  0  0  0  2  0  0  0  0  0  0
  196.2230  176.5230  143.5040 C   0  0  0  0  0  3  0  0  0  0  0  0
  195.3060  172.7110  136.8860 C   0  0  0  0  0  2  0  0  0  0  0  0
  195.5640  171.3630  137.2540 O   0  0  0  0  0  0  0  0  0  0  0  0
  194.3330  170.0590  135.6540 O   0  0  0  0  0  0  0  0  0  0  0  0
  195.5220  170.3340  136.3140 C   0  0  0  0  0  0  0  0  0  0  0  0
  196.5550  169.6610  136.0430 O   0  0  0  0  0  1  0  0  0  0  0  0
  189.7640  171.8920  139.3500 C   0  0  1  0  0  3  0  0  0  0  0  0
  188.4030  174.0140  139.4040 C   0  0  0  0  0  3  0  0  0  0  0  0
  189.1830  173.1470  138.7520 C   0  0  0  0  0  3  0  0  0  0  0  0
  187.9680  173.9170  140.8150 C   0  0  0  0  0  0  0  0  0  0  0  0
  187.9500  175.0790  141.6470 N   0  0  0  0  0  2  0  0  0  0  0  0
  187.5930  172.8170  141.3010 O   0  0  0  0  0  0  0  0  0  0  0  0
  188.2610  176.4100  141.1470 C   0  0  0  0  0  2  0  0  0  0  0  0
  187.0810  177.3330  141.3680 C   0  0  1  0  0  3  0  0  0  0  0  0
  186.6950  176.9010  139.0560 O   0  0  0  0  0  0  0  0  0  0  0  0
  186.2490  177.3890  140.1260 C   0  0  0  0  0  0  0  0  0  0  0  0
  184.9870  177.9730  140.1460 O   0  0  0  0  0  1  0  0  0  0  0  0
  186.2730  176.8400  142.5800 C   0  0  0  0  0  2  0  0  0  0  0  0
  184.2440  177.8900  146.8900 C   0  0  0  0  0  1  0  0  0  0  0  0
  185.4940  178.0400  146.0450 C   0  0  2  0  0  3  0  0  0  0  0  0
  185.2120  179.9710  144.4350 C   0  0  0  0  0  2  0  0  0  0  0  0
  185.7910  179.1230  143.2850 C   0  0  0  0  0  2  0  0  0  0  0  0
  186.2230  177.7750  143.7130 N   0  0  0  0  0  0  0  0  0  0  0  0
  185.7770  179.5240  145.7810 C   0  0  0  0  0  2  0  0  0  0  0  0
  185.3410  177.2350  144.7510 C   0  0  0  0  0  2  0  0  0  0  0  0
  190.4370  171.0790  138.4110 O   0  0  0  0  0  0  0  0  0  0  0  0
  189.6790  169.9220  138.1510 C   0  0  0  0  0  2  0  0  0  0  0  0
  189.8510  169.4920  136.7020 C   0  0  0  0  0  2  0  0  0  0  0  0
  190.7260  170.4670  135.9270 C   0  0  0  0  0  2  0  0  0  0  0  0
  189.8860  171.4330  135.0980 C   0  0  0  0  0  2  0  0  0  0  0  0
  190.4290  172.8530  135.1840 C   0  0  0  0  0  2  0  0  0  0  0  0
  189.3810  173.7710  135.2160 O   0  0  0  0  0  1  0  0  0  0  0  0
  2  6  1  0  0  0  0
  2 12  1  0  0  0  0
  3  8  2  0  0  0  0
  4  9  1  0  0  0  0
  5  1  1  0  0  0  0
  5  8  1  0  0  0  0
  9  3  2  0  0  0  0
  9 16  1  0  0  0  0
 10 38  1  6  0  0  0
 10  7  1  0  0  0  0
 10  6  1  0  0  0  0
 10 11  1  0  0  0  0
 11  7  1  6  0  0  0
 11 15  1  0  0  0  0
 12  4  1  0  0  0  0
 14  4  2  0  0  0  0
 15 13  1  1  0  0  0
 15  1  1  0  0  0  0
 16 17  1  0  0  0  0
 17 18  1  0  0  0  0
 19 18  1  0  0  0  0
 20 24  1  0  0  0  0
 21 19  1  6  0  0  0
 21 22  1  0  0  0  0
 21 23  1  0  0  0  0
 22 20  2  0  0  0  0
 23 25  1  0  0  0  0
 23 24  2  0  0  0  0
 26 22  1  0  0  0  0
 27 26  1  6  0  0  0
 27 33  1  0  0  0  0
 28 29  1  1  0  0  0
 28 27  1  0  0  0  0
 31 37  1  6  0  0  0
 31 28  1  0  0  0  0
 31 32  1  0  0  0  0
 32 30  1  6  0  0  0
 32 33  1  0  0  0  0
 34 28  1  0  0  0  0
 35 37  1  0  0  0  0
 35 36  1  0  0  0  0
 37 36  1  0  0  0  0
 38 39  1  0  0  0  0
 40 41  2  0  0  0  0
 41 39  1  0  0  0  0
 42 41  1  0  0  0  0
 43 45  1  6  0  0  0
 43 14  1  0  0  0  0
 44 46  1  0  0  0  0
 45 44  2  0  0  0  0
 46 48  2  0  0  0  0
 46 47  1  0  0  0  0
 49 47  1  0  0  0  0
 50 49  1  6  0  0  0
 50 54  1  0  0  0  0
 51 52  2  0  0  0  0
 52 53  1  0  0  0  0
 52 50  1  0  0  0  0
 54 59  1  0  0  0  0
 56 55  1  6  0  0  0
 57 60  1  0  0  0  0
 58 59  1  0  0  0  0
 58 57  1  0  0  0  0
 59 61  1  0  0  0  0
 60 56  1  0  0  0  0
 61 56  1  0  0  0  0
 62 43  1  0  0  0  0
 63 62  1  0  0  0  0
 64 63  1  0  0  0  0
 65 64  1  0  0  0  0
 66 67  1  0  0  0  0
 66 65  1  0  0  0  0
 67 68  1  0  0  0  0
M  END
>  <MODEL>
4

>  <REMARK>
 VINA RESULT:      -5.2      2.993      8.476
  Name = 
  24 active torsions:
  status: ('A' for Active; 'I' for Inactive)
    1  A    between atoms: C_1  and  C_38
    2  A    between atoms: C_1  and  O_52
    3  A    between atoms: C_2  and  C_4
    4  A    between atoms: C_3  and  N_61
    5  A    between atoms: C_5  and  C_35
    6  A    between atoms: C_5  and  N_42
    7  A    between atoms: C_10  and  C_31
    8  A    between atoms: C_10  and  C_58
    9  A    between atoms: C_16  and  C_18
   10  A    between atoms: C_16  and  C_25
   11  A    between atoms: C_18  and  C_27
   12  A    between atoms: C_22  and  C_33
   13  A    between atoms: C_27  and  C_33
   14  A    between atoms: C_29  and  O_52
   15  A    between atoms: C_31  and  C_34
   16  A    between atoms: C_32  and  C_58
   17  A    between atoms: C_34  and  O_56
   18  A    between atoms: C_35  and  C_37
   19  A    between atoms: C_35  and  C_47
   20  A    between atoms: N_36  and  C_67
   21  A    between atoms: C_37  and  N_60
   22  A    between atoms: C_55  and  C_57
   23  A    between atoms: O_56  and  C_57
   24  A    between atoms: C_57  and  C_64
                            x       y       z     vdW  Elec       q    Type
                         _______ _______ _______ _____ _____    ______ ____

>  <TORSDO>
F 24

$$$$
=
 OpenBabel11042418563D

 68 73  0  0  1  0  0  0  0  0999 V2000
  188.2790  176.9030  141.4950 C   0  0  0  0  0  2  0  0  0  0  0  0
  190.3440  174.2010  145.2290 C   0  0  0  0  0  2  0  0  0  0  0  0
  189.8120  174.2930  141.1480 C   0  0  0  0  0  0  0  0  0  0  0  0
  191.1280  173.4010  142.9760 C   0  0  0  0  0  0  0  0  0  0  0  0
  187.7030  175.4960  141.3780 C   0  0  0  0  0  2  0  0  0  0  0  0
  190.2990  175.7120  145.0520 C   0  0  0  0  0  2  0  0  0  0  0  0
  188.8940  177.7760  145.1550 C   0  0  0  0  0  2  0  0  0  0  0  0
  188.6340  174.5770  140.6590 C   0  0  0  0  0  3  0  0  0  0  0  0
  190.9930  174.0220  141.6400 C   0  0  0  0  0  0  0  0  0  0  0  0
  188.8740  176.2690  145.1340 C   0  0  1  0  0  0  0  0  0  0  0  0
  188.2570  177.0470  143.9800 C   0  0  2  0  0  3  0  0  0  0  0  0
  189.9730  173.4680  143.9480 C   0  0  0  0  0  2  0  0  0  0  0  0
  189.8750  178.2200  142.6370 F   0  0  0  0  0  0  0  0  0  0  0  0
  192.2290  172.6900  143.2540 C   0  0  0  0  0  3  0  0  0  0  0  0
  189.1460  177.0500  142.7340 C   0  0  2  0  0  3  0  0  0  0  0  0
  192.1680  174.1570  140.7280 C   0  0  0  0  0  2  0  0  0  0  0  0
  191.8890  173.5420  139.3600 C   0  0  0  0  0  2  0  0  0  0  0  0
  193.0380  173.7550  138.3760 C   0  0  0  0  0  2  0  0  0  0  0  0
  192.7980  174.9630  137.4850 C   0  0  0  0  0  2  0  0  0  0  0  0
  196.0770  174.3210  137.1610 N   0  0  0  0  0  0  0  0  0  0  0  0
  194.1270  175.5640  137.0710 C   0  0  1  0  0  3  0  0  0  0  0  0
  195.2420  174.9960  137.8810 C   0  0  0  0  0  0  0  0  0  0  0  0
  194.5580  175.0220  135.7520 C   0  0  0  0  0  0  0  0  0  0  0  0
  195.6530  174.3470  135.8300 N   0  0  0  0  0  0  0  0  0  0  0  0
  193.8950  175.2830  134.5170 N   0  0  0  0  0  1  0  0  0  0  0  0
  195.3760  175.1570  139.2960 N   0  0  0  0  0  2  0  0  0  0  0  0
  196.5050  174.6150  140.0440 C   0  0  1  0  0  3  0  0  0  0  0  0
  196.4990  175.0520  141.5070 C   0  0  2  0  0  0  0  0  0  0  0  0
  197.3750  176.2820  141.6680 C   0  0  0  0  0  1  0  0  0  0  0  0
  195.3600  172.2800  142.0180 O   0  0  0  0  0  1  0  0  0  0  0  0
  197.0690  173.9200  142.2470 N   0  0  2  0  0  0  0  0  0  0  0  0
  196.6060  172.7140  141.5400 C   0  0  2  0  0  3  0  0  0  0  0  0
  196.4520  173.0990  140.0790 C   0  0  0  0  0  2  0  0  0  0  0  0
  195.1940  175.3390  141.9410 O   0  0  0  0  0  1  0  0  0  0  0  0
  197.9410  174.1240  144.5210 C   0  0  0  0  0  2  0  0  0  0  0  0
  197.3650  172.7360  144.3620 C   0  0  0  0  0  2  0  0  0  0  0  0
  196.6990  173.9120  143.6690 C   0  0  0  0  0  3  0  0  0  0  0  0
  187.8780  175.7070  146.1380 C   0  0  0  0  0  2  0  0  0  0  0  0
  187.5640  176.6790  147.1240 O   0  0  0  0  0  0  0  0  0  0  0  0
  185.2390  176.6440  146.5180 O   0  0  0  0  0  0  0  0  0  0  0  0
  186.2830  177.2190  147.2290 C   0  0  0  0  0  0  0  0  0  0  0  0
  186.0550  178.2120  147.9760 O   0  0  0  0  0  1  0  0  0  0  0  0
  192.4480  171.9580  144.5490 C   0  0  1  0  0  3  0  0  0  0  0  0
  192.6830  169.5190  143.9550 C   0  0  0  0  0  3  0  0  0  0  0  0
  191.9900  170.5240  144.4990 C   0  0  0  0  0  3  0  0  0  0  0  0
  194.0130  169.6140  143.3110 C   0  0  0  0  0  0  0  0  0  0  0  0
  194.1360  169.5060  141.8910 N   0  0  0  0  0  2  0  0  0  0  0  0
  195.0500  169.8060  143.9990 O   0  0  0  0  0  0  0  0  0  0  0  0
  192.9860  169.3910  141.0070 C   0  0  0  0  0  2  0  0  0  0  0  0
  193.4470  169.3450  139.5650 C   0  0  1  0  0  3  0  0  0  0  0  0
  195.5540  169.0930  138.4790 O   0  0  0  0  0  0  0  0  0  0  0  0
  194.8630  168.8660  139.5060 C   0  0  0  0  0  0  0  0  0  0  0  0
  195.4220  168.1770  140.5770 O   0  0  0  0  0  1  0  0  0  0  0  0
  192.4990  168.4390  138.7610 C   0  0  0  0  0  2  0  0  0  0  0  0
  191.5080  172.0090  135.5870 C   0  0  0  0  0  1  0  0  0  0  0  0
  191.0550  170.6580  136.1070 C   0  0  2  0  0  3  0  0  0  0  0  0
  189.7210  170.9650  138.2340 C   0  0  0  0  0  2  0  0  0  0  0  0
  190.4850  169.8040  138.9040 C   0  0  0  0  0  2  0  0  0  0  0  0
  191.4580  169.1500  138.0040 N   0  0  0  0  0  0  0  0  0  0  0  0
  189.6550  170.7730  136.7220 C   0  0  0  0  0  2  0  0  0  0  0  0
  192.0870  170.1160  137.1010 C   0  0  0  0  0  2  0  0  0  0  0  0
  193.7590  172.1150  145.0530 O   0  0  0  0  0  0  0  0  0  0  0  0
  193.7910  173.1780  145.9750 C   0  0  0  0  0  2  0  0  0  0  0  0
  194.0500  174.4930  145.2560 C   0  0  0  0  0  2  0  0  0  0  0  0
  194.4960  175.5830  146.2200 C   0  0  0  0  0  2  0  0  0  0  0  0
  193.4410  176.6750  146.3560 C   0  0  0  0  0  2  0  0  0  0  0  0
  192.8240  176.6770  147.7480 C   0  0  0  0  0  2  0  0  0  0  0  0
  191.4330  176.7110  147.6620 O   0  0  0  0  0  1  0  0  0  0  0  0
  1 15  1  0  0  0  0
  3  9  2  0  0  0  0
  4 14  2  0  0  0  0
  4 12  1  0  0  0  0
  5  1  1  0  0  0  0
  6 10  1  0  0  0  0
  6  2  1  0  0  0  0
  8  3  2  0  0  0  0
  8  5  1  0  0  0  0
  9  4  1  0  0  0  0
 10  7  1  0  0  0  0
 10 38  1  1  0  0  0
 11 10  1  0  0  0  0
 11  7  1  1  0  0  0
 12  2  1  0  0  0  0
 15 13  1  6  0  0  0
 15 11  1  0  0  0  0
 16  9  1  0  0  0  0
 17 16  1  0  0  0  0
 18 17  1  0  0  0  0
 19 18  1  0  0  0  0
 20 22  2  0  0  0  0
 21 19  1  1  0  0  0
 21 22  1  0  0  0  0
 22 26  1  0  0  0  0
 23 24  2  0  0  0  0
 23 21  1  0  0  0  0
 24 20  1  0  0  0  0
 25 23  1  0  0  0  0
 27 26  1  6  0  0  0
 27 33  1  0  0  0  0
 27 28  1  0  0  0  0
 28 29  1  1  0  0  0
 28 34  1  0  0  0  0
 28 31  1  0  0  0  0
 31 37  1  1  0  0  0
 32 30  1  1  0  0  0
 32 31  1  0  0  0  0
 33 32  1  0  0  0  0
 36 35  1  0  0  0  0
 37 36  1  0  0  0  0
 37 35  1  0  0  0  0
 38 39  1  0  0  0  0
 39 41  1  0  0  0  0
 40 41  2  0  0  0  0
 41 42  1  0  0  0  0
 43 14  1  6  0  0  0
 43 62  1  0  0  0  0
 44 45  2  0  0  0  0
 45 43  1  0  0  0  0
 46 44  1  0  0  0  0
 46 48  2  0  0  0  0
 47 46  1  0  0  0  0
 49 47  1  0  0  0  0
 50 54  1  6  0  0  0
 50 49  1  0  0  0  0
 51 52  2  0  0  0  0
 52 50  1  0  0  0  0
 52 53  1  0  0  0  0
 56 55  1  1  0  0  0
 56 60  1  0  0  0  0
 56 61  1  0  0  0  0
 57 58  1  0  0  0  0
 59 54  1  0  0  0  0
 59 58  1  0  0  0  0
 60 57  1  0  0  0  0
 61 59  1  0  0  0  0
 62 63  1  0  0  0  0
 64 63  1  0  0  0  0
 64 65  1  0  0  0  0
 65 66  1  0  0  0  0
 66 67  1  0  0  0  0
 68 67  1  0  0  0  0
M  END
>  <MODEL>
5

>  <REMARK>
 VINA RESULT:      -5.0      2.889      6.347
  Name = 
  24 active torsions:
  status: ('A' for Active; 'I' for Inactive)
    1  A    between atoms: C_1  and  C_38
    2  A    between atoms: C_1  and  O_52
    3  A    between atoms: C_2  and  C_4
    4  A    between atoms: C_3  and  N_61
    5  A    between atoms: C_5  and  C_35
    6  A    between atoms: C_5  and  N_42
    7  A    between atoms: C_10  and  C_31
    8  A    between atoms: C_10  and  C_58
    9  A    between atoms: C_16  and  C_18
   10  A    between atoms: C_16  and  C_25
   11  A    between atoms: C_18  and  C_27
   12  A    between atoms: C_22  and  C_33
   13  A    between atoms: C_27  and  C_33
   14  A    between atoms: C_29  and  O_52
   15  A    between atoms: C_31  and  C_34
   16  A    between atoms: C_32  and  C_58
   17  A    between atoms: C_34  and  O_56
   18  A    between atoms: C_35  and  C_37
   19  A    between atoms: C_35  and  C_47
   20  A    between atoms: N_36  and  C_67
   21  A    between atoms: C_37  and  N_60
   22  A    between atoms: C_55  and  C_57
   23  A    between atoms: O_56  and  C_57
   24  A    between atoms: C_57  and  C_64
                            x       y       z     vdW  Elec       q    Type
                         _______ _______ _______ _____ _____    ______ ____

>  <TORSDO>
F 24

$$$$
=
 OpenBabel11042418563D

 68 73  0  0  1  0  0  0  0  0999 V2000
  186.9670  177.9120  146.2350 C   0  0  0  0  0  2  0  0  0  0  0  0
  188.8560  175.9360  141.9880 C   0  0  0  0  0  2  0  0  0  0  0  0
  189.7330  176.6700  145.9420 C   0  0  0  0  0  0  0  0  0  0  0  0
  190.2780  175.3570  143.9810 C   0  0  0  0  0  0  0  0  0  0  0  0
  188.2850  178.6320  145.9740 C   0  0  0  0  0  2  0  0  0  0  0  0
  187.4420  175.8380  142.5440 C   0  0  0  0  0  2  0  0  0  0  0  0
  185.2760  177.0210  142.9360 C   0  0  0  0  0  2  0  0  0  0  0  0
  189.4520  177.8380  146.4570 C   0  0  0  0  0  3  0  0  0  0  0  0
  190.0010  175.4980  145.4270 C   0  0  0  0  0  0  0  0  0  0  0  0
  186.7280  177.1940  142.5700 C   0  0  1  0  0  0  0  0  0  0  0  0
  186.2020  177.7890  143.8690 C   0  0  2  0  0  3  0  0  0  0  0  0
  189.8410  176.4460  143.0290 C   0  0  0  0  0  2  0  0  0  0  0  0
  185.5900  176.1340  145.5070 F   0  0  0  0  0  0  0  0  0  0  0  0
  191.0130  174.3190  143.5580 C   0  0  0  0  0  3  0  0  0  0  0  0
  186.6100  176.9710  145.0960 C   0  0  2  0  0  3  0  0  0  0  0  0
  190.2310  174.3650  146.3730 C   0  0  0  0  0  2  0  0  0  0  0  0
  190.7860  174.8530  147.7070 C   0  0  0  0  0  2  0  0  0  0  0  0
  192.2450  175.2960  147.6080 C   0  0  0  0  0  2  0  0  0  0  0  0
  192.9540  174.6370  146.4360 C   0  0  0  0  0  2  0  0  0  0  0  0
  195.5660  174.7780  144.3320 N   0  0  0  0  0  0  0  0  0  0  0  0
  194.2120  175.4120  146.0990 C   0  0  1  0  0  3  0  0  0  0  0  0
  195.2660  174.5070  145.5600 C   0  0  0  0  0  0  0  0  0  0  0  0
  194.0120  176.2230  144.8650 C   0  0  0  0  0  0  0  0  0  0  0  0
  194.7890  175.8570  143.9030 N   0  0  0  0  0  0  0  0  0  0  0  0
  193.1300  177.3380  144.7660 N   0  0  0  0  0  1  0  0  0  0  0  0
  195.8730  173.4430  146.3000 N   0  0  0  0  0  2  0  0  0  0  0  0
  196.9280  172.6030  145.7450 C   0  0  1  0  0  3  0  0  0  0  0  0
  196.4180  171.2270  145.3260 C   0  0  2  0  0  0  0  0  0  0  0  0
  196.6460  170.2390  146.4570 C   0  0  0  0  0  1  0  0  0  0  0  0
  196.4490  172.4020  142.5220 O   0  0  0  0  0  1  0  0  0  0  0  0
  197.2270  170.8580  144.1570 N   0  0  2  0  0  0  0  0  0  0  0  0
  197.4750  172.1180  143.4380 C   0  0  2  0  0  3  0  0  0  0  0  0
  197.5030  173.2190  144.4830 C   0  0  0  0  0  2  0  0  0  0  0  0
  195.0520  171.2730  145.0040 O   0  0  0  0  0  1  0  0  0  0  0  0
  197.5940  168.7510  142.9750 C   0  0  0  0  0  2  0  0  0  0  0  0
  197.2700  169.8140  141.9510 C   0  0  0  0  0  2  0  0  0  0  0  0
  196.5890  169.8430  143.3080 C   0  0  0  0  0  3  0  0  0  0  0  0
  186.9060  178.1870  141.4320 C   0  0  0  0  0  2  0  0  0  0  0  0
  187.2860  177.5140  140.2400 O   0  0  0  0  0  0  0  0  0  0  0  0
  185.0420  177.6390  139.3900 O   0  0  0  0  0  1  0  0  0  0  0  0
  186.3520  177.2030  139.2520 C   0  0  0  0  0  0  0  0  0  0  0  0
  186.6860  176.5470  138.2270 O   0  0  0  0  0  0  0  0  0  0  0  0
  191.4160  174.1070  142.1250 C   0  0  1  0  0  3  0  0  0  0  0  0
  193.7610  173.8000  141.2510 C   0  0  0  0  0  3  0  0  0  0  0  0
  192.7260  173.3780  141.9830 C   0  0  0  0  0  3  0  0  0  0  0  0
  193.8240  175.0450  140.4530 C   0  0  0  0  0  0  0  0  0  0  0  0
  193.6760  175.0010  139.0320 N   0  0  0  0  0  2  0  0  0  0  0  0
  193.9940  176.1620  141.0120 O   0  0  0  0  0  0  0  0  0  0  0  0
  193.3710  173.7750  138.3100 C   0  0  0  0  0  2  0  0  0  0  0  0
  193.5150  174.0040  136.8210 C   0  0  1  0  0  3  0  0  0  0  0  0
  195.5480  175.2010  137.1630 O   0  0  0  0  0  1  0  0  0  0  0  0
  194.9410  174.3220  136.4980 C   0  0  0  0  0  0  0  0  0  0  0  0
  195.6000  173.6530  135.4730 O   0  0  0  0  0  0  0  0  0  0  0  0
  193.0190  172.7580  136.0680 C   0  0  0  0  0  2  0  0  0  0  0  0
  191.1900  168.3920  137.2480 C   0  0  0  0  0  1  0  0  0  0  0  0
  191.2720  169.8490  137.6610 C   0  0  2  0  0  3  0  0  0  0  0  0
  189.5740  171.2030  136.3620 C   0  0  0  0  0  2  0  0  0  0  0  0
  190.6250  172.2980  136.0910 C   0  0  0  0  0  2  0  0  0  0  0  0
  191.9300  172.0270  136.7310 N   0  0  0  0  0  0  0  0  0  0  0  0
  189.8710  170.4740  137.6700 C   0  0  0  0  0  2  0  0  0  0  0  0
  192.2370  170.5940  136.7340 C   0  0  0  0  0  2  0  0  0  0  0  0
  190.3770  173.5590  141.3390 O   0  0  0  0  0  0  0  0  0  0  0  0
  190.0570  172.2700  141.8050 C   0  0  0  0  0  2  0  0  0  0  0  0
  190.7850  171.2170  140.9830 C   0  0  0  0  0  2  0  0  0  0  0  0
  190.7500  169.8530  141.6590 C   0  0  0  0  0  2  0  0  0  0  0  0
  192.0490  169.0860  141.4350 C   0  0  0  0  0  2  0  0  0  0  0  0
  193.1800  169.6530  142.2820 C   0  0  0  0  0  2  0  0  0  0  0  0
  192.8830  169.5230  143.6370 O   0  0  0  0  0  1  0  0  0  0  0  0
  2  6  1  0  0  0  0
  2 12  1  0  0  0  0
  3  8  2  0  0  0  0
  4  9  1  0  0  0  0
  5  1  1  0  0  0  0
  5  8  1  0  0  0  0
  6 10  1  0  0  0  0
  9  3  2  0  0  0  0
  9 16  1  0  0  0  0
 10 38  1  6  0  0  0
 10  7  1  0  0  0  0
 10 11  1  0  0  0  0
 11  7  1  6  0  0  0
 11 15  1  0  0  0  0
 12  4  1  0  0  0  0
 14  4  2  0  0  0  0
 15 13  1  1  0  0  0
 15  1  1  0  0  0  0
 16 17  1  0  0  0  0
 18 17  1  0  0  0  0
 19 18  1  0  0  0  0
 20 22  2  0  0  0  0
 21 19  1  6  0  0  0
 22 21  1  0  0  0  0
 22 26  1  0  0  0  0
 23 21  1  0  0  0  0
 24 20  1  0  0  0  0
 24 23  2  0  0  0  0
 25 23  1  0  0  0  0
 27 26  1  6  0  0  0
 28 27  1  0  0  0  0
 28 29  1  1  0  0  0
 31 37  1  6  0  0  0
 31 28  1  0  0  0  0
 32 30  1  6  0  0  0
 32 31  1  0  0  0  0
 32 33  1  0  0  0  0
 33 27  1  0  0  0  0
 34 28  1  0  0  0  0
 35 37  1  0  0  0  0
 36 35  1  0  0  0  0
 36 37  1  0  0  0  0
 39 38  1  0  0  0  0
 41 40  1  0  0  0  0
 41 39  1  0  0  0  0
 42 41  2  0  0  0  0
 43 45  1  1  0  0  0
 43 14  1  0  0  0  0
 44 45  2  0  0  0  0
 46 48  2  0  0  0  0
 46 44  1  0  0  0  0
 47 46  1  0  0  0  0
 49 47  1  0  0  0  0
 50 54  1  6  0  0  0
 50 49  1  0  0  0  0
 52 50  1  0  0  0  0
 52 51  1  0  0  0  0
 53 52  2  0  0  0  0
 54 59  1  0  0  0  0
 56 55  1  6  0  0  0
 56 60  1  0  0  0  0
 57 60  1  0  0  0  0
 58 57  1  0  0  0  0
 58 59  1  0  0  0  0
 59 61  1  0  0  0  0
 61 56  1  0  0  0  0
 62 63  1  0  0  0  0
 62 43  1  0  0  0  0
 64 65  1  0  0  0  0
 64 63  1  0  0  0  0
 66 65  1  0  0  0  0
 66 67  1  0  0  0  0
 67 68  1  0  0  0  0
M  END
>  <MODEL>
6

>  <REMARK>
 VINA RESULT:      -4.7      1.449      2.296
  Name = 
  24 active torsions:
  status: ('A' for Active; 'I' for Inactive)
    1  A    between atoms: C_1  and  C_38
    2  A    between atoms: C_1  and  O_52
    3  A    between atoms: C_2  and  C_4
    4  A    between atoms: C_3  and  N_61
    5  A    between atoms: C_5  and  C_35
    6  A    between atoms: C_5  and  N_42
    7  A    between atoms: C_10  and  C_31
    8  A    between atoms: C_10  and  C_58
    9  A    between atoms: C_16  and  C_18
   10  A    between atoms: C_16  and  C_25
   11  A    between atoms: C_18  and  C_27
   12  A    between atoms: C_22  and  C_33
   13  A    between atoms: C_27  and  C_33
   14  A    between atoms: C_29  and  O_52
   15  A    between atoms: C_31  and  C_34
   16  A    between atoms: C_32  and  C_58
   17  A    between atoms: C_34  and  O_56
   18  A    between atoms: C_35  and  C_37
   19  A    between atoms: C_35  and  C_47
   20  A    between atoms: N_36  and  C_67
   21  A    between atoms: C_37  and  N_60
   22  A    between atoms: C_55  and  C_57
   23  A    between atoms: O_56  and  C_57
   24  A    between atoms: C_57  and  C_64
                            x       y       z     vdW  Elec       q    Type
                         _______ _______ _______ _____ _____    ______ ____

>  <TORSDO>
F 24

$$$$
=
 OpenBabel11042418563D

 68 73  0  0  1  0  0  0  0  0999 V2000
  189.6010  177.3500  145.7010 C   0  0  0  0  0  2  0  0  0  0  0  0
  187.5790  174.9710  141.7310 C   0  0  0  0  0  2  0  0  0  0  0  0
  191.1610  175.8390  143.5640 C   0  0  0  0  0  0  0  0  0  0  0  0
  190.0050  174.3730  142.0210 C   0  0  0  0  0  0  0  0  0  0  0  0
  190.2770  177.9280  144.4630 C   0  0  0  0  0  2  0  0  0  0  0  0
  187.0760  175.0370  143.1660 C   0  0  0  0  0  2  0  0  0  0  0  0
  185.9810  176.4390  144.9220 C   0  0  0  0  0  2  0  0  0  0  0  0
  191.3900  177.0550  143.9850 C   0  0  0  0  0  3  0  0  0  0  0  0
  190.9240  174.6200  143.1540 C   0  0  0  0  0  0  0  0  0  0  0  0
  186.6560  176.4540  143.5740 C   0  0  1  0  0  0  0  0  0  0  0  0
  187.3070  177.1680  144.7500 C   0  0  2  0  0  3  0  0  0  0  0  0
  189.0210  175.4440  141.6130 C   0  0  0  0  0  2  0  0  0  0  0  0
  188.1170  175.6720  146.4540 F   0  0  0  0  0  0  0  0  0  0  0  0
  190.1460  173.2480  141.3050 C   0  0  0  0  0  3  0  0  0  0  0  0
  188.4880  176.3850  145.3300 C   0  0  2  0  0  3  0  0  0  0  0  0
  191.7680  173.5250  143.7190 C   0  0  0  0  0  2  0  0  0  0  0  0
  193.2380  173.7070  143.3550 C   0  0  0  0  0  2  0  0  0  0  0  0
  194.1730  173.4100  144.5270 C   0  0  0  0  0  2  0  0  0  0  0  0
  193.7600  174.1640  145.7810 C   0  0  0  0  0  2  0  0  0  0  0  0
  195.5690  176.6990  144.5310 N   0  0  0  0  0  0  0  0  0  0  0  0
  194.8120  175.2000  146.1230 C   0  0  1  0  0  3  0  0  0  0  0  0
  195.6830  175.4800  144.9460 C   0  0  0  0  0  0  0  0  0  0  0  0
  194.1980  176.5530  146.2290 C   0  0  0  0  0  0  0  0  0  0  0  0
  194.6490  177.3710  145.3400 N   0  0  0  0  0  0  0  0  0  0  0  0
  193.2790  176.9450  147.2460 N   0  0  0  0  0  1  0  0  0  0  0  0
  196.5390  174.5160  144.3270 N   0  0  0  0  0  2  0  0  0  0  0  0
  197.4040  174.8440  143.1980 C   0  0  1  0  0  3  0  0  0  0  0  0
  197.0560  174.0450  141.9450 C   0  0  2  0  0  0  0  0  0  0  0  0
  197.9390  172.8120  141.8720 C   0  0  0  0  0  1  0  0  0  0  0  0
  195.6500  176.5970  141.0750 O   0  0  0  0  0  1  0  0  0  0  0  0
  197.3450  174.9470  140.8240 N   0  0  2  0  0  0  0  0  0  0  0  0
  197.0010  176.2950  141.3040 C   0  0  2  0  0  3  0  0  0  0  0  0
  197.2480  176.3000  142.8030 C   0  0  0  0  0  2  0  0  0  0  0  0
  195.7050  173.6620  141.9530 O   0  0  0  0  0  1  0  0  0  0  0  0
  197.5750  173.8820  138.6360 C   0  0  0  0  0  2  0  0  0  0  0  0
  197.2310  175.3370  138.4160 C   0  0  0  0  0  2  0  0  0  0  0  0
  196.6280  174.5900  139.5920 C   0  0  0  0  0  3  0  0  0  0  0  0
  185.9290  177.3600  142.5920 C   0  0  0  0  0  2  0  0  0  0  0  0
  184.5960  177.5940  143.0250 O   0  0  0  0  0  0  0  0  0  0  0  0
  182.8360  179.0740  143.7240 O   0  0  0  0  0  1  0  0  0  0  0  0
  184.1750  178.8620  143.4240 C   0  0  0  0  0  0  0  0  0  0  0  0
  184.9960  179.8140  143.5350 O   0  0  0  0  0  0  0  0  0  0  0  0
  189.3190  172.9200  140.0930 C   0  0  1  0  0  3  0  0  0  0  0  0
  189.7750  173.7590  137.7590 C   0  0  0  0  0  3  0  0  0  0  0  0
  189.3980  173.9770  139.0220 C   0  0  0  0  0  3  0  0  0  0  0  0
  190.1770  172.4610  137.1720 C   0  0  0  0  0  0  0  0  0  0  0  0
  191.5580  172.1020  137.0930 N   0  0  0  0  0  2  0  0  0  0  0  0
  189.3130  171.6490  136.7490 O   0  0  0  0  0  0  0  0  0  0  0  0
  192.6200  172.9250  137.6530 C   0  0  0  0  0  2  0  0  0  0  0  0
  193.7210  173.1120  136.6300 C   0  0  1  0  0  3  0  0  0  0  0  0
  194.6730  174.9670  135.4740 O   0  0  0  0  0  0  0  0  0  0  0  0
  194.0130  174.5710  136.4690 C   0  0  0  0  0  0  0  0  0  0  0  0
  193.5580  175.4910  137.4080 O   0  0  0  0  0  1  0  0  0  0  0  0
  194.9630  172.3230  137.0750 C   0  0  0  0  0  2  0  0  0  0  0  0
  193.4170  168.4120  134.6030 C   0  0  0  0  0  1  0  0  0  0  0  0
  194.4560  169.5160  134.6420 C   0  0  2  0  0  3  0  0  0  0  0  0
  196.3170  168.8830  136.2340 C   0  0  0  0  0  2  0  0  0  0  0  0
  196.3010  170.2970  136.8480 C   0  0  0  0  0  2  0  0  0  0  0  0
  195.3350  171.2060  136.1940 N   0  0  0  0  0  0  0  0  0  0  0  0
  195.8600  168.9140  134.7780 C   0  0  0  0  0  2  0  0  0  0  0  0
  194.1260  170.4930  135.7750 C   0  0  0  0  0  2  0  0  0  0  0  0
  189.5480  171.6120  139.6110 O   0  0  0  0  0  0  0  0  0  0  0  0
  190.6760  171.0600  140.2480 C   0  0  0  0  0  2  0  0  0  0  0  0
  190.9240  169.6440  139.7490 C   0  0  0  0  0  2  0  0  0  0  0  0
  192.0050  168.9430  140.5600 C   0  0  0  0  0  2  0  0  0  0  0  0
  192.7680  169.9270  141.4400 C   0  0  0  0  0  2  0  0  0  0  0  0
  192.5780  169.6100  142.9170 C   0  0  0  0  0  2  0  0  0  0  0  0
  192.4250  168.2380  143.1030 O   0  0  0  0  0  1  0  0  0  0  0  0
  2  6  1  0  0  0  0
  3  8  2  0  0  0  0
  4  9  1  0  0  0  0
  5  1  1  0  0  0  0
  6 10  1  0  0  0  0
  8  5  1  0  0  0  0
  9  3  2  0  0  0  0
  9 16  1  0  0  0  0
 10 38  1  6  0  0  0
 10 11  1  0  0  0  0
 10  7  1  0  0  0  0
 11  7  1  1  0  0  0
 11 15  1  0  0  0  0
 12  2  1  0  0  0  0
 12  4  1  0  0  0  0
 14  4  2  0  0  0  0
 15  1  1  0  0  0  0
 15 13  1  1  0  0  0
 17 16  1  0  0  0  0
 17 18  1  0  0  0  0
 18 19  1  0  0  0  0
 20 22  2  0  0  0  0
 20 24  1  0  0  0  0
 21 19  1  6  0  0  0
 21 23  1  0  0  0  0
 22 21  1  0  0  0  0
 23 25  1  0  0  0  0
 24 23  2  0  0  0  0
 26 22  1  0  0  0  0
 27 26  1  1  0  0  0
 28 29  1  6  0  0  0
 28 34  1  0  0  0  0
 28 27  1  0  0  0  0
 31 37  1  6  0  0  0
 31 32  1  0  0  0  0
 31 28  1  0  0  0  0
 32 30  1  1  0  0  0
 32 33  1  0  0  0  0
 33 27  1  0  0  0  0
 35 37  1  0  0  0  0
 36 35  1  0  0  0  0
 36 37  1  0  0  0  0
 38 39  1  0  0  0  0
 39 41  1  0  0  0  0
 41 42  2  0  0  0  0
 41 40  1  0  0  0  0
 43 45  1  6  0  0  0
 43 14  1  0  0  0  0
 44 45  2  0  0  0  0
 46 44  1  0  0  0  0
 47 46  1  0  0  0  0
 47 49  1  0  0  0  0
 48 46  2  0  0  0  0
 50 54  1  1  0  0  0
 50 49  1  0  0  0  0
 51 52  2  0  0  0  0
 52 50  1  0  0  0  0
 52 53  1  0  0  0  0
 56 55  1  1  0  0  0
 56 60  1  0  0  0  0
 56 61  1  0  0  0  0
 57 58  1  0  0  0  0
 59 58  1  0  0  0  0
 59 54  1  0  0  0  0
 60 57  1  0  0  0  0
 61 59  1  0  0  0  0
 62 43  1  0  0  0  0
 62 63  1  0  0  0  0
 64 63  1  0  0  0  0
 64 65  1  0  0  0  0
 65 66  1  0  0  0  0
 66 67  1  0  0  0  0
 67 68  1  0  0  0  0
M  END
>  <MODEL>
7

>  <REMARK>
 VINA RESULT:      -4.6      2.213      4.140
  Name = 
  24 active torsions:
  status: ('A' for Active; 'I' for Inactive)
    1  A    between atoms: C_1  and  C_38
    2  A    between atoms: C_1  and  O_52
    3  A    between atoms: C_2  and  C_4
    4  A    between atoms: C_3  and  N_61
    5  A    between atoms: C_5  and  C_35
    6  A    between atoms: C_5  and  N_42
    7  A    between atoms: C_10  and  C_31
    8  A    between atoms: C_10  and  C_58
    9  A    between atoms: C_16  and  C_18
   10  A    between atoms: C_16  and  C_25
   11  A    between atoms: C_18  and  C_27
   12  A    between atoms: C_22  and  C_33
   13  A    between atoms: C_27  and  C_33
   14  A    between atoms: C_29  and  O_52
   15  A    between atoms: C_31  and  C_34
   16  A    between atoms: C_32  and  C_58
   17  A    between atoms: C_34  and  O_56
   18  A    between atoms: C_35  and  C_37
   19  A    between atoms: C_35  and  C_47
   20  A    between atoms: N_36  and  C_67
   21  A    between atoms: C_37  and  N_60
   22  A    between atoms: C_55  and  C_57
   23  A    between atoms: O_56  and  C_57
   24  A    between atoms: C_57  and  C_64
                            x       y       z     vdW  Elec       q    Type
                         _______ _______ _______ _____ _____    ______ ____

>  <TORSDO>
F 24

$$$$
=
 OpenBabel11042418563D

 68 73  0  0  1  0  0  0  0  0999 V2000
  193.9160  176.1050  146.5800 C   0  0  0  0  0  2  0  0  0  0  0  0
  189.4470  175.6260  144.2760 C   0  0  0  0  0  2  0  0  0  0  0  0
  193.4960  175.8610  143.5730 C   0  0  0  0  0  0  0  0  0  0  0  0
  191.3480  175.1650  142.6950 C   0  0  0  0  0  0  0  0  0  0  0  0
  193.8340  177.2340  145.5600 C   0  0  0  0  0  2  0  0  0  0  0  0
  189.9280  174.9930  145.5740 C   0  0  0  0  0  2  0  0  0  0  0  0
  190.4550  175.3500  147.9910 C   0  0  0  0  0  2  0  0  0  0  0  0
  194.2040  176.7680  144.1910 C   0  0  0  0  0  3  0  0  0  0  0  0
  192.7860  174.9460  142.9650 C   0  0  0  0  0  0  0  0  0  0  0  0
  190.1760  176.0300  146.6750 C   0  0  1  0  0  0  0  0  0  0  0  0
  191.5420  176.1840  147.3280 C   0  0  2  0  0  3  0  0  0  0  0  0
  190.5960  176.2190  143.4740 C   0  0  0  0  0  2  0  0  0  0  0  0
  192.8320  174.1510  147.3510 F   0  0  0  0  0  0  0  0  0  0  0  0
  190.7690  174.5030  141.6830 C   0  0  0  0  0  3  0  0  0  0  0  0
  192.6140  175.3240  146.6540 C   0  0  2  0  0  3  0  0  0  0  0  0
  193.5180  173.7880  142.3700 C   0  0  0  0  0  2  0  0  0  0  0  0
  193.4830  173.8280  140.8460 C   0  0  0  0  0  2  0  0  0  0  0  0
  194.7990  173.3690  140.2180 C   0  0  0  0  0  2  0  0  0  0  0  0
  195.5490  174.5270  139.5770 C   0  0  0  0  0  2  0  0  0  0  0  0
  195.4390  174.2160  136.2370 N   0  0  0  0  0  0  0  0  0  0  0  0
  196.3190  174.0300  138.3700 C   0  0  1  0  0  3  0  0  0  0  0  0
  195.3910  173.5160  137.3230 C   0  0  0  0  0  0  0  0  0  0  0  0
  196.8640  175.1770  137.5900 C   0  0  0  0  0  0  0  0  0  0  0  0
  196.3680  175.2460  136.4020 N   0  0  0  0  0  0  0  0  0  0  0  0
  197.8850  176.0570  138.0550 N   0  0  0  0  0  1  0  0  0  0  0  0
  194.5270  172.3880  137.4930 N   0  0  0  0  0  2  0  0  0  0  0  0
  193.6600  171.8950  136.4280 C   0  0  1  0  0  3  0  0  0  0  0  0
  192.1920  171.8580  136.8410 C   0  0  2  0  0  0  0  0  0  0  0  0
  191.8470  170.4690  137.3490 C   0  0  0  0  0  1  0  0  0  0  0  0
  191.9890  174.4390  135.2470 O   0  0  0  0  0  1  0  0  0  0  0  0
  191.4410  172.1530  135.6150 N   0  0  2  0  0  0  0  0  0  0  0  0
  192.2680  173.1160  134.8700 C   0  0  2  0  0  3  0  0  0  0  0  0
  193.7140  172.8110  135.2190 C   0  0  0  0  0  2  0  0  0  0  0  0
  191.9270  172.8080  137.8410 O   0  0  0  0  0  1  0  0  0  0  0  0
  189.0610  171.6560  135.3620 C   0  0  0  0  0  2  0  0  0  0  0  0
  189.3710  172.8940  134.5530 C   0  0  0  0  0  2  0  0  0  0  0  0
  190.0850  172.6580  135.8720 C   0  0  0  0  0  3  0  0  0  0  0  0
  189.2430  177.2200  146.8440 C   0  0  0  0  0  2  0  0  0  0  0  0
  187.9070  176.7800  147.0450 O   0  0  0  0  0  0  0  0  0  0  0  0
  186.5040  178.2440  145.7550 O   0  0  0  0  0  0  0  0  0  0  0  0
  186.8330  177.6660  146.9730 C   0  0  0  0  0  0  0  0  0  0  0  0
  186.1450  177.9360  147.9970 O   0  0  0  0  0  1  0  0  0  0  0  0
  189.3360  174.6930  141.2710 C   0  0  1  0  0  3  0  0  0  0  0  0
  188.4090  172.3520  141.4040 C   0  0  0  0  0  3  0  0  0  0  0  0
  188.4210  173.6250  141.8110 C   0  0  0  0  0  3  0  0  0  0  0  0
  189.2780  171.7510  140.3670 C   0  0  0  0  0  0  0  0  0  0  0  0
  190.3610  170.8960  140.7380 N   0  0  0  0  0  2  0  0  0  0  0  0
  189.0690  171.9710  139.1440 O   0  0  0  0  0  0  0  0  0  0  0  0
  190.6150  170.4990  142.1150 C   0  0  0  0  0  2  0  0  0  0  0  0
  192.0910  170.6240  142.4250 C   0  0  1  0  0  3  0  0  0  0  0  0
  191.4420  171.5920  144.5050 O   0  0  0  0  0  0  0  0  0  0  0  0
  192.2770  170.8820  143.8880 C   0  0  0  0  0  0  0  0  0  0  0  0
  193.3610  170.3400  144.5690 O   0  0  0  0  0  1  0  0  0  0  0  0
  192.8130  169.3450  141.9700 C   0  0  0  0  0  2  0  0  0  0  0  0
  196.0800  169.2720  138.3480 C   0  0  0  0  0  1  0  0  0  0  0  0
  195.7360  169.8930  139.6880 C   0  0  2  0  0  3  0  0  0  0  0  0
  196.4460  168.3430  141.5570 C   0  0  0  0  0  2  0  0  0  0  0  0
  195.1020  168.5660  142.2800 C   0  0  0  0  0  2  0  0  0  0  0  0
  194.2210  169.5310  141.5880 N   0  0  0  0  0  0  0  0  0  0  0  0
  196.8240  169.5600  140.7180 C   0  0  0  0  0  2  0  0  0  0  0  0
  194.3480  169.4240  140.1320 C   0  0  0  0  0  2  0  0  0  0  0  0
  188.8680  176.0060  141.5030 O   0  0  0  0  0  0  0  0  0  0  0  0
  187.4880  176.0750  141.2320 C   0  0  0  0  0  2  0  0  0  0  0  0
  186.7110  176.3180  142.5170 C   0  0  0  0  0  2  0  0  0  0  0  0
  185.5090  177.2240  142.2850 C   0  0  0  0  0  2  0  0  0  0  0  0
  185.6930  178.0870  141.0410 C   0  0  0  0  0  2  0  0  0  0  0  0
  184.3620  178.6290  140.5420 C   0  0  0  0  0  2  0  0  0  0  0  0
  183.3150  178.1340  141.3180 O   0  0  0  0  0  1  0  0  0  0  0  0
  1 15  1  0  0  0  0
  2  6  1  0  0  0  0
  3  8  2  0  0  0  0
  4  9  1  0  0  0  0
  4 12  1  0  0  0  0
  5  1  1  0  0  0  0
  6 10  1  0  0  0  0
  8  5  1  0  0  0  0
  9  3  2  0  0  0  0
 10 38  1  1  0  0  0
 10 11  1  0  0  0  0
 10  7  1  0  0  0  0
 11  7  1  1  0  0  0
 12  2  1  0  0  0  0
 14  4  2  0  0  0  0
 15 11  1  0  0  0  0
 15 13  1  1  0  0  0
 16  9  1  0  0  0  0
 17 16  1  0  0  0  0
 18 17  1  0  0  0  0
 19 18  1  0  0  0  0
 20 24  1  0  0  0  0
 20 22  2  0  0  0  0
 21 19  1  1  0  0  0
 22 26  1  0  0  0  0
 22 21  1  0  0  0  0
 23 25  1  0  0  0  0
 23 21  1  0  0  0  0
 24 23  2  0  0  0  0
 27 28  1  0  0  0  0
 27 26  1  1  0  0  0
 28 29  1  1  0  0  0
 28 34  1  0  0  0  0
 31 37  1  1  0  0  0
 31 28  1  0  0  0  0
 32 33  1  0  0  0  0
 32 30  1  1  0  0  0
 32 31  1  0  0  0  0
 33 27  1  0  0  0  0
 35 37  1  0  0  0  0
 36 35  1  0  0  0  0
 36 37  1  0  0  0  0
 38 39  1  0  0  0  0
 40 41  2  0  0  0  0
 41 39  1  0  0  0  0
 41 42  1  0  0  0  0
 43 62  1  0  0  0  0
 43 14  1  1  0  0  0
 43 45  1  0  0  0  0
 44 45  2  0  0  0  0
 46 47  1  0  0  0  0
 46 44  1  0  0  0  0
 47 49  1  0  0  0  0
 48 46  2  0  0  0  0
 49 50  1  0  0  0  0
 50 54  1  1  0  0  0
 50 52  1  0  0  0  0
 52 51  2  0  0  0  0
 52 53  1  0  0  0  0
 56 55  1  6  0  0  0
 56 61  1  0  0  0  0
 56 60  1  0  0  0  0
 57 58  1  0  0  0  0
 59 54  1  0  0  0  0
 59 58  1  0  0  0  0
 60 57  1  0  0  0  0
 61 59  1  0  0  0  0
 63 62  1  0  0  0  0
 63 64  1  0  0  0  0
 65 64  1  0  0  0  0
 66 65  1  0  0  0  0
 67 66  1  0  0  0  0
 67 68  1  0  0  0  0
M  END
>  <MODEL>
8

>  <REMARK>
 VINA RESULT:      -4.6      2.889      6.931
  Name = 
  24 active torsions:
  status: ('A' for Active; 'I' for Inactive)
    1  A    between atoms: C_1  and  C_38
    2  A    between atoms: C_1  and  O_52
    3  A    between atoms: C_2  and  C_4
    4  A    between atoms: C_3  and  N_61
    5  A    between atoms: C_5  and  C_35
    6  A    between atoms: C_5  and  N_42
    7  A    between atoms: C_10  and  C_31
    8  A    between atoms: C_10  and  C_58
    9  A    between atoms: C_16  and  C_18
   10  A    between atoms: C_16  and  C_25
   11  A    between atoms: C_18  and  C_27
   12  A    between atoms: C_22  and  C_33
   13  A    between atoms: C_27  and  C_33
   14  A    between atoms: C_29  and  O_52
   15  A    between atoms: C_31  and  C_34
   16  A    between atoms: C_32  and  C_58
   17  A    between atoms: C_34  and  O_56
   18  A    between atoms: C_35  and  C_37
   19  A    between atoms: C_35  and  C_47
   20  A    between atoms: N_36  and  C_67
   21  A    between atoms: C_37  and  N_60
   22  A    between atoms: C_55  and  C_57
   23  A    between atoms: O_56  and  C_57
   24  A    between atoms: C_57  and  C_64
                            x       y       z     vdW  Elec       q    Type
                         _______ _______ _______ _____ _____    ______ ____

>  <TORSDO>
F 24

$$$$
=
 OpenBabel11042418563D

 68 73  0  0  1  0  0  0  0  0999 V2000
  191.0610  169.3130  137.7280 C   0  0  0  0  0  2  0  0  0  0  0  0
  190.0950  173.2530  140.7360 C   0  0  0  0  0  2  0  0  0  0  0  0
  191.2850  169.3130  140.7660 C   0  0  0  0  0  0  0  0  0  0  0  0
  191.2490  171.4030  141.9900 C   0  0  0  0  0  0  0  0  0  0  0  0
  190.0190  168.8400  138.7360 C   0  0  0  0  0  2  0  0  0  0  0  0
  190.7940  173.2290  139.3840 C   0  0  0  0  0  2  0  0  0  0  0  0
  190.5260  172.9980  136.9100 C   0  0  0  0  0  2  0  0  0  0  0  0
  190.6460  168.4420  140.0310 C   0  0  0  0  0  3  0  0  0  0  0  0
  191.9310  170.1880  141.4920 C   0  0  0  0  0  0  0  0  0  0  0  0
  189.8530  172.8160  138.2460 C   0  0  1  0  0  0  0  0  0  0  0  0
  190.1440  171.6010  137.3770 C   0  0  2  0  0  3  0  0  0  0  0  0
  189.9670  171.8600  141.3340 C   0  0  0  0  0  2  0  0  0  0  0  0
  192.4910  171.1080  137.1660 F   0  0  0  0  0  0  0  0  0  0  0  0
  191.7190  172.0070  143.0900 C   0  0  0  0  0  3  0  0  0  0  0  0
  191.3480  170.7980  137.8760 C   0  0  2  0  0  3  0  0  0  0  0  0
  193.2950  169.8150  141.9720 C   0  0  0  0  0  2  0  0  0  0  0  0
  194.3140  170.9080  141.6670 C   0  0  0  0  0  2  0  0  0  0  0  0
  195.5330  170.8450  142.5870 C   0  0  0  0  0  2  0  0  0  0  0  0
  195.5050  171.9480  143.6330 C   0  0  0  0  0  2  0  0  0  0  0  0
  196.8010  174.9700  142.9610 N   0  0  0  0  0  0  0  0  0  0  0  0
  196.7970  172.7390  143.5760 C   0  0  1  0  0  3  0  0  0  0  0  0
  196.7440  173.7650  142.4960 C   0  0  0  0  0  0  0  0  0  0  0  0
  196.8830  173.6820  144.7260 C   0  0  0  0  0  0  0  0  0  0  0  0
  196.8990  174.9160  144.3530 N   0  0  0  0  0  0  0  0  0  0  0  0
  197.0230  173.2840  146.0880 N   0  0  0  0  0  1  0  0  0  0  0  0
  196.6260  173.4660  141.1020 N   0  0  0  0  0  2  0  0  0  0  0  0
  196.6140  174.5010  140.0740 C   0  0  1  0  0  3  0  0  0  0  0  0
  196.5390  173.9220  138.6640 C   0  0  2  0  0  0  0  0  0  0  0  0
  197.9410  173.7990  138.0950 C   0  0  0  0  0  1  0  0  0  0  0  0
  193.5930  174.6530  138.8470 O   0  0  0  0  0  1  0  0  0  0  0  0
  195.7580  174.8970  137.8910 N   0  0  2  0  0  0  0  0  0  0  0  0
  194.7590  175.4330  138.8310 C   0  0  2  0  0  3  0  0  0  0  0  0
  195.3890  175.3860  140.2110 C   0  0  0  0  0  2  0  0  0  0  0  0
  195.9160  172.6630  138.6700 O   0  0  0  0  0  1  0  0  0  0  0  0
  196.2320  173.8520  135.7340 C   0  0  0  0  0  2  0  0  0  0  0  0
  195.5210  175.1600  135.4760 C   0  0  0  0  0  2  0  0  0  0  0  0
  195.1450  174.3230  136.6860 C   0  0  0  0  0  3  0  0  0  0  0  0
  188.4110  173.2980  138.2190 C   0  0  0  0  0  2  0  0  0  0  0  0
  188.3550  174.6810  137.8990 O   0  0  0  0  0  0  0  0  0  0  0  0
  186.3630  175.6360  136.9520 O   0  0  0  0  0  1  0  0  0  0  0  0
  187.6490  175.1410  136.7880 C   0  0  0  0  0  0  0  0  0  0  0  0
  188.1700  175.1300  135.6380 O   0  0  0  0  0  0  0  0  0  0  0  0
  191.0720  173.2040  143.7290 C   0  0  1  0  0  3  0  0  0  0  0  0
  189.3910  173.5010  145.5860 C   0  0  0  0  0  3  0  0  0  0  0  0
  189.8220  172.8580  144.4960 C   0  0  0  0  0  3  0  0  0  0  0  0
  190.0420  174.6590  146.2390 C   0  0  0  0  0  0  0  0  0  0  0  0
  189.3910  175.9310  146.2680 N   0  0  0  0  0  2  0  0  0  0  0  0
  191.1680  174.5390  146.7910 O   0  0  0  0  0  0  0  0  0  0  0  0
  188.0460  176.1390  145.7530 C   0  0  0  0  0  2  0  0  0  0  0  0
  187.1260  176.5730  146.8750 C   0  0  1  0  0  3  0  0  0  0  0  0
  188.6960  178.3410  147.1760 O   0  0  0  0  0  0  0  0  0  0  0  0
  187.5160  177.9390  147.3440 C   0  0  0  0  0  0  0  0  0  0  0  0
  186.5840  178.7680  147.9600 O   0  0  0  0  0  1  0  0  0  0  0  0
  185.6700  176.5280  146.3800 C   0  0  0  0  0  2  0  0  0  0  0  0
  187.2260  176.5940  141.7570 C   0  0  0  0  0  1  0  0  0  0  0  0
  186.0110  176.7380  142.6530 C   0  0  2  0  0  3  0  0  0  0  0  0
  185.9150  179.0850  143.5920 C   0  0  0  0  0  2  0  0  0  0  0  0
  185.5920  178.5320  144.9950 C   0  0  0  0  0  2  0  0  0  0  0  0
  185.4600  177.0600  145.0260 N   0  0  0  0  0  0  0  0  0  0  0  0
  185.4100  178.1420  142.5040 C   0  0  0  0  0  2  0  0  0  0  0  0
  186.3970  176.4180  144.1000 C   0  0  0  0  0  2  0  0  0  0  0  0
  191.9850  173.9930  144.4650 O   0  0  0  0  0  0  0  0  0  0  0  0
  192.7880  174.7400  143.5820 C   0  0  0  0  0  2  0  0  0  0  0  0
  193.4790  175.8720  144.3280 C   0  0  0  0  0  2  0  0  0  0  0  0
  192.5430  177.0510  144.5530 C   0  0  0  0  0  2  0  0  0  0  0  0
  191.9130  177.5210  143.2460 C   0  0  0  0  0  2  0  0  0  0  0  0
  190.4250  177.2020  143.2040 C   0  0  0  0  0  2  0  0  0  0  0  0
  189.6820  178.2950  143.6460 O   0  0  0  0  0  1  0  0  0  0  0  0
  1 15  1  0  0  0  0
  1  5  1  0  0  0  0
  2 12  1  0  0  0  0
  3  9  2  0  0  0  0
  4 14  2  0  0  0  0
  5  8  1  0  0  0  0
  6  2  1  0  0  0  0
  7 10  1  0  0  0  0
  8  3  2  0  0  0  0
  9 16  1  0  0  0  0
  9  4  1  0  0  0  0
 10 38  1  1  0  0  0
 10  6  1  0  0  0  0
 11  7  1  6  0  0  0
 11 15  1  0  0  0  0
 11 10  1  0  0  0  0
 12  4  1  0  0  0  0
 15 13  1  6  0  0  0
 17 16  1  0  0  0  0
 17 18  1  0  0  0  0
 18 19  1  0  0  0  0
 20 24  1  0  0  0  0
 21 19  1  1  0  0  0
 21 23  1  0  0  0  0
 22 20  2  0  0  0  0
 22 21  1  0  0  0  0
 23 25  1  0  0  0  0
 24 23  2  0  0  0  0
 26 22  1  0  0  0  0
 27 33  1  0  0  0  0
 27 26  1  1  0  0  0
 28 29  1  6  0  0  0
 28 34  1  0  0  0  0
 28 27  1  0  0  0  0
 31 37  1  6  0  0  0
 31 28  1  0  0  0  0
 31 32  1  0  0  0  0
 32 30  1  1  0  0  0
 32 33  1  0  0  0  0
 35 37  1  0  0  0  0
 36 35  1  0  0  0  0
 36 37  1  0  0  0  0
 39 38  1  0  0  0  0
 41 40  1  0  0  0  0
 41 39  1  0  0  0  0
 42 41  2  0  0  0  0
 43 14  1  1  0  0  0
 43 62  1  0  0  0  0
 43 45  1  0  0  0  0
 44 46  1  0  0  0  0
 45 44  2  0  0  0  0
 46 47  1  0  0  0  0
 46 48  2  0  0  0  0
 49 47  1  0  0  0  0
 50 49  1  6  0  0  0
 50 52  1  0  0  0  0
 51 52  2  0  0  0  0
 52 53  1  0  0  0  0
 54 50  1  0  0  0  0
 56 55  1  6  0  0  0
 56 61  1  0  0  0  0
 57 58  1  0  0  0  0
 58 59  1  0  0  0  0
 59 54  1  0  0  0  0
 60 56  1  0  0  0  0
 60 57  1  0  0  0  0
 61 59  1  0  0  0  0
 63 64  1  0  0  0  0
 63 62  1  0  0  0  0
 64 65  1  0  0  0  0
 66 65  1  0  0  0  0
 67 66  1  0  0  0  0
 67 68  1  0  0  0  0
M  END
>  <MODEL>
9

>  <REMARK>
 VINA RESULT:      -4.1      3.030      8.235
  Name = 
  24 active torsions:
  status: ('A' for Active; 'I' for Inactive)
    1  A    between atoms: C_1  and  C_38
    2  A    between atoms: C_1  and  O_52
    3  A    between atoms: C_2  and  C_4
    4  A    between atoms: C_3  and  N_61
    5  A    between atoms: C_5  and  C_35
    6  A    between atoms: C_5  and  N_42
    7  A    between atoms: C_10  and  C_31
    8  A    between atoms: C_10  and  C_58
    9  A    between atoms: C_16  and  C_18
   10  A    between atoms: C_16  and  C_25
   11  A    between atoms: C_18  and  C_27
   12  A    between atoms: C_22  and  C_33
   13  A    between atoms: C_27  and  C_33
   14  A    between atoms: C_29  and  O_52
   15  A    between atoms: C_31  and  C_34
   16  A    between atoms: C_32  and  C_58
   17  A    between atoms: C_34  and  O_56
   18  A    between atoms: C_35  and  C_37
   19  A    between atoms: C_35  and  C_47
   20  A    between atoms: N_36  and  C_67
   21  A    between atoms: C_37  and  N_60
   22  A    between atoms: C_55  and  C_57
   23  A    between atoms: O_56  and  C_57
   24  A    between atoms: C_57  and  C_64
                            x       y       z     vdW  Elec       q    Type
                         _______ _______ _______ _____ _____    ______ ____

>  <TORSDO>
F 24

$$$$
