=
 OpenBabel11042416563D

 35 39  0  0  1  0  0  0  0  0999 V2000
  185.6280  177.4790  143.6370 C   0  0  1  0  0  3  0  0  0  0  0  0
  185.9170  177.2920  147.3920 C   0  0  0  0  0  2  0  0  0  0  0  0
  184.4550  178.3290  143.9610 C   0  0  0  0  0  0  0  0  0  0  0  0
  184.2420  178.7230  145.6890 S   0  0  0  0  0  0  0  0  0  0  0  0
  189.6530  177.8540  143.8530 C   0  0  0  0  0  2  0  0  0  0  0  0
  187.4030  176.4900  145.1180 C   0  0  1  0  0  3  0  0  0  0  0  0
  189.5710  176.9210  146.1940 C   0  0  0  0  0  0  0  0  0  0  0  0
  185.1640  177.1990  146.0560 C   0  0  1  0  0  3  0  0  0  0  0  0
  187.3610  177.7660  147.2150 C   0  0  0  0  0  2  0  0  0  0  0  0
  186.7200  178.3580  143.0070 C   0  0  0  0  0  2  0  0  0  0  0  0
  187.7490  177.5370  142.2150 C   0  0  0  0  0  2  0  0  0  0  0  0
  183.6360  178.6530  143.1190 O   0  0  0  0  0  0  0  0  0  0  0  0
  188.0840  176.9470  146.1810 C   0  0  1  0  0  3  0  0  0  0  0  0
  186.0530  176.9220  144.9220 N   0  0  1  0  0  0  0  0  0  0  0  0
  190.2800  177.3140  145.1180 C   0  0  0  0  0  3  0  0  0  0  0  0
  188.7980  176.8200  143.0850 C   0  0  2  0  0  0  0  0  0  0  0  0
  188.1090  175.9330  144.0120 N   0  0  0  0  0  2  0  0  0  0  0  0
  190.2910  176.4750  147.4060 C   0  0  0  0  0  0  0  0  0  0  0  0
  190.2900  175.2590  147.7340 O   0  0  0  0  0  0  0  0  0  0  0  0
  191.0030  177.4110  148.2130 N   0  0  0  0  0  1  0  0  0  0  0  0
  189.7030  175.9590  142.2020 C   0  0  0  0  0  2  0  0  0  0  0  0
  189.0800  174.6230  141.8080 C   0  0  0  0  0  2  0  0  0  0  0  0
  190.0570  173.4790  142.0440 C   0  0  0  0  0  2  0  0  0  0  0  0
  191.3620  173.9920  142.4420 N   0  0  0  0  0  2  0  0  0  0  0  0
  191.8440  173.1790  143.5510 C   0  0  2  0  0  3  0  0  0  0  0  0
  190.8620  172.0560  143.8200 C   0  0  0  0  0  1  0  0  0  0  0  0
  191.9810  174.0380  144.8030 C   0  0  0  0  0  2  0  0  0  0  0  0
  193.3190  176.0420  145.3170 C   0  0  0  0  0  3  0  0  0  0  0  0
  194.9520  177.7230  145.6690 O   0  0  0  0  0  0  0  0  0  0  0  0
  193.2370  174.8410  144.7750 C   0  0  0  0  0  0  0  0  0  0  0  0
  194.7250  174.2330  143.9810 S   0  0  0  0  0  0  0  0  0  0  0  0
  194.6390  176.6150  145.1620 C   0  0  0  0  0  0  0  0  0  0  0  0
  195.6080  175.7760  144.4010 C   0  0  2  0  0  3  0  0  0  0  0  0
  197.3360  176.9510  143.2370 O   0  0  0  0  0  1  0  0  0  0  0  0
  196.0320  176.4700  143.1160 C   0  0  0  0  0  2  0  0  0  0  0  0
  1 10  1  1  0  0  0
  1  3  1  0  0  0  0
  1 14  1  0  0  0  0
  3  4  1  0  0  0  0
  4  8  1  0  0  0  0
  5 15  1  0  0  0  0
  6 17  1  6  0  0  0
  6 13  1  0  0  0  0
  7 18  1  0  0  0  0
  8  2  1  1  0  0  0
  9  2  1  0  0  0  0
 11 10  1  0  0  0  0
 11 16  1  0  0  0  0
 12  3  2  0  0  0  0
 13  7  1  0  0  0  0
 13  9  1  6  0  0  0
 14  6  1  0  0  0  0
 14  8  1  0  0  0  0
 15  7  2  0  0  0  0
 16  5  1  0  0  0  0
 16 17  1  0  0  0  0
 18 19  2  0  0  0  0
 18 20  1  0  0  0  0
 21 16  1  0  0  0  0
 22 23  1  0  0  0  0
 22 21  1  0  0  0  0
 23 24  1  0  0  0  0
 24 25  1  0  0  0  0
 25 26  1  0  0  0  0
 25 27  1  0  0  0  0
 30 27  1  0  0  0  0
 30 28  2  0  0  0  0
 31 33  1  0  0  0  0
 31 30  1  0  0  0  0
 32 28  1  0  0  0  0
 32 29  2  0  0  0  0
 33 32  1  0  0  0  0
 35 34  1  0  0  0  0
 35 33  1  0  0  0  0
M  END
>  <MODEL>
1

>  <REMARK>
 VINA RESULT:      -7.6      0.000      0.000
  Name = 
  9 active torsions:
  status: ('A' for Active; 'I' for Inactive)
    1  A    between atoms: C_2  and  C_4
    2  A    between atoms: C_2  and  N_32
    3  A    between atoms: C_4  and  C_11
    4  A    between atoms: C_12  and  C_13
    5  A    between atoms: C_21  and  C_24
    6  A    between atoms: C_22  and  C_33
    7  A    between atoms: C_22  and  C_34
    8  A    between atoms: C_27  and  N_32
    9  A    between atoms: C_27  and  C_33
                            x       y       z     vdW  Elec       q    Type
                         _______ _______ _______ _____ _____    ______ ____

>  <TORSDO>
F 9

$$$$
=
 OpenBabel11042416563D

 35 39  0  0  1  0  0  0  0  0999 V2000
  185.6560  177.4870  143.6830 C   0  0  1  0  0  3  0  0  0  0  0  0
  185.9590  177.1770  147.4290 C   0  0  0  0  0  2  0  0  0  0  0  0
  184.4790  178.3180  144.0390 C   0  0  0  0  0  0  0  0  0  0  0  0
  184.2680  178.6520  145.7800 S   0  0  0  0  0  0  0  0  0  0  0  0
  189.6790  177.8830  143.8990 C   0  0  0  0  0  2  0  0  0  0  0  0
  187.4430  176.4620  145.1250 C   0  0  1  0  0  3  0  0  0  0  0  0
  189.6120  176.8730  146.2080 C   0  0  0  0  0  0  0  0  0  0  0  0
  185.2020  177.1240  146.0930 C   0  0  1  0  0  3  0  0  0  0  0  0
  187.3980  177.6680  147.2640 C   0  0  0  0  0  2  0  0  0  0  0  0
  186.7400  178.3940  143.0790 C   0  0  0  0  0  2  0  0  0  0  0  0
  187.7720  177.6080  142.2570 C   0  0  0  0  0  2  0  0  0  0  0  0
  183.6540  178.6630  143.2100 O   0  0  0  0  0  0  0  0  0  0  0  0
  188.1240  176.8880  146.2010 C   0  0  1  0  0  3  0  0  0  0  0  0
  186.0890  176.8910  144.9470 N   0  0  1  0  0  0  0  0  0  0  0  0
  190.3140  177.3070  145.1440 C   0  0  0  0  0  3  0  0  0  0  0  0
  188.8300  176.8700  143.1000 C   0  0  2  0  0  0  0  0  0  0  0  0
  188.1500  175.9480  143.9980 N   0  0  0  0  0  2  0  0  0  0  0  0
  190.3380  176.3920  147.4020 C   0  0  0  0  0  0  0  0  0  0  0  0
  190.3110  175.1720  147.7140 O   0  0  0  0  0  0  0  0  0  0  0  0
  191.0870  177.2970  148.2100 N   0  0  0  0  0  1  0  0  0  0  0  0
  189.7380  176.0450  142.1860 C   0  0  0  0  0  2  0  0  0  0  0  0
  189.6290  174.5400  142.4130 C   0  0  0  0  0  2  0  0  0  0  0  0
  190.9870  173.9460  142.7630 C   0  0  0  0  0  2  0  0  0  0  0  0
  191.2700  174.1110  144.1830 N   0  0  0  0  0  2  0  0  0  0  0  0
  192.7160  174.1730  144.3470 C   0  0  2  0  0  3  0  0  0  0  0  0
  193.0830  173.7640  145.7600 C   0  0  0  0  0  1  0  0  0  0  0  0
  193.2090  175.5930  144.0920 C   0  0  0  0  0  2  0  0  0  0  0  0
  195.5250  176.3620  143.7490 C   0  0  0  0  0  3  0  0  0  0  0  0
  197.7770  176.7620  143.1290 O   0  0  0  0  0  0  0  0  0  0  0  0
  194.5190  175.5920  143.3780 C   0  0  0  0  0  0  0  0  0  0  0  0
  194.8100  174.5500  141.9490 S   0  0  0  0  0  0  0  0  0  0  0  0
  196.6850  176.1770  142.9040 C   0  0  0  0  0  0  0  0  0  0  0  0
  196.5050  175.2120  141.7830 C   0  0  2  0  0  3  0  0  0  0  0  0
  196.1200  175.1040  139.4250 O   0  0  0  0  0  1  0  0  0  0  0  0
  196.6340  175.9130  140.4400 C   0  0  0  0  0  2  0  0  0  0  0  0
  1 10  1  1  0  0  0
  1  3  1  0  0  0  0
  1 14  1  0  0  0  0
  3  4  1  0  0  0  0
  4  8  1  0  0  0  0
  5 15  1  0  0  0  0
  6 17  1  6  0  0  0
  6 13  1  0  0  0  0
  7 18  1  0  0  0  0
  8  2  1  1  0  0  0
  9  2  1  0  0  0  0
 11 10  1  0  0  0  0
 11 16  1  0  0  0  0
 12  3  2  0  0  0  0
 13  7  1  0  0  0  0
 13  9  1  6  0  0  0
 14  6  1  0  0  0  0
 14  8  1  0  0  0  0
 15  7  2  0  0  0  0
 16  5  1  0  0  0  0
 16 17  1  0  0  0  0
 18 19  2  0  0  0  0
 18 20  1  0  0  0  0
 21 22  1  0  0  0  0
 21 16  1  0  0  0  0
 22 23  1  0  0  0  0
 23 24  1  0  0  0  0
 24 25  1  0  0  0  0
 25 26  1  0  0  0  0
 27 25  1  0  0  0  0
 30 28  2  0  0  0  0
 30 27  1  0  0  0  0
 31 30  1  0  0  0  0
 32 29  2  0  0  0  0
 32 28  1  0  0  0  0
 33 31  1  0  0  0  0
 33 32  1  0  0  0  0
 34 35  1  0  0  0  0
 35 33  1  0  0  0  0
M  END
>  <MODEL>
2

>  <REMARK>
 VINA RESULT:      -7.3      1.174      1.689
  Name = 
  9 active torsions:
  status: ('A' for Active; 'I' for Inactive)
    1  A    between atoms: C_2  and  C_4
    2  A    between atoms: C_2  and  N_32
    3  A    between atoms: C_4  and  C_11
    4  A    between atoms: C_12  and  C_13
    5  A    between atoms: C_21  and  C_24
    6  A    between atoms: C_22  and  C_33
    7  A    between atoms: C_22  and  C_34
    8  A    between atoms: C_27  and  N_32
    9  A    between atoms: C_27  and  C_33
                            x       y       z     vdW  Elec       q    Type
                         _______ _______ _______ _____ _____    ______ ____

>  <TORSDO>
F 9

$$$$
=
 OpenBabel11042416563D

 35 39  0  0  1  0  0  0  0  0999 V2000
  185.5460  177.6290  143.7710 C   0  0  1  0  0  3  0  0  0  0  0  0
  185.9370  177.0120  147.4710 C   0  0  0  0  0  2  0  0  0  0  0  0
  184.3910  178.4440  144.2240 C   0  0  0  0  0  0  0  0  0  0  0  0
  184.2290  178.6390  145.9910 S   0  0  0  0  0  0  0  0  0  0  0  0
  189.5790  177.9530  143.9130 C   0  0  0  0  0  2  0  0  0  0  0  0
  187.3520  176.4670  145.0780 C   0  0  1  0  0  3  0  0  0  0  0  0
  189.5540  176.7590  146.1340 C   0  0  0  0  0  0  0  0  0  0  0  0
  185.1470  177.0780  146.1550 C   0  0  1  0  0  3  0  0  0  0  0  0
  187.3800  177.4950  147.3080 C   0  0  0  0  0  2  0  0  0  0  0  0
  186.6290  178.5680  143.2140 C   0  0  0  0  0  2  0  0  0  0  0  0
  187.6280  177.8370  142.3050 C   0  0  0  0  0  2  0  0  0  0  0  0
  183.5510  178.8670  143.4480 O   0  0  0  0  0  0  0  0  0  0  0  0
  188.0670  176.7950  146.1670 C   0  0  1  0  0  3  0  0  0  0  0  0
  186.0010  176.9270  144.9710 N   0  0  1  0  0  0  0  0  0  0  0  0
  190.2350  177.2680  145.0900 C   0  0  0  0  0  3  0  0  0  0  0  0
  188.6940  177.0190  143.0570 C   0  0  2  0  0  0  0  0  0  0  0  0
  188.0230  176.0360  143.8960 N   0  0  0  0  0  2  0  0  0  0  0  0
  190.3020  176.1730  147.2660 C   0  0  0  0  0  0  0  0  0  0  0  0
  190.0380  175.0090  147.6690 O   0  0  0  0  0  0  0  0  0  0  0  0
  191.3380  176.9110  147.9110 N   0  0  0  0  0  1  0  0  0  0  0  0
  189.5660  176.2590  142.0570 C   0  0  0  0  0  2  0  0  0  0  0  0
  189.5380  174.7450  142.2470 C   0  0  0  0  0  2  0  0  0  0  0  0
  190.9290  174.2120  142.5580 C   0  0  0  0  0  2  0  0  0  0  0  0
  190.8800  172.7850  142.8480 N   0  0  0  0  0  2  0  0  0  0  0  0
  191.1730  172.6050  144.2640 C   0  0  2  0  0  3  0  0  0  0  0  0
  189.8880  172.6980  145.0630 C   0  0  0  0  0  1  0  0  0  0  0  0
  192.1380  173.6860  144.7370 C   0  0  0  0  0  2  0  0  0  0  0  0
  193.7890  172.0360  145.5270 C   0  0  0  0  0  3  0  0  0  0  0  0
  195.6620  170.6700  146.0210 O   0  0  0  0  0  0  0  0  0  0  0  0
  193.5240  173.1520  144.8740 C   0  0  0  0  0  0  0  0  0  0  0  0
  194.9340  174.0060  144.1700 S   0  0  0  0  0  0  0  0  0  0  0  0
  195.2030  171.7280  145.5170 C   0  0  0  0  0  0  0  0  0  0  0  0
  196.0650  172.7290  144.8270 C   0  0  2  0  0  3  0  0  0  0  0  0
  197.8440  174.2970  145.1400 O   0  0  0  0  0  1  0  0  0  0  0  0
  197.0310  173.3790  145.8060 C   0  0  0  0  0  2  0  0  0  0  0  0
  1 10  1  1  0  0  0
  1  3  1  0  0  0  0
  1 14  1  0  0  0  0
  3  4  1  0  0  0  0
  4  8  1  0  0  0  0
  5 15  1  0  0  0  0
  6 17  1  6  0  0  0
  6 13  1  0  0  0  0
  7 13  1  0  0  0  0
  7 18  1  0  0  0  0
  8  2  1  1  0  0  0
  9  2  1  0  0  0  0
 11 16  1  0  0  0  0
 11 10  1  0  0  0  0
 12  3  2  0  0  0  0
 13  9  1  6  0  0  0
 14  6  1  0  0  0  0
 14  8  1  0  0  0  0
 15  7  2  0  0  0  0
 16 17  1  0  0  0  0
 16  5  1  0  0  0  0
 18 19  2  0  0  0  0
 18 20  1  0  0  0  0
 21 22  1  0  0  0  0
 21 16  1  0  0  0  0
 22 23  1  0  0  0  0
 23 24  1  0  0  0  0
 24 25  1  0  0  0  0
 25 27  1  0  0  0  0
 25 26  1  0  0  0  0
 27 30  1  0  0  0  0
 30 28  2  0  0  0  0
 31 33  1  0  0  0  0
 31 30  1  0  0  0  0
 32 28  1  0  0  0  0
 32 29  2  0  0  0  0
 33 32  1  0  0  0  0
 33 35  1  0  0  0  0
 34 35  1  0  0  0  0
M  END
>  <MODEL>
3

>  <REMARK>
 VINA RESULT:      -7.2      1.809      2.017
  Name = 
  9 active torsions:
  status: ('A' for Active; 'I' for Inactive)
    1  A    between atoms: C_2  and  C_4
    2  A    between atoms: C_2  and  N_32
    3  A    between atoms: C_4  and  C_11
    4  A    between atoms: C_12  and  C_13
    5  A    between atoms: C_21  and  C_24
    6  A    between atoms: C_22  and  C_33
    7  A    between atoms: C_22  and  C_34
    8  A    between atoms: C_27  and  N_32
    9  A    between atoms: C_27  and  C_33
                            x       y       z     vdW  Elec       q    Type
                         _______ _______ _______ _____ _____    ______ ____

>  <TORSDO>
F 9

$$$$
=
 OpenBabel11042416563D

 35 39  0  0  1  0  0  0  0  0999 V2000
  185.5620  177.4390  143.6440 C   0  0  1  0  0  3  0  0  0  0  0  0
  185.9460  177.3850  147.3950 C   0  0  0  0  0  2  0  0  0  0  0  0
  184.4080  178.3150  143.9660 C   0  0  0  0  0  0  0  0  0  0  0  0
  184.2420  178.7730  145.6840 S   0  0  0  0  0  0  0  0  0  0  0  0
  189.5960  177.7760  143.7450 C   0  0  0  0  0  2  0  0  0  0  0  0
  187.3640  176.4850  145.1150 C   0  0  1  0  0  3  0  0  0  0  0  0
  189.5640  176.9290  146.1190 C   0  0  0  0  0  0  0  0  0  0  0  0
  185.1580  177.2530  146.0820 C   0  0  1  0  0  3  0  0  0  0  0  0
  187.3890  177.8360  147.1650 C   0  0  0  0  0  2  0  0  0  0  0  0
  186.6470  178.2820  142.9550 C   0  0  0  0  0  2  0  0  0  0  0  0
  187.6470  177.4220  142.1670 C   0  0  0  0  0  2  0  0  0  0  0  0
  183.5700  178.6170  143.1340 O   0  0  0  0  0  0  0  0  0  0  0  0
  188.0770  176.9710  146.1430 C   0  0  1  0  0  3  0  0  0  0  0  0
  186.0140  176.9250  144.9370 N   0  0  1  0  0  0  0  0  0  0  0  0
  190.2490  177.2750  145.0120 C   0  0  0  0  0  3  0  0  0  0  0  0
  188.7110  176.7250  143.0370 C   0  0  2  0  0  0  0  0  0  0  0  0
  188.0360  175.8800  144.0120 N   0  0  0  0  0  2  0  0  0  0  0  0
  190.3090  176.5190  147.3280 C   0  0  0  0  0  0  0  0  0  0  0  0
  190.8690  177.3830  148.0540 O   0  0  0  0  0  0  0  0  0  0  0  0
  190.3980  175.1440  147.6950 N   0  0  0  0  0  1  0  0  0  0  0  0
  189.5840  175.8220  142.1630 C   0  0  0  0  0  2  0  0  0  0  0  0
  188.9430  174.4740  141.8460 C   0  0  0  0  0  2  0  0  0  0  0  0
  189.3220  174.0110  140.4460 C   0  0  0  0  0  2  0  0  0  0  0  0
  189.8550  172.6550  140.4800 N   0  0  0  0  0  2  0  0  0  0  0  0
  191.2930  172.7330  140.2560 C   0  0  2  0  0  3  0  0  0  0  0  0
  191.6460  172.0020  138.9760 C   0  0  0  0  0  1  0  0  0  0  0  0
  192.0350  172.0910  141.4220 C   0  0  0  0  0  2  0  0  0  0  0  0
  192.9010  174.2030  142.3510 C   0  0  0  0  0  3  0  0  0  0  0  0
  193.4910  176.1250  143.6050 O   0  0  0  0  0  0  0  0  0  0  0  0
  192.2530  173.0670  142.5290 C   0  0  0  0  0  0  0  0  0  0  0  0
  191.6590  172.7510  144.1910 S   0  0  0  0  0  0  0  0  0  0  0  0
  192.9780  174.9770  143.5710 C   0  0  0  0  0  0  0  0  0  0  0  0
  192.3640  174.3350  144.7680 C   0  0  2  0  0  3  0  0  0  0  0  0
  194.2790  173.0460  145.3930 O   0  0  0  0  0  1  0  0  0  0  0  0
  193.4150  174.0510  145.8300 C   0  0  0  0  0  2  0  0  0  0  0  0
  1 10  1  1  0  0  0
  1  3  1  0  0  0  0
  1 14  1  0  0  0  0
  3  4  1  0  0  0  0
  4  8  1  0  0  0  0
  5 15  1  0  0  0  0
  6 17  1  6  0  0  0
  6 13  1  0  0  0  0
  7 13  1  0  0  0  0
  7 18  1  0  0  0  0
  8  2  1  1  0  0  0
  9  2  1  0  0  0  0
 11 10  1  0  0  0  0
 11 16  1  0  0  0  0
 12  3  2  0  0  0  0
 13  9  1  6  0  0  0
 14  6  1  0  0  0  0
 14  8  1  0  0  0  0
 15  7  2  0  0  0  0
 16  5  1  0  0  0  0
 16 17  1  0  0  0  0
 18 20  1  0  0  0  0
 18 19  2  0  0  0  0
 21 16  1  0  0  0  0
 22 21  1  0  0  0  0
 23 24  1  0  0  0  0
 23 22  1  0  0  0  0
 25 24  1  0  0  0  0
 25 27  1  0  0  0  0
 26 25  1  0  0  0  0
 27 30  1  0  0  0  0
 28 30  2  0  0  0  0
 28 32  1  0  0  0  0
 30 31  1  0  0  0  0
 31 33  1  0  0  0  0
 32 29  2  0  0  0  0
 32 33  1  0  0  0  0
 33 35  1  0  0  0  0
 34 35  1  0  0  0  0
M  END
>  <MODEL>
4

>  <REMARK>
 VINA RESULT:      -7.0      1.671      2.299
  Name = 
  9 active torsions:
  status: ('A' for Active; 'I' for Inactive)
    1  A    between atoms: C_2  and  C_4
    2  A    between atoms: C_2  and  N_32
    3  A    between atoms: C_4  and  C_11
    4  A    between atoms: C_12  and  C_13
    5  A    between atoms: C_21  and  C_24
    6  A    between atoms: C_22  and  C_33
    7  A    between atoms: C_22  and  C_34
    8  A    between atoms: C_27  and  N_32
    9  A    between atoms: C_27  and  C_33
                            x       y       z     vdW  Elec       q    Type
                         _______ _______ _______ _____ _____    ______ ____

>  <TORSDO>
F 9

$$$$
=
 OpenBabel11042416563D

 35 39  0  0  1  0  0  0  0  0999 V2000
  186.3190  178.4470  145.0860 C   0  0  1  0  0  3  0  0  0  0  0  0
  186.9540  177.5230  141.4860 C   0  0  0  0  0  2  0  0  0  0  0  0
  184.9410  178.6780  144.5840 C   0  0  0  0  0  0  0  0  0  0  0  0
  184.6450  178.1940  142.8920 S   0  0  0  0  0  0  0  0  0  0  0  0
  188.6630  175.2230  145.7970 C   0  0  0  0  0  2  0  0  0  0  0  0
  188.3390  177.4660  143.9560 C   0  0  1  0  0  3  0  0  0  0  0  0
  189.5070  175.3670  143.4260 C   0  0  0  0  0  0  0  0  0  0  0  0
  186.4260  178.4280  142.6100 C   0  0  1  0  0  3  0  0  0  0  0  0
  187.5160  176.2030  142.0170 C   0  0  0  0  0  2  0  0  0  0  0  0
  186.3110  177.2220  146.0140 C   0  0  0  0  0  2  0  0  0  0  0  0
  187.5350  177.1800  146.9420 C   0  0  0  0  0  2  0  0  0  0  0  0
  184.0960  179.2520  145.2490 O   0  0  0  0  0  0  0  0  0  0  0  0
  188.5220  176.4370  143.1120 C   0  0  1  0  0  3  0  0  0  0  0  0
  187.1200  178.2130  143.8850 N   0  0  1  0  0  0  0  0  0  0  0  0
  189.5810  174.8360  144.6610 C   0  0  0  0  0  3  0  0  0  0  0  0
  188.8290  176.6870  146.2670 C   0  0  2  0  0  0  0  0  0  0  0  0
  189.1280  177.5580  145.1390 N   0  0  0  0  0  2  0  0  0  0  0  0
  190.4090  174.8630  142.3700 C   0  0  0  0  0  0  0  0  0  0  0  0
  191.3130  175.6040  141.8990 O   0  0  0  0  0  0  0  0  0  0  0  0
  190.2770  173.5320  141.8760 N   0  0  0  0  0  1  0  0  0  0  0  0
  189.9950  176.7820  147.2520 C   0  0  0  0  0  2  0  0  0  0  0  0
  190.5700  175.4260  147.6520 C   0  0  0  0  0  2  0  0  0  0  0  0
  192.0360  175.3210  147.2570 C   0  0  0  0  0  2  0  0  0  0  0  0
  192.6190  176.6460  147.0880 N   0  0  0  0  0  2  0  0  0  0  0  0
  193.4590  176.6170  145.8980 C   0  0  2  0  0  3  0  0  0  0  0  0
  192.6590  177.0930  144.7010 C   0  0  0  0  0  1  0  0  0  0  0  0
  193.9500  175.1970  145.6410 C   0  0  0  0  0  2  0  0  0  0  0  0
  196.0550  175.7470  144.4850 C   0  0  0  0  0  3  0  0  0  0  0  0
  197.9410  175.9780  143.0690 O   0  0  0  0  0  0  0  0  0  0  0  0
  194.8790  175.1470  144.4760 C   0  0  0  0  0  0  0  0  0  0  0  0
  194.4510  174.2780  142.9680 S   0  0  0  0  0  0  0  0  0  0  0  0
  196.7710  175.5510  143.2420 C   0  0  0  0  0  0  0  0  0  0  0  0
  196.0390  174.7670  142.2070 C   0  0  2  0  0  3  0  0  0  0  0  0
  195.1160  176.8020  141.3540 O   0  0  0  0  0  1  0  0  0  0  0  0
  195.7580  175.6200  140.9800 C   0  0  0  0  0  2  0  0  0  0  0  0
  1 10  1  1  0  0  0
  2  9  1  0  0  0  0
  3  1  1  0  0  0  0
  3 12  2  0  0  0  0
  4  3  1  0  0  0  0
  5 16  1  0  0  0  0
  6 17  1  1  0  0  0
  7 15  2  0  0  0  0
  8  2  1  6  0  0  0
  8  4  1  0  0  0  0
  8 14  1  0  0  0  0
 10 11  1  0  0  0  0
 13  9  1  1  0  0  0
 13  7  1  0  0  0  0
 13  6  1  0  0  0  0
 14  6  1  0  0  0  0
 14  1  1  0  0  0  0
 15  5  1  0  0  0  0
 16 11  1  0  0  0  0
 16 21  1  0  0  0  0
 17 16  1  0  0  0  0
 18  7  1  0  0  0  0
 19 18  2  0  0  0  0
 20 18  1  0  0  0  0
 21 22  1  0  0  0  0
 23 22  1  0  0  0  0
 24 23  1  0  0  0  0
 25 24  1  0  0  0  0
 26 25  1  0  0  0  0
 27 25  1  0  0  0  0
 29 32  2  0  0  0  0
 30 28  2  0  0  0  0
 30 27  1  0  0  0  0
 31 30  1  0  0  0  0
 32 28  1  0  0  0  0
 33 31  1  0  0  0  0
 33 32  1  0  0  0  0
 35 34  1  0  0  0  0
 35 33  1  0  0  0  0
M  END
>  <MODEL>
5

>  <REMARK>
 VINA RESULT:      -6.9      1.980      3.979
  Name = 
  9 active torsions:
  status: ('A' for Active; 'I' for Inactive)
    1  A    between atoms: C_2  and  C_4
    2  A    between atoms: C_2  and  N_32
    3  A    between atoms: C_4  and  C_11
    4  A    between atoms: C_12  and  C_13
    5  A    between atoms: C_21  and  C_24
    6  A    between atoms: C_22  and  C_33
    7  A    between atoms: C_22  and  C_34
    8  A    between atoms: C_27  and  N_32
    9  A    between atoms: C_27  and  C_33
                            x       y       z     vdW  Elec       q    Type
                         _______ _______ _______ _____ _____    ______ ____

>  <TORSDO>
F 9

$$$$
=
 OpenBabel11042416563D

 35 39  0  0  1  0  0  0  0  0999 V2000
  186.9920  177.8740  146.2260 C   0  0  1  0  0  3  0  0  0  0  0  0
  184.2340  179.0980  143.9660 C   0  0  0  0  0  2  0  0  0  0  0  0
  185.9080  177.8920  147.2410 C   0  0  0  0  0  0  0  0  0  0  0  0
  184.2740  178.2470  146.6170 S   0  0  0  0  0  0  0  0  0  0  0  0
  187.9370  175.6100  143.0060 C   0  0  0  0  0  2  0  0  0  0  0  0
  186.9260  178.2490  143.7410 C   0  0  1  0  0  3  0  0  0  0  0  0
  186.5610  177.1580  141.5680 C   0  0  0  0  0  0  0  0  0  0  0  0
  185.0870  179.1180  145.2430 C   0  0  1  0  0  3  0  0  0  0  0  0
  184.5940  177.9320  143.0430 C   0  0  0  0  0  2  0  0  0  0  0  0
  187.3810  176.4140  145.9410 C   0  0  0  0  0  2  0  0  0  0  0  0
  188.7700  176.2930  145.2970 C   0  0  0  0  0  2  0  0  0  0  0  0
  186.1330  177.7740  148.4330 O   0  0  0  0  0  0  0  0  0  0  0  0
  186.0730  177.8850  142.7700 C   0  0  1  0  0  3  0  0  0  0  0  0
  186.4140  178.5220  145.0490 N   0  0  1  0  0  0  0  0  0  0  0  0
  187.4300  176.1360  141.6830 C   0  0  0  0  0  3  0  0  0  0  0  0
  188.8050  176.6190  143.7910 C   0  0  2  0  0  0  0  0  0  0  0  0
  188.3190  177.9770  143.5970 N   0  0  0  0  0  2  0  0  0  0  0  0
  186.0770  177.5450  140.2260 C   0  0  0  0  0  0  0  0  0  0  0  0
  185.2110  178.4500  140.0990 O   0  0  0  0  0  0  0  0  0  0  0  0
  186.5900  176.9080  139.0580 N   0  0  0  0  0  1  0  0  0  0  0  0
  190.2460  176.5620  143.2820 C   0  0  0  0  0  2  0  0  0  0  0  0
  191.1310  175.5900  144.0570 C   0  0  0  0  0  2  0  0  0  0  0  0
  191.6910  174.5150  143.1360 C   0  0  0  0  0  2  0  0  0  0  0  0
  191.5810  173.2000  143.7540 N   0  0  0  0  0  2  0  0  0  0  0  0
  190.1930  172.7710  143.6510 C   0  0  2  0  0  3  0  0  0  0  0  0
  189.6940  172.3380  145.0150 C   0  0  0  0  0  1  0  0  0  0  0  0
  190.0810  171.6010  142.6810 C   0  0  0  0  0  2  0  0  0  0  0  0
  188.9470  172.8440  140.8800 C   0  0  0  0  0  3  0  0  0  0  0  0
  188.2280  173.9520  138.9130 O   0  0  0  0  0  0  0  0  0  0  0  0
  189.9460  172.0750  141.2730 C   0  0  0  0  0  0  0  0  0  0  0  0
  191.1300  171.6150  140.0080 S   0  0  0  0  0  0  0  0  0  0  0  0
  189.0390  173.1710  139.4730 C   0  0  0  0  0  0  0  0  0  0  0  0
  190.1900  172.5550  138.7540 C   0  0  2  0  0  3  0  0  0  0  0  0
  190.0400  172.0840  136.4140 O   0  0  0  0  0  1  0  0  0  0  0  0
  189.7050  171.5960  137.6780 C   0  0  0  0  0  2  0  0  0  0  0  0
  1 10  1  6  0  0  0
  1  3  1  0  0  0  0
  3 12  2  0  0  0  0
  4  3  1  0  0  0  0
  5 16  1  0  0  0  0
  6 17  1  1  0  0  0
  6 14  1  0  0  0  0
  7 15  2  0  0  0  0
  7 13  1  0  0  0  0
  8  2  1  6  0  0  0
  8  4  1  0  0  0  0
  9  2  1  0  0  0  0
 11 10  1  0  0  0  0
 13  9  1  1  0  0  0
 13  6  1  0  0  0  0
 14  8  1  0  0  0  0
 14  1  1  0  0  0  0
 15  5  1  0  0  0  0
 16 11  1  0  0  0  0
 17 16  1  0  0  0  0
 18  7  1  0  0  0  0
 19 18  2  0  0  0  0
 20 18  1  0  0  0  0
 21 16  1  0  0  0  0
 21 22  1  0  0  0  0
 23 24  1  0  0  0  0
 23 22  1  0  0  0  0
 25 24  1  0  0  0  0
 25 26  1  0  0  0  0
 27 25  1  0  0  0  0
 28 30  2  0  0  0  0
 29 32  2  0  0  0  0
 30 27  1  0  0  0  0
 31 30  1  0  0  0  0
 32 28  1  0  0  0  0
 33 32  1  0  0  0  0
 33 31  1  0  0  0  0
 34 35  1  0  0  0  0
 35 33  1  0  0  0  0
M  END
>  <MODEL>
6

>  <REMARK>
 VINA RESULT:      -6.9      3.435      5.637
  Name = 
  9 active torsions:
  status: ('A' for Active; 'I' for Inactive)
    1  A    between atoms: C_2  and  C_4
    2  A    between atoms: C_2  and  N_32
    3  A    between atoms: C_4  and  C_11
    4  A    between atoms: C_12  and  C_13
    5  A    between atoms: C_21  and  C_24
    6  A    between atoms: C_22  and  C_33
    7  A    between atoms: C_22  and  C_34
    8  A    between atoms: C_27  and  N_32
    9  A    between atoms: C_27  and  C_33
                            x       y       z     vdW  Elec       q    Type
                         _______ _______ _______ _____ _____    ______ ____

>  <TORSDO>
F 9

$$$$
=
 OpenBabel11042416563D

 35 39  0  0  1  0  0  0  0  0999 V2000
  194.1770  174.0700  143.1090 C   0  0  1  0  0  3  0  0  0  0  0  0
  193.8460  176.0640  146.2920 C   0  0  0  0  0  2  0  0  0  0  0  0
  195.5870  173.9480  143.5580 C   0  0  0  0  0  0  0  0  0  0  0  0
  195.9390  174.6000  145.1820 S   0  0  0  0  0  0  0  0  0  0  0  0
  190.6030  172.5690  144.2770 C   0  0  0  0  0  2  0  0  0  0  0  0
  192.1620  175.0370  144.2600 C   0  0  1  0  0  3  0  0  0  0  0  0
  190.3260  174.5430  145.8200 C   0  0  0  0  0  0  0  0  0  0  0  0
  194.5040  175.6930  144.9540 C   0  0  1  0  0  3  0  0  0  0  0  0
  192.6940  175.1250  146.6560 C   0  0  0  0  0  2  0  0  0  0  0  0
  193.5040  172.6920  143.2070 C   0  0  0  0  0  2  0  0  0  0  0  0
  192.2370  172.5950  142.3430 C   0  0  0  0  0  2  0  0  0  0  0  0
  196.4660  173.5250  142.8270 O   0  0  0  0  0  0  0  0  0  0  0  0
  191.7100  175.0030  145.5240 C   0  0  1  0  0  3  0  0  0  0  0  0
  193.5740  175.0360  144.0280 N   0  0  1  0  0  0  0  0  0  0  0  0
  189.8210  173.4440  145.2280 C   0  0  0  0  0  3  0  0  0  0  0  0
  190.9950  173.2690  142.9560 C   0  0  2  0  0  0  0  0  0  0  0  0
  191.2940  174.6750  143.1890 N   0  0  0  0  0  2  0  0  0  0  0  0
  189.4930  175.2870  146.7880 C   0  0  0  0  0  0  0  0  0  0  0  0
  188.8660  174.6730  147.6920 O   0  0  0  0  0  0  0  0  0  0  0  0
  189.3950  176.7080  146.7210 N   0  0  0  0  0  1  0  0  0  0  0  0
  189.8270  173.1980  141.9710 C   0  0  0  0  0  2  0  0  0  0  0  0
  189.5060  174.5340  141.3060 C   0  0  0  0  0  2  0  0  0  0  0  0
  188.1480  175.0510  141.7590 C   0  0  0  0  0  2  0  0  0  0  0  0
  187.9180  176.4010  141.2580 N   0  0  0  0  0  2  0  0  0  0  0  0
  187.9390  177.3110  142.3950 C   0  0  2  0  0  3  0  0  0  0  0  0
  189.3200  177.9190  142.5320 C   0  0  0  0  0  1  0  0  0  0  0  0
  187.5940  176.5550  143.6720 C   0  0  0  0  0  2  0  0  0  0  0  0
  185.8300  178.2580  143.9170 C   0  0  0  0  0  3  0  0  0  0  0  0
  183.9840  179.6330  144.4810 O   0  0  0  0  0  0  0  0  0  0  0  0
  186.4400  177.1820  144.3790 C   0  0  0  0  0  0  0  0  0  0  0  0
  185.8100  176.5220  145.9210 S   0  0  0  0  0  0  0  0  0  0  0  0
  184.7410  178.6720  144.7760 C   0  0  0  0  0  0  0  0  0  0  0  0
  184.5560  177.8490  146.0040 C   0  0  2  0  0  3  0  0  0  0  0  0
  186.0200  179.3450  147.1610 O   0  0  0  0  0  1  0  0  0  0  0  0
  184.7970  178.6800  147.2540 C   0  0  0  0  0  2  0  0  0  0  0  0
  1 10  1  1  0  0  0
  1  3  1  0  0  0  0
  1 14  1  0  0  0  0
  2  9  1  0  0  0  0
  3  4  1  0  0  0  0
  5 15  1  0  0  0  0
  6 17  1  6  0  0  0
  6 13  1  0  0  0  0
  7 18  1  0  0  0  0
  8  4  1  0  0  0  0
  8  2  1  1  0  0  0
 11 16  1  0  0  0  0
 11 10  1  0  0  0  0
 12  3  2  0  0  0  0
 13  7  1  0  0  0  0
 13  9  1  1  0  0  0
 14  6  1  0  0  0  0
 14  8  1  0  0  0  0
 15  7  2  0  0  0  0
 16 17  1  0  0  0  0
 16  5  1  0  0  0  0
 18 19  2  0  0  0  0
 20 18  1  0  0  0  0
 21 16  1  0  0  0  0
 22 23  1  0  0  0  0
 22 21  1  0  0  0  0
 24 23  1  0  0  0  0
 24 25  1  0  0  0  0
 25 26  1  0  0  0  0
 25 27  1  0  0  0  0
 27 30  1  0  0  0  0
 28 30  2  0  0  0  0
 28 32  1  0  0  0  0
 29 32  2  0  0  0  0
 30 31  1  0  0  0  0
 31 33  1  0  0  0  0
 32 33  1  0  0  0  0
 33 35  1  0  0  0  0
 34 35  1  0  0  0  0
M  END
>  <MODEL>
7

>  <REMARK>
 VINA RESULT:      -6.9      2.007      7.694
  Name = 
  9 active torsions:
  status: ('A' for Active; 'I' for Inactive)
    1  A    between atoms: C_2  and  C_4
    2  A    between atoms: C_2  and  N_32
    3  A    between atoms: C_4  and  C_11
    4  A    between atoms: C_12  and  C_13
    5  A    between atoms: C_21  and  C_24
    6  A    between atoms: C_22  and  C_33
    7  A    between atoms: C_22  and  C_34
    8  A    between atoms: C_27  and  N_32
    9  A    between atoms: C_27  and  C_33
                            x       y       z     vdW  Elec       q    Type
                         _______ _______ _______ _____ _____    ______ ____

>  <TORSDO>
F 9

$$$$
=
 OpenBabel11042416563D

 35 39  0  0  1  0  0  0  0  0999 V2000
  186.9990  176.7200  141.6440 C   0  0  1  0  0  3  0  0  0  0  0  0
  184.2880  178.4380  143.6230 C   0  0  0  0  0  2  0  0  0  0  0  0
  186.4070  177.4940  140.5240 C   0  0  0  0  0  0  0  0  0  0  0  0
  185.1380  178.6640  140.9800 S   0  0  0  0  0  0  0  0  0  0  0  0
  189.2240  177.5650  144.9190 C   0  0  0  0  0  2  0  0  0  0  0  0
  186.5300  176.7780  144.1130 C   0  0  1  0  0  3  0  0  0  0  0  0
  187.0940  177.9050  146.2250 C   0  0  0  0  0  0  0  0  0  0  0  0
  184.8320  177.6230  142.4400 C   0  0  1  0  0  3  0  0  0  0  0  0
  185.3980  178.9100  144.5640 C   0  0  0  0  0  2  0  0  0  0  0  0
  188.3970  177.2820  141.9510 C   0  0  0  0  0  2  0  0  0  0  0  0
  189.2690  176.2880  142.7330 C   0  0  0  0  0  2  0  0  0  0  0  0
  186.6940  177.2740  139.3600 O   0  0  0  0  0  0  0  0  0  0  0  0
  186.2810  177.7670  144.9870 C   0  0  1  0  0  3  0  0  0  0  0  0
  186.0770  176.9160  142.7630 N   0  0  1  0  0  0  0  0  0  0  0  0
  188.4350  177.7870  146.1890 C   0  0  0  0  0  3  0  0  0  0  0  0
  188.9480  176.2060  144.2380 C   0  0  2  0  0  0  0  0  0  0  0  0
  187.5520  175.8250  144.3970 N   0  0  0  0  0  2  0  0  0  0  0  0
  186.4310  178.1900  147.5150 C   0  0  0  0  0  0  0  0  0  0  0  0
  185.7640  177.2950  148.0990 O   0  0  0  0  0  0  0  0  0  0  0  0
  186.5430  179.4760  148.1200 N   0  0  0  0  0  1  0  0  0  0  0  0
  189.8040  175.1200  144.8920 C   0  0  0  0  0  2  0  0  0  0  0  0
  191.2780  175.4960  145.0160 C   0  0  0  0  0  2  0  0  0  0  0  0
  192.1130  174.2880  145.4180 C   0  0  0  0  0  2  0  0  0  0  0  0
  192.8600  173.7760  144.2760 N   0  0  0  0  0  2  0  0  0  0  0  0
  192.1230  172.6450  143.7280 C   0  0  2  0  0  3  0  0  0  0  0  0
  192.7610  171.3510  144.1940 C   0  0  0  0  0  1  0  0  0  0  0  0
  192.1480  172.6970  142.2050 C   0  0  0  0  0  2  0  0  0  0  0  0
  189.6870  172.5920  142.2950 C   0  0  0  0  0  3  0  0  0  0  0  0
  187.3390  172.7560  142.0210 O   0  0  0  0  0  0  0  0  0  0  0  0
  190.7850  172.9400  141.6490 C   0  0  0  0  0  0  0  0  0  0  0  0
  190.5460  173.7090  140.0480 S   0  0  0  0  0  0  0  0  0  0  0  0
  188.4930  172.9350  141.5530 C   0  0  0  0  0  0  0  0  0  0  0  0
  188.7330  173.5560  140.2190 C   0  0  2  0  0  3  0  0  0  0  0  0
  189.1850  171.7610  138.7060 O   0  0  0  0  0  1  0  0  0  0  0  0
  188.2030  172.6680  139.1050 C   0  0  0  0  0  2  0  0  0  0  0  0
  1 10  1  1  0  0  0
  1 14  1  0  0  0  0
  2  9  1  0  0  0  0
  3  4  1  0  0  0  0
  3  1  1  0  0  0  0
  4  8  1  0  0  0  0
  5 15  1  0  0  0  0
  6 17  1  6  0  0  0
  6 13  1  0  0  0  0
  7 18  1  0  0  0  0
  8 14  1  0  0  0  0
  8  2  1  1  0  0  0
 10 11  1  0  0  0  0
 11 16  1  0  0  0  0
 12  3  2  0  0  0  0
 13  9  1  6  0  0  0
 13  7  1  0  0  0  0
 14  6  1  0  0  0  0
 15  7  2  0  0  0  0
 16 17  1  0  0  0  0
 16 21  1  0  0  0  0
 16  5  1  0  0  0  0
 18 19  2  0  0  0  0
 18 20  1  0  0  0  0
 21 22  1  0  0  0  0
 22 23  1  0  0  0  0
 24 23  1  0  0  0  0
 25 26  1  0  0  0  0
 25 24  1  0  0  0  0
 27 25  1  0  0  0  0
 30 27  1  0  0  0  0
 30 28  2  0  0  0  0
 31 33  1  0  0  0  0
 31 30  1  0  0  0  0
 32 29  2  0  0  0  0
 32 28  1  0  0  0  0
 33 32  1  0  0  0  0
 34 35  1  0  0  0  0
 35 33  1  0  0  0  0
M  END
>  <MODEL>
8

>  <REMARK>
 VINA RESULT:      -6.8      3.534      4.780
  Name = 
  9 active torsions:
  status: ('A' for Active; 'I' for Inactive)
    1  A    between atoms: C_2  and  C_4
    2  A    between atoms: C_2  and  N_32
    3  A    between atoms: C_4  and  C_11
    4  A    between atoms: C_12  and  C_13
    5  A    between atoms: C_21  and  C_24
    6  A    between atoms: C_22  and  C_33
    7  A    between atoms: C_22  and  C_34
    8  A    between atoms: C_27  and  N_32
    9  A    between atoms: C_27  and  C_33
                            x       y       z     vdW  Elec       q    Type
                         _______ _______ _______ _____ _____    ______ ____

>  <TORSDO>
F 9

$$$$
=
 OpenBabel11042416563D

 35 39  0  0  1  0  0  0  0  0999 V2000
  193.2130  176.3490  145.4450 C   0  0  1  0  0  3  0  0  0  0  0  0
  194.7370  173.4690  143.5480 C   0  0  0  0  0  2  0  0  0  0  0  0
  194.5710  176.9250  145.2840 C   0  0  0  0  0  0  0  0  0  0  0  0
  195.6880  175.9900  144.2510 S   0  0  0  0  0  0  0  0  0  0  0  0
  190.0520  175.6090  143.0250 C   0  0  0  0  0  2  0  0  0  0  0  0
  192.1870  174.2610  144.4920 C   0  0  1  0  0  3  0  0  0  0  0  0
  191.0080  173.3250  142.5470 C   0  0  0  0  0  0  0  0  0  0  0  0
  194.6960  174.5230  144.6650 C   0  0  1  0  0  3  0  0  0  0  0  0
  193.5700  173.6120  142.5690 C   0  0  0  0  0  2  0  0  0  0  0  0
  192.2250  177.1590  144.5890 C   0  0  0  0  0  2  0  0  0  0  0  0
  190.7680  176.9690  145.0360 C   0  0  0  0  0  2  0  0  0  0  0  0
  194.9330  177.9140  145.8960 O   0  0  0  0  0  0  0  0  0  0  0  0
  192.2510  173.6590  143.2930 C   0  0  1  0  0  3  0  0  0  0  0  0
  193.3330  174.9690  144.9750 N   0  0  1  0  0  0  0  0  0  0  0  0
  189.9990  174.2120  142.4500 C   0  0  0  0  0  3  0  0  0  0  0  0
  190.1250  175.6500  144.5680 C   0  0  2  0  0  0  0  0  0  0  0  0
  190.9160  174.5390  145.0760 N   0  0  0  0  0  2  0  0  0  0  0  0
  190.8760  172.0090  141.8860 C   0  0  0  0  0  0  0  0  0  0  0  0
  190.8880  170.9510  142.5690 O   0  0  0  0  0  0  0  0  0  0  0  0
  190.7240  171.9200  140.4710 N   0  0  0  0  0  1  0  0  0  0  0  0
  188.7170  175.5240  145.1530 C   0  0  0  0  0  2  0  0  0  0  0  0
  188.5970  176.0530  146.5790 C   0  0  0  0  0  2  0  0  0  0  0  0
  187.1600  176.4460  146.8920 C   0  0  0  0  0  2  0  0  0  0  0  0
  187.0340  177.8950  146.9920 N   0  0  0  0  0  2  0  0  0  0  0  0
  185.9460  178.3110  146.1180 C   0  0  2  0  0  3  0  0  0  0  0  0
  184.7310  178.6610  146.9540 C   0  0  0  0  0  1  0  0  0  0  0  0
  185.5870  177.1820  145.1600 C   0  0  0  0  0  2  0  0  0  0  0  0
  184.5090  177.7750  143.0240 C   0  0  0  0  0  3  0  0  0  0  0  0
  183.8760  178.5010  140.8590 O   0  0  0  0  0  0  0  0  0  0  0  0
  185.6090  177.6460  143.7420 C   0  0  0  0  0  0  0  0  0  0  0  0
  187.1440  178.0470  142.9080 S   0  0  0  0  0  0  0  0  0  0  0  0
  184.7900  178.2420  141.6840 C   0  0  0  0  0  0  0  0  0  0  0  0
  186.2350  178.4390  141.3730 C   0  0  2  0  0  3  0  0  0  0  0  0
  187.3850  176.4150  140.8250 O   0  0  0  0  0  1  0  0  0  0  0  0
  186.6860  177.4890  140.2740 C   0  0  0  0  0  2  0  0  0  0  0  0
  1 10  1  6  0  0  0
  3  1  1  0  0  0  0
  3 12  2  0  0  0  0
  4  8  1  0  0  0  0
  4  3  1  0  0  0  0
  5 16  1  0  0  0  0
  6 14  1  0  0  0  0
  6 17  1  6  0  0  0
  7 13  1  0  0  0  0
  8  2  1  6  0  0  0
  8 14  1  0  0  0  0
  9  2  1  0  0  0  0
 10 11  1  0  0  0  0
 13  9  1  6  0  0  0
 13  6  1  0  0  0  0
 14  1  1  0  0  0  0
 15  7  2  0  0  0  0
 15  5  1  0  0  0  0
 16 11  1  0  0  0  0
 16 17  1  0  0  0  0
 16 21  1  0  0  0  0
 18  7  1  0  0  0  0
 18 19  2  0  0  0  0
 20 18  1  0  0  0  0
 21 22  1  0  0  0  0
 22 23  1  0  0  0  0
 23 24  1  0  0  0  0
 25 26  1  0  0  0  0
 25 24  1  0  0  0  0
 27 25  1  0  0  0  0
 28 30  2  0  0  0  0
 29 32  2  0  0  0  0
 30 27  1  0  0  0  0
 31 30  1  0  0  0  0
 32 28  1  0  0  0  0
 33 32  1  0  0  0  0
 33 31  1  0  0  0  0
 35 34  1  0  0  0  0
 35 33  1  0  0  0  0
M  END
>  <MODEL>
9

>  <REMARK>
 VINA RESULT:      -6.7      2.268      8.082
  Name = 
  9 active torsions:
  status: ('A' for Active; 'I' for Inactive)
    1  A    between atoms: C_2  and  C_4
    2  A    between atoms: C_2  and  N_32
    3  A    between atoms: C_4  and  C_11
    4  A    between atoms: C_12  and  C_13
    5  A    between atoms: C_21  and  C_24
    6  A    between atoms: C_22  and  C_33
    7  A    between atoms: C_22  and  C_34
    8  A    between atoms: C_27  and  N_32
    9  A    between atoms: C_27  and  C_33
                            x       y       z     vdW  Elec       q    Type
                         _______ _______ _______ _____ _____    ______ ____

>  <TORSDO>
F 9

$$$$
