=
 OpenBabel11042413383D

 42 48  0  0  1  0  0  0  0  0999 V2000
  188.0410  176.7900  145.3430 C   0  0  0  0  0  0  0  0  0  0  0  0
  186.9780  176.9890  144.4510 C   0  0  0  0  0  0  0  0  0  0  0  0
  186.5000  177.4270  147.1430 C   0  0  0  0  0  3  0  0  0  0  0  0
  185.6430  177.2390  142.5590 N   0  0  0  0  0  0  0  0  0  0  0  0
  186.9280  176.8900  143.0360 N   0  0  0  0  0  0  0  0  0  0  0  0
  185.4670  177.6210  146.2090 C   0  0  0  0  0  0  0  0  0  0  0  0
  185.7550  177.3890  144.8650 C   0  0  0  0  0  0  0  0  0  0  0  0
  184.9160  177.5470  143.7340 N   0  0  0  0  0  0  0  0  0  0  0  0
  184.1180  178.0680  146.6520 C   0  0  0  0  0  1  0  0  0  0  0  0
  187.7810  177.0160  146.7130 C   0  0  0  0  0  3  0  0  0  0  0  0
  189.3630  176.3650  144.8620 C   0  0  0  0  0  3  0  0  0  0  0  0
  190.5000  176.9390  145.2370 C   0  0  0  0  0  3  0  0  0  0  0  0
  191.7850  176.4210  144.6960 C   0  0  2  0  0  3  0  0  0  0  0  0
  192.7660  177.4230  144.7660 O   0  0  0  0  0  0  0  0  0  0  0  0
  195.2880  173.3510  142.6360 C   0  0  0  0  0  2  0  0  0  0  0  0
  195.4320  173.3660  145.2170 C   0  0  0  0  0  2  0  0  0  0  0  0
  193.9660  176.7730  146.7950 C   0  0  0  0  0  1  0  0  0  0  0  0
  191.6120  176.0160  143.2420 C   0  0  0  0  0  2  0  0  0  0  0  0
  194.1230  175.5920  143.0370 C   0  0  1  0  0  3  0  0  0  0  0  0
  194.2290  174.3080  145.2280 C   0  0  0  0  0  2  0  0  0  0  0  0
  192.7050  175.0450  142.8100 C   0  0  0  0  0  2  0  0  0  0  0  0
  194.5280  175.6350  144.5260 C   0  0  2  0  0  3  0  0  0  0  0  0
  195.1360  174.8070  142.1990 C   0  0  0  0  0  2  0  0  0  0  0  0
  196.1780  173.2680  143.8760 C   0  0  1  0  0  3  0  0  0  0  0  0
  193.9630  176.8700  145.2720 C   0  0  1  0  0  3  0  0  0  0  0  0
  197.0600  172.1000  143.8360 N   0  0  0  0  0  2  0  0  0  0  0  0
  197.3130  171.6030  145.1840 C   0  0  0  0  0  1  0  0  0  0  0  0
  188.1020  175.3710  141.5780 C   0  0  0  0  0  3  0  0  0  0  0  0
  188.0280  176.5470  142.1890 C   0  0  0  0  0  3  0  0  0  0  0  0
  189.2630  175.0530  140.6980 C   0  0  0  0  0  2  0  0  0  0  0  0
  188.2280  172.7760  137.8820 O   0  0  0  0  0  0  0  0  0  0  0  0
  189.3110  172.3370  140.1870 N   0  0  0  0  0  0  0  0  0  0  0  0
  189.1070  173.7300  140.1170 N   0  0  0  0  0  0  0  0  0  0  0  0
  188.7230  172.9060  139.0320 C   0  0  0  0  0  0  0  0  0  0  0  0
  191.4300  171.2710  142.2380 C   0  0  0  0  0  0  0  0  0  0  0  0
  190.0420  171.5510  142.3380 C   0  0  0  0  0  0  0  0  0  0  0  0
  189.4470  172.0150  143.4960 C   0  0  0  0  0  3  0  0  0  0  0  0
  189.7500  171.1700  140.9330 C   0  0  2  0  0  3  0  0  0  0  0  0
  191.3770  170.7690  140.5060 S   0  0  0  0  0  0  0  0  0  0  0  0
  192.3080  171.4380  143.2930 C   0  0  0  0  0  3  0  0  0  0  0  0
  190.3270  172.1940  144.5900 C   0  0  0  0  0  3  0  0  0  0  0  0
  191.7230  171.9130  144.4910 C   0  0  0  0  0  3  0  0  0  0  0  0
  1 10  1  0  0  0  0
  2  7  1  0  0  0  0
  2  1  2  0  0  0  0
  4  5  1  0  0  0  0
  4  8  2  0  0  0  0
  5  2  1  0  0  0  0
  6  9  1  0  0  0  0
  6  3  1  0  0  0  0
  7  6  2  0  0  0  0
  8  7  1  0  0  0  0
 10  3  2  0  0  0  0
 11 12  2  0  0  0  0
 11  1  1  0  0  0  0
 13 14  1  0  0  0  0
 13 12  1  6  0  0  0
 14 25  1  0  0  0  0
 15 24  1  0  0  0  0
 16 20  1  0  0  0  0
 18 13  1  0  0  0  0
 19 23  1  6  0  0  0
 19 22  1  0  0  0  0
 21 19  1  0  0  0  0
 21 18  1  0  0  0  0
 22 20  1  1  0  0  0
 22 25  1  0  0  0  0
 23 15  1  0  0  0  0
 24 26  1  1  0  0  0
 24 16  1  0  0  0  0
 25 17  1  1  0  0  0
 26 27  1  0  0  0  0
 28 29  2  0  0  0  0
 29  5  1  0  0  0  0
 30 28  1  0  0  0  0
 31 34  2  0  0  0  0
 33 32  1  0  0  0  0
 33 30  1  0  0  0  0
 34 33  1  0  0  0  0
 34 32  1  0  0  0  0
 35 36  2  0  0  0  0
 35 40  1  0  0  0  0
 36 37  1  0  0  0  0
 37 41  2  0  0  0  0
 38 32  1  6  0  0  0
 38 36  1  0  0  0  0
 39 38  1  0  0  0  0
 39 35  1  0  0  0  0
 40 42  2  0  0  0  0
 42 41  1  0  0  0  0
M  END
>  <MODEL>
1

>  <REMARK>
 VINA RESULT:      -7.9      0.000      0.000
  Name = 
  7 active torsions:
  status: ('A' for Active; 'I' for Inactive)
    1  A    between atoms: C_1  and  C_3
    2  A    between atoms: C_2  and  C_40
    3  A    between atoms: N_12  and  C_33
    4  A    between atoms: C_17  and  N_19
    5  A    between atoms: C_22  and  C_29
    6  A    between atoms: N_27  and  C_36
    7  A    between atoms: C_29  and  N_38
                            x       y       z     vdW  Elec       q    Type
                         _______ _______ _______ _____ _____    ______ ____

>  <TORSDO>
F 7

$$$$
=
 OpenBabel11042413383D

 42 48  0  0  1  0  0  0  0  0999 V2000
  190.8780  172.3040  141.2230 C   0  0  0  0  0  0  0  0  0  0  0  0
  192.0360  171.5590  141.4870 C   0  0  0  0  0  0  0  0  0  0  0  0
  190.7810  171.1720  139.0490 C   0  0  0  0  0  3  0  0  0  0  0  0
  193.9890  170.6820  142.4040 N   0  0  0  0  0  0  0  0  0  0  0  0
  192.9070  171.5720  142.6060 N   0  0  0  0  0  0  0  0  0  0  0  0
  191.9500  170.4540  139.3550 C   0  0  0  0  0  0  0  0  0  0  0  0
  192.5460  170.6820  140.5940 C   0  0  0  0  0  0  0  0  0  0  0  0
  193.7380  170.1270  141.1260 N   0  0  0  0  0  0  0  0  0  0  0  0
  192.5260  169.4900  138.3780 C   0  0  0  0  0  1  0  0  0  0  0  0
  190.2480  172.0940  139.9770 C   0  0  0  0  0  3  0  0  0  0  0  0
  190.3520  173.2590  142.2090 C   0  0  0  0  0  3  0  0  0  0  0  0
  190.3180  174.5720  142.0140 C   0  0  0  0  0  3  0  0  0  0  0  0
  189.7520  175.4460  143.0770 C   0  0  2  0  0  3  0  0  0  0  0  0
  190.3470  176.7170  143.0080 O   0  0  0  0  0  0  0  0  0  0  0  0
  187.0010  177.1140  147.0250 C   0  0  0  0  0  2  0  0  0  0  0  0
  185.9210  177.7630  144.7670 C   0  0  0  0  0  2  0  0  0  0  0  0
  188.6370  177.9770  141.7970 C   0  0  0  0  0  1  0  0  0  0  0  0
  190.0380  174.8530  144.4450 C   0  0  0  0  0  2  0  0  0  0  0  0
  189.1000  176.9460  145.5730 C   0  0  1  0  0  3  0  0  0  0  0  0
  187.0520  177.0110  144.0680 C   0  0  0  0  0  2  0  0  0  0  0  0
  189.0820  175.4110  145.4940 C   0  0  0  0  0  2  0  0  0  0  0  0
  188.4240  177.6250  144.3630 C   0  0  2  0  0  3  0  0  0  0  0  0
  188.4940  177.4170  146.8970 C   0  0  0  0  0  2  0  0  0  0  0  0
  186.1900  178.1410  146.2340 C   0  0  1  0  0  3  0  0  0  0  0  0
  189.3450  177.7060  143.1200 C   0  0  1  0  0  3  0  0  0  0  0  0
  184.9560  178.5120  146.9290 N   0  0  0  0  0  2  0  0  0  0  0  0
  183.8810  178.7460  145.9710 C   0  0  0  0  0  1  0  0  0  0  0  0
  193.8090  172.7740  144.4910 C   0  0  0  0  0  3  0  0  0  0  0  0
  192.7650  172.4040  143.7600 C   0  0  0  0  0  3  0  0  0  0  0  0
  193.6190  173.6470  145.6850 C   0  0  0  0  0  2  0  0  0  0  0  0
  194.3730  177.1770  146.7600 O   0  0  0  0  0  0  0  0  0  0  0  0
  194.9870  175.8160  144.6510 N   0  0  0  0  0  0  0  0  0  0  0  0
  194.2060  174.9570  145.4490 N   0  0  0  0  0  0  0  0  0  0  0  0
  194.4850  176.2710  145.8940 C   0  0  0  0  0  0  0  0  0  0  0  0
  196.0120  174.5150  141.9870 C   0  0  0  0  0  0  0  0  0  0  0  0
  194.9930  175.4620  142.2730 C   0  0  0  0  0  0  0  0  0  0  0  0
  193.8220  175.5550  141.5450 C   0  0  0  0  0  3  0  0  0  0  0  0
  195.7190  176.0640  143.4210 C   0  0  2  0  0  3  0  0  0  0  0  0
  197.1010  175.0270  143.3320 S   0  0  0  0  0  0  0  0  0  0  0  0
  195.9190  173.6020  140.9550 C   0  0  0  0  0  3  0  0  0  0  0  0
  193.7050  174.6280  140.4810 C   0  0  0  0  0  3  0  0  0  0  0  0
  194.7280  173.6750  140.1930 C   0  0  0  0  0  3  0  0  0  0  0  0
  1  2  1  0  0  0  0
  1 11  1  0  0  0  0
  2  5  1  0  0  0  0
  3  6  2  0  0  0  0
  3 10  1  0  0  0  0
  4  5  1  0  0  0  0
  5 29  1  0  0  0  0
  6  7  1  0  0  0  0
  7  8  1  0  0  0  0
  7  2  2  0  0  0  0
  8  4  2  0  0  0  0
  9  6  1  0  0  0  0
 10  1  2  0  0  0  0
 12 11  2  0  0  0  0
 13 12  1  6  0  0  0
 13 18  1  0  0  0  0
 14 13  1  0  0  0  0
 14 25  1  0  0  0  0
 16 24  1  0  0  0  0
 18 21  1  0  0  0  0
 19 21  1  6  0  0  0
 19 23  1  0  0  0  0
 20 16  1  0  0  0  0
 22 20  1  6  0  0  0
 22 19  1  0  0  0  0
 23 15  1  0  0  0  0
 24 26  1  1  0  0  0
 24 15  1  0  0  0  0
 25 17  1  6  0  0  0
 25 22  1  0  0  0  0
 27 26  1  0  0  0  0
 28 30  1  0  0  0  0
 29 28  2  0  0  0  0
 32 33  1  0  0  0  0
 32 34  1  0  0  0  0
 33 30  1  0  0  0  0
 33 34  1  0  0  0  0
 34 31  2  0  0  0  0
 35 36  1  0  0  0  0
 35 39  1  0  0  0  0
 36 38  1  0  0  0  0
 37 36  2  0  0  0  0
 38 32  1  1  0  0  0
 39 38  1  0  0  0  0
 40 35  2  0  0  0  0
 41 37  1  0  0  0  0
 42 41  2  0  0  0  0
 42 40  1  0  0  0  0
M  END
>  <MODEL>
2

>  <REMARK>
 VINA RESULT:      -7.8      2.718      8.488
  Name = 
  7 active torsions:
  status: ('A' for Active; 'I' for Inactive)
    1  A    between atoms: C_1  and  C_3
    2  A    between atoms: C_2  and  C_40
    3  A    between atoms: N_12  and  C_33
    4  A    between atoms: C_17  and  N_19
    5  A    between atoms: C_22  and  C_29
    6  A    between atoms: N_27  and  C_36
    7  A    between atoms: C_29  and  N_38
                            x       y       z     vdW  Elec       q    Type
                         _______ _______ _______ _____ _____    ______ ____

>  <TORSDO>
F 7

$$$$
=
 OpenBabel11042413383D

 42 48  0  0  1  0  0  0  0  0999 V2000
  189.5490  173.2700  139.2360 C   0  0  0  0  0  0  0  0  0  0  0  0
  190.0000  171.9440  139.3140 C   0  0  0  0  0  0  0  0  0  0  0  0
  189.3950  172.9550  136.8070 C   0  0  0  0  0  3  0  0  0  0  0  0
  190.8500  169.8930  140.0160 N   0  0  0  0  0  0  0  0  0  0  0  0
  190.4230  171.1770  140.4300 N   0  0  0  0  0  0  0  0  0  0  0  0
  189.8590  171.6330  136.9350 C   0  0  0  0  0  0  0  0  0  0  0  0
  190.1510  171.1690  138.2170 C   0  0  0  0  0  0  0  0  0  0  0  0
  190.6650  169.9090  138.6120 N   0  0  0  0  0  0  0  0  0  0  0  0
  190.0360  170.7710  135.7350 C   0  0  0  0  0  1  0  0  0  0  0  0
  189.2430  173.7690  137.9500 C   0  0  0  0  0  3  0  0  0  0  0  0
  189.4050  174.0930  140.4450 C   0  0  0  0  0  3  0  0  0  0  0  0
  188.3860  174.9180  140.6540 C   0  0  0  0  0  3  0  0  0  0  0  0
  188.3350  175.6960  141.9210 C   0  0  2  0  0  3  0  0  0  0  0  0
  188.6240  177.0450  141.6580 O   0  0  0  0  0  0  0  0  0  0  0  0
  187.8140  176.9230  146.8360 C   0  0  0  0  0  2  0  0  0  0  0  0
  185.6450  177.3790  145.5040 C   0  0  0  0  0  2  0  0  0  0  0  0
  186.3770  178.0090  141.5910 C   0  0  0  0  0  1  0  0  0  0  0  0
  189.3650  175.1640  142.9010 C   0  0  0  0  0  2  0  0  0  0  0  0
  188.8610  177.0850  144.5090 C   0  0  1  0  0  3  0  0  0  0  0  0
  186.3450  176.8150  144.2690 C   0  0  0  0  0  2  0  0  0  0  0  0
  189.0200  175.5670  144.3310 C   0  0  0  0  0  2  0  0  0  0  0  0
  187.5710  177.6410  143.8700 C   0  0  2  0  0  3  0  0  0  0  0  0
  188.9670  177.4600  145.9890 C   0  0  0  0  0  2  0  0  0  0  0  0
  186.5760  177.8030  146.6520 C   0  0  1  0  0  3  0  0  0  0  0  0
  187.6960  177.8620  142.3420 C   0  0  1  0  0  3  0  0  0  0  0  0
  185.8400  177.9760  147.9060 N   0  0  0  0  0  2  0  0  0  0  0  0
  184.4410  178.2910  147.6380 C   0  0  0  0  0  1  0  0  0  0  0  0
  191.3590  171.1620  142.6510 C   0  0  0  0  0  3  0  0  0  0  0  0
  190.4760  171.6380  141.7820 C   0  0  0  0  0  3  0  0  0  0  0  0
  191.3860  171.6730  144.0520 C   0  0  0  0  0  2  0  0  0  0  0  0
  194.3200  169.6100  145.2000 O   0  0  0  0  0  0  0  0  0  0  0  0
  193.9180  172.1580  145.0480 N   0  0  0  0  0  0  0  0  0  0  0  0
  192.7250  171.5540  144.6060 N   0  0  0  0  0  0  0  0  0  0  0  0
  193.8140  170.7470  145.0130 C   0  0  0  0  0  0  0  0  0  0  0  0
  194.1580  175.2370  144.5030 C   0  0  0  0  0  0  0  0  0  0  0  0
  193.7420  174.4830  145.6320 C   0  0  0  0  0  0  0  0  0  0  0  0
  192.7680  174.9160  146.5120 C   0  0  0  0  0  3  0  0  0  0  0  0
  194.6740  173.3580  145.3640 C   0  0  2  0  0  3  0  0  0  0  0  0
  195.3620  174.0240  143.9240 S   0  0  0  0  0  0  0  0  0  0  0  0
  193.6220  176.4710  144.1860 C   0  0  0  0  0  3  0  0  0  0  0  0
  192.2050  176.1790  146.2070 C   0  0  0  0  0  3  0  0  0  0  0  0
  192.6220  176.9370  145.0720 C   0  0  0  0  0  3  0  0  0  0  0  0
  1  2  1  0  0  0  0
  1 11  1  0  0  0  0
  2  5  1  0  0  0  0
  3  6  2  0  0  0  0
  3 10  1  0  0  0  0
  4  5  1  0  0  0  0
  5 29  1  0  0  0  0
  6  7  1  0  0  0  0
  7  8  1  0  0  0  0
  7  2  2  0  0  0  0
  8  4  2  0  0  0  0
  9  6  1  0  0  0  0
 10  1  2  0  0  0  0
 11 12  2  0  0  0  0
 13 12  1  6  0  0  0
 13 18  1  0  0  0  0
 14 13  1  0  0  0  0
 14 25  1  0  0  0  0
 16 24  1  0  0  0  0
 18 21  1  0  0  0  0
 19 21  1  1  0  0  0
 19 23  1  0  0  0  0
 20 16  1  0  0  0  0
 22 20  1  6  0  0  0
 22 19  1  0  0  0  0
 23 15  1  0  0  0  0
 24 15  1  0  0  0  0
 24 26  1  1  0  0  0
 25 17  1  6  0  0  0
 25 22  1  0  0  0  0
 27 26  1  0  0  0  0
 28 30  1  0  0  0  0
 29 28  2  0  0  0  0
 30 33  1  0  0  0  0
 33 34  1  0  0  0  0
 33 32  1  0  0  0  0
 34 32  1  0  0  0  0
 34 31  2  0  0  0  0
 35 36  1  0  0  0  0
 36 37  2  0  0  0  0
 38 32  1  6  0  0  0
 38 36  1  0  0  0  0
 39 35  1  0  0  0  0
 39 38  1  0  0  0  0
 40 35  2  0  0  0  0
 40 42  1  0  0  0  0
 41 37  1  0  0  0  0
 42 41  2  0  0  0  0
M  END
>  <MODEL>
3

>  <REMARK>
 VINA RESULT:      -7.7      2.572      8.193
  Name = 
  7 active torsions:
  status: ('A' for Active; 'I' for Inactive)
    1  A    between atoms: C_1  and  C_3
    2  A    between atoms: C_2  and  C_40
    3  A    between atoms: N_12  and  C_33
    4  A    between atoms: C_17  and  N_19
    5  A    between atoms: C_22  and  C_29
    6  A    between atoms: N_27  and  C_36
    7  A    between atoms: C_29  and  N_38
                            x       y       z     vdW  Elec       q    Type
                         _______ _______ _______ _____ _____    ______ ____

>  <TORSDO>
F 7

$$$$
=
 OpenBabel11042413383D

 42 48  0  0  1  0  0  0  0  0999 V2000
  187.9970  176.9340  145.3690 C   0  0  0  0  0  0  0  0  0  0  0  0
  186.9290  177.0330  144.4650 C   0  0  0  0  0  0  0  0  0  0  0  0
  186.5130  177.9260  147.0540 C   0  0  0  0  0  3  0  0  0  0  0  0
  185.5770  177.0300  142.5690 N   0  0  0  0  0  0  0  0  0  0  0  0
  186.8530  176.7060  143.0870 N   0  0  0  0  0  0  0  0  0  0  0  0
  185.4750  178.0120  146.1090 C   0  0  0  0  0  0  0  0  0  0  0  0
  185.7320  177.5490  144.8190 C   0  0  0  0  0  0  0  0  0  0  0  0
  184.8820  177.5590  143.6840 N   0  0  0  0  0  0  0  0  0  0  0  0
  184.1540  178.5850  146.4840 C   0  0  0  0  0  1  0  0  0  0  0  0
  187.7680  177.3920  146.6860 C   0  0  0  0  0  3  0  0  0  0  0  0
  189.2910  176.3770  144.9540 C   0  0  0  0  0  3  0  0  0  0  0  0
  190.4280  177.0610  144.9830 C   0  0  0  0  0  3  0  0  0  0  0  0
  191.6850  176.3940  144.5490 C   0  0  2  0  0  3  0  0  0  0  0  0
  192.7530  177.3040  144.6240 O   0  0  0  0  0  0  0  0  0  0  0  0
  194.9850  172.8950  142.8720 C   0  0  0  0  0  2  0  0  0  0  0  0
  194.9870  173.0500  145.4540 C   0  0  0  0  0  2  0  0  0  0  0  0
  193.7720  176.6670  146.7540 C   0  0  0  0  0  1  0  0  0  0  0  0
  191.5540  175.9220  143.1120 C   0  0  0  0  0  2  0  0  0  0  0  0
  194.0210  175.2550  143.0810 C   0  0  1  0  0  3  0  0  0  0  0  0
  193.8820  174.0980  145.3410 C   0  0  0  0  0  2  0  0  0  0  0  0
  192.5710  174.8300  142.7990 C   0  0  0  0  0  2  0  0  0  0  0  0
  194.3450  175.3490  144.5880 C   0  0  2  0  0  3  0  0  0  0  0  0
  194.9970  174.3310  142.3500 C   0  0  0  0  0  2  0  0  0  0  0  0
  195.7930  172.8030  144.1670 C   0  0  1  0  0  3  0  0  0  0  0  0
  193.8610  176.6720  145.2310 C   0  0  1  0  0  3  0  0  0  0  0  0
  196.5600  171.5580  144.2430 N   0  0  0  0  0  2  0  0  0  0  0  0
  196.8920  171.2460  145.6290 C   0  0  0  0  0  1  0  0  0  0  0  0
  187.8840  174.9530  141.7930 C   0  0  0  0  0  3  0  0  0  0  0  0
  187.9230  176.1790  142.2980 C   0  0  0  0  0  3  0  0  0  0  0  0
  189.0190  174.4420  140.9700 C   0  0  0  0  0  2  0  0  0  0  0  0
  189.1070  171.8390  143.6900 O   0  0  0  0  0  0  0  0  0  0  0  0
  190.4940  172.1740  141.5350 N   0  0  0  0  0  0  0  0  0  0  0  0
  189.5890  173.2530  141.5820 N   0  0  0  0  0  0  0  0  0  0  0  0
  189.5810  172.2820  142.6120 C   0  0  0  0  0  0  0  0  0  0  0  0
  191.7260  171.3930  138.7590 C   0  0  0  0  0  0  0  0  0  0  0  0
  192.1110  172.3190  139.7630 C   0  0  0  0  0  0  0  0  0  0  0  0
  192.7430  173.5170  139.4840 C   0  0  0  0  0  3  0  0  0  0  0  0
  191.5980  171.4900  140.8830 C   0  0  2  0  0  3  0  0  0  0  0  0
  191.0000  170.1990  139.9000 S   0  0  0  0  0  0  0  0  0  0  0  0
  191.9480  171.6100  137.4120 C   0  0  0  0  0  3  0  0  0  0  0  0
  192.9820  173.7600  138.1100 C   0  0  0  0  0  3  0  0  0  0  0  0
  192.5940  172.8300  137.0990 C   0  0  0  0  0  3  0  0  0  0  0  0
  1 10  1  0  0  0  0
  2  7  1  0  0  0  0
  2  1  2  0  0  0  0
  4  5  1  0  0  0  0
  4  8  2  0  0  0  0
  5  2  1  0  0  0  0
  6  9  1  0  0  0  0
  6  3  1  0  0  0  0
  7  6  2  0  0  0  0
  8  7  1  0  0  0  0
 10  3  2  0  0  0  0
 11 12  2  0  0  0  0
 11  1  1  0  0  0  0
 13 14  1  0  0  0  0
 13 12  1  6  0  0  0
 14 25  1  0  0  0  0
 15 24  1  0  0  0  0
 18 13  1  0  0  0  0
 19 23  1  6  0  0  0
 19 22  1  0  0  0  0
 20 16  1  0  0  0  0
 21 19  1  0  0  0  0
 21 18  1  0  0  0  0
 22 25  1  0  0  0  0
 22 20  1  1  0  0  0
 23 15  1  0  0  0  0
 24 26  1  1  0  0  0
 24 16  1  0  0  0  0
 25 17  1  1  0  0  0
 26 27  1  0  0  0  0
 28 29  2  0  0  0  0
 29  5  1  0  0  0  0
 30 33  1  0  0  0  0
 30 28  1  0  0  0  0
 32 33  1  0  0  0  0
 32 34  1  0  0  0  0
 33 34  1  0  0  0  0
 34 31  2  0  0  0  0
 35 36  1  0  0  0  0
 35 39  1  0  0  0  0
 36 38  1  0  0  0  0
 37 36  2  0  0  0  0
 38 32  1  6  0  0  0
 39 38  1  0  0  0  0
 40 35  2  0  0  0  0
 41 37  1  0  0  0  0
 42 40  1  0  0  0  0
 42 41  2  0  0  0  0
M  END
>  <MODEL>
4

>  <REMARK>
 VINA RESULT:      -7.7      1.780      2.490
  Name = 
  7 active torsions:
  status: ('A' for Active; 'I' for Inactive)
    1  A    between atoms: C_1  and  C_3
    2  A    between atoms: C_2  and  C_40
    3  A    between atoms: N_12  and  C_33
    4  A    between atoms: C_17  and  N_19
    5  A    between atoms: C_22  and  C_29
    6  A    between atoms: N_27  and  C_36
    7  A    between atoms: C_29  and  N_38
                            x       y       z     vdW  Elec       q    Type
                         _______ _______ _______ _____ _____    ______ ____

>  <TORSDO>
F 7

$$$$
=
 OpenBabel11042413383D

 42 48  0  0  1  0  0  0  0  0999 V2000
  193.6570  173.5130  145.1740 C   0  0  0  0  0  0  0  0  0  0  0  0
  193.6740  172.2380  144.5880 C   0  0  0  0  0  0  0  0  0  0  0  0
  196.0110  173.1480  145.7640 C   0  0  0  0  0  3  0  0  0  0  0  0
  193.1110  170.2230  143.5680 N   0  0  0  0  0  0  0  0  0  0  0  0
  192.6390  171.4970  143.9610 N   0  0  0  0  0  0  0  0  0  0  0  0
  195.9760  171.8730  145.1700 C   0  0  0  0  0  0  0  0  0  0  0  0
  194.7770  171.4590  144.5920 C   0  0  0  0  0  0  0  0  0  0  0  0
  194.4680  170.2220  143.9730 N   0  0  0  0  0  0  0  0  0  0  0  0
  197.1820  171.0010  145.1740 C   0  0  0  0  0  1  0  0  0  0  0  0
  194.8570  173.9620  145.7670 C   0  0  0  0  0  3  0  0  0  0  0  0
  192.4390  174.3340  145.1640 C   0  0  0  0  0  3  0  0  0  0  0  0
  191.8050  174.7220  146.2640 C   0  0  0  0  0  3  0  0  0  0  0  0
  190.5850  175.5620  146.1390 C   0  0  2  0  0  3  0  0  0  0  0  0
  190.9320  176.9190  146.2440 O   0  0  0  0  0  0  0  0  0  0  0  0
  185.7340  177.0080  145.5670 C   0  0  0  0  0  2  0  0  0  0  0  0
  187.0270  177.0990  143.3290 C   0  0  0  0  0  2  0  0  0  0  0  0
  190.9900  177.5800  143.8910 C   0  0  0  0  0  1  0  0  0  0  0  0
  189.6060  175.2280  147.2500 C   0  0  0  0  0  2  0  0  0  0  0  0
  188.0970  177.1620  146.5350 C   0  0  1  0  0  3  0  0  0  0  0  0
  188.2470  176.5560  144.0710 C   0  0  0  0  0  2  0  0  0  0  0  0
  188.1920  175.6690  146.8860 C   0  0  0  0  0  2  0  0  0  0  0  0
  188.7280  177.5080  145.1700 C   0  0  2  0  0  3  0  0  0  0  0  0
  186.6440  177.6370  146.6220 C   0  0  0  0  0  2  0  0  0  0  0  0
  185.9330  177.7080  144.2220 C   0  0  1  0  0  3  0  0  0  0  0  0
  190.2700  177.6500  145.2330 C   0  0  1  0  0  3  0  0  0  0  0  0
  184.6700  177.8610  143.4960 N   0  0  0  0  0  2  0  0  0  0  0  0
  184.9220  178.1610  142.0910 C   0  0  0  0  0  1  0  0  0  0  0  0
  190.7480  172.1060  142.5960 C   0  0  0  0  0  3  0  0  0  0  0  0
  191.2880  171.9330  143.7960 C   0  0  0  0  0  3  0  0  0  0  0  0
  189.3330  172.5570  142.4660 C   0  0  0  0  0  2  0  0  0  0  0  0
  187.8040  175.4400  140.5860 O   0  0  0  0  0  0  0  0  0  0  0  0
  189.5310  173.6340  139.9280 N   0  0  0  0  0  0  0  0  0  0  0  0
  189.1660  173.3500  141.2580 N   0  0  0  0  0  0  0  0  0  0  0  0
  188.5840  174.4530  140.5890 C   0  0  0  0  0  0  0  0  0  0  0  0
  191.6680  171.6710  138.7370 C   0  0  0  0  0  0  0  0  0  0  0  0
  190.2710  171.8220  138.5330 C   0  0  0  0  0  0  0  0  0  0  0  0
  189.4300  170.7610  138.2530 C   0  0  0  0  0  3  0  0  0  0  0  0
  190.2870  173.2930  138.7340 C   0  0  2  0  0  3  0  0  0  0  0  0
  191.9830  173.4210  139.0470 S   0  0  0  0  0  0  0  0  0  0  0  0
  192.3080  170.4480  138.6750 C   0  0  0  0  0  3  0  0  0  0  0  0
  190.0650  169.4980  138.1830 C   0  0  0  0  0  3  0  0  0  0  0  0
  191.4690  169.3450  138.3890 C   0  0  0  0  0  3  0  0  0  0  0  0
  1 10  1  0  0  0  0
  2  7  1  0  0  0  0
  2  1  2  0  0  0  0
  3 10  2  0  0  0  0
  4  5  1  0  0  0  0
  4  8  2  0  0  0  0
  5  2  1  0  0  0  0
  6  9  1  0  0  0  0
  6  3  1  0  0  0  0
  7  6  2  0  0  0  0
  8  7  1  0  0  0  0
 11  1  1  0  0  0  0
 11 12  2  0  0  0  0
 13 14  1  0  0  0  0
 13 12  1  1  0  0  0
 13 18  1  0  0  0  0
 15 23  1  0  0  0  0
 16 20  1  0  0  0  0
 16 24  1  0  0  0  0
 19 23  1  6  0  0  0
 19 21  1  0  0  0  0
 21 18  1  0  0  0  0
 22 20  1  6  0  0  0
 22 25  1  0  0  0  0
 22 19  1  0  0  0  0
 24 26  1  6  0  0  0
 24 15  1  0  0  0  0
 25 17  1  6  0  0  0
 25 14  1  0  0  0  0
 27 26  1  0  0  0  0
 28 29  2  0  0  0  0
 29  5  1  0  0  0  0
 30 28  1  0  0  0  0
 31 34  2  0  0  0  0
 32 34  1  0  0  0  0
 32 33  1  0  0  0  0
 33 30  1  0  0  0  0
 34 33  1  0  0  0  0
 35 39  1  0  0  0  0
 36 38  1  0  0  0  0
 36 35  2  0  0  0  0
 37 36  1  0  0  0  0
 38 39  1  0  0  0  0
 38 32  1  1  0  0  0
 40 35  1  0  0  0  0
 41 37  2  0  0  0  0
 41 42  1  0  0  0  0
 42 40  2  0  0  0  0
M  END
>  <MODEL>
5

>  <REMARK>
 VINA RESULT:      -7.6      2.139      7.598
  Name = 
  7 active torsions:
  status: ('A' for Active; 'I' for Inactive)
    1  A    between atoms: C_1  and  C_3
    2  A    between atoms: C_2  and  C_40
    3  A    between atoms: N_12  and  C_33
    4  A    between atoms: C_17  and  N_19
    5  A    between atoms: C_22  and  C_29
    6  A    between atoms: N_27  and  C_36
    7  A    between atoms: C_29  and  N_38
                            x       y       z     vdW  Elec       q    Type
                         _______ _______ _______ _____ _____    ______ ____

>  <TORSDO>
F 7

$$$$
=
 OpenBabel11042413383D

 42 48  0  0  1  0  0  0  0  0999 V2000
  187.9470  176.8710  145.6120 C   0  0  0  0  0  0  0  0  0  0  0  0
  187.0680  177.0440  144.5330 C   0  0  0  0  0  0  0  0  0  0  0  0
  186.2210  177.8800  147.0340 C   0  0  0  0  0  3  0  0  0  0  0  0
  186.0860  177.1570  142.4250 N   0  0  0  0  0  0  0  0  0  0  0  0
  187.2330  176.7600  143.1530 N   0  0  0  0  0  0  0  0  0  0  0  0
  185.3770  178.0390  145.9200 C   0  0  0  0  0  0  0  0  0  0  0  0
  185.8470  177.6030  144.6820 C   0  0  0  0  0  0  0  0  0  0  0  0
  185.2200  177.6840  143.4130 N   0  0  0  0  0  0  0  0  0  0  0  0
  184.0330  178.6610  146.0700 C   0  0  0  0  0  1  0  0  0  0  0  0
  187.5000  177.3010  146.8810 C   0  0  0  0  0  3  0  0  0  0  0  0
  189.2730  176.2680  145.4180 C   0  0  0  0  0  3  0  0  0  0  0  0
  190.3410  176.5960  146.1360 C   0  0  0  0  0  3  0  0  0  0  0  0
  191.6340  175.9140  145.8620 C   0  0  2  0  0  3  0  0  0  0  0  0
  191.5460  174.5640  146.2390 O   0  0  0  0  0  0  0  0  0  0  0  0
  196.4430  175.0390  144.4280 C   0  0  0  0  0  2  0  0  0  0  0  0
  194.7610  174.3830  142.5770 C   0  0  0  0  0  2  0  0  0  0  0  0
  191.1280  173.4940  144.0800 C   0  0  0  0  0  1  0  0  0  0  0  0
  192.7470  176.5660  146.6630 C   0  0  0  0  0  2  0  0  0  0  0  0
  194.3820  174.7510  145.9150 C   0  0  1  0  0  3  0  0  0  0  0  0
  193.6410  174.8840  143.4880 C   0  0  0  0  0  2  0  0  0  0  0  0
  194.1120  176.2570  146.0590 C   0  0  0  0  0  2  0  0  0  0  0  0
  193.5560  174.0880  144.7930 C   0  0  2  0  0  3  0  0  0  0  0  0
  195.8810  174.4940  145.7410 C   0  0  0  0  0  2  0  0  0  0  0  0
  196.0970  174.0910  143.2790 C   0  0  1  0  0  3  0  0  0  0  0  0
  192.1040  173.7580  145.2220 C   0  0  1  0  0  3  0  0  0  0  0  0
  197.1960  173.9780  142.3170 N   0  0  0  0  0  2  0  0  0  0  0  0
  196.8530  174.6480  141.0680 C   0  0  0  0  0  1  0  0  0  0  0  0
  188.3630  175.1220  141.7930 C   0  0  0  0  0  3  0  0  0  0  0  0
  188.4070  176.2090  142.5530 C   0  0  0  0  0  3  0  0  0  0  0  0
  189.6100  174.5810  141.1810 C   0  0  0  0  0  2  0  0  0  0  0  0
  187.8150  174.0560  137.9120 O   0  0  0  0  0  0  0  0  0  0  0  0
  189.4960  172.6140  139.2430 N   0  0  0  0  0  0  0  0  0  0  0  0
  189.2900  173.7740  140.0140 N   0  0  0  0  0  0  0  0  0  0  0  0
  188.6130  173.6190  138.7810 C   0  0  0  0  0  0  0  0  0  0  0  0
  192.1030  170.9490  139.7640 C   0  0  0  0  0  0  0  0  0  0  0  0
  190.8040  170.9190  140.3360 C   0  0  0  0  0  0  0  0  0  0  0  0
  190.5690  170.5930  141.6580 C   0  0  0  0  0  3  0  0  0  0  0  0
  190.1190  171.3110  139.0780 C   0  0  2  0  0  3  0  0  0  0  0  0
  191.5520  171.4540  138.1210 S   0  0  0  0  0  0  0  0  0  0  0  0
  193.2470  170.6560  140.4820 C   0  0  0  0  0  3  0  0  0  0  0  0
  191.7270  170.2880  142.4140 C   0  0  0  0  0  3  0  0  0  0  0  0
  193.0330  170.3190  141.8400 C   0  0  0  0  0  3  0  0  0  0  0  0
  1 10  1  0  0  0  0
  2  7  1  0  0  0  0
  2  1  2  0  0  0  0
  4  5  1  0  0  0  0
  4  8  2  0  0  0  0
  5  2  1  0  0  0  0
  6  9  1  0  0  0  0
  6  3  1  0  0  0  0
  7  6  2  0  0  0  0
  8  7  1  0  0  0  0
 10  3  2  0  0  0  0
 11  1  1  0  0  0  0
 11 12  2  0  0  0  0
 13 12  1  1  0  0  0
 13 14  1  0  0  0  0
 13 18  1  0  0  0  0
 15 23  1  0  0  0  0
 16 24  1  0  0  0  0
 16 20  1  0  0  0  0
 19 23  1  6  0  0  0
 19 21  1  0  0  0  0
 21 18  1  0  0  0  0
 22 20  1  6  0  0  0
 22 25  1  0  0  0  0
 22 19  1  0  0  0  0
 24 26  1  6  0  0  0
 24 15  1  0  0  0  0
 25 17  1  6  0  0  0
 25 14  1  0  0  0  0
 27 26  1  0  0  0  0
 28 29  2  0  0  0  0
 29  5  1  0  0  0  0
 30 28  1  0  0  0  0
 31 34  2  0  0  0  0
 32 33  1  0  0  0  0
 33 30  1  0  0  0  0
 34 32  1  0  0  0  0
 34 33  1  0  0  0  0
 35 36  2  0  0  0  0
 35 40  1  0  0  0  0
 36 37  1  0  0  0  0
 37 41  2  0  0  0  0
 38 32  1  1  0  0  0
 38 36  1  0  0  0  0
 39 38  1  0  0  0  0
 39 35  1  0  0  0  0
 40 42  2  0  0  0  0
 42 41  1  0  0  0  0
M  END
>  <MODEL>
6

>  <REMARK>
 VINA RESULT:      -7.5      1.387      2.319
  Name = 
  7 active torsions:
  status: ('A' for Active; 'I' for Inactive)
    1  A    between atoms: C_1  and  C_3
    2  A    between atoms: C_2  and  C_40
    3  A    between atoms: N_12  and  C_33
    4  A    between atoms: C_17  and  N_19
    5  A    between atoms: C_22  and  C_29
    6  A    between atoms: N_27  and  C_36
    7  A    between atoms: C_29  and  N_38
                            x       y       z     vdW  Elec       q    Type
                         _______ _______ _______ _____ _____    ______ ____

>  <TORSDO>
F 7

$$$$
=
 OpenBabel11042413383D

 42 48  0  0  1  0  0  0  0  0999 V2000
  186.9560  176.7170  143.8640 C   0  0  0  0  0  0  0  0  0  0  0  0
  187.1990  177.1670  145.1700 C   0  0  0  0  0  0  0  0  0  0  0  0
  184.7720  177.8260  144.0110 C   0  0  0  0  0  3  0  0  0  0  0  0
  188.0870  177.5610  147.2860 N   0  0  0  0  0  0  0  0  0  0  0  0
  188.3100  176.9550  146.0270 N   0  0  0  0  0  0  0  0  0  0  0  0
  185.0590  178.2470  145.3220 C   0  0  0  0  0  0  0  0  0  0  0  0
  186.2930  177.8920  145.8620 C   0  0  0  0  0  0  0  0  0  0  0  0
  186.8060  178.1520  147.1580 N   0  0  0  0  0  0  0  0  0  0  0  0
  184.0660  179.0400  146.0980 C   0  0  0  0  0  1  0  0  0  0  0  0
  185.7140  177.0630  143.2870 C   0  0  0  0  0  3  0  0  0  0  0  0
  187.9560  175.9220  143.1390 C   0  0  0  0  0  3  0  0  0  0  0  0
  187.6490  174.9050  142.3420 C   0  0  0  0  0  3  0  0  0  0  0  0
  188.7420  174.1740  141.6470 C   0  0  2  0  0  3  0  0  0  0  0  0
  189.9860  174.6690  142.0720 O   0  0  0  0  0  0  0  0  0  0  0  0
  191.2400  170.9380  138.6090 C   0  0  0  0  0  2  0  0  0  0  0  0
  191.0490  170.0280  141.0220 C   0  0  0  0  0  2  0  0  0  0  0  0
  190.6270  172.9870  143.7270 C   0  0  0  0  0  1  0  0  0  0  0  0
  188.6300  174.3760  140.1460 C   0  0  0  0  0  2  0  0  0  0  0  0
  190.8560  173.1710  139.7950 C   0  0  1  0  0  3  0  0  0  0  0  0
  190.2430  171.2770  141.3750 C   0  0  0  0  0  2  0  0  0  0  0  0
  189.3790  173.2830  139.3900 C   0  0  0  0  0  2  0  0  0  0  0  0
  191.0580  172.5610  141.1990 C   0  0  2  0  0  3  0  0  0  0  0  0
  191.6440  172.4070  138.7280 C   0  0  0  0  0  2  0  0  0  0  0  0
  191.8840  170.1260  139.7340 C   0  0  1  0  0  3  0  0  0  0  0  0
  190.8510  173.5860  142.3420 C   0  0  1  0  0  3  0  0  0  0  0  0
  192.3190  168.8060  139.2730 N   0  0  0  0  0  2  0  0  0  0  0  0
  193.7140  168.8470  138.8500 C   0  0  0  0  0  1  0  0  0  0  0  0
  190.6460  176.4200  146.2810 C   0  0  0  0  0  3  0  0  0  0  0  0
  189.4730  176.1890  145.7060 C   0  0  0  0  0  3  0  0  0  0  0  0
  191.8350  175.5940  145.9220 C   0  0  0  0  0  2  0  0  0  0  0  0
  191.6570  177.6580  142.7780 O   0  0  0  0  0  0  0  0  0  0  0  0
  193.4100  175.9910  143.6850 N   0  0  0  0  0  0  0  0  0  0  0  0
  192.3730  176.0160  144.6390 N   0  0  0  0  0  0  0  0  0  0  0  0
  192.2810  176.8190  143.4770 C   0  0  0  0  0  0  0  0  0  0  0  0
  196.1560  174.7970  144.6170 C   0  0  0  0  0  0  0  0  0  0  0  0
  195.0140  174.2280  143.9950 C   0  0  0  0  0  0  0  0  0  0  0  0
  194.5970  172.9300  144.2260 C   0  0  0  0  0  3  0  0  0  0  0  0
  194.6810  175.4550  143.2280 C   0  0  2  0  0  3  0  0  0  0  0  0
  195.9840  176.4150  143.8360 S   0  0  0  0  0  0  0  0  0  0  0  0
  196.9510  174.1020  145.5080 C   0  0  0  0  0  3  0  0  0  0  0  0
  195.3980  172.1980  145.1350 C   0  0  0  0  0  3  0  0  0  0  0  0
  196.5460  172.7700  145.7610 C   0  0  0  0  0  3  0  0  0  0  0  0
  1  2  1  0  0  0  0
  2  7  2  0  0  0  0
  2  5  1  0  0  0  0
  3  6  2  0  0  0  0
  5  4  1  0  0  0  0
  6  7  1  0  0  0  0
  6  9  1  0  0  0  0
  7  8  1  0  0  0  0
  8  4  2  0  0  0  0
 10  1  2  0  0  0  0
 10  3  1  0  0  0  0
 11  1  1  0  0  0  0
 12 11  2  0  0  0  0
 13 14  1  0  0  0  0
 13 12  1  1  0  0  0
 14 25  1  0  0  0  0
 15 23  1  0  0  0  0
 15 24  1  0  0  0  0
 16 20  1  0  0  0  0
 18 13  1  0  0  0  0
 19 23  1  6  0  0  0
 19 22  1  0  0  0  0
 21 19  1  0  0  0  0
 21 18  1  0  0  0  0
 22 20  1  1  0  0  0
 22 25  1  0  0  0  0
 24 26  1  6  0  0  0
 24 16  1  0  0  0  0
 25 17  1  1  0  0  0
 27 26  1  0  0  0  0
 29  5  1  0  0  0  0
 29 28  2  0  0  0  0
 30 28  1  0  0  0  0
 31 34  2  0  0  0  0
 32 33  1  0  0  0  0
 33 30  1  0  0  0  0
 34 32  1  0  0  0  0
 34 33  1  0  0  0  0
 35 40  1  0  0  0  0
 36 37  1  0  0  0  0
 36 35  2  0  0  0  0
 37 41  2  0  0  0  0
 38 32  1  1  0  0  0
 38 39  1  0  0  0  0
 38 36  1  0  0  0  0
 39 35  1  0  0  0  0
 40 42  2  0  0  0  0
 41 42  1  0  0  0  0
M  END
>  <MODEL>
7

>  <REMARK>
 VINA RESULT:      -7.4      2.761      5.381
  Name = 
  7 active torsions:
  status: ('A' for Active; 'I' for Inactive)
    1  A    between atoms: C_1  and  C_3
    2  A    between atoms: C_2  and  C_40
    3  A    between atoms: N_12  and  C_33
    4  A    between atoms: C_17  and  N_19
    5  A    between atoms: C_22  and  C_29
    6  A    between atoms: N_27  and  C_36
    7  A    between atoms: C_29  and  N_38
                            x       y       z     vdW  Elec       q    Type
                         _______ _______ _______ _____ _____    ______ ____

>  <TORSDO>
F 7

$$$$
=
 OpenBabel11042413383D

 42 48  0  0  1  0  0  0  0  0999 V2000
  187.1600  176.5010  143.7180 C   0  0  0  0  0  0  0  0  0  0  0  0
  187.3100  177.0190  145.0120 C   0  0  0  0  0  0  0  0  0  0  0  0
  184.9370  177.5400  143.6820 C   0  0  0  0  0  3  0  0  0  0  0  0
  188.0550  177.5400  147.1560 N   0  0  0  0  0  0  0  0  0  0  0  0
  188.3730  176.8850  145.9430 N   0  0  0  0  0  0  0  0  0  0  0  0
  185.1320  178.0310  144.9860 C   0  0  0  0  0  0  0  0  0  0  0  0
  186.3420  177.7430  145.6150 C   0  0  0  0  0  0  0  0  0  0  0  0
  186.7670  178.0800  146.9250 N   0  0  0  0  0  0  0  0  0  0  0  0
  184.0700  178.8250  145.6640 C   0  0  0  0  0  1  0  0  0  0  0  0
  185.9450  176.7780  143.0520 C   0  0  0  0  0  3  0  0  0  0  0  0
  188.2270  175.7080  143.0910 C   0  0  0  0  0  3  0  0  0  0  0  0
  188.0150  174.5540  142.4710 C   0  0  0  0  0  3  0  0  0  0  0  0
  189.1680  173.8380  141.8610 C   0  0  2  0  0  3  0  0  0  0  0  0
  188.7620  172.5620  141.4370 O   0  0  0  0  0  0  0  0  0  0  0  0
  193.8440  172.7460  140.1610 C   0  0  0  0  0  2  0  0  0  0  0  0
  192.3130  173.6020  138.2610 C   0  0  0  0  0  2  0  0  0  0  0  0
  188.4140  172.9450  139.0470 C   0  0  0  0  0  1  0  0  0  0  0  0
  190.2790  173.6740  142.8850 C   0  0  0  0  0  2  0  0  0  0  0  0
  191.5950  172.2100  141.2560 C   0  0  1  0  0  3  0  0  0  0  0  0
  191.2110  173.7900  139.3030 C   0  0  0  0  0  2  0  0  0  0  0  0
  191.6190  173.4200  142.2030 C   0  0  0  0  0  2  0  0  0  0  0  0
  190.8020  172.4680  139.9580 C   0  0  2  0  0  3  0  0  0  0  0  0
  193.0210  171.7380  140.9620 C   0  0  0  0  0  2  0  0  0  0  0  0
  193.4630  172.6730  138.6820 C   0  0  1  0  0  3  0  0  0  0  0  0
  189.2710  172.3180  140.1420 C   0  0  1  0  0  3  0  0  0  0  0  0
  194.6300  172.8320  137.8110 N   0  0  0  0  0  2  0  0  0  0  0  0
  195.4910  173.9030  138.3010 C   0  0  0  0  0  1  0  0  0  0  0  0
  190.7270  176.4980  146.2870 C   0  0  0  0  0  3  0  0  0  0  0  0
  189.5760  176.1440  145.7280 C   0  0  0  0  0  3  0  0  0  0  0  0
  191.9600  175.6960  146.0410 C   0  0  0  0  0  2  0  0  0  0  0  0
  191.8580  177.5470  142.7630 O   0  0  0  0  0  0  0  0  0  0  0  0
  193.5210  175.8400  143.7650 N   0  0  0  0  0  0  0  0  0  0  0  0
  192.5020  175.9950  144.7260 N   0  0  0  0  0  0  0  0  0  0  0  0
  192.4410  176.7210  143.5130 C   0  0  0  0  0  0  0  0  0  0  0  0
  196.1820  174.5030  144.7470 C   0  0  0  0  0  0  0  0  0  0  0  0
  195.0000  173.9860  144.1540 C   0  0  0  0  0  0  0  0  0  0  0  0
  194.4950  172.7330  144.4460 C   0  0  0  0  0  3  0  0  0  0  0  0
  194.7490  175.1960  143.3310 C   0  0  2  0  0  3  0  0  0  0  0  0
  196.1190  176.0910  143.8920 S   0  0  0  0  0  0  0  0  0  0  0  0
  196.9310  173.7960  145.6680 C   0  0  0  0  0  3  0  0  0  0  0  0
  195.2470  171.9900  145.3870 C   0  0  0  0  0  3  0  0  0  0  0  0
  196.4360  172.5090  145.9840 C   0  0  0  0  0  3  0  0  0  0  0  0
  1  2  1  0  0  0  0
  2  7  2  0  0  0  0
  2  5  1  0  0  0  0
  3  6  2  0  0  0  0
  5  4  1  0  0  0  0
  6  7  1  0  0  0  0
  6  9  1  0  0  0  0
  7  8  1  0  0  0  0
  8  4  2  0  0  0  0
 10  3  1  0  0  0  0
 10  1  2  0  0  0  0
 11  1  1  0  0  0  0
 12 11  2  0  0  0  0
 13 12  1  1  0  0  0
 13 18  1  0  0  0  0
 14 13  1  0  0  0  0
 15 23  1  0  0  0  0
 16 24  1  0  0  0  0
 16 20  1  0  0  0  0
 19 23  1  6  0  0  0
 19 21  1  0  0  0  0
 21 18  1  0  0  0  0
 22 20  1  1  0  0  0
 22 25  1  0  0  0  0
 22 19  1  0  0  0  0
 24 26  1  6  0  0  0
 24 15  1  0  0  0  0
 25 17  1  6  0  0  0
 25 14  1  0  0  0  0
 26 27  1  0  0  0  0
 29  5  1  0  0  0  0
 29 28  2  0  0  0  0
 30 28  1  0  0  0  0
 31 34  2  0  0  0  0
 32 33  1  0  0  0  0
 33 30  1  0  0  0  0
 34 32  1  0  0  0  0
 34 33  1  0  0  0  0
 35 40  1  0  0  0  0
 36 37  1  0  0  0  0
 36 35  2  0  0  0  0
 37 41  2  0  0  0  0
 38 32  1  1  0  0  0
 38 39  1  0  0  0  0
 38 36  1  0  0  0  0
 39 35  1  0  0  0  0
 40 42  2  0  0  0  0
 41 42  1  0  0  0  0
M  END
>  <MODEL>
8

>  <REMARK>
 VINA RESULT:      -7.4      2.835      5.481
  Name = 
  7 active torsions:
  status: ('A' for Active; 'I' for Inactive)
    1  A    between atoms: C_1  and  C_3
    2  A    between atoms: C_2  and  C_40
    3  A    between atoms: N_12  and  C_33
    4  A    between atoms: C_17  and  N_19
    5  A    between atoms: C_22  and  C_29
    6  A    between atoms: N_27  and  C_36
    7  A    between atoms: C_29  and  N_38
                            x       y       z     vdW  Elec       q    Type
                         _______ _______ _______ _____ _____    ______ ____

>  <TORSDO>
F 7

$$$$
=
 OpenBabel11042413383D

 42 48  0  0  1  0  0  0  0  0999 V2000
  187.8910  176.0060  142.8350 C   0  0  0  0  0  0  0  0  0  0  0  0
  188.6590  176.8380  143.6620 C   0  0  0  0  0  0  0  0  0  0  0  0
  185.9180  176.8060  144.0550 C   0  0  0  0  0  3  0  0  0  0  0  0
  190.3910  177.9350  144.7660 N   0  0  0  0  0  0  0  0  0  0  0  0
  190.0630  177.0310  143.7280 N   0  0  0  0  0  0  0  0  0  0  0  0
  186.7320  177.6190  144.8650 C   0  0  0  0  0  0  0  0  0  0  0  0
  188.1060  177.6020  144.6290 C   0  0  0  0  0  0  0  0  0  0  0  0
  189.1360  178.2870  145.3200 N   0  0  0  0  0  0  0  0  0  0  0  0
  186.1350  178.4600  145.9390 C   0  0  0  0  0  1  0  0  0  0  0  0
  186.4940  176.0030  143.0470 C   0  0  0  0  0  3  0  0  0  0  0  0
  188.5220  175.1780  141.7970 C   0  0  0  0  0  3  0  0  0  0  0  0
  188.3010  173.8770  141.6610 C   0  0  0  0  0  3  0  0  0  0  0  0
  188.9850  173.1370  140.5670 C   0  0  2  0  0  3  0  0  0  0  0  0
  188.0340  172.6660  139.6480 O   0  0  0  0  0  0  0  0  0  0  0  0
  192.6020  171.0000  137.6870 C   0  0  0  0  0  2  0  0  0  0  0  0
  191.9390  173.3390  136.8060 C   0  0  0  0  0  2  0  0  0  0  0  0
  188.1920  174.3570  137.8890 C   0  0  0  0  0  1  0  0  0  0  0  0
  189.7380  171.9470  141.1350 C   0  0  0  0  0  2  0  0  0  0  0  0
  190.2920  171.1400  138.7740 C   0  0  1  0  0  3  0  0  0  0  0  0
  190.9820  173.4580  137.9910 C   0  0  0  0  0  2  0  0  0  0  0  0
  190.8260  171.4780  140.1750 C   0  0  0  0  0  2  0  0  0  0  0  0
  189.8870  172.3880  137.9610 C   0  0  2  0  0  3  0  0  0  0  0  0
  191.2990  170.2730  138.0160 C   0  0  0  0  0  2  0  0  0  0  0  0
  192.4010  171.9100  136.4750 C   0  0  1  0  0  3  0  0  0  0  0  0
  188.4840  172.9280  138.3350 C   0  0  1  0  0  3  0  0  0  0  0  0
  193.5720  171.9140  135.5960 N   0  0  0  0  0  2  0  0  0  0  0  0
  194.6910  172.5930  136.2390 C   0  0  0  0  0  1  0  0  0  0  0  0
  192.3000  176.7590  142.8710 C   0  0  0  0  0  3  0  0  0  0  0  0
  191.0320  176.3680  142.9130 C   0  0  0  0  0  3  0  0  0  0  0  0
  193.2810  176.0380  142.0120 C   0  0  0  0  0  2  0  0  0  0  0  0
  196.4830  174.1590  142.6450 O   0  0  0  0  0  0  0  0  0  0  0  0
  194.3020  174.4180  144.0060 N   0  0  0  0  0  0  0  0  0  0  0  0
  194.1050  175.1540  142.8200 N   0  0  0  0  0  0  0  0  0  0  0  0
  195.3280  174.4740  143.0330 C   0  0  0  0  0  0  0  0  0  0  0  0
  191.9650  174.6570  146.0840 C   0  0  0  0  0  0  0  0  0  0  0  0
  192.3370  173.6490  145.1570 C   0  0  0  0  0  0  0  0  0  0  0  0
  191.4190  172.8370  144.5160 C   0  0  0  0  0  3  0  0  0  0  0  0
  193.7920  173.9210  145.2720 C   0  0  2  0  0  3  0  0  0  0  0  0
  193.6500  175.2190  146.4070 S   0  0  0  0  0  0  0  0  0  0  0  0
  190.6520  174.9150  146.4270 C   0  0  0  0  0  3  0  0  0  0  0  0
  190.0660  173.0830  144.8530 C   0  0  0  0  0  3  0  0  0  0  0  0
  189.6920  174.0970  145.7850 C   0  0  0  0  0  3  0  0  0  0  0  0
  1 10  2  0  0  0  0
  1  2  1  0  0  0  0
  2  5  1  0  0  0  0
  2  7  2  0  0  0  0
  3  6  2  0  0  0  0
  4  8  2  0  0  0  0
  5  4  1  0  0  0  0
  6  9  1  0  0  0  0
  7  6  1  0  0  0  0
  7  8  1  0  0  0  0
 10  3  1  0  0  0  0
 11  1  1  0  0  0  0
 12 11  2  0  0  0  0
 13 18  1  0  0  0  0
 13 12  1  1  0  0  0
 14 13  1  0  0  0  0
 15 23  1  0  0  0  0
 16 20  1  0  0  0  0
 19 23  1  6  0  0  0
 19 21  1  0  0  0  0
 21 18  1  0  0  0  0
 22 20  1  1  0  0  0
 22 25  1  0  0  0  0
 22 19  1  0  0  0  0
 24 26  1  1  0  0  0
 24 16  1  0  0  0  0
 24 15  1  0  0  0  0
 25 17  1  1  0  0  0
 25 14  1  0  0  0  0
 26 27  1  0  0  0  0
 28 29  2  0  0  0  0
 29  5  1  0  0  0  0
 30 33  1  0  0  0  0
 30 28  1  0  0  0  0
 31 34  2  0  0  0  0
 33 34  1  0  0  0  0
 33 32  1  0  0  0  0
 34 32  1  0  0  0  0
 35 39  1  0  0  0  0
 35 40  1  0  0  0  0
 36 38  1  0  0  0  0
 36 35  2  0  0  0  0
 37 41  2  0  0  0  0
 37 36  1  0  0  0  0
 38 32  1  6  0  0  0
 38 39  1  0  0  0  0
 41 42  1  0  0  0  0
 42 40  2  0  0  0  0
M  END
>  <MODEL>
9

>  <REMARK>
 VINA RESULT:      -7.3      2.977      6.151
  Name = 
  7 active torsions:
  status: ('A' for Active; 'I' for Inactive)
    1  A    between atoms: C_1  and  C_3
    2  A    between atoms: C_2  and  C_40
    3  A    between atoms: N_12  and  C_33
    4  A    between atoms: C_17  and  N_19
    5  A    between atoms: C_22  and  C_29
    6  A    between atoms: N_27  and  C_36
    7  A    between atoms: C_29  and  N_38
                            x       y       z     vdW  Elec       q    Type
                         _______ _______ _______ _____ _____    ______ ____

>  <TORSDO>
F 7

$$$$
