=
 OpenBabel11042413513D

 70 77  0  0  1  0  0  0  0  0999 V2000
  193.5410  169.7920  138.1510 C   0  0  0  0  0  0  0  0  0  0  0  0
  192.1270  176.4540  144.1620 C   0  0  0  0  0  2  0  0  0  0  0  0
  191.0460  177.5150  144.2120 C   0  0  0  0  0  2  0  0  0  0  0  0
  184.6150  179.1310  142.8840 C   0  0  0  0  0  2  0  0  0  0  0  0
  192.0070  171.4990  140.9980 C   0  0  0  0  0  2  0  0  0  0  0  0
  190.7080  172.2920  141.0760 C   0  0  1  0  0  3  0  0  0  0  0  0
  186.7980  175.6090  140.2960 C   0  0  0  0  0  2  0  0  0  0  0  0
  186.1350  177.8780  140.7440 O   0  0  0  0  0  0  0  0  0  0  0  0
  192.0010  170.5200  139.8190 C   0  0  1  0  0  3  0  0  0  0  0  0
  186.4530  178.5490  146.5110 C   0  0  1  0  0  3  0  0  0  0  0  0
  187.7420  177.7410  146.7440 C   0  0  1  0  0  3  0  0  0  0  0  0
  190.6890  172.3170  138.5050 C   0  0  0  0  0  2  0  0  0  0  0  0
  191.2240  170.1530  137.3730 C   0  0  0  0  0  2  0  0  0  0  0  0
  190.9260  170.8190  138.7300 C   0  0  1  0  0  3  0  0  0  0  0  0
  187.9630  175.5610  141.2820 C   0  0  2  0  0  3  0  0  0  0  0  0
  192.8170  174.5930  142.6740 C   0  0  0  0  0  0  0  0  0  0  0  0
  188.8540  178.5790  146.9480 O   0  0  0  0  0  0  0  0  0  0  0  0
  190.6390  173.2450  142.2410 C   0  0  0  0  0  0  0  0  0  0  0  0
  192.3080  176.0030  142.7290 C   0  0  0  0  0  2  0  0  0  0  0  0
  184.3990  177.8710  143.6490 C   0  0  0  0  0  3  0  0  0  0  0  0
  186.5910  177.0150  139.7480 C   0  0  0  0  0  2  0  0  0  0  0  0
  193.8370  174.2440  141.8920 C   0  0  0  0  0  3  0  0  0  0  0  0
  190.7080  177.8200  145.6520 C   0  0  0  0  0  2  0  0  0  0  0  0
  193.3270  170.4420  139.2460 N   0  0  0  0  0  0  0  0  0  0  0  0
  188.6870  174.2110  141.2240 C   0  0  1  0  0  3  0  0  0  0  0  0
  184.7470  177.9000  140.6020 C   0  0  0  0  0  2  0  0  0  0  0  0
  192.3860  169.1590  137.4300 C   0  0  0  0  0  2  0  0  0  0  0  0
  189.2670  173.9630  139.8090 C   0  0  0  0  0  2  0  0  0  0  0  0
  184.8560  177.7700  144.8620 C   0  0  0  0  0  0  0  0  0  0  0  0
  189.7130  174.1430  142.2520 N   0  0  0  0  0  0  0  0  0  0  0  0
  185.3290  177.6690  146.0740 C   0  0  0  0  0  3  0  0  0  0  0  0
  190.5510  173.1220  139.8010 C   0  0  1  0  0  3  0  0  0  0  0  0
  189.4660  178.6860  145.6980 C   0  0  0  0  0  2  0  0  0  0  0  0
  184.1380  179.0380  141.4290 C   0  0  1  0  0  3  0  0  0  0  0  0
  191.9020  173.3000  143.5220 S   0  0  0  0  0  0  0  0  0  0  0  0
  197.6750  168.3980  137.9790 O   0  0  0  0  0  1  0  0  0  0  0  0
  195.3530  168.3270  137.2830 C   0  0  0  0  0  2  0  0  0  0  0  0
  196.8300  168.1660  136.8920 C   0  0  1  0  0  3  0  0  0  0  0  0
  197.1330  170.4540  135.7040 C   0  0  1  0  0  3  0  0  0  0  0  0
  196.6490  168.4250  134.5130 O   0  0  0  0  0  1  0  0  0  0  0  0
  197.2970  168.9290  135.6420 C   0  0  2  0  0  3  0  0  0  0  0  0
  197.5380  170.9660  136.9420 O   0  0  0  0  0  0  0  0  0  0  0  0
  196.3660  171.4460  137.5380 C   0  0  2  0  0  3  0  0  0  0  0  0
  197.9390  171.1080  134.5980 C   0  0  0  0  0  1  0  0  0  0  0  0
  196.6840  172.6720  138.3700 C   0  0  0  0  0  1  0  0  0  0  0  0
  195.8060  170.4580  138.3560 O   0  0  0  0  0  0  0  0  0  0  0  0
  194.9020  169.7710  137.5350 C   0  0  2  0  0  3  0  0  0  0  0  0
  188.1220  175.3700  147.0570 C   0  0  2  0  0  3  0  0  0  0  0  0
  188.9500  175.9530  148.1180 N   0  0  0  0  0  2  0  0  0  0  0  0
  187.6640  176.5490  147.7320 C   0  0  1  0  0  0  0  0  0  0  0  0
  186.6910  175.5180  147.3610 N   0  0  0  0  0  2  0  0  0  0  0  0
  184.7840  178.8820  147.9230 C   0  0  0  0  0  1  0  0  0  0  0  0
  186.0960  179.2690  147.6550 O   0  0  0  0  0  0  0  0  0  0  0  0
  187.4960  175.9150  142.6990 C   0  0  0  0  0  2  0  0  0  0  0  0
  188.0090  177.2740  143.1540 C   0  0  0  0  0  1  0  0  0  0  0  0
  195.4200  176.0550  141.6990 C   0  0  0  0  0  2  0  0  0  0  0  0
  194.5980  175.2110  141.0980 C   0  0  0  0  0  3  0  0  0  0  0  0
  182.7410  179.1960  141.2820 O   0  0  0  0  0  0  0  0  0  0  0  0
  182.1140  177.9430  141.3990 C   0  0  0  0  0  2  0  0  0  0  0  0
  180.6870  178.0080  140.8820 C   0  0  2  0  0  3  0  0  0  0  0  0
  180.5450  179.2770  140.0580 C   0  0  0  0  0  2  0  0  0  0  0  0
  179.1210  179.7990  140.0970 C   0  0  0  0  0  2  0  0  0  0  0  0
  179.0200  181.0210  139.2050 C   0  0  0  0  0  2  0  0  0  0  0  0
  177.9120  182.5550  140.5830 C   0  0  0  0  0  2  0  0  0  0  0  0
  179.2170  182.2240  139.9930 N   0  0  0  0  0  0  0  0  0  0  0  0
  178.3600  183.2560  139.3900 C   0  0  0  0  0  2  0  0  0  0  0  0
  179.7190  178.0210  142.0540 C   0  0  0  0  0  2  0  0  0  0  0  0
  178.5900  177.0310  141.8340 C   0  0  0  0  0  2  0  0  0  0  0  0
  177.9390  176.7960  143.0450 O   0  0  0  0  0  0  0  0  0  0  0  0
  178.2230  177.9210  143.8180 C   0  0  0  0  0  1  0  0  0  0  0  0
  1 24  2  0  0  0  0
  2  3  1  0  0  0  0
  3 23  1  0  0  0  0
  4 20  1  0  0  0  0
  6  5  1  6  0  0  0
  6 18  1  0  0  0  0
  7 15  1  0  0  0  0
  9  5  1  1  0  0  0
 10 11  1  0  0  0  0
 10 53  1  1  0  0  0
 11 17  1  1  0  0  0
 11 50  1  0  0  0  0
 12 14  1  0  0  0  0
 13 27  1  0  0  0  0
 14 13  1  6  0  0  0
 14  9  1  0  0  0  0
 15 54  1  1  0  0  0
 16 19  1  0  0  0  0
 16 35  1  0  0  0  0
 18 30  2  0  0  0  0
 18 35  1  0  0  0  0
 19  2  1  0  0  0  0
 20 29  2  0  0  0  0
 21  7  1  0  0  0  0
 21  8  1  0  0  0  0
 22 16  2  0  0  0  0
 23 33  1  0  0  0  0
 24  9  1  0  0  0  0
 25 28  1  6  0  0  0
 25 15  1  0  0  0  0
 25 30  1  0  0  0  0
 26  8  1  0  0  0  0
 26 34  1  0  0  0  0
 27  1  1  0  0  0  0
 29 31  2  0  0  0  0
 31 10  1  0  0  0  0
 32 12  1  6  0  0  0
 32 28  1  0  0  0  0
 32  6  1  0  0  0  0
 33 17  1  0  0  0  0
 34 58  1  1  0  0  0
 34  4  1  0  0  0  0
 37 47  1  0  0  0  0
 38 37  1  0  0  0  0
 38 36  1  1  0  0  0
 39 44  1  6  0  0  0
 39 42  1  0  0  0  0
 41 40  1  6  0  0  0
 41 39  1  0  0  0  0
 41 38  1  0  0  0  0
 42 43  1  0  0  0  0
 43 46  1  0  0  0  0
 43 45  1  1  0  0  0
 47  1  1  1  0  0  0
 47 46  1  0  0  0  0
 48 51  1  1  0  0  0
 48 50  1  0  0  0  0
 48 49  1  0  0  0  0
 50 51  1  1  0  0  0
 50 49  1  0  0  0  0
 53 52  1  0  0  0  0
 54 55  1  0  0  0  0
 57 56  2  0  0  0  0
 57 22  1  0  0  0  0
 58 59  1  0  0  0  0
 60 61  1  1  0  0  0
 60 59  1  0  0  0  0
 60 67  1  0  0  0  0
 61 62  1  0  0  0  0
 63 65  1  0  0  0  0
 63 62  1  0  0  0  0
 65 64  1  0  0  0  0
 66 65  1  0  0  0  0
 66 64  1  0  0  0  0
 68 67  1  0  0  0  0
 68 69  1  0  0  0  0
 69 70  1  0  0  0  0
M  END
>  <MODEL>
1

>  <REMARK>
 VINA RESULT:      -2.6      0.000      0.000
  Name = 
  15 active torsions:
  status: ('A' for Active; 'I' for Inactive)
    1  A    between atoms: C_1  and  C_6
    2  A    between atoms: C_1  and  C_18
    3  A    between atoms: O_2  and  C_44
    4  A    between atoms: C_5  and  C_34
    5  A    between atoms: C_6  and  C_11
    6  A    between atoms: C_7  and  C_70
    7  A    between atoms: C_11  and  N_57
    8  A    between atoms: C_18  and  C_54
    9  A    between atoms: C_18  and  C_58
   10  A    between atoms: C_24  and  O_36
   11  A    between atoms: C_25  and  C_50
   12  A    between atoms: O_31  and  C_54
   13  A    between atoms: O_31  and  C_65
   14  A    between atoms: C_38  and  C_43
   15  A    between atoms: C_44  and  C_58
                            x       y       z     vdW  Elec       q    Type
                         _______ _______ _______ _____ _____    ______ ____

>  <TORSDO>
F 15

$$$$
=
 OpenBabel11042413513D

 70 77  0  0  1  0  0  0  0  0999 V2000
  193.7060  169.8170  138.2340 C   0  0  0  0  0  0  0  0  0  0  0  0
  192.3630  176.3990  144.3480 C   0  0  0  0  0  2  0  0  0  0  0  0
  191.2640  177.4380  144.4440 C   0  0  0  0  0  2  0  0  0  0  0  0
  184.7610  178.9360  143.3440 C   0  0  0  0  0  2  0  0  0  0  0  0
  192.2350  171.4690  141.1460 C   0  0  0  0  0  2  0  0  0  0  0  0
  190.9240  172.2360  141.2740 C   0  0  1  0  0  3  0  0  0  0  0  0
  186.9260  175.4810  140.6530 C   0  0  0  0  0  2  0  0  0  0  0  0
  186.2340  177.7320  141.1440 O   0  0  0  0  0  0  0  0  0  0  0  0
  192.2090  170.5010  139.9580 C   0  0  1  0  0  3  0  0  0  0  0  0
  186.7300  178.3610  146.9030 C   0  0  1  0  0  3  0  0  0  0  0  0
  188.0420  177.5770  147.0860 C   0  0  1  0  0  3  0  0  0  0  0  0
  190.8190  172.2820  138.7050 C   0  0  0  0  0  2  0  0  0  0  0  0
  191.3590  170.1390  137.5360 C   0  0  0  0  0  2  0  0  0  0  0  0
  191.0930  170.7870  138.9080 C   0  0  1  0  0  3  0  0  0  0  0  0
  188.1230  175.4480  141.6000 C   0  0  2  0  0  3  0  0  0  0  0  0
  193.0390  174.5650  142.8210 C   0  0  0  0  0  0  0  0  0  0  0  0
  189.1430  178.4350  147.2600 O   0  0  0  0  0  0  0  0  0  0  0  0
  190.8750  173.1770  142.4490 C   0  0  0  0  0  0  0  0  0  0  0  0
  192.5050  175.9650  142.9060 C   0  0  0  0  0  2  0  0  0  0  0  0
  184.5960  177.6660  144.1040 C   0  0  0  0  0  3  0  0  0  0  0  0
  186.6740  176.8870  140.1250 C   0  0  0  0  0  2  0  0  0  0  0  0
  194.0400  174.2430  142.0030 C   0  0  0  0  0  3  0  0  0  0  0  0
  190.9670  177.7240  145.8970 C   0  0  0  0  0  2  0  0  0  0  0  0
  193.5170  170.4540  139.3410 N   0  0  0  0  0  0  0  0  0  0  0  0
  188.8720  174.1130  141.5050 C   0  0  1  0  0  3  0  0  0  0  0  0
  184.8410  177.7280  141.0480 C   0  0  0  0  0  2  0  0  0  0  0  0
  192.5410  169.1680  137.5450 C   0  0  0  0  0  2  0  0  0  0  0  0
  189.4090  173.8880  140.0700 C   0  0  0  0  0  2  0  0  0  0  0  0
  185.0950  177.5640  145.3010 C   0  0  0  0  0  0  0  0  0  0  0  0
  189.9330  174.0570  142.4980 N   0  0  0  0  0  0  0  0  0  0  0  0
  185.6100  177.4620  146.4960 C   0  0  0  0  0  3  0  0  0  0  0  0
  190.7080  173.0740  140.0120 C   0  0  1  0  0  3  0  0  0  0  0  0
  189.7120  178.5650  145.9920 C   0  0  0  0  0  2  0  0  0  0  0  0
  184.2380  178.8470  141.9050 C   0  0  1  0  0  3  0  0  0  0  0  0
  192.1790  173.2470  143.6880 S   0  0  0  0  0  0  0  0  0  0  0  0
  197.8740  168.5490  137.9430 O   0  0  0  0  0  1  0  0  0  0  0  0
  195.5340  168.3960  137.3270 C   0  0  0  0  0  2  0  0  0  0  0  0
  197.0010  168.2740  136.8890 C   0  0  1  0  0  3  0  0  0  0  0  0
  197.1930  170.5510  135.6580 C   0  0  1  0  0  3  0  0  0  0  0  0
  196.7340  168.4910  134.5140 O   0  0  0  0  0  1  0  0  0  0  0  0
  197.4030  169.0320  135.6130 C   0  0  2  0  0  3  0  0  0  0  0  0
  197.6230  171.0950  136.8740 O   0  0  0  0  0  0  0  0  0  0  0  0
  196.4570  171.5480  137.5020 C   0  0  2  0  0  3  0  0  0  0  0  0
  197.9410  171.2130  134.5170 C   0  0  0  0  0  1  0  0  0  0  0  0
  196.7640  172.7960  138.3060 C   0  0  0  0  0  1  0  0  0  0  0  0
  195.9550  170.5560  138.3530 O   0  0  0  0  0  0  0  0  0  0  0  0
  195.0470  169.8290  137.5720 C   0  0  2  0  0  3  0  0  0  0  0  0
  187.6510  175.1990  147.3330 C   0  0  2  0  0  3  0  0  0  0  0  0
  189.0270  175.3340  147.8220 N   0  0  0  0  0  2  0  0  0  0  0  0
  188.0200  176.3750  148.0650 C   0  0  1  0  0  0  0  0  0  0  0  0
  186.6930  175.7910  148.2780 N   0  0  0  0  0  2  0  0  0  0  0  0
  185.0290  178.8540  148.2260 C   0  0  0  0  0  1  0  0  0  0  0  0
  186.3980  179.0640  148.0640 O   0  0  0  0  0  0  0  0  0  0  0  0
  187.6970  175.7800  143.0350 C   0  0  0  0  0  2  0  0  0  0  0  0
  188.2960  177.0910  143.5270 C   0  0  0  0  0  1  0  0  0  0  0  0
  194.8150  175.0860  139.8800 C   0  0  0  0  0  2  0  0  0  0  0  0
  194.7550  175.2320  141.1930 C   0  0  0  0  0  3  0  0  0  0  0  0
  182.8340  178.9770  141.8060 O   0  0  0  0  0  0  0  0  0  0  0  0
  182.3760  178.2710  140.6800 C   0  0  0  0  0  2  0  0  0  0  0  0
  180.8590  178.2750  140.6250 C   0  0  2  0  0  3  0  0  0  0  0  0
  180.4330  177.5240  139.3740 C   0  0  0  0  0  2  0  0  0  0  0  0
  178.9570  177.1780  139.4180 C   0  0  0  0  0  2  0  0  0  0  0  0
  178.6820  176.0650  138.4260 C   0  0  0  0  0  2  0  0  0  0  0  0
  179.2070  176.2270  136.1500 C   0  0  0  0  0  2  0  0  0  0  0  0
  179.7790  175.9660  137.4790 N   0  0  0  0  0  0  0  0  0  0  0  0
  179.4430  174.8560  136.5750 C   0  0  0  0  0  2  0  0  0  0  0  0
  180.3530  179.7080  140.5850 C   0  0  0  0  0  2  0  0  0  0  0  0
  178.8400  179.7460  140.4810 C   0  0  0  0  0  2  0  0  0  0  0  0
  178.4210  181.0630  140.2980 O   0  0  0  0  0  0  0  0  0  0  0  0
  178.2750  181.1930  138.9170 C   0  0  0  0  0  1  0  0  0  0  0  0
  1 24  2  0  0  0  0
  2  3  1  0  0  0  0
  3 23  1  0  0  0  0
  4 20  1  0  0  0  0
  6  5  1  6  0  0  0
  6 18  1  0  0  0  0
  7 15  1  0  0  0  0
  9  5  1  1  0  0  0
 10 11  1  0  0  0  0
 10 53  1  1  0  0  0
 11 17  1  1  0  0  0
 11 50  1  0  0  0  0
 12 14  1  0  0  0  0
 13 27  1  0  0  0  0
 14 13  1  6  0  0  0
 14  9  1  0  0  0  0
 15 54  1  1  0  0  0
 16 19  1  0  0  0  0
 16 35  1  0  0  0  0
 18 30  2  0  0  0  0
 18 35  1  0  0  0  0
 19  2  1  0  0  0  0
 20 29  2  0  0  0  0
 21  7  1  0  0  0  0
 21  8  1  0  0  0  0
 22 16  2  0  0  0  0
 23 33  1  0  0  0  0
 24  9  1  0  0  0  0
 25 28  1  6  0  0  0
 25 15  1  0  0  0  0
 25 30  1  0  0  0  0
 26  8  1  0  0  0  0
 26 34  1  0  0  0  0
 27  1  1  0  0  0  0
 29 31  2  0  0  0  0
 31 10  1  0  0  0  0
 32 12  1  6  0  0  0
 32 28  1  0  0  0  0
 32  6  1  0  0  0  0
 33 17  1  0  0  0  0
 34 58  1  1  0  0  0
 34  4  1  0  0  0  0
 37 47  1  0  0  0  0
 38 37  1  0  0  0  0
 38 36  1  1  0  0  0
 39 44  1  6  0  0  0
 39 42  1  0  0  0  0
 41 40  1  6  0  0  0
 41 39  1  0  0  0  0
 41 38  1  0  0  0  0
 42 43  1  0  0  0  0
 43 45  1  1  0  0  0
 43 46  1  0  0  0  0
 47  1  1  1  0  0  0
 47 46  1  0  0  0  0
 48 49  1  1  0  0  0
 48 50  1  0  0  0  0
 48 51  1  0  0  0  0
 50 49  1  1  0  0  0
 50 51  1  0  0  0  0
 53 52  1  0  0  0  0
 54 55  1  0  0  0  0
 56 57  2  0  0  0  0
 57 22  1  0  0  0  0
 59 58  1  0  0  0  0
 60 61  1  6  0  0  0
 60 59  1  0  0  0  0
 61 62  1  0  0  0  0
 63 62  1  0  0  0  0
 64 66  1  0  0  0  0
 64 65  1  0  0  0  0
 65 63  1  0  0  0  0
 66 65  1  0  0  0  0
 67 60  1  0  0  0  0
 68 67  1  0  0  0  0
 69 68  1  0  0  0  0
 70 69  1  0  0  0  0
M  END
>  <MODEL>
2

>  <REMARK>
 VINA RESULT:      -0.6      1.505      2.112
  Name = 
  15 active torsions:
  status: ('A' for Active; 'I' for Inactive)
    1  A    between atoms: C_1  and  C_6
    2  A    between atoms: C_1  and  C_18
    3  A    between atoms: O_2  and  C_44
    4  A    between atoms: C_5  and  C_34
    5  A    between atoms: C_6  and  C_11
    6  A    between atoms: C_7  and  C_70
    7  A    between atoms: C_11  and  N_57
    8  A    between atoms: C_18  and  C_54
    9  A    between atoms: C_18  and  C_58
   10  A    between atoms: C_24  and  O_36
   11  A    between atoms: C_25  and  C_50
   12  A    between atoms: O_31  and  C_54
   13  A    between atoms: O_31  and  C_65
   14  A    between atoms: C_38  and  C_43
   15  A    between atoms: C_44  and  C_58
                            x       y       z     vdW  Elec       q    Type
                         _______ _______ _______ _____ _____    ______ ____

>  <TORSDO>
F 15

$$$$
=
 OpenBabel11042413513D

 70 77  0  0  1  0  0  0  0  0999 V2000
  183.4860  178.3670  140.4900 C   0  0  0  0  0  0  0  0  0  0  0  0
  190.1120  176.3280  146.3600 C   0  0  0  0  0  2  0  0  0  0  0  0
  191.0790  175.1630  146.3790 C   0  0  0  0  0  2  0  0  0  0  0  0
  194.7080  170.7420  142.7700 C   0  0  0  0  0  2  0  0  0  0  0  0
  186.9030  178.1250  141.7710 C   0  0  0  0  0  2  0  0  0  0  0  0
  187.9800  177.0860  141.4870 C   0  0  1  0  0  3  0  0  0  0  0  0
  190.6800  172.7070  140.8260 C   0  0  0  0  0  2  0  0  0  0  0  0
  191.9030  171.0440  142.0620 O   0  0  0  0  0  0  0  0  0  0  0  0
  185.8570  178.1750  140.6520 C   0  0  1  0  0  3  0  0  0  0  0  0
  195.9890  173.9170  145.0390 C   0  0  1  0  0  3  0  0  0  0  0  0
  195.1390  175.1390  145.4320 C   0  0  1  0  0  3  0  0  0  0  0  0
  186.1430  175.6150  140.4500 C   0  0  0  0  0  2  0  0  0  0  0  0
  184.5320  176.7680  138.9240 C   0  0  0  0  0  2  0  0  0  0  0  0
  185.8440  176.9280  139.7170 C   0  0  1  0  0  3  0  0  0  0  0  0
  190.6100  173.7470  141.9410 C   0  0  2  0  0  3  0  0  0  0  0  0
  188.2040  177.1200  144.9860 C   0  0  0  0  0  0  0  0  0  0  0  0
  194.7200  175.0720  146.7740 O   0  0  0  0  0  0  0  0  0  0  0  0
  189.0590  177.0170  142.5360 C   0  0  0  0  0  0  0  0  0  0  0  0
  188.8660  175.9230  145.6020 C   0  0  0  0  0  2  0  0  0  0  0  0
  195.1460  172.0080  142.1200 C   0  0  0  0  0  3  0  0  0  0  0  0
  190.7070  171.2920  141.3880 C   0  0  0  0  0  2  0  0  0  0  0  0
  186.8930  177.3310  145.0970 C   0  0  0  0  0  3  0  0  0  0  0  0
  192.4040  175.6180  146.9430 C   0  0  0  0  0  2  0  0  0  0  0  0
  184.5490  178.4240  141.2200 N   0  0  0  0  0  0  0  0  0  0  0  0
  189.8140  174.9830  141.5020 C   0  0  1  0  0  3  0  0  0  0  0  0
  192.7250  170.4090  141.1280 C   0  0  0  0  0  2  0  0  0  0  0  0
  183.6020  177.9770  139.0450 C   0  0  0  0  0  2  0  0  0  0  0  0
  188.3600  174.5940  141.1390 C   0  0  0  0  0  2  0  0  0  0  0  0
  195.6990  172.9410  142.8380 C   0  0  0  0  0  0  0  0  0  0  0  0
  189.8620  176.0080  142.5320 N   0  0  0  0  0  0  0  0  0  0  0  0
  196.2390  173.8790  143.5670 C   0  0  0  0  0  3  0  0  0  0  0  0
  187.3330  175.7020  141.4120 C   0  0  1  0  0  3  0  0  0  0  0  0
  193.4350  174.5290  146.7310 C   0  0  0  0  0  2  0  0  0  0  0  0
  193.9560  169.8070  141.8150 C   0  0  1  0  0  3  0  0  0  0  0  0
  189.1580  178.1860  143.9010 S   0  0  0  0  0  0  0  0  0  0  0  0
  179.8600  180.7060  141.1560 O   0  0  0  0  0  1  0  0  0  0  0  0
  181.1190  178.9680  140.0260 C   0  0  0  0  0  2  0  0  0  0  0  0
  179.7610  179.4460  140.5640 C   0  0  1  0  0  3  0  0  0  0  0  0
  179.7220  178.0270  142.7370 C   0  0  1  0  0  3  0  0  0  0  0  0
  178.6230  177.3390  140.7160 O   0  0  0  0  0  1  0  0  0  0  0  0
  178.9920  178.4610  141.4590 C   0  0  2  0  0  3  0  0  0  0  0  0
  180.3330  179.1120  143.3750 O   0  0  0  0  0  0  0  0  0  0  0  0
  181.7080  178.8750  143.2600 C   0  0  2  0  0  3  0  0  0  0  0  0
  178.7490  177.3620  143.6910 C   0  0  0  0  0  1  0  0  0  0  0  0
  182.4190  179.3960  144.4930 C   0  0  0  0  0  1  0  0  0  0  0  0
  182.2120  179.5180  142.1230 O   0  0  0  0  0  0  0  0  0  0  0  0
  182.1360  178.5640  141.0990 C   0  0  2  0  0  3  0  0  0  0  0  0
  194.5990  177.2330  144.3420 C   0  0  2  0  0  3  0  0  0  0  0  0
  195.0310  177.6830  145.6700 N   0  0  0  0  0  2  0  0  0  0  0  0
  195.6610  176.5350  145.0060 C   0  0  1  0  0  0  0  0  0  0  0  0
  195.7370  176.7350  143.5560 N   0  0  0  0  0  2  0  0  0  0  0  0
  197.2780  172.6050  146.2660 C   0  0  0  0  0  1  0  0  0  0  0  0
  197.1960  173.8950  145.7420 O   0  0  0  0  0  0  0  0  0  0  0  0
  192.0140  174.1050  142.4460 C   0  0  0  0  0  2  0  0  0  0  0  0
  192.8800  174.7200  141.3570 C   0  0  0  0  0  1  0  0  0  0  0  0
  184.9890  177.0030  146.5410 C   0  0  0  0  0  2  0  0  0  0  0  0
  186.0130  176.4740  145.8930 C   0  0  0  0  0  3  0  0  0  0  0  0
  194.8070  169.0670  140.9620 O   0  0  0  0  0  0  0  0  0  0  0  0
  194.2660  169.0460  139.6640 C   0  0  0  0  0  2  0  0  0  0  0  0
  195.1390  169.8390  138.7070 C   0  0  2  0  0  3  0  0  0  0  0  0
  195.0180  169.2070  137.3300 C   0  0  0  0  0  2  0  0  0  0  0  0
  194.1100  170.0230  136.4300 C   0  0  0  0  0  2  0  0  0  0  0  0
  192.6850  169.9130  136.9360 C   0  0  0  0  0  2  0  0  0  0  0  0
  191.1070  171.6380  136.8200 C   0  0  0  0  0  2  0  0  0  0  0  0
  191.7850  170.6010  136.0290 N   0  0  0  0  0  0  0  0  0  0  0  0
  190.4270  170.3800  136.5510 C   0  0  0  0  0  2  0  0  0  0  0  0
  196.5820  169.8060  139.1840 C   0  0  0  0  0  2  0  0  0  0  0  0
  197.2920  171.1050  138.8520 C   0  0  0  0  0  2  0  0  0  0  0  0
  196.3570  172.1370  138.7790 O   0  0  0  0  0  0  0  0  0  0  0  0
  196.6860  172.8230  137.6100 C   0  0  0  0  0  1  0  0  0  0  0  0
  1 24  2  0  0  0  0
  2  3  1  0  0  0  0
  3 23  1  0  0  0  0
  6  5  1  1  0  0  0
  6 18  1  0  0  0  0
  7 21  1  0  0  0  0
  7 15  1  0  0  0  0
  9 24  1  0  0  0  0
  9  5  1  1  0  0  0
 10 11  1  0  0  0  0
 10 53  1  1  0  0  0
 11 17  1  1  0  0  0
 13 27  1  0  0  0  0
 14 13  1  1  0  0  0
 14 12  1  0  0  0  0
 14  9  1  0  0  0  0
 15 54  1  6  0  0  0
 16 22  2  0  0  0  0
 16 19  1  0  0  0  0
 18 35  1  0  0  0  0
 19  2  1  0  0  0  0
 20  4  1  0  0  0  0
 20 29  2  0  0  0  0
 21  8  1  0  0  0  0
 22 57  1  0  0  0  0
 25 28  1  1  0  0  0
 25 15  1  0  0  0  0
 25 30  1  0  0  0  0
 26 34  1  0  0  0  0
 26  8  1  0  0  0  0
 27  1  1  0  0  0  0
 28 32  1  0  0  0  0
 29 31  2  0  0  0  0
 30 18  2  0  0  0  0
 31 10  1  0  0  0  0
 32 12  1  6  0  0  0
 32  6  1  0  0  0  0
 33 17  1  0  0  0  0
 33 23  1  0  0  0  0
 34 58  1  6  0  0  0
 34  4  1  0  0  0  0
 35 16  1  0  0  0  0
 37 38  1  0  0  0  0
 37 47  1  0  0  0  0
 38 36  1  1  0  0  0
 38 41  1  0  0  0  0
 39 42  1  0  0  0  0
 39 44  1  1  0  0  0
 41 40  1  6  0  0  0
 41 39  1  0  0  0  0
 43 42  1  0  0  0  0
 43 45  1  1  0  0  0
 46 43  1  0  0  0  0
 47  1  1  6  0  0  0
 47 46  1  0  0  0  0
 48 51  1  6  0  0  0
 48 50  1  0  0  0  0
 48 49  1  0  0  0  0
 50 51  1  6  0  0  0
 50 11  1  0  0  0  0
 50 49  1  0  0  0  0
 53 52  1  0  0  0  0
 55 54  1  0  0  0  0
 57 56  2  0  0  0  0
 59 58  1  0  0  0  0
 60 61  1  6  0  0  0
 60 67  1  0  0  0  0
 60 59  1  0  0  0  0
 62 63  1  0  0  0  0
 62 61  1  0  0  0  0
 65 66  1  0  0  0  0
 65 64  1  0  0  0  0
 65 63  1  0  0  0  0
 66 64  1  0  0  0  0
 68 67  1  0  0  0  0
 69 68  1  0  0  0  0
 70 69  1  0  0  0  0
M  END
>  <MODEL>
3

>  <REMARK>
 VINA RESULT:      -0.6      2.915     13.153
  Name = 
  15 active torsions:
  status: ('A' for Active; 'I' for Inactive)
    1  A    between atoms: C_1  and  C_6
    2  A    between atoms: C_1  and  C_18
    3  A    between atoms: O_2  and  C_44
    4  A    between atoms: C_5  and  C_34
    5  A    between atoms: C_6  and  C_11
    6  A    between atoms: C_7  and  C_70
    7  A    between atoms: C_11  and  N_57
    8  A    between atoms: C_18  and  C_54
    9  A    between atoms: C_18  and  C_58
   10  A    between atoms: C_24  and  O_36
   11  A    between atoms: C_25  and  C_50
   12  A    between atoms: O_31  and  C_54
   13  A    between atoms: O_31  and  C_65
   14  A    between atoms: C_38  and  C_43
   15  A    between atoms: C_44  and  C_58
                            x       y       z     vdW  Elec       q    Type
                         _______ _______ _______ _____ _____    ______ ____

>  <TORSDO>
F 15

$$$$
=
 OpenBabel11042413513D

 70 77  0  0  1  0  0  0  0  0999 V2000
  183.3120  178.3220  140.5380 C   0  0  0  0  0  0  0  0  0  0  0  0
  190.1010  176.2950  146.2220 C   0  0  0  0  0  2  0  0  0  0  0  0
  191.0580  175.1210  146.2250 C   0  0  0  0  0  2  0  0  0  0  0  0
  194.5340  170.6240  142.5590 C   0  0  0  0  0  2  0  0  0  0  0  0
  186.7640  178.0650  141.7150 C   0  0  0  0  0  2  0  0  0  0  0  0
  187.8230  177.0130  141.4100 C   0  0  1  0  0  3  0  0  0  0  0  0
  190.4630  172.6020  140.7190 C   0  0  0  0  0  2  0  0  0  0  0  0
  191.7100  170.9440  141.9360 O   0  0  0  0  0  0  0  0  0  0  0  0
  185.6840  178.1100  140.6280 C   0  0  1  0  0  3  0  0  0  0  0  0
  195.9130  173.8160  144.7470 C   0  0  1  0  0  3  0  0  0  0  0  0
  195.0860  175.0490  145.1520 C   0  0  1  0  0  3  0  0  0  0  0  0
  185.9420  175.5460  140.4490 C   0  0  0  0  0  2  0  0  0  0  0  0
  184.2930  176.6950  138.9600 C   0  0  0  0  0  2  0  0  0  0  0  0
  185.6310  176.8520  139.7090 C   0  0  1  0  0  3  0  0  0  0  0  0
  190.4380  173.6560  141.8220 C   0  0  2  0  0  3  0  0  0  0  0  0
  188.1570  177.0870  144.8990 C   0  0  0  0  0  0  0  0  0  0  0  0
  194.7090  175.0030  146.5060 O   0  0  0  0  0  0  0  0  0  0  0  0
  188.9340  176.9470  142.4250 C   0  0  0  0  0  0  0  0  0  0  0  0
  188.8290  175.8920  145.5080 C   0  0  0  0  0  2  0  0  0  0  0  0
  194.9620  171.8790  141.8800 C   0  0  0  0  0  3  0  0  0  0  0  0
  190.4960  171.1930  141.2970 C   0  0  0  0  0  2  0  0  0  0  0  0
  186.8530  177.3120  145.0480 C   0  0  0  0  0  3  0  0  0  0  0  0
  192.4040  175.5710  146.7420 C   0  0  0  0  0  2  0  0  0  0  0  0
  184.3970  178.3780  141.2330 N   0  0  0  0  0  0  0  0  0  0  0  0
  189.6390  174.8930  141.3930 C   0  0  1  0  0  3  0  0  0  0  0  0
  192.4960  170.2900  140.9840 C   0  0  0  0  0  2  0  0  0  0  0  0
  183.3780  177.9130  139.0950 C   0  0  0  0  0  2  0  0  0  0  0  0
  188.1700  174.5130  141.0810 C   0  0  0  0  0  2  0  0  0  0  0  0
  195.5450  172.8150  142.5690 C   0  0  0  0  0  0  0  0  0  0  0  0
  189.7280  175.9300  142.4080 N   0  0  0  0  0  0  0  0  0  0  0  0
  196.1160  173.7570  143.2690 C   0  0  0  0  0  3  0  0  0  0  0  0
  187.1620  175.6330  141.3710 C   0  0  1  0  0  3  0  0  0  0  0  0
  193.4190  174.4710  146.5110 C   0  0  0  0  0  2  0  0  0  0  0  0
  193.7440  169.6840  141.6400 C   0  0  1  0  0  3  0  0  0  0  0  0
  189.0860  178.1320  143.7710 S   0  0  0  0  0  0  0  0  0  0  0  0
  179.7090  180.6830  141.2560 O   0  0  0  0  0  1  0  0  0  0  0  0
  180.9290  178.9110  140.1370 C   0  0  0  0  0  2  0  0  0  0  0  0
  179.5910  179.4050  140.7060 C   0  0  1  0  0  3  0  0  0  0  0  0
  179.6270  178.0530  142.9220 C   0  0  1  0  0  3  0  0  0  0  0  0
  178.4590  177.3040  140.9620 O   0  0  0  0  0  1  0  0  0  0  0  0
  178.8530  178.4490  141.6570 C   0  0  2  0  0  3  0  0  0  0  0  0
  180.2590  179.1580  143.5050 O   0  0  0  0  0  0  0  0  0  0  0  0
  181.6290  178.9160  143.3510 C   0  0  2  0  0  3  0  0  0  0  0  0
  178.6870  177.4190  143.9290 C   0  0  0  0  0  1  0  0  0  0  0  0
  182.3820  179.4740  144.5420 C   0  0  0  0  0  1  0  0  0  0  0  0
  182.0940  179.5230  142.1780 O   0  0  0  0  0  0  0  0  0  0  0  0
  181.9830  178.5390  141.1870 C   0  0  2  0  0  3  0  0  0  0  0  0
  194.4780  177.2680  144.3940 C   0  0  2  0  0  3  0  0  0  0  0  0
  195.2920  177.5630  145.5780 N   0  0  0  0  0  2  0  0  0  0  0  0
  195.6060  176.4350  144.6920 C   0  0  1  0  0  0  0  0  0  0  0  0
  195.3100  176.7600  143.2940 N   0  0  0  0  0  2  0  0  0  0  0  0
  197.1640  172.5620  146.0710 C   0  0  0  0  0  1  0  0  0  0  0  0
  197.1410  173.7910  145.4120 O   0  0  0  0  0  0  0  0  0  0  0  0
  191.8590  174.0070  142.2790 C   0  0  0  0  0  2  0  0  0  0  0  0
  192.7520  174.4240  141.1180 C   0  0  0  0  0  1  0  0  0  0  0  0
  185.6950  176.8520  147.1140 C   0  0  0  0  0  2  0  0  0  0  0  0
  185.9910  176.4720  145.8820 C   0  0  0  0  0  3  0  0  0  0  0  0
  194.5610  168.9270  140.7700 O   0  0  0  0  0  0  0  0  0  0  0  0
  194.2980  169.2970  139.4400 C   0  0  0  0  0  2  0  0  0  0  0  0
  195.4690  170.0690  138.8560 C   0  0  2  0  0  3  0  0  0  0  0  0
  195.1650  170.3450  137.3930 C   0  0  0  0  0  2  0  0  0  0  0  0
  194.7240  171.7820  137.1860 C   0  0  0  0  0  2  0  0  0  0  0  0
  195.9520  172.6670  137.1020 C   0  0  0  0  0  2  0  0  0  0  0  0
  196.9240  174.7000  137.7360 C   0  0  0  0  0  2  0  0  0  0  0  0
  195.6430  173.9880  137.6190 N   0  0  0  0  0  0  0  0  0  0  0  0
  196.3290  174.0930  138.9160 C   0  0  0  0  0  2  0  0  0  0  0  0
  196.7400  169.2460  138.9910 C   0  0  0  0  0  2  0  0  0  0  0  0
  197.9380  170.1400  139.2540 C   0  0  0  0  0  2  0  0  0  0  0  0
  197.7270  170.8620  140.4280 O   0  0  0  0  0  0  0  0  0  0  0  0
  197.9320  169.9350  141.4490 C   0  0  0  0  0  1  0  0  0  0  0  0
  1 24  2  0  0  0  0
  2  3  1  0  0  0  0
  3 23  1  0  0  0  0
  6  5  1  1  0  0  0
  6 18  1  0  0  0  0
  7 21  1  0  0  0  0
  7 15  1  0  0  0  0
  9 24  1  0  0  0  0
  9  5  1  1  0  0  0
 10 11  1  0  0  0  0
 10 53  1  1  0  0  0
 11 17  1  1  0  0  0
 13 27  1  0  0  0  0
 14 13  1  1  0  0  0
 14 12  1  0  0  0  0
 14  9  1  0  0  0  0
 15 54  1  6  0  0  0
 16 22  2  0  0  0  0
 16 19  1  0  0  0  0
 17 33  1  0  0  0  0
 18 35  1  0  0  0  0
 19  2  1  0  0  0  0
 20  4  1  0  0  0  0
 20 29  2  0  0  0  0
 21  8  1  0  0  0  0
 22 57  1  0  0  0  0
 25 28  1  1  0  0  0
 25 15  1  0  0  0  0
 25 30  1  0  0  0  0
 26 34  1  0  0  0  0
 26  8  1  0  0  0  0
 27  1  1  0  0  0  0
 28 32  1  0  0  0  0
 29 31  2  0  0  0  0
 30 18  2  0  0  0  0
 31 10  1  0  0  0  0
 32 12  1  6  0  0  0
 32  6  1  0  0  0  0
 33 23  1  0  0  0  0
 34 58  1  6  0  0  0
 34  4  1  0  0  0  0
 35 16  1  0  0  0  0
 37 38  1  0  0  0  0
 37 47  1  0  0  0  0
 38 36  1  1  0  0  0
 38 41  1  0  0  0  0
 39 42  1  0  0  0  0
 39 44  1  1  0  0  0
 41 40  1  6  0  0  0
 41 39  1  0  0  0  0
 43 42  1  0  0  0  0
 43 45  1  1  0  0  0
 46 43  1  0  0  0  0
 47  1  1  6  0  0  0
 47 46  1  0  0  0  0
 48 51  1  6  0  0  0
 48 50  1  0  0  0  0
 48 49  1  0  0  0  0
 50 51  1  6  0  0  0
 50 11  1  0  0  0  0
 50 49  1  0  0  0  0
 53 52  1  0  0  0  0
 55 54  1  0  0  0  0
 57 56  2  0  0  0  0
 59 58  1  0  0  0  0
 60 61  1  6  0  0  0
 60 67  1  0  0  0  0
 60 59  1  0  0  0  0
 62 61  1  0  0  0  0
 63 62  1  0  0  0  0
 63 65  1  0  0  0  0
 64 66  1  0  0  0  0
 65 64  1  0  0  0  0
 65 66  1  0  0  0  0
 67 68  1  0  0  0  0
 68 69  1  0  0  0  0
 69 70  1  0  0  0  0
M  END
>  <MODEL>
4

>  <REMARK>
 VINA RESULT:      -0.1      2.969     13.406
  Name = 
  15 active torsions:
  status: ('A' for Active; 'I' for Inactive)
    1  A    between atoms: C_1  and  C_6
    2  A    between atoms: C_1  and  C_18
    3  A    between atoms: O_2  and  C_44
    4  A    between atoms: C_5  and  C_34
    5  A    between atoms: C_6  and  C_11
    6  A    between atoms: C_7  and  C_70
    7  A    between atoms: C_11  and  N_57
    8  A    between atoms: C_18  and  C_54
    9  A    between atoms: C_18  and  C_58
   10  A    between atoms: C_24  and  O_36
   11  A    between atoms: C_25  and  C_50
   12  A    between atoms: O_31  and  C_54
   13  A    between atoms: O_31  and  C_65
   14  A    between atoms: C_38  and  C_43
   15  A    between atoms: C_44  and  C_58
                            x       y       z     vdW  Elec       q    Type
                         _______ _______ _______ _____ _____    ______ ____

>  <TORSDO>
F 15

$$$$
=
 OpenBabel11042413513D

 70 77  0  0  1  0  0  0  0  0999 V2000
  183.3790  178.4400  140.7350 C   0  0  0  0  0  0  0  0  0  0  0  0
  190.2460  176.5940  146.3870 C   0  0  0  0  0  2  0  0  0  0  0  0
  191.2010  175.4180  146.4170 C   0  0  0  0  0  2  0  0  0  0  0  0
  194.6140  170.7890  142.8580 C   0  0  0  0  0  2  0  0  0  0  0  0
  186.8480  178.2150  141.8700 C   0  0  0  0  0  2  0  0  0  0  0  0
  187.9000  177.1500  141.5860 C   0  0  1  0  0  3  0  0  0  0  0  0
  190.5210  172.7120  141.0100 C   0  0  0  0  0  2  0  0  0  0  0  0
  191.7830  171.0930  142.2650 O   0  0  0  0  0  0  0  0  0  0  0  0
  185.7520  178.2260  140.7990 C   0  0  1  0  0  3  0  0  0  0  0  0
  196.0310  174.0500  144.9150 C   0  0  1  0  0  3  0  0  0  0  0  0
  195.2130  175.2990  145.2890 C   0  0  1  0  0  3  0  0  0  0  0  0
  186.0020  175.6560  140.7040 C   0  0  0  0  0  2  0  0  0  0  0  0
  184.3350  176.7570  139.2010 C   0  0  0  0  0  2  0  0  0  0  0  0
  185.6840  176.9370  139.9250 C   0  0  1  0  0  3  0  0  0  0  0  0
  190.5140  173.8040  142.0770 C   0  0  2  0  0  3  0  0  0  0  0  0
  188.2850  177.3450  145.0660 C   0  0  0  0  0  0  0  0  0  0  0  0
  194.8560  175.3010  146.6490 O   0  0  0  0  0  0  0  0  0  0  0  0
  189.0260  177.1170  142.5870 C   0  0  0  0  0  0  0  0  0  0  0  0
  188.9630  176.1690  145.7060 C   0  0  0  0  0  2  0  0  0  0  0  0
  195.0350  172.0180  142.1300 C   0  0  0  0  0  3  0  0  0  0  0  0
  190.5600  171.3240  141.6360 C   0  0  0  0  0  2  0  0  0  0  0  0
  186.9840  177.5770  145.2260 C   0  0  0  0  0  3  0  0  0  0  0  0
  192.5550  175.8820  146.8980 C   0  0  0  0  0  2  0  0  0  0  0  0
  184.4750  178.5180  141.4130 N   0  0  0  0  0  0  0  0  0  0  0  0
  189.7110  175.0270  141.6160 C   0  0  1  0  0  3  0  0  0  0  0  0
  192.5530  170.4060  141.3260 C   0  0  0  0  0  2  0  0  0  0  0  0
  183.4240  177.9810  139.3070 C   0  0  0  0  0  2  0  0  0  0  0  0
  188.2370  174.6400  141.3390 C   0  0  0  0  0  2  0  0  0  0  0  0
  195.6300  172.9760  142.7780 C   0  0  0  0  0  0  0  0  0  0  0  0
  189.8170  176.0990  142.5940 N   0  0  0  0  0  0  0  0  0  0  0  0
  196.2130  173.9400  143.4370 C   0  0  0  0  0  3  0  0  0  0  0  0
  187.2360  175.7720  141.6050 C   0  0  1  0  0  3  0  0  0  0  0  0
  193.5640  174.7720  146.6910 C   0  0  0  0  0  2  0  0  0  0  0  0
  193.8090  169.8200  141.9840 C   0  0  1  0  0  3  0  0  0  0  0  0
  189.2000  178.3470  143.8890 S   0  0  0  0  0  0  0  0  0  0  0  0
  179.8400  180.8810  141.5020 O   0  0  0  0  0  1  0  0  0  0  0  0
  181.0090  179.0910  140.3570 C   0  0  0  0  0  2  0  0  0  0  0  0
  179.6870  179.6120  140.9400 C   0  0  1  0  0  3  0  0  0  0  0  0
  179.7050  178.2360  143.1420 C   0  0  1  0  0  3  0  0  0  0  0  0
  178.5060  177.5370  141.1820 O   0  0  0  0  0  1  0  0  0  0  0  0
  178.9320  178.6640  141.8870 C   0  0  2  0  0  3  0  0  0  0  0  0
  180.3670  179.3190  143.7320 O   0  0  0  0  0  0  0  0  0  0  0  0
  181.7300  179.0450  143.5650 C   0  0  2  0  0  3  0  0  0  0  0  0
  178.7560  177.6150  144.1490 C   0  0  0  0  0  1  0  0  0  0  0  0
  182.5040  179.5720  144.7570 C   0  0  0  0  0  1  0  0  0  0  0  0
  182.2020  179.6540  142.3960 O   0  0  0  0  0  0  0  0  0  0  0  0
  182.0600  178.6830  141.3960 C   0  0  2  0  0  3  0  0  0  0  0  0
  194.6090  177.4250  144.2970 C   0  0  2  0  0  3  0  0  0  0  0  0
  195.2840  177.8450  145.5300 N   0  0  0  0  0  2  0  0  0  0  0  0
  195.7290  176.6670  144.7740 C   0  0  1  0  0  0  0  0  0  0  0  0
  195.5690  176.8710  143.3310 N   0  0  0  0  0  2  0  0  0  0  0  0
  197.2020  172.9710  146.4480 C   0  0  0  0  0  1  0  0  0  0  0  0
  197.2690  174.0460  145.5630 O   0  0  0  0  0  0  0  0  0  0  0  0
  191.9430  174.1670  142.5000 C   0  0  0  0  0  2  0  0  0  0  0  0
  192.2540  173.7220  143.9220 C   0  0  0  0  0  1  0  0  0  0  0  0
  184.8820  176.5160  145.7520 C   0  0  0  0  0  2  0  0  0  0  0  0
  186.1320  176.7690  146.1010 C   0  0  0  0  0  3  0  0  0  0  0  0
  194.6120  169.0310  141.1290 O   0  0  0  0  0  0  0  0  0  0  0  0
  195.5710  168.3410  141.8910 C   0  0  0  0  0  2  0  0  0  0  0  0
  196.9430  168.4490  141.2510 C   0  0  2  0  0  3  0  0  0  0  0  0
  197.8610  169.1680  142.2270 C   0  0  0  0  0  2  0  0  0  0  0  0
  197.9340  168.4340  143.5520 C   0  0  0  0  0  2  0  0  0  0  0  0
  197.5100  169.3760  144.6610 C   0  0  0  0  0  2  0  0  0  0  0  0
  195.8380  169.7490  146.2570 C   0  0  0  0  0  2  0  0  0  0  0  0
  196.5940  168.6980  145.5610 N   0  0  0  0  0  0  0  0  0  0  0  0
  196.9670  169.1160  146.9200 C   0  0  0  0  0  2  0  0  0  0  0  0
  196.8390  169.2230  139.9470 C   0  0  0  0  0  2  0  0  0  0  0  0
  197.4840  170.5910  140.0760 C   0  0  0  0  0  2  0  0  0  0  0  0
  197.9410  171.0070  138.8260 O   0  0  0  0  0  0  0  0  0  0  0  0
  196.9290  170.6350  137.9430 C   0  0  0  0  0  1  0  0  0  0  0  0
  1 24  2  0  0  0  0
  2  3  1  0  0  0  0
  3 23  1  0  0  0  0
  6 32  1  0  0  0  0
  6  5  1  1  0  0  0
  6 18  1  0  0  0  0
  7 21  1  0  0  0  0
  7 15  1  0  0  0  0
  9 24  1  0  0  0  0
  9  5  1  1  0  0  0
 10 11  1  0  0  0  0
 10 53  1  1  0  0  0
 11 17  1  1  0  0  0
 13 27  1  0  0  0  0
 14 13  1  1  0  0  0
 14 12  1  0  0  0  0
 14  9  1  0  0  0  0
 15 54  1  6  0  0  0
 16 22  2  0  0  0  0
 16 19  1  0  0  0  0
 17 33  1  0  0  0  0
 18 30  2  0  0  0  0
 18 35  1  0  0  0  0
 19  2  1  0  0  0  0
 20 29  2  0  0  0  0
 20  4  1  0  0  0  0
 21  8  1  0  0  0  0
 22 57  1  0  0  0  0
 25 28  1  1  0  0  0
 25 15  1  0  0  0  0
 25 30  1  0  0  0  0
 26 34  1  0  0  0  0
 26  8  1  0  0  0  0
 27  1  1  0  0  0  0
 28 32  1  0  0  0  0
 29 31  2  0  0  0  0
 31 10  1  0  0  0  0
 32 12  1  6  0  0  0
 33 23  1  0  0  0  0
 34 58  1  6  0  0  0
 34  4  1  0  0  0  0
 35 16  1  0  0  0  0
 37 38  1  0  0  0  0
 37 47  1  0  0  0  0
 38 36  1  1  0  0  0
 38 41  1  0  0  0  0
 39 42  1  0  0  0  0
 39 44  1  1  0  0  0
 41 40  1  6  0  0  0
 41 39  1  0  0  0  0
 43 42  1  0  0  0  0
 43 45  1  1  0  0  0
 46 43  1  0  0  0  0
 47  1  1  6  0  0  0
 47 46  1  0  0  0  0
 48 51  1  6  0  0  0
 48 50  1  0  0  0  0
 48 49  1  0  0  0  0
 50 51  1  6  0  0  0
 50 11  1  0  0  0  0
 50 49  1  0  0  0  0
 53 52  1  0  0  0  0
 54 55  1  0  0  0  0
 56 57  2  0  0  0  0
 58 59  1  0  0  0  0
 60 67  1  6  0  0  0
 60 59  1  0  0  0  0
 60 61  1  0  0  0  0
 61 62  1  0  0  0  0
 62 63  1  0  0  0  0
 63 65  1  0  0  0  0
 64 66  1  0  0  0  0
 65 64  1  0  0  0  0
 65 66  1  0  0  0  0
 67 68  1  0  0  0  0
 69 68  1  0  0  0  0
 70 69  1  0  0  0  0
M  END
>  <MODEL>
5

>  <REMARK>
 VINA RESULT:       0.1      3.587     13.938
  Name = 
  15 active torsions:
  status: ('A' for Active; 'I' for Inactive)
    1  A    between atoms: C_1  and  C_6
    2  A    between atoms: C_1  and  C_18
    3  A    between atoms: O_2  and  C_44
    4  A    between atoms: C_5  and  C_34
    5  A    between atoms: C_6  and  C_11
    6  A    between atoms: C_7  and  C_70
    7  A    between atoms: C_11  and  N_57
    8  A    between atoms: C_18  and  C_54
    9  A    between atoms: C_18  and  C_58
   10  A    between atoms: C_24  and  O_36
   11  A    between atoms: C_25  and  C_50
   12  A    between atoms: O_31  and  C_54
   13  A    between atoms: O_31  and  C_65
   14  A    between atoms: C_38  and  C_43
   15  A    between atoms: C_44  and  C_58
                            x       y       z     vdW  Elec       q    Type
                         _______ _______ _______ _____ _____    ______ ____

>  <TORSDO>
F 15

$$$$
