=
 OpenBabel11042414333D

 46 48  0  0  1  0  0  0  0  0999 V2000
  195.1530  175.9200  145.1210 C   0  0  0  0  0  3  0  0  0  0  0  0
  196.1480  175.1000  144.7610 C   0  0  0  0  0  0  0  0  0  0  0  0
  196.7680  175.2240  143.5100 O   0  0  0  0  0  0  0  0  0  0  0  0
  196.1980  176.6330  141.6370 C   0  0  0  0  0  1  0  0  0  0  0  0
  197.0430  176.4740  142.8890 C   0  0  0  0  0  2  0  0  0  0  0  0
  196.6310  174.0250  145.6860 C   0  0  0  0  0  2  0  0  0  0  0  0
  196.7350  172.6940  144.9580 C   0  0  0  0  0  2  0  0  0  0  0  0
  195.8350  170.8310  146.1470 O   0  0  0  0  0  1  0  0  0  0  0  0
  195.5110  171.8320  145.2280 C   0  0  2  0  0  3  0  0  0  0  0  0
  195.0580  171.2280  143.9870 N   0  0  0  0  0  2  0  0  0  0  0  0
  193.7940  171.8570  143.6300 C   0  0  1  0  0  3  0  0  0  0  0  0
  193.2170  172.5760  144.8400 C   0  0  0  0  0  1  0  0  0  0  0  0
  192.8560  173.8530  142.3160 C   0  0  0  0  0  2  0  0  0  0  0  0
  194.2430  171.9910  141.1470 C   0  0  0  0  0  2  0  0  0  0  0  0
  194.9050  172.8380  140.0590 C   0  0  0  0  0  2  0  0  0  0  0  0
  191.9820  173.8190  141.0470 C   0  0  1  0  0  3  0  0  0  0  0  0
  193.9730  172.7870  142.4250 C   0  0  2  0  0  3  0  0  0  0  0  0
  194.2280  174.1910  139.8310 C   0  0  0  0  0  2  0  0  0  0  0  0
  192.7100  174.0710  139.7130 C   0  0  0  0  0  2  0  0  0  0  0  0
  191.1170  172.5670  140.9870 C   0  0  0  0  0  2  0  0  0  0  0  0
  189.2830  171.9940  142.4440 O   0  0  0  0  0  1  0  0  0  0  0  0
  189.6850  172.8620  141.4230 C   0  0  2  0  0  3  0  0  0  0  0  0
  188.8750  173.9710  139.7180 O   0  0  0  0  0  1  0  0  0  0  0  0
  188.7940  172.8060  140.3360 O   0  0  0  0  0  0  0  0  0  0  0  0
  194.4600  175.8370  146.4430 C   0  0  0  0  0  2  0  0  0  0  0  0
  191.9120  175.3050  147.2950 S   0  0  0  0  0  0  0  0  0  0  0  0
  192.6360  176.3480  144.8550 C   0  0  0  0  0  2  0  0  0  0  0  0
  193.0380  176.3520  146.3200 C   0  0  2  0  0  3  0  0  0  0  0  0
  190.0740  176.4660  144.9130 C   0  0  2  0  0  3  0  0  0  0  0  0
  190.7050  176.6560  147.4160 C   0  0  0  0  0  2  0  0  0  0  0  0
  191.3890  177.1960  144.5990 C   0  0  0  0  0  2  0  0  0  0  0  0
  189.5980  176.5250  146.3750 C   0  0  1  0  0  3  0  0  0  0  0  0
  190.0090  175.0740  144.3680 C   0  0  0  0  0  3  0  0  0  0  0  0
  189.3630  174.2150  144.9430 O   0  0  0  0  0  0  0  0  0  0  0  0
  188.6630  177.6260  146.5430 N   0  0  0  0  0  2  0  0  0  0  0  0
  187.3180  177.0790  146.4470 C   0  0  0  0  0  2  0  0  0  0  0  0
  186.4940  177.8990  145.4500 C   0  0  1  0  0  3  0  0  0  0  0  0
  186.9830  177.6220  144.0120 C   0  0  0  0  0  3  0  0  0  0  0  0
  187.1180  175.9780  142.1180 C   0  0  0  0  0  2  0  0  0  0  0  0
  186.4770  178.6840  143.0260 C   0  0  0  0  0  2  0  0  0  0  0  0
  187.0450  178.4330  141.6330 C   0  0  0  0  0  2  0  0  0  0  0  0
  186.6350  177.0480  141.1420 C   0  0  0  0  0  2  0  0  0  0  0  0
  186.5480  176.2420  143.5080 C   0  0  0  0  0  2  0  0  0  0  0  0
  184.2270  178.8220  146.0110 C   0  0  0  0  0  1  0  0  0  0  0  0
  184.9960  177.5780  145.6090 C   0  0  2  0  0  3  0  0  0  0  0  0
  184.7820  176.6020  146.5860 O   0  0  0  0  0  1  0  0  0  0  0  0
  1 25  1  0  0  0  0
  2  1  2  0  0  0  0
  2  6  1  0  0  0  0
  3  2  1  0  0  0  0
  4  5  1  0  0  0  0
  5  3  1  0  0  0  0
  7  9  1  0  0  0  0
  7  6  1  0  0  0  0
  9  8  1  1  0  0  0
 10  9  1  0  0  0  0
 11 10  1  0  0  0  0
 11 12  1  1  0  0  0
 13 17  1  0  0  0  0
 14 17  1  0  0  0  0
 15 14  1  0  0  0  0
 16 20  1  6  0  0  0
 16 13  1  0  0  0  0
 17 11  1  1  0  0  0
 18 15  1  0  0  0  0
 19 18  1  0  0  0  0
 19 16  1  0  0  0  0
 20 22  1  0  0  0  0
 22 21  1  1  0  0  0
 23 24  1  0  0  0  0
 24 22  1  0  0  0  0
 26 30  1  0  0  0  0
 27 28  1  0  0  0  0
 28 25  1  6  0  0  0
 28 26  1  0  0  0  0
 29 33  1  1  0  0  0
 29 32  1  0  0  0  0
 31 27  1  0  0  0  0
 31 29  1  0  0  0  0
 32 35  1  6  0  0  0
 32 30  1  0  0  0  0
 33 34  2  0  0  0  0
 36 35  1  0  0  0  0
 37 45  1  0  0  0  0
 37 36  1  1  0  0  0
 38 37  1  0  0  0  0
 39 43  1  0  0  0  0
 40 38  1  0  0  0  0
 41 40  1  0  0  0  0
 42 41  1  0  0  0  0
 42 39  1  0  0  0  0
 43 38  1  0  0  0  0
 45 44  1  1  0  0  0
 45 46  1  0  0  0  0
M  END
>  <MODEL>
1

>  <REMARK>
 VINA RESULT:      -6.2      0.000      0.000
  Name = 
  19 active torsions:
  status: ('A' for Active; 'I' for Inactive)
    1  A    between atoms: O_4  and  C_14
    2  A    between atoms: O_4  and  C_19
    3  A    between atoms: C_6  and  C_31
    4  A    between atoms: C_6  and  C_41
    5  A    between atoms: C_9  and  C_33
    6  A    between atoms: C_13  and  C_42
    7  A    between atoms: C_16  and  O_32
    8  A    between atoms: C_16  and  C_44
    9  A    between atoms: C_17  and  C_42
   10  A    between atoms: C_18  and  C_24
   11  A    between atoms: C_19  and  C_31
   12  A    between atoms: C_20  and  C_44
   13  A    between atoms: N_21  and  C_29
   14  A    between atoms: N_21  and  C_41
   15  A    between atoms: C_22  and  C_29
   16  A    between atoms: C_23  and  C_33
   17  A    between atoms: N_27  and  C_39
   18  A    between atoms: N_27  and  C_43
   19  A    between atoms: C_33  and  C_43
                            x       y       z     vdW  Elec       q    Type
                         _______ _______ _______ _____ _____    ______ ____

>  <TORSDO>
F 19

$$$$
=
 OpenBabel11042414333D

 46 48  0  0  1  0  0  0  0  0999 V2000
  195.0090  175.9890  145.1970 C   0  0  0  0  0  3  0  0  0  0  0  0
  196.0620  175.2240  144.8830 C   0  0  0  0  0  0  0  0  0  0  0  0
  196.7330  175.3850  143.6640 O   0  0  0  0  0  0  0  0  0  0  0  0
  196.7170  176.4930  141.5210 C   0  0  0  0  0  1  0  0  0  0  0  0
  196.9040  176.6430  143.0210 C   0  0  0  0  0  2  0  0  0  0  0  0
  196.5560  174.1720  145.8280 C   0  0  0  0  0  2  0  0  0  0  0  0
  197.2330  173.0410  145.0710 C   0  0  0  0  0  2  0  0  0  0  0  0
  197.0380  170.7110  144.5950 O   0  0  0  0  0  1  0  0  0  0  0  0
  196.7140  171.6900  145.5370 C   0  0  2  0  0  3  0  0  0  0  0  0
  195.2710  171.7530  145.6990 N   0  0  0  0  0  2  0  0  0  0  0  0
  194.6710  171.2460  144.4720 C   0  0  1  0  0  3  0  0  0  0  0  0
  193.7570  170.0730  144.7930 C   0  0  0  0  0  1  0  0  0  0  0  0
  192.4050  172.2320  143.7810 C   0  0  0  0  0  2  0  0  0  0  0  0
  194.5310  172.5650  142.3220 C   0  0  0  0  0  2  0  0  0  0  0  0
  194.2040  173.9410  141.7400 C   0  0  0  0  0  2  0  0  0  0  0  0
  191.6680  172.0520  142.4390 C   0  0  1  0  0  3  0  0  0  0  0  0
  193.9450  172.3680  143.7210 C   0  0  2  0  0  3  0  0  0  0  0  0
  192.7320  174.3350  141.8720 C   0  0  0  0  0  2  0  0  0  0  0  0
  191.7860  173.2170  141.4370 C   0  0  0  0  0  2  0  0  0  0  0  0
  191.9950  170.7160  141.7870 C   0  0  0  0  0  2  0  0  0  0  0  0
  190.8790  169.9020  139.8100 O   0  0  0  0  0  1  0  0  0  0  0  0
  191.8570  170.7910  140.2700 C   0  0  2  0  0  3  0  0  0  0  0  0
  193.1870  169.2550  139.4560 O   0  0  0  0  0  1  0  0  0  0  0  0
  193.0880  170.5600  139.6280 O   0  0  0  0  0  0  0  0  0  0  0  0
  194.2600  175.8650  146.4840 C   0  0  0  0  0  2  0  0  0  0  0  0
  191.7030  175.2830  147.2750 S   0  0  0  0  0  0  0  0  0  0  0  0
  192.4720  176.2710  144.8260 C   0  0  0  0  0  2  0  0  0  0  0  0
  192.8280  176.3320  146.3020 C   0  0  2  0  0  3  0  0  0  0  0  0
  189.9070  176.3140  144.8030 C   0  0  2  0  0  3  0  0  0  0  0  0
  190.4530  176.6010  147.3160 C   0  0  0  0  0  2  0  0  0  0  0  0
  191.2100  177.0730  144.5060 C   0  0  0  0  0  2  0  0  0  0  0  0
  189.3830  176.4040  146.2460 C   0  0  1  0  0  3  0  0  0  0  0  0
  189.8990  174.9040  144.3010 C   0  0  0  0  0  3  0  0  0  0  0  0
  189.2950  174.6140  143.2830 O   0  0  0  0  0  0  0  0  0  0  0  0
  188.4120  177.4810  146.3510 N   0  0  0  0  0  2  0  0  0  0  0  0
  187.2190  177.0690  145.6280 C   0  0  0  0  0  2  0  0  0  0  0  0
  186.2920  178.2700  145.4280 C   0  0  1  0  0  3  0  0  0  0  0  0
  186.0620  178.5130  143.9210 C   0  0  0  0  0  3  0  0  0  0  0  0
  186.8570  178.0790  141.5790 C   0  0  0  0  0  2  0  0  0  0  0  0
  184.6440  178.1150  143.4910 C   0  0  0  0  0  2  0  0  0  0  0  0
  184.4200  178.4450  142.0190 C   0  0  0  0  0  2  0  0  0  0  0  0
  185.4390  177.7060  141.1550 C   0  0  0  0  0  2  0  0  0  0  0  0
  187.0680  177.7490  143.0520 C   0  0  0  0  0  2  0  0  0  0  0  0
  184.9220  178.8650  147.4480 C   0  0  0  0  0  1  0  0  0  0  0  0
  184.9620  178.0440  146.1730 C   0  0  2  0  0  3  0  0  0  0  0  0
  184.7910  176.7010  146.5180 O   0  0  0  0  0  1  0  0  0  0  0  0
  1 25  1  0  0  0  0
  2  1  2  0  0  0  0
  2  6  1  0  0  0  0
  3  2  1  0  0  0  0
  4  5  1  0  0  0  0
  5  3  1  0  0  0  0
  7  9  1  0  0  0  0
  7  6  1  0  0  0  0
  9  8  1  6  0  0  0
  9 10  1  0  0  0  0
 11 12  1  1  0  0  0
 11 10  1  0  0  0  0
 14 17  1  0  0  0  0
 15 18  1  0  0  0  0
 15 14  1  0  0  0  0
 16 20  1  6  0  0  0
 16 13  1  0  0  0  0
 17 13  1  0  0  0  0
 17 11  1  6  0  0  0
 19 18  1  0  0  0  0
 19 16  1  0  0  0  0
 22 21  1  6  0  0  0
 22 20  1  0  0  0  0
 23 24  1  0  0  0  0
 24 22  1  0  0  0  0
 26 30  1  0  0  0  0
 27 28  1  0  0  0  0
 28 25  1  6  0  0  0
 28 26  1  0  0  0  0
 29 33  1  1  0  0  0
 29 32  1  0  0  0  0
 31 29  1  0  0  0  0
 31 27  1  0  0  0  0
 32 35  1  6  0  0  0
 32 30  1  0  0  0  0
 34 33  2  0  0  0  0
 36 35  1  0  0  0  0
 37 36  1  6  0  0  0
 37 45  1  0  0  0  0
 38 37  1  0  0  0  0
 39 43  1  0  0  0  0
 40 38  1  0  0  0  0
 41 40  1  0  0  0  0
 42 39  1  0  0  0  0
 42 41  1  0  0  0  0
 43 38  1  0  0  0  0
 45 46  1  0  0  0  0
 45 44  1  1  0  0  0
M  END
>  <MODEL>
2

>  <REMARK>
 VINA RESULT:      -5.8      1.629      1.926
  Name = 
  19 active torsions:
  status: ('A' for Active; 'I' for Inactive)
    1  A    between atoms: O_4  and  C_14
    2  A    between atoms: O_4  and  C_19
    3  A    between atoms: C_6  and  C_31
    4  A    between atoms: C_6  and  C_41
    5  A    between atoms: C_9  and  C_33
    6  A    between atoms: C_13  and  C_42
    7  A    between atoms: C_16  and  O_32
    8  A    between atoms: C_16  and  C_44
    9  A    between atoms: C_17  and  C_42
   10  A    between atoms: C_18  and  C_24
   11  A    between atoms: C_19  and  C_31
   12  A    between atoms: C_20  and  C_44
   13  A    between atoms: N_21  and  C_29
   14  A    between atoms: N_21  and  C_41
   15  A    between atoms: C_22  and  C_29
   16  A    between atoms: C_23  and  C_33
   17  A    between atoms: N_27  and  C_39
   18  A    between atoms: N_27  and  C_43
   19  A    between atoms: C_33  and  C_43
                            x       y       z     vdW  Elec       q    Type
                         _______ _______ _______ _____ _____    ______ ____

>  <TORSDO>
F 19

$$$$
=
 OpenBabel11042414333D

 46 48  0  0  1  0  0  0  0  0999 V2000
  192.0510  171.2060  143.0130 C   0  0  0  0  0  3  0  0  0  0  0  0
  192.9460  170.2120  142.9490 C   0  0  0  0  0  0  0  0  0  0  0  0
  193.4880  169.8070  141.7230 O   0  0  0  0  0  0  0  0  0  0  0  0
  194.1970  171.8830  140.7190 C   0  0  0  0  0  1  0  0  0  0  0  0
  194.5830  170.4620  141.0910 C   0  0  0  0  0  2  0  0  0  0  0  0
  193.3960  169.5040  144.1900 C   0  0  0  0  0  2  0  0  0  0  0  0
  194.3250  170.3870  145.0080 C   0  0  0  0  0  2  0  0  0  0  0  0
  196.6670  169.9300  144.9950 O   0  0  0  0  0  1  0  0  0  0  0  0
  195.6520  170.5850  144.2930 C   0  0  2  0  0  3  0  0  0  0  0  0
  195.9540  172.0040  144.2090 N   0  0  0  0  0  2  0  0  0  0  0  0
  195.6740  172.5880  145.5140 C   0  0  1  0  0  3  0  0  0  0  0  0
  196.9780  172.9730  146.1960 C   0  0  0  0  0  1  0  0  0  0  0  0
  194.3030  174.0550  143.9160 C   0  0  0  0  0  2  0  0  0  0  0  0
  195.2110  174.9840  146.1680 C   0  0  0  0  0  2  0  0  0  0  0  0
  194.0950  175.9820  146.4780 C   0  0  0  0  0  2  0  0  0  0  0  0
  194.6840  175.4340  143.3420 C   0  0  1  0  0  3  0  0  0  0  0  0
  194.7090  173.7710  145.3820 C   0  0  2  0  0  3  0  0  0  0  0  0
  193.2210  176.3280  145.2710 C   0  0  0  0  0  2  0  0  0  0  0  0
  194.0450  176.6570  144.0280 C   0  0  0  0  0  2  0  0  0  0  0  0
  196.1920  175.5930  143.2020 C   0  0  0  0  0  2  0  0  0  0  0  0
  196.0860  177.0710  141.2990 O   0  0  0  0  0  1  0  0  0  0  0  0
  196.5900  175.8460  141.7510 C   0  0  2  0  0  3  0  0  0  0  0  0
  195.5400  175.3440  139.8960 O   0  0  0  0  0  1  0  0  0  0  0  0
  196.1790  174.7940  140.9130 O   0  0  0  0  0  0  0  0  0  0  0  0
  191.4450  171.6830  144.2920 C   0  0  0  0  0  2  0  0  0  0  0  0
  190.1760  172.9310  142.2100 S   0  0  0  0  0  0  0  0  0  0  0  0
  190.6790  173.9980  144.6950 C   0  0  0  0  0  2  0  0  0  0  0  0
  190.3430  172.6860  144.0070 C   0  0  2  0  0  3  0  0  0  0  0  0
  189.2040  175.7230  143.4990 C   0  0  2  0  0  3  0  0  0  0  0  0
  188.4610  173.4960  142.4120 C   0  0  0  0  0  2  0  0  0  0  0  0
  189.4670  174.9260  144.7860 C   0  0  0  0  0  2  0  0  0  0  0  0
  188.3610  175.0180  142.4240 C   0  0  1  0  0  3  0  0  0  0  0  0
  190.4320  176.3490  142.9140 C   0  0  0  0  0  3  0  0  0  0  0  0
  190.4540  177.5390  142.6530 O   0  0  0  0  0  0  0  0  0  0  0  0
  186.9640  175.3950  142.5690 N   0  0  0  0  0  2  0  0  0  0  0  0
  186.9250  176.7900  142.9790 C   0  0  0  0  0  2  0  0  0  0  0  0
  185.5330  177.1370  143.5100 C   0  0  1  0  0  3  0  0  0  0  0  0
  185.5680  177.2350  145.0510 C   0  0  0  0  0  3  0  0  0  0  0  0
  186.9700  177.6070  147.1010 C   0  0  0  0  0  2  0  0  0  0  0  0
  184.5620  178.2680  145.5770 C   0  0  0  0  0  2  0  0  0  0  0  0
  184.5590  178.2810  147.1020 C   0  0  0  0  0  2  0  0  0  0  0  0
  185.9520  178.6170  147.6260 C   0  0  0  0  0  2  0  0  0  0  0  0
  186.9610  177.6000  145.5760 C   0  0  0  0  0  2  0  0  0  0  0  0
  184.3510  178.1630  141.5450 C   0  0  0  0  0  1  0  0  0  0  0  0
  185.0310  178.4470  142.8720 C   0  0  2  0  0  3  0  0  0  0  0  0
  186.0830  179.3370  142.6380 O   0  0  0  0  0  1  0  0  0  0  0  0
  1 25  1  0  0  0  0
  2  1  2  0  0  0  0
  2  6  1  0  0  0  0
  3  2  1  0  0  0  0
  4  5  1  0  0  0  0
  5  3  1  0  0  0  0
  6  7  1  0  0  0  0
  9  8  1  1  0  0  0
  9  7  1  0  0  0  0
 10  9  1  0  0  0  0
 10 11  1  0  0  0  0
 11 12  1  6  0  0  0
 13 17  1  0  0  0  0
 14 15  1  0  0  0  0
 16 20  1  1  0  0  0
 16 13  1  0  0  0  0
 16 19  1  0  0  0  0
 17 11  1  6  0  0  0
 17 14  1  0  0  0  0
 18 15  1  0  0  0  0
 19 18  1  0  0  0  0
 22 21  1  6  0  0  0
 22 20  1  0  0  0  0
 23 24  1  0  0  0  0
 24 22  1  0  0  0  0
 26 30  1  0  0  0  0
 26 28  1  0  0  0  0
 27 31  1  0  0  0  0
 28 25  1  6  0  0  0
 28 27  1  0  0  0  0
 29 33  1  6  0  0  0
 29 31  1  0  0  0  0
 30 32  1  0  0  0  0
 32 35  1  1  0  0  0
 32 29  1  0  0  0  0
 34 33  2  0  0  0  0
 35 36  1  0  0  0  0
 37 36  1  6  0  0  0
 37 38  1  0  0  0  0
 38 43  1  0  0  0  0
 38 40  1  0  0  0  0
 39 42  1  0  0  0  0
 40 41  1  0  0  0  0
 41 42  1  0  0  0  0
 43 39  1  0  0  0  0
 45 44  1  6  0  0  0
 45 37  1  0  0  0  0
 46 45  1  0  0  0  0
M  END
>  <MODEL>
3

>  <REMARK>
 VINA RESULT:      -5.8      2.524      4.969
  Name = 
  19 active torsions:
  status: ('A' for Active; 'I' for Inactive)
    1  A    between atoms: O_4  and  C_14
    2  A    between atoms: O_4  and  C_19
    3  A    between atoms: C_6  and  C_31
    4  A    between atoms: C_6  and  C_41
    5  A    between atoms: C_9  and  C_33
    6  A    between atoms: C_13  and  C_42
    7  A    between atoms: C_16  and  O_32
    8  A    between atoms: C_16  and  C_44
    9  A    between atoms: C_17  and  C_42
   10  A    between atoms: C_18  and  C_24
   11  A    between atoms: C_19  and  C_31
   12  A    between atoms: C_20  and  C_44
   13  A    between atoms: N_21  and  C_29
   14  A    between atoms: N_21  and  C_41
   15  A    between atoms: C_22  and  C_29
   16  A    between atoms: C_23  and  C_33
   17  A    between atoms: N_27  and  C_39
   18  A    between atoms: N_27  and  C_43
   19  A    between atoms: C_33  and  C_43
                            x       y       z     vdW  Elec       q    Type
                         _______ _______ _______ _____ _____    ______ ____

>  <TORSDO>
F 19

$$$$
=
 OpenBabel11042414333D

 46 48  0  0  1  0  0  0  0  0999 V2000
  195.0580  175.5100  144.8110 C   0  0  0  0  0  3  0  0  0  0  0  0
  196.1540  174.8990  144.3450 C   0  0  0  0  0  0  0  0  0  0  0  0
  196.9700  175.5150  143.3870 O   0  0  0  0  0  0  0  0  0  0  0  0
  196.2390  176.8040  141.4840 C   0  0  0  0  0  1  0  0  0  0  0  0
  196.7620  176.8390  142.9090 C   0  0  0  0  0  2  0  0  0  0  0  0
  196.5430  173.5390  144.8380 C   0  0  0  0  0  2  0  0  0  0  0  0
  196.6510  172.5580  143.6810 C   0  0  0  0  0  2  0  0  0  0  0  0
  197.0490  170.2140  143.8830 O   0  0  0  0  0  1  0  0  0  0  0  0
  196.0790  171.2030  144.0660 C   0  0  2  0  0  3  0  0  0  0  0  0
  194.9220  170.9100  143.2380 N   0  0  0  0  0  2  0  0  0  0  0  0
  193.8710  170.4110  144.1140 C   0  0  1  0  0  3  0  0  0  0  0  0
  194.0950  170.9240  145.5290 C   0  0  0  0  0  1  0  0  0  0  0  0
  192.4880  171.0120  142.0380 C   0  0  0  0  0  2  0  0  0  0  0  0
  191.8470  171.8960  144.3970 C   0  0  0  0  0  2  0  0  0  0  0  0
  190.3290  171.9550  144.2210 C   0  0  0  0  0  2  0  0  0  0  0  0
  192.0910  172.4170  141.5440 C   0  0  1  0  0  3  0  0  0  0  0  0
  192.4880  170.7810  143.5680 C   0  0  2  0  0  3  0  0  0  0  0  0
  189.8720  171.9090  142.7620 C   0  0  0  0  0  2  0  0  0  0  0  0
  190.6560  172.8730  141.8740 C   0  0  0  0  0  2  0  0  0  0  0  0
  193.1190  173.4690  141.9390 C   0  0  0  0  0  2  0  0  0  0  0  0
  193.2650  173.5750  139.5340 O   0  0  0  0  0  1  0  0  0  0  0  0
  193.8850  173.9780  140.7220 C   0  0  2  0  0  3  0  0  0  0  0  0
  195.2860  172.4040  140.1310 O   0  0  0  0  0  1  0  0  0  0  0  0
  195.2300  173.5690  140.7510 O   0  0  0  0  0  0  0  0  0  0  0  0
  194.1550  174.9040  145.8370 C   0  0  0  0  0  2  0  0  0  0  0  0
  192.5150  176.6620  144.5240 S   0  0  0  0  0  0  0  0  0  0  0  0
  191.8420  175.1010  146.6860 C   0  0  0  0  0  2  0  0  0  0  0  0
  192.7050  175.0980  145.4350 C   0  0  2  0  0  3  0  0  0  0  0  0
  189.6490  176.1930  145.9250 C   0  0  2  0  0  3  0  0  0  0  0  0
  191.0020  176.0530  143.7240 C   0  0  0  0  0  2  0  0  0  0  0  0
  190.3600  174.9030  146.3620 C   0  0  0  0  0  2  0  0  0  0  0  0
  189.7450  176.5490  144.4320 C   0  0  1  0  0  3  0  0  0  0  0  0
  189.9500  177.3750  146.7940 C   0  0  0  0  0  3  0  0  0  0  0  0
  189.0730  177.8830  147.4710 O   0  0  0  0  0  0  0  0  0  0  0  0
  188.5790  176.0390  143.7300 N   0  0  0  0  0  2  0  0  0  0  0  0
  187.9700  177.1550  143.0200 C   0  0  0  0  0  2  0  0  0  0  0  0
  186.5100  177.3090  143.4500 C   0  0  1  0  0  3  0  0  0  0  0  0
  186.4400  177.7080  144.9410 C   0  0  0  0  0  3  0  0  0  0  0  0
  185.7900  179.4600  146.6170 C   0  0  0  0  0  2  0  0  0  0  0  0
  185.6880  176.6610  145.7740 C   0  0  0  0  0  2  0  0  0  0  0  0
  185.7090  177.0400  147.2510 C   0  0  0  0  0  2  0  0  0  0  0  0
  185.0630  178.4080  147.4510 C   0  0  0  0  0  2  0  0  0  0  0  0
  185.7660  179.0700  145.1440 C   0  0  0  0  0  2  0  0  0  0  0  0
  184.3680  177.9130  142.2850 C   0  0  0  0  0  1  0  0  0  0  0  0
  185.7980  178.3420  142.5550 C   0  0  2  0  0  3  0  0  0  0  0  0
  186.4470  178.4860  141.3260 O   0  0  0  0  0  1  0  0  0  0  0  0
  1 25  1  0  0  0  0
  2  1  2  0  0  0  0
  2  6  1  0  0  0  0
  3  2  1  0  0  0  0
  4  5  1  0  0  0  0
  5  3  1  0  0  0  0
  7  9  1  0  0  0  0
  7  6  1  0  0  0  0
  9  8  1  6  0  0  0
 10  9  1  0  0  0  0
 10 11  1  0  0  0  0
 11 12  1  1  0  0  0
 13 17  1  0  0  0  0
 15 14  1  0  0  0  0
 16 19  1  0  0  0  0
 16 20  1  1  0  0  0
 16 13  1  0  0  0  0
 17 11  1  1  0  0  0
 17 14  1  0  0  0  0
 18 15  1  0  0  0  0
 19 18  1  0  0  0  0
 22 21  1  6  0  0  0
 22 24  1  0  0  0  0
 22 20  1  0  0  0  0
 23 24  1  0  0  0  0
 26 28  1  0  0  0  0
 28 25  1  1  0  0  0
 28 27  1  0  0  0  0
 29 31  1  0  0  0  0
 29 33  1  1  0  0  0
 30 32  1  0  0  0  0
 30 26  1  0  0  0  0
 31 27  1  0  0  0  0
 32 35  1  6  0  0  0
 32 29  1  0  0  0  0
 33 34  2  0  0  0  0
 36 35  1  0  0  0  0
 37 36  1  6  0  0  0
 37 38  1  0  0  0  0
 38 43  1  0  0  0  0
 38 40  1  0  0  0  0
 39 42  1  0  0  0  0
 40 41  1  0  0  0  0
 41 42  1  0  0  0  0
 43 39  1  0  0  0  0
 45 44  1  6  0  0  0
 45 37  1  0  0  0  0
 46 45  1  0  0  0  0
M  END
>  <MODEL>
4

>  <REMARK>
 VINA RESULT:      -5.7      2.099      3.542
  Name = 
  19 active torsions:
  status: ('A' for Active; 'I' for Inactive)
    1  A    between atoms: O_4  and  C_14
    2  A    between atoms: O_4  and  C_19
    3  A    between atoms: C_6  and  C_31
    4  A    between atoms: C_6  and  C_41
    5  A    between atoms: C_9  and  C_33
    6  A    between atoms: C_13  and  C_42
    7  A    between atoms: C_16  and  O_32
    8  A    between atoms: C_16  and  C_44
    9  A    between atoms: C_17  and  C_42
   10  A    between atoms: C_18  and  C_24
   11  A    between atoms: C_19  and  C_31
   12  A    between atoms: C_20  and  C_44
   13  A    between atoms: N_21  and  C_29
   14  A    between atoms: N_21  and  C_41
   15  A    between atoms: C_22  and  C_29
   16  A    between atoms: C_23  and  C_33
   17  A    between atoms: N_27  and  C_39
   18  A    between atoms: N_27  and  C_43
   19  A    between atoms: C_33  and  C_43
                            x       y       z     vdW  Elec       q    Type
                         _______ _______ _______ _____ _____    ______ ____

>  <TORSDO>
F 19

$$$$
=
 OpenBabel11042414333D

 46 48  0  0  1  0  0  0  0  0999 V2000
  194.2670  172.9100  145.1010 C   0  0  0  0  0  3  0  0  0  0  0  0
  193.8750  171.7770  144.5050 C   0  0  0  0  0  0  0  0  0  0  0  0
  193.9370  170.5490  145.1790 O   0  0  0  0  0  0  0  0  0  0  0  0
  194.6710  169.0550  146.9240 C   0  0  0  0  0  1  0  0  0  0  0  0
  195.0760  170.1080  145.9080 C   0  0  0  0  0  2  0  0  0  0  0  0
  193.3560  171.7870  143.1010 C   0  0  0  0  0  2  0  0  0  0  0  0
  194.5020  171.8400  142.1020 C   0  0  0  0  0  2  0  0  0  0  0  0
  195.0030  171.7920  139.7700 O   0  0  0  0  0  1  0  0  0  0  0  0
  193.9790  172.0370  140.6880 C   0  0  2  0  0  3  0  0  0  0  0  0
  193.4990  173.3990  140.5320 N   0  0  0  0  0  2  0  0  0  0  0  0
  192.2350  173.3380  139.8110 C   0  0  1  0  0  3  0  0  0  0  0  0
  192.3790  172.4320  138.5970 C   0  0  0  0  0  1  0  0  0  0  0  0
  189.9320  172.2200  139.9870 C   0  0  0  0  0  2  0  0  0  0  0  0
  190.6990  174.0220  141.6960 C   0  0  0  0  0  2  0  0  0  0  0  0
  189.9590  173.5060  142.9310 C   0  0  0  0  0  2  0  0  0  0  0  0
  188.5550  172.9060  140.0750 C   0  0  1  0  0  3  0  0  0  0  0  0
  191.1010  172.8960  140.7420 C   0  0  2  0  0  3  0  0  0  0  0  0
  188.8370  172.5160  142.6110 C   0  0  0  0  0  2  0  0  0  0  0  0
  187.9320  173.0030  141.4810 C   0  0  0  0  0  2  0  0  0  0  0  0
  188.5450  174.2520  139.3630 C   0  0  0  0  0  2  0  0  0  0  0  0
  189.4640  174.1130  137.1380 O   0  0  0  0  0  1  0  0  0  0  0  0
  188.2720  174.0880  137.8710 C   0  0  2  0  0  3  0  0  0  0  0  0
  187.9280  175.6120  136.3380 O   0  0  0  0  0  1  0  0  0  0  0  0
  187.3720  175.0610  137.4020 O   0  0  0  0  0  0  0  0  0  0  0  0
  194.2190  174.2460  144.4340 C   0  0  0  0  0  2  0  0  0  0  0  0
  193.1890  176.7030  145.0700 S   0  0  0  0  0  0  0  0  0  0  0  0
  192.2620  174.2650  145.9440 C   0  0  0  0  0  2  0  0  0  0  0  0
  192.9030  174.9360  144.7400 C   0  0  2  0  0  3  0  0  0  0  0  0
  190.5460  175.9830  146.7720 C   0  0  2  0  0  3  0  0  0  0  0  0
  191.4720  177.0990  144.6290 C   0  0  0  0  0  2  0  0  0  0  0  0
  190.7840  174.6290  146.0850 C   0  0  0  0  0  2  0  0  0  0  0  0
  190.5820  177.2220  145.8620 C   0  0  1  0  0  3  0  0  0  0  0  0
  191.3640  176.1860  148.0100 C   0  0  0  0  0  3  0  0  0  0  0  0
  191.4650  177.2930  148.5090 O   0  0  0  0  0  0  0  0  0  0  0  0
  189.2330  177.5560  145.4340 N   0  0  0  0  0  2  0  0  0  0  0  0
  189.1640  177.3520  143.9950 C   0  0  0  0  0  2  0  0  0  0  0  0
  187.7040  177.2020  143.5620 C   0  0  1  0  0  3  0  0  0  0  0  0
  186.7720  177.7990  144.6390 C   0  0  0  0  0  3  0  0  0  0  0  0
  185.1330  179.6070  145.2300 C   0  0  0  0  0  2  0  0  0  0  0  0
  185.7820  176.7560  145.1750 C   0  0  0  0  0  2  0  0  0  0  0  0
  184.9340  177.3500  146.2940 C   0  0  0  0  0  2  0  0  0  0  0  0
  184.1650  178.5640  145.7810 C   0  0  0  0  0  2  0  0  0  0  0  0
  185.9780  179.0010  144.1150 C   0  0  0  0  0  2  0  0  0  0  0  0
  186.9120  176.8780  141.2000 C   0  0  0  0  0  1  0  0  0  0  0  0
  187.4850  177.8730  142.1920 C   0  0  2  0  0  3  0  0  0  0  0  0
  188.6830  178.3660  141.6670 O   0  0  0  0  0  1  0  0  0  0  0  0
  2  1  2  0  0  0  0
  2  3  1  0  0  0  0
  3  5  1  0  0  0  0
  5  4  1  0  0  0  0
  6  2  1  0  0  0  0
  7  6  1  0  0  0  0
  9  8  1  6  0  0  0
  9  7  1  0  0  0  0
 10  9  1  0  0  0  0
 11 12  1  6  0  0  0
 11 10  1  0  0  0  0
 13 16  1  0  0  0  0
 13 17  1  0  0  0  0
 14 15  1  0  0  0  0
 16 20  1  1  0  0  0
 16 19  1  0  0  0  0
 17 11  1  6  0  0  0
 17 14  1  0  0  0  0
 18 15  1  0  0  0  0
 19 18  1  0  0  0  0
 22 21  1  6  0  0  0
 22 20  1  0  0  0  0
 23 24  1  0  0  0  0
 24 22  1  0  0  0  0
 25  1  1  0  0  0  0
 27 31  1  0  0  0  0
 28 25  1  1  0  0  0
 28 26  1  0  0  0  0
 28 27  1  0  0  0  0
 29 33  1  1  0  0  0
 30 26  1  0  0  0  0
 30 32  1  0  0  0  0
 31 29  1  0  0  0  0
 32 35  1  6  0  0  0
 32 29  1  0  0  0  0
 33 34  2  0  0  0  0
 36 35  1  0  0  0  0
 37 36  1  1  0  0  0
 37 38  1  0  0  0  0
 38 40  1  0  0  0  0
 39 42  1  0  0  0  0
 40 41  1  0  0  0  0
 42 41  1  0  0  0  0
 43 38  1  0  0  0  0
 43 39  1  0  0  0  0
 45 44  1  6  0  0  0
 45 37  1  0  0  0  0
 46 45  1  0  0  0  0
M  END
>  <MODEL>
5

>  <REMARK>
 VINA RESULT:      -5.7      2.522      4.505
  Name = 
  19 active torsions:
  status: ('A' for Active; 'I' for Inactive)
    1  A    between atoms: O_4  and  C_14
    2  A    between atoms: O_4  and  C_19
    3  A    between atoms: C_6  and  C_31
    4  A    between atoms: C_6  and  C_41
    5  A    between atoms: C_9  and  C_33
    6  A    between atoms: C_13  and  C_42
    7  A    between atoms: C_16  and  O_32
    8  A    between atoms: C_16  and  C_44
    9  A    between atoms: C_17  and  C_42
   10  A    between atoms: C_18  and  C_24
   11  A    between atoms: C_19  and  C_31
   12  A    between atoms: C_20  and  C_44
   13  A    between atoms: N_21  and  C_29
   14  A    between atoms: N_21  and  C_41
   15  A    between atoms: C_22  and  C_29
   16  A    between atoms: C_23  and  C_33
   17  A    between atoms: N_27  and  C_39
   18  A    between atoms: N_27  and  C_43
   19  A    between atoms: C_33  and  C_43
                            x       y       z     vdW  Elec       q    Type
                         _______ _______ _______ _____ _____    ______ ____

>  <TORSDO>
F 19

$$$$
=
 OpenBabel11042414333D

 46 48  0  0  1  0  0  0  0  0999 V2000
  193.0890  173.7050  145.1360 C   0  0  0  0  0  3  0  0  0  0  0  0
  193.4440  174.6250  146.0420 C   0  0  0  0  0  0  0  0  0  0  0  0
  194.7540  175.1180  146.0950 O   0  0  0  0  0  0  0  0  0  0  0  0
  195.3640  176.3350  144.1040 C   0  0  0  0  0  1  0  0  0  0  0  0
  195.6380  175.1250  144.9790 C   0  0  0  0  0  2  0  0  0  0  0  0
  192.4480  175.1590  147.0250 C   0  0  0  0  0  2  0  0  0  0  0  0
  192.0280  176.5730  146.6550 C   0  0  0  0  0  2  0  0  0  0  0  0
  191.0310  177.3480  144.6310 O   0  0  0  0  0  1  0  0  0  0  0  0
  190.8010  176.5560  145.7590 C   0  0  2  0  0  3  0  0  0  0  0  0
  189.6560  177.0720  146.4910 N   0  0  0  0  0  2  0  0  0  0  0  0
  188.5690  176.1150  146.3350 C   0  0  1  0  0  3  0  0  0  0  0  0
  188.8590  174.8680  147.1570 C   0  0  0  0  0  1  0  0  0  0  0  0
  186.1290  176.4970  145.6380 C   0  0  0  0  0  2  0  0  0  0  0  0
  187.4060  178.2210  147.1050 C   0  0  0  0  0  2  0  0  0  0  0  0
  186.2290  178.7480  147.9270 C   0  0  0  0  0  2  0  0  0  0  0  0
  185.5320  177.7310  144.9330 C   0  0  1  0  0  3  0  0  0  0  0  0
  187.2260  176.7580  146.6970 C   0  0  2  0  0  3  0  0  0  0  0  0
  184.8600  178.4210  147.3290 C   0  0  0  0  0  2  0  0  0  0  0  0
  184.7860  178.7340  145.8350 C   0  0  0  0  0  2  0  0  0  0  0  0
  186.5530  178.4270  144.0450 C   0  0  0  0  0  2  0  0  0  0  0  0
  188.2320  177.1570  142.8680 O   0  0  0  0  0  1  0  0  0  0  0  0
  186.8980  177.5760  142.8260 C   0  0  2  0  0  3  0  0  0  0  0  0
  185.3540  178.6220  141.6790 O   0  0  0  0  0  1  0  0  0  0  0  0
  186.6230  178.2590  141.6270 O   0  0  0  0  0  0  0  0  0  0  0  0
  191.7060  173.1500  145.0300 C   0  0  0  0  0  2  0  0  0  0  0  0
  192.0610  174.0140  142.4560 S   0  0  0  0  0  0  0  0  0  0  0  0
  189.9090  172.6010  143.4240 C   0  0  0  0  0  2  0  0  0  0  0  0
  191.4110  172.7530  143.5960 C   0  0  2  0  0  3  0  0  0  0  0  0
  189.5590  172.7210  140.8860 C   0  0  2  0  0  3  0  0  0  0  0  0
  192.1360  172.8030  141.1040 C   0  0  0  0  0  2  0  0  0  0  0  0
  189.5510  171.8420  142.1460 C   0  0  0  0  0  2  0  0  0  0  0  0
  190.9180  172.8960  140.1890 C   0  0  1  0  0  3  0  0  0  0  0  0
  188.8540  174.0300  141.0570 C   0  0  0  0  0  3  0  0  0  0  0  0
  188.5230  174.6860  140.0840 O   0  0  0  0  0  0  0  0  0  0  0  0
  191.0560  171.9150  139.1250 N   0  0  0  0  0  2  0  0  0  0  0  0
  191.9440  172.4770  138.1190 C   0  0  0  0  0  2  0  0  0  0  0  0
  191.4120  173.8370  137.6590 C   0  0  1  0  0  3  0  0  0  0  0  0
  192.5890  174.8020  137.3990 C   0  0  0  0  0  3  0  0  0  0  0  0
  195.0720  175.0600  137.1300 C   0  0  0  0  0  2  0  0  0  0  0  0
  192.3870  175.6120  136.1120 C   0  0  0  0  0  2  0  0  0  0  0  0
  193.5210  176.6140  135.9280 C   0  0  0  0  0  2  0  0  0  0  0  0
  194.8600  175.8840  135.8630 C   0  0  0  0  0  2  0  0  0  0  0  0
  193.9310  174.0650  137.3070 C   0  0  0  0  0  2  0  0  0  0  0  0
  189.0660  173.7960  136.7640 C   0  0  0  0  0  1  0  0  0  0  0  0
  190.5340  173.6670  136.4040 C   0  0  2  0  0  3  0  0  0  0  0  0
  190.7260  172.4160  135.8120 O   0  0  0  0  0  1  0  0  0  0  0  0
  1  2  2  0  0  0  0
  2  3  1  0  0  0  0
  2  6  1  0  0  0  0
  4  5  1  0  0  0  0
  5  3  1  0  0  0  0
  7  6  1  0  0  0  0
  9  8  1  6  0  0  0
  9 10  1  0  0  0  0
  9  7  1  0  0  0  0
 11 10  1  0  0  0  0
 11 12  1  1  0  0  0
 13 17  1  0  0  0  0
 14 15  1  0  0  0  0
 16 20  1  1  0  0  0
 16 13  1  0  0  0  0
 16 19  1  0  0  0  0
 17 11  1  6  0  0  0
 17 14  1  0  0  0  0
 18 15  1  0  0  0  0
 19 18  1  0  0  0  0
 22 21  1  1  0  0  0
 22 20  1  0  0  0  0
 24 23  1  0  0  0  0
 24 22  1  0  0  0  0
 25  1  1  0  0  0  0
 26 28  1  0  0  0  0
 27 28  1  0  0  0  0
 28 25  1  1  0  0  0
 29 33  1  1  0  0  0
 29 31  1  0  0  0  0
 30 26  1  0  0  0  0
 31 27  1  0  0  0  0
 32 35  1  6  0  0  0
 32 29  1  0  0  0  0
 32 30  1  0  0  0  0
 34 33  2  0  0  0  0
 36 35  1  0  0  0  0
 37 36  1  6  0  0  0
 38 37  1  0  0  0  0
 39 43  1  0  0  0  0
 40 38  1  0  0  0  0
 41 40  1  0  0  0  0
 42 41  1  0  0  0  0
 42 39  1  0  0  0  0
 43 38  1  0  0  0  0
 45 44  1  1  0  0  0
 45 37  1  0  0  0  0
 46 45  1  0  0  0  0
M  END
>  <MODEL>
6

>  <REMARK>
 VINA RESULT:      -5.6      2.786      7.997
  Name = 
  19 active torsions:
  status: ('A' for Active; 'I' for Inactive)
    1  A    between atoms: O_4  and  C_14
    2  A    between atoms: O_4  and  C_19
    3  A    between atoms: C_6  and  C_31
    4  A    between atoms: C_6  and  C_41
    5  A    between atoms: C_9  and  C_33
    6  A    between atoms: C_13  and  C_42
    7  A    between atoms: C_16  and  O_32
    8  A    between atoms: C_16  and  C_44
    9  A    between atoms: C_17  and  C_42
   10  A    between atoms: C_18  and  C_24
   11  A    between atoms: C_19  and  C_31
   12  A    between atoms: C_20  and  C_44
   13  A    between atoms: N_21  and  C_29
   14  A    between atoms: N_21  and  C_41
   15  A    between atoms: C_22  and  C_29
   16  A    between atoms: C_23  and  C_33
   17  A    between atoms: N_27  and  C_39
   18  A    between atoms: N_27  and  C_43
   19  A    between atoms: C_33  and  C_43
                            x       y       z     vdW  Elec       q    Type
                         _______ _______ _______ _____ _____    ______ ____

>  <TORSDO>
F 19

$$$$
=
 OpenBabel11042414333D

 46 48  0  0  1  0  0  0  0  0999 V2000
  195.6070  175.4940  144.8930 C   0  0  0  0  0  3  0  0  0  0  0  0
  196.7610  174.8370  144.7300 C   0  0  0  0  0  0  0  0  0  0  0  0
  197.6380  175.1680  143.6880 O   0  0  0  0  0  0  0  0  0  0  0  0
  196.5140  176.3260  141.8950 C   0  0  0  0  0  1  0  0  0  0  0  0
  197.2890  175.0880  142.3100 C   0  0  0  0  0  2  0  0  0  0  0  0
  197.1520  173.7280  145.6580 C   0  0  0  0  0  2  0  0  0  0  0  0
  197.3230  172.4220  144.8970 C   0  0  0  0  0  2  0  0  0  0  0  0
  196.7540  170.5570  146.2730 O   0  0  0  0  0  1  0  0  0  0  0  0
  196.2510  171.4200  145.2960 C   0  0  2  0  0  3  0  0  0  0  0  0
  195.8440  170.6530  144.1300 N   0  0  0  0  0  2  0  0  0  0  0  0
  194.4810  171.0480  143.8000 C   0  0  1  0  0  3  0  0  0  0  0  0
  193.7810  171.5690  145.0470 C   0  0  0  0  0  1  0  0  0  0  0  0
  193.5690  173.2870  142.9410 C   0  0  0  0  0  2  0  0  0  0  0  0
  194.2410  171.3790  141.3080 C   0  0  0  0  0  2  0  0  0  0  0  0
  194.7090  172.2340  140.1280 C   0  0  0  0  0  2  0  0  0  0  0  0
  192.3850  173.5170  141.9810 C   0  0  1  0  0  3  0  0  0  0  0  0
  194.4750  172.0660  142.6550 C   0  0  2  0  0  3  0  0  0  0  0  0
  194.2350  173.6870  140.1890 C   0  0  0  0  0  2  0  0  0  0  0  0
  192.7460  173.8020  140.5110 C   0  0  0  0  0  2  0  0  0  0  0  0
  191.3380  172.4170  142.0990 C   0  0  0  0  0  2  0  0  0  0  0  0
  189.4550  171.9270  143.5240 O   0  0  0  0  0  1  0  0  0  0  0  0
  190.0660  172.9320  142.7660 C   0  0  2  0  0  3  0  0  0  0  0  0
  189.1270  172.6130  140.8150 O   0  0  0  0  0  1  0  0  0  0  0  0
  189.1700  173.4650  141.8230 O   0  0  0  0  0  0  0  0  0  0  0  0
  194.6370  175.1880  145.9880 C   0  0  0  0  0  2  0  0  0  0  0  0
  192.8500  177.0940  145.1670 S   0  0  0  0  0  0  0  0  0  0  0  0
  192.2590  174.7740  146.5210 C   0  0  0  0  0  2  0  0  0  0  0  0
  193.2140  175.3390  145.4840 C   0  0  2  0  0  3  0  0  0  0  0  0
  189.9900  175.7960  145.8990 C   0  0  2  0  0  3  0  0  0  0  0  0
  191.5300  176.6460  144.0020 C   0  0  0  0  0  2  0  0  0  0  0  0
  190.8630  174.5330  145.9460 C   0  0  0  0  0  2  0  0  0  0  0  0
  190.1530  176.6890  144.6570 C   0  0  1  0  0  3  0  0  0  0  0  0
  190.0180  176.5990  147.1620 C   0  0  0  0  0  3  0  0  0  0  0  0
  189.7800  177.7950  147.1400 O   0  0  0  0  0  0  0  0  0  0  0  0
  189.1510  176.3380  143.6650 N   0  0  0  0  0  2  0  0  0  0  0  0
  188.3840  177.5390  143.3710 C   0  0  0  0  0  2  0  0  0  0  0  0
  186.9300  177.3460  143.8060 C   0  0  1  0  0  3  0  0  0  0  0  0
  186.7490  177.8250  145.2630 C   0  0  0  0  0  3  0  0  0  0  0  0
  185.6080  179.4310  146.8200 C   0  0  0  0  0  2  0  0  0  0  0  0
  186.3540  176.6730  146.1960 C   0  0  0  0  0  2  0  0  0  0  0  0
  186.2670  177.1590  147.6380 C   0  0  0  0  0  2  0  0  0  0  0  0
  185.2380  178.2800  147.7520 C   0  0  0  0  0  2  0  0  0  0  0  0
  185.6960  178.9330  145.3820 C   0  0  0  0  0  2  0  0  0  0  0  0
  185.9000  177.3680  141.5160 C   0  0  0  0  0  1  0  0  0  0  0  0
  185.9840  178.0930  142.8460 C   0  0  2  0  0  3  0  0  0  0  0  0
  186.4270  179.3950  142.6010 O   0  0  0  0  0  1  0  0  0  0  0  0
  1 25  1  0  0  0  0
  2  1  2  0  0  0  0
  2  6  1  0  0  0  0
  3  2  1  0  0  0  0
  4  5  1  0  0  0  0
  5  3  1  0  0  0  0
  7  9  1  0  0  0  0
  7  6  1  0  0  0  0
  9  8  1  1  0  0  0
 10  9  1  0  0  0  0
 11 10  1  0  0  0  0
 11 12  1  1  0  0  0
 14 17  1  0  0  0  0
 15 18  1  0  0  0  0
 15 14  1  0  0  0  0
 16 20  1  6  0  0  0
 16 13  1  0  0  0  0
 17 13  1  0  0  0  0
 17 11  1  1  0  0  0
 18 19  1  0  0  0  0
 19 16  1  0  0  0  0
 20 22  1  0  0  0  0
 22 21  1  6  0  0  0
 23 24  1  0  0  0  0
 24 22  1  0  0  0  0
 26 28  1  0  0  0  0
 28 25  1  1  0  0  0
 28 27  1  0  0  0  0
 29 31  1  0  0  0  0
 29 33  1  1  0  0  0
 30 32  1  0  0  0  0
 30 26  1  0  0  0  0
 31 27  1  0  0  0  0
 32 35  1  6  0  0  0
 32 29  1  0  0  0  0
 34 33  2  0  0  0  0
 36 35  1  0  0  0  0
 37 36  1  6  0  0  0
 37 38  1  0  0  0  0
 38 43  1  0  0  0  0
 38 40  1  0  0  0  0
 39 42  1  0  0  0  0
 40 41  1  0  0  0  0
 41 42  1  0  0  0  0
 43 39  1  0  0  0  0
 45 44  1  6  0  0  0
 45 37  1  0  0  0  0
 46 45  1  0  0  0  0
M  END
>  <MODEL>
7

>  <REMARK>
 VINA RESULT:      -5.5      1.563      2.678
  Name = 
  19 active torsions:
  status: ('A' for Active; 'I' for Inactive)
    1  A    between atoms: O_4  and  C_14
    2  A    between atoms: O_4  and  C_19
    3  A    between atoms: C_6  and  C_31
    4  A    between atoms: C_6  and  C_41
    5  A    between atoms: C_9  and  C_33
    6  A    between atoms: C_13  and  C_42
    7  A    between atoms: C_16  and  O_32
    8  A    between atoms: C_16  and  C_44
    9  A    between atoms: C_17  and  C_42
   10  A    between atoms: C_18  and  C_24
   11  A    between atoms: C_19  and  C_31
   12  A    between atoms: C_20  and  C_44
   13  A    between atoms: N_21  and  C_29
   14  A    between atoms: N_21  and  C_41
   15  A    between atoms: C_22  and  C_29
   16  A    between atoms: C_23  and  C_33
   17  A    between atoms: N_27  and  C_39
   18  A    between atoms: N_27  and  C_43
   19  A    between atoms: C_33  and  C_43
                            x       y       z     vdW  Elec       q    Type
                         _______ _______ _______ _____ _____    ______ ____

>  <TORSDO>
F 19

$$$$
=
 OpenBabel11042414333D

 46 48  0  0  1  0  0  0  0  0999 V2000
  195.1980  174.8450  146.0810 C   0  0  0  0  0  3  0  0  0  0  0  0
  196.2640  174.1370  145.6890 C   0  0  0  0  0  0  0  0  0  0  0  0
  196.4830  172.8380  146.1690 O   0  0  0  0  0  0  0  0  0  0  0  0
  197.2690  170.8290  145.0900 C   0  0  0  0  0  1  0  0  0  0  0  0
  196.0630  171.6640  145.4810 C   0  0  0  0  0  2  0  0  0  0  0  0
  197.2550  174.7100  144.7230 C   0  0  0  0  0  2  0  0  0  0  0  0
  196.8240  174.4440  143.2880 C   0  0  0  0  0  2  0  0  0  0  0  0
  197.4070  176.7160  142.8470 O   0  0  0  0  0  1  0  0  0  0  0  0
  197.4950  175.4190  142.3330 C   0  0  2  0  0  3  0  0  0  0  0  0
  196.8370  175.3620  141.0380 N   0  0  0  0  0  2  0  0  0  0  0  0
  195.4320  175.0590  141.2740 C   0  0  1  0  0  3  0  0  0  0  0  0
  194.6160  176.3430  141.2290 C   0  0  0  0  0  1  0  0  0  0  0  0
  193.7360  174.5080  139.4280 C   0  0  0  0  0  2  0  0  0  0  0  0
  194.7260  172.6540  140.9600 C   0  0  0  0  0  2  0  0  0  0  0  0
  194.7140  171.4950  139.9630 C   0  0  0  0  0  2  0  0  0  0  0  0
  192.4100  173.7350  139.5670 C   0  0  1  0  0  3  0  0  0  0  0  0
  194.9300  174.0090  140.2780 C   0  0  2  0  0  3  0  0  0  0  0  0
  193.8180  171.7320  138.7460 C   0  0  0  0  0  2  0  0  0  0  0  0
  192.4360  172.2560  139.1330 C   0  0  0  0  0  2  0  0  0  0  0  0
  191.7980  173.9030  140.9510 C   0  0  0  0  0  2  0  0  0  0  0  0
  189.4460  173.4120  141.1640 O   0  0  0  0  0  1  0  0  0  0  0  0
  190.7260  172.8490  141.2140 C   0  0  2  0  0  3  0  0  0  0  0  0
  191.0070  170.9010  142.1720 O   0  0  0  0  0  1  0  0  0  0  0  0
  190.9400  172.1920  142.4400 O   0  0  0  0  0  0  0  0  0  0  0  0
  194.9130  176.2300  145.5990 C   0  0  0  0  0  2  0  0  0  0  0  0
  192.6250  175.2110  146.7070 S   0  0  0  0  0  0  0  0  0  0  0  0
  192.7890  176.8080  144.4740 C   0  0  0  0  0  2  0  0  0  0  0  0
  193.4500  176.5700  145.8200 C   0  0  2  0  0  3  0  0  0  0  0  0
  190.2810  176.5780  144.9640 C   0  0  2  0  0  3  0  0  0  0  0  0
  191.3390  176.3420  147.3140 C   0  0  0  0  0  2  0  0  0  0  0  0
  191.4430  177.5200  144.6130 C   0  0  0  0  0  2  0  0  0  0  0  0
  190.0770  176.2790  146.4580 C   0  0  1  0  0  3  0  0  0  0  0  0
  190.2480  175.3270  144.1430 C   0  0  0  0  0  3  0  0  0  0  0  0
  189.7140  174.3190  144.5740 O   0  0  0  0  0  0  0  0  0  0  0  0
  189.0900  177.1930  147.0120 N   0  0  0  0  0  2  0  0  0  0  0  0
  187.7820  176.7660  146.5400 C   0  0  0  0  0  2  0  0  0  0  0  0
  186.9130  177.9890  146.2390 C   0  0  1  0  0  3  0  0  0  0  0  0
  186.1640  177.7860  144.9040 C   0  0  0  0  0  3  0  0  0  0  0  0
  185.2650  178.8540  142.8170 C   0  0  0  0  0  2  0  0  0  0  0  0
  186.8230  176.7020  144.0410 C   0  0  0  0  0  2  0  0  0  0  0  0
  186.0130  176.4660  142.7710 C   0  0  0  0  0  2  0  0  0  0  0  0
  185.9070  177.7590  141.9680 C   0  0  0  0  0  2  0  0  0  0  0  0
  186.0810  179.0790  144.0850 C   0  0  0  0  0  2  0  0  0  0  0  0
  184.5050  178.2530  146.9000 C   0  0  0  0  0  1  0  0  0  0  0  0
  185.9360  178.2460  147.4020 C   0  0  2  0  0  3  0  0  0  0  0  0
  186.1850  179.4760  148.0170 O   0  0  0  0  0  1  0  0  0  0  0  0
  2  1  2  0  0  0  0
  2  3  1  0  0  0  0
  4  5  1  0  0  0  0
  5  3  1  0  0  0  0
  6  2  1  0  0  0  0
  7  6  1  0  0  0  0
  9  8  1  1  0  0  0
  9  7  1  0  0  0  0
 10 11  1  0  0  0  0
 10  9  1  0  0  0  0
 11 12  1  6  0  0  0
 13 16  1  0  0  0  0
 13 17  1  0  0  0  0
 15 14  1  0  0  0  0
 16 20  1  1  0  0  0
 17 14  1  0  0  0  0
 17 11  1  1  0  0  0
 18 19  1  0  0  0  0
 18 15  1  0  0  0  0
 19 16  1  0  0  0  0
 20 22  1  0  0  0  0
 22 21  1  1  0  0  0
 22 24  1  0  0  0  0
 23 24  1  0  0  0  0
 25  1  1  0  0  0  0
 26 30  1  0  0  0  0
 27 31  1  0  0  0  0
 27 28  1  0  0  0  0
 28 25  1  6  0  0  0
 28 26  1  0  0  0  0
 29 33  1  6  0  0  0
 29 32  1  0  0  0  0
 31 29  1  0  0  0  0
 32 35  1  1  0  0  0
 32 30  1  0  0  0  0
 33 34  2  0  0  0  0
 36 35  1  0  0  0  0
 37 36  1  1  0  0  0
 37 45  1  0  0  0  0
 38 37  1  0  0  0  0
 39 43  1  0  0  0  0
 40 38  1  0  0  0  0
 41 40  1  0  0  0  0
 42 41  1  0  0  0  0
 42 39  1  0  0  0  0
 43 38  1  0  0  0  0
 45 44  1  6  0  0  0
 45 46  1  0  0  0  0
M  END
>  <MODEL>
8

>  <REMARK>
 VINA RESULT:      -5.5      1.537      2.874
  Name = 
  19 active torsions:
  status: ('A' for Active; 'I' for Inactive)
    1  A    between atoms: O_4  and  C_14
    2  A    between atoms: O_4  and  C_19
    3  A    between atoms: C_6  and  C_31
    4  A    between atoms: C_6  and  C_41
    5  A    between atoms: C_9  and  C_33
    6  A    between atoms: C_13  and  C_42
    7  A    between atoms: C_16  and  O_32
    8  A    between atoms: C_16  and  C_44
    9  A    between atoms: C_17  and  C_42
   10  A    between atoms: C_18  and  C_24
   11  A    between atoms: C_19  and  C_31
   12  A    between atoms: C_20  and  C_44
   13  A    between atoms: N_21  and  C_29
   14  A    between atoms: N_21  and  C_41
   15  A    between atoms: C_22  and  C_29
   16  A    between atoms: C_23  and  C_33
   17  A    between atoms: N_27  and  C_39
   18  A    between atoms: N_27  and  C_43
   19  A    between atoms: C_33  and  C_43
                            x       y       z     vdW  Elec       q    Type
                         _______ _______ _______ _____ _____    ______ ____

>  <TORSDO>
F 19

$$$$
=
 OpenBabel11042414333D

 46 48  0  0  1  0  0  0  0  0999 V2000
  195.8760  173.5580  145.6550 C   0  0  0  0  0  3  0  0  0  0  0  0
  196.9480  173.0640  145.0230 C   0  0  0  0  0  0  0  0  0  0  0  0
  197.1720  171.6820  144.9550 O   0  0  0  0  0  0  0  0  0  0  0  0
  196.6140  169.3600  145.2930 C   0  0  0  0  0  1  0  0  0  0  0  0
  196.6460  170.7530  145.8970 C   0  0  0  0  0  2  0  0  0  0  0  0
  197.9390  173.9740  144.3660 C   0  0  0  0  0  2  0  0  0  0  0  0
  197.8410  173.8750  142.8510 C   0  0  0  0  0  2  0  0  0  0  0  0
  197.9180  176.2540  143.0170 O   0  0  0  0  0  1  0  0  0  0  0  0
  197.4100  175.2030  142.2500 C   0  0  2  0  0  3  0  0  0  0  0  0
  195.9590  175.2770  142.2220 N   0  0  0  0  0  2  0  0  0  0  0  0
  195.5650  175.6550  140.8720 C   0  0  1  0  0  3  0  0  0  0  0  0
  196.6680  175.2840  139.8920 C   0  0  0  0  0  1  0  0  0  0  0  0
  193.4510  174.4840  141.7350 C   0  0  0  0  0  2  0  0  0  0  0  0
  194.3660  174.0420  139.3420 C   0  0  0  0  0  2  0  0  0  0  0  0
  193.0390  173.7760  138.6290 C   0  0  0  0  0  2  0  0  0  0  0  0
  193.1560  172.9710  141.7630 C   0  0  1  0  0  3  0  0  0  0  0  0
  194.2170  175.0250  140.5040 C   0  0  2  0  0  3  0  0  0  0  0  0
  191.8780  173.4670  139.5750 C   0  0  0  0  0  2  0  0  0  0  0  0
  192.2500  172.4340  140.6380 C   0  0  0  0  0  2  0  0  0  0  0  0
  194.4290  172.1480  141.9000 C   0  0  0  0  0  2  0  0  0  0  0  0
  193.8140  169.8920  142.4930 O   0  0  0  0  0  1  0  0  0  0  0  0
  194.2970  171.1030  143.0040 C   0  0  2  0  0  3  0  0  0  0  0  0
  192.5640  170.6390  144.2590 O   0  0  0  0  0  1  0  0  0  0  0  0
  193.4850  171.5640  144.0550 O   0  0  0  0  0  0  0  0  0  0  0  0
  195.5850  175.0200  145.7540 C   0  0  0  0  0  2  0  0  0  0  0  0
  193.8010  177.0780  145.4650 S   0  0  0  0  0  0  0  0  0  0  0  0
  193.2080  174.4890  146.1780 C   0  0  0  0  0  2  0  0  0  0  0  0
  194.1600  175.3000  145.3150 C   0  0  2  0  0  3  0  0  0  0  0  0
  190.9400  175.6420  145.8550 C   0  0  2  0  0  3  0  0  0  0  0  0
  192.4730  176.9500  144.2320 C   0  0  0  0  0  2  0  0  0  0  0  0
  191.8080  174.4070  145.5690 C   0  0  0  0  0  2  0  0  0  0  0  0
  191.1000  176.8250  144.8850 C   0  0  1  0  0  3  0  0  0  0  0  0
  190.9790  176.0920  147.2820 C   0  0  0  0  0  3  0  0  0  0  0  0
  190.8170  175.2920  148.1870 O   0  0  0  0  0  0  0  0  0  0  0  0
  190.0900  176.7450  143.8420 N   0  0  0  0  0  2  0  0  0  0  0  0
  189.0570  177.7210  144.1530 C   0  0  0  0  0  2  0  0  0  0  0  0
  187.6820  177.1520  143.8010 C   0  0  1  0  0  3  0  0  0  0  0  0
  186.6960  177.4000  144.9640 C   0  0  0  0  0  3  0  0  0  0  0  0
  186.2290  177.1270  147.4160 C   0  0  0  0  0  2  0  0  0  0  0  0
  186.3130  178.8820  145.0780 C   0  0  0  0  0  2  0  0  0  0  0  0
  185.2760  179.0820  146.1770 C   0  0  0  0  0  2  0  0  0  0  0  0
  185.8290  178.5970  147.5140 C   0  0  0  0  0  2  0  0  0  0  0  0
  187.2630  176.9380  146.3110 C   0  0  0  0  0  2  0  0  0  0  0  0
  185.9030  177.0760  142.0290 C   0  0  0  0  0  1  0  0  0  0  0  0
  187.1710  177.7720  142.4860 C   0  0  2  0  0  3  0  0  0  0  0  0
  188.1190  177.6600  141.4660 O   0  0  0  0  0  1  0  0  0  0  0  0
  1 25  1  0  0  0  0
  2  1  2  0  0  0  0
  3  2  1  0  0  0  0
  3  5  1  0  0  0  0
  4  5  1  0  0  0  0
  6  2  1  0  0  0  0
  7  6  1  0  0  0  0
  9  7  1  0  0  0  0
  9  8  1  1  0  0  0
 10  9  1  0  0  0  0
 11 12  1  6  0  0  0
 11 10  1  0  0  0  0
 13 16  1  0  0  0  0
 14 17  1  0  0  0  0
 15 14  1  0  0  0  0
 15 18  1  0  0  0  0
 16 20  1  6  0  0  0
 17 11  1  1  0  0  0
 17 13  1  0  0  0  0
 18 19  1  0  0  0  0
 19 16  1  0  0  0  0
 20 22  1  0  0  0  0
 22 21  1  6  0  0  0
 22 24  1  0  0  0  0
 24 23  1  0  0  0  0
 28 26  1  0  0  0  0
 28 25  1  1  0  0  0
 28 27  1  0  0  0  0
 29 33  1  1  0  0  0
 30 32  1  0  0  0  0
 30 26  1  0  0  0  0
 31 29  1  0  0  0  0
 31 27  1  0  0  0  0
 32 35  1  6  0  0  0
 32 29  1  0  0  0  0
 33 34  2  0  0  0  0
 35 36  1  0  0  0  0
 37 36  1  1  0  0  0
 37 38  1  0  0  0  0
 38 40  1  0  0  0  0
 38 43  1  0  0  0  0
 39 42  1  0  0  0  0
 40 41  1  0  0  0  0
 41 42  1  0  0  0  0
 43 39  1  0  0  0  0
 45 44  1  6  0  0  0
 45 37  1  0  0  0  0
 46 45  1  0  0  0  0
M  END
>  <MODEL>
9

>  <REMARK>
 VINA RESULT:      -5.5      2.189      4.090
  Name = 
  19 active torsions:
  status: ('A' for Active; 'I' for Inactive)
    1  A    between atoms: O_4  and  C_14
    2  A    between atoms: O_4  and  C_19
    3  A    between atoms: C_6  and  C_31
    4  A    between atoms: C_6  and  C_41
    5  A    between atoms: C_9  and  C_33
    6  A    between atoms: C_13  and  C_42
    7  A    between atoms: C_16  and  O_32
    8  A    between atoms: C_16  and  C_44
    9  A    between atoms: C_17  and  C_42
   10  A    between atoms: C_18  and  C_24
   11  A    between atoms: C_19  and  C_31
   12  A    between atoms: C_20  and  C_44
   13  A    between atoms: N_21  and  C_29
   14  A    between atoms: N_21  and  C_41
   15  A    between atoms: C_22  and  C_29
   16  A    between atoms: C_23  and  C_33
   17  A    between atoms: N_27  and  C_39
   18  A    between atoms: N_27  and  C_43
   19  A    between atoms: C_33  and  C_43
                            x       y       z     vdW  Elec       q    Type
                         _______ _______ _______ _____ _____    ______ ____

>  <TORSDO>
F 19

$$$$
