=
 OpenBabel11042419263D

 40 46  0  0  1  0  0  0  0  0999 V2000
  190.1490  174.5420  142.2450 C   0  0  0  0  0  0  0  0  0  0  0  0
  189.0520  175.2020  141.7280 C   0  0  0  0  0  0  0  0  0  0  0  0
  190.7340  173.4910  141.5320 C   0  0  0  0  0  3  0  0  0  0  0  0
  190.2100  173.1430  140.2770 C   0  0  0  0  0  3  0  0  0  0  0  0
  188.4880  174.8490  140.5000 C   0  0  0  0  0  3  0  0  0  0  0  0
  189.0860  173.8160  139.7660 C   0  0  0  0  0  0  0  0  0  0  0  0
  190.1660  175.9450  144.7930 C   0  0  2  0  0  3  0  0  0  0  0  0
  189.6060  173.9180  144.2980 O   0  0  0  0  0  1  0  0  0  0  0  0
  188.4300  173.3650  138.2080 Cl  0  0  0  0  0  0  0  0  0  0  0  0
  190.4390  174.8670  143.6940 C   0  0  2  0  0  0  0  0  0  0  0  0
  189.9780  176.3860  143.4430 C   0  0  1  0  0  0  0  0  0  0  0  0
  188.6520  176.2520  142.6750 C   0  0  1  0  0  3  0  0  0  0  0  0
  191.1710  178.6150  143.4560 C   0  0  0  0  0  1  0  0  0  0  0  0
  191.1050  177.2410  142.8120 C   0  0  0  0  0  2  0  0  0  0  0  0
  191.4910  176.3190  145.4550 C   0  0  0  0  0  2  0  0  0  0  0  0
  196.3210  173.3590  145.3240 C   0  0  0  0  0  2  0  0  0  0  0  0
  192.7960  174.2750  146.1360 C   0  0  0  0  0  2  0  0  0  0  0  0
  193.8810  173.3500  145.7790 N   0  0  0  0  0  2  0  0  0  0  0  0
  192.5840  175.3430  145.0450 C   0  0  2  0  0  3  0  0  0  0  0  0
  197.1740  174.3170  144.5050 C   0  0  0  0  0  2  0  0  0  0  0  0
  194.8980  174.9810  144.3890 N   0  0  1  0  0  0  0  0  0  0  0  0
  194.3910  177.0030  145.7730 C   0  0  0  0  0  1  0  0  0  0  0  0
  193.9180  176.0360  144.6780 C   0  0  2  0  0  3  0  0  0  0  0  0
  196.2400  175.4530  144.0930 C   0  0  0  0  0  2  0  0  0  0  0  0
  195.0730  174.1610  145.5730 C   0  0  2  0  0  3  0  0  0  0  0  0
  188.0750  177.5370  142.0510 C   0  0  0  0  0  2  0  0  0  0  0  0
  186.6150  177.5580  141.9880 N   0  0  0  0  0  0  0  0  0  0  0  0
  186.2180  177.6400  140.5880 C   0  0  0  0  0  2  0  0  0  0  0  0
  185.1160  178.4870  140.4610 O   0  0  0  0  0  1  0  0  0  0  0  0
  186.1300  178.6930  142.6700 N   0  0  0  0  0  2  0  0  0  0  0  0
  186.4890  176.9820  146.9610 C   0  0  0  0  0  0  0  0  0  0  0  0
  185.5310  178.7230  143.9790 C   0  0  0  0  0  0  0  0  0  0  0  0
  184.2170  179.1200  144.2300 C   0  0  0  0  0  3  0  0  0  0  0  0
  187.0970  177.3370  145.6160 C   0  0  0  0  0  2  0  0  0  0  0  0
  185.1320  178.4220  146.1130 N   0  0  0  0  0  0  0  0  0  0  0  0
  185.3690  177.5940  147.2020 N   0  0  0  0  0  0  0  0  0  0  0  0
  186.0500  178.3000  145.1820 C   0  0  0  0  0  0  0  0  0  0  0  0
  183.9810  178.8690  145.5860 C   0  0  0  0  0  3  0  0  0  0  0  0
  188.0980  175.3210  147.5050 F   0  0  0  0  0  0  0  0  0  0  0  0
  187.0490  176.0840  147.8620 O   0  0  0  0  0  0  0  0  0  0  0  0
  1 10  1  0  0  0  0
  2  1  1  0  0  0  0
  2 12  1  0  0  0  0
  3  1  2  0  0  0  0
  4  3  1  0  0  0  0
  5  2  2  0  0  0  0
  6  4  2  0  0  0  0
  6  5  1  0  0  0  0
  7 15  1  6  0  0  0
  9  6  1  0  0  0  0
 10  8  1  1  0  0  0
 10  7  1  0  0  0  0
 11 14  1  6  0  0  0
 11 10  1  0  0  0  0
 11  7  1  0  0  0  0
 12 26  1  6  0  0  0
 12 11  1  0  0  0  0
 14 13  1  0  0  0  0
 18 17  1  0  0  0  0
 19 15  1  1  0  0  0
 19 17  1  0  0  0  0
 20 16  1  0  0  0  0
 21 24  1  1  0  0  0
 21 23  1  0  0  0  0
 21 25  1  0  0  0  0
 23 19  1  0  0  0  0
 23 22  1  1  0  0  0
 24 20  1  0  0  0  0
 25 16  1  6  0  0  0
 25 18  1  0  0  0  0
 27 26  1  0  0  0  0
 27 30  1  0  0  0  0
 28 27  1  0  0  0  0
 29 28  1  0  0  0  0
 30 32  1  0  0  0  0
 31 36  2  0  0  0  0
 31 40  1  0  0  0  0
 32 33  1  0  0  0  0
 32 37  2  0  0  0  0
 33 38  2  0  0  0  0
 34 31  1  0  0  0  0
 35 36  1  0  0  0  0
 37 34  1  0  0  0  0
 37 35  1  0  0  0  0
 38 35  1  0  0  0  0
 39 40  1  0  0  0  0
M  END
>  <MODEL>
1

>  <REMARK>
 VINA RESULT:      -8.2      0.000      0.000
  Name = 
  9 active torsions:
  status: ('A' for Active; 'I' for Inactive)
    1  A    between atoms: C_4  and  O_33
    2  A    between atoms: C_9  and  N_21
    3  A    between atoms: C_11  and  C_32
    4  A    between atoms: C_12  and  N_19
    5  A    between atoms: C_15  and  C_37
    6  A    between atoms: N_19  and  N_21
    7  A    between atoms: N_19  and  C_35
    8  A    between atoms: C_23  and  C_32
    9  A    between atoms: C_35  and  C_38
                            x       y       z     vdW  Elec       q    Type
                         _______ _______ _______ _____ _____    ______ ____

>  <TORSDO>
F 9

$$$$
=
 OpenBabel11042419263D

 40 46  0  0  1  0  0  0  0  0999 V2000
  193.9370  174.6370  145.5700 C   0  0  0  0  0  0  0  0  0  0  0  0
  193.8190  173.3870  144.9960 C   0  0  0  0  0  0  0  0  0  0  0  0
  195.1620  175.0510  146.1000 C   0  0  0  0  0  3  0  0  0  0  0  0
  196.2700  174.1930  146.0100 C   0  0  0  0  0  3  0  0  0  0  0  0
  194.8950  172.5000  144.9300 C   0  0  0  0  0  3  0  0  0  0  0  0
  196.1350  172.9190  145.4320 C   0  0  0  0  0  0  0  0  0  0  0  0
  191.1210  175.3330  145.3460 C   0  0  2  0  0  3  0  0  0  0  0  0
  192.3150  174.8040  147.0670 O   0  0  0  0  0  1  0  0  0  0  0  0
  197.5170  171.8500  145.3370 Cl  0  0  0  0  0  0  0  0  0  0  0  0
  192.6150  175.3350  145.8070 C   0  0  2  0  0  0  0  0  0  0  0  0
  192.0400  174.7040  144.4450 C   0  0  1  0  0  0  0  0  0  0  0  0
  192.4370  173.2190  144.5240 C   0  0  1  0  0  3  0  0  0  0  0  0
  191.5520  175.2430  142.0240 C   0  0  0  0  0  1  0  0  0  0  0  0
  192.4780  175.5110  143.1980 C   0  0  0  0  0  2  0  0  0  0  0  0
  190.7090  176.7650  145.0100 C   0  0  0  0  0  2  0  0  0  0  0  0
  185.2100  176.9200  146.3700 C   0  0  0  0  0  2  0  0  0  0  0  0
  188.7900  175.8680  146.3740 C   0  0  0  0  0  2  0  0  0  0  0  0
  187.4930  176.1720  146.9950 N   0  0  0  0  0  2  0  0  0  0  0  0
  189.3900  177.1110  145.6870 C   0  0  2  0  0  3  0  0  0  0  0  0
  184.7510  178.0080  145.4100 C   0  0  0  0  0  2  0  0  0  0  0  0
  187.1230  177.9670  145.4890 N   0  0  1  0  0  0  0  0  0  0  0  0
  188.1570  176.9490  143.4500 C   0  0  0  0  0  1  0  0  0  0  0  0
  188.3660  177.7680  144.7320 C   0  0  2  0  0  3  0  0  0  0  0  0
  186.0170  178.5130  144.7210 C   0  0  0  0  0  2  0  0  0  0  0  0
  186.6300  176.6770  145.9360 C   0  0  2  0  0  3  0  0  0  0  0  0
  192.2590  172.3820  143.2440 C   0  0  0  0  0  2  0  0  0  0  0  0
  191.5540  171.1200  143.4580 N   0  0  0  0  0  0  0  0  0  0  0  0
  192.5230  170.0340  143.3880 C   0  0  0  0  0  2  0  0  0  0  0  0
  192.8330  169.5960  144.6750 O   0  0  0  0  0  1  0  0  0  0  0  0
  190.5900  170.9410  142.4450 N   0  0  0  0  0  2  0  0  0  0  0  0
  189.5000  173.5850  138.8000 C   0  0  0  0  0  0  0  0  0  0  0  0
  189.6460  171.9170  141.9680 C   0  0  0  0  0  0  0  0  0  0  0  0
  188.8470  172.7050  142.7990 C   0  0  0  0  0  3  0  0  0  0  0  0
  190.1710  172.3650  139.4030 C   0  0  0  0  0  2  0  0  0  0  0  0
  188.5290  173.3150  140.7020 N   0  0  0  0  0  0  0  0  0  0  0  0
  188.5930  174.1120  139.5660 N   0  0  0  0  0  0  0  0  0  0  0  0
  189.4070  172.3390  140.6790 C   0  0  0  0  0  0  0  0  0  0  0  0
  188.1880  173.6150  141.9650 C   0  0  0  0  0  3  0  0  0  0  0  0
  188.8460  174.3610  136.6520 F   0  0  0  0  0  0  0  0  0  0  0  0
  189.8130  174.1160  137.5540 O   0  0  0  0  0  0  0  0  0  0  0  0
  1 10  1  0  0  0  0
  1  3  1  0  0  0  0
  2  1  2  0  0  0  0
  4  3  2  0  0  0  0
  5  2  1  0  0  0  0
  5  6  2  0  0  0  0
  6  4  1  0  0  0  0
  7 15  1  6  0  0  0
  7 10  1  0  0  0  0
  9  6  1  0  0  0  0
 10  8  1  1  0  0  0
 11 14  1  6  0  0  0
 11 12  1  0  0  0  0
 11  7  1  0  0  0  0
 11 10  1  0  0  0  0
 12 26  1  6  0  0  0
 12  2  1  0  0  0  0
 13 14  1  0  0  0  0
 17 18  1  0  0  0  0
 19 15  1  6  0  0  0
 19 17  1  0  0  0  0
 20 16  1  0  0  0  0
 21 24  1  6  0  0  0
 21 25  1  0  0  0  0
 23 22  1  6  0  0  0
 23 21  1  0  0  0  0
 23 19  1  0  0  0  0
 24 20  1  0  0  0  0
 25 16  1  1  0  0  0
 25 18  1  0  0  0  0
 26 27  1  0  0  0  0
 28 27  1  0  0  0  0
 28 29  1  0  0  0  0
 30 27  1  0  0  0  0
 31 34  1  0  0  0  0
 31 36  2  0  0  0  0
 32 30  1  0  0  0  0
 32 33  1  0  0  0  0
 34 37  1  0  0  0  0
 35 38  1  0  0  0  0
 36 35  1  0  0  0  0
 37 35  1  0  0  0  0
 37 32  2  0  0  0  0
 38 33  2  0  0  0  0
 39 40  1  0  0  0  0
 40 31  1  0  0  0  0
M  END
>  <MODEL>
2

>  <REMARK>
 VINA RESULT:      -7.9      3.624      7.950
  Name = 
  9 active torsions:
  status: ('A' for Active; 'I' for Inactive)
    1  A    between atoms: C_4  and  O_33
    2  A    between atoms: C_9  and  N_21
    3  A    between atoms: C_11  and  C_32
    4  A    between atoms: C_12  and  N_19
    5  A    between atoms: C_15  and  C_37
    6  A    between atoms: N_19  and  N_21
    7  A    between atoms: N_19  and  C_35
    8  A    between atoms: C_23  and  C_32
    9  A    between atoms: C_35  and  C_38
                            x       y       z     vdW  Elec       q    Type
                         _______ _______ _______ _____ _____    ______ ____

>  <TORSDO>
F 9

$$$$
=
 OpenBabel11042419263D

 40 46  0  0  1  0  0  0  0  0999 V2000
  188.4590  177.1430  146.2040 C   0  0  0  0  0  0  0  0  0  0  0  0
  187.8640  176.9770  144.9700 C   0  0  0  0  0  0  0  0  0  0  0  0
  187.7440  177.7310  147.2520 C   0  0  0  0  0  3  0  0  0  0  0  0
  186.4110  178.1150  147.0370 C   0  0  0  0  0  3  0  0  0  0  0  0
  186.5530  177.3860  144.7190 C   0  0  0  0  0  3  0  0  0  0  0  0
  185.8190  177.9490  145.7730 C   0  0  0  0  0  0  0  0  0  0  0  0
  191.0910  176.2060  145.3950 C   0  0  2  0  0  3  0  0  0  0  0  0
  190.3740  178.1940  145.8500 O   0  0  0  0  0  1  0  0  0  0  0  0
  184.1620  178.4440  145.5090 Cl  0  0  0  0  0  0  0  0  0  0  0  0
  189.9530  176.9070  146.2070 C   0  0  2  0  0  0  0  0  0  0  0  0
  189.7670  175.7290  145.1290 C   0  0  1  0  0  0  0  0  0  0  0  0
  188.8330  176.3380  144.0680 C   0  0  1  0  0  3  0  0  0  0  0  0
  189.8840  173.2070  145.0110 C   0  0  0  0  0  1  0  0  0  0  0  0
  189.3470  174.3940  145.7920 C   0  0  0  0  0  2  0  0  0  0  0  0
  191.9380  175.3720  146.3540 C   0  0  0  0  0  2  0  0  0  0  0  0
  197.1260  175.1610  144.0860 C   0  0  0  0  0  2  0  0  0  0  0  0
  193.6310  176.2960  144.7340 C   0  0  0  0  0  2  0  0  0  0  0  0
  195.0590  176.4880  144.4460 N   0  0  0  0  0  2  0  0  0  0  0  0
  193.4190  175.6050  146.0960 C   0  0  2  0  0  3  0  0  0  0  0  0
  197.6710  173.9510  144.8330 C   0  0  0  0  0  2  0  0  0  0  0  0
  195.6510  174.6710  145.8510 N   0  0  1  0  0  0  0  0  0  0  0  0
  193.7080  173.1750  145.3460 C   0  0  0  0  0  1  0  0  0  0  0  0
  194.2700  174.3180  146.2050 C   0  0  2  0  0  3  0  0  0  0  0  0
  196.5830  173.5560  145.8290 C   0  0  0  0  0  2  0  0  0  0  0  0
  195.6760  175.1700  144.4890 C   0  0  2  0  0  3  0  0  0  0  0  0
  188.2460  175.3720  143.0220 C   0  0  0  0  0  2  0  0  0  0  0  0
  188.5700  175.7300  141.6420 N   0  0  0  0  0  0  0  0  0  0  0  0
  187.3960  176.3520  141.0420 C   0  0  0  0  0  2  0  0  0  0  0  0
  187.5650  177.7360  141.0030 O   0  0  0  0  0  1  0  0  0  0  0  0
  188.8940  174.5650  140.9170 N   0  0  0  0  0  2  0  0  0  0  0  0
  193.3980  173.7380  141.6230 C   0  0  0  0  0  0  0  0  0  0  0  0
  189.8340  173.5440  141.2980 C   0  0  0  0  0  0  0  0  0  0  0  0
  189.5790  172.1740  141.2140 C   0  0  0  0  0  3  0  0  0  0  0  0
  192.2180  174.6900  141.5390 C   0  0  0  0  0  2  0  0  0  0  0  0
  191.6670  172.4820  141.8630 N   0  0  0  0  0  0  0  0  0  0  0  0
  193.0530  172.4960  141.7830 N   0  0  0  0  0  0  0  0  0  0  0  0
  191.1440  173.6760  141.7040 C   0  0  0  0  0  0  0  0  0  0  0  0
  190.7800  171.5300  141.5330 C   0  0  0  0  0  3  0  0  0  0  0  0
  195.7150  173.2170  141.5870 F   0  0  0  0  0  0  0  0  0  0  0  0
  194.7280  174.1290  141.5290 O   0  0  0  0  0  0  0  0  0  0  0  0
  1 10  1  0  0  0  0
  1  3  1  0  0  0  0
  2  1  2  0  0  0  0
  4  3  2  0  0  0  0
  5  2  1  0  0  0  0
  5  6  2  0  0  0  0
  6  4  1  0  0  0  0
  7 10  1  0  0  0  0
  7 15  1  1  0  0  0
  9  6  1  0  0  0  0
 10  8  1  6  0  0  0
 11  7  1  0  0  0  0
 11 14  1  1  0  0  0
 11 10  1  0  0  0  0
 12 26  1  1  0  0  0
 12  2  1  0  0  0  0
 12 11  1  0  0  0  0
 13 14  1  0  0  0  0
 16 20  1  0  0  0  0
 17 19  1  0  0  0  0
 18 25  1  0  0  0  0
 18 17  1  0  0  0  0
 19 23  1  0  0  0  0
 19 15  1  6  0  0  0
 20 24  1  0  0  0  0
 21 24  1  6  0  0  0
 21 23  1  0  0  0  0
 23 22  1  6  0  0  0
 25 16  1  1  0  0  0
 25 21  1  0  0  0  0
 27 26  1  0  0  0  0
 28 27  1  0  0  0  0
 29 28  1  0  0  0  0
 30 32  1  0  0  0  0
 30 27  1  0  0  0  0
 31 36  2  0  0  0  0
 32 37  2  0  0  0  0
 33 32  1  0  0  0  0
 33 38  2  0  0  0  0
 34 31  1  0  0  0  0
 34 37  1  0  0  0  0
 36 35  1  0  0  0  0
 37 35  1  0  0  0  0
 38 35  1  0  0  0  0
 40 39  1  0  0  0  0
 40 31  1  0  0  0  0
M  END
>  <MODEL>
3

>  <REMARK>
 VINA RESULT:      -7.9      3.257      6.002
  Name = 
  9 active torsions:
  status: ('A' for Active; 'I' for Inactive)
    1  A    between atoms: C_4  and  O_33
    2  A    between atoms: C_9  and  N_21
    3  A    between atoms: C_11  and  C_32
    4  A    between atoms: C_12  and  N_19
    5  A    between atoms: C_15  and  C_37
    6  A    between atoms: N_19  and  N_21
    7  A    between atoms: N_19  and  C_35
    8  A    between atoms: C_23  and  C_32
    9  A    between atoms: C_35  and  C_38
                            x       y       z     vdW  Elec       q    Type
                         _______ _______ _______ _____ _____    ______ ____

>  <TORSDO>
F 9

$$$$
=
 OpenBabel11042419263D

 40 46  0  0  1  0  0  0  0  0999 V2000
  188.8720  176.8830  146.1310 C   0  0  0  0  0  0  0  0  0  0  0  0
  188.0510  176.5140  145.0840 C   0  0  0  0  0  0  0  0  0  0  0  0
  188.3370  177.5460  147.2390 C   0  0  0  0  0  3  0  0  0  0  0  0
  186.9570  177.7990  147.2820 C   0  0  0  0  0  3  0  0  0  0  0  0
  186.6820  176.7890  145.0850 C   0  0  0  0  0  3  0  0  0  0  0  0
  186.1330  177.4270  146.2060 C   0  0  0  0  0  0  0  0  0  0  0  0
  191.3570  176.0470  144.8700 C   0  0  2  0  0  3  0  0  0  0  0  0
  190.5550  178.0180  145.2490 O   0  0  0  0  0  1  0  0  0  0  0  0
  184.4160  177.7590  146.2610 Cl  0  0  0  0  0  0  0  0  0  0  0  0
  190.3500  176.7610  145.8300 C   0  0  2  0  0  0  0  0  0  0  0  0
  190.0610  175.4420  144.9570 C   0  0  1  0  0  0  0  0  0  0  0  0
  188.8700  175.8370  144.0670 C   0  0  1  0  0  3  0  0  0  0  0  0
  189.9860  172.9160  144.9940 C   0  0  0  0  0  1  0  0  0  0  0  0
  189.9260  174.1770  145.8390 C   0  0  0  0  0  2  0  0  0  0  0  0
  192.4650  175.4100  145.7050 C   0  0  0  0  0  2  0  0  0  0  0  0
  197.7390  174.7260  143.7500 C   0  0  0  0  0  2  0  0  0  0  0  0
  194.5380  173.9910  145.5200 C   0  0  0  0  0  2  0  0  0  0  0  0
  195.7130  173.6550  144.7040 N   0  0  0  0  0  2  0  0  0  0  0  0
  193.6500  175.0410  144.8240 C   0  0  2  0  0  3  0  0  0  0  0  0
  197.9170  176.0660  143.0500 C   0  0  0  0  0  2  0  0  0  0  0  0
  195.6310  175.7580  143.6100 N   0  0  1  0  0  0  0  0  0  0  0  0
  194.9000  177.1510  145.5570 C   0  0  0  0  0  1  0  0  0  0  0  0
  194.4830  176.2640  144.3740 C   0  0  2  0  0  3  0  0  0  0  0  0
  196.5690  176.7750  143.1670 C   0  0  0  0  0  2  0  0  0  0  0  0
  196.4290  174.9020  144.4670 C   0  0  2  0  0  3  0  0  0  0  0  0
  188.1760  174.7040  143.2890 C   0  0  0  0  0  2  0  0  0  0  0  0
  188.1330  174.9210  141.8440 N   0  0  0  0  0  0  0  0  0  0  0  0
  189.3670  174.4050  141.2650 C   0  0  0  0  0  2  0  0  0  0  0  0
  189.2480  173.0320  141.0500 O   0  0  0  0  0  1  0  0  0  0  0  0
  188.0430  176.3030  141.5780 N   0  0  0  0  0  2  0  0  0  0  0  0
  183.8630  178.2910  141.7740 C   0  0  0  0  0  0  0  0  0  0  0  0
  187.0420  176.9670  140.7840 C   0  0  0  0  0  0  0  0  0  0  0  0
  186.9420  176.8540  139.3970 C   0  0  0  0  0  3  0  0  0  0  0  0
  185.1550  177.8460  142.4340 C   0  0  0  0  0  2  0  0  0  0  0  0
  185.2540  178.0630  140.1470 N   0  0  0  0  0  0  0  0  0  0  0  0
  183.9450  178.3830  140.4810 N   0  0  0  0  0  0  0  0  0  0  0  0
  185.9700  177.7270  141.1960 C   0  0  0  0  0  0  0  0  0  0  0  0
  185.7670  177.5210  139.0310 C   0  0  0  0  0  3  0  0  0  0  0  0
  181.4920  178.2870  141.9150 F   0  0  0  0  0  0  0  0  0  0  0  0
  182.6880  178.5710  142.4610 O   0  0  0  0  0  0  0  0  0  0  0  0
  1  3  1  0  0  0  0
  2  5  1  0  0  0  0
  2  1  2  0  0  0  0
  3  4  2  0  0  0  0
  5  6  2  0  0  0  0
  6  9  1  0  0  0  0
  6  4  1  0  0  0  0
  7 11  1  0  0  0  0
  7 15  1  1  0  0  0
  7 10  1  0  0  0  0
 10  8  1  6  0  0  0
 10  1  1  0  0  0  0
 11 10  1  0  0  0  0
 11 14  1  1  0  0  0
 12 26  1  1  0  0  0
 12 11  1  0  0  0  0
 12  2  1  0  0  0  0
 13 14  1  0  0  0  0
 18 17  1  0  0  0  0
 19 17  1  0  0  0  0
 19 15  1  1  0  0  0
 20 24  1  0  0  0  0
 20 16  1  0  0  0  0
 21 24  1  1  0  0  0
 21 23  1  0  0  0  0
 21 25  1  0  0  0  0
 23 19  1  0  0  0  0
 23 22  1  1  0  0  0
 25 16  1  6  0  0  0
 25 18  1  0  0  0  0
 27 26  1  0  0  0  0
 28 27  1  0  0  0  0
 29 28  1  0  0  0  0
 30 27  1  0  0  0  0
 31 34  1  0  0  0  0
 31 40  1  0  0  0  0
 32 37  2  0  0  0  0
 32 30  1  0  0  0  0
 33 32  1  0  0  0  0
 35 36  1  0  0  0  0
 35 37  1  0  0  0  0
 36 31  2  0  0  0  0
 37 34  1  0  0  0  0
 38 33  2  0  0  0  0
 38 35  1  0  0  0  0
 39 40  1  0  0  0  0
M  END
>  <MODEL>
4

>  <REMARK>
 VINA RESULT:      -7.8      3.099      4.925
  Name = 
  9 active torsions:
  status: ('A' for Active; 'I' for Inactive)
    1  A    between atoms: C_4  and  O_33
    2  A    between atoms: C_9  and  N_21
    3  A    between atoms: C_11  and  C_32
    4  A    between atoms: C_12  and  N_19
    5  A    between atoms: C_15  and  C_37
    6  A    between atoms: N_19  and  N_21
    7  A    between atoms: N_19  and  C_35
    8  A    between atoms: C_23  and  C_32
    9  A    between atoms: C_35  and  C_38
                            x       y       z     vdW  Elec       q    Type
                         _______ _______ _______ _____ _____    ______ ____

>  <TORSDO>
F 9

$$$$
=
 OpenBabel11042419263D

 40 46  0  0  1  0  0  0  0  0999 V2000
  188.5780  177.0480  146.0610 C   0  0  0  0  0  0  0  0  0  0  0  0
  187.8370  176.8670  144.9120 C   0  0  0  0  0  0  0  0  0  0  0  0
  187.9780  177.5850  147.2040 C   0  0  0  0  0  3  0  0  0  0  0  0
  186.6110  177.9030  147.1710 C   0  0  0  0  0  3  0  0  0  0  0  0
  186.4860  177.2120  144.8410 C   0  0  0  0  0  3  0  0  0  0  0  0
  185.8690  177.7230  145.9910 C   0  0  0  0  0  0  0  0  0  0  0  0
  191.1250  176.2560  144.9000 C   0  0  2  0  0  3  0  0  0  0  0  0
  190.3780  178.1990  145.4820 O   0  0  0  0  0  1  0  0  0  0  0  0
  184.1690  178.1370  145.9540 Cl  0  0  0  0  0  0  0  0  0  0  0  0
  190.0700  176.8880  145.8660 C   0  0  2  0  0  0  0  0  0  0  0  0
  189.8030  175.7160  144.7990 C   0  0  1  0  0  0  0  0  0  0  0  0
  188.7110  176.2890  143.8800 C   0  0  1  0  0  3  0  0  0  0  0  0
  189.9630  173.2020  144.5880 C   0  0  0  0  0  1  0  0  0  0  0  0
  189.5380  174.3530  145.4850 C   0  0  0  0  0  2  0  0  0  0  0  0
  192.1300  175.4540  145.7260 C   0  0  0  0  0  2  0  0  0  0  0  0
  197.3980  174.4640  143.8900 C   0  0  0  0  0  2  0  0  0  0  0  0
  194.1010  173.8970  145.5430 C   0  0  0  0  0  2  0  0  0  0  0  0
  195.2730  173.5080  144.7470 N   0  0  0  0  0  2  0  0  0  0  0  0
  193.3110  175.0330  144.8640 C   0  0  2  0  0  3  0  0  0  0  0  0
  197.6910  175.8130  143.2470 C   0  0  0  0  0  2  0  0  0  0  0  0
  195.3730  175.6500  143.7330 N   0  0  1  0  0  0  0  0  0  0  0  0
  194.6840  177.0200  145.7110 C   0  0  0  0  0  1  0  0  0  0  0  0
  194.2420  176.2090  144.4840 C   0  0  2  0  0  3  0  0  0  0  0  0
  196.3940  176.6120  143.3550 C   0  0  0  0  0  2  0  0  0  0  0  0
  196.0820  174.7070  144.5780 C   0  0  2  0  0  3  0  0  0  0  0  0
  188.0400  175.3090  142.9000 C   0  0  0  0  0  2  0  0  0  0  0  0
  188.2850  175.6210  141.4930 N   0  0  0  0  0  0  0  0  0  0  0  0
  187.2120  176.4870  141.0210 C   0  0  0  0  0  2  0  0  0  0  0  0
  187.6600  177.8070  140.9730 O   0  0  0  0  0  1  0  0  0  0  0  0
  188.2790  174.4300  140.7380 N   0  0  0  0  0  2  0  0  0  0  0  0
  192.8860  173.9630  140.5640 C   0  0  0  0  0  0  0  0  0  0  0  0
  189.3570  173.9080  139.9390 C   0  0  0  0  0  0  0  0  0  0  0  0
  189.2630  173.6460  138.5720 C   0  0  0  0  0  3  0  0  0  0  0  0
  191.5980  174.1590  141.3430 C   0  0  0  0  0  2  0  0  0  0  0  0
  191.3350  173.2800  139.2350 N   0  0  0  0  0  0  0  0  0  0  0  0
  192.7020  173.4860  139.3690 N   0  0  0  0  0  0  0  0  0  0  0  0
  190.6650  173.6640  140.2970 C   0  0  0  0  0  0  0  0  0  0  0  0
  190.5490  173.2960  138.1470 C   0  0  0  0  0  3  0  0  0  0  0  0
  194.9390  173.2990  141.5570 F   0  0  0  0  0  0  0  0  0  0  0  0
  194.1510  174.2650  141.0520 O   0  0  0  0  0  0  0  0  0  0  0  0
  1  3  1  0  0  0  0
  2  1  2  0  0  0  0
  4  3  2  0  0  0  0
  5  2  1  0  0  0  0
  5  6  2  0  0  0  0
  6  4  1  0  0  0  0
  7 15  1  1  0  0  0
  7 10  1  0  0  0  0
  9  6  1  0  0  0  0
 10  8  1  6  0  0  0
 10  1  1  0  0  0  0
 11  7  1  0  0  0  0
 11 14  1  1  0  0  0
 11 10  1  0  0  0  0
 12 26  1  1  0  0  0
 12 11  1  0  0  0  0
 12  2  1  0  0  0  0
 13 14  1  0  0  0  0
 18 17  1  0  0  0  0
 19 17  1  0  0  0  0
 19 15  1  1  0  0  0
 20 24  1  0  0  0  0
 20 16  1  0  0  0  0
 21 24  1  1  0  0  0
 21 23  1  0  0  0  0
 21 25  1  0  0  0  0
 23 19  1  0  0  0  0
 23 22  1  1  0  0  0
 25 16  1  6  0  0  0
 25 18  1  0  0  0  0
 27 26  1  0  0  0  0
 28 27  1  0  0  0  0
 29 28  1  0  0  0  0
 30 27  1  0  0  0  0
 31 40  1  0  0  0  0
 31 34  1  0  0  0  0
 32 37  2  0  0  0  0
 32 30  1  0  0  0  0
 33 32  1  0  0  0  0
 35 36  1  0  0  0  0
 35 37  1  0  0  0  0
 36 31  2  0  0  0  0
 37 34  1  0  0  0  0
 38 33  2  0  0  0  0
 38 35  1  0  0  0  0
 40 39  1  0  0  0  0
M  END
>  <MODEL>
5

>  <REMARK>
 VINA RESULT:      -7.8      3.192      5.985
  Name = 
  9 active torsions:
  status: ('A' for Active; 'I' for Inactive)
    1  A    between atoms: C_4  and  O_33
    2  A    between atoms: C_9  and  N_21
    3  A    between atoms: C_11  and  C_32
    4  A    between atoms: C_12  and  N_19
    5  A    between atoms: C_15  and  C_37
    6  A    between atoms: N_19  and  N_21
    7  A    between atoms: N_19  and  C_35
    8  A    between atoms: C_23  and  C_32
    9  A    between atoms: C_35  and  C_38
                            x       y       z     vdW  Elec       q    Type
                         _______ _______ _______ _____ _____    ______ ____

>  <TORSDO>
F 9

$$$$
=
 OpenBabel11042419263D

 40 46  0  0  1  0  0  0  0  0999 V2000
  187.4380  176.6990  141.3540 C   0  0  0  0  0  0  0  0  0  0  0  0
  186.7090  177.1240  142.4460 C   0  0  0  0  0  0  0  0  0  0  0  0
  186.9370  176.8880  140.0630 C   0  0  0  0  0  3  0  0  0  0  0  0
  185.7050  177.5410  139.8970 C   0  0  0  0  0  3  0  0  0  0  0  0
  185.4640  177.7400  142.3110 C   0  0  0  0  0  3  0  0  0  0  0  0
  184.9680  177.9600  141.0180 C   0  0  0  0  0  0  0  0  0  0  0  0
  189.5550  175.4230  142.8860 C   0  0  2  0  0  3  0  0  0  0  0  0
  187.9480  174.5760  141.7160 O   0  0  0  0  0  1  0  0  0  0  0  0
  183.4270  178.7600  140.8040 Cl  0  0  0  0  0  0  0  0  0  0  0  0
  188.6110  175.8090  141.7020 C   0  0  2  0  0  0  0  0  0  0  0  0
  188.8660  176.6690  143.0350 C   0  0  1  0  0  0  0  0  0  0  0  0
  187.4680  176.8050  143.6650 C   0  0  1  0  0  3  0  0  0  0  0  0
  190.6020  178.2880  143.9030 C   0  0  0  0  0  1  0  0  0  0  0  0
  189.6670  177.9630  142.7510 C   0  0  0  0  0  2  0  0  0  0  0  0
  191.0030  175.4970  142.4050 C   0  0  0  0  0  2  0  0  0  0  0  0
  194.9890  172.0510  144.4900 C   0  0  0  0  0  2  0  0  0  0  0  0
  193.3940  175.1280  143.1070 C   0  0  0  0  0  2  0  0  0  0  0  0
  194.3000  174.3830  143.9930 N   0  0  0  0  0  2  0  0  0  0  0  0
  191.9210  174.7520  143.3640 C   0  0  2  0  0  3  0  0  0  0  0  0
  194.1600  170.7830  144.6460 C   0  0  0  0  0  2  0  0  0  0  0  0
  192.7230  172.6280  144.2320 N   0  0  1  0  0  0  0  0  0  0  0  0
  191.7980  172.6520  141.9070 C   0  0  0  0  0  1  0  0  0  0  0  0
  191.7240  173.2180  143.3320 C   0  0  2  0  0  3  0  0  0  0  0  0
  192.7320  171.1750  144.2710 C   0  0  0  0  0  2  0  0  0  0  0  0
  194.0500  172.9680  143.7540 C   0  0  2  0  0  3  0  0  0  0  0  0
  187.3230  177.8020  144.8290 C   0  0  0  0  0  2  0  0  0  0  0  0
  187.0050  177.1710  146.1090 N   0  0  0  0  0  0  0  0  0  0  0  0
  186.0090  177.9890  146.7890 C   0  0  0  0  0  2  0  0  0  0  0  0
  186.5840  178.6010  147.9030 O   0  0  0  0  0  1  0  0  0  0  0  0
  188.1680  177.1080  146.9050 N   0  0  0  0  0  2  0  0  0  0  0  0
  192.7370  176.3440  146.9910 C   0  0  0  0  0  0  0  0  0  0  0  0
  189.1650  176.0700  146.8980 C   0  0  0  0  0  0  0  0  0  0  0  0
  188.9400  174.7720  146.4370 C   0  0  0  0  0  3  0  0  0  0  0  0
  191.5290  177.2180  147.2800 C   0  0  0  0  0  2  0  0  0  0  0  0
  191.0670  174.9850  146.9850 N   0  0  0  0  0  0  0  0  0  0  0  0
  192.4400  175.0930  146.8080 N   0  0  0  0  0  0  0  0  0  0  0  0
  190.5010  176.1450  147.2240 C   0  0  0  0  0  0  0  0  0  0  0  0
  190.1810  174.1250  146.4610 C   0  0  0  0  0  3  0  0  0  0  0  0
  195.0220  176.0320  146.4230 F   0  0  0  0  0  0  0  0  0  0  0  0
  194.0430  176.8130  146.9140 O   0  0  0  0  0  0  0  0  0  0  0  0
  1 10  1  0  0  0  0
  1  2  1  0  0  0  0
  2 12  1  0  0  0  0
  3  1  2  0  0  0  0
  4  3  1  0  0  0  0
  4  6  2  0  0  0  0
  5  2  2  0  0  0  0
  6  5  1  0  0  0  0
  7 15  1  6  0  0  0
  7 11  1  0  0  0  0
  9  6  1  0  0  0  0
 10  8  1  1  0  0  0
 10  7  1  0  0  0  0
 10 11  1  0  0  0  0
 11 14  1  6  0  0  0
 11 12  1  0  0  0  0
 12 26  1  1  0  0  0
 14 13  1  0  0  0  0
 16 20  1  0  0  0  0
 17 19  1  0  0  0  0
 17 18  1  0  0  0  0
 19 15  1  6  0  0  0
 21 24  1  6  0  0  0
 23 22  1  6  0  0  0
 23 19  1  0  0  0  0
 23 21  1  0  0  0  0
 24 20  1  0  0  0  0
 25 18  1  0  0  0  0
 25 21  1  0  0  0  0
 25 16  1  1  0  0  0
 26 27  1  0  0  0  0
 27 28  1  0  0  0  0
 27 30  1  0  0  0  0
 28 29  1  0  0  0  0
 31 34  1  0  0  0  0
 32 30  1  0  0  0  0
 32 37  2  0  0  0  0
 33 38  2  0  0  0  0
 33 32  1  0  0  0  0
 35 37  1  0  0  0  0
 36 35  1  0  0  0  0
 36 31  2  0  0  0  0
 37 34  1  0  0  0  0
 38 35  1  0  0  0  0
 39 40  1  0  0  0  0
 40 31  1  0  0  0  0
M  END
>  <MODEL>
6

>  <REMARK>
 VINA RESULT:      -7.7      2.750      4.928
  Name = 
  9 active torsions:
  status: ('A' for Active; 'I' for Inactive)
    1  A    between atoms: C_4  and  O_33
    2  A    between atoms: C_9  and  N_21
    3  A    between atoms: C_11  and  C_32
    4  A    between atoms: C_12  and  N_19
    5  A    between atoms: C_15  and  C_37
    6  A    between atoms: N_19  and  N_21
    7  A    between atoms: N_19  and  C_35
    8  A    between atoms: C_23  and  C_32
    9  A    between atoms: C_35  and  C_38
                            x       y       z     vdW  Elec       q    Type
                         _______ _______ _______ _____ _____    ______ ____

>  <TORSDO>
F 9

$$$$
=
 OpenBabel11042419263D

 40 46  0  0  1  0  0  0  0  0999 V2000
  191.1510  175.2780  145.5780 C   0  0  0  0  0  0  0  0  0  0  0  0
  190.4410  176.3050  144.9890 C   0  0  0  0  0  0  0  0  0  0  0  0
  190.6100  174.5870  146.6660 C   0  0  0  0  0  3  0  0  0  0  0  0
  189.3280  174.9320  147.1240 C   0  0  0  0  0  3  0  0  0  0  0  0
  189.1820  176.6930  145.4500 C   0  0  0  0  0  3  0  0  0  0  0  0
  188.6190  175.9860  146.5210 C   0  0  0  0  0  0  0  0  0  0  0  0
  193.5580  175.6260  143.9810 C   0  0  2  0  0  3  0  0  0  0  0  0
  193.1570  176.0840  146.0540 O   0  0  0  0  0  1  0  0  0  0  0  0
  187.0290  176.4190  147.1080 Cl  0  0  0  0  0  0  0  0  0  0  0  0
  192.5950  175.1910  145.1340 C   0  0  2  0  0  0  0  0  0  0  0  0
  192.1640  175.6360  143.6510 C   0  0  1  0  0  0  0  0  0  0  0  0
  191.2390  176.8450  143.8780 C   0  0  1  0  0  3  0  0  0  0  0  0
  192.0760  174.5440  141.3730 C   0  0  0  0  0  1  0  0  0  0  0  0
  191.6220  174.4480  142.8200 C   0  0  0  0  0  2  0  0  0  0  0  0
  194.3580  174.4080  143.5240 C   0  0  0  0  0  2  0  0  0  0  0  0
  196.6760  170.3600  146.7410 C   0  0  0  0  0  2  0  0  0  0  0  0
  196.2660  173.6160  144.9650 C   0  0  0  0  0  2  0  0  0  0  0  0
  196.6670  172.7550  146.0860 N   0  0  0  0  0  2  0  0  0  0  0  0
  194.7460  173.5480  144.7170 C   0  0  2  0  0  3  0  0  0  0  0  0
  195.6060  169.2880  146.5940 C   0  0  0  0  0  2  0  0  0  0  0  0
  194.7810  171.3530  145.7640 N   0  0  1  0  0  0  0  0  0  0  0  0
  194.6870  171.4410  143.2640 C   0  0  0  0  0  1  0  0  0  0  0  0
  194.2680  172.0810  144.5960 C   0  0  2  0  0  3  0  0  0  0  0  0
  194.4860  169.9300  145.7780 C   0  0  0  0  0  2  0  0  0  0  0  0
  196.2310  171.4050  145.7540 C   0  0  2  0  0  3  0  0  0  0  0  0
  190.4430  177.3510  142.6600 C   0  0  0  0  0  2  0  0  0  0  0  0
  189.0060  177.1010  142.7500 N   0  0  0  0  0  0  0  0  0  0  0  0
  188.6840  175.9610  141.9000 C   0  0  0  0  0  2  0  0  0  0  0  0
  188.1540  174.9310  142.6770 O   0  0  0  0  0  1  0  0  0  0  0  0
  188.3010  178.2310  142.2870 N   0  0  0  0  0  2  0  0  0  0  0  0
  184.4450  178.8020  144.7910 C   0  0  0  0  0  0  0  0  0  0  0  0
  186.8730  178.3790  142.1890 C   0  0  0  0  0  0  0  0  0  0  0  0
  186.1170  177.9730  141.0880 C   0  0  0  0  0  3  0  0  0  0  0  0
  185.9480  178.9230  144.6190 C   0  0  0  0  0  2  0  0  0  0  0  0
  184.7590  178.7110  142.6630 N   0  0  0  0  0  0  0  0  0  0  0  0
  183.8040  178.6610  143.6700 N   0  0  0  0  0  0  0  0  0  0  0  0
  185.9780  178.8280  143.1350 C   0  0  0  0  0  0  0  0  0  0  0  0
  184.7750  178.1520  141.4430 C   0  0  0  0  0  3  0  0  0  0  0  0
  184.0650  177.9020  146.9560 F   0  0  0  0  0  0  0  0  0  0  0  0
  183.7920  178.8260  146.0170 O   0  0  0  0  0  0  0  0  0  0  0  0
  1  3  1  0  0  0  0
  2  5  1  0  0  0  0
  2  1  2  0  0  0  0
  3  4  2  0  0  0  0
  5  6  2  0  0  0  0
  6  9  1  0  0  0  0
  6  4  1  0  0  0  0
  7 15  1  6  0  0  0
  7 10  1  0  0  0  0
 10  1  1  0  0  0  0
 10  8  1  1  0  0  0
 11 14  1  6  0  0  0
 11 12  1  0  0  0  0
 11  7  1  0  0  0  0
 11 10  1  0  0  0  0
 12 26  1  6  0  0  0
 12  2  1  0  0  0  0
 13 14  1  0  0  0  0
 17 18  1  0  0  0  0
 19 15  1  6  0  0  0
 19 17  1  0  0  0  0
 20 16  1  0  0  0  0
 21 24  1  6  0  0  0
 23 22  1  6  0  0  0
 23 19  1  0  0  0  0
 23 21  1  0  0  0  0
 24 20  1  0  0  0  0
 25 21  1  0  0  0  0
 25 18  1  0  0  0  0
 25 16  1  1  0  0  0
 26 27  1  0  0  0  0
 28 29  1  0  0  0  0
 28 27  1  0  0  0  0
 30 27  1  0  0  0  0
 31 40  1  0  0  0  0
 32 30  1  0  0  0  0
 32 37  2  0  0  0  0
 33 38  2  0  0  0  0
 33 32  1  0  0  0  0
 34 31  1  0  0  0  0
 35 37  1  0  0  0  0
 35 36  1  0  0  0  0
 36 31  2  0  0  0  0
 37 34  1  0  0  0  0
 38 35  1  0  0  0  0
 40 39  1  0  0  0  0
M  END
>  <MODEL>
7

>  <REMARK>
 VINA RESULT:      -7.7      2.752      4.323
  Name = 
  9 active torsions:
  status: ('A' for Active; 'I' for Inactive)
    1  A    between atoms: C_4  and  O_33
    2  A    between atoms: C_9  and  N_21
    3  A    between atoms: C_11  and  C_32
    4  A    between atoms: C_12  and  N_19
    5  A    between atoms: C_15  and  C_37
    6  A    between atoms: N_19  and  N_21
    7  A    between atoms: N_19  and  C_35
    8  A    between atoms: C_23  and  C_32
    9  A    between atoms: C_35  and  C_38
                            x       y       z     vdW  Elec       q    Type
                         _______ _______ _______ _____ _____    ______ ____

>  <TORSDO>
F 9

$$$$
=
 OpenBabel11042419263D

 40 46  0  0  1  0  0  0  0  0999 V2000
  189.4180  172.8490  139.8620 C   0  0  0  0  0  0  0  0  0  0  0  0
  190.7710  173.1120  139.9290 C   0  0  0  0  0  0  0  0  0  0  0  0
  188.9420  171.8430  139.0160 C   0  0  0  0  0  3  0  0  0  0  0  0
  189.8600  171.0890  138.2680 C   0  0  0  0  0  3  0  0  0  0  0  0
  191.7010  172.4030  139.1650 C   0  0  0  0  0  3  0  0  0  0  0  0
  191.2350  171.3730  138.3380 C   0  0  0  0  0  0  0  0  0  0  0  0
  188.6030  175.0380  141.5950 C   0  0  2  0  0  3  0  0  0  0  0  0
  188.4150  174.7800  139.4580 O   0  0  0  0  0  1  0  0  0  0  0  0
  192.3710  170.4390  137.3900 Cl  0  0  0  0  0  0  0  0  0  0  0  0
  188.5520  173.8930  140.5320 C   0  0  2  0  0  0  0  0  0  0  0  0
  189.6670  174.0830  141.6730 C   0  0  1  0  0  0  0  0  0  0  0  0
  190.9860  174.2040  140.8890 C   0  0  1  0  0  3  0  0  0  0  0  0
  190.0240  173.5400  144.1160 C   0  0  0  0  0  1  0  0  0  0  0  0
  189.5690  172.9970  142.7720 C   0  0  0  0  0  2  0  0  0  0  0  0
  187.4460  174.8520  142.5750 C   0  0  0  0  0  2  0  0  0  0  0  0
  185.5660  180.0330  143.8890 C   0  0  0  0  0  2  0  0  0  0  0  0
  187.3730  177.3200  142.0740 C   0  0  0  0  0  2  0  0  0  0  0  0
  186.5880  178.5580  142.1740 N   0  0  0  0  0  2  0  0  0  0  0  0
  186.5990  176.1140  142.6430 C   0  0  2  0  0  3  0  0  0  0  0  0
  184.7700  179.6950  145.1420 C   0  0  0  0  0  2  0  0  0  0  0  0
  185.3430  177.6950  143.9990 N   0  0  1  0  0  0  0  0  0  0  0  0
  187.1800  176.4140  145.1170 C   0  0  0  0  0  1  0  0  0  0  0  0
  186.0640  176.4160  144.0630 C   0  0  2  0  0  3  0  0  0  0  0  0
  184.8300  178.1740  145.2710 C   0  0  0  0  0  2  0  0  0  0  0  0
  186.2640  178.7360  143.5820 C   0  0  2  0  0  3  0  0  0  0  0  0
  192.2900  174.1360  141.7060 C   0  0  0  0  0  2  0  0  0  0  0  0
  193.1600  175.2970  141.5250 N   0  0  0  0  0  0  0  0  0  0  0  0
  194.4710  174.8260  141.0960 C   0  0  0  0  0  2  0  0  0  0  0  0
  194.9580  175.6510  140.0830 O   0  0  0  0  0  1  0  0  0  0  0  0
  193.2960  175.9790  142.7520 N   0  0  0  0  0  2  0  0  0  0  0  0
  191.0640  176.3200  146.7970 C   0  0  0  0  0  0  0  0  0  0  0  0
  192.2750  176.7170  143.4480 C   0  0  0  0  0  0  0  0  0  0  0  0
  191.2760  177.4590  142.8160 C   0  0  0  0  0  3  0  0  0  0  0  0
  192.2690  175.9000  145.9750 C   0  0  0  0  0  2  0  0  0  0  0  0
  190.9280  177.4900  144.9950 N   0  0  0  0  0  0  0  0  0  0  0  0
  190.3150  177.2020  146.2070 N   0  0  0  0  0  0  0  0  0  0  0  0
  192.0090  176.7710  144.7980 C   0  0  0  0  0  0  0  0  0  0  0  0
  190.4100  177.8940  143.8250 C   0  0  0  0  0  3  0  0  0  0  0  0
  191.5660  174.9150  148.6460 F   0  0  0  0  0  0  0  0  0  0  0  0
  190.7620  175.8190  148.0570 O   0  0  0  0  0  0  0  0  0  0  0  0
  1  2  1  0  0  0  0
  1 10  1  0  0  0  0
  2 12  1  0  0  0  0
  3  1  2  0  0  0  0
  4  6  2  0  0  0  0
  4  3  1  0  0  0  0
  5  2  2  0  0  0  0
  6  5  1  0  0  0  0
  7 11  1  0  0  0  0
  7 15  1  1  0  0  0
  9  6  1  0  0  0  0
 10  8  1  6  0  0  0
 10  7  1  0  0  0  0
 10 11  1  0  0  0  0
 11 14  1  1  0  0  0
 12 11  1  0  0  0  0
 12 26  1  1  0  0  0
 14 13  1  0  0  0  0
 16 20  1  0  0  0  0
 17 18  1  0  0  0  0
 17 19  1  0  0  0  0
 18 25  1  0  0  0  0
 19 15  1  1  0  0  0
 19 23  1  0  0  0  0
 20 24  1  0  0  0  0
 21 23  1  0  0  0  0
 21 24  1  1  0  0  0
 23 22  1  1  0  0  0
 25 16  1  6  0  0  0
 25 21  1  0  0  0  0
 27 26  1  0  0  0  0
 27 30  1  0  0  0  0
 28 27  1  0  0  0  0
 29 28  1  0  0  0  0
 30 32  1  0  0  0  0
 31 40  1  0  0  0  0
 32 37  2  0  0  0  0
 33 32  1  0  0  0  0
 33 38  2  0  0  0  0
 34 31  1  0  0  0  0
 35 36  1  0  0  0  0
 36 31  2  0  0  0  0
 37 35  1  0  0  0  0
 37 34  1  0  0  0  0
 38 35  1  0  0  0  0
 40 39  1  0  0  0  0
M  END
>  <MODEL>
8

>  <REMARK>
 VINA RESULT:      -7.6      2.609      6.858
  Name = 
  9 active torsions:
  status: ('A' for Active; 'I' for Inactive)
    1  A    between atoms: C_4  and  O_33
    2  A    between atoms: C_9  and  N_21
    3  A    between atoms: C_11  and  C_32
    4  A    between atoms: C_12  and  N_19
    5  A    between atoms: C_15  and  C_37
    6  A    between atoms: N_19  and  N_21
    7  A    between atoms: N_19  and  C_35
    8  A    between atoms: C_23  and  C_32
    9  A    between atoms: C_35  and  C_38
                            x       y       z     vdW  Elec       q    Type
                         _______ _______ _______ _____ _____    ______ ____

>  <TORSDO>
F 9

$$$$
=
 OpenBabel11042419263D

 40 46  0  0  1  0  0  0  0  0999 V2000
  189.1860  173.4200  140.8320 C   0  0  0  0  0  0  0  0  0  0  0  0
  190.5090  173.1090  140.5910 C   0  0  0  0  0  0  0  0  0  0  0  0
  188.1970  173.0160  139.9300 C   0  0  0  0  0  3  0  0  0  0  0  0
  188.5670  172.2670  138.8020 C   0  0  0  0  0  3  0  0  0  0  0  0
  190.9070  172.3990  139.4560 C   0  0  0  0  0  3  0  0  0  0  0  0
  189.9190  171.9650  138.5630 C   0  0  0  0  0  0  0  0  0  0  0  0
  189.6860  175.0390  143.1970 C   0  0  2  0  0  3  0  0  0  0  0  0
  189.1010  175.6020  141.1940 O   0  0  0  0  0  1  0  0  0  0  0  0
  190.3730  171.0440  137.1470 Cl  0  0  0  0  0  0  0  0  0  0  0  0
  188.9800  174.4260  141.9430 C   0  0  2  0  0  0  0  0  0  0  0  0
  190.2130  173.7840  142.7500 C   0  0  1  0  0  0  0  0  0  0  0  0
  191.3220  173.6480  141.6910 C   0  0  1  0  0  3  0  0  0  0  0  0
  190.8490  172.1550  144.5750 C   0  0  0  0  0  1  0  0  0  0  0  0
  189.7990  172.5180  143.5390 C   0  0  0  0  0  2  0  0  0  0  0  0
  188.7200  174.9910  144.3780 C   0  0  0  0  0  2  0  0  0  0  0  0
  185.4640  179.4380  145.6930 C   0  0  0  0  0  2  0  0  0  0  0  0
  187.5840  176.3990  146.1310 C   0  0  0  0  0  2  0  0  0  0  0  0
  187.0910  177.7380  146.4830 N   0  0  0  0  0  2  0  0  0  0  0  0
  188.2590  176.3940  144.7450 C   0  0  2  0  0  3  0  0  0  0  0  0
  185.1580  179.9420  144.2890 C   0  0  0  0  0  2  0  0  0  0  0  0
  186.9070  178.3400  144.1960 N   0  0  1  0  0  0  0  0  0  0  0  0
  186.1660  176.1250  143.2970 C   0  0  0  0  0  1  0  0  0  0  0  0
  187.3420  177.0360  143.6770 C   0  0  2  0  0  3  0  0  0  0  0  0
  185.9720  179.0580  143.3470 C   0  0  0  0  0  2  0  0  0  0  0  0
  186.1680  178.1360  145.4280 C   0  0  2  0  0  3  0  0  0  0  0  0
  192.5610  172.8210  142.0820 C   0  0  0  0  0  2  0  0  0  0  0  0
  193.8200  173.5540  141.9650 N   0  0  0  0  0  0  0  0  0  0  0  0
  194.8690  172.6090  141.6060 C   0  0  0  0  0  2  0  0  0  0  0  0
  195.9990  172.8410  142.3910 O   0  0  0  0  0  1  0  0  0  0  0  0
  194.1390  174.1440  143.2060 N   0  0  0  0  0  2  0  0  0  0  0  0
  191.6140  175.4610  146.8610 C   0  0  0  0  0  0  0  0  0  0  0  0
  193.4920  175.2770  143.8150 C   0  0  0  0  0  0  0  0  0  0  0  0
  193.1270  176.4350  143.1250 C   0  0  0  0  0  3  0  0  0  0  0  0
  192.5950  174.5130  146.1950 C   0  0  0  0  0  2  0  0  0  0  0  0
  192.4200  176.5830  145.2100 N   0  0  0  0  0  0  0  0  0  0  0  0
  191.5210  176.6130  146.2680 N   0  0  0  0  0  0  0  0  0  0  0  0
  193.0280  175.4250  145.1030 C   0  0  0  0  0  0  0  0  0  0  0  0
  192.4040  177.2210  144.0290 C   0  0  0  0  0  3  0  0  0  0  0  0
  189.6380  174.6100  147.8700 F   0  0  0  0  0  0  0  0  0  0  0  0
  190.8660  175.1480  147.9890 O   0  0  0  0  0  0  0  0  0  0  0  0
  1 10  1  0  0  0  0
  2  1  1  0  0  0  0
  2 12  1  0  0  0  0
  3  1  2  0  0  0  0
  4  3  1  0  0  0  0
  5  2  2  0  0  0  0
  6  4  2  0  0  0  0
  6  5  1  0  0  0  0
  7 15  1  1  0  0  0
  9  6  1  0  0  0  0
 10  8  1  6  0  0  0
 10 11  1  0  0  0  0
 10  7  1  0  0  0  0
 11  7  1  0  0  0  0
 11 14  1  1  0  0  0
 12 26  1  1  0  0  0
 12 11  1  0  0  0  0
 14 13  1  0  0  0  0
 17 18  1  0  0  0  0
 19 15  1  6  0  0  0
 19 17  1  0  0  0  0
 20 16  1  0  0  0  0
 21 24  1  6  0  0  0
 21 25  1  0  0  0  0
 23 22  1  1  0  0  0
 23 21  1  0  0  0  0
 23 19  1  0  0  0  0
 24 20  1  0  0  0  0
 25 16  1  1  0  0  0
 25 18  1  0  0  0  0
 27 26  1  0  0  0  0
 27 30  1  0  0  0  0
 28 27  1  0  0  0  0
 28 29  1  0  0  0  0
 30 32  1  0  0  0  0
 31 40  1  0  0  0  0
 32 37  2  0  0  0  0
 33 32  1  0  0  0  0
 33 38  2  0  0  0  0
 34 31  1  0  0  0  0
 35 36  1  0  0  0  0
 36 31  2  0  0  0  0
 37 35  1  0  0  0  0
 37 34  1  0  0  0  0
 38 35  1  0  0  0  0
 39 40  1  0  0  0  0
M  END
>  <MODEL>
9

>  <REMARK>
 VINA RESULT:      -7.5      2.312      7.008
  Name = 
  9 active torsions:
  status: ('A' for Active; 'I' for Inactive)
    1  A    between atoms: C_4  and  O_33
    2  A    between atoms: C_9  and  N_21
    3  A    between atoms: C_11  and  C_32
    4  A    between atoms: C_12  and  N_19
    5  A    between atoms: C_15  and  C_37
    6  A    between atoms: N_19  and  N_21
    7  A    between atoms: N_19  and  C_35
    8  A    between atoms: C_23  and  C_32
    9  A    between atoms: C_35  and  C_38
                            x       y       z     vdW  Elec       q    Type
                         _______ _______ _______ _____ _____    ______ ____

>  <TORSDO>
F 9

$$$$
