=
 OpenBabel11042419523D

 56 58  0  0  1  0  0  0  0  0999 V2000
  190.9680  176.2140  145.5920 C   0  0  1  0  0  3  0  0  0  0  0  0
  190.4840  175.1090  147.7440 N   0  0  0  0  0  2  0  0  0  0  0  0
  188.6140  176.8570  145.2130 C   0  0  0  0  0  0  0  0  0  0  0  0
  188.1350  175.2300  147.6050 O   0  0  0  0  0  0  0  0  0  0  0  0
  189.4940  176.0940  145.8090 C   0  0  0  0  0  0  0  0  0  0  0  0
  189.2690  175.4550  147.1010 C   0  0  0  0  0  0  0  0  0  0  0  0
  191.4920  175.5660  146.8450 C   0  0  0  0  0  0  0  0  0  0  0  0
  192.7200  175.4490  147.1020 O   0  0  0  0  0  0  0  0  0  0  0  0
  187.7290  177.6180  144.6210 C   0  0  0  0  0  3  0  0  0  0  0  0
  185.9660  177.9960  141.2370 C   0  0  0  0  0  1  0  0  0  0  0  0
  186.4530  178.2580  142.6330 C   0  0  0  0  0  0  0  0  0  0  0  0
  187.2070  177.3350  143.2680 C   0  0  0  0  0  0  0  0  0  0  0  0
  186.1940  179.5210  143.2730 N   0  0  0  0  0  0  0  0  0  0  0  0
  185.1810  179.8320  144.0340 C   0  0  0  0  0  3  0  0  0  0  0  0
  184.1080  178.8750  144.4500 C   0  0  0  0  0  2  0  0  0  0  0  0
  184.0850  178.7190  145.9630 C   0  0  0  0  0  2  0  0  0  0  0  0
  184.6630  177.3800  146.3880 C   0  0  0  0  0  2  0  0  0  0  0  0
  185.5990  177.5590  147.4830 N   0  0  0  0  0  2  0  0  0  0  0  0
  185.9150  178.9750  147.5610 C   0  0  0  0  0  2  0  0  0  0  0  0
  187.1180  179.1890  148.4610 C   0  0  0  0  0  1  0  0  0  0  0  0
  187.5590  176.0300  142.6010 C   0  0  0  0  0  2  0  0  0  0  0  0
  188.8510  176.1490  141.9390 N   0  0  0  0  0  2  0  0  0  0  0  0
  189.3740  174.8030  141.7580 C   0  0  0  0  0  2  0  0  0  0  0  0
  188.2880  173.8790  141.2150 C   0  0  2  0  0  3  0  0  0  0  0  0
  188.1920  172.6490  142.1050 C   0  0  0  0  0  1  0  0  0  0  0  0
  188.6050  173.4860  139.7780 C   0  0  1  0  0  3  0  0  0  0  0  0
  188.1560  174.4790  138.8980 O   0  0  0  0  0  1  0  0  0  0  0  0
  190.1030  173.2990  139.5990 C   0  0  0  0  0  2  0  0  0  0  0  0
  190.4190  172.8440  138.1810 C   0  0  0  0  0  2  0  0  0  0  0  0
  190.7510  174.5140  136.4960 O   0  0  0  0  0  1  0  0  0  0  0  0
  191.3950  173.8090  137.5200 C   0  0  2  0  0  3  0  0  0  0  0  0
  192.9240  171.9690  137.8050 O   0  0  0  0  0  1  0  0  0  0  0  0
  192.3370  172.5620  135.5700 C   0  0  0  0  0  1  0  0  0  0  0  0
  192.6070  173.0550  136.9820 C   0  0  1  0  0  3  0  0  0  0  0  0
  191.3550  175.4190  144.4330 N   0  0  0  0  0  2  0  0  0  0  0  0
  193.6030  176.8500  144.3890 O   0  0  0  0  0  0  0  0  0  0  0  0
  192.5040  176.3240  143.5020 S   0  0  0  0  0  0  0  0  0  0  0  0
  191.8140  177.4760  142.8320 O   0  0  0  0  0  0  0  0  0  0  0  0
  193.1900  175.2410  142.2640 C   0  0  0  0  0  2  0  0  0  0  0  0
  194.5830  174.7360  142.6600 C   0  0  1  0  0  3  0  0  0  0  0  0
  194.9500  170.9250  143.2450 C   0  0  2  0  0  3  0  0  0  0  0  0
  194.4000  172.1450  145.4650 C   0  0  0  0  0  3  0  0  0  0  0  0
  194.2550  173.2890  144.7970 C   0  0  0  0  0  3  0  0  0  0  0  0
  195.1910  169.9210  145.4320 O   0  0  0  0  0  0  0  0  0  0  0  0
  194.6090  173.4000  143.3610 C   0  0  0  0  0  0  0  0  0  0  0  0
  194.8820  170.9450  144.7680 C   0  0  0  0  0  0  0  0  0  0  0  0
  194.9680  172.3150  142.6580 C   0  0  0  0  0  3  0  0  0  0  0  0
  193.8740  170.1240  142.6280 N   0  0  0  0  0  0  0  0  0  0  0  0
  191.4930  171.0370  142.6490 C   0  0  0  0  0  2  0  0  0  0  0  0
  190.7690  170.0510  141.7400 C   0  0  0  0  0  2  0  0  0  0  0  0
  191.4600  169.9350  140.3850 C   0  0  0  0  0  2  0  0  0  0  0  0
  192.6290  170.3290  143.3960 C   0  0  0  0  0  2  0  0  0  0  0  0
  192.8620  169.3540  140.5090 C   0  0  0  0  0  2  0  0  0  0  0  0
  193.7820  170.3680  141.1770 C   0  0  0  0  0  2  0  0  0  0  0  0
  195.0740  175.7860  140.6790 C   0  0  0  0  0  1  0  0  0  0  0  0
  195.5240  174.8340  141.6090 O   0  0  0  0  0  0  0  0  0  0  0  0
  1 35  1  6  0  0  0
  1  5  1  0  0  0  0
  1  7  1  0  0  0  0
  3  5  2  0  0  0  0
  5  6  1  0  0  0  0
  6  4  2  0  0  0  0
  6  2  1  0  0  0  0
  7  8  2  0  0  0  0
  7  2  1  0  0  0  0
  9  3  2  0  0  0  0
 10 11  1  0  0  0  0
 11 12  2  0  0  0  0
 11 13  1  0  0  0  0
 12  9  1  0  0  0  0
 13 14  2  0  0  0  0
 14 15  1  0  0  0  0
 15 16  1  0  0  0  0
 16 17  1  0  0  0  0
 17 18  1  0  0  0  0
 18 19  1  0  0  0  0
 19 20  1  0  0  0  0
 21 12  1  0  0  0  0
 22 21  1  0  0  0  0
 23 22  1  0  0  0  0
 24 23  1  0  0  0  0
 24 25  1  1  0  0  0
 26 27  1  6  0  0  0
 26 24  1  0  0  0  0
 28 26  1  0  0  0  0
 29 28  1  0  0  0  0
 31 30  1  6  0  0  0
 31 29  1  0  0  0  0
 34 33  1  6  0  0  0
 34 31  1  0  0  0  0
 34 32  1  0  0  0  0
 37 36  2  0  0  0  0
 37 35  1  0  0  0  0
 38 37  2  0  0  0  0
 39 37  1  0  0  0  0
 40 39  1  6  0  0  0
 40 45  1  0  0  0  0
 41 48  1  6  0  0  0
 41 46  1  0  0  0  0
 43 42  2  0  0  0  0
 45 43  1  0  0  0  0
 46 44  2  0  0  0  0
 46 42  1  0  0  0  0
 47 41  1  0  0  0  0
 47 45  2  0  0  0  0
 48 52  1  0  0  0  0
 49 52  1  0  0  0  0
 50 49  1  0  0  0  0
 51 53  1  0  0  0  0
 51 50  1  0  0  0  0
 53 54  1  0  0  0  0
 54 48  1  0  0  0  0
 55 56  1  0  0  0  0
 56 40  1  0  0  0  0
M  END
>  <MODEL>
1

>  <REMARK>
 VINA RESULT:      -6.2      0.000      0.000
  Name = 
  23 active torsions:
  status: ('A' for Active; 'I' for Inactive)
    1  A    between atoms: C_1  and  C_8
    2  A    between atoms: C_1  and  C_31
    3  A    between atoms: C_2  and  N_46
    4  A    between atoms: C_4  and  C_7
    5  A    between atoms: C_4  and  C_36
    6  A    between atoms: N_6  and  C_43
    7  A    between atoms: C_7  and  C_20
    8  A    between atoms: C_8  and  C_42
    9  A    between atoms: C_9  and  N_14
   10  A    between atoms: C_11  and  N_21
   11  A    between atoms: C_20  and  C_23
   12  A    between atoms: N_21  and  C_31
   13  A    between atoms: C_22  and  C_26
   14  A    between atoms: C_22  and  O_28
   15  A    between atoms: C_22  and  C_38
   16  A    between atoms: C_23  and  N_51
   17  A    between atoms: C_26  and  S_39
   18  A    between atoms: C_32  and  N_51
   19  A    between atoms: C_32  and  C_54
   20  A    between atoms: C_36  and  C_56
   21  A    between atoms: S_39  and  N_46
   22  A    between atoms: C_41  and  C_54
   23  A    between atoms: C_53  and  C_56
                            x       y       z     vdW  Elec       q    Type
                         _______ _______ _______ _____ _____    ______ ____

>  <TORSDO>
F 23

$$$$
=
 OpenBabel11042419523D

 56 58  0  0  1  0  0  0  0  0999 V2000
  191.2120  175.9090  143.6460 C   0  0  1  0  0  3  0  0  0  0  0  0
  193.1760  177.2230  144.3540 N   0  0  0  0  0  2  0  0  0  0  0  0
  192.1560  173.7710  144.4450 C   0  0  0  0  0  0  0  0  0  0  0  0
  194.5490  175.3960  144.9290 O   0  0  0  0  0  0  0  0  0  0  0  0
  192.3310  175.0110  144.0620 C   0  0  0  0  0  0  0  0  0  0  0  0
  193.4540  175.8390  144.4880 C   0  0  0  0  0  0  0  0  0  0  0  0
  191.8400  177.2600  143.8570 C   0  0  0  0  0  0  0  0  0  0  0  0
  191.2380  178.3450  143.6360 O   0  0  0  0  0  0  0  0  0  0  0  0
  191.9880  172.5320  144.8310 C   0  0  0  0  0  3  0  0  0  0  0  0
  192.6880  169.2460  142.9840 C   0  0  0  0  0  1  0  0  0  0  0  0
  192.8150  170.4210  143.9110 C   0  0  0  0  0  0  0  0  0  0  0  0
  191.8900  171.4040  143.8820 C   0  0  0  0  0  0  0  0  0  0  0  0
  193.8680  170.4710  144.8900 N   0  0  0  0  0  0  0  0  0  0  0  0
  195.1230  170.7710  144.6920 C   0  0  0  0  0  3  0  0  0  0  0  0
  195.6930  171.2040  143.3780 C   0  0  0  0  0  2  0  0  0  0  0  0
  195.6730  172.7210  143.2580 C   0  0  0  0  0  2  0  0  0  0  0  0
  194.9550  173.1640  141.9940 C   0  0  0  0  0  2  0  0  0  0  0  0
  195.9160  173.5040  140.9600 N   0  0  0  0  0  2  0  0  0  0  0  0
  195.2920  174.4850  140.0880 C   0  0  0  0  0  2  0  0  0  0  0  0
  194.2220  175.2470  140.8480 C   0  0  0  0  0  1  0  0  0  0  0  0
  190.7320  171.3510  142.9190 C   0  0  0  0  0  2  0  0  0  0  0  0
  191.1040  171.9980  141.6670 N   0  0  0  0  0  2  0  0  0  0  0  0
  190.3830  171.3260  140.5970 C   0  0  0  0  0  2  0  0  0  0  0  0
  191.3540  170.8250  139.5330 C   0  0  2  0  0  3  0  0  0  0  0  0
  192.7140  171.4700  139.7590 C   0  0  0  0  0  1  0  0  0  0  0  0
  190.8230  171.1520  138.1430 C   0  0  1  0  0  3  0  0  0  0  0  0
  189.6450  170.4350  137.8980 O   0  0  0  0  0  1  0  0  0  0  0  0
  190.5370  172.6400  138.0220 C   0  0  0  0  0  2  0  0  0  0  0  0
  189.3460  172.8830  137.1060 C   0  0  0  0  0  2  0  0  0  0  0  0
  188.3990  174.9730  136.4180 O   0  0  0  0  0  1  0  0  0  0  0  0
  189.5410  174.1690  136.3140 C   0  0  2  0  0  3  0  0  0  0  0  0
  191.2130  174.0370  134.5850 O   0  0  0  0  0  1  0  0  0  0  0  0
  189.4560  172.4260  134.5260 C   0  0  0  0  0  1  0  0  0  0  0  0
  189.8520  173.8550  134.8540 C   0  0  1  0  0  3  0  0  0  0  0  0
  190.9340  175.7160  142.2280 N   0  0  0  0  0  2  0  0  0  0  0  0
  188.8300  174.3390  143.1120 O   0  0  0  0  0  0  0  0  0  0  0  0
  189.2570  175.3110  142.0440 S   0  0  0  0  0  0  0  0  0  0  0  0
  189.0340  174.6950  140.6940 O   0  0  0  0  0  0  0  0  0  0  0  0
  188.3070  176.8130  142.1760 C   0  0  0  0  0  2  0  0  0  0  0  0
  186.9020  176.5490  142.7290 C   0  0  1  0  0  3  0  0  0  0  0  0
  187.5140  178.1970  146.1800 C   0  0  2  0  0  3  0  0  0  0  0  0
  185.0440  177.4490  145.9470 C   0  0  0  0  0  3  0  0  0  0  0  0
  185.3280  176.8840  144.7740 C   0  0  0  0  0  3  0  0  0  0  0  0
  185.7390  178.9240  147.6530 O   0  0  0  0  0  0  0  0  0  0  0  0
  186.6480  177.0690  144.1220 C   0  0  0  0  0  0  0  0  0  0  0  0
  186.0630  178.2440  146.6440 C   0  0  0  0  0  0  0  0  0  0  0  0
  187.6410  177.7100  144.7570 C   0  0  0  0  0  3  0  0  0  0  0  0
  188.3810  177.4010  147.0710 N   0  0  0  0  0  0  0  0  0  0  0  0
  188.9570  175.0060  146.4120 C   0  0  0  0  0  2  0  0  0  0  0  0
  190.0180  174.6410  147.4420 C   0  0  0  0  0  2  0  0  0  0  0  0
  191.1570  175.6550  147.4490 C   0  0  0  0  0  2  0  0  0  0  0  0
  187.9490  175.9890  147.0180 C   0  0  0  0  0  2  0  0  0  0  0  0
  190.6860  177.0370  147.8850 C   0  0  0  0  0  2  0  0  0  0  0  0
  189.8090  177.6470  146.7990 C   0  0  0  0  0  2  0  0  0  0  0  0
  186.1770  178.1230  141.2240 C   0  0  0  0  0  1  0  0  0  0  0  0
  185.8770  176.8830  141.8120 O   0  0  0  0  0  0  0  0  0  0  0  0
  1 35  1  6  0  0  0
  1  7  1  0  0  0  0
  1  5  1  0  0  0  0
  2  6  1  0  0  0  0
  3  9  2  0  0  0  0
  5  3  2  0  0  0  0
  5  6  1  0  0  0  0
  6  4  2  0  0  0  0
  7  2  1  0  0  0  0
  8  7  2  0  0  0  0
 10 11  1  0  0  0  0
 11 13  1  0  0  0  0
 12 11  2  0  0  0  0
 12  9  1  0  0  0  0
 14 13  2  0  0  0  0
 15 14  1  0  0  0  0
 16 15  1  0  0  0  0
 17 16  1  0  0  0  0
 18 17  1  0  0  0  0
 19 20  1  0  0  0  0
 19 18  1  0  0  0  0
 21 12  1  0  0  0  0
 22 21  1  0  0  0  0
 23 22  1  0  0  0  0
 24 25  1  1  0  0  0
 24 23  1  0  0  0  0
 26 27  1  1  0  0  0
 26 24  1  0  0  0  0
 28 26  1  0  0  0  0
 29 28  1  0  0  0  0
 31 30  1  6  0  0  0
 31 29  1  0  0  0  0
 32 34  1  0  0  0  0
 34 33  1  1  0  0  0
 34 31  1  0  0  0  0
 37 39  1  0  0  0  0
 37 35  1  0  0  0  0
 37 36  2  0  0  0  0
 38 37  2  0  0  0  0
 40 39  1  6  0  0  0
 40 45  1  0  0  0  0
 41 47  1  6  0  0  0
 41 46  1  0  0  0  0
 41 48  1  0  0  0  0
 42 46  1  0  0  0  0
 43 42  2  0  0  0  0
 45 47  2  0  0  0  0
 45 43  1  0  0  0  0
 46 44  2  0  0  0  0
 49 52  1  0  0  0  0
 49 50  1  0  0  0  0
 50 51  1  0  0  0  0
 51 53  1  0  0  0  0
 52 48  1  0  0  0  0
 54 48  1  0  0  0  0
 54 53  1  0  0  0  0
 55 56  1  0  0  0  0
 56 40  1  0  0  0  0
M  END
>  <MODEL>
2

>  <REMARK>
 VINA RESULT:      -5.9      2.267      8.129
  Name = 
  23 active torsions:
  status: ('A' for Active; 'I' for Inactive)
    1  A    between atoms: C_1  and  C_8
    2  A    between atoms: C_1  and  C_31
    3  A    between atoms: C_2  and  N_46
    4  A    between atoms: C_4  and  C_7
    5  A    between atoms: C_4  and  C_36
    6  A    between atoms: N_6  and  C_43
    7  A    between atoms: C_7  and  C_20
    8  A    between atoms: C_8  and  C_42
    9  A    between atoms: C_9  and  N_14
   10  A    between atoms: C_11  and  N_21
   11  A    between atoms: C_20  and  C_23
   12  A    between atoms: N_21  and  C_31
   13  A    between atoms: C_22  and  C_26
   14  A    between atoms: C_22  and  O_28
   15  A    between atoms: C_22  and  C_38
   16  A    between atoms: C_23  and  N_51
   17  A    between atoms: C_26  and  S_39
   18  A    between atoms: C_32  and  N_51
   19  A    between atoms: C_32  and  C_54
   20  A    between atoms: C_36  and  C_56
   21  A    between atoms: S_39  and  N_46
   22  A    between atoms: C_41  and  C_54
   23  A    between atoms: C_53  and  C_56
                            x       y       z     vdW  Elec       q    Type
                         _______ _______ _______ _____ _____    ______ ____

>  <TORSDO>
F 23

$$$$
=
 OpenBabel11042419523D

 56 58  0  0  1  0  0  0  0  0999 V2000
  191.4580  176.1280  145.6870 C   0  0  1  0  0  3  0  0  0  0  0  0
  190.8430  175.2530  147.9110 N   0  0  0  0  0  2  0  0  0  0  0  0
  189.1240  176.1620  144.8810 C   0  0  0  0  0  0  0  0  0  0  0  0
  188.5780  174.8180  147.4290 O   0  0  0  0  0  0  0  0  0  0  0  0
  190.0240  175.7090  145.7160 C   0  0  0  0  0  0  0  0  0  0  0  0
  189.7130  175.2220  147.0560 C   0  0  0  0  0  0  0  0  0  0  0  0
  191.8780  175.7970  147.0940 C   0  0  0  0  0  0  0  0  0  0  0  0
  193.0420  175.9980  147.5340 O   0  0  0  0  0  0  0  0  0  0  0  0
  188.2200  176.6130  144.0490 C   0  0  0  0  0  3  0  0  0  0  0  0
  187.3980  176.2430  140.3220 C   0  0  0  0  0  1  0  0  0  0  0  0
  187.5630  176.8170  141.7010 C   0  0  0  0  0  0  0  0  0  0  0  0
  188.0070  176.0330  142.7070 C   0  0  0  0  0  0  0  0  0  0  0  0
  187.3350  178.2170  141.9430 N   0  0  0  0  0  0  0  0  0  0  0  0
  186.1890  178.8150  142.1220 C   0  0  0  0  0  3  0  0  0  0  0  0
  184.8680  178.1130  142.1830 C   0  0  0  0  0  2  0  0  0  0  0  0
  184.4640  177.8530  143.6260 C   0  0  0  0  0  2  0  0  0  0  0  0
  184.1670  179.1510  144.3580 C   0  0  0  0  0  2  0  0  0  0  0  0
  184.2940  178.9630  145.7910 N   0  0  0  0  0  2  0  0  0  0  0  0
  185.7130  178.9300  146.1050 C   0  0  0  0  0  2  0  0  0  0  0  0
  185.9220  179.1830  147.5870 C   0  0  0  0  0  1  0  0  0  0  0  0
  188.3250  174.5790  142.4740 C   0  0  0  0  0  2  0  0  0  0  0  0
  189.6930  174.4470  141.9890 N   0  0  0  0  0  2  0  0  0  0  0  0
  189.7830  173.1810  141.2770 C   0  0  0  0  0  2  0  0  0  0  0  0
  189.6170  173.4010  139.7770 C   0  0  2  0  0  3  0  0  0  0  0  0
  188.3400  172.7180  139.3130 C   0  0  0  0  0  1  0  0  0  0  0  0
  190.8270  172.8540  139.0300 C   0  0  1  0  0  3  0  0  0  0  0  0
  191.6520  173.9080  138.6140 O   0  0  0  0  0  1  0  0  0  0  0  0
  191.6240  171.9200  139.9260 C   0  0  0  0  0  2  0  0  0  0  0  0
  193.0510  172.4240  140.0890 C   0  0  0  0  0  2  0  0  0  0  0  0
  194.7930  172.1770  138.4630 O   0  0  0  0  0  1  0  0  0  0  0  0
  194.0290  171.4780  139.4050 C   0  0  2  0  0  3  0  0  0  0  0  0
  193.5240  170.2910  137.3700 O   0  0  0  0  0  1  0  0  0  0  0  0
  193.7020  169.0000  139.3670 C   0  0  0  0  0  1  0  0  0  0  0  0
  193.2810  170.3220  138.7480 C   0  0  1  0  0  3  0  0  0  0  0  0
  192.1920  175.2870  144.7480 N   0  0  0  0  0  2  0  0  0  0  0  0
  193.9780  177.2600  144.6100 O   0  0  0  0  0  0  0  0  0  0  0  0
  193.1860  176.3050  143.7560 S   0  0  0  0  0  0  0  0  0  0  0  0
  192.3210  177.0860  142.8100 O   0  0  0  0  0  0  0  0  0  0  0  0
  194.2920  175.2620  142.8260 C   0  0  0  0  0  2  0  0  0  0  0  0
  195.6830  175.1960  143.4680 C   0  0  1  0  0  3  0  0  0  0  0  0
  196.1490  171.3960  144.0550 C   0  0  2  0  0  3  0  0  0  0  0  0
  196.8880  172.7430  146.1410 C   0  0  0  0  0  3  0  0  0  0  0  0
  196.4620  173.8660  145.5640 C   0  0  0  0  0  3  0  0  0  0  0  0
  197.4560  170.4690  145.8660 O   0  0  0  0  0  0  0  0  0  0  0  0
  196.0190  173.8920  144.1490 C   0  0  0  0  0  0  0  0  0  0  0  0
  196.8870  171.4840  145.3860 C   0  0  0  0  0  0  0  0  0  0  0  0
  195.9140  172.7550  143.4430 C   0  0  0  0  0  3  0  0  0  0  0  0
  194.8790  170.6510  144.1450 N   0  0  0  0  0  0  0  0  0  0  0  0
  192.6940  171.8790  143.6770 C   0  0  0  0  0  2  0  0  0  0  0  0
  191.6870  170.7350  143.6490 C   0  0  0  0  0  2  0  0  0  0  0  0
  192.1050  169.6530  142.6590 C   0  0  0  0  0  2  0  0  0  0  0  0
  193.8300  171.5580  144.6540 C   0  0  0  0  0  2  0  0  0  0  0  0
  193.4100  168.9810  143.0670 C   0  0  0  0  0  2  0  0  0  0  0  0
  194.5680  169.9540  142.8840 C   0  0  0  0  0  2  0  0  0  0  0  0
  197.1870  176.8880  143.0890 C   0  0  0  0  0  1  0  0  0  0  0  0
  196.7080  175.6580  142.6090 O   0  0  0  0  0  0  0  0  0  0  0  0
  1 35  1  6  0  0  0
  1  5  1  0  0  0  0
  1  7  1  0  0  0  0
  3  5  2  0  0  0  0
  5  6  1  0  0  0  0
  6  4  2  0  0  0  0
  6  2  1  0  0  0  0
  7  8  2  0  0  0  0
  7  2  1  0  0  0  0
  9  3  2  0  0  0  0
 10 11  1  0  0  0  0
 11 13  1  0  0  0  0
 11 12  2  0  0  0  0
 12  9  1  0  0  0  0
 13 14  2  0  0  0  0
 14 15  1  0  0  0  0
 15 16  1  0  0  0  0
 16 17  1  0  0  0  0
 17 18  1  0  0  0  0
 18 19  1  0  0  0  0
 19 20  1  0  0  0  0
 21 12  1  0  0  0  0
 22 21  1  0  0  0  0
 23 22  1  0  0  0  0
 24 25  1  6  0  0  0
 24 23  1  0  0  0  0
 26 27  1  1  0  0  0
 26 24  1  0  0  0  0
 26 28  1  0  0  0  0
 28 29  1  0  0  0  0
 31 30  1  6  0  0  0
 31 29  1  0  0  0  0
 32 34  1  0  0  0  0
 34 33  1  1  0  0  0
 34 31  1  0  0  0  0
 37 36  2  0  0  0  0
 37 35  1  0  0  0  0
 38 37  2  0  0  0  0
 39 37  1  0  0  0  0
 40 39  1  6  0  0  0
 40 45  1  0  0  0  0
 41 47  1  1  0  0  0
 41 48  1  0  0  0  0
 41 46  1  0  0  0  0
 43 42  2  0  0  0  0
 45 43  1  0  0  0  0
 46 44  2  0  0  0  0
 46 42  1  0  0  0  0
 47 45  2  0  0  0  0
 48 52  1  0  0  0  0
 49 52  1  0  0  0  0
 50 49  1  0  0  0  0
 51 53  1  0  0  0  0
 51 50  1  0  0  0  0
 54 53  1  0  0  0  0
 54 48  1  0  0  0  0
 56 55  1  0  0  0  0
 56 40  1  0  0  0  0
M  END
>  <MODEL>
3

>  <REMARK>
 VINA RESULT:      -5.6      1.573      2.243
  Name = 
  23 active torsions:
  status: ('A' for Active; 'I' for Inactive)
    1  A    between atoms: C_1  and  C_8
    2  A    between atoms: C_1  and  C_31
    3  A    between atoms: C_2  and  N_46
    4  A    between atoms: C_4  and  C_7
    5  A    between atoms: C_4  and  C_36
    6  A    between atoms: N_6  and  C_43
    7  A    between atoms: C_7  and  C_20
    8  A    between atoms: C_8  and  C_42
    9  A    between atoms: C_9  and  N_14
   10  A    between atoms: C_11  and  N_21
   11  A    between atoms: C_20  and  C_23
   12  A    between atoms: N_21  and  C_31
   13  A    between atoms: C_22  and  C_26
   14  A    between atoms: C_22  and  O_28
   15  A    between atoms: C_22  and  C_38
   16  A    between atoms: C_23  and  N_51
   17  A    between atoms: C_26  and  S_39
   18  A    between atoms: C_32  and  N_51
   19  A    between atoms: C_32  and  C_54
   20  A    between atoms: C_36  and  C_56
   21  A    between atoms: S_39  and  N_46
   22  A    between atoms: C_41  and  C_54
   23  A    between atoms: C_53  and  C_56
                            x       y       z     vdW  Elec       q    Type
                         _______ _______ _______ _____ _____    ______ ____

>  <TORSDO>
F 23

$$$$
=
 OpenBabel11042419523D

 56 58  0  0  1  0  0  0  0  0999 V2000
  190.6320  172.6260  142.3920 C   0  0  1  0  0  3  0  0  0  0  0  0
  191.8610  171.2450  144.0260 N   0  0  0  0  0  2  0  0  0  0  0  0
  192.2490  172.1950  140.5750 C   0  0  0  0  0  0  0  0  0  0  0  0
  193.7720  170.8660  142.6990 O   0  0  0  0  0  0  0  0  0  0  0  0
  191.9670  172.2250  141.8530 C   0  0  0  0  0  0  0  0  0  0  0  0
  192.6370  171.3960  142.8490 C   0  0  0  0  0  0  0  0  0  0  0  0
  190.6670  171.9740  143.7470 C   0  0  0  0  0  0  0  0  0  0  0  0
  189.7170  172.0410  144.5730 O   0  0  0  0  0  0  0  0  0  0  0  0
  192.5360  172.1610  139.2980 C   0  0  0  0  0  3  0  0  0  0  0  0
  192.5530  175.1700  136.9220 C   0  0  0  0  0  1  0  0  0  0  0  0
  192.1340  173.9250  137.6500 C   0  0  0  0  0  0  0  0  0  0  0  0
  192.9710  173.3550  138.5440 C   0  0  0  0  0  0  0  0  0  0  0  0
  190.8160  173.3790  137.4680 N   0  0  0  0  0  0  0  0  0  0  0  0
  190.4090  172.5900  136.5120 C   0  0  0  0  0  3  0  0  0  0  0  0
  191.2920  172.0330  135.4390 C   0  0  0  0  0  2  0  0  0  0  0  0
  190.8060  170.6590  135.0020 C   0  0  0  0  0  2  0  0  0  0  0  0
  191.7890  169.5730  135.4070 C   0  0  0  0  0  2  0  0  0  0  0  0
  191.1640  168.6470  136.3340 N   0  0  0  0  0  2  0  0  0  0  0  0
  191.4530  169.1140  137.6790 C   0  0  0  0  0  2  0  0  0  0  0  0
  190.1570  169.3510  138.4340 C   0  0  0  0  0  1  0  0  0  0  0  0
  194.3320  173.9410  138.8140 C   0  0  0  0  0  2  0  0  0  0  0  0
  194.3700  174.4960  140.1610 N   0  0  0  0  0  2  0  0  0  0  0  0
  195.6230  175.2240  140.2980 C   0  0  0  0  0  2  0  0  0  0  0  0
  196.5540  174.5040  141.2680 C   0  0  2  0  0  3  0  0  0  0  0  0
  196.0440  173.0880  141.4880 C   0  0  0  0  0  1  0  0  0  0  0  0
  196.6280  175.2640  142.5870 C   0  0  1  0  0  3  0  0  0  0  0  0
  195.9290  176.4740  142.4830 O   0  0  0  0  0  1  0  0  0  0  0  0
  196.0260  174.4350  143.7100 C   0  0  0  0  0  2  0  0  0  0  0  0
  195.7490  175.3040  144.9280 C   0  0  0  0  0  2  0  0  0  0  0  0
  193.5580  174.5610  144.3050 O   0  0  0  0  0  1  0  0  0  0  0  0
  194.2730  175.2470  145.2950 C   0  0  2  0  0  3  0  0  0  0  0  0
  194.7490  177.5990  145.5120 O   0  0  0  0  0  1  0  0  0  0  0  0
  192.7400  176.9950  144.3770 C   0  0  0  0  0  1  0  0  0  0  0  0
  193.7160  176.6540  145.4900 C   0  0  1  0  0  3  0  0  0  0  0  0
  190.5860  174.0750  142.5480 N   0  0  0  0  0  2  0  0  0  0  0  0
  187.9260  173.9580  142.4270 O   0  0  0  0  0  0  0  0  0  0  0  0
  189.1190  174.6610  141.8320 S   0  0  0  0  0  0  0  0  0  0  0  0
  189.1500  174.4180  140.3510 O   0  0  0  0  0  0  0  0  0  0  0  0
  189.0100  176.4120  142.1450 C   0  0  0  0  0  2  0  0  0  0  0  0
  187.5540  176.8870  142.2110 C   0  0  1  0  0  3  0  0  0  0  0  0
  187.5170  178.2500  145.8370 C   0  0  2  0  0  3  0  0  0  0  0  0
  185.1800  177.3480  145.1730 C   0  0  0  0  0  3  0  0  0  0  0  0
  185.6790  176.9160  144.0150 C   0  0  0  0  0  3  0  0  0  0  0  0
  185.4920  178.7070  147.0780 O   0  0  0  0  0  0  0  0  0  0  0  0
  187.0580  177.2560  143.5880 C   0  0  0  0  0  0  0  0  0  0  0  0
  186.0150  178.1480  146.0780 C   0  0  0  0  0  0  0  0  0  0  0  0
  187.8900  177.9080  144.4150 C   0  0  0  0  0  3  0  0  0  0  0  0
  188.3120  177.4420  146.7820 N   0  0  0  0  0  0  0  0  0  0  0  0
  188.7080  174.9770  146.2630 C   0  0  0  0  0  2  0  0  0  0  0  0
  189.7290  174.5900  147.3260 C   0  0  0  0  0  2  0  0  0  0  0  0
  190.9410  175.5130  147.2940 C   0  0  0  0  0  2  0  0  0  0  0  0
  187.7740  176.0660  146.8000 C   0  0  0  0  0  2  0  0  0  0  0  0
  190.5740  176.9490  147.6470 C   0  0  0  0  0  2  0  0  0  0  0  0
  189.7560  177.5630  146.5170 C   0  0  0  0  0  2  0  0  0  0  0  0
  186.7180  177.2080  140.0990 C   0  0  0  0  0  1  0  0  0  0  0  0
  187.2450  177.8550  141.2280 O   0  0  0  0  0  0  0  0  0  0  0  0
  1 35  1  1  0  0  0
  1  7  1  0  0  0  0
  3  5  2  0  0  0  0
  4  6  2  0  0  0  0
  5  1  1  0  0  0  0
  5  6  1  0  0  0  0
  6  2  1  0  0  0  0
  7  2  1  0  0  0  0
  7  8  2  0  0  0  0
  9  3  2  0  0  0  0
 10 11  1  0  0  0  0
 11 12  2  0  0  0  0
 12 21  1  0  0  0  0
 12  9  1  0  0  0  0
 13 11  1  0  0  0  0
 14 13  2  0  0  0  0
 15 14  1  0  0  0  0
 16 17  1  0  0  0  0
 16 15  1  0  0  0  0
 17 18  1  0  0  0  0
 18 19  1  0  0  0  0
 19 20  1  0  0  0  0
 21 22  1  0  0  0  0
 22 23  1  0  0  0  0
 23 24  1  0  0  0  0
 24 25  1  1  0  0  0
 24 26  1  0  0  0  0
 26 27  1  6  0  0  0
 26 28  1  0  0  0  0
 28 29  1  0  0  0  0
 29 31  1  0  0  0  0
 31 30  1  6  0  0  0
 31 34  1  0  0  0  0
 34 33  1  6  0  0  0
 34 32  1  0  0  0  0
 37 39  1  0  0  0  0
 37 36  2  0  0  0  0
 37 35  1  0  0  0  0
 38 37  2  0  0  0  0
 40 39  1  1  0  0  0
 40 45  1  0  0  0  0
 41 47  1  6  0  0  0
 41 46  1  0  0  0  0
 41 48  1  0  0  0  0
 42 46  1  0  0  0  0
 43 42  2  0  0  0  0
 45 43  1  0  0  0  0
 45 47  2  0  0  0  0
 46 44  2  0  0  0  0
 48 52  1  0  0  0  0
 49 52  1  0  0  0  0
 49 50  1  0  0  0  0
 51 50  1  0  0  0  0
 51 53  1  0  0  0  0
 54 48  1  0  0  0  0
 54 53  1  0  0  0  0
 55 56  1  0  0  0  0
 56 40  1  0  0  0  0
M  END
>  <MODEL>
4

>  <REMARK>
 VINA RESULT:      -5.4      2.594      9.230
  Name = 
  23 active torsions:
  status: ('A' for Active; 'I' for Inactive)
    1  A    between atoms: C_1  and  C_8
    2  A    between atoms: C_1  and  C_31
    3  A    between atoms: C_2  and  N_46
    4  A    between atoms: C_4  and  C_7
    5  A    between atoms: C_4  and  C_36
    6  A    between atoms: N_6  and  C_43
    7  A    between atoms: C_7  and  C_20
    8  A    between atoms: C_8  and  C_42
    9  A    between atoms: C_9  and  N_14
   10  A    between atoms: C_11  and  N_21
   11  A    between atoms: C_20  and  C_23
   12  A    between atoms: N_21  and  C_31
   13  A    between atoms: C_22  and  C_26
   14  A    between atoms: C_22  and  O_28
   15  A    between atoms: C_22  and  C_38
   16  A    between atoms: C_23  and  N_51
   17  A    between atoms: C_26  and  S_39
   18  A    between atoms: C_32  and  N_51
   19  A    between atoms: C_32  and  C_54
   20  A    between atoms: C_36  and  C_56
   21  A    between atoms: S_39  and  N_46
   22  A    between atoms: C_41  and  C_54
   23  A    between atoms: C_53  and  C_56
                            x       y       z     vdW  Elec       q    Type
                         _______ _______ _______ _____ _____    ______ ____

>  <TORSDO>
F 23

$$$$
=
 OpenBabel11042419523D

 56 58  0  0  1  0  0  0  0  0999 V2000
  194.4430  173.5010  144.8500 C   0  0  1  0  0  3  0  0  0  0  0  0
  195.2640  175.3780  146.2250 N   0  0  0  0  0  2  0  0  0  0  0  0
  192.4480  174.7350  144.0760 C   0  0  0  0  0  0  0  0  0  0  0  0
  193.3620  176.7490  146.0020 O   0  0  0  0  0  0  0  0  0  0  0  0
  193.4150  174.5810  144.9450 C   0  0  0  0  0  0  0  0  0  0  0  0
  193.9610  175.6690  145.7500 C   0  0  0  0  0  0  0  0  0  0  0  0
  195.5490  174.0890  145.6830 C   0  0  0  0  0  0  0  0  0  0  0  0
  196.6510  173.5100  145.8790 O   0  0  0  0  0  0  0  0  0  0  0  0
  191.4810  174.8950  143.2090 C   0  0  0  0  0  3  0  0  0  0  0  0
  188.2960  173.0070  142.2150 C   0  0  0  0  0  1  0  0  0  0  0  0
  189.5610  173.8130  142.1460 C   0  0  0  0  0  0  0  0  0  0  0  0
  190.2080  174.1480  143.2830 C   0  0  0  0  0  0  0  0  0  0  0  0
  190.1380  174.1620  140.8750 N   0  0  0  0  0  0  0  0  0  0  0  0
  190.7980  173.3840  140.0620 C   0  0  0  0  0  3  0  0  0  0  0  0
  191.0150  171.9190  140.2820 C   0  0  0  0  0  2  0  0  0  0  0  0
  192.0410  171.3750  139.2980 C   0  0  0  0  0  2  0  0  0  0  0  0
  191.5850  171.5720  137.8620 C   0  0  0  0  0  2  0  0  0  0  0  0
  190.3440  170.8580  137.6240 N   0  0  0  0  0  2  0  0  0  0  0  0
  190.2880  170.5370  136.2080 C   0  0  0  0  0  2  0  0  0  0  0  0
  191.3780  169.5400  135.8600 C   0  0  0  0  0  1  0  0  0  0  0  0
  189.6720  173.7380  144.6300 C   0  0  0  0  0  2  0  0  0  0  0  0
  189.5030  174.9160  145.4710 N   0  0  0  0  0  2  0  0  0  0  0  0
  188.3860  175.6790  144.9340 C   0  0  0  0  0  2  0  0  0  0  0  0
  188.2990  177.0430  145.6120 C   0  0  2  0  0  3  0  0  0  0  0  0
  189.4820  177.2060  146.5540 C   0  0  0  0  0  1  0  0  0  0  0  0
  186.9820  177.1700  146.3670 C   0  0  1  0  0  3  0  0  0  0  0  0
  187.1020  178.1260  147.3840 O   0  0  0  0  0  1  0  0  0  0  0  0
  185.8680  177.5860  145.4200 C   0  0  0  0  0  2  0  0  0  0  0  0
  186.3560  178.6600  144.4580 C   0  0  0  0  0  2  0  0  0  0  0  0
  184.2570  178.0870  143.4540 O   0  0  0  0  0  1  0  0  0  0  0  0
  185.5060  178.6670  143.1950 C   0  0  2  0  0  3  0  0  0  0  0  0
  185.7500  178.3530  140.8190 O   0  0  0  0  0  1  0  0  0  0  0  0
  187.7200  178.1670  142.1500 C   0  0  0  0  0  1  0  0  0  0  0  0
  186.2220  177.9310  142.0670 C   0  0  1  0  0  3  0  0  0  0  0  0
  193.9400  172.2910  145.4890 N   0  0  0  0  0  2  0  0  0  0  0  0
  192.5040  171.3310  143.4600 O   0  0  0  0  0  0  0  0  0  0  0  0
  193.7420  171.0670  144.2770 S   0  0  0  0  0  0  0  0  0  0  0  0
  193.6250  169.7230  144.9340 O   0  0  0  0  0  0  0  0  0  0  0  0
  195.1800  171.0920  143.2250 C   0  0  0  0  0  2  0  0  0  0  0  0
  194.8480  171.6130  141.8220 C   0  0  1  0  0  3  0  0  0  0  0  0
  194.6780  175.2820  140.5900 C   0  0  2  0  0  3  0  0  0  0  0  0
  196.9140  174.8300  141.8220 C   0  0  0  0  0  3  0  0  0  0  0  0
  196.5910  173.5420  141.9290 C   0  0  0  0  0  3  0  0  0  0  0  0
  196.1750  177.0230  141.3520 O   0  0  0  0  0  0  0  0  0  0  0  0
  195.2460  173.0440  141.5530 C   0  0  0  0  0  0  0  0  0  0  0  0
  195.9390  175.7870  141.2820 C   0  0  0  0  0  0  0  0  0  0  0  0
  194.3510  173.8590  140.9730 C   0  0  0  0  0  3  0  0  0  0  0  0
  194.7300  175.4170  139.1220 N   0  0  0  0  0  0  0  0  0  0  0  0
  196.1490  173.7750  137.7830 C   0  0  0  0  0  2  0  0  0  0  0  0
  195.7510  174.1070  136.3500 C   0  0  0  0  0  2  0  0  0  0  0  0
  194.2390  174.0360  136.1640 C   0  0  0  0  0  2  0  0  0  0  0  0
  196.0780  175.0330  138.6560 C   0  0  0  0  0  2  0  0  0  0  0  0
  193.5120  175.0840  136.9970 C   0  0  0  0  0  2  0  0  0  0  0  0
  193.6040  174.7210  138.4740 C   0  0  0  0  0  2  0  0  0  0  0  0
  195.9370  169.6450  141.3670 C   0  0  0  0  0  1  0  0  0  0  0  0
  195.2400  170.7220  140.7950 O   0  0  0  0  0  0  0  0  0  0  0  0
  1  5  1  0  0  0  0
  1 35  1  1  0  0  0
  1  7  1  0  0  0  0
  3  5  2  0  0  0  0
  5  6  1  0  0  0  0
  6  4  2  0  0  0  0
  6  2  1  0  0  0  0
  7  8  2  0  0  0  0
  7  2  1  0  0  0  0
  9 12  1  0  0  0  0
  9  3  2  0  0  0  0
 11 10  1  0  0  0  0
 11 12  2  0  0  0  0
 12 21  1  0  0  0  0
 13 11  1  0  0  0  0
 14 15  1  0  0  0  0
 14 13  2  0  0  0  0
 16 15  1  0  0  0  0
 17 16  1  0  0  0  0
 18 17  1  0  0  0  0
 19 18  1  0  0  0  0
 20 19  1  0  0  0  0
 21 22  1  0  0  0  0
 23 22  1  0  0  0  0
 23 24  1  0  0  0  0
 24 26  1  0  0  0  0
 24 25  1  1  0  0  0
 26 27  1  1  0  0  0
 28 26  1  0  0  0  0
 29 28  1  0  0  0  0
 31 30  1  1  0  0  0
 31 29  1  0  0  0  0
 32 34  1  0  0  0  0
 34 33  1  6  0  0  0
 34 31  1  0  0  0  0
 36 37  2  0  0  0  0
 37 38  2  0  0  0  0
 37 35  1  0  0  0  0
 39 37  1  0  0  0  0
 40 39  1  1  0  0  0
 41 48  1  6  0  0  0
 41 47  1  0  0  0  0
 41 46  1  0  0  0  0
 42 43  2  0  0  0  0
 45 40  1  0  0  0  0
 45 43  1  0  0  0  0
 46 44  2  0  0  0  0
 46 42  1  0  0  0  0
 47 45  2  0  0  0  0
 49 52  1  0  0  0  0
 50 49  1  0  0  0  0
 51 50  1  0  0  0  0
 51 53  1  0  0  0  0
 52 48  1  0  0  0  0
 53 54  1  0  0  0  0
 54 48  1  0  0  0  0
 56 55  1  0  0  0  0
 56 40  1  0  0  0  0
M  END
>  <MODEL>
5

>  <REMARK>
 VINA RESULT:      -5.4      2.762      7.510
  Name = 
  23 active torsions:
  status: ('A' for Active; 'I' for Inactive)
    1  A    between atoms: C_1  and  C_8
    2  A    between atoms: C_1  and  C_31
    3  A    between atoms: C_2  and  N_46
    4  A    between atoms: C_4  and  C_7
    5  A    between atoms: C_4  and  C_36
    6  A    between atoms: N_6  and  C_43
    7  A    between atoms: C_7  and  C_20
    8  A    between atoms: C_8  and  C_42
    9  A    between atoms: C_9  and  N_14
   10  A    between atoms: C_11  and  N_21
   11  A    between atoms: C_20  and  C_23
   12  A    between atoms: N_21  and  C_31
   13  A    between atoms: C_22  and  C_26
   14  A    between atoms: C_22  and  O_28
   15  A    between atoms: C_22  and  C_38
   16  A    between atoms: C_23  and  N_51
   17  A    between atoms: C_26  and  S_39
   18  A    between atoms: C_32  and  N_51
   19  A    between atoms: C_32  and  C_54
   20  A    between atoms: C_36  and  C_56
   21  A    between atoms: S_39  and  N_46
   22  A    between atoms: C_41  and  C_54
   23  A    between atoms: C_53  and  C_56
                            x       y       z     vdW  Elec       q    Type
                         _______ _______ _______ _____ _____    ______ ____

>  <TORSDO>
F 23

$$$$
=
 OpenBabel11042419523D

 56 58  0  0  1  0  0  0  0  0999 V2000
  191.4430  175.3510  143.3540 C   0  0  1  0  0  3  0  0  0  0  0  0
  193.5480  176.5100  143.9140 N   0  0  0  0  0  2  0  0  0  0  0  0
  192.3880  173.1050  143.7580 C   0  0  0  0  0  0  0  0  0  0  0  0
  194.9000  174.5860  144.0710 O   0  0  0  0  0  0  0  0  0  0  0  0
  192.5660  174.3750  143.4970 C   0  0  0  0  0  0  0  0  0  0  0  0
  193.7760  175.1120  143.8480 C   0  0  0  0  0  0  0  0  0  0  0  0
  192.1580  176.6470  143.6250 C   0  0  0  0  0  0  0  0  0  0  0  0
  191.5830  177.7690  143.6190 O   0  0  0  0  0  0  0  0  0  0  0  0
  192.2170  171.8340  144.0200 C   0  0  0  0  0  3  0  0  0  0  0  0
  191.9350  168.5100  142.1320 C   0  0  0  0  0  1  0  0  0  0  0  0
  192.2710  169.5400  143.1720 C   0  0  0  0  0  0  0  0  0  0  0  0
  191.9330  170.8320  142.9720 C   0  0  0  0  0  0  0  0  0  0  0  0
  192.8750  169.1510  144.4180 N   0  0  0  0  0  0  0  0  0  0  0  0
  194.0390  168.5900  144.5950 C   0  0  0  0  0  3  0  0  0  0  0  0
  195.0200  168.3090  143.4990 C   0  0  0  0  0  2  0  0  0  0  0  0
  196.4120  168.7840  143.8890 C   0  0  0  0  0  2  0  0  0  0  0  0
  196.4480  169.2570  145.3320 C   0  0  0  0  0  2  0  0  0  0  0  0
  197.6700  169.9960  145.5910 N   0  0  0  0  0  2  0  0  0  0  0  0
  197.4800  171.3450  145.0830 C   0  0  0  0  0  2  0  0  0  0  0  0
  196.3200  172.0100  145.8010 C   0  0  0  0  0  1  0  0  0  0  0  0
  191.2340  171.2650  141.7100 C   0  0  0  0  0  2  0  0  0  0  0  0
  192.2180  171.7030  140.7290 N   0  0  0  0  0  2  0  0  0  0  0  0
  191.5650  171.7100  139.4280 C   0  0  0  0  0  2  0  0  0  0  0  0
  191.0630  170.3120  139.0770 C   0  0  2  0  0  3  0  0  0  0  0  0
  192.1350  169.5860  138.2780 C   0  0  0  0  0  1  0  0  0  0  0  0
  189.7650  170.4050  138.2860 C   0  0  1  0  0  3  0  0  0  0  0  0
  189.1050  171.6040  138.5840 O   0  0  0  0  0  1  0  0  0  0  0  0
  190.0510  170.3500  136.7930 C   0  0  0  0  0  2  0  0  0  0  0  0
  189.5220  171.5990  136.1020 C   0  0  0  0  0  2  0  0  0  0  0  0
  191.7700  171.4500  135.2860 O   0  0  0  0  0  1  0  0  0  0  0  0
  190.5730  172.1660  135.1570 C   0  0  2  0  0  3  0  0  0  0  0  0
  190.6300  173.9300  136.7970 O   0  0  0  0  0  1  0  0  0  0  0  0
  192.1890  174.0660  134.9970 C   0  0  0  0  0  1  0  0  0  0  0  0
  190.7950  173.6490  135.4360 C   0  0  1  0  0  3  0  0  0  0  0  0
  190.9600  175.3380  141.9790 N   0  0  0  0  0  2  0  0  0  0  0  0
  188.7390  174.3690  143.0870 O   0  0  0  0  0  0  0  0  0  0  0  0
  189.2260  175.2940  142.0030 S   0  0  0  0  0  0  0  0  0  0  0  0
  188.7160  174.8150  140.6750 O   0  0  0  0  0  0  0  0  0  0  0  0
  188.6350  176.9480  142.3050 C   0  0  0  0  0  2  0  0  0  0  0  0
  187.1480  176.9590  142.6800 C   0  0  1  0  0  3  0  0  0  0  0  0
  187.5790  177.9320  146.4040 C   0  0  2  0  0  3  0  0  0  0  0  0
  185.2700  176.8240  146.0080 C   0  0  0  0  0  3  0  0  0  0  0  0
  185.6100  176.5750  144.7430 C   0  0  0  0  0  3  0  0  0  0  0  0
  185.7550  178.0100  147.9900 O   0  0  0  0  0  0  0  0  0  0  0  0
  186.8540  177.1230  144.1510 C   0  0  0  0  0  0  0  0  0  0  0  0
  186.1580  177.6240  146.8610 C   0  0  0  0  0  0  0  0  0  0  0  0
  187.7410  177.7840  144.9110 C   0  0  0  0  0  3  0  0  0  0  0  0
  188.6010  177.1350  147.1100 N   0  0  0  0  0  0  0  0  0  0  0  0
  189.2500  174.8550  146.1710 C   0  0  0  0  0  2  0  0  0  0  0  0
  190.4520  174.4890  147.0320 C   0  0  0  0  0  2  0  0  0  0  0  0
  191.5120  175.5850  146.9990 C   0  0  0  0  0  2  0  0  0  0  0  0
  188.2610  175.7040  146.9790 C   0  0  0  0  0  2  0  0  0  0  0  0
  191.0080  176.8850  147.6120 C   0  0  0  0  0  2  0  0  0  0  0  0
  189.9640  177.5130  146.6960 C   0  0  0  0  0  2  0  0  0  0  0  0
  186.5520  177.4380  140.5160 C   0  0  0  0  0  1  0  0  0  0  0  0
  186.3780  177.8150  141.8580 O   0  0  0  0  0  0  0  0  0  0  0  0
  1 35  1  6  0  0  0
  1  5  1  0  0  0  0
  1  7  1  0  0  0  0
  3  9  2  0  0  0  0
  5  3  2  0  0  0  0
  5  6  1  0  0  0  0
  6  2  1  0  0  0  0
  6  4  2  0  0  0  0
  7  2  1  0  0  0  0
  8  7  2  0  0  0  0
 10 11  1  0  0  0  0
 11 13  1  0  0  0  0
 12 11  2  0  0  0  0
 12  9  1  0  0  0  0
 13 14  2  0  0  0  0
 15 16  1  0  0  0  0
 15 14  1  0  0  0  0
 16 17  1  0  0  0  0
 17 18  1  0  0  0  0
 19 18  1  0  0  0  0
 19 20  1  0  0  0  0
 21 12  1  0  0  0  0
 22 21  1  0  0  0  0
 23 22  1  0  0  0  0
 24 25  1  6  0  0  0
 24 23  1  0  0  0  0
 26 27  1  6  0  0  0
 26 24  1  0  0  0  0
 28 26  1  0  0  0  0
 29 28  1  0  0  0  0
 31 30  1  1  0  0  0
 31 34  1  0  0  0  0
 31 29  1  0  0  0  0
 34 33  1  1  0  0  0
 34 32  1  0  0  0  0
 35 37  1  0  0  0  0
 37 39  1  0  0  0  0
 37 36  2  0  0  0  0
 38 37  2  0  0  0  0
 40 39  1  1  0  0  0
 40 45  1  0  0  0  0
 41 47  1  6  0  0  0
 41 46  1  0  0  0  0
 41 48  1  0  0  0  0
 42 46  1  0  0  0  0
 43 42  2  0  0  0  0
 45 43  1  0  0  0  0
 45 47  2  0  0  0  0
 46 44  2  0  0  0  0
 49 52  1  0  0  0  0
 49 50  1  0  0  0  0
 51 50  1  0  0  0  0
 51 53  1  0  0  0  0
 52 48  1  0  0  0  0
 54 48  1  0  0  0  0
 54 53  1  0  0  0  0
 55 56  1  0  0  0  0
 56 40  1  0  0  0  0
M  END
>  <MODEL>
6

>  <REMARK>
 VINA RESULT:      -5.3      2.392      8.443
  Name = 
  23 active torsions:
  status: ('A' for Active; 'I' for Inactive)
    1  A    between atoms: C_1  and  C_8
    2  A    between atoms: C_1  and  C_31
    3  A    between atoms: C_2  and  N_46
    4  A    between atoms: C_4  and  C_7
    5  A    between atoms: C_4  and  C_36
    6  A    between atoms: N_6  and  C_43
    7  A    between atoms: C_7  and  C_20
    8  A    between atoms: C_8  and  C_42
    9  A    between atoms: C_9  and  N_14
   10  A    between atoms: C_11  and  N_21
   11  A    between atoms: C_20  and  C_23
   12  A    between atoms: N_21  and  C_31
   13  A    between atoms: C_22  and  C_26
   14  A    between atoms: C_22  and  O_28
   15  A    between atoms: C_22  and  C_38
   16  A    between atoms: C_23  and  N_51
   17  A    between atoms: C_26  and  S_39
   18  A    between atoms: C_32  and  N_51
   19  A    between atoms: C_32  and  C_54
   20  A    between atoms: C_36  and  C_56
   21  A    between atoms: S_39  and  N_46
   22  A    between atoms: C_41  and  C_54
   23  A    between atoms: C_53  and  C_56
                            x       y       z     vdW  Elec       q    Type
                         _______ _______ _______ _____ _____    ______ ____

>  <TORSDO>
F 23

$$$$
=
 OpenBabel11042419523D

 56 58  0  0  1  0  0  0  0  0999 V2000
  186.9610  178.0350  146.3580 C   0  0  1  0  0  3  0  0  0  0  0  0
  184.8560  178.6470  147.4900 N   0  0  0  0  0  2  0  0  0  0  0  0
  186.0110  178.3200  144.0960 C   0  0  0  0  0  0  0  0  0  0  0  0
  183.5010  178.7010  145.5640 O   0  0  0  0  0  0  0  0  0  0  0  0
  185.8360  178.1240  145.3790 C   0  0  0  0  0  0  0  0  0  0  0  0
  184.6270  178.5080  146.0990 C   0  0  0  0  0  0  0  0  0  0  0  0
  186.2470  178.3700  147.6400 C   0  0  0  0  0  0  0  0  0  0  0  0
  186.8240  178.4240  148.7590 O   0  0  0  0  0  0  0  0  0  0  0  0
  186.1800  178.5170  142.8130 C   0  0  0  0  0  3  0  0  0  0  0  0
  186.3760  176.4210  139.6080 C   0  0  0  0  0  1  0  0  0  0  0  0
  186.0400  177.5100  140.5870 C   0  0  0  0  0  0  0  0  0  0  0  0
  186.4660  177.4190  141.8660 C   0  0  0  0  0  0  0  0  0  0  0  0
  185.3410  178.6910  140.1570 N   0  0  0  0  0  0  0  0  0  0  0  0
  184.0510  178.8870  140.1380 C   0  0  0  0  0  3  0  0  0  0  0  0
  183.0380  177.9100  140.6470 C   0  0  0  0  0  2  0  0  0  0  0  0
  182.1940  178.5360  141.7470 C   0  0  0  0  0  2  0  0  0  0  0  0
  180.7900  178.8470  141.2550 C   0  0  0  0  0  2  0  0  0  0  0  0
  179.8940  179.0460  142.3800 N   0  0  0  0  0  2  0  0  0  0  0  0
  178.5750  178.5900  141.9730 C   0  0  0  0  0  2  0  0  0  0  0  0
  178.2420  177.2820  142.6670 C   0  0  0  0  0  1  0  0  0  0  0  0
  187.2630  176.2300  142.3350 C   0  0  0  0  0  2  0  0  0  0  0  0
  188.5340  176.1780  141.6240 N   0  0  0  0  0  2  0  0  0  0  0  0
  189.1010  174.8560  141.8400 C   0  0  0  0  0  2  0  0  0  0  0  0
  188.3150  173.8060  141.0600 C   0  0  2  0  0  3  0  0  0  0  0  0
  187.8210  172.7380  142.0240 C   0  0  0  0  0  1  0  0  0  0  0  0
  189.1920  173.1940  139.9750 C   0  0  1  0  0  3  0  0  0  0  0  0
  189.4830  174.1510  138.9950 O   0  0  0  0  0  1  0  0  0  0  0  0
  190.4930  172.6810  140.5730 C   0  0  0  0  0  2  0  0  0  0  0  0
  190.8720  171.3410  139.9590 C   0  0  0  0  0  2  0  0  0  0  0  0
  191.8250  171.1790  142.1500 O   0  0  0  0  0  1  0  0  0  0  0  0
  191.5020  170.4360  141.0080 C   0  0  2  0  0  3  0  0  0  0  0  0
  192.6550  169.6350  139.0500 O   0  0  0  0  0  1  0  0  0  0  0  0
  193.9930  170.5170  140.8170 C   0  0  0  0  0  1  0  0  0  0  0  0
  192.7390  169.7450  140.4430 C   0  0  1  0  0  3  0  0  0  0  0  0
  187.4490  176.6620  146.4150 N   0  0  0  0  0  2  0  0  0  0  0  0
  189.8450  177.5380  147.1880 O   0  0  0  0  0  0  0  0  0  0  0  0
  189.1640  176.6740  146.1580 S   0  0  0  0  0  0  0  0  0  0  0  0
  189.4630  177.2090  144.7870 O   0  0  0  0  0  0  0  0  0  0  0  0
  189.7550  174.9980  146.2840 C   0  0  0  0  0  2  0  0  0  0  0  0
  190.8080  174.6850  145.2140 C   0  0  1  0  0  3  0  0  0  0  0  0
  194.0630  176.5510  144.2480 C   0  0  2  0  0  3  0  0  0  0  0  0
  193.7580  176.5110  146.8220 C   0  0  0  0  0  3  0  0  0  0  0  0
  192.6860  175.7320  146.6800 C   0  0  0  0  0  3  0  0  0  0  0  0
  195.3120  177.9490  145.7770 O   0  0  0  0  0  0  0  0  0  0  0  0
  192.1070  175.4430  145.3460 C   0  0  0  0  0  0  0  0  0  0  0  0
  194.4180  177.0720  145.6360 C   0  0  0  0  0  0  0  0  0  0  0  0
  192.7230  175.8570  144.2270 C   0  0  0  0  0  3  0  0  0  0  0  0
  195.1010  175.6730  143.6760 N   0  0  0  0  0  0  0  0  0  0  0  0
  194.8600  174.8930  141.2600 C   0  0  0  0  0  2  0  0  0  0  0  0
  196.2080  174.2280  141.0060 C   0  0  0  0  0  2  0  0  0  0  0  0
  197.3610  175.1750  141.3220 C   0  0  0  0  0  2  0  0  0  0  0  0
  194.4620  174.7330  142.7320 C   0  0  0  0  0  2  0  0  0  0  0  0
  197.4080  175.5420  142.7990 C   0  0  0  0  0  2  0  0  0  0  0  0
  196.2330  176.4500  143.1410 C   0  0  0  0  0  2  0  0  0  0  0  0
  189.7360  172.6660  145.0200 C   0  0  0  0  0  1  0  0  0  0  0  0
  190.9900  173.2980  145.0080 O   0  0  0  0  0  0  0  0  0  0  0  0
  1 35  1  1  0  0  0
  1  7  1  0  0  0  0
  2  7  1  0  0  0  0
  3  5  2  0  0  0  0
  4  6  2  0  0  0  0
  5  6  1  0  0  0  0
  5  1  1  0  0  0  0
  6  2  1  0  0  0  0
  7  8  2  0  0  0  0
  9  3  2  0  0  0  0
 10 11  1  0  0  0  0
 11 12  2  0  0  0  0
 12 21  1  0  0  0  0
 12  9  1  0  0  0  0
 13 11  1  0  0  0  0
 14 13  2  0  0  0  0
 14 15  1  0  0  0  0
 15 16  1  0  0  0  0
 17 16  1  0  0  0  0
 17 18  1  0  0  0  0
 19 18  1  0  0  0  0
 19 20  1  0  0  0  0
 22 23  1  0  0  0  0
 22 21  1  0  0  0  0
 24 23  1  0  0  0  0
 24 25  1  1  0  0  0
 26 27  1  6  0  0  0
 26 28  1  0  0  0  0
 26 24  1  0  0  0  0
 29 28  1  0  0  0  0
 29 31  1  0  0  0  0
 31 30  1  1  0  0  0
 32 34  1  0  0  0  0
 34 33  1  6  0  0  0
 34 31  1  0  0  0  0
 37 39  1  0  0  0  0
 37 35  1  0  0  0  0
 37 36  2  0  0  0  0
 38 37  2  0  0  0  0
 40 45  1  0  0  0  0
 40 39  1  1  0  0  0
 41 48  1  1  0  0  0
 41 46  1  0  0  0  0
 43 42  2  0  0  0  0
 45 43  1  0  0  0  0
 46 44  2  0  0  0  0
 46 42  1  0  0  0  0
 47 41  1  0  0  0  0
 47 45  2  0  0  0  0
 49 52  1  0  0  0  0
 50 49  1  0  0  0  0
 50 51  1  0  0  0  0
 51 53  1  0  0  0  0
 52 48  1  0  0  0  0
 53 54  1  0  0  0  0
 54 48  1  0  0  0  0
 56 55  1  0  0  0  0
 56 40  1  0  0  0  0
M  END
>  <MODEL>
7

>  <REMARK>
 VINA RESULT:      -5.2      2.763      5.175
  Name = 
  23 active torsions:
  status: ('A' for Active; 'I' for Inactive)
    1  A    between atoms: C_1  and  C_8
    2  A    between atoms: C_1  and  C_31
    3  A    between atoms: C_2  and  N_46
    4  A    between atoms: C_4  and  C_7
    5  A    between atoms: C_4  and  C_36
    6  A    between atoms: N_6  and  C_43
    7  A    between atoms: C_7  and  C_20
    8  A    between atoms: C_8  and  C_42
    9  A    between atoms: C_9  and  N_14
   10  A    between atoms: C_11  and  N_21
   11  A    between atoms: C_20  and  C_23
   12  A    between atoms: N_21  and  C_31
   13  A    between atoms: C_22  and  C_26
   14  A    between atoms: C_22  and  O_28
   15  A    between atoms: C_22  and  C_38
   16  A    between atoms: C_23  and  N_51
   17  A    between atoms: C_26  and  S_39
   18  A    between atoms: C_32  and  N_51
   19  A    between atoms: C_32  and  C_54
   20  A    between atoms: C_36  and  C_56
   21  A    between atoms: S_39  and  N_46
   22  A    between atoms: C_41  and  C_54
   23  A    between atoms: C_53  and  C_56
                            x       y       z     vdW  Elec       q    Type
                         _______ _______ _______ _____ _____    ______ ____

>  <TORSDO>
F 23

$$$$
=
 OpenBabel11042419523D

 56 58  0  0  1  0  0  0  0  0999 V2000
  186.9680  177.6010  144.0360 C   0  0  1  0  0  3  0  0  0  0  0  0
  184.9120  178.7780  143.3470 N   0  0  0  0  0  2  0  0  0  0  0  0
  187.3510  176.6310  141.7980 C   0  0  0  0  0  0  0  0  0  0  0  0
  184.7300  177.8040  141.2090 O   0  0  0  0  0  0  0  0  0  0  0  0
  186.5390  177.1680  142.6720 C   0  0  0  0  0  0  0  0  0  0  0  0
  185.3350  177.9090  142.3100 C   0  0  0  0  0  0  0  0  0  0  0  0
  185.8890  178.5950  144.3700 C   0  0  0  0  0  0  0  0  0  0  0  0
  185.8500  179.2370  145.4540 O   0  0  0  0  0  0  0  0  0  0  0  0
  188.1600  176.0940  140.9190 C   0  0  0  0  0  3  0  0  0  0  0  0
  188.6690  172.4820  139.7380 C   0  0  0  0  0  1  0  0  0  0  0  0
  188.2920  173.9360  139.7740 C   0  0  0  0  0  0  0  0  0  0  0  0
  188.4810  174.6520  140.9030 C   0  0  0  0  0  0  0  0  0  0  0  0
  187.8090  174.5960  138.5900 N   0  0  0  0  0  0  0  0  0  0  0  0
  188.2450  174.4560  137.3690 C   0  0  0  0  0  3  0  0  0  0  0  0
  189.3150  173.4920  136.9560 C   0  0  0  0  0  2  0  0  0  0  0  0
  190.4010  174.2020  136.1620 C   0  0  0  0  0  2  0  0  0  0  0  0
  191.7770  173.9330  136.7490 C   0  0  0  0  0  2  0  0  0  0  0  0
  191.7060  173.8780  138.1970 N   0  0  0  0  0  2  0  0  0  0  0  0
  193.0620  173.7190  138.6960 C   0  0  0  0  0  2  0  0  0  0  0  0
  193.6130  172.3680  138.2760 C   0  0  0  0  0  1  0  0  0  0  0  0
  189.0530  174.0110  142.1410 C   0  0  0  0  0  2  0  0  0  0  0  0
  190.3520  174.5970  142.4430 N   0  0  0  0  0  2  0  0  0  0  0  0
  191.2860  173.5020  142.6560 C   0  0  0  0  0  2  0  0  0  0  0  0
  190.5320  172.2190  142.9950 C   0  0  2  0  0  3  0  0  0  0  0  0
  190.3400  172.1390  144.5020 C   0  0  0  0  0  1  0  0  0  0  0  0
  191.3000  171.0080  142.4800 C   0  0  1  0  0  3  0  0  0  0  0  0
  190.5600  170.3570  141.4850 O   0  0  0  0  0  1  0  0  0  0  0  0
  192.6410  171.4370  141.9060 C   0  0  0  0  0  2  0  0  0  0  0  0
  193.6760  170.3360  142.0830 C   0  0  0  0  0  2  0  0  0  0  0  0
  195.9290  171.0090  141.6230 O   0  0  0  0  0  1  0  0  0  0  0  0
  194.9710  170.9110  142.6400 C   0  0  2  0  0  3  0  0  0  0  0  0
  194.5970  169.0050  144.0660 O   0  0  0  0  0  1  0  0  0  0  0  0
  196.8520  169.4780  143.4500 C   0  0  0  0  0  1  0  0  0  0  0  0
  195.4860  170.0500  143.7890 C   0  0  1  0  0  3  0  0  0  0  0  0
  186.8910  176.4700  144.9530 N   0  0  0  0  0  2  0  0  0  0  0  0
  188.2410  175.3580  146.9630 O   0  0  0  0  0  0  0  0  0  0  0  0
  188.3200  176.4570  145.9350 S   0  0  0  0  0  0  0  0  0  0  0  0
  188.4650  177.7780  146.6320 O   0  0  0  0  0  0  0  0  0  0  0  0
  189.7230  176.1900  144.8680 C   0  0  0  0  0  2  0  0  0  0  0  0
  190.9010  177.0980  145.2420 C   0  0  1  0  0  3  0  0  0  0  0  0
  194.7160  176.4940  144.9500 C   0  0  2  0  0  3  0  0  0  0  0  0
  193.5360  174.4270  145.9760 C   0  0  0  0  0  3  0  0  0  0  0  0
  192.3530  175.0050  145.7730 C   0  0  0  0  0  3  0  0  0  0  0  0
  195.8790  174.6970  146.0750 O   0  0  0  0  0  0  0  0  0  0  0  0
  192.2430  176.4140  145.3220 C   0  0  0  0  0  0  0  0  0  0  0  0
  194.7720  175.1750  145.7120 C   0  0  0  0  0  0  0  0  0  0  0  0
  193.3390  177.1110  144.9810 C   0  0  0  0  0  3  0  0  0  0  0  0
  195.1930  176.3800  143.5580 N   0  0  0  0  0  0  0  0  0  0  0  0
  197.6400  175.8020  143.1390 C   0  0  0  0  0  2  0  0  0  0  0  0
  197.6550  175.5600  141.6340 C   0  0  0  0  0  2  0  0  0  0  0  0
  196.6130  174.5230  141.2290 C   0  0  0  0  0  2  0  0  0  0  0  0
  196.5890  176.8590  143.4930 C   0  0  0  0  0  2  0  0  0  0  0  0
  195.1950  175.0020  141.5070 C   0  0  0  0  0  2  0  0  0  0  0  0
  194.9490  175.0340  143.0110 C   0  0  0  0  0  2  0  0  0  0  0  0
  190.5020  178.0320  143.1840 C   0  0  0  0  0  1  0  0  0  0  0  0
  190.9290  178.2990  144.4950 O   0  0  0  0  0  0  0  0  0  0  0  0
  1  7  1  0  0  0  0
  1 35  1  1  0  0  0
  2  7  1  0  0  0  0
  3  5  2  0  0  0  0
  4  6  2  0  0  0  0
  5  1  1  0  0  0  0
  6  5  1  0  0  0  0
  6  2  1  0  0  0  0
  7  8  2  0  0  0  0
  9  3  2  0  0  0  0
 10 11  1  0  0  0  0
 11 12  2  0  0  0  0
 12  9  1  0  0  0  0
 12 21  1  0  0  0  0
 13 11  1  0  0  0  0
 14 13  2  0  0  0  0
 15 14  1  0  0  0  0
 16 17  1  0  0  0  0
 16 15  1  0  0  0  0
 17 18  1  0  0  0  0
 18 19  1  0  0  0  0
 20 19  1  0  0  0  0
 21 22  1  0  0  0  0
 22 23  1  0  0  0  0
 23 24  1  0  0  0  0
 24 25  1  1  0  0  0
 26 27  1  6  0  0  0
 26 24  1  0  0  0  0
 28 29  1  0  0  0  0
 28 26  1  0  0  0  0
 29 31  1  0  0  0  0
 31 30  1  6  0  0  0
 31 34  1  0  0  0  0
 34 33  1  6  0  0  0
 34 32  1  0  0  0  0
 35 37  1  0  0  0  0
 37 38  2  0  0  0  0
 37 36  2  0  0  0  0
 39 37  1  0  0  0  0
 40 39  1  6  0  0  0
 40 45  1  0  0  0  0
 41 48  1  6  0  0  0
 41 47  1  0  0  0  0
 41 46  1  0  0  0  0
 43 42  2  0  0  0  0
 45 43  1  0  0  0  0
 46 42  1  0  0  0  0
 46 44  2  0  0  0  0
 47 45  2  0  0  0  0
 49 52  1  0  0  0  0
 50 49  1  0  0  0  0
 51 53  1  0  0  0  0
 51 50  1  0  0  0  0
 52 48  1  0  0  0  0
 53 54  1  0  0  0  0
 54 48  1  0  0  0  0
 55 56  1  0  0  0  0
 56 40  1  0  0  0  0
M  END
>  <MODEL>
8

>  <REMARK>
 VINA RESULT:      -5.1      2.513      6.879
  Name = 
  23 active torsions:
  status: ('A' for Active; 'I' for Inactive)
    1  A    between atoms: C_1  and  C_8
    2  A    between atoms: C_1  and  C_31
    3  A    between atoms: C_2  and  N_46
    4  A    between atoms: C_4  and  C_7
    5  A    between atoms: C_4  and  C_36
    6  A    between atoms: N_6  and  C_43
    7  A    between atoms: C_7  and  C_20
    8  A    between atoms: C_8  and  C_42
    9  A    between atoms: C_9  and  N_14
   10  A    between atoms: C_11  and  N_21
   11  A    between atoms: C_20  and  C_23
   12  A    between atoms: N_21  and  C_31
   13  A    between atoms: C_22  and  C_26
   14  A    between atoms: C_22  and  O_28
   15  A    between atoms: C_22  and  C_38
   16  A    between atoms: C_23  and  N_51
   17  A    between atoms: C_26  and  S_39
   18  A    between atoms: C_32  and  N_51
   19  A    between atoms: C_32  and  C_54
   20  A    between atoms: C_36  and  C_56
   21  A    between atoms: S_39  and  N_46
   22  A    between atoms: C_41  and  C_54
   23  A    between atoms: C_53  and  C_56
                            x       y       z     vdW  Elec       q    Type
                         _______ _______ _______ _____ _____    ______ ____

>  <TORSDO>
F 23

$$$$
=
 OpenBabel11042419523D

 56 58  0  0  1  0  0  0  0  0999 V2000
  187.8230  177.4150  143.9110 C   0  0  1  0  0  3  0  0  0  0  0  0
  186.1470  178.3370  142.3530 N   0  0  0  0  0  2  0  0  0  0  0  0
  189.0090  176.1640  142.1430 C   0  0  0  0  0  0  0  0  0  0  0  0
  186.7700  177.0590  140.4740 O   0  0  0  0  0  0  0  0  0  0  0  0
  187.9270  176.7640  142.5700 C   0  0  0  0  0  0  0  0  0  0  0  0
  186.9300  177.3610  141.6880 C   0  0  0  0  0  0  0  0  0  0  0  0
  186.6840  178.3700  143.6740 C   0  0  0  0  0  0  0  0  0  0  0  0
  186.2450  179.1550  144.5560 O   0  0  0  0  0  0  0  0  0  0  0  0
  190.0890  175.5640  141.7090 C   0  0  0  0  0  3  0  0  0  0  0  0
  191.9880  172.2620  142.1420 C   0  0  0  0  0  1  0  0  0  0  0  0
  191.6400  173.6720  141.7600 C   0  0  0  0  0  0  0  0  0  0  0  0
  190.4110  174.1600  142.0370 C   0  0  0  0  0  0  0  0  0  0  0  0
  192.6290  174.5380  141.1770 N   0  0  0  0  0  0  0  0  0  0  0  0
  193.2120  174.4110  140.0170 C   0  0  0  0  0  3  0  0  0  0  0  0
  192.8870  173.3430  139.0190 C   0  0  0  0  0  2  0  0  0  0  0  0
  193.9470  173.2860  137.9290 C   0  0  0  0  0  2  0  0  0  0  0  0
  195.3360  173.5220  138.5000 C   0  0  0  0  0  2  0  0  0  0  0  0
  196.2140  174.0670  137.4810 N   0  0  0  0  0  2  0  0  0  0  0  0
  196.9740  175.1460  138.0900 C   0  0  0  0  0  2  0  0  0  0  0  0
  196.6850  175.2060  139.5790 C   0  0  0  0  0  1  0  0  0  0  0  0
  189.3710  173.3040  142.7120 C   0  0  0  0  0  2  0  0  0  0  0  0
  188.8570  172.3200  141.7690 N   0  0  0  0  0  2  0  0  0  0  0  0
  188.2060  173.0480  140.6900 C   0  0  0  0  0  2  0  0  0  0  0  0
  188.3370  172.2820  139.3770 C   0  0  2  0  0  3  0  0  0  0  0  0
  189.6880  171.5820  139.3430 C   0  0  0  0  0  1  0  0  0  0  0  0
  188.1910  173.2350  138.1970 C   0  0  1  0  0  3  0  0  0  0  0  0
  188.2540  174.5620  138.6410 O   0  0  0  0  0  1  0  0  0  0  0  0
  189.2970  172.9950  137.1820 C   0  0  0  0  0  2  0  0  0  0  0  0
  189.9660  174.3070  136.8000 C   0  0  0  0  0  2  0  0  0  0  0  0
  189.3140  173.5900  134.6100 O   0  0  0  0  0  1  0  0  0  0  0  0
  189.5520  174.7240  135.3960 C   0  0  2  0  0  3  0  0  0  0  0  0
  190.1390  176.9040  134.5540 O   0  0  0  0  0  1  0  0  0  0  0  0
  191.8540  175.6630  135.6530 C   0  0  0  0  0  1  0  0  0  0  0  0
  190.6230  175.6070  134.7640 C   0  0  1  0  0  3  0  0  0  0  0  0
  187.4290  176.4240  144.9050 N   0  0  0  0  0  2  0  0  0  0  0  0
  188.5640  175.1670  146.9630 O   0  0  0  0  0  0  0  0  0  0  0  0
  188.5630  176.4760  146.2160 S   0  0  0  0  0  0  0  0  0  0  0  0
  188.1940  177.5840  147.1580 O   0  0  0  0  0  0  0  0  0  0  0  0
  190.1810  176.7870  145.5370 C   0  0  0  0  0  2  0  0  0  0  0  0
  191.2820  176.1010  146.3560 C   0  0  1  0  0  3  0  0  0  0  0  0
  194.2910  175.3780  144.0250 C   0  0  2  0  0  3  0  0  0  0  0  0
  194.9040  177.1820  145.7820 C   0  0  0  0  0  3  0  0  0  0  0  0
  193.7200  177.0100  146.3690 C   0  0  0  0  0  3  0  0  0  0  0  0
  196.2430  176.7980  143.8760 O   0  0  0  0  0  0  0  0  0  0  0  0
  192.6660  176.1650  145.7570 C   0  0  0  0  0  0  0  0  0  0  0  0
  195.2040  176.4940  144.5200 C   0  0  0  0  0  0  0  0  0  0  0  0
  192.9200  175.4450  144.6530 C   0  0  0  0  0  3  0  0  0  0  0  0
  194.8700  174.0330  144.2060 N   0  0  0  0  0  0  0  0  0  0  0  0
  197.0460  173.4580  143.0070 C   0  0  0  0  0  2  0  0  0  0  0  0
  197.4020  172.1130  143.6270 C   0  0  0  0  0  2  0  0  0  0  0  0
  197.4450  172.1970  145.1490 C   0  0  0  0  0  2  0  0  0  0  0  0
  195.5240  173.6240  142.9460 C   0  0  0  0  0  2  0  0  0  0  0  0
  196.0790  172.5200  145.7400 C   0  0  0  0  0  2  0  0  0  0  0  0
  195.7070  173.9620  145.4160 C   0  0  0  0  0  2  0  0  0  0  0  0
  191.5030  175.3050  148.4960 C   0  0  0  0  0  1  0  0  0  0  0  0
  191.2490  176.4510  147.7260 O   0  0  0  0  0  0  0  0  0  0  0  0
  1 35  1  1  0  0  0
  2  7  1  0  0  0  0
  3  5  2  0  0  0  0
  4  6  2  0  0  0  0
  5  1  1  0  0  0  0
  6  2  1  0  0  0  0
  6  5  1  0  0  0  0
  7  1  1  0  0  0  0
  7  8  2  0  0  0  0
  9 12  1  0  0  0  0
  9  3  2  0  0  0  0
 11 12  2  0  0  0  0
 11 10  1  0  0  0  0
 12 21  1  0  0  0  0
 13 11  1  0  0  0  0
 14 13  2  0  0  0  0
 15 14  1  0  0  0  0
 16 17  1  0  0  0  0
 16 15  1  0  0  0  0
 18 19  1  0  0  0  0
 18 17  1  0  0  0  0
 19 20  1  0  0  0  0
 22 21  1  0  0  0  0
 23 22  1  0  0  0  0
 24 25  1  1  0  0  0
 24 23  1  0  0  0  0
 26 27  1  1  0  0  0
 26 24  1  0  0  0  0
 28 26  1  0  0  0  0
 29 28  1  0  0  0  0
 31 30  1  6  0  0  0
 31 29  1  0  0  0  0
 32 34  1  0  0  0  0
 34 31  1  0  0  0  0
 34 33  1  1  0  0  0
 35 37  1  0  0  0  0
 37 36  2  0  0  0  0
 37 38  2  0  0  0  0
 39 37  1  0  0  0  0
 40 39  1  6  0  0  0
 40 56  1  0  0  0  0
 41 48  1  1  0  0  0
 41 46  1  0  0  0  0
 41 47  1  0  0  0  0
 42 43  2  0  0  0  0
 44 46  2  0  0  0  0
 45 40  1  0  0  0  0
 45 43  1  0  0  0  0
 46 42  1  0  0  0  0
 47 45  2  0  0  0  0
 48 54  1  0  0  0  0
 49 50  1  0  0  0  0
 50 51  1  0  0  0  0
 51 53  1  0  0  0  0
 52 49  1  0  0  0  0
 52 48  1  0  0  0  0
 54 53  1  0  0  0  0
 56 55  1  0  0  0  0
M  END
>  <MODEL>
9

>  <REMARK>
 VINA RESULT:      -5.1      2.715      6.912
  Name = 
  23 active torsions:
  status: ('A' for Active; 'I' for Inactive)
    1  A    between atoms: C_1  and  C_8
    2  A    between atoms: C_1  and  C_31
    3  A    between atoms: C_2  and  N_46
    4  A    between atoms: C_4  and  C_7
    5  A    between atoms: C_4  and  C_36
    6  A    between atoms: N_6  and  C_43
    7  A    between atoms: C_7  and  C_20
    8  A    between atoms: C_8  and  C_42
    9  A    between atoms: C_9  and  N_14
   10  A    between atoms: C_11  and  N_21
   11  A    between atoms: C_20  and  C_23
   12  A    between atoms: N_21  and  C_31
   13  A    between atoms: C_22  and  C_26
   14  A    between atoms: C_22  and  O_28
   15  A    between atoms: C_22  and  C_38
   16  A    between atoms: C_23  and  N_51
   17  A    between atoms: C_26  and  S_39
   18  A    between atoms: C_32  and  N_51
   19  A    between atoms: C_32  and  C_54
   20  A    between atoms: C_36  and  C_56
   21  A    between atoms: S_39  and  N_46
   22  A    between atoms: C_41  and  C_54
   23  A    between atoms: C_53  and  C_56
                            x       y       z     vdW  Elec       q    Type
                         _______ _______ _______ _____ _____    ______ ____

>  <TORSDO>
F 23

$$$$
