=
 OpenBabel11042418033D

 57 62  0  0  1  0  0  0  0  0999 V2000
  187.8620  177.0810  141.4240 C   0  0  1  0  0  3  0  0  0  0  0  0
  186.3520  176.8710  141.6390 C   0  0  1  0  0  3  0  0  0  0  0  0
  184.1650  178.0850  141.4900 C   0  0  0  0  0  0  0  0  0  0  0  0
  185.8880  177.5610  142.9240 C   0  0  1  0  0  3  0  0  0  0  0  0
  182.8420  178.4640  141.1090 N   0  0  0  0  0  2  0  0  0  0  0  0
  184.5230  178.0140  142.7250 N   0  0  0  0  0  0  0  0  0  0  0  0
  185.3660  177.5920  140.2770 S   0  0  0  0  0  0  0  0  0  0  0  0
  186.0080  176.6650  144.1540 C   0  0  0  0  0  2  0  0  0  0  0  0
  186.7030  177.3540  145.3220 C   0  0  0  0  0  2  0  0  0  0  0  0
  188.2930  175.1150  147.7320 O   0  0  0  0  0  0  0  0  0  0  0  0
  188.1790  175.8600  146.7220 C   0  0  0  0  0  0  0  0  0  0  0  0
  186.8980  176.3970  146.3960 N   0  0  0  0  0  2  0  0  0  0  0  0
  189.3740  176.1450  145.8630 C   0  0  1  0  0  3  0  0  0  0  0  0
  190.6430  176.3450  146.7050 C   0  0  0  0  0  2  0  0  0  0  0  0
  191.8090  175.9560  145.9170 N   0  0  0  0  0  0  0  0  0  0  0  0
  190.3720  174.0120  145.2930 C   0  0  0  0  0  2  0  0  0  0  0  0
  191.7730  174.5040  145.7030 C   0  0  0  0  0  2  0  0  0  0  0  0
  189.5360  175.1210  144.8180 N   0  0  0  0  0  2  0  0  0  0  0  0
  192.9930  176.2500  146.7120 C   0  0  0  0  0  2  0  0  0  0  0  0
  194.2390  176.7350  144.7380 O   0  0  0  0  0  0  0  0  0  0  0  0
  194.2100  176.1600  145.8580 C   0  0  0  0  0  0  0  0  0  0  0  0
  195.2850  175.3850  146.2680 O   0  0  0  0  0  1  0  0  0  0  0  0
  181.9040  178.9010  142.0530 N   0  0  0  0  0  2  0  0  0  0  0  0
  180.7150  179.3060  141.3140 C   0  0  0  0  0  2  0  0  0  0  0  0
  179.0020  177.5540  140.9680 O   0  0  0  0  0  0  0  0  0  0  0  0
  179.5520  178.4700  141.7240 C   0  0  0  0  0  0  0  0  0  0  0  0
  178.8910  178.5720  142.9280 C   0  0  0  0  0  3  0  0  0  0  0  0
  177.9930  177.0200  141.6150 C   0  0  0  0  0  3  0  0  0  0  0  0
  177.8810  177.6260  142.8570 C   0  0  0  0  0  3  0  0  0  0  0  0
  188.4130  178.2330  142.2300 C   0  0  0  0  0  3  0  0  0  0  0  0
  189.6000  178.1860  142.8330 C   0  0  0  0  0  2  0  0  0  0  0  0
  188.7130  175.8110  141.5870 C   0  0  0  0  0  2  0  0  0  0  0  0
  187.8930  174.5490  141.5750 C   0  0  0  0  0  3  0  0  0  0  0  0
  188.4470  173.3310  141.6280 C   0  0  0  0  0  3  0  0  0  0  0  0
  189.9270  173.1290  141.7140 C   0  0  0  0  0  2  0  0  0  0  0  0
  190.3290  171.8890  140.9450 C   0  0  0  0  0  2  0  0  0  0  0  0
  192.2350  173.3730  140.2480 C   0  0  1  0  0  3  0  0  0  0  0  0
  192.7290  171.4070  141.8080 C   0  0  2  0  0  3  0  0  0  0  0  0
  194.3350  173.1950  141.6970 C   0  0  2  0  0  3  0  0  0  0  0  0
  195.6060  172.3610  141.5250 C   0  0  0  0  0  2  0  0  0  0  0  0
  196.8360  173.2580  141.4700 C   0  0  0  0  0  2  0  0  0  0  0  0
  196.2310  174.4440  139.2720 C   0  0  0  0  0  2  0  0  0  0  0  0
  195.5200  175.2850  140.1430 O   0  0  0  0  0  0  0  0  0  0  0  0
  197.2570  173.6050  140.0400 C   0  0  0  0  0  2  0  0  0  0  0  0
  193.3640  172.4960  142.5530 N   0  0  0  0  0  2  0  0  0  0  0  0
  191.8290  171.9450  140.6650 C   0  0  1  0  0  3  0  0  0  0  0  0
  193.7590  173.5840  140.3210 C   0  0  2  0  0  3  0  0  0  0  0  0
  194.1510  175.0190  139.9320 C   0  0  0  0  0  2  0  0  0  0  0  0
  191.6600  173.7820  139.0190 O   0  0  0  0  0  0  0  0  0  0  0  0
  191.9040  172.7940  138.0460 C   0  0  0  0  0  1  0  0  0  0  0  0
  192.0390  170.4530  142.7720 C   0  0  0  0  0  2  0  0  0  0  0  0
  192.9170  169.3380  143.1040 N   0  0  0  0  0  2  0  0  0  0  0  0
  193.1050  169.3420  144.5550 C   0  0  2  0  0  3  0  0  0  0  0  0
  195.4050  170.0970  143.8690 F   0  0  0  0  0  0  0  0  0  0  0  0
  194.5210  169.7700  144.8860 C   0  0  2  0  0  0  0  0  0  0  0  0
  194.1590  168.3090  144.9680 C   0  0  0  0  0  2  0  0  0  0  0  0
  194.6990  170.3700  146.1340 O   0  0  0  0  0  1  0  0  0  0  0  0
  1 32  1  1  0  0  0
  1 30  1  0  0  0  0
  2  1  1  6  0  0  0
  2  4  1  0  0  0  0
  3  6  2  0  0  0  0
  4  8  1  1  0  0  0
  5  3  1  0  0  0  0
  5 23  1  0  0  0  0
  6  4  1  0  0  0  0
  7  3  1  0  0  0  0
  7  2  1  0  0  0  0
  8  9  1  0  0  0  0
  9 12  1  0  0  0  0
 11 10  2  0  0  0  0
 12 11  1  0  0  0  0
 13 14  1  0  0  0  0
 13 11  1  1  0  0  0
 15 14  1  0  0  0  0
 15 19  1  0  0  0  0
 16 17  1  0  0  0  0
 17 15  1  0  0  0  0
 18 16  1  0  0  0  0
 18 13  1  0  0  0  0
 20 21  2  0  0  0  0
 21 22  1  0  0  0  0
 21 19  1  0  0  0  0
 24 26  1  0  0  0  0
 24 23  1  0  0  0  0
 25 28  1  0  0  0  0
 25 26  1  0  0  0  0
 26 27  2  0  0  0  0
 28 29  2  0  0  0  0
 29 27  1  0  0  0  0
 30 31  2  0  0  0  0
 33 32  1  0  0  0  0
 33 34  2  0  0  0  0
 34 35  1  0  0  0  0
 36 35  1  0  0  0  0
 37 49  1  6  0  0  0
 37 47  1  0  0  0  0
 37 46  1  0  0  0  0
 38 45  1  0  0  0  0
 38 51  1  1  0  0  0
 39 40  1  6  0  0  0
 39 45  1  0  0  0  0
 41 40  1  0  0  0  0
 42 44  1  0  0  0  0
 42 43  1  0  0  0  0
 44 41  1  0  0  0  0
 46 36  1  1  0  0  0
 46 38  1  0  0  0  0
 47 48  1  1  0  0  0
 47 39  1  0  0  0  0
 48 43  1  0  0  0  0
 50 49  1  0  0  0  0
 51 52  1  0  0  0  0
 53 52  1  6  0  0  0
 53 55  1  0  0  0  0
 53 56  1  0  0  0  0
 55 54  1  6  0  0  0
 55 56  1  0  0  0  0
 55 57  1  0  0  0  0
M  END
>  <MODEL>
1

>  <REMARK>
 VINA RESULT:      -6.4      0.000      0.000
  Name = 
  20 active torsions:
  status: ('A' for Active; 'I' for Inactive)
    1  A    between atoms: C_1  and  N_13
    2  A    between atoms: C_1  and  C_28
    3  A    between atoms: C_2  and  C_34
    4  A    between atoms: C_3  and  O_9
    5  A    between atoms: C_4  and  C_32
    6  A    between atoms: C_5  and  C_56
    7  A    between atoms: C_7  and  N_51
    8  A    between atoms: N_11  and  C_45
    9  A    between atoms: N_13  and  N_23
   10  A    between atoms: C_14  and  C_29
   11  A    between atoms: C_14  and  N_35
   12  A    between atoms: C_17  and  C_29
   13  A    between atoms: C_19  and  C_21
   14  A    between atoms: C_19  and  C_54
   15  A    between atoms: C_21  and  C_39
   16  A    between atoms: C_25  and  C_34
   17  A    between atoms: C_34  and  C_42
   18  A    between atoms: C_36  and  C_42
   19  A    between atoms: C_45  and  C_46
   20  A    between atoms: N_51  and  C_56
                            x       y       z     vdW  Elec       q    Type
                         _______ _______ _______ _____ _____    ______ ____

>  <TORSDO>
F 20

$$$$
=
 OpenBabel11042418033D

 57 62  0  0  1  0  0  0  0  0999 V2000
  186.7720  177.9280  144.9820 C   0  0  1  0  0  3  0  0  0  0  0  0
  186.3570  177.1950  143.6920 C   0  0  1  0  0  3  0  0  0  0  0  0
  186.9830  176.9770  141.2760 C   0  0  0  0  0  0  0  0  0  0  0  0
  185.6430  178.1510  142.7330 C   0  0  1  0  0  3  0  0  0  0  0  0
  187.4050  176.4380  140.0230 N   0  0  0  0  0  2  0  0  0  0  0  0
  185.9510  177.7410  141.3760 N   0  0  0  0  0  0  0  0  0  0  0  0
  187.8060  176.5400  142.7890 S   0  0  0  0  0  0  0  0  0  0  0  0
  184.1370  178.2130  142.9730 C   0  0  0  0  0  2  0  0  0  0  0  0
  183.3940  178.9680  141.8770 C   0  0  0  0  0  2  0  0  0  0  0  0
  180.8190  177.4790  139.7570 O   0  0  0  0  0  0  0  0  0  0  0  0
  181.3550  178.2990  140.5490 C   0  0  0  0  0  0  0  0  0  0  0  0
  182.6600  178.0230  141.0560 N   0  0  0  0  0  2  0  0  0  0  0  0
  180.6090  179.5280  140.9720 C   0  0  1  0  0  3  0  0  0  0  0  0
  179.6480  180.0140  139.8770 C   0  0  0  0  0  2  0  0  0  0  0  0
  178.5270  180.7140  140.4970 N   0  0  0  0  0  0  0  0  0  0  0  0
  178.5890  178.7930  142.0900 C   0  0  0  0  0  2  0  0  0  0  0  0
  177.7200  179.7440  141.2480 C   0  0  0  0  0  2  0  0  0  0  0  0
  179.9440  179.3290  142.2700 N   0  0  0  0  0  2  0  0  0  0  0  0
  177.6920  181.2390  139.4250 C   0  0  0  0  0  2  0  0  0  0  0  0
  178.5800  183.3560  140.0710 O   0  0  0  0  0  1  0  0  0  0  0  0
  178.0410  182.6650  139.1670 C   0  0  0  0  0  0  0  0  0  0  0  0
  177.7100  183.2470  137.9530 O   0  0  0  0  0  0  0  0  0  0  0  0
  186.7930  176.8140  138.8190 N   0  0  0  0  0  2  0  0  0  0  0  0
  187.1660  175.8180  137.8250 C   0  0  0  0  0  2  0  0  0  0  0  0
  185.0410  175.8170  136.5560 O   0  0  0  0  0  0  0  0  0  0  0  0
  186.3380  175.9890  136.5980 C   0  0  0  0  0  0  0  0  0  0  0  0
  186.8270  176.3170  135.3530 C   0  0  0  0  0  3  0  0  0  0  0  0
  184.6240  176.0240  135.3290 C   0  0  0  0  0  3  0  0  0  0  0  0
  185.7120  176.3440  134.5310 C   0  0  0  0  0  3  0  0  0  0  0  0
  185.7750  177.7500  146.1020 C   0  0  0  0  0  3  0  0  0  0  0  0
  185.5770  178.6740  147.0420 C   0  0  0  0  0  2  0  0  0  0  0  0
  188.2090  177.6430  145.4450 C   0  0  0  0  0  2  0  0  0  0  0  0
  188.2840  176.5800  146.5080 C   0  0  0  0  0  3  0  0  0  0  0  0
  189.4220  175.9430  146.8090 C   0  0  0  0  0  3  0  0  0  0  0  0
  190.7140  176.2450  146.1170 C   0  0  0  0  0  2  0  0  0  0  0  0
  191.4160  174.9580  145.7400 C   0  0  0  0  0  2  0  0  0  0  0  0
  193.9000  174.9610  145.3550 C   0  0  1  0  0  3  0  0  0  0  0  0
  192.3560  174.6050  143.3470 C   0  0  2  0  0  3  0  0  0  0  0  0
  194.6560  173.9290  143.1400 C   0  0  2  0  0  3  0  0  0  0  0  0
  194.9700  174.5730  141.7880 C   0  0  0  0  0  2  0  0  0  0  0  0
  196.4010  174.2610  141.3630 C   0  0  0  0  0  2  0  0  0  0  0  0
  197.5550  175.5470  143.2640 C   0  0  0  0  0  2  0  0  0  0  0  0
  197.3730  174.3310  143.9410 O   0  0  0  0  0  0  0  0  0  0  0  0
  197.3910  175.3600  141.7530 C   0  0  0  0  0  2  0  0  0  0  0  0
  193.2610  173.4650  143.1850 N   0  0  0  0  0  2  0  0  0  0  0  0
  192.5230  175.2740  144.7370 C   0  0  1  0  0  3  0  0  0  0  0  0
  195.0090  174.8950  144.2890 C   0  0  2  0  0  3  0  0  0  0  0  0
  196.3730  174.5540  144.9110 C   0  0  0  0  0  2  0  0  0  0  0  0
  194.2180  175.7900  146.4600 O   0  0  0  0  0  0  0  0  0  0  0  0
  194.0190  177.1360  146.0970 C   0  0  0  0  0  1  0  0  0  0  0  0
  190.9330  174.1900  143.0010 C   0  0  0  0  0  2  0  0  0  0  0  0
  190.9380  173.0130  142.1430 N   0  0  0  0  0  2  0  0  0  0  0  0
  191.3030  173.4500  140.7960 C   0  0  2  0  0  3  0  0  0  0  0  0
  189.0950  172.3690  140.2610 F   0  0  0  0  0  0  0  0  0  0  0  0
  190.2220  173.0420  139.8150 C   0  0  2  0  0  0  0  0  0  0  0  0
  191.5010  172.2460  139.8700 C   0  0  0  0  0  2  0  0  0  0  0  0
  190.1080  173.8340  138.6710 O   0  0  0  0  0  1  0  0  0  0  0  0
  1 32  1  1  0  0  0
  1 30  1  0  0  0  0
  2  1  1  1  0  0  0
  3  6  2  0  0  0  0
  3  7  1  0  0  0  0
  4  8  1  6  0  0  0
  4  2  1  0  0  0  0
  5  3  1  0  0  0  0
  6  4  1  0  0  0  0
  7  2  1  0  0  0  0
  9  8  1  0  0  0  0
 10 11  2  0  0  0  0
 11 12  1  0  0  0  0
 12  9  1  0  0  0  0
 13 11  1  6  0  0  0
 13 18  1  0  0  0  0
 14 15  1  0  0  0  0
 14 13  1  0  0  0  0
 15 17  1  0  0  0  0
 16 18  1  0  0  0  0
 17 16  1  0  0  0  0
 19 15  1  0  0  0  0
 21 19  1  0  0  0  0
 21 20  1  0  0  0  0
 22 21  2  0  0  0  0
 23  5  1  0  0  0  0
 24 23  1  0  0  0  0
 25 26  1  0  0  0  0
 26 24  1  0  0  0  0
 27 26  2  0  0  0  0
 28 25  1  0  0  0  0
 29 28  2  0  0  0  0
 29 27  1  0  0  0  0
 30 31  2  0  0  0  0
 32 33  1  0  0  0  0
 33 34  2  0  0  0  0
 35 34  1  0  0  0  0
 36 35  1  0  0  0  0
 37 49  1  1  0  0  0
 38 51  1  1  0  0  0
 38 46  1  0  0  0  0
 39 40  1  6  0  0  0
 39 45  1  0  0  0  0
 39 47  1  0  0  0  0
 41 44  1  0  0  0  0
 41 40  1  0  0  0  0
 42 43  1  0  0  0  0
 43 48  1  0  0  0  0
 44 42  1  0  0  0  0
 45 38  1  0  0  0  0
 46 37  1  0  0  0  0
 46 36  1  1  0  0  0
 47 48  1  1  0  0  0
 47 37  1  0  0  0  0
 50 49  1  0  0  0  0
 52 51  1  0  0  0  0
 53 52  1  1  0  0  0
 55 57  1  6  0  0  0
 55 56  1  0  0  0  0
 55 54  1  0  0  0  0
 55 53  1  0  0  0  0
 56 53  1  0  0  0  0
M  END
>  <MODEL>
2

>  <REMARK>
 VINA RESULT:      -6.2      3.219      8.654
  Name = 
  20 active torsions:
  status: ('A' for Active; 'I' for Inactive)
    1  A    between atoms: C_1  and  N_13
    2  A    between atoms: C_1  and  C_28
    3  A    between atoms: C_2  and  C_34
    4  A    between atoms: C_3  and  O_9
    5  A    between atoms: C_4  and  C_32
    6  A    between atoms: C_5  and  C_56
    7  A    between atoms: C_7  and  N_51
    8  A    between atoms: N_11  and  C_45
    9  A    between atoms: N_13  and  N_23
   10  A    between atoms: C_14  and  C_29
   11  A    between atoms: C_14  and  N_35
   12  A    between atoms: C_17  and  C_29
   13  A    between atoms: C_19  and  C_21
   14  A    between atoms: C_19  and  C_54
   15  A    between atoms: C_21  and  C_39
   16  A    between atoms: C_25  and  C_34
   17  A    between atoms: C_34  and  C_42
   18  A    between atoms: C_36  and  C_42
   19  A    between atoms: C_45  and  C_46
   20  A    between atoms: N_51  and  C_56
                            x       y       z     vdW  Elec       q    Type
                         _______ _______ _______ _____ _____    ______ ____

>  <TORSDO>
F 20

$$$$
=
 OpenBabel11042418033D

 57 62  0  0  1  0  0  0  0  0999 V2000
  194.7880  174.6860  143.1280 C   0  0  1  0  0  3  0  0  0  0  0  0
  195.9810  174.4290  142.1880 C   0  0  1  0  0  3  0  0  0  0  0  0
  196.8630  175.0550  139.9280 C   0  0  0  0  0  0  0  0  0  0  0  0
  195.5740  173.5050  141.0380 C   0  0  1  0  0  3  0  0  0  0  0  0
  197.6920  175.5700  138.8850 N   0  0  0  0  0  2  0  0  0  0  0  0
  196.3430  173.8790  139.8650 N   0  0  0  0  0  0  0  0  0  0  0  0
  196.5850  175.9760  141.4220 S   0  0  0  0  0  0  0  0  0  0  0  0
  195.7500  172.0270  141.3770 C   0  0  0  0  0  2  0  0  0  0  0  0
  194.4980  171.2030  141.1000 C   0  0  0  0  0  2  0  0  0  0  0  0
  193.5420  170.3110  137.6900 O   0  0  0  0  0  0  0  0  0  0  0  0
  193.4040  170.6670  138.8900 C   0  0  0  0  0  0  0  0  0  0  0  0
  194.5490  170.6950  139.7420 N   0  0  0  0  0  2  0  0  0  0  0  0
  192.0460  171.0230  139.4140 C   0  0  1  0  0  3  0  0  0  0  0  0
  191.2560  171.8770  138.4110 C   0  0  0  0  0  2  0  0  0  0  0  0
  189.8270  171.6460  138.6040 N   0  0  0  0  0  0  0  0  0  0  0  0
  190.5310  169.2550  138.7430 C   0  0  0  0  0  2  0  0  0  0  0  0
  189.5110  170.2710  138.1980 C   0  0  0  0  0  2  0  0  0  0  0  0
  191.3110  169.8240  139.8490 N   0  0  0  0  0  2  0  0  0  0  0  0
  189.1140  172.5410  137.7030 C   0  0  0  0  0  2  0  0  0  0  0  0
  187.9380  174.6080  137.8840 O   0  0  0  0  0  0  0  0  0  0  0  0
  188.4830  173.6440  138.4830 C   0  0  0  0  0  0  0  0  0  0  0  0
  188.5580  173.6400  139.8670 O   0  0  0  0  0  1  0  0  0  0  0  0
  197.8770  174.8730  137.6840 N   0  0  0  0  0  2  0  0  0  0  0  0
  197.8240  175.8560  136.6100 C   0  0  0  0  0  2  0  0  0  0  0  0
  195.3940  175.3860  136.6110 O   0  0  0  0  0  0  0  0  0  0  0  0
  196.4470  175.9130  136.0410 C   0  0  0  0  0  0  0  0  0  0  0  0
  196.1130  176.4950  134.8380 C   0  0  0  0  0  3  0  0  0  0  0  0
  194.3480  175.5940  135.8460 C   0  0  0  0  0  3  0  0  0  0  0  0
  194.7490  176.2900  134.7150 C   0  0  0  0  0  3  0  0  0  0  0  0
  195.1190  174.4210  144.5780 C   0  0  0  0  0  3  0  0  0  0  0  0
  194.4020  173.5940  145.3390 C   0  0  0  0  0  2  0  0  0  0  0  0
  194.1060  176.0500  142.9370 C   0  0  0  0  0  2  0  0  0  0  0  0
  193.5780  176.6280  144.2220 C   0  0  0  0  0  3  0  0  0  0  0  0
  192.4160  177.2900  144.2880 C   0  0  0  0  0  3  0  0  0  0  0  0
  191.5460  177.5010  143.0890 C   0  0  0  0  0  2  0  0  0  0  0  0
  190.3520  176.5720  143.1430 C   0  0  0  0  0  2  0  0  0  0  0  0
  187.9970  177.4480  143.1010 C   0  0  1  0  0  3  0  0  0  0  0  0
  188.9050  176.5020  145.2960 C   0  0  2  0  0  3  0  0  0  0  0  0
  186.5190  176.6840  145.0440 C   0  0  2  0  0  3  0  0  0  0  0  0
  186.1920  177.3550  146.3790 C   0  0  0  0  0  2  0  0  0  0  0  0
  184.6880  177.5600  146.5240 C   0  0  0  0  0  2  0  0  0  0  0  0
  184.4370  179.2320  144.5900 C   0  0  0  0  0  2  0  0  0  0  0  0
  184.3160  178.0530  143.8380 O   0  0  0  0  0  0  0  0  0  0  0  0
  184.2320  178.9510  146.0820 C   0  0  0  0  0  2  0  0  0  0  0  0
  187.6510  175.7550  145.1900 N   0  0  0  0  0  2  0  0  0  0  0  0
  189.2510  177.2290  143.9710 C   0  0  1  0  0  3  0  0  0  0  0  0
  186.7490  177.7490  143.9520 C   0  0  2  0  0  3  0  0  0  0  0  0
  185.4980  177.9350  143.0770 C   0  0  0  0  0  2  0  0  0  0  0  0
  188.2030  178.3700  142.0440 O   0  0  0  0  0  0  0  0  0  0  0  0
  187.8080  177.7740  140.8310 C   0  0  0  0  0  1  0  0  0  0  0  0
  190.0040  175.5970  145.8360 C   0  0  0  0  0  2  0  0  0  0  0  0
  189.5850  174.2020  145.7890 N   0  0  0  0  0  2  0  0  0  0  0  0
  190.5950  173.4630  145.0340 C   0  0  2  0  0  3  0  0  0  0  0  0
  188.8510  173.6740  143.2330 F   0  0  0  0  0  0  0  0  0  0  0  0
  190.0970  173.2080  143.6250 C   0  0  2  0  0  0  0  0  0  0  0  0
  190.0680  172.0830  144.6280 C   0  0  0  0  0  2  0  0  0  0  0  0
  191.0830  173.0570  142.6480 O   0  0  0  0  0  1  0  0  0  0  0  0
  1 32  1  1  0  0  0
  1 30  1  0  0  0  0
  2  1  1  1  0  0  0
  3  7  1  0  0  0  0
  4  8  1  1  0  0  0
  4  2  1  0  0  0  0
  5  3  1  0  0  0  0
  6  3  2  0  0  0  0
  6  4  1  0  0  0  0
  7  2  1  0  0  0  0
  9  8  1  0  0  0  0
 10 11  2  0  0  0  0
 11 12  1  0  0  0  0
 12  9  1  0  0  0  0
 13 11  1  6  0  0  0
 13 18  1  0  0  0  0
 14 15  1  0  0  0  0
 14 13  1  0  0  0  0
 16 18  1  0  0  0  0
 17 15  1  0  0  0  0
 17 16  1  0  0  0  0
 19 21  1  0  0  0  0
 19 15  1  0  0  0  0
 20 21  2  0  0  0  0
 21 22  1  0  0  0  0
 23  5  1  0  0  0  0
 24 23  1  0  0  0  0
 26 24  1  0  0  0  0
 26 25  1  0  0  0  0
 27 26  2  0  0  0  0
 28 25  1  0  0  0  0
 29 27  1  0  0  0  0
 29 28  2  0  0  0  0
 30 31  2  0  0  0  0
 32 33  1  0  0  0  0
 33 34  2  0  0  0  0
 35 36  1  0  0  0  0
 35 34  1  0  0  0  0
 37 49  1  6  0  0  0
 37 47  1  0  0  0  0
 37 46  1  0  0  0  0
 38 51  1  6  0  0  0
 39 45  1  0  0  0  0
 39 40  1  1  0  0  0
 40 41  1  0  0  0  0
 42 44  1  0  0  0  0
 43 42  1  0  0  0  0
 44 41  1  0  0  0  0
 45 38  1  0  0  0  0
 46 36  1  6  0  0  0
 46 38  1  0  0  0  0
 47 48  1  6  0  0  0
 47 39  1  0  0  0  0
 48 43  1  0  0  0  0
 50 49  1  0  0  0  0
 52 51  1  0  0  0  0
 53 52  1  1  0  0  0
 54 55  1  0  0  0  0
 55 57  1  6  0  0  0
 55 56  1  0  0  0  0
 55 53  1  0  0  0  0
 56 53  1  0  0  0  0
M  END
>  <MODEL>
3

>  <REMARK>
 VINA RESULT:      -6.1      3.962     10.819
  Name = 
  20 active torsions:
  status: ('A' for Active; 'I' for Inactive)
    1  A    between atoms: C_1  and  N_13
    2  A    between atoms: C_1  and  C_28
    3  A    between atoms: C_2  and  C_34
    4  A    between atoms: C_3  and  O_9
    5  A    between atoms: C_4  and  C_32
    6  A    between atoms: C_5  and  C_56
    7  A    between atoms: C_7  and  N_51
    8  A    between atoms: N_11  and  C_45
    9  A    between atoms: N_13  and  N_23
   10  A    between atoms: C_14  and  C_29
   11  A    between atoms: C_14  and  N_35
   12  A    between atoms: C_17  and  C_29
   13  A    between atoms: C_19  and  C_21
   14  A    between atoms: C_19  and  C_54
   15  A    between atoms: C_21  and  C_39
   16  A    between atoms: C_25  and  C_34
   17  A    between atoms: C_34  and  C_42
   18  A    between atoms: C_36  and  C_42
   19  A    between atoms: C_45  and  C_46
   20  A    between atoms: N_51  and  C_56
                            x       y       z     vdW  Elec       q    Type
                         _______ _______ _______ _____ _____    ______ ____

>  <TORSDO>
F 20

$$$$
=
 OpenBabel11042418033D

 57 62  0  0  1  0  0  0  0  0999 V2000
  188.1090  176.8800  141.6010 C   0  0  1  0  0  3  0  0  0  0  0  0
  186.5720  176.7880  141.6090 C   0  0  1  0  0  3  0  0  0  0  0  0
  184.5270  178.1220  141.0440 C   0  0  0  0  0  0  0  0  0  0  0  0
  185.9870  177.6210  142.7520 C   0  0  1  0  0  3  0  0  0  0  0  0
  183.3050  178.5500  140.4440 N   0  0  0  0  0  2  0  0  0  0  0  0
  184.7020  178.1410  142.3200 N   0  0  0  0  0  0  0  0  0  0  0  0
  185.8450  177.4440  140.0640 S   0  0  0  0  0  0  0  0  0  0  0  0
  185.8640  176.8340  144.0550 C   0  0  0  0  0  2  0  0  0  0  0  0
  186.2420  177.6570  145.2810 C   0  0  0  0  0  2  0  0  0  0  0  0
  187.6440  175.5380  147.9040 O   0  0  0  0  0  0  0  0  0  0  0  0
  187.5980  176.2050  146.8370 C   0  0  0  0  0  0  0  0  0  0  0  0
  186.3560  176.7790  146.4310 N   0  0  0  0  0  2  0  0  0  0  0  0
  188.8290  176.3610  145.9970 C   0  0  1  0  0  3  0  0  0  0  0  0
  190.0790  176.5940  146.8590 C   0  0  0  0  0  2  0  0  0  0  0  0
  191.2520  176.0870  146.1520 N   0  0  0  0  0  0  0  0  0  0  0  0
  189.7570  174.1470  145.6670 C   0  0  0  0  0  2  0  0  0  0  0  0
  191.1630  174.6230  146.0760 C   0  0  0  0  0  2  0  0  0  0  0  0
  188.9820  175.2360  145.0600 N   0  0  0  0  0  2  0  0  0  0  0  0
  192.4220  176.4120  146.9570 C   0  0  0  0  0  2  0  0  0  0  0  0
  193.4520  177.1100  144.9220 O   0  0  0  0  0  0  0  0  0  0  0  0
  193.6020  176.6150  146.0710 C   0  0  0  0  0  0  0  0  0  0  0  0
  194.8570  176.1970  146.4870 O   0  0  0  0  0  1  0  0  0  0  0  0
  182.2790  179.1310  141.2020 N   0  0  0  0  0  2  0  0  0  0  0  0
  181.1810  178.1740  141.2340 C   0  0  0  0  0  2  0  0  0  0  0  0
  178.8230  178.5630  141.8770 O   0  0  0  0  0  0  0  0  0  0  0  0
  179.8780  178.8940  141.1760 C   0  0  0  0  0  0  0  0  0  0  0  0
  179.6050  179.9700  140.3600 C   0  0  0  0  0  3  0  0  0  0  0  0
  177.8410  179.3810  141.5780 C   0  0  0  0  0  3  0  0  0  0  0  0
  178.2830  180.2880  140.6270 C   0  0  0  0  0  3  0  0  0  0  0  0
  188.6380  177.9150  142.5650 C   0  0  0  0  0  3  0  0  0  0  0  0
  189.9280  178.0070  142.8850 C   0  0  0  0  0  2  0  0  0  0  0  0
  188.8300  175.5310  141.7590 C   0  0  0  0  0  2  0  0  0  0  0  0
  187.8900  174.3560  141.7350 C   0  0  0  0  0  3  0  0  0  0  0  0
  188.2920  173.1080  142.0070 C   0  0  0  0  0  3  0  0  0  0  0  0
  189.7080  172.7850  142.3660 C   0  0  0  0  0  2  0  0  0  0  0  0
  190.4810  172.3870  141.1270 C   0  0  0  0  0  2  0  0  0  0  0  0
  192.5040  173.0170  142.4810 C   0  0  1  0  0  3  0  0  0  0  0  0
  191.9960  170.5340  142.1320 C   0  0  2  0  0  3  0  0  0  0  0  0
  193.4560  171.1470  143.9440 C   0  0  2  0  0  3  0  0  0  0  0  0
  194.5850  170.1470  143.6860 C   0  0  0  0  0  2  0  0  0  0  0  0
  195.6720  170.2770  144.7470 C   0  0  0  0  0  2  0  0  0  0  0  0
  196.4120  172.6540  144.1150 C   0  0  0  0  0  2  0  0  0  0  0  0
  195.3660  173.0060  144.9840 O   0  0  0  0  0  0  0  0  0  0  0  0
  196.8190  171.1920  144.3160 C   0  0  0  0  0  2  0  0  0  0  0  0
  192.1520  170.5660  143.5870 N   0  0  0  0  0  2  0  0  0  0  0  0
  191.8900  171.9630  141.5380 C   0  0  1  0  0  3  0  0  0  0  0  0
  193.7430  172.4780  143.2200 C   0  0  2  0  0  3  0  0  0  0  0  0
  194.3300  173.5250  144.1800 C   0  0  0  0  0  2  0  0  0  0  0  0
  192.7110  174.2720  141.8580 O   0  0  0  0  0  0  0  0  0  0  0  0
  193.5780  174.1030  140.7610 C   0  0  0  0  0  1  0  0  0  0  0  0
  190.8600  169.5960  141.7530 C   0  0  0  0  0  2  0  0  0  0  0  0
  191.3450  168.5290  140.8870 N   0  0  0  0  0  2  0  0  0  0  0  0
  192.0890  169.1530  139.7930 C   0  0  2  0  0  3  0  0  0  0  0  0
  189.7950  169.1800  138.7600 F   0  0  0  0  0  0  0  0  0  0  0  0
  191.1460  169.4740  138.6510 C   0  0  2  0  0  0  0  0  0  0  0  0
  192.0500  168.2730  138.5390 C   0  0  0  0  0  2  0  0  0  0  0  0
  191.5260  170.5350  137.8270 O   0  0  0  0  0  1  0  0  0  0  0  0
  1 32  1  1  0  0  0
  1 30  1  0  0  0  0
  2  1  1  6  0  0  0
  2  4  1  0  0  0  0
  3  6  2  0  0  0  0
  4  8  1  1  0  0  0
  5  3  1  0  0  0  0
  5 23  1  0  0  0  0
  6  4  1  0  0  0  0
  7  3  1  0  0  0  0
  7  2  1  0  0  0  0
  8  9  1  0  0  0  0
  9 12  1  0  0  0  0
 11 10  2  0  0  0  0
 12 11  1  0  0  0  0
 13 11  1  1  0  0  0
 13 14  1  0  0  0  0
 15 14  1  0  0  0  0
 15 19  1  0  0  0  0
 16 17  1  0  0  0  0
 17 15  1  0  0  0  0
 18 16  1  0  0  0  0
 18 13  1  0  0  0  0
 20 21  2  0  0  0  0
 21 22  1  0  0  0  0
 21 19  1  0  0  0  0
 23 24  1  0  0  0  0
 26 24  1  0  0  0  0
 26 25  1  0  0  0  0
 27 29  1  0  0  0  0
 27 26  2  0  0  0  0
 28 25  1  0  0  0  0
 29 28  2  0  0  0  0
 30 31  2  0  0  0  0
 33 32  1  0  0  0  0
 33 34  2  0  0  0  0
 34 35  1  0  0  0  0
 36 35  1  0  0  0  0
 37 49  1  6  0  0  0
 37 47  1  0  0  0  0
 38 51  1  1  0  0  0
 38 45  1  0  0  0  0
 39 40  1  6  0  0  0
 40 41  1  0  0  0  0
 42 44  1  0  0  0  0
 42 43  1  0  0  0  0
 44 41  1  0  0  0  0
 45 39  1  0  0  0  0
 46 36  1  1  0  0  0
 46 38  1  0  0  0  0
 46 37  1  0  0  0  0
 47 39  1  0  0  0  0
 47 48  1  1  0  0  0
 48 43  1  0  0  0  0
 50 49  1  0  0  0  0
 52 51  1  0  0  0  0
 53 52  1  1  0  0  0
 55 57  1  6  0  0  0
 55 54  1  0  0  0  0
 55 53  1  0  0  0  0
 56 55  1  0  0  0  0
 56 53  1  0  0  0  0
M  END
>  <MODEL>
4

>  <REMARK>
 VINA RESULT:      -6.0      1.882      2.953
  Name = 
  20 active torsions:
  status: ('A' for Active; 'I' for Inactive)
    1  A    between atoms: C_1  and  N_13
    2  A    between atoms: C_1  and  C_28
    3  A    between atoms: C_2  and  C_34
    4  A    between atoms: C_3  and  O_9
    5  A    between atoms: C_4  and  C_32
    6  A    between atoms: C_5  and  C_56
    7  A    between atoms: C_7  and  N_51
    8  A    between atoms: N_11  and  C_45
    9  A    between atoms: N_13  and  N_23
   10  A    between atoms: C_14  and  C_29
   11  A    between atoms: C_14  and  N_35
   12  A    between atoms: C_17  and  C_29
   13  A    between atoms: C_19  and  C_21
   14  A    between atoms: C_19  and  C_54
   15  A    between atoms: C_21  and  C_39
   16  A    between atoms: C_25  and  C_34
   17  A    between atoms: C_34  and  C_42
   18  A    between atoms: C_36  and  C_42
   19  A    between atoms: C_45  and  C_46
   20  A    between atoms: N_51  and  C_56
                            x       y       z     vdW  Elec       q    Type
                         _______ _______ _______ _____ _____    ______ ____

>  <TORSDO>
F 20

$$$$
=
 OpenBabel11042418033D

 57 62  0  0  1  0  0  0  0  0999 V2000
  190.2410  174.4070  142.7560 C   0  0  1  0  0  3  0  0  0  0  0  0
  191.3650  175.4280  142.5010 C   0  0  1  0  0  3  0  0  0  0  0  0
  193.8600  175.6550  142.5770 C   0  0  0  0  0  0  0  0  0  0  0  0
  191.9450  175.9360  143.8230 C   0  0  1  0  0  3  0  0  0  0  0  0
  195.2200  175.8590  142.1940 N   0  0  0  0  0  2  0  0  0  0  0  0
  193.3540  176.2170  143.6200 N   0  0  0  0  0  0  0  0  0  0  0  0
  192.7570  174.6870  141.5750 S   0  0  0  0  0  0  0  0  0  0  0  0
  191.2020  177.1540  144.3660 C   0  0  0  0  0  2  0  0  0  0  0  0
  191.2830  177.2700  145.8830 C   0  0  0  0  0  2  0  0  0  0  0  0
  188.7400  174.8790  146.9580 O   0  0  0  0  0  0  0  0  0  0  0  0
  189.2250  175.9530  146.5130 C   0  0  0  0  0  0  0  0  0  0  0  0
  190.6420  176.1170  146.4870 N   0  0  0  0  0  2  0  0  0  0  0  0
  188.3150  177.0490  146.0480 C   0  0  1  0  0  3  0  0  0  0  0  0
  187.4390  176.5990  144.8700 C   0  0  0  0  0  2  0  0  0  0  0  0
  186.1890  177.3550  144.8830 N   0  0  0  0  0  0  0  0  0  0  0  0
  186.2670  176.8750  147.3320 C   0  0  0  0  0  2  0  0  0  0  0  0
  185.4060  176.9530  146.0580 C   0  0  0  0  0  2  0  0  0  0  0  0
  187.5320  177.6020  147.1650 N   0  0  0  0  0  2  0  0  0  0  0  0
  185.4320  176.9690  143.7010 C   0  0  0  0  0  2  0  0  0  0  0  0
  185.8620  179.0990  142.7200 O   0  0  0  0  0  1  0  0  0  0  0  0
  185.0240  178.1850  142.9430 C   0  0  0  0  0  0  0  0  0  0  0  0
  183.7060  178.3400  142.5450 O   0  0  0  0  0  0  0  0  0  0  0  0
  196.1090  176.5800  143.0030 N   0  0  0  0  0  2  0  0  0  0  0  0
  197.2860  175.7430  143.1900 C   0  0  0  0  0  2  0  0  0  0  0  0
  196.2120  174.9580  145.2780 O   0  0  0  0  0  0  0  0  0  0  0  0
  197.0420  174.7610  144.2850 C   0  0  0  0  0  0  0  0  0  0  0  0
  197.6750  173.5440  144.4110 C   0  0  0  0  0  3  0  0  0  0  0  0
  196.2470  173.9150  146.0730 C   0  0  0  0  0  3  0  0  0  0  0  0
  197.1540  172.9940  145.5700 C   0  0  0  0  0  3  0  0  0  0  0  0
  189.2480  174.3340  141.6210 C   0  0  0  0  0  3  0  0  0  0  0  0
  188.0410  174.8940  141.6840 C   0  0  0  0  0  2  0  0  0  0  0  0
  190.7290  173.0130  143.1810 C   0  0  0  0  0  2  0  0  0  0  0  0
  189.8880  171.8990  142.6160 C   0  0  0  0  0  3  0  0  0  0  0  0
  190.3590  171.0290  141.7140 C   0  0  0  0  0  3  0  0  0  0  0  0
  191.7640  171.0890  141.2030 C   0  0  0  0  0  2  0  0  0  0  0  0
  191.9400  170.1250  140.0500 C   0  0  0  0  0  2  0  0  0  0  0  0
  192.3430  172.2120  138.7090 C   0  0  1  0  0  3  0  0  0  0  0  0
  194.3480  170.7360  139.2960 C   0  0  2  0  0  3  0  0  0  0  0  0
  194.7710  173.0150  138.6540 C   0  0  2  0  0  3  0  0  0  0  0  0
  195.8860  172.7700  137.6360 C   0  0  0  0  0  2  0  0  0  0  0  0
  196.4030  174.0900  137.0750 C   0  0  0  0  0  2  0  0  0  0  0  0
  194.2300  174.7700  135.8850 C   0  0  0  0  0  2  0  0  0  0  0  0
  193.9270  175.2980  137.1500 O   0  0  0  0  0  0  0  0  0  0  0  0
  195.7300  174.4830  135.7590 C   0  0  0  0  0  2  0  0  0  0  0  0
  194.8410  172.0370  139.7510 N   0  0  0  0  0  2  0  0  0  0  0  0
  192.8270  170.7760  138.9920 C   0  0  1  0  0  3  0  0  0  0  0  0
  193.3990  173.0380  137.9510 C   0  0  2  0  0  3  0  0  0  0  0  0
  192.9200  174.4770  137.7000 C   0  0  0  0  0  2  0  0  0  0  0  0
  191.0520  172.2630  138.1270 O   0  0  0  0  0  0  0  0  0  0  0  0
  191.0630  171.5390  136.9200 C   0  0  0  0  0  1  0  0  0  0  0  0
  194.7770  169.6480  140.2710 C   0  0  0  0  0  2  0  0  0  0  0  0
  195.5220  170.2250  141.3830 N   0  0  0  0  0  2  0  0  0  0  0  0
  194.8920  169.7670  142.6210 C   0  0  2  0  0  3  0  0  0  0  0  0
  194.8700  172.2420  143.0730 F   0  0  0  0  0  0  0  0  0  0  0  0
  194.5710  170.9570  143.5020 C   0  0  2  0  0  0  0  0  0  0  0  0
  195.7680  170.1040  143.8320 C   0  0  0  0  0  2  0  0  0  0  0  0
  193.5060  170.7890  144.3890 O   0  0  0  0  0  1  0  0  0  0  0  0
  1 30  1  6  0  0  0
  1 32  1  0  0  0  0
  2  1  1  1  0  0  0
  2  4  1  0  0  0  0
  3  6  2  0  0  0  0
  4  8  1  6  0  0  0
  5  3  1  0  0  0  0
  5 23  1  0  0  0  0
  6  4  1  0  0  0  0
  7  2  1  0  0  0  0
  7  3  1  0  0  0  0
  8  9  1  0  0  0  0
  9 12  1  0  0  0  0
 11 10  2  0  0  0  0
 12 11  1  0  0  0  0
 13 11  1  1  0  0  0
 13 18  1  0  0  0  0
 14 15  1  0  0  0  0
 14 13  1  0  0  0  0
 15 17  1  0  0  0  0
 17 16  1  0  0  0  0
 18 16  1  0  0  0  0
 19 15  1  0  0  0  0
 20 21  1  0  0  0  0
 21 19  1  0  0  0  0
 22 21  2  0  0  0  0
 23 24  1  0  0  0  0
 24 26  1  0  0  0  0
 25 28  1  0  0  0  0
 26 27  2  0  0  0  0
 26 25  1  0  0  0  0
 27 29  1  0  0  0  0
 29 28  2  0  0  0  0
 30 31  2  0  0  0  0
 33 32  1  0  0  0  0
 34 33  2  0  0  0  0
 35 34  1  0  0  0  0
 36 35  1  0  0  0  0
 37 49  1  6  0  0  0
 37 46  1  0  0  0  0
 38 45  1  0  0  0  0
 38 51  1  1  0  0  0
 39 40  1  6  0  0  0
 39 45  1  0  0  0  0
 41 40  1  0  0  0  0
 42 43  1  0  0  0  0
 43 48  1  0  0  0  0
 44 42  1  0  0  0  0
 44 41  1  0  0  0  0
 46 38  1  0  0  0  0
 46 36  1  1  0  0  0
 47 48  1  1  0  0  0
 47 39  1  0  0  0  0
 47 37  1  0  0  0  0
 50 49  1  0  0  0  0
 51 52  1  0  0  0  0
 53 52  1  6  0  0  0
 53 55  1  0  0  0  0
 53 56  1  0  0  0  0
 55 54  1  6  0  0  0
 55 56  1  0  0  0  0
 55 57  1  0  0  0  0
M  END
>  <MODEL>
5

>  <REMARK>
 VINA RESULT:      -6.0      3.118      8.017
  Name = 
  20 active torsions:
  status: ('A' for Active; 'I' for Inactive)
    1  A    between atoms: C_1  and  N_13
    2  A    between atoms: C_1  and  C_28
    3  A    between atoms: C_2  and  C_34
    4  A    between atoms: C_3  and  O_9
    5  A    between atoms: C_4  and  C_32
    6  A    between atoms: C_5  and  C_56
    7  A    between atoms: C_7  and  N_51
    8  A    between atoms: N_11  and  C_45
    9  A    between atoms: N_13  and  N_23
   10  A    between atoms: C_14  and  C_29
   11  A    between atoms: C_14  and  N_35
   12  A    between atoms: C_17  and  C_29
   13  A    between atoms: C_19  and  C_21
   14  A    between atoms: C_19  and  C_54
   15  A    between atoms: C_21  and  C_39
   16  A    between atoms: C_25  and  C_34
   17  A    between atoms: C_34  and  C_42
   18  A    between atoms: C_36  and  C_42
   19  A    between atoms: C_45  and  C_46
   20  A    between atoms: N_51  and  C_56
                            x       y       z     vdW  Elec       q    Type
                         _______ _______ _______ _____ _____    ______ ____

>  <TORSDO>
F 20

$$$$
=
 OpenBabel11042418033D

 57 62  0  0  1  0  0  0  0  0999 V2000
  191.7040  170.3440  141.5220 C   0  0  1  0  0  3  0  0  0  0  0  0
  192.9110  169.6140  142.1420 C   0  0  1  0  0  3  0  0  0  0  0  0
  194.5310  169.7770  144.0470 C   0  0  0  0  0  0  0  0  0  0  0  0
  194.2090  170.3690  141.8460 C   0  0  1  0  0  3  0  0  0  0  0  0
  195.2670  169.4870  145.2350 N   0  0  0  0  0  2  0  0  0  0  0  0
  195.1100  170.1750  142.9670 N   0  0  0  0  0  0  0  0  0  0  0  0
  192.7770  169.5070  143.9630 S   0  0  0  0  0  0  0  0  0  0  0  0
  194.8530  169.9450  140.5290 C   0  0  0  0  0  2  0  0  0  0  0  0
  194.9530  171.0870  139.5240 C   0  0  0  0  0  2  0  0  0  0  0  0
  195.2610  174.6540  140.2450 O   0  0  0  0  0  0  0  0  0  0  0  0
  195.3180  173.5830  139.5850 C   0  0  0  0  0  0  0  0  0  0  0  0
  195.0240  172.3480  140.2370 N   0  0  0  0  0  2  0  0  0  0  0  0
  195.7240  173.6130  138.1420 C   0  0  1  0  0  3  0  0  0  0  0  0
  195.2270  174.8860  137.4400 C   0  0  0  0  0  2  0  0  0  0  0  0
  196.1340  175.2140  136.3430 N   0  0  0  0  0  0  0  0  0  0  0  0
  197.8960  174.6800  138.0290 C   0  0  0  0  0  2  0  0  0  0  0  0
  197.4280  175.6220  136.9040 C   0  0  0  0  0  2  0  0  0  0  0  0
  197.1720  173.4030  137.9900 N   0  0  0  0  0  2  0  0  0  0  0  0
  195.5790  176.3660  135.6460 C   0  0  0  0  0  2  0  0  0  0  0  0
  193.8150  175.1400  134.6090 O   0  0  0  0  0  0  0  0  0  0  0  0
  194.1440  176.1200  135.3290 C   0  0  0  0  0  0  0  0  0  0  0  0
  193.1770  177.0100  135.7710 O   0  0  0  0  0  1  0  0  0  0  0  0
  196.6420  169.7430  145.3270 N   0  0  0  0  0  2  0  0  0  0  0  0
  196.8050  170.8680  146.2380 C   0  0  0  0  0  2  0  0  0  0  0  0
  197.7030  172.0740  144.2720 O   0  0  0  0  0  0  0  0  0  0  0  0
  197.1840  172.0900  145.4740 C   0  0  0  0  0  0  0  0  0  0  0  0
  197.0700  173.3810  145.9400 C   0  0  0  0  0  3  0  0  0  0  0  0
  197.9390  173.3090  143.8960 C   0  0  0  0  0  3  0  0  0  0  0  0
  197.5560  174.1710  144.9120 C   0  0  0  0  0  3  0  0  0  0  0  0
  190.9240  169.4750  140.5650 C   0  0  0  0  0  3  0  0  0  0  0  0
  191.3060  168.2400  140.2410 C   0  0  0  0  0  2  0  0  0  0  0  0
  190.7870  171.0400  142.5410 C   0  0  0  0  0  2  0  0  0  0  0  0
  189.7100  171.8670  141.8920 C   0  0  0  0  0  3  0  0  0  0  0  0
  189.1980  172.9610  142.4690 C   0  0  0  0  0  3  0  0  0  0  0  0
  189.6660  173.4550  143.8020 C   0  0  0  0  0  2  0  0  0  0  0  0
  190.4600  174.7320  143.6350 C   0  0  0  0  0  2  0  0  0  0  0  0
  188.2680  175.9370  143.8810 C   0  0  1  0  0  3  0  0  0  0  0  0
  189.8300  175.8270  145.9030 C   0  0  2  0  0  3  0  0  0  0  0  0
  187.5100  176.3320  146.2920 C   0  0  2  0  0  3  0  0  0  0  0  0
  187.6830  177.5410  147.2130 C   0  0  0  0  0  2  0  0  0  0  0  0
  186.3280  178.0640  147.6750 C   0  0  0  0  0  2  0  0  0  0  0  0
  185.5010  178.8070  145.3590 C   0  0  0  0  0  2  0  0  0  0  0  0
  185.0840  177.4680  145.2880 O   0  0  0  0  0  0  0  0  0  0  0  0
  185.8040  179.2090  146.8050 C   0  0  0  0  0  2  0  0  0  0  0  0
  188.5860  175.3510  146.5100 N   0  0  0  0  0  2  0  0  0  0  0  0
  189.7330  175.8660  144.3550 C   0  0  1  0  0  3  0  0  0  0  0  0
  187.3970  176.7890  144.8240 C   0  0  2  0  0  3  0  0  0  0  0  0
  185.9320  176.8290  144.3590 C   0  0  0  0  0  2  0  0  0  0  0  0
  188.1390  176.2860  142.5140 O   0  0  0  0  0  0  0  0  0  0  0  0
  188.5540  177.6200  142.3390 C   0  0  0  0  0  1  0  0  0  0  0  0
  191.0100  175.0360  146.4510 C   0  0  0  0  0  2  0  0  0  0  0  0
  191.9780  175.9290  147.0740 N   0  0  0  0  0  2  0  0  0  0  0  0
  192.8170  176.4800  146.0100 C   0  0  2  0  0  3  0  0  0  0  0  0
  194.0110  174.2910  146.3410 F   0  0  0  0  0  0  0  0  0  0  0  0
  193.9250  175.5030  145.6730 C   0  0  2  0  0  0  0  0  0  0  0  0
  194.2450  176.7140  146.5120 C   0  0  0  0  0  2  0  0  0  0  0  0
  194.4280  175.5780  144.3730 O   0  0  0  0  0  1  0  0  0  0  0  0
  1 30  1  1  0  0  0
  1 32  1  0  0  0  0
  2  1  1  1  0  0  0
  2  7  1  0  0  0  0
  3  5  1  0  0  0  0
  4  8  1  6  0  0  0
  4  2  1  0  0  0  0
  4  6  1  0  0  0  0
  5 23  1  0  0  0  0
  6  3  2  0  0  0  0
  7  3  1  0  0  0  0
  9 12  1  0  0  0  0
  9  8  1  0  0  0  0
 11 12  1  0  0  0  0
 11 10  2  0  0  0  0
 13 11  1  1  0  0  0
 14 13  1  0  0  0  0
 15 17  1  0  0  0  0
 15 14  1  0  0  0  0
 17 16  1  0  0  0  0
 18 16  1  0  0  0  0
 18 13  1  0  0  0  0
 19 15  1  0  0  0  0
 20 21  2  0  0  0  0
 21 19  1  0  0  0  0
 21 22  1  0  0  0  0
 23 24  1  0  0  0  0
 25 26  1  0  0  0  0
 26 27  2  0  0  0  0
 26 24  1  0  0  0  0
 28 25  1  0  0  0  0
 28 29  2  0  0  0  0
 29 27  1  0  0  0  0
 31 30  2  0  0  0  0
 33 34  2  0  0  0  0
 33 32  1  0  0  0  0
 34 35  1  0  0  0  0
 36 35  1  0  0  0  0
 37 49  1  6  0  0  0
 37 46  1  0  0  0  0
 37 47  1  0  0  0  0
 38 51  1  6  0  0  0
 38 45  1  0  0  0  0
 39 45  1  0  0  0  0
 39 40  1  1  0  0  0
 40 41  1  0  0  0  0
 42 44  1  0  0  0  0
 43 42  1  0  0  0  0
 44 41  1  0  0  0  0
 46 36  1  6  0  0  0
 46 38  1  0  0  0  0
 47 48  1  6  0  0  0
 47 39  1  0  0  0  0
 48 43  1  0  0  0  0
 50 49  1  0  0  0  0
 51 52  1  0  0  0  0
 53 56  1  0  0  0  0
 53 52  1  1  0  0  0
 55 57  1  6  0  0  0
 55 53  1  0  0  0  0
 55 54  1  0  0  0  0
 55 56  1  0  0  0  0
M  END
>  <MODEL>
6

>  <REMARK>
 VINA RESULT:      -5.9      3.911     11.254
  Name = 
  20 active torsions:
  status: ('A' for Active; 'I' for Inactive)
    1  A    between atoms: C_1  and  N_13
    2  A    between atoms: C_1  and  C_28
    3  A    between atoms: C_2  and  C_34
    4  A    between atoms: C_3  and  O_9
    5  A    between atoms: C_4  and  C_32
    6  A    between atoms: C_5  and  C_56
    7  A    between atoms: C_7  and  N_51
    8  A    between atoms: N_11  and  C_45
    9  A    between atoms: N_13  and  N_23
   10  A    between atoms: C_14  and  C_29
   11  A    between atoms: C_14  and  N_35
   12  A    between atoms: C_17  and  C_29
   13  A    between atoms: C_19  and  C_21
   14  A    between atoms: C_19  and  C_54
   15  A    between atoms: C_21  and  C_39
   16  A    between atoms: C_25  and  C_34
   17  A    between atoms: C_34  and  C_42
   18  A    between atoms: C_36  and  C_42
   19  A    between atoms: C_45  and  C_46
   20  A    between atoms: N_51  and  C_56
                            x       y       z     vdW  Elec       q    Type
                         _______ _______ _______ _____ _____    ______ ____

>  <TORSDO>
F 20

$$$$
=
 OpenBabel11042418033D

 57 62  0  0  1  0  0  0  0  0999 V2000
  191.1660  171.9310  141.3000 C   0  0  1  0  0  3  0  0  0  0  0  0
  192.0360  170.9180  142.0670 C   0  0  1  0  0  3  0  0  0  0  0  0
  193.9660  170.8060  143.6620 C   0  0  0  0  0  0  0  0  0  0  0  0
  193.4210  170.8010  141.4250 C   0  0  1  0  0  3  0  0  0  0  0  0
  194.7610  170.5540  144.8210 N   0  0  0  0  0  2  0  0  0  0  0  0
  194.3830  170.5240  142.4760 N   0  0  0  0  0  0  0  0  0  0  0  0
  192.3100  171.4340  143.8000 S   0  0  0  0  0  0  0  0  0  0  0  0
  193.4740  169.7460  140.3240 C   0  0  0  0  0  2  0  0  0  0  0  0
  194.2310  170.2180  139.0880 C   0  0  0  0  0  2  0  0  0  0  0  0
  197.7850  170.7250  139.7630 O   0  0  0  0  0  0  0  0  0  0  0  0
  196.5870  171.0190  139.5090 C   0  0  0  0  0  0  0  0  0  0  0  0
  195.6490  169.9700  139.2700 N   0  0  0  0  0  2  0  0  0  0  0  0
  196.1690  172.4570  139.4310 C   0  0  1  0  0  3  0  0  0  0  0  0
  196.8710  173.3100  140.4990 C   0  0  0  0  0  2  0  0  0  0  0  0
  196.9920  174.6820  140.0140 N   0  0  0  0  0  0  0  0  0  0  0  0
  197.6810  173.5600  137.8930 C   0  0  0  0  0  2  0  0  0  0  0  0
  197.9370  174.7050  138.8900 C   0  0  0  0  0  2  0  0  0  0  0  0
  196.3400  172.9890  138.0700 N   0  0  0  0  0  2  0  0  0  0  0  0
  197.5730  175.4760  141.0880 C   0  0  0  0  0  2  0  0  0  0  0  0
  196.7900  177.0230  142.7250 O   0  0  0  0  0  1  0  0  0  0  0  0
  196.5230  176.3350  141.7050 C   0  0  0  0  0  0  0  0  0  0  0  0
  195.2340  176.3220  141.1940 O   0  0  0  0  0  0  0  0  0  0  0  0
  196.0840  170.1050  144.7190 N   0  0  0  0  0  2  0  0  0  0  0  0
  196.8430  170.7830  145.7620 C   0  0  0  0  0  2  0  0  0  0  0  0
  197.8030  172.4800  144.2380 O   0  0  0  0  0  0  0  0  0  0  0  0
  197.1600  172.1750  145.3360 C   0  0  0  0  0  0  0  0  0  0  0  0
  196.8490  173.3110  146.0520 C   0  0  0  0  0  3  0  0  0  0  0  0
  197.9350  173.7840  144.1710 C   0  0  0  0  0  3  0  0  0  0  0  0
  197.3490  174.3550  145.2910 C   0  0  0  0  0  3  0  0  0  0  0  0
  191.4270  171.9190  139.8130 C   0  0  0  0  0  3  0  0  0  0  0  0
  191.6790  173.0280  139.1180 C   0  0  0  0  0  2  0  0  0  0  0  0
  189.6640  171.8520  141.6180 C   0  0  0  0  0  2  0  0  0  0  0  0
  188.8130  172.5940  140.6230 C   0  0  0  0  0  3  0  0  0  0  0  0
  188.1320  173.7010  140.9430 C   0  0  0  0  0  3  0  0  0  0  0  0
  188.1710  174.2940  142.3170 C   0  0  0  0  0  2  0  0  0  0  0  0
  189.2070  175.3960  142.3780 C   0  0  0  0  0  2  0  0  0  0  0  0
  187.2390  176.5090  143.4770 C   0  0  1  0  0  3  0  0  0  0  0  0
  189.3840  176.2110  144.8360 C   0  0  2  0  0  3  0  0  0  0  0  0
  187.3340  176.6100  146.0300 C   0  0  2  0  0  3  0  0  0  0  0  0
  187.8210  177.7110  146.9740 C   0  0  0  0  0  2  0  0  0  0  0  0
  186.7050  178.1440  147.9170 C   0  0  0  0  0  2  0  0  0  0  0  0
  185.1630  179.1220  146.1100 C   0  0  0  0  0  2  0  0  0  0  0  0
  184.7280  177.7900  146.0290 O   0  0  0  0  0  0  0  0  0  0  0  0
  185.9370  179.3660  147.4090 C   0  0  0  0  0  2  0  0  0  0  0  0
  188.4070  175.6390  145.7630 N   0  0  0  0  0  2  0  0  0  0  0  0
  188.7770  176.4220  143.4240 C   0  0  1  0  0  3  0  0  0  0  0  0
  186.7440  177.2260  144.7460 C   0  0  2  0  0  3  0  0  0  0  0  0
  185.2080  177.2810  144.8040 C   0  0  0  0  0  2  0  0  0  0  0  0
  186.6660  177.0060  142.2800 O   0  0  0  0  0  0  0  0  0  0  0  0
  187.1280  178.3180  142.0590 C   0  0  0  0  0  1  0  0  0  0  0  0
  190.6680  175.3930  144.8660 C   0  0  0  0  0  2  0  0  0  0  0  0
  191.8280  176.2570  144.6860 N   0  0  0  0  0  2  0  0  0  0  0  0
  192.4240  176.4750  146.0030 C   0  0  2  0  0  3  0  0  0  0  0  0
  194.4920  176.7530  144.5960 F   0  0  0  0  0  0  0  0  0  0  0  0
  193.9100  176.7360  145.8550 C   0  0  2  0  0  0  0  0  0  0  0  0
  193.4470  175.3800  146.3220 C   0  0  0  0  0  2  0  0  0  0  0  0
  194.4970  177.5030  146.8640 O   0  0  0  0  0  1  0  0  0  0  0  0
  1 30  1  6  0  0  0
  1 32  1  0  0  0  0
  2  1  1  6  0  0  0
  2  7  1  0  0  0  0
  3  7  1  0  0  0  0
  3  5  1  0  0  0  0
  4  8  1  6  0  0  0
  4  2  1  0  0  0  0
  4  6  1  0  0  0  0
  6  3  2  0  0  0  0
  9 12  1  0  0  0  0
  9  8  1  0  0  0  0
 11 10  2  0  0  0  0
 12 11  1  0  0  0  0
 13 11  1  6  0  0  0
 13 14  1  0  0  0  0
 15 14  1  0  0  0  0
 15 19  1  0  0  0  0
 16 18  1  0  0  0  0
 16 17  1  0  0  0  0
 17 15  1  0  0  0  0
 18 13  1  0  0  0  0
 19 21  1  0  0  0  0
 21 20  1  0  0  0  0
 22 21  2  0  0  0  0
 23  5  1  0  0  0  0
 23 24  1  0  0  0  0
 25 26  1  0  0  0  0
 26 24  1  0  0  0  0
 26 27  2  0  0  0  0
 28 25  1  0  0  0  0
 28 29  2  0  0  0  0
 29 27  1  0  0  0  0
 31 30  2  0  0  0  0
 33 34  2  0  0  0  0
 33 32  1  0  0  0  0
 34 35  1  0  0  0  0
 35 36  1  0  0  0  0
 37 49  1  6  0  0  0
 37 47  1  0  0  0  0
 38 51  1  6  0  0  0
 38 45  1  0  0  0  0
 39 40  1  1  0  0  0
 40 41  1  0  0  0  0
 42 44  1  0  0  0  0
 43 42  1  0  0  0  0
 44 41  1  0  0  0  0
 45 39  1  0  0  0  0
 46 36  1  6  0  0  0
 46 37  1  0  0  0  0
 46 38  1  0  0  0  0
 47 48  1  1  0  0  0
 47 39  1  0  0  0  0
 48 43  1  0  0  0  0
 50 49  1  0  0  0  0
 52 51  1  0  0  0  0
 53 52  1  6  0  0  0
 53 56  1  0  0  0  0
 55 54  1  6  0  0  0
 55 53  1  0  0  0  0
 55 56  1  0  0  0  0
 55 57  1  0  0  0  0
M  END
>  <MODEL>
7

>  <REMARK>
 VINA RESULT:      -5.8      3.726     10.830
  Name = 
  20 active torsions:
  status: ('A' for Active; 'I' for Inactive)
    1  A    between atoms: C_1  and  N_13
    2  A    between atoms: C_1  and  C_28
    3  A    between atoms: C_2  and  C_34
    4  A    between atoms: C_3  and  O_9
    5  A    between atoms: C_4  and  C_32
    6  A    between atoms: C_5  and  C_56
    7  A    between atoms: C_7  and  N_51
    8  A    between atoms: N_11  and  C_45
    9  A    between atoms: N_13  and  N_23
   10  A    between atoms: C_14  and  C_29
   11  A    between atoms: C_14  and  N_35
   12  A    between atoms: C_17  and  C_29
   13  A    between atoms: C_19  and  C_21
   14  A    between atoms: C_19  and  C_54
   15  A    between atoms: C_21  and  C_39
   16  A    between atoms: C_25  and  C_34
   17  A    between atoms: C_34  and  C_42
   18  A    between atoms: C_36  and  C_42
   19  A    between atoms: C_45  and  C_46
   20  A    between atoms: N_51  and  C_56
                            x       y       z     vdW  Elec       q    Type
                         _______ _______ _______ _____ _____    ______ ____

>  <TORSDO>
F 20

$$$$
=
 OpenBabel11042418033D

 57 62  0  0  1  0  0  0  0  0999 V2000
  188.1710  177.3710  141.6590 C   0  0  1  0  0  3  0  0  0  0  0  0
  186.6660  177.2870  141.9770 C   0  0  1  0  0  3  0  0  0  0  0  0
  184.4400  178.0790  141.1420 C   0  0  0  0  0  0  0  0  0  0  0  0
  186.1660  178.6060  142.5720 C   0  0  1  0  0  3  0  0  0  0  0  0
  183.1100  178.0990  140.6250 N   0  0  0  0  0  2  0  0  0  0  0  0
  184.7880  178.7940  142.1550 N   0  0  0  0  0  0  0  0  0  0  0  0
  185.6710  176.9850  140.4730 S   0  0  0  0  0  0  0  0  0  0  0  0
  186.3040  178.6600  144.0910 C   0  0  0  0  0  2  0  0  0  0  0  0
  186.0160  177.3210  144.7600 C   0  0  0  0  0  2  0  0  0  0  0  0
  187.3940  177.5220  148.1370 O   0  0  0  0  0  0  0  0  0  0  0  0
  187.3480  177.2730  146.9030 C   0  0  0  0  0  0  0  0  0  0  0  0
  186.1220  177.4710  146.1990 N   0  0  0  0  0  2  0  0  0  0  0  0
  188.5610  176.7440  146.2000 C   0  0  1  0  0  3  0  0  0  0  0  0
  189.8580  177.2300  146.8640 C   0  0  0  0  0  2  0  0  0  0  0  0
  190.9130  176.2450  146.6370 N   0  0  0  0  0  0  0  0  0  0  0  0
  189.1130  174.6170  147.2210 C   0  0  0  0  0  2  0  0  0  0  0  0
  190.5890  175.0240  147.3840 C   0  0  0  0  0  2  0  0  0  0  0  0
  188.5030  175.2800  146.0610 N   0  0  0  0  0  2  0  0  0  0  0  0
  192.1440  176.7860  147.1970 C   0  0  0  0  0  2  0  0  0  0  0  0
  193.0700  177.1510  145.0300 O   0  0  0  0  0  0  0  0  0  0  0  0
  193.2390  176.6930  146.1910 C   0  0  0  0  0  0  0  0  0  0  0  0
  194.4190  176.0420  146.5140 O   0  0  0  0  0  1  0  0  0  0  0  0
  182.1470  178.9930  141.1130 N   0  0  0  0  0  2  0  0  0  0  0  0
  180.8750  178.6150  140.5130 C   0  0  0  0  0  2  0  0  0  0  0  0
  179.8460  179.0720  142.7170 O   0  0  0  0  0  0  0  0  0  0  0  0
  179.8450  178.4320  141.5750 C   0  0  0  0  0  0  0  0  0  0  0  0
  178.7870  177.5520  141.5080 C   0  0  0  0  0  3  0  0  0  0  0  0
  178.8210  178.6680  143.4300 C   0  0  0  0  0  3  0  0  0  0  0  0
  178.1210  177.7100  142.7120 C   0  0  0  0  0  3  0  0  0  0  0  0
  188.9060  178.3340  142.5590 C   0  0  0  0  0  3  0  0  0  0  0  0
  190.0680  178.0330  143.1390 C   0  0  0  0  0  2  0  0  0  0  0  0
  188.8820  176.0110  141.5740 C   0  0  0  0  0  2  0  0  0  0  0  0
  188.2000  174.9400  142.3810 C   0  0  0  0  0  3  0  0  0  0  0  0
  188.1900  173.6540  142.0070 C   0  0  0  0  0  3  0  0  0  0  0  0
  188.8670  173.1790  140.7590 C   0  0  0  0  0  2  0  0  0  0  0  0
  190.2060  172.5620  141.0960 C   0  0  0  0  0  2  0  0  0  0  0  0
  192.1600  173.6970  142.1980 C   0  0  1  0  0  3  0  0  0  0  0  0
  192.1680  173.4570  139.6520 C   0  0  2  0  0  3  0  0  0  0  0  0
  194.2640  173.8810  140.7560 C   0  0  2  0  0  3  0  0  0  0  0  0
  194.7740  175.0160  139.8650 C   0  0  0  0  0  2  0  0  0  0  0  0
  196.1570  175.4720  140.3140 C   0  0  0  0  0  2  0  0  0  0  0  0
  195.4310  176.3810  142.6060 C   0  0  0  0  0  2  0  0  0  0  0  0
  195.6280  175.0440  142.9850 O   0  0  0  0  0  0  0  0  0  0  0  0
  196.1090  176.6720  141.2630 C   0  0  0  0  0  2  0  0  0  0  0  0
  193.4880  172.9090  139.9690 N   0  0  0  0  0  2  0  0  0  0  0  0
  191.2950  173.6180  140.9240 C   0  0  1  0  0  3  0  0  0  0  0  0
  193.4800  174.4520  141.9540 C   0  0  2  0  0  3  0  0  0  0  0  0
  194.3480  174.4990  143.2230 C   0  0  0  0  0  2  0  0  0  0  0  0
  191.4430  174.1520  143.3330 O   0  0  0  0  0  0  0  0  0  0  0  0
  191.3500  173.1030  144.2680 C   0  0  0  0  0  1  0  0  0  0  0  0
  191.5260  172.6500  138.5320 C   0  0  0  0  0  2  0  0  0  0  0  0
  190.8370  173.5300  137.5980 N   0  0  0  0  0  2  0  0  0  0  0  0
  191.4610  173.3570  136.2870 C   0  0  2  0  0  3  0  0  0  0  0  0
  192.3220  175.6600  136.8180 F   0  0  0  0  0  0  0  0  0  0  0  0
  192.2610  174.5940  135.9330 C   0  0  2  0  0  0  0  0  0  0  0  0
  190.9160  174.3820  135.2870 C   0  0  0  0  0  2  0  0  0  0  0  0
  193.3340  174.3970  135.0620 O   0  0  0  0  0  1  0  0  0  0  0  0
  1 32  1  1  0  0  0
  1 30  1  0  0  0  0
  2  1  1  6  0  0  0
  2  4  1  0  0  0  0
  3  6  2  0  0  0  0
  4  8  1  1  0  0  0
  5 23  1  0  0  0  0
  5  3  1  0  0  0  0
  6  4  1  0  0  0  0
  7  3  1  0  0  0  0
  7  2  1  0  0  0  0
  8  9  1  0  0  0  0
  9 12  1  0  0  0  0
 11 10  2  0  0  0  0
 12 11  1  0  0  0  0
 13 14  1  0  0  0  0
 13 11  1  1  0  0  0
 15 14  1  0  0  0  0
 15 19  1  0  0  0  0
 15 17  1  0  0  0  0
 16 17  1  0  0  0  0
 18 13  1  0  0  0  0
 18 16  1  0  0  0  0
 20 21  2  0  0  0  0
 21 22  1  0  0  0  0
 21 19  1  0  0  0  0
 24 23  1  0  0  0  0
 24 26  1  0  0  0  0
 25 28  1  0  0  0  0
 26 25  1  0  0  0  0
 27 26  2  0  0  0  0
 27 29  1  0  0  0  0
 29 28  2  0  0  0  0
 30 31  2  0  0  0  0
 32 33  1  0  0  0  0
 34 33  2  0  0  0  0
 35 36  1  0  0  0  0
 35 34  1  0  0  0  0
 37 49  1  1  0  0  0
 38 51  1  6  0  0  0
 38 45  1  0  0  0  0
 38 46  1  0  0  0  0
 39 40  1  6  0  0  0
 39 47  1  0  0  0  0
 40 41  1  0  0  0  0
 41 44  1  0  0  0  0
 42 43  1  0  0  0  0
 43 48  1  0  0  0  0
 44 42  1  0  0  0  0
 45 39  1  0  0  0  0
 46 36  1  1  0  0  0
 46 37  1  0  0  0  0
 47 37  1  0  0  0  0
 47 48  1  1  0  0  0
 49 50  1  0  0  0  0
 52 51  1  0  0  0  0
 53 52  1  1  0  0  0
 55 57  1  6  0  0  0
 55 53  1  0  0  0  0
 55 54  1  0  0  0  0
 56 55  1  0  0  0  0
 56 53  1  0  0  0  0
M  END
>  <MODEL>
8

>  <REMARK>
 VINA RESULT:      -5.8      2.428      3.880
  Name = 
  20 active torsions:
  status: ('A' for Active; 'I' for Inactive)
    1  A    between atoms: C_1  and  N_13
    2  A    between atoms: C_1  and  C_28
    3  A    between atoms: C_2  and  C_34
    4  A    between atoms: C_3  and  O_9
    5  A    between atoms: C_4  and  C_32
    6  A    between atoms: C_5  and  C_56
    7  A    between atoms: C_7  and  N_51
    8  A    between atoms: N_11  and  C_45
    9  A    between atoms: N_13  and  N_23
   10  A    between atoms: C_14  and  C_29
   11  A    between atoms: C_14  and  N_35
   12  A    between atoms: C_17  and  C_29
   13  A    between atoms: C_19  and  C_21
   14  A    between atoms: C_19  and  C_54
   15  A    between atoms: C_21  and  C_39
   16  A    between atoms: C_25  and  C_34
   17  A    between atoms: C_34  and  C_42
   18  A    between atoms: C_36  and  C_42
   19  A    between atoms: C_45  and  C_46
   20  A    between atoms: N_51  and  C_56
                            x       y       z     vdW  Elec       q    Type
                         _______ _______ _______ _____ _____    ______ ____

>  <TORSDO>
F 20

$$$$
=
 OpenBabel11042418033D

 57 62  0  0  1  0  0  0  0  0999 V2000
  188.2180  176.9410  141.4670 C   0  0  1  0  0  3  0  0  0  0  0  0
  186.6980  176.7000  141.4180 C   0  0  1  0  0  3  0  0  0  0  0  0
  184.5340  177.9110  141.0570 C   0  0  0  0  0  0  0  0  0  0  0  0
  186.0240  177.2440  142.6800 C   0  0  1  0  0  3  0  0  0  0  0  0
  183.2790  178.3230  140.5150 N   0  0  0  0  0  2  0  0  0  0  0  0
  184.6970  177.7080  142.3180 N   0  0  0  0  0  0  0  0  0  0  0  0
  185.9210  177.5600  140.0030 S   0  0  0  0  0  0  0  0  0  0  0  0
  185.9720  176.2190  143.8100 C   0  0  0  0  0  2  0  0  0  0  0  0
  185.7210  176.8540  145.1730 C   0  0  0  0  0  2  0  0  0  0  0  0
  189.0820  178.0420  145.9700 O   0  0  0  0  0  0  0  0  0  0  0  0
  188.1400  177.2260  145.7900 C   0  0  0  0  0  0  0  0  0  0  0  0
  186.8330  177.7250  145.5080 N   0  0  0  0  0  2  0  0  0  0  0  0
  188.3930  175.7530  145.9040 C   0  0  1  0  0  3  0  0  0  0  0  0
  189.4310  175.2750  144.8770 C   0  0  0  0  0  2  0  0  0  0  0  0
  190.1270  174.1050  145.4070 N   0  0  0  0  0  0  0  0  0  0  0  0
  190.1870  175.4550  147.5050 C   0  0  0  0  0  2  0  0  0  0  0  0
  190.9500  174.5210  146.5490 C   0  0  0  0  0  2  0  0  0  0  0  0
  188.7380  175.3760  147.2840 N   0  0  0  0  0  2  0  0  0  0  0  0
  191.0300  173.6270  144.3690 C   0  0  0  0  0  2  0  0  0  0  0  0
  189.4370  171.9130  143.9090 O   0  0  0  0  0  1  0  0  0  0  0  0
  190.6510  172.2430  143.9690 C   0  0  0  0  0  0  0  0  0  0  0  0
  191.6380  171.2990  143.7280 O   0  0  0  0  0  0  0  0  0  0  0  0
  182.1950  178.6490  141.3410 N   0  0  0  0  0  2  0  0  0  0  0  0
  180.9950  178.5680  140.5190 C   0  0  0  0  0  2  0  0  0  0  0  0
  179.4400  177.4030  142.0510 O   0  0  0  0  0  0  0  0  0  0  0  0
  179.7880  178.4760  141.3870 C   0  0  0  0  0  0  0  0  0  0  0  0
  178.8730  179.4880  141.5790 C   0  0  0  0  0  3  0  0  0  0  0  0
  178.3240  177.6470  142.6970 C   0  0  0  0  0  3  0  0  0  0  0  0
  177.9250  178.9490  142.4330 C   0  0  0  0  0  3  0  0  0  0  0  0
  188.5920  178.1550  142.2830 C   0  0  0  0  0  3  0  0  0  0  0  0
  189.8230  178.3550  142.7520 C   0  0  0  0  0  2  0  0  0  0  0  0
  189.0480  175.7080  141.8630 C   0  0  0  0  0  2  0  0  0  0  0  0
  188.5810  174.4460  141.1900 C   0  0  0  0  0  3  0  0  0  0  0  0
  189.4290  173.5670  140.6420 C   0  0  0  0  0  3  0  0  0  0  0  0
  190.9130  173.7670  140.6650 C   0  0  0  0  0  2  0  0  0  0  0  0
  191.6180  172.4730  140.3210 C   0  0  0  0  0  2  0  0  0  0  0  0
  192.2190  173.6630  138.1890 C   0  0  1  0  0  3  0  0  0  0  0  0
  194.0330  173.3530  139.9650 C   0  0  2  0  0  3  0  0  0  0  0  0
  194.3690  175.0440  138.2860 C   0  0  2  0  0  3  0  0  0  0  0  0
  195.8040  174.6960  137.8860 C   0  0  0  0  0  2  0  0  0  0  0  0
  196.3190  175.6680  136.8300 C   0  0  0  0  0  2  0  0  0  0  0  0
  194.6740  174.9820  134.9790 C   0  0  0  0  0  2  0  0  0  0  0  0
  193.8580  175.9310  135.6150 O   0  0  0  0  0  0  0  0  0  0  0  0
  196.1370  175.1480  135.4030 C   0  0  0  0  0  2  0  0  0  0  0  0
  194.1520  174.7910  139.7200 N   0  0  0  0  0  2  0  0  0  0  0  0
  192.7430  172.7700  139.3320 C   0  0  1  0  0  3  0  0  0  0  0  0
  193.3650  174.3000  137.3830 C   0  0  2  0  0  3  0  0  0  0  0  0
  192.8330  175.2120  136.2650 C   0  0  0  0  0  2  0  0  0  0  0  0
  191.2400  173.0270  137.3860 O   0  0  0  0  0  0  0  0  0  0  0  0
  191.8380  171.9520  136.6990 C   0  0  0  0  0  1  0  0  0  0  0  0
  194.2060  173.0640  141.4490 C   0  0  0  0  0  2  0  0  0  0  0  0
  194.3970  174.3030  142.1920 N   0  0  0  0  0  2  0  0  0  0  0  0
  194.5710  173.9500  143.6010 C   0  0  2  0  0  3  0  0  0  0  0  0
  194.8680  176.4410  143.7910 F   0  0  0  0  0  0  0  0  0  0  0  0
  194.8350  175.2010  144.4130 C   0  0  2  0  0  0  0  0  0  0  0  0
  195.9880  174.2910  144.0740 C   0  0  0  0  0  2  0  0  0  0  0  0
  194.4590  175.1470  145.7570 O   0  0  0  0  0  1  0  0  0  0  0  0
  1 32  1  1  0  0  0
  1 30  1  0  0  0  0
  2  1  1  1  0  0  0
  2  4  1  0  0  0  0
  3  6  2  0  0  0  0
  4  8  1  1  0  0  0
  5  3  1  0  0  0  0
  5 23  1  0  0  0  0
  6  4  1  0  0  0  0
  7  3  1  0  0  0  0
  7  2  1  0  0  0  0
  8  9  1  0  0  0  0
  9 12  1  0  0  0  0
 11 10  2  0  0  0  0
 12 11  1  0  0  0  0
 13 11  1  1  0  0  0
 13 18  1  0  0  0  0
 14 15  1  0  0  0  0
 14 13  1  0  0  0  0
 15 17  1  0  0  0  0
 17 16  1  0  0  0  0
 18 16  1  0  0  0  0
 19 15  1  0  0  0  0
 20 21  1  0  0  0  0
 21 19  1  0  0  0  0
 22 21  2  0  0  0  0
 24 23  1  0  0  0  0
 24 26  1  0  0  0  0
 25 28  1  0  0  0  0
 26 27  2  0  0  0  0
 26 25  1  0  0  0  0
 27 29  1  0  0  0  0
 29 28  2  0  0  0  0
 30 31  2  0  0  0  0
 33 32  1  0  0  0  0
 34 35  1  0  0  0  0
 34 33  2  0  0  0  0
 36 35  1  0  0  0  0
 37 49  1  6  0  0  0
 37 46  1  0  0  0  0
 38 51  1  1  0  0  0
 39 40  1  6  0  0  0
 39 45  1  0  0  0  0
 41 40  1  0  0  0  0
 42 44  1  0  0  0  0
 42 43  1  0  0  0  0
 43 48  1  0  0  0  0
 44 41  1  0  0  0  0
 45 38  1  0  0  0  0
 46 38  1  0  0  0  0
 46 36  1  1  0  0  0
 47 48  1  6  0  0  0
 47 37  1  0  0  0  0
 47 39  1  0  0  0  0
 50 49  1  0  0  0  0
 51 52  1  0  0  0  0
 53 52  1  6  0  0  0
 53 56  1  0  0  0  0
 53 55  1  0  0  0  0
 55 54  1  6  0  0  0
 55 57  1  0  0  0  0
 56 55  1  0  0  0  0
M  END
>  <MODEL>
9

>  <REMARK>
 VINA RESULT:      -5.7      2.200      3.216
  Name = 
  20 active torsions:
  status: ('A' for Active; 'I' for Inactive)
    1  A    between atoms: C_1  and  N_13
    2  A    between atoms: C_1  and  C_28
    3  A    between atoms: C_2  and  C_34
    4  A    between atoms: C_3  and  O_9
    5  A    between atoms: C_4  and  C_32
    6  A    between atoms: C_5  and  C_56
    7  A    between atoms: C_7  and  N_51
    8  A    between atoms: N_11  and  C_45
    9  A    between atoms: N_13  and  N_23
   10  A    between atoms: C_14  and  C_29
   11  A    between atoms: C_14  and  N_35
   12  A    between atoms: C_17  and  C_29
   13  A    between atoms: C_19  and  C_21
   14  A    between atoms: C_19  and  C_54
   15  A    between atoms: C_21  and  C_39
   16  A    between atoms: C_25  and  C_34
   17  A    between atoms: C_34  and  C_42
   18  A    between atoms: C_36  and  C_42
   19  A    between atoms: C_45  and  C_46
   20  A    between atoms: N_51  and  C_56
                            x       y       z     vdW  Elec       q    Type
                         _______ _______ _______ _____ _____    ______ ____

>  <TORSDO>
F 20

$$$$
