=
 OpenBabel11042416173D

 33 36  0  0  1  0  0  0  0  0999 V2000
  187.5250  176.9740  144.8160 C   0  0  0  0  0  0  0  0  0  0  0  0
  191.7930  171.5780  142.3710 C   0  0  0  0  0  1  0  0  0  0  0  0
  191.1370  172.8760  142.6990 C   0  0  0  0  0  0  0  0  0  0  0  0
  189.7070  172.8860  143.1940 C   0  0  2  0  0  3  0  0  0  0  0  0
  191.2660  175.2500  142.9140 C   0  0  0  0  0  0  0  0  0  0  0  0
  186.0800  178.1100  142.4070 O   0  0  0  0  0  0  0  0  0  0  0  0
  189.7960  175.3660  143.0020 C   0  0  0  0  0  0  0  0  0  0  0  0
  190.0970  177.7030  143.7800 C   0  0  1  0  0  3  0  0  0  0  0  0
  191.5320  177.6600  143.2240 C   0  0  0  0  0  2  0  0  0  0  0  0
  192.0300  176.2900  143.0600 N   0  0  0  0  0  0  0  0  0  0  0  0
  191.0780  176.8650  145.8610 O   0  0  0  0  0  1  0  0  0  0  0  0
  184.4350  178.5850  144.1150 C   0  0  0  0  0  2  0  0  0  0  0  0
  188.6870  176.8380  145.7780 C   0  0  0  0  0  2  0  0  0  0  0  0
  191.8480  173.9650  142.6750 N   0  0  0  0  0  0  0  0  0  0  0  0
  184.7510  177.8830  142.7910 C   0  0  1  0  0  3  0  0  0  0  0  0
  189.0670  174.2460  143.0750 C   0  0  0  0  0  3  0  0  0  0  0  0
  189.6910  172.4600  144.6520 C   0  0  0  0  0  1  0  0  0  0  0  0
  186.1160  177.1260  145.3650 C   0  0  1  0  0  3  0  0  0  0  0  0
  189.1930  176.7500  142.9810 C   0  0  2  0  0  3  0  0  0  0  0  0
  187.7710  176.8470  143.4830 C   0  0  0  0  0  0  0  0  0  0  0  0
  186.6820  176.8490  142.4580 C   0  0  0  0  0  2  0  0  0  0  0  0
  189.9790  177.5380  145.3220 C   0  0  2  0  0  3  0  0  0  0  0  0
  186.0650  176.8450  146.7380 O   0  0  0  0  0  1  0  0  0  0  0  0
  185.5960  178.5410  145.1230 C   0  0  0  0  0  2  0  0  0  0  0  0
  182.4320  178.2910  141.9230 N   0  0  0  0  0  2  0  0  0  0  0  0
  183.8390  178.2910  141.6790 C   0  0  0  0  0  0  0  0  0  0  0  0
  184.2870  178.5530  140.5300 O   0  0  0  0  0  0  0  0  0  0  0  0
  181.4360  178.3230  140.8580 C   0  0  0  0  0  2  0  0  0  0  0  0
  180.1080  178.8680  141.3640 C   0  0  2  0  0  3  0  0  0  0  0  0
  179.2040  177.7750  141.6740 N   0  0  0  0  0  1  0  0  0  0  0  0
  179.4990  179.7500  140.3220 C   0  0  0  0  0  0  0  0  0  0  0  0
  178.4490  179.2910  139.5270 O   0  0  0  0  0  0  0  0  0  0  0  0
  179.9420  180.9160  140.1580 O   0  0  0  0  0  1  0  0  0  0  0  0
  1 18  1  0  0  0  0
  1 13  1  0  0  0  0
  2  3  1  0  0  0  0
  3  4  1  0  0  0  0
  4 17  1  1  0  0  0
  5  7  1  0  0  0  0
  5 10  2  0  0  0  0
  6 21  1  0  0  0  0
  6 15  1  0  0  0  0
  7 16  2  0  0  0  0
  8  9  1  6  0  0  0
  8 22  1  0  0  0  0
 10  9  1  0  0  0  0
 12 24  1  0  0  0  0
 14  3  2  0  0  0  0
 14  5  1  0  0  0  0
 15 26  1  6  0  0  0
 15 12  1  0  0  0  0
 16  4  1  0  0  0  0
 18 23  1  1  0  0  0
 19  7  1  1  0  0  0
 19 20  1  0  0  0  0
 19  8  1  0  0  0  0
 20  1  2  0  0  0  0
 21 20  1  0  0  0  0
 22 13  1  0  0  0  0
 22 11  1  6  0  0  0
 24 18  1  0  0  0  0
 26 25  1  0  0  0  0
 27 26  2  0  0  0  0
 28 29  1  0  0  0  0
 28 25  1  0  0  0  0
 29 30  1  6  0  0  0
 31 29  1  0  0  0  0
 32 31  2  0  0  0  0
 33 31  1  0  0  0  0
M  END
>  <MODEL>
1

>  <REMARK>
 VINA RESULT:      -9.0      0.000      0.000
  Name = 
  4 active torsions:
  status: ('A' for Active; 'I' for Inactive)
    1  A    between atoms: CA_3  and  C_15
    2  A    between atoms: CA_3  and  C_28
    3  A    between atoms: C_17  and  C_20
    4  A    between atoms: N_19  and  C_28
                            x       y       z     vdW  Elec       q    Type
                         _______ _______ _______ _____ _____    ______ ____

>  <TORSDO>
F 4

$$$$
=
 OpenBabel11042416173D

 33 36  0  0  1  0  0  0  0  0999 V2000
  190.1020  175.0140  143.7260 C   0  0  0  0  0  0  0  0  0  0  0  0
  185.2760  179.2380  147.2150 C   0  0  0  0  0  1  0  0  0  0  0  0
  186.2210  178.6030  146.2550 C   0  0  0  0  0  0  0  0  0  0  0  0
  187.2440  177.6070  146.7610 C   0  0  2  0  0  3  0  0  0  0  0  0
  186.9770  178.2910  144.0120 C   0  0  0  0  0  0  0  0  0  0  0  0
  192.6570  176.6240  143.4750 O   0  0  0  0  0  0  0  0  0  0  0  0
  188.2250  177.6510  144.4740 C   0  0  0  0  0  0  0  0  0  0  0  0
  188.6130  176.8870  142.1450 C   0  0  1  0  0  3  0  0  0  0  0  0
  187.5950  177.9410  141.6730 C   0  0  0  0  0  2  0  0  0  0  0  0
  186.6940  178.3720  142.7460 N   0  0  0  0  0  0  0  0  0  0  0  0
  186.6880  175.3860  142.3370 O   0  0  0  0  0  1  0  0  0  0  0  0
  193.5970  174.3970  143.5280 C   0  0  0  0  0  2  0  0  0  0  0  0
  188.7170  174.5690  143.3060 C   0  0  0  0  0  2  0  0  0  0  0  0
  186.0660  178.8170  144.9820 N   0  0  0  0  0  0  0  0  0  0  0  0
  193.5410  175.7870  144.1680 C   0  0  1  0  0  3  0  0  0  0  0  0
  188.3660  177.3870  145.7780 C   0  0  0  0  0  3  0  0  0  0  0  0
  186.5500  176.2830  147.0240 C   0  0  0  0  0  1  0  0  0  0  0  0
  191.1430  173.9680  144.0890 C   0  0  1  0  0  3  0  0  0  0  0  0
  189.2900  177.3510  143.4460 C   0  0  2  0  0  3  0  0  0  0  0  0
  190.3370  176.3480  143.8680 C   0  0  0  0  0  0  0  0  0  0  0  0
  191.6310  176.8880  144.3880 C   0  0  0  0  0  2  0  0  0  0  0  0
  188.0770  175.4270  142.2010 C   0  0  2  0  0  3  0  0  0  0  0  0
  190.5680  172.6990  144.2400 O   0  0  0  0  0  1  0  0  0  0  0  0
  192.2320  173.9030  143.0200 C   0  0  0  0  0  2  0  0  0  0  0  0
  195.7110  176.4480  143.0930 N   0  0  0  0  0  2  0  0  0  0  0  0
  194.8800  176.4460  144.2550 C   0  0  0  0  0  0  0  0  0  0  0  0
  195.3050  176.9200  145.3430 O   0  0  0  0  0  0  0  0  0  0  0  0
  197.1410  176.7320  143.1330 C   0  0  0  0  0  2  0  0  0  0  0  0
  197.9410  175.6220  142.4680 C   0  0  2  0  0  3  0  0  0  0  0  0
  197.4620  175.4020  141.1150 N   0  0  0  0  0  1  0  0  0  0  0  0
  197.8100  174.3640  143.2640 C   0  0  0  0  0  0  0  0  0  0  0  0
  197.8610  174.3940  144.6570 O   0  0  0  0  0  1  0  0  0  0  0  0
  197.6580  173.2650  142.6690 O   0  0  0  0  0  0  0  0  0  0  0  0
  1 20  2  0  0  0  0
  1 18  1  0  0  0  0
  3  4  1  0  0  0  0
  3  2  1  0  0  0  0
  4 17  1  6  0  0  0
  5  7  1  0  0  0  0
  5 14  1  0  0  0  0
  6 15  1  0  0  0  0
  6 21  1  0  0  0  0
  7 16  2  0  0  0  0
  8  9  1  1  0  0  0
  8 22  1  0  0  0  0
  8 19  1  0  0  0  0
  9 10  1  0  0  0  0
 10  5  2  0  0  0  0
 12 15  1  0  0  0  0
 13  1  1  0  0  0  0
 14  3  2  0  0  0  0
 15 26  1  6  0  0  0
 16  4  1  0  0  0  0
 18 23  1  6  0  0  0
 19 20  1  1  0  0  0
 19  7  1  0  0  0  0
 20 21  1  0  0  0  0
 22 11  1  1  0  0  0
 22 13  1  0  0  0  0
 24 12  1  0  0  0  0
 24 18  1  0  0  0  0
 25 28  1  0  0  0  0
 25 26  1  0  0  0  0
 26 27  2  0  0  0  0
 29 30  1  6  0  0  0
 29 28  1  0  0  0  0
 29 31  1  0  0  0  0
 31 32  1  0  0  0  0
 33 31  2  0  0  0  0
M  END
>  <MODEL>
2

>  <REMARK>
 VINA RESULT:      -8.0      4.150     10.292
  Name = 
  4 active torsions:
  status: ('A' for Active; 'I' for Inactive)
    1  A    between atoms: CA_3  and  C_15
    2  A    between atoms: CA_3  and  C_28
    3  A    between atoms: C_17  and  C_20
    4  A    between atoms: N_19  and  C_28
                            x       y       z     vdW  Elec       q    Type
                         _______ _______ _______ _____ _____    ______ ____

>  <TORSDO>
F 4

$$$$
=
 OpenBabel11042416173D

 33 36  0  0  1  0  0  0  0  0999 V2000
  191.5860  175.3770  145.6570 C   0  0  0  0  0  0  0  0  0  0  0  0
  196.0100  170.3920  142.6770 C   0  0  0  0  0  1  0  0  0  0  0  0
  195.3000  171.6270  143.1130 C   0  0  0  0  0  0  0  0  0  0  0  0
  193.9030  171.5230  143.6870 C   0  0  2  0  0  3  0  0  0  0  0  0
  195.3020  173.9900  143.4540 C   0  0  0  0  0  0  0  0  0  0  0  0
  189.9370  176.5480  143.4000 O   0  0  0  0  0  0  0  0  0  0  0  0
  193.8360  174.0100  143.6310 C   0  0  0  0  0  0  0  0  0  0  0  0
  194.0460  176.3170  144.5210 C   0  0  1  0  0  3  0  0  0  0  0  0
  195.4460  176.3920  143.8840 C   0  0  0  0  0  2  0  0  0  0  0  0
  196.0120  175.0660  143.6160 N   0  0  0  0  0  0  0  0  0  0  0  0
  195.1950  175.4320  146.4940 O   0  0  0  0  0  1  0  0  0  0  0  0
  188.3720  176.8300  145.2210 C   0  0  0  0  0  2  0  0  0  0  0  0
  192.8090  175.2630  146.5430 C   0  0  0  0  0  2  0  0  0  0  0  0
  195.9430  172.7570  143.1110 N   0  0  0  0  0  0  0  0  0  0  0  0
  188.6500  176.2200  143.8440 C   0  0  1  0  0  3  0  0  0  0  0  0
  193.1800  172.8460  143.6810 C   0  0  0  0  0  3  0  0  0  0  0  0
  193.9990  171.0200  145.1170 C   0  0  0  0  0  1  0  0  0  0  0  0
  190.2050  175.4130  146.2910 C   0  0  1  0  0  3  0  0  0  0  0  0
  193.1530  175.3540  143.7220 C   0  0  2  0  0  3  0  0  0  0  0  0
  191.7600  175.3370  144.3070 C   0  0  0  0  0  0  0  0  0  0  0  0
  190.6140  175.3260  143.3460 C   0  0  0  0  0  2  0  0  0  0  0  0
  194.0280  176.0630  146.0560 C   0  0  2  0  0  3  0  0  0  0  0  0
  190.2520  175.0570  147.6470 O   0  0  0  0  0  1  0  0  0  0  0  0
  189.5910  176.8040  146.1580 C   0  0  0  0  0  2  0  0  0  0  0  0
  187.1100  177.9500  142.8750 N   0  0  0  0  0  2  0  0  0  0  0  0
  187.6510  176.6290  142.8100 C   0  0  0  0  0  0  0  0  0  0  0  0
  187.2330  175.8110  141.9460 O   0  0  0  0  0  0  0  0  0  0  0  0
  185.9010  178.3540  142.1660 C   0  0  0  0  0  2  0  0  0  0  0  0
  184.6520  177.8880  142.9000 C   0  0  2  0  0  3  0  0  0  0  0  0
  183.4650  178.2570  142.1490 N   0  0  0  0  0  1  0  0  0  0  0  0
  184.6060  178.5100  144.2580 C   0  0  0  0  0  0  0  0  0  0  0  0
  184.6910  177.7210  145.4050 O   0  0  0  0  0  1  0  0  0  0  0  0
  184.4850  179.7580  144.3670 O   0  0  0  0  0  0  0  0  0  0  0  0
  1 18  1  0  0  0  0
  1 13  1  0  0  0  0
  2  3  1  0  0  0  0
  3  4  1  0  0  0  0
  4 17  1  1  0  0  0
  5 10  2  0  0  0  0
  5  7  1  0  0  0  0
  6 15  1  0  0  0  0
  7 16  2  0  0  0  0
  8  9  1  6  0  0  0
  8 22  1  0  0  0  0
 10  9  1  0  0  0  0
 12 24  1  0  0  0  0
 14  3  2  0  0  0  0
 14  5  1  0  0  0  0
 15 26  1  6  0  0  0
 15 12  1  0  0  0  0
 16  4  1  0  0  0  0
 18 23  1  1  0  0  0
 19  7  1  1  0  0  0
 19 20  1  0  0  0  0
 19  8  1  0  0  0  0
 20  1  2  0  0  0  0
 21  6  1  0  0  0  0
 21 20  1  0  0  0  0
 22 11  1  6  0  0  0
 22 13  1  0  0  0  0
 24 18  1  0  0  0  0
 26 25  1  0  0  0  0
 27 26  2  0  0  0  0
 28 25  1  0  0  0  0
 28 29  1  0  0  0  0
 29 30  1  6  0  0  0
 29 31  1  0  0  0  0
 31 33  2  0  0  0  0
 31 32  1  0  0  0  0
M  END
>  <MODEL>
3

>  <REMARK>
 VINA RESULT:      -7.8      3.134      4.743
  Name = 
  4 active torsions:
  status: ('A' for Active; 'I' for Inactive)
    1  A    between atoms: CA_3  and  C_15
    2  A    between atoms: CA_3  and  C_28
    3  A    between atoms: C_17  and  C_20
    4  A    between atoms: N_19  and  C_28
                            x       y       z     vdW  Elec       q    Type
                         _______ _______ _______ _____ _____    ______ ____

>  <TORSDO>
F 4

$$$$
=
 OpenBabel11042416173D

 33 36  0  0  1  0  0  0  0  0999 V2000
  189.6590  175.5840  145.1790 C   0  0  0  0  0  0  0  0  0  0  0  0
  191.3990  171.1610  139.6370 C   0  0  0  0  0  1  0  0  0  0  0  0
  191.2430  172.2830  140.6050 C   0  0  0  0  0  0  0  0  0  0  0  0
  190.0810  172.2770  141.5760 C   0  0  2  0  0  3  0  0  0  0  0  0
  192.0630  174.3180  141.5450 C   0  0  0  0  0  0  0  0  0  0  0  0
  187.9280  177.7900  144.0310 O   0  0  0  0  0  0  0  0  0  0  0  0
  190.7730  174.5810  142.2150 C   0  0  0  0  0  0  0  0  0  0  0  0
  191.9070  176.3280  143.5620 C   0  0  1  0  0  3  0  0  0  0  0  0
  193.0470  176.3290  142.5270 C   0  0  0  0  0  2  0  0  0  0  0  0
  193.0860  175.0960  141.7350 N   0  0  0  0  0  0  0  0  0  0  0  0
  193.1950  174.5870  144.7040 O   0  0  0  0  0  1  0  0  0  0  0  0
  187.0530  177.7330  146.2840 C   0  0  0  0  0  2  0  0  0  0  0  0
  190.9720  174.9130  145.5250 C   0  0  0  0  0  2  0  0  0  0  0  0
  192.1810  173.1810  140.6850 N   0  0  0  0  0  0  0  0  0  0  0  0
  186.7630  177.6030  144.7870 C   0  0  1  0  0  3  0  0  0  0  0  0
  189.8250  173.6370  142.1740 C   0  0  0  0  0  3  0  0  0  0  0  0
  190.3830  171.2950  142.6940 C   0  0  0  0  0  1  0  0  0  0  0  0
  188.5700  175.6810  146.2360 C   0  0  1  0  0  3  0  0  0  0  0  0
  190.5860  175.9170  142.8930 C   0  0  2  0  0  3  0  0  0  0  0  0
  189.4570  175.9860  143.8940 C   0  0  0  0  0  0  0  0  0  0  0  0
  188.1560  176.5530  143.4220 C   0  0  0  0  0  2  0  0  0  0  0  0
  192.2100  175.5600  144.8810 C   0  0  2  0  0  3  0  0  0  0  0  0
  188.8540  174.8690  147.3430 O   0  0  0  0  0  1  0  0  0  0  0  0
  188.4030  177.1260  146.7010 C   0  0  0  0  0  2  0  0  0  0  0  0
  184.4590  178.0080  143.8760 N   0  0  0  0  0  2  0  0  0  0  0  0
  185.7070  178.5490  144.3100 C   0  0  0  0  0  0  0  0  0  0  0  0
  185.9330  179.7850  144.2160 O   0  0  0  0  0  0  0  0  0  0  0  0
  183.4970  178.7580  143.0770 C   0  0  0  0  0  2  0  0  0  0  0  0
  183.2840  178.1070  141.7180 C   0  0  2  0  0  3  0  0  0  0  0  0
  184.2250  178.6470  140.7530 N   0  0  0  0  0  1  0  0  0  0  0  0
  181.8850  178.3550  141.2560 C   0  0  0  0  0  0  0  0  0  0  0  0
  180.9880  179.0650  142.0530 O   0  0  0  0  0  1  0  0  0  0  0  0
  181.5120  177.9140  140.1380 O   0  0  0  0  0  0  0  0  0  0  0  0
  1 13  1  0  0  0  0
  1 18  1  0  0  0  0
  2  3  1  0  0  0  0
  3 14  2  0  0  0  0
  3  4  1  0  0  0  0
  4 16  1  0  0  0  0
  4 17  1  1  0  0  0
  5 10  2  0  0  0  0
  5  7  1  0  0  0  0
  6 15  1  0  0  0  0
  8  9  1  6  0  0  0
  8 22  1  0  0  0  0
 10  9  1  0  0  0  0
 12 24  1  0  0  0  0
 14  5  1  0  0  0  0
 15 26  1  6  0  0  0
 15 12  1  0  0  0  0
 16  7  2  0  0  0  0
 18 24  1  0  0  0  0
 18 23  1  1  0  0  0
 19  7  1  1  0  0  0
 19  8  1  0  0  0  0
 19 20  1  0  0  0  0
 20  1  2  0  0  0  0
 21 20  1  0  0  0  0
 21  6  1  0  0  0  0
 22 11  1  6  0  0  0
 22 13  1  0  0  0  0
 25 26  1  0  0  0  0
 27 26  2  0  0  0  0
 28 25  1  0  0  0  0
 29 30  1  6  0  0  0
 29 28  1  0  0  0  0
 31 29  1  0  0  0  0
 31 32  1  0  0  0  0
 33 31  2  0  0  0  0
M  END
>  <MODEL>
4

>  <REMARK>
 VINA RESULT:      -7.7      2.107      2.853
  Name = 
  4 active torsions:
  status: ('A' for Active; 'I' for Inactive)
    1  A    between atoms: CA_3  and  C_15
    2  A    between atoms: CA_3  and  C_28
    3  A    between atoms: C_17  and  C_20
    4  A    between atoms: N_19  and  C_28
                            x       y       z     vdW  Elec       q    Type
                         _______ _______ _______ _____ _____    ______ ____

>  <TORSDO>
F 4

$$$$
=
 OpenBabel11042416173D

 33 36  0  0  1  0  0  0  0  0999 V2000
  191.9710  175.6310  146.0900 C   0  0  0  0  0  0  0  0  0  0  0  0
  194.6910  170.5800  141.5750 C   0  0  0  0  0  1  0  0  0  0  0  0
  194.3070  171.8250  142.2980 C   0  0  0  0  0  0  0  0  0  0  0  0
  193.1090  171.8120  143.2240 C   0  0  2  0  0  3  0  0  0  0  0  0
  194.7410  174.1100  142.8350 C   0  0  0  0  0  0  0  0  0  0  0  0
  189.9780  177.2580  144.4880 O   0  0  0  0  0  0  0  0  0  0  0  0
  193.3910  174.2780  143.4090 C   0  0  0  0  0  0  0  0  0  0  0  0
  194.1580  176.4150  144.4100 C   0  0  1  0  0  3  0  0  0  0  0  0
  195.3390  176.4070  143.4220 C   0  0  0  0  0  2  0  0  0  0  0  0
  195.6170  175.0680  142.8910 N   0  0  0  0  0  0  0  0  0  0  0  0
  195.6410  175.1630  145.9030 O   0  0  0  0  0  1  0  0  0  0  0  0
  189.0000  177.4890  146.6870 C   0  0  0  0  0  2  0  0  0  0  0  0
  193.3520  175.2660  146.5920 C   0  0  0  0  0  2  0  0  0  0  0  0
  195.0840  172.8640  142.2200 N   0  0  0  0  0  0  0  0  0  0  0  0
  188.8180  177.0290  145.2390 C   0  0  1  0  0  3  0  0  0  0  0  0
  192.6080  173.2000  143.5340 C   0  0  0  0  0  3  0  0  0  0  0  0
  193.5000  171.1260  144.5210 C   0  0  0  0  0  1  0  0  0  0  0  0
  190.8240  175.7470  147.0810 C   0  0  1  0  0  3  0  0  0  0  0  0
  192.9570  175.6690  143.8050 C   0  0  2  0  0  3  0  0  0  0  0  0
  191.7790  175.7400  144.7470 C   0  0  0  0  0  0  0  0  0  0  0  0
  190.4330  175.9820  144.1410 C   0  0  0  0  0  2  0  0  0  0  0  0
  194.5050  175.9750  145.8610 C   0  0  2  0  0  3  0  0  0  0  0  0
  191.1710  175.2210  148.3340 O   0  0  0  0  0  1  0  0  0  0  0  0
  190.4040  177.2060  147.2470 C   0  0  0  0  0  2  0  0  0  0  0  0
  187.5970  177.6430  143.1330 N   0  0  0  0  0  2  0  0  0  0  0  0
  187.6540  177.6770  144.5600 C   0  0  0  0  0  0  0  0  0  0  0  0
  186.7820  178.3060  145.2180 O   0  0  0  0  0  0  0  0  0  0  0  0
  186.7310  178.5150  142.3470 C   0  0  0  0  0  2  0  0  0  0  0  0
  185.6680  177.7140  141.6100 C   0  0  2  0  0  3  0  0  0  0  0  0
  185.7910  177.9180  140.1780 N   0  0  0  0  0  1  0  0  0  0  0  0
  184.3110  178.1400  142.0680 C   0  0  0  0  0  0  0  0  0  0  0  0
  184.0560  178.3720  143.4190 O   0  0  0  0  0  1  0  0  0  0  0  0
  183.3880  178.2870  141.2250 O   0  0  0  0  0  0  0  0  0  0  0  0
  1 13  1  0  0  0  0
  1 18  1  0  0  0  0
  2  3  1  0  0  0  0
  3  4  1  0  0  0  0
  4 16  1  0  0  0  0
  4 17  1  1  0  0  0
  5 10  2  0  0  0  0
  5  7  1  0  0  0  0
  6 15  1  0  0  0  0
  7 16  2  0  0  0  0
  8  9  1  6  0  0  0
  8 22  1  0  0  0  0
 10  9  1  0  0  0  0
 12 24  1  0  0  0  0
 14  3  2  0  0  0  0
 14  5  1  0  0  0  0
 15 26  1  6  0  0  0
 15 12  1  0  0  0  0
 18 24  1  0  0  0  0
 18 23  1  1  0  0  0
 19  7  1  1  0  0  0
 19  8  1  0  0  0  0
 19 20  1  0  0  0  0
 20  1  2  0  0  0  0
 21  6  1  0  0  0  0
 21 20  1  0  0  0  0
 22 11  1  6  0  0  0
 22 13  1  0  0  0  0
 25 26  1  0  0  0  0
 26 27  2  0  0  0  0
 28 25  1  0  0  0  0
 29 30  1  6  0  0  0
 29 31  1  0  0  0  0
 29 28  1  0  0  0  0
 31 32  1  0  0  0  0
 33 31  2  0  0  0  0
M  END
>  <MODEL>
5

>  <REMARK>
 VINA RESULT:      -7.6      2.884      4.750
  Name = 
  4 active torsions:
  status: ('A' for Active; 'I' for Inactive)
    1  A    between atoms: CA_3  and  C_15
    2  A    between atoms: CA_3  and  C_28
    3  A    between atoms: C_17  and  C_20
    4  A    between atoms: N_19  and  C_28
                            x       y       z     vdW  Elec       q    Type
                         _______ _______ _______ _____ _____    ______ ____

>  <TORSDO>
F 4

$$$$
=
 OpenBabel11042416173D

 33 36  0  0  1  0  0  0  0  0999 V2000
  190.7600  174.0400  142.7770 C   0  0  0  0  0  0  0  0  0  0  0  0
  197.5340  176.7410  143.1280 C   0  0  0  0  0  1  0  0  0  0  0  0
  196.1430  176.2730  143.3840 C   0  0  0  0  0  0  0  0  0  0  0  0
  195.2000  176.0600  142.2190 C   0  0  2  0  0  3  0  0  0  0  0  0
  194.4690  175.5380  144.9190 C   0  0  0  0  0  0  0  0  0  0  0  0
  188.8640  176.3770  143.1260 O   0  0  0  0  0  0  0  0  0  0  0  0
  193.4060  175.7010  143.9070 C   0  0  0  0  0  0  0  0  0  0  0  0
  191.8950  174.4020  145.3860 C   0  0  1  0  0  3  0  0  0  0  0  0
  192.8630  174.6790  146.5500 C   0  0  0  0  0  2  0  0  0  0  0  0
  194.2090  175.0350  146.0880 N   0  0  0  0  0  0  0  0  0  0  0  0
  193.2480  172.4020  144.9810 O   0  0  0  0  0  1  0  0  0  0  0  0
  187.4760  174.9420  141.7620 C   0  0  0  0  0  2  0  0  0  0  0  0
  191.6700  172.9300  143.2610 C   0  0  0  0  0  2  0  0  0  0  0  0
  195.8050  175.9330  144.5930 N   0  0  0  0  0  0  0  0  0  0  0  0
  188.1610  176.3030  141.9160 C   0  0  1  0  0  3  0  0  0  0  0  0
  193.7560  176.0040  142.6520 C   0  0  0  0  0  3  0  0  0  0  0  0
  195.5600  174.7550  141.5310 C   0  0  0  0  0  1  0  0  0  0  0  0
  189.7280  173.7410  141.7020 C   0  0  1  0  0  3  0  0  0  0  0  0
  191.9720  175.5390  144.3530 C   0  0  2  0  0  3  0  0  0  0  0  0
  190.9710  175.3000  143.2470 C   0  0  0  0  0  0  0  0  0  0  0  0
  190.2060  176.4850  142.7490 C   0  0  0  0  0  2  0  0  0  0  0  0
  191.9940  172.9800  144.7640 C   0  0  2  0  0  3  0  0  0  0  0  0
  189.9530  172.4930  141.1040 O   0  0  0  0  0  1  0  0  0  0  0  0
  188.3190  173.7700  142.2910 C   0  0  0  0  0  2  0  0  0  0  0  0
  187.0660  178.3030  142.9640 N   0  0  0  0  0  2  0  0  0  0  0  0
  187.2090  177.4520  141.8260 C   0  0  0  0  0  0  0  0  0  0  0  0
  186.4910  177.6260  140.8050 O   0  0  0  0  0  0  0  0  0  0  0  0
  185.9470  179.2230  143.1380 C   0  0  0  0  0  2  0  0  0  0  0  0
  185.5660  179.3530  144.6060 C   0  0  2  0  0  3  0  0  0  0  0  0
  186.3840  178.4660  145.4150 N   0  0  0  0  0  1  0  0  0  0  0  0
  184.1220  179.0110  144.7820 C   0  0  0  0  0  0  0  0  0  0  0  0
  183.2410  179.0650  143.7020 O   0  0  0  0  0  0  0  0  0  0  0  0
  183.6960  178.6770  145.9170 O   0  0  0  0  0  1  0  0  0  0  0  0
  1 20  2  0  0  0  0
  1 13  1  0  0  0  0
  2  3  1  0  0  0  0
  3 14  2  0  0  0  0
  4 17  1  1  0  0  0
  4 16  1  0  0  0  0
  4  3  1  0  0  0  0
  5 10  2  0  0  0  0
  7 19  1  0  0  0  0
  7  5  1  0  0  0  0
  8  9  1  1  0  0  0
 10  9  1  0  0  0  0
 12 15  1  0  0  0  0
 12 24  1  0  0  0  0
 13 22  1  0  0  0  0
 14  5  1  0  0  0  0
 15 26  1  1  0  0  0
 15  6  1  0  0  0  0
 16  7  2  0  0  0  0
 18 23  1  1  0  0  0
 18 24  1  0  0  0  0
 18  1  1  0  0  0  0
 19 20  1  6  0  0  0
 19  8  1  0  0  0  0
 21  6  1  0  0  0  0
 21 20  1  0  0  0  0
 22 11  1  6  0  0  0
 22  8  1  0  0  0  0
 25 28  1  0  0  0  0
 26 25  1  0  0  0  0
 27 26  2  0  0  0  0
 28 29  1  0  0  0  0
 29 31  1  0  0  0  0
 29 30  1  1  0  0  0
 31 33  1  0  0  0  0
 32 31  2  0  0  0  0
M  END
>  <MODEL>
6

>  <REMARK>
 VINA RESULT:      -7.5      3.410      5.403
  Name = 
  4 active torsions:
  status: ('A' for Active; 'I' for Inactive)
    1  A    between atoms: CA_3  and  C_15
    2  A    between atoms: CA_3  and  C_28
    3  A    between atoms: C_17  and  C_20
    4  A    between atoms: N_19  and  C_28
                            x       y       z     vdW  Elec       q    Type
                         _______ _______ _______ _____ _____    ______ ____

>  <TORSDO>
F 4

$$$$
=
 OpenBabel11042416173D

 33 36  0  0  1  0  0  0  0  0999 V2000
  191.6550  174.7790  144.5340 C   0  0  0  0  0  0  0  0  0  0  0  0
  196.9370  175.2280  139.5150 C   0  0  0  0  0  1  0  0  0  0  0  0
  196.0160  175.4050  140.6720 C   0  0  0  0  0  0  0  0  0  0  0  0
  194.6440  174.7650  140.6400 C   0  0  2  0  0  3  0  0  0  0  0  0
  195.6060  176.2580  142.8640 C   0  0  0  0  0  0  0  0  0  0  0  0
  189.8850  177.2110  144.1650 O   0  0  0  0  0  0  0  0  0  0  0  0
  194.1540  176.0210  142.7320 C   0  0  0  0  0  0  0  0  0  0  0  0
  193.9440  176.3810  145.1780 C   0  0  1  0  0  3  0  0  0  0  0  0
  195.3250  177.0610  145.1560 C   0  0  0  0  0  2  0  0  0  0  0  0
  196.1160  176.6850  143.9790 N   0  0  0  0  0  0  0  0  0  0  0  0
  195.1790  174.3040  145.5720 O   0  0  0  0  0  1  0  0  0  0  0  0
  188.2510  175.6640  145.0470 C   0  0  0  0  0  2  0  0  0  0  0  0
  192.8570  174.0290  145.0670 C   0  0  0  0  0  2  0  0  0  0  0  0
  196.4570  175.9970  141.7430 N   0  0  0  0  0  0  0  0  0  0  0  0
  188.6620  176.5840  143.8950 C   0  0  1  0  0  3  0  0  0  0  0  0
  193.7060  175.3690  141.6530 C   0  0  0  0  0  3  0  0  0  0  0  0
  194.7900  173.2810  140.9250 C   0  0  0  0  0  1  0  0  0  0  0  0
  190.2730  174.1570  144.6540 C   0  0  1  0  0  3  0  0  0  0  0  0
  193.2490  176.5530  143.8180 C   0  0  2  0  0  3  0  0  0  0  0  0
  191.8660  175.9470  143.8660 C   0  0  0  0  0  0  0  0  0  0  0  0
  190.7630  176.7060  143.2010 C   0  0  0  0  0  2  0  0  0  0  0  0
  193.9330  174.9200  145.7110 C   0  0  2  0  0  3  0  0  0  0  0  0
  190.3470  172.8060  145.0210 O   0  0  0  0  0  1  0  0  0  0  0  0
  189.4330  174.9110  145.6810 C   0  0  0  0  0  2  0  0  0  0  0  0
  187.0510  178.3510  144.6580 N   0  0  0  0  0  2  0  0  0  0  0  0
  187.6330  177.6210  143.5770 C   0  0  0  0  0  0  0  0  0  0  0  0
  187.2280  177.7990  142.3970 O   0  0  0  0  0  0  0  0  0  0  0  0
  185.8180  179.1190  144.5310 C   0  0  0  0  0  2  0  0  0  0  0  0
  184.6080  178.2850  144.9250 C   0  0  2  0  0  3  0  0  0  0  0  0
  183.4010  179.0890  144.8490 N   0  0  0  0  0  1  0  0  0  0  0  0
  184.7850  177.7690  146.3160 C   0  0  0  0  0  0  0  0  0  0  0  0
  184.7220  178.6320  147.4090 O   0  0  0  0  0  1  0  0  0  0  0  0
  185.0000  176.5430  146.5010 O   0  0  0  0  0  0  0  0  0  0  0  0
  1 18  1  0  0  0  0
  1 13  1  0  0  0  0
  2  3  1  0  0  0  0
  3 14  2  0  0  0  0
  4  3  1  0  0  0  0
  4 17  1  1  0  0  0
  4 16  1  0  0  0  0
  5 10  2  0  0  0  0
  7  5  1  0  0  0  0
  8  9  1  6  0  0  0
  8 22  1  0  0  0  0
 10  9  1  0  0  0  0
 12 24  1  0  0  0  0
 13 22  1  0  0  0  0
 14  5  1  0  0  0  0
 15 26  1  1  0  0  0
 15  6  1  0  0  0  0
 15 12  1  0  0  0  0
 16  7  2  0  0  0  0
 18 23  1  1  0  0  0
 18 24  1  0  0  0  0
 19  7  1  6  0  0  0
 19 20  1  0  0  0  0
 19  8  1  0  0  0  0
 20  1  2  0  0  0  0
 21 20  1  0  0  0  0
 21  6  1  0  0  0  0
 22 11  1  6  0  0  0
 26 25  1  0  0  0  0
 27 26  2  0  0  0  0
 28 25  1  0  0  0  0
 28 29  1  0  0  0  0
 29 30  1  1  0  0  0
 29 31  1  0  0  0  0
 31 33  2  0  0  0  0
 31 32  1  0  0  0  0
M  END
>  <MODEL>
7

>  <REMARK>
 VINA RESULT:      -7.4      3.655      5.537
  Name = 
  4 active torsions:
  status: ('A' for Active; 'I' for Inactive)
    1  A    between atoms: CA_3  and  C_15
    2  A    between atoms: CA_3  and  C_28
    3  A    between atoms: C_17  and  C_20
    4  A    between atoms: N_19  and  C_28
                            x       y       z     vdW  Elec       q    Type
                         _______ _______ _______ _____ _____    ______ ____

>  <TORSDO>
F 4

$$$$
=
 OpenBabel11042416173D

 33 36  0  0  1  0  0  0  0  0999 V2000
  193.2510  175.0930  144.3310 C   0  0  0  0  0  0  0  0  0  0  0  0
  196.6010  168.6860  145.3450 C   0  0  0  0  0  1  0  0  0  0  0  0
  195.7610  169.8280  144.8880 C   0  0  0  0  0  0  0  0  0  0  0  0
  195.5430  171.0100  145.8090 C   0  0  2  0  0  3  0  0  0  0  0  0
  194.4710  170.8780  143.1760 C   0  0  0  0  0  0  0  0  0  0  0  0
  190.3500  174.6990  145.1110 O   0  0  0  0  0  0  0  0  0  0  0  0
  193.8950  171.8400  144.1380 C   0  0  0  0  0  0  0  0  0  0  0  0
  193.0770  173.1710  142.2100 C   0  0  1  0  0  3  0  0  0  0  0  0
  193.2760  171.9300  141.3210 C   0  0  0  0  0  2  0  0  0  0  0  0
  194.2120  170.9650  141.9060 N   0  0  0  0  0  0  0  0  0  0  0  0
  195.3910  173.7250  141.6340 O   0  0  0  0  0  1  0  0  0  0  0  0
  190.5830  177.0500  145.6280 C   0  0  0  0  0  2  0  0  0  0  0  0
  194.4350  175.0410  143.3880 C   0  0  0  0  0  2  0  0  0  0  0  0
  195.3360  169.8450  143.6590 N   0  0  0  0  0  0  0  0  0  0  0  0
  190.2430  175.6470  146.1380 C   0  0  1  0  0  3  0  0  0  0  0  0
  194.3660  171.8540  145.3900 C   0  0  0  0  0  3  0  0  0  0  0  0
  196.7940  171.8710  145.8030 C   0  0  0  0  0  1  0  0  0  0  0  0
  192.9890  176.3590  145.1310 C   0  0  1  0  0  3  0  0  0  0  0  0
  192.7840  172.7420  143.6570 C   0  0  2  0  0  3  0  0  0  0  0  0
  192.5190  173.9590  144.5120 C   0  0  0  0  0  0  0  0  0  0  0  0
  191.4040  173.8690  145.5050 C   0  0  0  0  0  2  0  0  0  0  0  0
  194.1830  174.2580  142.0880 C   0  0  2  0  0  3  0  0  0  0  0  0
  194.0780  177.2400  145.0720 O   0  0  0  0  0  1  0  0  0  0  0  0
  191.7400  177.0690  144.6150 C   0  0  0  0  0  2  0  0  0  0  0  0
  187.9130  176.5440  146.3920 N   0  0  0  0  0  2  0  0  0  0  0  0
  188.8830  175.5590  146.7520 C   0  0  0  0  0  0  0  0  0  0  0  0
  188.6150  174.6900  147.6250 O   0  0  0  0  0  0  0  0  0  0  0  0
  186.6950  176.7840  147.1580 C   0  0  0  0  0  2  0  0  0  0  0  0
  185.4780  176.8530  146.2480 C   0  0  2  0  0  3  0  0  0  0  0  0
  185.8920  176.8100  144.8560 N   0  0  0  0  0  1  0  0  0  0  0  0
  184.7230  178.1150  146.5130 C   0  0  0  0  0  0  0  0  0  0  0  0
  183.9180  178.6830  145.5270 O   0  0  0  0  0  0  0  0  0  0  0  0
  184.8200  178.6720  147.6380 O   0  0  0  0  0  1  0  0  0  0  0  0
  1 20  2  0  0  0  0
  1 18  1  0  0  0  0
  3  2  1  0  0  0  0
  3  4  1  0  0  0  0
  4 17  1  6  0  0  0
  5 14  1  0  0  0  0
  5  7  1  0  0  0  0
  6 21  1  0  0  0  0
  6 15  1  0  0  0  0
  7 16  2  0  0  0  0
  8  9  1  6  0  0  0
  8 19  1  0  0  0  0
  9 10  1  0  0  0  0
 10  5  2  0  0  0  0
 12 15  1  0  0  0  0
 13  1  1  0  0  0  0
 14  3  2  0  0  0  0
 15 26  1  6  0  0  0
 16  4  1  0  0  0  0
 18 23  1  6  0  0  0
 19  7  1  1  0  0  0
 19 20  1  0  0  0  0
 20 21  1  0  0  0  0
 22 11  1  1  0  0  0
 22  8  1  0  0  0  0
 22 13  1  0  0  0  0
 24 18  1  0  0  0  0
 24 12  1  0  0  0  0
 25 26  1  0  0  0  0
 25 28  1  0  0  0  0
 26 27  2  0  0  0  0
 29 30  1  6  0  0  0
 29 31  1  0  0  0  0
 29 28  1  0  0  0  0
 31 33  1  0  0  0  0
 32 31  2  0  0  0  0
M  END
>  <MODEL>
8

>  <REMARK>
 VINA RESULT:      -7.1      4.257      6.857
  Name = 
  4 active torsions:
  status: ('A' for Active; 'I' for Inactive)
    1  A    between atoms: CA_3  and  C_15
    2  A    between atoms: CA_3  and  C_28
    3  A    between atoms: C_17  and  C_20
    4  A    between atoms: N_19  and  C_28
                            x       y       z     vdW  Elec       q    Type
                         _______ _______ _______ _____ _____    ______ ____

>  <TORSDO>
F 4

$$$$
=
 OpenBabel11042416173D

 33 36  0  0  1  0  0  0  0  0999 V2000
  191.8630  175.4590  145.0580 C   0  0  0  0  0  0  0  0  0  0  0  0
  185.8560  177.8400  141.6590 C   0  0  0  0  0  1  0  0  0  0  0  0
  186.8600  177.2340  142.5780 C   0  0  0  0  0  0  0  0  0  0  0  0
  188.2630  176.9620  142.0780 C   0  0  2  0  0  3  0  0  0  0  0  0
  187.4430  176.4340  144.7510 C   0  0  0  0  0  0  0  0  0  0  0  0
  191.8390  172.4350  144.8680 O   0  0  0  0  0  0  0  0  0  0  0  0
  188.6620  175.7810  144.2320 C   0  0  0  0  0  0  0  0  0  0  0  0
  189.4310  175.5140  146.5760 C   0  0  1  0  0  3  0  0  0  0  0  0
  187.9820  175.7550  147.0370 C   0  0  0  0  0  2  0  0  0  0  0  0
  187.1800  176.4470  146.0230 N   0  0  0  0  0  0  0  0  0  0  0  0
  189.6940  177.9420  146.7480 O   0  0  0  0  0  1  0  0  0  0  0  0
  194.2260  172.8060  144.9560 C   0  0  0  0  0  2  0  0  0  0  0  0
  191.4940  176.7960  145.6650 C   0  0  0  0  0  2  0  0  0  0  0  0
  186.5500  177.0700  143.8310 N   0  0  0  0  0  0  0  0  0  0  0  0
  193.0410  172.2250  144.1800 C   0  0  1  0  0  3  0  0  0  0  0  0
  189.0070  175.9890  142.9560 C   0  0  0  0  0  3  0  0  0  0  0  0
  189.0290  178.2720  142.0320 C   0  0  0  0  0  1  0  0  0  0  0  0
  193.3140  175.1770  144.7020 C   0  0  1  0  0  3  0  0  0  0  0  0
  189.4420  174.8910  145.1700 C   0  0  2  0  0  3  0  0  0  0  0  0
  190.8610  174.5900  144.7500 C   0  0  0  0  0  0  0  0  0  0  0  0
  191.1060  173.2950  144.0440 C   0  0  0  0  0  2  0  0  0  0  0  0
  190.3890  176.7300  146.7330 C   0  0  2  0  0  3  0  0  0  0  0  0
  194.0920  176.3420  144.7490 O   0  0  0  0  0  1  0  0  0  0  0  0
  193.9060  174.1390  145.6530 C   0  0  0  0  0  2  0  0  0  0  0  0
  193.6640  169.9100  144.9250 N   0  0  0  0  0  2  0  0  0  0  0  0
  193.1930  170.7670  143.8840 C   0  0  0  0  0  0  0  0  0  0  0  0
  192.9870  170.3110  142.7270 O   0  0  0  0  0  0  0  0  0  0  0  0
  194.1820  168.5680  144.6820 C   0  0  0  0  0  2  0  0  0  0  0  0
  195.4230  168.2990  145.5200 C   0  0  2  0  0  3  0  0  0  0  0  0
  195.0690  168.2170  146.9260 N   0  0  0  0  0  1  0  0  0  0  0  0
  196.4170  169.3940  145.3110 C   0  0  0  0  0  0  0  0  0  0  0  0
  196.7540  170.2580  146.3520 O   0  0  0  0  0  1  0  0  0  0  0  0
  196.9520  169.5410  144.1810 O   0  0  0  0  0  0  0  0  0  0  0  0
  1 13  1  0  0  0  0
  2  3  1  0  0  0  0
  3 14  2  0  0  0  0
  4 17  1  1  0  0  0
  4  3  1  0  0  0  0
  4 16  1  0  0  0  0
  5 10  2  0  0  0  0
  7  5  1  0  0  0  0
  8 22  1  0  0  0  0
  8  9  1  6  0  0  0
 10  9  1  0  0  0  0
 12 24  1  0  0  0  0
 13 22  1  0  0  0  0
 14  5  1  0  0  0  0
 15 26  1  1  0  0  0
 15  6  1  0  0  0  0
 15 12  1  0  0  0  0
 16  7  2  0  0  0  0
 18 23  1  1  0  0  0
 18  1  1  0  0  0  0
 18 24  1  0  0  0  0
 19  7  1  6  0  0  0
 19  8  1  0  0  0  0
 20  1  2  0  0  0  0
 20 19  1  0  0  0  0
 21 20  1  0  0  0  0
 21  6  1  0  0  0  0
 22 11  1  6  0  0  0
 26 25  1  0  0  0  0
 27 26  2  0  0  0  0
 28 25  1  0  0  0  0
 28 29  1  0  0  0  0
 29 30  1  1  0  0  0
 31 29  1  0  0  0  0
 31 32  1  0  0  0  0
 33 31  2  0  0  0  0
M  END
>  <MODEL>
9

>  <REMARK>
 VINA RESULT:      -6.9      4.769     10.663
  Name = 
  4 active torsions:
  status: ('A' for Active; 'I' for Inactive)
    1  A    between atoms: CA_3  and  C_15
    2  A    between atoms: CA_3  and  C_28
    3  A    between atoms: C_17  and  C_20
    4  A    between atoms: N_19  and  C_28
                            x       y       z     vdW  Elec       q    Type
                         _______ _______ _______ _____ _____    ______ ____

>  <TORSDO>
F 4

$$$$
