=
 OpenBabel11042415293D

 42 44  0  0  1  0  0  0  0  0999 V2000
  191.0600  173.1750  142.3890 C   0  0  0  0  0  0  0  0  0  0  0  0
  190.5010  174.3560  144.4800 C   0  0  0  0  0  0  0  0  0  0  0  0
  189.6080  172.1360  143.6800 N   0  0  0  0  0  0  0  0  0  0  0  0
  192.5020  174.1900  140.6100 C   0  0  0  0  0  1  0  0  0  0  0  0
  189.6320  174.4910  145.4420 N   0  0  0  0  0  0  0  0  0  0  0  0
  190.3880  173.2220  143.5600 C   0  0  1  0  0  3  0  0  0  0  0  0
  189.8550  171.4470  142.5370 C   0  0  0  0  0  3  0  0  0  0  0  0
  190.7400  172.0630  141.7100 N   0  0  0  0  0  0  0  0  0  0  0  0
  191.8960  174.2400  141.9310 N   0  0  0  0  0  0  0  0  0  0  0  0
  192.0570  175.3920  142.7850 C   0  0  0  0  0  0  0  0  0  0  0  0
  191.6380  175.3380  144.2470 C   0  0  2  0  0  3  0  0  0  0  0  0
  192.5840  176.4450  142.3380 O   0  0  0  0  0  0  0  0  0  0  0  0
  188.1470  175.6570  146.9790 C   0  0  0  0  0  2  0  0  0  0  0  0
  189.5640  175.5680  146.4340 C   0  0  1  0  0  0  0  0  0  0  0  0
  187.7390  177.1220  146.8690 C   0  0  1  0  0  3  0  0  0  0  0  0
  190.5210  175.3190  147.5870 C   0  0  0  0  0  1  0  0  0  0  0  0
  189.8070  176.9050  145.8170 C   0  0  0  0  0  3  0  0  0  0  0  0
  188.8160  177.7490  146.0540 C   0  0  0  0  0  3  0  0  0  0  0  0
  186.5210  177.2240  146.1970 O   0  0  0  0  0  0  0  0  0  0  0  0
  185.7670  178.1170  146.9580 C   0  0  0  0  0  2  0  0  0  0  0  0
  184.6670  178.7130  146.1020 C   0  0  0  0  0  2  0  0  0  0  0  0
  184.6020  178.0010  144.8380 N   0  0  0  0  0  2  0  0  0  0  0  0
  184.7340  178.9810  143.7710 C   0  0  0  0  0  2  0  0  0  0  0  0
  186.1510  178.9810  143.1920 C   0  0  0  0  0  2  0  0  0  0  0  0
  186.2500  178.3130  141.8170 C   0  0  2  0  0  3  0  0  0  0  0  0
  185.0350  177.7160  141.4760 O   0  0  0  0  0  1  0  0  0  0  0  0
  187.3910  177.3010  141.7450 C   0  0  2  0  0  3  0  0  0  0  0  0
  187.3640  176.6420  140.5150 O   0  0  0  0  0  1  0  0  0  0  0  0
  187.5190  175.0000  142.3720 O   0  0  0  0  0  1  0  0  0  0  0  0
  187.2670  176.2800  142.8650 C   0  0  0  0  0  2  0  0  0  0  0  0
  192.8340  174.9230  145.0900 C   0  0  0  0  0  2  0  0  0  0  0  0
  193.4920  176.1420  145.7130 C   0  0  0  0  0  2  0  0  0  0  0  0
  195.0050  176.0090  145.6550 C   0  0  2  0  0  3  0  0  0  0  0  0
  195.5040  176.3480  144.2620 C   0  0  0  0  0  1  0  0  0  0  0  0
  195.4730  174.6190  146.0860 C   0  0  0  0  0  2  0  0  0  0  0  0
  196.7600  174.1960  145.3880 C   0  0  0  0  0  2  0  0  0  0  0  0
  197.1870  172.9640  145.8870 O   0  0  0  0  0  0  0  0  0  0  0  0
  196.6230  172.0240  145.0240 C   0  0  0  0  0  2  0  0  0  0  0  0
  195.8760  170.9620  145.8130 C   0  0  0  0  0  2  0  0  0  0  0  0
  196.5430  169.2810  147.5240 O   0  0  0  0  0  1  0  0  0  0  0  0
  196.8170  169.9280  146.3290 C   0  0  0  0  0  0  0  0  0  0  0  0
  197.8500  169.6280  145.6760 O   0  0  0  0  0  0  0  0  0  0  0  0
  2  5  2  0  0  0  0
  4  9  1  0  0  0  0
  5 14  1  0  0  0  0
  6  1  1  6  0  0  0
  6  3  1  0  0  0  0
  6  2  1  0  0  0  0
  7  3  2  0  0  0  0
  8  1  2  0  0  0  0
  8  7  1  0  0  0  0
  9  1  1  0  0  0  0
  9 10  1  0  0  0  0
 10 11  1  0  0  0  0
 11  2  1  0  0  0  0
 11 31  1  1  0  0  0
 12 10  2  0  0  0  0
 14 13  1  0  0  0  0
 14 16  1  1  0  0  0
 15 19  1  6  0  0  0
 15 13  1  0  0  0  0
 17 18  2  0  0  0  0
 17 14  1  0  0  0  0
 18 15  1  0  0  0  0
 19 20  1  0  0  0  0
 21 20  1  0  0  0  0
 22 21  1  0  0  0  0
 23 22  1  0  0  0  0
 24 23  1  0  0  0  0
 25 26  1  1  0  0  0
 25 24  1  0  0  0  0
 27 28  1  6  0  0  0
 27 25  1  0  0  0  0
 27 30  1  0  0  0  0
 29 30  1  0  0  0  0
 31 32  1  0  0  0  0
 33 34  1  6  0  0  0
 33 32  1  0  0  0  0
 33 35  1  0  0  0  0
 36 37  1  0  0  0  0
 36 35  1  0  0  0  0
 38 39  1  0  0  0  0
 38 37  1  0  0  0  0
 39 41  1  0  0  0  0
 41 40  1  0  0  0  0
 42 41  2  0  0  0  0
M  END
>  <MODEL>
1

>  <REMARK>
 VINA RESULT:      -6.2      0.000      0.000
  Name = 
  19 active torsions:
  status: ('A' for Active; 'I' for Inactive)
    1  A    between atoms: C_2  and  N_13
    2  A    between atoms: C_3  and  C_16
    3  A    between atoms: C_3  and  C_22
    4  A    between atoms: C_4  and  O_34
    5  A    between atoms: C_6  and  C_25
    6  A    between atoms: C_6  and  C_31
    7  A    between atoms: C_8  and  C_24
    8  A    between atoms: C_8  and  O_38
    9  A    between atoms: C_15  and  C_25
   10  A    between atoms: C_15  and  C_33
   11  A    between atoms: C_16  and  C_40
   12  A    between atoms: C_17  and  C_21
   13  A    between atoms: C_17  and  O_34
   14  A    between atoms: C_19  and  C_24
   15  A    between atoms: C_21  and  N_29
   16  A    between atoms: C_22  and  C_23
   17  A    between atoms: C_23  and  O_38
   18  A    between atoms: N_29  and  C_33
   19  A    between atoms: C_36  and  C_40
                            x       y       z     vdW  Elec       q    Type
                         _______ _______ _______ _____ _____    ______ ____

>  <TORSDO>
F 19

$$$$
=
 OpenBabel11042415293D

 42 44  0  0  1  0  0  0  0  0999 V2000
  189.0940  176.0600  142.7760 C   0  0  0  0  0  0  0  0  0  0  0  0
  190.7890  176.0420  144.5670 C   0  0  0  0  0  0  0  0  0  0  0  0
  190.1580  177.9680  143.0640 N   0  0  0  0  0  0  0  0  0  0  0  0
  187.8740  173.9960  142.0520 C   0  0  0  0  0  1  0  0  0  0  0  0
  191.8610  176.6110  145.0420 N   0  0  0  0  0  0  0  0  0  0  0  0
  190.0290  176.7070  143.5070 C   0  0  1  0  0  3  0  0  0  0  0  0
  189.2570  178.0370  142.0510 C   0  0  0  0  0  3  0  0  0  0  0  0
  188.5880  176.8740  141.8370 N   0  0  0  0  0  0  0  0  0  0  0  0
  188.8030  174.6710  142.9440 N   0  0  0  0  0  0  0  0  0  0  0  0
  189.5130  173.9480  143.9710 C   0  0  0  0  0  0  0  0  0  0  0  0
  190.2830  174.6930  145.0520 C   0  0  2  0  0  3  0  0  0  0  0  0
  189.4690  172.6900  144.0070 O   0  0  0  0  0  0  0  0  0  0  0  0
  194.1750  176.5830  145.8000 C   0  0  0  0  0  2  0  0  0  0  0  0
  192.7620  176.0900  146.0730 C   0  0  1  0  0  0  0  0  0  0  0  0
  195.0720  175.3510  145.8430 C   0  0  1  0  0  3  0  0  0  0  0  0
  192.3400  176.5460  147.4590 C   0  0  0  0  0  1  0  0  0  0  0  0
  192.8720  174.6020  146.0120 C   0  0  0  0  0  3  0  0  0  0  0  0
  194.1270  174.2020  145.8870 C   0  0  0  0  0  3  0  0  0  0  0  0
  195.8400  175.2860  144.6800 O   0  0  0  0  0  0  0  0  0  0  0  0
  195.7830  176.5700  144.1410 C   0  0  0  0  0  2  0  0  0  0  0  0
  196.7750  176.6900  143.0020 C   0  0  0  0  0  2  0  0  0  0  0  0
  196.0560  176.8910  141.7570 N   0  0  0  0  0  2  0  0  0  0  0  0
  195.7700  175.5790  141.1950 C   0  0  0  0  0  2  0  0  0  0  0  0
  194.2710  175.3960  140.9530 C   0  0  0  0  0  2  0  0  0  0  0  0
  193.5890  174.4980  141.9900 C   0  0  2  0  0  3  0  0  0  0  0  0
  194.4590  173.4880  142.4080 O   0  0  0  0  0  1  0  0  0  0  0  0
  192.2800  173.9060  141.4730 C   0  0  2  0  0  3  0  0  0  0  0  0
  192.0930  172.6300  142.0060 O   0  0  0  0  0  1  0  0  0  0  0  0
  191.7010  172.6280  139.5400 O   0  0  0  0  0  1  0  0  0  0  0  0
  192.3000  173.8170  139.9550 C   0  0  0  0  0  2  0  0  0  0  0  0
  189.3740  174.9040  146.2520 C   0  0  0  0  0  2  0  0  0  0  0  0
  188.8950  176.3450  146.3060 C   0  0  0  0  0  2  0  0  0  0  0  0
  187.3880  176.3900  146.4980 C   0  0  2  0  0  3  0  0  0  0  0  0
  186.6910  176.3650  145.1500 C   0  0  0  0  0  1  0  0  0  0  0  0
  186.9530  177.6030  147.3210 C   0  0  0  0  0  2  0  0  0  0  0  0
  186.1410  178.6010  146.5020 C   0  0  0  0  0  2  0  0  0  0  0  0
  184.8190  178.6160  146.9510 O   0  0  0  0  0  0  0  0  0  0  0  0
  184.0570  178.7260  145.7870 C   0  0  0  0  0  2  0  0  0  0  0  0
  184.7960  179.5500  144.7460 C   0  0  0  0  0  2  0  0  0  0  0  0
  185.7980  178.8230  142.5850 O   0  0  0  0  0  0  0  0  0  0  0  0
  184.6790  178.9250  143.3980 C   0  0  0  0  0  0  0  0  0  0  0  0
  183.5740  178.4720  143.0020 O   0  0  0  0  0  1  0  0  0  0  0  0
  1  9  1  0  0  0  0
  2  5  2  0  0  0  0
  2 11  1  0  0  0  0
  3  6  1  0  0  0  0
  4  9  1  0  0  0  0
  5 14  1  0  0  0  0
  6  1  1  6  0  0  0
  6  2  1  0  0  0  0
  7  3  2  0  0  0  0
  8  7  1  0  0  0  0
  8  1  2  0  0  0  0
  9 10  1  0  0  0  0
 10 12  2  0  0  0  0
 10 11  1  0  0  0  0
 11 31  1  1  0  0  0
 13 15  1  0  0  0  0
 13 14  1  0  0  0  0
 14 16  1  1  0  0  0
 15 19  1  6  0  0  0
 15 18  1  0  0  0  0
 17 14  1  0  0  0  0
 18 17  2  0  0  0  0
 20 19  1  0  0  0  0
 21 20  1  0  0  0  0
 22 21  1  0  0  0  0
 23 22  1  0  0  0  0
 24 23  1  0  0  0  0
 24 25  1  0  0  0  0
 25 26  1  6  0  0  0
 27 25  1  0  0  0  0
 27 28  1  1  0  0  0
 29 30  1  0  0  0  0
 30 27  1  0  0  0  0
 31 32  1  0  0  0  0
 32 33  1  0  0  0  0
 33 34  1  6  0  0  0
 33 35  1  0  0  0  0
 36 37  1  0  0  0  0
 36 35  1  0  0  0  0
 38 37  1  0  0  0  0
 39 38  1  0  0  0  0
 40 41  2  0  0  0  0
 41 39  1  0  0  0  0
 42 41  1  0  0  0  0
M  END
>  <MODEL>
2

>  <REMARK>
 VINA RESULT:      -6.0      2.677      8.688
  Name = 
  19 active torsions:
  status: ('A' for Active; 'I' for Inactive)
    1  A    between atoms: C_2  and  N_13
    2  A    between atoms: C_3  and  C_16
    3  A    between atoms: C_3  and  C_22
    4  A    between atoms: C_4  and  O_34
    5  A    between atoms: C_6  and  C_25
    6  A    between atoms: C_6  and  C_31
    7  A    between atoms: C_8  and  C_24
    8  A    between atoms: C_8  and  O_38
    9  A    between atoms: C_15  and  C_25
   10  A    between atoms: C_15  and  C_33
   11  A    between atoms: C_16  and  C_40
   12  A    between atoms: C_17  and  C_21
   13  A    between atoms: C_17  and  O_34
   14  A    between atoms: C_19  and  C_24
   15  A    between atoms: C_21  and  N_29
   16  A    between atoms: C_22  and  C_23
   17  A    between atoms: C_23  and  O_38
   18  A    between atoms: N_29  and  C_33
   19  A    between atoms: C_36  and  C_40
                            x       y       z     vdW  Elec       q    Type
                         _______ _______ _______ _____ _____    ______ ____

>  <TORSDO>
F 19

$$$$
=
 OpenBabel11042415293D

 42 44  0  0  1  0  0  0  0  0999 V2000
  194.4990  174.8920  145.5210 C   0  0  0  0  0  0  0  0  0  0  0  0
  192.4520  173.7320  144.7810 C   0  0  0  0  0  0  0  0  0  0  0  0
  194.6740  172.7000  145.3860 N   0  0  0  0  0  0  0  0  0  0  0  0
  194.6930  177.3890  145.5620 C   0  0  0  0  0  1  0  0  0  0  0  0
  191.9600  172.6460  144.2520 N   0  0  0  0  0  0  0  0  0  0  0  0
  193.8440  173.7450  145.2370 C   0  0  0  0  0  0  0  0  0  0  0  0
  195.8380  173.2800  145.7750 C   0  0  0  0  0  3  0  0  0  0  0  0
  195.7700  174.6340  145.8590 N   0  0  0  0  0  2  0  0  0  0  0  0
  193.9070  176.1830  145.3570 N   0  0  0  0  0  0  0  0  0  0  0  0
  192.5370  176.2500  144.9110 C   0  0  0  0  0  0  0  0  0  0  0  0
  191.6500  175.0130  144.9400 C   0  0  2  0  0  3  0  0  0  0  0  0
  192.0460  177.3460  144.5290 O   0  0  0  0  0  0  0  0  0  0  0  0
  190.6350  171.3220  142.6980 C   0  0  0  0  0  2  0  0  0  0  0  0
  190.6110  172.4530  143.7150 C   0  0  1  0  0  0  0  0  0  0  0  0
  189.9480  171.8590  141.4470 C   0  0  1  0  0  3  0  0  0  0  0  0
  189.6220  172.1060  144.8140 C   0  0  0  0  0  1  0  0  0  0  0  0
  190.1490  173.6390  142.9360 C   0  0  0  0  0  3  0  0  0  0  0  0
  189.7890  173.3160  141.7050 C   0  0  0  0  0  3  0  0  0  0  0  0
  190.7700  171.6630  140.3360 O   0  0  0  0  0  0  0  0  0  0  0  0
  191.7930  170.8320  140.7900 C   0  0  0  0  0  2  0  0  0  0  0  0
  192.9900  170.9450  139.8670 C   0  0  0  0  0  2  0  0  0  0  0  0
  193.5590  172.2760  139.9790 N   0  0  0  0  0  2  0  0  0  0  0  0
  193.8320  172.5220  141.3870 C   0  0  0  0  0  2  0  0  0  0  0  0
  194.9910  173.5060  141.5620 C   0  0  0  0  0  2  0  0  0  0  0  0
  194.5410  174.9600  141.7270 C   0  0  2  0  0  3  0  0  0  0  0  0
  193.1480  175.0490  141.6690 O   0  0  0  0  0  1  0  0  0  0  0  0
  195.1870  175.8870  140.7000 C   0  0  2  0  0  3  0  0  0  0  0  0
  195.8590  175.1330  139.7370 O   0  0  0  0  0  1  0  0  0  0  0  0
  196.3440  176.4560  142.7100 O   0  0  0  0  0  1  0  0  0  0  0  0
  196.1710  176.8270  141.3770 C   0  0  0  0  0  2  0  0  0  0  0  0
  190.9010  174.9710  146.2620 C   0  0  0  0  0  2  0  0  0  0  0  0
  189.4350  175.3060  146.0510 C   0  0  0  0  0  2  0  0  0  0  0  0
  189.1920  176.7850  146.3060 C   0  0  2  0  0  3  0  0  0  0  0  0
  190.0550  177.2620  147.4590 C   0  0  0  0  0  1  0  0  0  0  0  0
  187.7140  177.0850  146.5620 C   0  0  0  0  0  2  0  0  0  0  0  0
  186.9970  177.5830  145.3130 C   0  0  0  0  0  2  0  0  0  0  0  0
  185.9100  176.7550  145.0300 O   0  0  0  0  0  0  0  0  0  0  0  0
  185.6700  176.9450  143.6690 C   0  0  0  0  0  2  0  0  0  0  0  0
  186.5590  176.0310  142.8420 C   0  0  0  0  0  2  0  0  0  0  0  0
  187.8080  176.0400  140.6880 O   0  0  0  0  0  0  0  0  0  0  0  0
  187.0110  176.7170  141.5990 C   0  0  0  0  0  0  0  0  0  0  0  0
  186.6580  177.9010  141.3640 O   0  0  0  0  0  1  0  0  0  0  0  0
  1  8  1  0  0  0  0
  2 11  1  0  0  0  0
  2  6  1  0  0  0  0
  3  7  2  0  0  0  0
  5  2  2  0  0  0  0
  6  3  1  0  0  0  0
  6  1  2  0  0  0  0
  7  8  1  0  0  0  0
  9  1  1  0  0  0  0
  9  4  1  0  0  0  0
 10 11  1  0  0  0  0
 10  9  1  0  0  0  0
 11 31  1  1  0  0  0
 12 10  2  0  0  0  0
 13 14  1  0  0  0  0
 14  5  1  0  0  0  0
 14 16  1  1  0  0  0
 15 19  1  6  0  0  0
 15 18  1  0  0  0  0
 15 13  1  0  0  0  0
 17 14  1  0  0  0  0
 18 17  2  0  0  0  0
 19 20  1  0  0  0  0
 21 22  1  0  0  0  0
 21 20  1  0  0  0  0
 22 23  1  0  0  0  0
 23 24  1  0  0  0  0
 24 25  1  0  0  0  0
 25 26  1  6  0  0  0
 27 28  1  6  0  0  0
 27 30  1  0  0  0  0
 27 25  1  0  0  0  0
 30 29  1  0  0  0  0
 32 31  1  0  0  0  0
 32 33  1  0  0  0  0
 33 35  1  0  0  0  0
 33 34  1  1  0  0  0
 36 35  1  0  0  0  0
 37 36  1  0  0  0  0
 38 37  1  0  0  0  0
 39 38  1  0  0  0  0
 40 41  2  0  0  0  0
 41 39  1  0  0  0  0
 42 41  1  0  0  0  0
M  END
>  <MODEL>
3

>  <REMARK>
 VINA RESULT:      -5.6      2.937      8.296
  Name = 
  19 active torsions:
  status: ('A' for Active; 'I' for Inactive)
    1  A    between atoms: C_2  and  N_13
    2  A    between atoms: C_3  and  C_16
    3  A    between atoms: C_3  and  C_22
    4  A    between atoms: C_4  and  O_34
    5  A    between atoms: C_6  and  C_25
    6  A    between atoms: C_6  and  C_31
    7  A    between atoms: C_8  and  C_24
    8  A    between atoms: C_8  and  O_38
    9  A    between atoms: C_15  and  C_25
   10  A    between atoms: C_15  and  C_33
   11  A    between atoms: C_16  and  C_40
   12  A    between atoms: C_17  and  C_21
   13  A    between atoms: C_17  and  O_34
   14  A    between atoms: C_19  and  C_24
   15  A    between atoms: C_21  and  N_29
   16  A    between atoms: C_22  and  C_23
   17  A    between atoms: C_23  and  O_38
   18  A    between atoms: N_29  and  C_33
   19  A    between atoms: C_36  and  C_40
                            x       y       z     vdW  Elec       q    Type
                         _______ _______ _______ _____ _____    ______ ____

>  <TORSDO>
F 19

$$$$
=
 OpenBabel11042415293D

 42 44  0  0  1  0  0  0  0  0999 V2000
  190.4040  176.4060  145.3560 C   0  0  0  0  0  0  0  0  0  0  0  0
  189.5890  174.6980  143.7740 C   0  0  0  0  0  0  0  0  0  0  0  0
  190.3520  174.3540  146.1550 N   0  0  0  0  0  0  0  0  0  0  0  0
  190.7930  178.7880  144.6860 C   0  0  0  0  0  1  0  0  0  0  0  0
  189.5690  173.4300  143.4740 N   0  0  0  0  0  0  0  0  0  0  0  0
  190.0860  175.1210  145.0850 C   0  0  0  0  0  0  0  0  0  0  0  0
  190.8310  175.2400  147.0640 C   0  0  0  0  0  3  0  0  0  0  0  0
  190.8870  176.5170  146.6020 N   0  0  0  0  0  2  0  0  0  0  0  0
  190.3260  177.4460  144.3780 N   0  0  0  0  0  0  0  0  0  0  0  0
  189.8430  177.1050  143.0620 C   0  0  0  0  0  0  0  0  0  0  0  0
  189.1280  175.7840  142.8160 C   0  0  2  0  0  3  0  0  0  0  0  0
  189.9730  177.9170  142.1080 O   0  0  0  0  0  0  0  0  0  0  0  0
  189.8080  171.4650  142.0570 C   0  0  0  0  0  2  0  0  0  0  0  0
  189.1390  172.8220  142.2120 C   0  0  1  0  0  0  0  0  0  0  0  0
  190.4310  171.4530  140.6650 C   0  0  1  0  0  3  0  0  0  0  0  0
  187.6330  172.6370  142.1720 C   0  0  0  0  0  1  0  0  0  0  0  0
  189.6120  173.6040  141.0320 C   0  0  0  0  0  3  0  0  0  0  0  0
  190.3140  172.8590  140.1920 C   0  0  0  0  0  3  0  0  0  0  0  0
  191.7770  171.0970  140.7540 O   0  0  0  0  0  0  0  0  0  0  0  0
  191.9680  170.7490  142.0910 C   0  0  0  0  0  2  0  0  0  0  0  0
  193.3410  171.2040  142.5450 C   0  0  0  0  0  2  0  0  0  0  0  0
  193.3860  171.2200  143.9960 N   0  0  0  0  0  2  0  0  0  0  0  0
  192.8990  172.5180  144.4380 C   0  0  0  0  0  2  0  0  0  0  0  0
  193.6840  173.6560  143.7830 C   0  0  0  0  0  2  0  0  0  0  0  0
  193.6580  174.9600  144.5860 C   0  0  2  0  0  3  0  0  0  0  0  0
  194.0230  176.0390  143.7770 O   0  0  0  0  0  1  0  0  0  0  0  0
  194.5410  174.8930  145.8300 C   0  0  2  0  0  3  0  0  0  0  0  0
  194.4260  176.0780  146.5590 O   0  0  0  0  0  1  0  0  0  0  0  0
  196.5000  173.5490  146.0740 O   0  0  0  0  0  1  0  0  0  0  0  0
  195.9950  174.6830  145.4400 C   0  0  0  0  0  2  0  0  0  0  0  0
  187.6310  175.9930  142.9810 C   0  0  0  0  0  2  0  0  0  0  0  0
  187.0050  176.4010  141.6590 C   0  0  0  0  0  2  0  0  0  0  0  0
  185.9510  177.4730  141.8870 C   0  0  2  0  0  3  0  0  0  0  0  0
  185.5130  178.0620  140.5580 C   0  0  0  0  0  1  0  0  0  0  0  0
  186.4420  178.5630  142.8390 C   0  0  0  0  0  2  0  0  0  0  0  0
  185.3060  179.1960  143.6350 C   0  0  0  0  0  2  0  0  0  0  0  0
  184.4870  178.1980  144.1660 O   0  0  0  0  0  0  0  0  0  0  0  0
  184.7970  178.1800  145.5260 C   0  0  0  0  0  2  0  0  0  0  0  0
  185.3500  176.8220  145.9250 C   0  0  0  0  0  2  0  0  0  0  0  0
  185.9920  177.8030  148.1210 O   0  0  0  0  0  1  0  0  0  0  0  0
  186.2960  176.9530  147.0690 C   0  0  0  0  0  0  0  0  0  0  0  0
  187.3600  176.2810  147.0930 O   0  0  0  0  0  0  0  0  0  0  0  0
  1  8  1  0  0  0  0
  2  6  1  0  0  0  0
  3  7  2  0  0  0  0
  5  2  2  0  0  0  0
  6  1  2  0  0  0  0
  6  3  1  0  0  0  0
  8  7  1  0  0  0  0
  9  4  1  0  0  0  0
  9  1  1  0  0  0  0
 10  9  1  0  0  0  0
 11 31  1  1  0  0  0
 11 10  1  0  0  0  0
 11  2  1  0  0  0  0
 12 10  2  0  0  0  0
 13 14  1  0  0  0  0
 14 16  1  6  0  0  0
 14  5  1  0  0  0  0
 15 19  1  1  0  0  0
 15 13  1  0  0  0  0
 17 14  1  0  0  0  0
 18 15  1  0  0  0  0
 18 17  2  0  0  0  0
 19 20  1  0  0  0  0
 20 21  1  0  0  0  0
 21 22  1  0  0  0  0
 22 23  1  0  0  0  0
 24 23  1  0  0  0  0
 24 25  1  0  0  0  0
 25 26  1  6  0  0  0
 25 27  1  0  0  0  0
 27 28  1  6  0  0  0
 30 27  1  0  0  0  0
 30 29  1  0  0  0  0
 32 33  1  0  0  0  0
 32 31  1  0  0  0  0
 33 34  1  6  0  0  0
 33 35  1  0  0  0  0
 35 36  1  0  0  0  0
 36 37  1  0  0  0  0
 37 38  1  0  0  0  0
 38 39  1  0  0  0  0
 39 41  1  0  0  0  0
 41 42  2  0  0  0  0
 41 40  1  0  0  0  0
M  END
>  <MODEL>
4

>  <REMARK>
 VINA RESULT:      -5.6      2.339      8.814
  Name = 
  19 active torsions:
  status: ('A' for Active; 'I' for Inactive)
    1  A    between atoms: C_2  and  N_13
    2  A    between atoms: C_3  and  C_16
    3  A    between atoms: C_3  and  C_22
    4  A    between atoms: C_4  and  O_34
    5  A    between atoms: C_6  and  C_25
    6  A    between atoms: C_6  and  C_31
    7  A    between atoms: C_8  and  C_24
    8  A    between atoms: C_8  and  O_38
    9  A    between atoms: C_15  and  C_25
   10  A    between atoms: C_15  and  C_33
   11  A    between atoms: C_16  and  C_40
   12  A    between atoms: C_17  and  C_21
   13  A    between atoms: C_17  and  O_34
   14  A    between atoms: C_19  and  C_24
   15  A    between atoms: C_21  and  N_29
   16  A    between atoms: C_22  and  C_23
   17  A    between atoms: C_23  and  O_38
   18  A    between atoms: N_29  and  C_33
   19  A    between atoms: C_36  and  C_40
                            x       y       z     vdW  Elec       q    Type
                         _______ _______ _______ _____ _____    ______ ____

>  <TORSDO>
F 19

$$$$
=
 OpenBabel11042415293D

 42 44  0  0  1  0  0  0  0  0999 V2000
  189.7120  176.0070  142.9200 C   0  0  0  0  0  0  0  0  0  0  0  0
  191.8740  175.9990  144.1080 C   0  0  0  0  0  0  0  0  0  0  0  0
  190.7620  177.9430  142.9460 N   0  0  0  0  0  0  0  0  0  0  0  0
  188.3850  173.9200  142.5210 C   0  0  0  0  0  1  0  0  0  0  0  0
  193.0240  176.5940  144.2560 N   0  0  0  0  0  0  0  0  0  0  0  0
  190.8080  176.6660  143.3560 C   0  0  1  0  0  3  0  0  0  0  0  0
  189.5940  178.0080  142.2580 C   0  0  0  0  0  3  0  0  0  0  0  0
  188.9230  176.8280  142.2120 N   0  0  0  0  0  0  0  0  0  0  0  0
  189.5240  174.6030  143.1130 N   0  0  0  0  0  0  0  0  0  0  0  0
  190.5330  173.8770  143.8470 C   0  0  0  0  0  0  0  0  0  0  0  0
  191.5760  174.6180  144.6700 C   0  0  2  0  0  3  0  0  0  0  0  0
  190.5360  172.6180  143.8450 O   0  0  0  0  0  0  0  0  0  0  0  0
  195.4540  176.7130  144.3420 C   0  0  0  0  0  2  0  0  0  0  0  0
  194.2100  176.0770  144.9430 C   0  0  1  0  0  0  0  0  0  0  0  0
  196.4040  175.5660  144.0150 C   0  0  1  0  0  3  0  0  0  0  0  0
  194.1680  176.3860  146.4290 C   0  0  0  0  0  1  0  0  0  0  0  0
  194.3930  174.6140  144.7070 C   0  0  0  0  0  3  0  0  0  0  0  0
  195.5840  174.3380  144.2030 C   0  0  0  0  0  3  0  0  0  0  0  0
  196.8150  175.6580  142.6850 O   0  0  0  0  0  0  0  0  0  0  0  0
  197.0800  174.3440  142.3000 C   0  0  0  0  0  2  0  0  0  0  0  0
  197.9410  174.3420  141.0530 C   0  0  0  0  0  2  0  0  0  0  0  0
  197.1470  173.8980  139.9210 N   0  0  0  0  0  2  0  0  0  0  0  0
  196.8720  175.0600  139.0900 C   0  0  0  0  0  2  0  0  0  0  0  0
  195.3810  175.1660  138.7620 C   0  0  0  0  0  2  0  0  0  0  0  0
  194.5490  174.0030  139.3120 C   0  0  2  0  0  3  0  0  0  0  0  0
  194.0030  173.2570  138.2650 O   0  0  0  0  0  1  0  0  0  0  0  0
  193.4580  174.4740  140.2700 C   0  0  2  0  0  3  0  0  0  0  0  0
  193.9450  175.5040  141.0770 O   0  0  0  0  0  1  0  0  0  0  0  0
  191.7290  172.8970  140.7460 O   0  0  0  0  0  1  0  0  0  0  0  0
  192.9920  173.3260  141.1510 C   0  0  0  0  0  2  0  0  0  0  0  0
  191.0710  174.7610  146.0980 C   0  0  0  0  0  2  0  0  0  0  0  0
  190.4700  176.1390  146.3120 C   0  0  0  0  0  2  0  0  0  0  0  0
  189.0960  176.0180  146.9520 C   0  0  2  0  0  3  0  0  0  0  0  0
  188.9030  174.6200  147.5100 C   0  0  0  0  0  1  0  0  0  0  0  0
  187.9770  176.3820  145.9760 C   0  0  0  0  0  2  0  0  0  0  0  0
  186.6640  176.6920  146.6850 C   0  0  0  0  0  2  0  0  0  0  0  0
  185.7520  177.2330  145.7770 O   0  0  0  0  0  0  0  0  0  0  0  0
  186.1370  178.5670  145.6470 C   0  0  0  0  0  2  0  0  0  0  0  0
  185.1740  179.3100  144.7360 C   0  0  0  0  0  2  0  0  0  0  0  0
  184.1690  178.0160  142.8610 O   0  0  0  0  0  1  0  0  0  0  0  0
  185.2300  178.7620  143.3510 C   0  0  0  0  0  0  0  0  0  0  0  0
  186.2270  178.9890  142.6190 O   0  0  0  0  0  0  0  0  0  0  0  0
  1  9  1  0  0  0  0
  2  5  2  0  0  0  0
  2 11  1  0  0  0  0
  3  6  1  0  0  0  0
  4  9  1  0  0  0  0
  5 14  1  0  0  0  0
  6  1  1  6  0  0  0
  6  2  1  0  0  0  0
  7  3  2  0  0  0  0
  8  7  1  0  0  0  0
  8  1  2  0  0  0  0
  9 10  1  0  0  0  0
 10 11  1  0  0  0  0
 11 31  1  1  0  0  0
 12 10  2  0  0  0  0
 13 14  1  0  0  0  0
 14 16  1  1  0  0  0
 15 19  1  6  0  0  0
 15 18  1  0  0  0  0
 15 13  1  0  0  0  0
 17 14  1  0  0  0  0
 18 17  2  0  0  0  0
 20 19  1  0  0  0  0
 21 20  1  0  0  0  0
 22 21  1  0  0  0  0
 23 22  1  0  0  0  0
 24 23  1  0  0  0  0
 24 25  1  0  0  0  0
 25 26  1  6  0  0  0
 25 27  1  0  0  0  0
 27 28  1  1  0  0  0
 27 30  1  0  0  0  0
 29 30  1  0  0  0  0
 31 32  1  0  0  0  0
 32 33  1  0  0  0  0
 33 34  1  6  0  0  0
 35 36  1  0  0  0  0
 35 33  1  0  0  0  0
 37 36  1  0  0  0  0
 38 37  1  0  0  0  0
 39 38  1  0  0  0  0
 40 41  1  0  0  0  0
 41 39  1  0  0  0  0
 42 41  2  0  0  0  0
M  END
>  <MODEL>
5

>  <REMARK>
 VINA RESULT:      -5.4      2.759      8.893
  Name = 
  19 active torsions:
  status: ('A' for Active; 'I' for Inactive)
    1  A    between atoms: C_2  and  N_13
    2  A    between atoms: C_3  and  C_16
    3  A    between atoms: C_3  and  C_22
    4  A    between atoms: C_4  and  O_34
    5  A    between atoms: C_6  and  C_25
    6  A    between atoms: C_6  and  C_31
    7  A    between atoms: C_8  and  C_24
    8  A    between atoms: C_8  and  O_38
    9  A    between atoms: C_15  and  C_25
   10  A    between atoms: C_15  and  C_33
   11  A    between atoms: C_16  and  C_40
   12  A    between atoms: C_17  and  C_21
   13  A    between atoms: C_17  and  O_34
   14  A    between atoms: C_19  and  C_24
   15  A    between atoms: C_21  and  N_29
   16  A    between atoms: C_22  and  C_23
   17  A    between atoms: C_23  and  O_38
   18  A    between atoms: N_29  and  C_33
   19  A    between atoms: C_36  and  C_40
                            x       y       z     vdW  Elec       q    Type
                         _______ _______ _______ _____ _____    ______ ____

>  <TORSDO>
F 19

$$$$
=
 OpenBabel11042415293D

 42 44  0  0  1  0  0  0  0  0999 V2000
  190.6550  176.8260  144.7820 C   0  0  0  0  0  0  0  0  0  0  0  0
  191.3250  174.9170  143.3720 C   0  0  0  0  0  0  0  0  0  0  0  0
  191.5290  177.3750  142.8360 N   0  0  0  0  0  0  0  0  0  0  0  0
  189.4320  176.5380  146.9490 C   0  0  0  0  0  1  0  0  0  0  0  0
  191.5880  174.5120  142.1610 N   0  0  0  0  0  0  0  0  0  0  0  0
  191.2020  176.3510  143.6410 C   0  0  0  0  0  0  0  0  0  0  0  0
  191.1610  178.4660  143.5530 C   0  0  0  0  0  3  0  0  0  0  0  0
  190.6080  178.1660  144.7570 N   0  0  0  0  0  2  0  0  0  0  0  0
  190.1150  175.9750  145.7950 N   0  0  0  0  0  0  0  0  0  0  0  0
  190.2020  174.5480  145.6010 C   0  0  0  0  0  0  0  0  0  0  0  0
  191.1230  173.9650  144.5390 C   0  0  2  0  0  3  0  0  0  0  0  0
  189.5430  173.7650  146.3360 O   0  0  0  0  0  0  0  0  0  0  0  0
  191.3140  173.0540  140.2300 C   0  0  0  0  0  2  0  0  0  0  0  0
  191.7170  173.1290  141.6950 C   0  0  1  0  0  0  0  0  0  0  0  0
  190.3070  171.9150  140.1230 C   0  0  1  0  0  3  0  0  0  0  0  0
  193.1430  172.6270  141.8400 C   0  0  0  0  0  1  0  0  0  0  0  0
  190.7580  172.2190  142.3880 C   0  0  0  0  0  3  0  0  0  0  0  0
  189.9930  171.5600  141.5340 C   0  0  0  0  0  3  0  0  0  0  0  0
  189.1520  172.3650  139.4820 O   0  0  0  0  0  0  0  0  0  0  0  0
  189.3750  173.7220  139.2540 C   0  0  0  0  0  2  0  0  0  0  0  0
  188.1850  174.5240  139.7430 C   0  0  0  0  0  2  0  0  0  0  0  0
  188.3410  174.8000  141.1600 N   0  0  0  0  0  2  0  0  0  0  0  0
  188.0270  176.2040  141.3740 C   0  0  0  0  0  2  0  0  0  0  0  0
  187.2530  176.4050  142.6790 C   0  0  0  0  0  2  0  0  0  0  0  0
  187.2080  177.8630  143.1460 C   0  0  2  0  0  3  0  0  0  0  0  0
  187.3050  177.9320  144.5380 O   0  0  0  0  0  1  0  0  0  0  0  0
  185.9610  178.5920  142.6520 C   0  0  2  0  0  3  0  0  0  0  0  0
  185.6820  179.6750  143.4870 O   0  0  0  0  0  1  0  0  0  0  0  0
  183.6190  178.3440  142.2570 O   0  0  0  0  0  1  0  0  0  0  0  0
  184.7670  177.6500  142.6360 C   0  0  0  0  0  2  0  0  0  0  0  0
  192.4720  173.6560  145.1690 C   0  0  0  0  0  2  0  0  0  0  0  0
  193.4790  174.7380  144.8210 C   0  0  0  0  0  2  0  0  0  0  0  0
  194.2830  175.1230  146.0530 C   0  0  2  0  0  3  0  0  0  0  0  0
  194.2390  176.6260  146.2550 C   0  0  0  0  0  1  0  0  0  0  0  0
  195.7250  174.6190  145.9750 C   0  0  0  0  0  2  0  0  0  0  0  0
  196.1740  174.3620  144.5410 C   0  0  0  0  0  2  0  0  0  0  0  0
  197.1130  175.3220  144.1600 O   0  0  0  0  0  0  0  0  0  0  0  0
  197.2940  175.1110  142.7930 C   0  0  0  0  0  2  0  0  0  0  0  0
  195.9730  174.7560  142.1330 C   0  0  0  0  0  2  0  0  0  0  0  0
  196.0460  177.0970  141.2880 O   0  0  0  0  0  1  0  0  0  0  0  0
  195.5810  175.7980  141.1420 C   0  0  0  0  0  0  0  0  0  0  0  0
  194.8470  175.5020  140.1650 O   0  0  0  0  0  0  0  0  0  0  0  0
  1  9  1  0  0  0  0
  2  6  1  0  0  0  0
  2 11  1  0  0  0  0
  3  7  2  0  0  0  0
  3  6  1  0  0  0  0
  5  2  2  0  0  0  0
  6  1  2  0  0  0  0
  7  8  1  0  0  0  0
  8  1  1  0  0  0  0
  9  4  1  0  0  0  0
 10  9  1  0  0  0  0
 10 12  2  0  0  0  0
 11 31  1  1  0  0  0
 11 10  1  0  0  0  0
 13 14  1  0  0  0  0
 14 16  1  1  0  0  0
 14  5  1  0  0  0  0
 14 17  1  0  0  0  0
 15 19  1  6  0  0  0
 15 13  1  0  0  0  0
 15 18  1  0  0  0  0
 18 17  2  0  0  0  0
 20 19  1  0  0  0  0
 20 21  1  0  0  0  0
 21 22  1  0  0  0  0
 22 23  1  0  0  0  0
 23 24  1  0  0  0  0
 24 25  1  0  0  0  0
 25 26  1  1  0  0  0
 27 25  1  0  0  0  0
 27 28  1  1  0  0  0
 29 30  1  0  0  0  0
 30 27  1  0  0  0  0
 32 31  1  0  0  0  0
 32 33  1  0  0  0  0
 33 34  1  6  0  0  0
 35 33  1  0  0  0  0
 36 35  1  0  0  0  0
 37 36  1  0  0  0  0
 38 37  1  0  0  0  0
 39 38  1  0  0  0  0
 41 40  1  0  0  0  0
 41 39  1  0  0  0  0
 42 41  2  0  0  0  0
M  END
>  <MODEL>
6

>  <REMARK>
 VINA RESULT:      -5.4      2.706      5.570
  Name = 
  19 active torsions:
  status: ('A' for Active; 'I' for Inactive)
    1  A    between atoms: C_2  and  N_13
    2  A    between atoms: C_3  and  C_16
    3  A    between atoms: C_3  and  C_22
    4  A    between atoms: C_4  and  O_34
    5  A    between atoms: C_6  and  C_25
    6  A    between atoms: C_6  and  C_31
    7  A    between atoms: C_8  and  C_24
    8  A    between atoms: C_8  and  O_38
    9  A    between atoms: C_15  and  C_25
   10  A    between atoms: C_15  and  C_33
   11  A    between atoms: C_16  and  C_40
   12  A    between atoms: C_17  and  C_21
   13  A    between atoms: C_17  and  O_34
   14  A    between atoms: C_19  and  C_24
   15  A    between atoms: C_21  and  N_29
   16  A    between atoms: C_22  and  C_23
   17  A    between atoms: C_23  and  O_38
   18  A    between atoms: N_29  and  C_33
   19  A    between atoms: C_36  and  C_40
                            x       y       z     vdW  Elec       q    Type
                         _______ _______ _______ _____ _____    ______ ____

>  <TORSDO>
F 19

$$$$
=
 OpenBabel11042415293D

 42 44  0  0  1  0  0  0  0  0999 V2000
  196.5830  174.7450  144.2630 C   0  0  0  0  0  0  0  0  0  0  0  0
  194.2650  174.0100  143.8470 C   0  0  0  0  0  0  0  0  0  0  0  0
  195.9100  173.0550  145.5070 N   0  0  0  0  0  0  0  0  0  0  0  0
  197.7160  176.4870  142.8650 C   0  0  0  0  0  1  0  0  0  0  0  0
  193.4080  173.0340  143.9590 N   0  0  0  0  0  0  0  0  0  0  0  0
  195.5450  173.9290  144.5550 C   0  0  0  0  0  0  0  0  0  0  0  0
  197.1980  173.3950  145.7660 C   0  0  0  0  0  3  0  0  0  0  0  0
  197.6510  174.4290  145.0100 N   0  0  0  0  0  2  0  0  0  0  0  0
  196.5340  175.7170  143.2160 N   0  0  0  0  0  0  0  0  0  0  0  0
  195.3030  175.8560  142.4760 C   0  0  0  0  0  0  0  0  0  0  0  0
  194.0110  175.2430  142.9960 C   0  0  2  0  0  3  0  0  0  0  0  0
  195.2780  176.5200  141.4060 O   0  0  0  0  0  0  0  0  0  0  0  0
  191.1250  173.8810  143.9760 C   0  0  0  0  0  2  0  0  0  0  0  0
  192.1000  172.9220  143.3090 C   0  0  1  0  0  0  0  0  0  0  0  0
  189.8840  173.0620  144.3130 C   0  0  1  0  0  3  0  0  0  0  0  0
  192.1870  173.2580  141.8300 C   0  0  0  0  0  1  0  0  0  0  0  0
  191.4920  171.5750  143.5150 C   0  0  0  0  0  3  0  0  0  0  0  0
  190.2880  171.6520  144.0600 C   0  0  0  0  0  3  0  0  0  0  0  0
  189.5620  173.2250  145.6600 O   0  0  0  0  0  0  0  0  0  0  0  0
  189.4990  174.6050  145.8480 C   0  0  0  0  0  2  0  0  0  0  0  0
  189.1150  174.9080  147.2830 C   0  0  0  0  0  2  0  0  0  0  0  0
  188.6760  176.2880  147.3820 N   0  0  0  0  0  2  0  0  0  0  0  0
  187.4320  176.4110  146.6380 C   0  0  0  0  0  2  0  0  0  0  0  0
  187.4560  177.6360  145.7200 C   0  0  0  0  0  2  0  0  0  0  0  0
  186.0660  178.2080  145.4270 C   0  0  2  0  0  3  0  0  0  0  0  0
  185.0750  177.2900  145.7840 O   0  0  0  0  0  1  0  0  0  0  0  0
  185.9100  178.6350  143.9700 C   0  0  2  0  0  3  0  0  0  0  0  0
  185.1830  179.8240  143.8980 O   0  0  0  0  0  1  0  0  0  0  0  0
  183.9860  178.0570  142.6790 O   0  0  0  0  0  1  0  0  0  0  0  0
  185.1900  177.5580  143.1740 C   0  0  0  0  0  2  0  0  0  0  0  0
  193.2730  176.2790  143.8290 C   0  0  0  0  0  2  0  0  0  0  0  0
  192.1870  176.9460  143.0030 C   0  0  0  0  0  2  0  0  0  0  0  0
  191.3410  177.8530  143.8830 C   0  0  2  0  0  3  0  0  0  0  0  0
  191.3750  177.3640  145.3190 C   0  0  0  0  0  1  0  0  0  0  0  0
  189.9040  177.9660  143.3720 C   0  0  0  0  0  2  0  0  0  0  0  0
  189.5840  176.9310  142.3010 C   0  0  0  0  0  2  0  0  0  0  0  0
  188.3890  176.2800  142.6140 O   0  0  0  0  0  0  0  0  0  0  0  0
  188.0130  175.6500  141.4280 C   0  0  0  0  0  2  0  0  0  0  0  0
  188.9460  174.4890  141.1260 C   0  0  0  0  0  2  0  0  0  0  0  0
  187.5910  172.4920  141.7400 O   0  0  0  0  0  1  0  0  0  0  0  0
  188.1700  173.2730  140.7510 C   0  0  0  0  0  0  0  0  0  0  0  0
  188.0210  172.9630  139.5410 O   0  0  0  0  0  0  0  0  0  0  0  0
  1  6  2  0  0  0  0
  1  8  1  0  0  0  0
  2  5  2  0  0  0  0
  2  6  1  0  0  0  0
  3  7  2  0  0  0  0
  4  9  1  0  0  0  0
  6  3  1  0  0  0  0
  8  7  1  0  0  0  0
  9  1  1  0  0  0  0
 10 11  1  0  0  0  0
 10  9  1  0  0  0  0
 11 31  1  1  0  0  0
 11  2  1  0  0  0  0
 12 10  2  0  0  0  0
 13 15  1  0  0  0  0
 14 16  1  6  0  0  0
 14 17  1  0  0  0  0
 14  5  1  0  0  0  0
 14 13  1  0  0  0  0
 15 19  1  1  0  0  0
 17 18  2  0  0  0  0
 18 15  1  0  0  0  0
 19 20  1  0  0  0  0
 20 21  1  0  0  0  0
 21 22  1  0  0  0  0
 23 22  1  0  0  0  0
 24 23  1  0  0  0  0
 25 24  1  0  0  0  0
 25 26  1  6  0  0  0
 27 28  1  1  0  0  0
 27 25  1  0  0  0  0
 29 30  1  0  0  0  0
 30 27  1  0  0  0  0
 32 31  1  0  0  0  0
 32 33  1  0  0  0  0
 33 34  1  1  0  0  0
 35 33  1  0  0  0  0
 36 37  1  0  0  0  0
 36 35  1  0  0  0  0
 38 37  1  0  0  0  0
 39 38  1  0  0  0  0
 41 39  1  0  0  0  0
 41 40  1  0  0  0  0
 42 41  2  0  0  0  0
M  END
>  <MODEL>
7

>  <REMARK>
 VINA RESULT:      -5.4      2.894      6.240
  Name = 
  19 active torsions:
  status: ('A' for Active; 'I' for Inactive)
    1  A    between atoms: C_2  and  N_13
    2  A    between atoms: C_3  and  C_16
    3  A    between atoms: C_3  and  C_22
    4  A    between atoms: C_4  and  O_34
    5  A    between atoms: C_6  and  C_25
    6  A    between atoms: C_6  and  C_31
    7  A    between atoms: C_8  and  C_24
    8  A    between atoms: C_8  and  O_38
    9  A    between atoms: C_15  and  C_25
   10  A    between atoms: C_15  and  C_33
   11  A    between atoms: C_16  and  C_40
   12  A    between atoms: C_17  and  C_21
   13  A    between atoms: C_17  and  O_34
   14  A    between atoms: C_19  and  C_24
   15  A    between atoms: C_21  and  N_29
   16  A    between atoms: C_22  and  C_23
   17  A    between atoms: C_23  and  O_38
   18  A    between atoms: N_29  and  C_33
   19  A    between atoms: C_36  and  C_40
                            x       y       z     vdW  Elec       q    Type
                         _______ _______ _______ _____ _____    ______ ____

>  <TORSDO>
F 19

$$$$
=
 OpenBabel11042415293D

 42 44  0  0  1  0  0  0  0  0999 V2000
  189.6360  175.8740  145.7150 C   0  0  0  0  0  0  0  0  0  0  0  0
  190.1830  174.0580  144.1380 C   0  0  0  0  0  0  0  0  0  0  0  0
  189.3330  173.8400  146.5040 N   0  0  0  0  0  0  0  0  0  0  0  0
  190.0810  178.2850  145.2020 C   0  0  0  0  0  1  0  0  0  0  0  0
  190.4990  172.8000  144.0120 N   0  0  0  0  0  0  0  0  0  0  0  0
  189.7050  174.5550  145.4300 C   0  0  0  0  0  0  0  0  0  0  0  0
  189.0390  174.7910  147.4260 C   0  0  0  0  0  3  0  0  0  0  0  0
  189.2230  176.0600  146.9770 N   0  0  0  0  0  2  0  0  0  0  0  0
  190.0650  176.8870  144.8020 N   0  0  0  0  0  0  0  0  0  0  0  0
  190.5470  176.4740  143.5070 C   0  0  0  0  0  0  0  0  0  0  0  0
  190.2980  175.0600  143.0010 C   0  0  2  0  0  3  0  0  0  0  0  0
  191.1480  177.2930  142.7630 O   0  0  0  0  0  0  0  0  0  0  0  0
  191.9500  171.0040  143.2400 C   0  0  0  0  0  2  0  0  0  0  0  0
  191.0200  172.1310  142.8170 C   0  0  1  0  0  0  0  0  0  0  0  0
  193.2370  171.1920  142.4440 C   0  0  1  0  0  3  0  0  0  0  0  0
  189.8980  171.5530  141.9720 C   0  0  0  0  0  1  0  0  0  0  0  0
  191.8850  173.0380  142.0060 C   0  0  0  0  0  3  0  0  0  0  0  0
  193.0890  172.5270  141.8040 C   0  0  0  0  0  3  0  0  0  0  0  0
  194.3300  171.2040  143.3110 O   0  0  0  0  0  0  0  0  0  0  0  0
  193.7990  170.8890  144.5610 C   0  0  0  0  0  2  0  0  0  0  0  0
  194.7750  171.2950  145.6470 C   0  0  0  0  0  2  0  0  0  0  0  0
  196.0260  171.7120  145.0380 N   0  0  0  0  0  2  0  0  0  0  0  0
  196.6980  172.6020  145.9710 C   0  0  0  0  0  2  0  0  0  0  0  0
  196.2600  174.0540  145.7640 C   0  0  0  0  0  2  0  0  0  0  0  0
  196.1660  174.4600  144.2900 C   0  0  2  0  0  3  0  0  0  0  0  0
  197.3060  175.1700  143.9060 O   0  0  0  0  0  1  0  0  0  0  0  0
  194.9010  175.2610  143.9890 C   0  0  2  0  0  3  0  0  0  0  0  0
  195.1200  176.6130  144.2580 O   0  0  0  0  0  1  0  0  0  0  0  0
  193.2460  175.8020  145.6230 O   0  0  0  0  0  1  0  0  0  0  0  0
  193.7420  174.7630  144.8370 C   0  0  0  0  0  2  0  0  0  0  0  0
  189.0110  175.0440  142.1910 C   0  0  0  0  0  2  0  0  0  0  0  0
  187.9090  175.7810  142.9330 C   0  0  0  0  0  2  0  0  0  0  0  0
  187.1230  176.6570  141.9700 C   0  0  2  0  0  3  0  0  0  0  0  0
  187.9570  177.8580  141.5620 C   0  0  0  0  0  1  0  0  0  0  0  0
  185.7810  177.0920  142.5590 C   0  0  0  0  0  2  0  0  0  0  0  0
  185.6230  178.6080  142.5930 C   0  0  0  0  0  2  0  0  0  0  0  0
  184.9380  178.9870  143.7480 O   0  0  0  0  0  0  0  0  0  0  0  0
  185.9370  179.1610  144.7060 C   0  0  0  0  0  2  0  0  0  0  0  0
  185.3570  179.0360  146.1050 C   0  0  0  0  0  2  0  0  0  0  0  0
  186.0380  176.6450  145.9550 O   0  0  0  0  0  0  0  0  0  0  0  0
  185.7870  177.7600  146.7420 C   0  0  0  0  0  0  0  0  0  0  0  0
  185.9420  177.6930  147.9890 O   0  0  0  0  0  1  0  0  0  0  0  0
  1  8  1  0  0  0  0
  2  6  1  0  0  0  0
  3  7  2  0  0  0  0
  5  2  2  0  0  0  0
  6  1  2  0  0  0  0
  6  3  1  0  0  0  0
  8  7  1  0  0  0  0
  9  4  1  0  0  0  0
  9  1  1  0  0  0  0
 10  9  1  0  0  0  0
 11 31  1  1  0  0  0
 11 10  1  0  0  0  0
 11  2  1  0  0  0  0
 12 10  2  0  0  0  0
 14 16  1  6  0  0  0
 14 13  1  0  0  0  0
 14  5  1  0  0  0  0
 15 13  1  0  0  0  0
 15 19  1  1  0  0  0
 17 14  1  0  0  0  0
 18 17  2  0  0  0  0
 18 15  1  0  0  0  0
 19 20  1  0  0  0  0
 20 21  1  0  0  0  0
 22 21  1  0  0  0  0
 22 23  1  0  0  0  0
 24 23  1  0  0  0  0
 25 26  1  1  0  0  0
 25 24  1  0  0  0  0
 27 28  1  1  0  0  0
 27 25  1  0  0  0  0
 27 30  1  0  0  0  0
 30 29  1  0  0  0  0
 31 32  1  0  0  0  0
 33 34  1  1  0  0  0
 33 35  1  0  0  0  0
 33 32  1  0  0  0  0
 35 36  1  0  0  0  0
 36 37  1  0  0  0  0
 37 38  1  0  0  0  0
 38 39  1  0  0  0  0
 39 41  1  0  0  0  0
 40 41  2  0  0  0  0
 41 42  1  0  0  0  0
M  END
>  <MODEL>
8

>  <REMARK>
 VINA RESULT:      -5.3      2.188      9.073
  Name = 
  19 active torsions:
  status: ('A' for Active; 'I' for Inactive)
    1  A    between atoms: C_2  and  N_13
    2  A    between atoms: C_3  and  C_16
    3  A    between atoms: C_3  and  C_22
    4  A    between atoms: C_4  and  O_34
    5  A    between atoms: C_6  and  C_25
    6  A    between atoms: C_6  and  C_31
    7  A    between atoms: C_8  and  C_24
    8  A    between atoms: C_8  and  O_38
    9  A    between atoms: C_15  and  C_25
   10  A    between atoms: C_15  and  C_33
   11  A    between atoms: C_16  and  C_40
   12  A    between atoms: C_17  and  C_21
   13  A    between atoms: C_17  and  O_34
   14  A    between atoms: C_19  and  C_24
   15  A    between atoms: C_21  and  N_29
   16  A    between atoms: C_22  and  C_23
   17  A    between atoms: C_23  and  O_38
   18  A    between atoms: N_29  and  C_33
   19  A    between atoms: C_36  and  C_40
                            x       y       z     vdW  Elec       q    Type
                         _______ _______ _______ _____ _____    ______ ____

>  <TORSDO>
F 19

$$$$
=
 OpenBabel11042415293D

 42 44  0  0  1  0  0  0  0  0999 V2000
  186.5720  177.7430  145.2710 C   0  0  0  0  0  0  0  0  0  0  0  0
  188.4850  176.2190  144.9540 C   0  0  0  0  0  0  0  0  0  0  0  0
  187.1160  176.5580  147.0470 N   0  0  0  0  0  0  0  0  0  0  0  0
  185.8480  179.3810  143.5200 C   0  0  0  0  0  1  0  0  0  0  0  0
  189.4280  175.5370  145.5420 N   0  0  0  0  0  0  0  0  0  0  0  0
  187.4070  176.7990  145.7580 C   0  0  0  0  0  0  0  0  0  0  0  0
  186.0730  177.3910  147.2920 C   0  0  0  0  0  3  0  0  0  0  0  0
  185.7160  178.1470  146.2210 N   0  0  0  0  0  2  0  0  0  0  0  0
  186.6980  178.2840  143.9540 N   0  0  0  0  0  0  0  0  0  0  0  0
  187.7370  177.7600  143.1010 C   0  0  0  0  0  0  0  0  0  0  0  0
  188.4490  176.4620  143.4540 C   0  0  2  0  0  3  0  0  0  0  0  0
  188.0410  178.3540  142.0330 O   0  0  0  0  0  0  0  0  0  0  0  0
  191.7700  174.9620  145.8800 C   0  0  0  0  0  2  0  0  0  0  0  0
  190.5950  174.9130  144.9140 C   0  0  1  0  0  0  0  0  0  0  0  0
  192.9410  175.5450  145.0970 C   0  0  1  0  0  3  0  0  0  0  0  0
  190.3190  173.4650  144.5480 C   0  0  0  0  0  1  0  0  0  0  0  0
  191.0640  175.6840  143.7250 C   0  0  0  0  0  3  0  0  0  0  0  0
  192.3380  176.0260  143.8250 C   0  0  0  0  0  3  0  0  0  0  0  0
  193.4870  176.6210  145.7970 O   0  0  0  0  0  0  0  0  0  0  0  0
  194.8670  176.4720  145.6630 C   0  0  0  0  0  2  0  0  0  0  0  0
  195.1970  175.0220  145.3720 C   0  0  0  0  0  2  0  0  0  0  0  0
  196.3970  174.9560  144.5580 N   0  0  0  0  0  2  0  0  0  0  0  0
  197.3800  174.1630  145.2820 C   0  0  0  0  0  2  0  0  0  0  0  0
  196.7020  173.0900  146.1370 C   0  0  0  0  0  2  0  0  0  0  0  0
  197.0430  171.6590  145.7080 C   0  0  2  0  0  3  0  0  0  0  0  0
  197.8950  171.6730  144.6010 O   0  0  0  0  0  1  0  0  0  0  0  0
  195.7950  170.8270  145.4230 C   0  0  2  0  0  3  0  0  0  0  0  0
  194.6530  171.5480  145.7750 O   0  0  0  0  0  1  0  0  0  0  0  0
  194.5610  168.9530  146.2390 O   0  0  0  0  0  1  0  0  0  0  0  0
  195.8310  169.5280  146.2130 C   0  0  0  0  0  2  0  0  0  0  0  0
  187.7310  175.3050  142.7790 C   0  0  0  0  0  2  0  0  0  0  0  0
  188.0610  175.2680  141.2970 C   0  0  0  0  0  2  0  0  0  0  0  0
  188.5080  173.8720  140.8930 C   0  0  2  0  0  3  0  0  0  0  0  0
  187.9840  172.8510  141.8850 C   0  0  0  0  0  1  0  0  0  0  0  0
  190.0280  173.7770  140.7540 C   0  0  0  0  0  2  0  0  0  0  0  0
  190.5340  172.3430  140.8620 C   0  0  0  0  0  2  0  0  0  0  0  0
  191.9290  172.3350  140.9010 O   0  0  0  0  0  0  0  0  0  0  0  0
  192.3020  173.5300  140.2860 C   0  0  0  0  0  2  0  0  0  0  0  0
  193.7380  173.4460  139.7940 C   0  0  0  0  0  2  0  0  0  0  0  0
  195.4120  173.9740  141.5600 O   0  0  0  0  0  1  0  0  0  0  0  0
  194.6030  174.4150  140.5240 C   0  0  0  0  0  0  0  0  0  0  0  0
  194.6170  175.6290  140.1920 O   0  0  0  0  0  0  0  0  0  0  0  0
  1  6  2  0  0  0  0
  1  8  1  0  0  0  0
  2  5  2  0  0  0  0
  2  6  1  0  0  0  0
  3  7  2  0  0  0  0
  4  9  1  0  0  0  0
  6  3  1  0  0  0  0
  8  7  1  0  0  0  0
  9  1  1  0  0  0  0
 10 11  1  0  0  0  0
 10  9  1  0  0  0  0
 11 31  1  6  0  0  0
 11  2  1  0  0  0  0
 12 10  2  0  0  0  0
 14 16  1  6  0  0  0
 14  5  1  0  0  0  0
 14 13  1  0  0  0  0
 15 19  1  1  0  0  0
 15 13  1  0  0  0  0
 17 18  2  0  0  0  0
 17 14  1  0  0  0  0
 18 15  1  0  0  0  0
 20 19  1  0  0  0  0
 21 20  1  0  0  0  0
 22 23  1  0  0  0  0
 22 21  1  0  0  0  0
 23 24  1  0  0  0  0
 25 26  1  6  0  0  0
 25 24  1  0  0  0  0
 27 25  1  0  0  0  0
 27 28  1  1  0  0  0
 27 30  1  0  0  0  0
 30 29  1  0  0  0  0
 32 31  1  0  0  0  0
 33 32  1  0  0  0  0
 33 34  1  1  0  0  0
 35 36  1  0  0  0  0
 35 33  1  0  0  0  0
 36 37  1  0  0  0  0
 38 37  1  0  0  0  0
 39 38  1  0  0  0  0
 39 41  1  0  0  0  0
 41 40  1  0  0  0  0
 42 41  2  0  0  0  0
M  END
>  <MODEL>
9

>  <REMARK>
 VINA RESULT:      -5.3      2.151      8.226
  Name = 
  19 active torsions:
  status: ('A' for Active; 'I' for Inactive)
    1  A    between atoms: C_2  and  N_13
    2  A    between atoms: C_3  and  C_16
    3  A    between atoms: C_3  and  C_22
    4  A    between atoms: C_4  and  O_34
    5  A    between atoms: C_6  and  C_25
    6  A    between atoms: C_6  and  C_31
    7  A    between atoms: C_8  and  C_24
    8  A    between atoms: C_8  and  O_38
    9  A    between atoms: C_15  and  C_25
   10  A    between atoms: C_15  and  C_33
   11  A    between atoms: C_16  and  C_40
   12  A    between atoms: C_17  and  C_21
   13  A    between atoms: C_17  and  O_34
   14  A    between atoms: C_19  and  C_24
   15  A    between atoms: C_21  and  N_29
   16  A    between atoms: C_22  and  C_23
   17  A    between atoms: C_23  and  O_38
   18  A    between atoms: N_29  and  C_33
   19  A    between atoms: C_36  and  C_40
                            x       y       z     vdW  Elec       q    Type
                         _______ _______ _______ _____ _____    ______ ____

>  <TORSDO>
F 19

$$$$
