=
 OpenBabel11042414403D

 59 62  0  0  1  0  0  0  0  0999 V2000
  188.6640  174.0520  140.1440 C   0  0  0  0  0  2  0  0  0  0  0  0
  191.2600  172.7430  136.1160 O   0  0  0  0  0  0  0  0  0  0  0  0
  191.0600  174.0250  140.8510 C   0  0  0  0  0  3  0  0  0  0  0  0
  193.3490  174.0650  141.7130 C   0  0  0  0  0  1  0  0  0  0  0  0
  193.4620  172.5830  136.6860 N   0  0  0  0  0  0  0  0  0  0  0  0
  190.1120  173.8510  139.8480 C   0  0  0  0  0  0  0  0  0  0  0  0
  194.4410  172.6760  137.6230 C   0  0  0  0  0  3  0  0  0  0  0  0
  192.1590  172.8500  136.9960 C   0  0  0  0  0  0  0  0  0  0  0  0
  191.8100  173.2380  138.2990 C   0  0  0  0  0  0  0  0  0  0  0  0
  192.8150  173.3680  139.2940 C   0  0  0  0  0  0  0  0  0  0  0  0
  190.5040  173.4760  138.6060 N   0  0  0  0  0  0  0  0  0  0  0  0
  194.1560  173.0600  138.9360 C   0  0  0  0  0  0  0  0  0  0  0  0
  192.4090  173.7980  140.5880 C   0  0  0  0  0  0  0  0  0  0  0  0
  195.2080  171.5160  135.3520 C   0  0  0  0  0  1  0  0  0  0  0  0
  193.8410  172.1810  135.3360 C   0  0  0  0  0  2  0  0  0  0  0  0
  195.2930  173.0550  139.9080 C   0  0  0  0  0  2  0  0  0  0  0  0
  196.3060  174.1250  139.5410 C   0  0  0  0  0  2  0  0  0  0  0  0
  197.5730  173.9460  140.3530 C   0  0  0  0  0  2  0  0  0  0  0  0
  197.2970  174.1690  141.7040 O   0  0  0  0  0  0  0  0  0  0  0  0
  197.0870  175.5460  141.8030 C   0  0  0  0  0  2  0  0  0  0  0  0
  196.8210  177.1900  143.5080 O   0  0  0  0  0  1  0  0  0  0  0  0
  196.4910  175.8770  143.1590 C   0  0  2  0  0  3  0  0  0  0  0  0
  197.0160  174.9540  144.1540 N   0  0  0  0  0  2  0  0  0  0  0  0
  195.9820  174.7310  145.1550 C   0  0  0  0  0  2  0  0  0  0  0  0
  196.2820  170.5450  146.0670 C   0  0  0  0  0  2  0  0  0  0  0  0
  194.8740  172.4840  145.1420 C   0  0  0  0  0  2  0  0  0  0  0  0
  196.0430  173.3060  145.6820 C   0  0  0  0  0  3  0  0  0  0  0  0
  194.8790  171.0610  145.7170 C   0  0  0  0  0  2  0  0  0  0  0  0
  197.3400  171.1510  145.1510 C   0  0  0  0  0  2  0  0  0  0  0  0
  197.3890  172.6800  145.2960 C   0  0  0  0  0  2  0  0  0  0  0  0
  188.4030  173.9520  141.5750 N   0  0  0  0  0  0  0  0  0  0  0  0
  187.6590  172.7170  141.8500 C   0  0  0  0  0  2  0  0  0  0  0  0
  188.0400  172.1410  143.0690 O   0  0  0  0  0  0  0  0  0  0  0  0
  189.3950  171.8390  142.9060 C   0  0  0  0  0  2  0  0  0  0  0  0
  190.1670  172.1700  144.1720 C   0  0  0  0  0  2  0  0  0  0  0  0
  191.7950  170.8980  142.9780 O   0  0  0  0  0  1  0  0  0  0  0  0
  191.6290  171.7940  144.0330 C   0  0  0  0  0  2  0  0  0  0  0  0
  187.5750  175.0930  141.9420 C   0  0  0  0  0  2  0  0  0  0  0  0
  187.8880  176.2780  141.0470 C   0  0  0  0  0  2  0  0  0  0  0  0
  186.6870  177.0760  140.8690 N   0  0  0  0  0  2  0  0  0  0  0  0
  186.0360  177.1450  142.1630 C   0  0  0  0  0  2  0  0  0  0  0  0
  185.0890  178.2450  142.1650 N   0  0  0  0  0  2  0  0  0  0  0  0
  184.5580  178.3230  143.4580 N   0  0  0  0  0  2  0  0  0  0  0  0
  185.3040  177.3800  144.2720 C   0  0  0  0  0  2  0  0  0  0  0  0
  184.9790  178.8020  146.1750 O   0  0  0  0  0  1  0  0  0  0  0  0
  185.9470  178.1000  145.4470 C   0  0  1  0  0  3  0  0  0  0  0  0
  186.6900  177.1030  146.3350 C   0  0  2  0  0  3  0  0  0  0  0  0
  186.2170  177.1270  147.7810 C   0  0  0  0  0  1  0  0  0  0  0  0
  188.1760  177.2680  146.2500 C   0  0  0  0  0  0  0  0  0  0  0  0
  188.7570  177.8660  147.1420 O   0  0  0  0  0  0  0  0  0  0  0  0
  189.5680  177.8380  144.2260 C   0  0  0  0  0  2  0  0  0  0  0  0
  190.9640  175.8250  144.1550 C   0  0  0  0  0  2  0  0  0  0  0  0
  190.0500  175.7380  145.3640 C   0  0  2  0  0  3  0  0  0  0  0  0
  188.9420  176.7430  145.0610 C   0  0  1  0  0  3  0  0  0  0  0  0
  190.7320  177.1840  143.5080 C   0  0  0  0  0  2  0  0  0  0  0  0
  190.8460  176.0790  146.6250 C   0  0  0  0  0  2  0  0  0  0  0  0
  192.2780  175.7050  146.4600 C   0  0  0  0  0  0  0  0  0  0  0  0
  192.6380  174.5070  146.5960 O   0  0  0  0  0  1  0  0  0  0  0  0
  193.2170  176.6730  146.1310 O   0  0  0  0  0  0  0  0  0  0  0  0
  1 31  1  0  0  0  0
  2  8  2  0  0  0  0
  5  8  1  0  0  0  0
  5  7  1  0  0  0  0
  6  1  1  0  0  0  0
  6  3  2  0  0  0  0
  7 12  2  0  0  0  0
  8  9  1  0  0  0  0
  9 11  2  0  0  0  0
  9 10  1  0  0  0  0
 10 13  2  0  0  0  0
 11  6  1  0  0  0  0
 12 10  1  0  0  0  0
 12 16  1  0  0  0  0
 13  3  1  0  0  0  0
 13  4  1  0  0  0  0
 15 14  1  0  0  0  0
 15  5  1  0  0  0  0
 17 16  1  0  0  0  0
 17 18  1  0  0  0  0
 18 19  1  0  0  0  0
 19 20  1  0  0  0  0
 20 22  1  0  0  0  0
 22 21  1  1  0  0  0
 22 23  1  0  0  0  0
 23 24  1  0  0  0  0
 24 27  1  0  0  0  0
 26 27  1  0  0  0  0
 26 28  1  0  0  0  0
 28 25  1  0  0  0  0
 29 30  1  0  0  0  0
 29 25  1  0  0  0  0
 30 27  1  0  0  0  0
 31 32  1  0  0  0  0
 31 38  1  0  0  0  0
 32 33  1  0  0  0  0
 34 33  1  0  0  0  0
 34 35  1  0  0  0  0
 36 37  1  0  0  0  0
 37 35  1  0  0  0  0
 39 38  1  0  0  0  0
 40 39  1  0  0  0  0
 40 41  1  0  0  0  0
 41 42  1  0  0  0  0
 42 43  1  0  0  0  0
 43 44  1  0  0  0  0
 44 46  1  0  0  0  0
 46 45  1  1  0  0  0
 46 47  1  0  0  0  0
 47 48  1  1  0  0  0
 49 47  1  0  0  0  0
 49 50  2  0  0  0  0
 51 54  1  0  0  0  0
 52 53  1  0  0  0  0
 53 56  1  1  0  0  0
 54 53  1  0  0  0  0
 54 49  1  1  0  0  0
 55 52  1  0  0  0  0
 55 51  1  0  0  0  0
 57 58  1  0  0  0  0
 57 56  1  0  0  0  0
 59 57  2  0  0  0  0
M  END
>  <MODEL>
1

>  <REMARK>
 VINA RESULT:      -5.3      0.000      0.000
  Name = 
  30 active torsions:
  status: ('A' for Active; 'I' for Inactive)
    1  A    between atoms: N_1  and  C_16
    2  A    between atoms: N_1  and  C_25
    3  A    between atoms: N_1  and  C_29
    4  A    between atoms: C_4  and  C_17
    5  A    between atoms: C_6  and  C_19
    6  A    between atoms: C_6  and  C_35
    7  A    between atoms: N_9  and  C_37
    8  A    between atoms: N_9  and  C_43
    9  A    between atoms: C_12  and  C_46
   10  A    between atoms: C_12  and  C_54
   11  A    between atoms: N_14  and  N_55
   12  A    between atoms: N_14  and  C_59
   13  A    between atoms: C_16  and  C_31
   14  A    between atoms: C_17  and  C_18
   15  A    between atoms: C_21  and  N_30
   16  A    between atoms: C_21  and  N_55
   17  A    between atoms: C_23  and  C_41
   18  A    between atoms: C_23  and  C_49
   19  A    between atoms: N_24  and  C_58
   20  A    between atoms: C_25  and  O_48
   21  A    between atoms: C_26  and  C_29
   22  A    between atoms: C_28  and  C_43
   23  A    between atoms: C_28  and  O_47
   24  A    between atoms: N_30  and  C_31
   25  A    between atoms: C_32  and  C_37
   26  A    between atoms: C_35  and  C_57
   27  A    between atoms: C_41  and  O_47
   28  A    between atoms: C_46  and  O_48
   29  A    between atoms: C_49  and  C_50
   30  A    between atoms: C_57  and  C_59
                            x       y       z     vdW  Elec       q    Type
                         _______ _______ _______ _____ _____    ______ ____

>  <TORSDO>
F 30

$$$$
=
 OpenBabel11042414403D

 59 62  0  0  1  0  0  0  0  0999 V2000
  190.6570  173.8840  145.9150 C   0  0  0  0  0  2  0  0  0  0  0  0
  194.8790  171.2900  145.5750 O   0  0  0  0  0  0  0  0  0  0  0  0
  191.4670  174.1980  143.5730 C   0  0  0  0  0  3  0  0  0  0  0  0
  192.1010  174.6020  141.2450 C   0  0  0  0  0  1  0  0  0  0  0  0
  195.7610  171.6000  143.4940 N   0  0  0  0  0  0  0  0  0  0  0  0
  191.6450  173.6270  144.8280 C   0  0  0  0  0  0  0  0  0  0  0  0
  195.6890  172.1670  142.2620 C   0  0  0  0  0  3  0  0  0  0  0  0
  194.7880  171.8130  144.4290 C   0  0  0  0  0  0  0  0  0  0  0  0
  193.6830  172.6230  144.1230 C   0  0  0  0  0  0  0  0  0  0  0  0
  193.5680  173.2090  142.8350 C   0  0  0  0  0  0  0  0  0  0  0  0
  192.7310  172.8520  145.0700 N   0  0  0  0  0  0  0  0  0  0  0  0
  194.6130  172.9800  141.8980 C   0  0  0  0  0  0  0  0  0  0  0  0
  192.4100  173.9910  142.5680 C   0  0  0  0  0  0  0  0  0  0  0  0
  197.9400  171.5450  144.5960 C   0  0  0  0  0  1  0  0  0  0  0  0
  196.9150  170.7590  143.7960 C   0  0  0  0  0  2  0  0  0  0  0  0
  194.6700  173.6190  140.5470 C   0  0  0  0  0  2  0  0  0  0  0  0
  195.7430  172.9630  139.6970 C   0  0  0  0  0  2  0  0  0  0  0  0
  195.7890  173.6050  138.3250 C   0  0  0  0  0  2  0  0  0  0  0  0
  195.0650  172.8250  137.4210 O   0  0  0  0  0  0  0  0  0  0  0  0
  194.0750  173.6770  136.9270 C   0  0  0  0  0  2  0  0  0  0  0  0
  191.8580  173.8510  137.7840 O   0  0  0  0  0  1  0  0  0  0  0  0
  192.7160  173.0160  137.0630 C   0  0  2  0  0  3  0  0  0  0  0  0
  192.8650  171.7440  137.7550 N   0  0  0  0  0  2  0  0  0  0  0  0
  191.5360  171.2010  137.9960 C   0  0  0  0  0  2  0  0  0  0  0  0
  191.4720  169.7390  142.0340 C   0  0  0  0  0  2  0  0  0  0  0  0
  192.8550  170.5000  140.0080 C   0  0  0  0  0  2  0  0  0  0  0  0
  191.4820  170.4880  139.3380 C   0  0  0  0  0  3  0  0  0  0  0  0
  192.8370  169.7250  141.3330 C   0  0  0  0  0  2  0  0  0  0  0  0
  190.7060  171.0230  141.7290 C   0  0  0  0  0  2  0  0  0  0  0  0
  190.4240  171.1570  140.2250 C   0  0  0  0  0  2  0  0  0  0  0  0
  190.2230  175.2770  145.9090 N   0  0  0  0  0  0  0  0  0  0  0  0
  191.0620  176.0530  146.8300 C   0  0  0  0  0  2  0  0  0  0  0  0
  192.1070  176.7010  146.1590 O   0  0  0  0  0  0  0  0  0  0  0  0
  193.2630  176.2930  146.8320 C   0  0  0  0  0  2  0  0  0  0  0  0
  194.5010  176.7080  146.0550 C   0  0  0  0  0  2  0  0  0  0  0  0
  195.5710  176.0600  144.0230 O   0  0  0  0  0  1  0  0  0  0  0  0
  194.3410  176.4150  144.5760 C   0  0  0  0  0  2  0  0  0  0  0  0
  188.8480  175.3020  146.3890 C   0  0  0  0  0  2  0  0  0  0  0  0
  188.4800  176.6980  146.8570 C   0  0  0  0  0  2  0  0  0  0  0  0
  187.0760  176.7250  147.2310 N   0  0  0  0  0  2  0  0  0  0  0  0
  186.7560  178.1040  147.5490 C   0  0  0  0  0  2  0  0  0  0  0  0
  185.3220  178.3010  147.4390 N   0  0  0  0  0  2  0  0  0  0  0  0
  185.1160  179.2180  146.4020 N   0  0  0  0  0  2  0  0  0  0  0  0
  184.1640  178.6110  145.4900 C   0  0  0  0  0  2  0  0  0  0  0  0
  185.4150  180.0620  144.0480 O   0  0  0  0  0  1  0  0  0  0  0  0
  184.4770  179.0220  144.0600 C   0  0  1  0  0  3  0  0  0  0  0  0
  184.9770  177.8180  143.2620 C   0  0  2  0  0  3  0  0  0  0  0  0
  185.6980  176.7910  144.1220 C   0  0  0  0  0  1  0  0  0  0  0  0
  185.8160  178.2260  142.0900 C   0  0  0  0  0  0  0  0  0  0  0  0
  185.2650  178.5060  141.0370 O   0  0  0  0  0  0  0  0  0  0  0  0
  187.8220  178.2790  143.6170 C   0  0  0  0  0  2  0  0  0  0  0  0
  189.4050  177.0610  142.1960 C   0  0  0  0  0  2  0  0  0  0  0  0
  188.0600  177.1110  141.4920 C   0  0  2  0  0  3  0  0  0  0  0  0
  187.3210  178.2490  142.1900 C   0  0  1  0  0  3  0  0  0  0  0  0
  189.2220  177.7000  143.5670 C   0  0  0  0  0  2  0  0  0  0  0  0
  187.3620  175.7580  141.6390 C   0  0  0  0  0  2  0  0  0  0  0  0
  188.2450  174.6570  141.1650 C   0  0  0  0  0  0  0  0  0  0  0  0
  188.6110  173.7540  141.9630 O   0  0  0  0  0  1  0  0  0  0  0  0
  188.6490  174.6080  139.8390 O   0  0  0  0  0  0  0  0  0  0  0  0
  3  6  1  0  0  0  0
  4 13  1  0  0  0  0
  5 15  1  0  0  0  0
  5  8  1  0  0  0  0
  6 11  2  0  0  0  0
  6  1  1  0  0  0  0
  7  5  1  0  0  0  0
  8  2  2  0  0  0  0
  9  8  1  0  0  0  0
  9 11  1  0  0  0  0
 10  9  2  0  0  0  0
 12  7  2  0  0  0  0
 12 10  1  0  0  0  0
 13 10  1  0  0  0  0
 13  3  2  0  0  0  0
 15 14  1  0  0  0  0
 16 12  1  0  0  0  0
 17 16  1  0  0  0  0
 18 17  1  0  0  0  0
 19 18  1  0  0  0  0
 20 22  1  0  0  0  0
 20 19  1  0  0  0  0
 22 23  1  0  0  0  0
 22 21  1  1  0  0  0
 23 24  1  0  0  0  0
 24 27  1  0  0  0  0
 26 28  1  0  0  0  0
 27 26  1  0  0  0  0
 27 30  1  0  0  0  0
 28 25  1  0  0  0  0
 29 25  1  0  0  0  0
 30 29  1  0  0  0  0
 31  1  1  0  0  0  0
 31 38  1  0  0  0  0
 31 32  1  0  0  0  0
 33 32  1  0  0  0  0
 33 34  1  0  0  0  0
 35 34  1  0  0  0  0
 36 37  1  0  0  0  0
 37 35  1  0  0  0  0
 38 39  1  0  0  0  0
 39 40  1  0  0  0  0
 40 41  1  0  0  0  0
 42 41  1  0  0  0  0
 43 42  1  0  0  0  0
 44 43  1  0  0  0  0
 46 45  1  1  0  0  0
 46 44  1  0  0  0  0
 47 46  1  0  0  0  0
 47 48  1  1  0  0  0
 49 47  1  0  0  0  0
 50 49  2  0  0  0  0
 52 55  1  0  0  0  0
 53 56  1  1  0  0  0
 53 54  1  0  0  0  0
 53 52  1  0  0  0  0
 54 49  1  1  0  0  0
 54 51  1  0  0  0  0
 55 51  1  0  0  0  0
 57 56  1  0  0  0  0
 57 58  1  0  0  0  0
 59 57  2  0  0  0  0
M  END
>  <MODEL>
2

>  <REMARK>
 VINA RESULT:      -5.1      2.402      5.900
  Name = 
  30 active torsions:
  status: ('A' for Active; 'I' for Inactive)
    1  A    between atoms: N_1  and  C_16
    2  A    between atoms: N_1  and  C_25
    3  A    between atoms: N_1  and  C_29
    4  A    between atoms: C_4  and  C_17
    5  A    between atoms: C_6  and  C_19
    6  A    between atoms: C_6  and  C_35
    7  A    between atoms: N_9  and  C_37
    8  A    between atoms: N_9  and  C_43
    9  A    between atoms: C_12  and  C_46
   10  A    between atoms: C_12  and  C_54
   11  A    between atoms: N_14  and  N_55
   12  A    between atoms: N_14  and  C_59
   13  A    between atoms: C_16  and  C_31
   14  A    between atoms: C_17  and  C_18
   15  A    between atoms: C_21  and  N_30
   16  A    between atoms: C_21  and  N_55
   17  A    between atoms: C_23  and  C_41
   18  A    between atoms: C_23  and  C_49
   19  A    between atoms: N_24  and  C_58
   20  A    between atoms: C_25  and  O_48
   21  A    between atoms: C_26  and  C_29
   22  A    between atoms: C_28  and  C_43
   23  A    between atoms: C_28  and  O_47
   24  A    between atoms: N_30  and  C_31
   25  A    between atoms: C_32  and  C_37
   26  A    between atoms: C_35  and  C_57
   27  A    between atoms: C_41  and  O_47
   28  A    between atoms: C_46  and  O_48
   29  A    between atoms: C_49  and  C_50
   30  A    between atoms: C_57  and  C_59
                            x       y       z     vdW  Elec       q    Type
                         _______ _______ _______ _____ _____    ______ ____

>  <TORSDO>
F 30

$$$$
=
 OpenBabel11042414403D

 59 62  0  0  1  0  0  0  0  0999 V2000
  195.4390  174.0270  145.8850 C   0  0  0  0  0  2  0  0  0  0  0  0
  191.9090  172.1250  142.9530 O   0  0  0  0  0  0  0  0  0  0  0  0
  193.3690  175.3440  146.3600 C   0  0  0  0  0  3  0  0  0  0  0  0
  191.4410  176.7240  146.9610 C   0  0  0  0  0  1  0  0  0  0  0  0
  189.9960  173.3350  143.2330 N   0  0  0  0  0  0  0  0  0  0  0  0
  193.9930  174.3180  145.6600 C   0  0  0  0  0  0  0  0  0  0  0  0
  189.3310  174.3560  143.8330 C   0  0  0  0  0  3  0  0  0  0  0  0
  191.3020  173.0690  143.5320 C   0  0  0  0  0  0  0  0  0  0  0  0
  191.9800  173.8500  144.4820 C   0  0  0  0  0  0  0  0  0  0  0  0
  191.3040  174.9090  145.1430 C   0  0  0  0  0  0  0  0  0  0  0  0
  193.2900  173.5940  144.7540 N   0  0  0  0  0  0  0  0  0  0  0  0
  189.9520  175.1660  144.7880 C   0  0  0  0  0  0  0  0  0  0  0  0
  192.0300  175.6440  146.1210 C   0  0  0  0  0  0  0  0  0  0  0  0
  189.2810  173.2290  140.9000 C   0  0  0  0  0  1  0  0  0  0  0  0
  189.2770  172.5320  142.2500 C   0  0  0  0  0  2  0  0  0  0  0  0
  189.1560  176.3110  145.3300 C   0  0  0  0  0  2  0  0  0  0  0  0
  187.9340  175.8000  146.0710 C   0  0  0  0  0  2  0  0  0  0  0  0
  187.4830  176.8180  147.1000 C   0  0  0  0  0  2  0  0  0  0  0  0
  186.0930  176.9450  147.0530 O   0  0  0  0  0  0  0  0  0  0  0  0
  185.8400  178.2530  147.4720 C   0  0  0  0  0  2  0  0  0  0  0  0
  184.0410  178.4830  145.9270 O   0  0  0  0  0  1  0  0  0  0  0  0
  185.2530  179.0540  146.3260 C   0  0  2  0  0  3  0  0  0  0  0  0
  186.1890  179.0560  145.2110 N   0  0  0  0  0  2  0  0  0  0  0  0
  185.4320  179.2530  143.9830 C   0  0  0  0  0  2  0  0  0  0  0  0
  187.2710  176.4770  141.2710 C   0  0  0  0  0  2  0  0  0  0  0  0
  187.4840  178.5990  142.7020 C   0  0  0  0  0  2  0  0  0  0  0  0
  185.9810  178.3790  142.8660 C   0  0  0  0  0  3  0  0  0  0  0  0
  188.0450  177.7760  141.5340 C   0  0  0  0  0  2  0  0  0  0  0  0
  186.6680  175.9220  142.5580 C   0  0  0  0  0  2  0  0  0  0  0  0
  185.6630  176.9090  143.1700 C   0  0  0  0  0  2  0  0  0  0  0  0
  196.2790  174.8660  145.0380 N   0  0  0  0  0  0  0  0  0  0  0  0
  195.6920  174.9460  143.6950 C   0  0  0  0  0  2  0  0  0  0  0  0
  195.4230  176.2700  143.3250 O   0  0  0  0  0  0  0  0  0  0  0  0
  196.2830  176.5160  142.2510 C   0  0  0  0  0  2  0  0  0  0  0  0
  195.4890  176.6960  140.9680 C   0  0  0  0  0  2  0  0  0  0  0  0
  194.0370  174.9780  140.1700 O   0  0  0  0  0  1  0  0  0  0  0  0
  195.3700  175.3860  140.2120 C   0  0  0  0  0  2  0  0  0  0  0  0
  197.5800  174.2180  144.9470 C   0  0  0  0  0  2  0  0  0  0  0  0
  197.5320  173.0820  143.9410 C   0  0  0  0  0  2  0  0  0  0  0  0
  197.9410  171.8480  144.5880 N   0  0  0  0  0  2  0  0  0  0  0  0
  196.8320  170.9220  144.4600 C   0  0  0  0  0  2  0  0  0  0  0  0
  195.9840  171.3400  143.3590 N   0  0  0  0  0  2  0  0  0  0  0  0
  194.9640  170.3870  143.2460 N   0  0  0  0  0  2  0  0  0  0  0  0
  195.4730  169.3310  142.3910 C   0  0  0  0  0  2  0  0  0  0  0  0
  193.1040  168.9730  142.2860 O   0  0  0  0  0  1  0  0  0  0  0  0
  194.3220  168.6320  141.6850 C   0  0  1  0  0  3  0  0  0  0  0  0
  194.3210  168.9860  140.1980 C   0  0  2  0  0  3  0  0  0  0  0  0
  195.6570  169.5350  139.7170 C   0  0  0  0  0  1  0  0  0  0  0  0
  193.1970  169.9070  139.8370 C   0  0  0  0  0  0  0  0  0  0  0  0
  193.2910  171.0920  140.1140 O   0  0  0  0  0  0  0  0  0  0  0  0
  190.7480  170.2790  139.3650 C   0  0  0  0  0  2  0  0  0  0  0  0
  190.6030  169.1210  137.2090 C   0  0  0  0  0  2  0  0  0  0  0  0
  192.0440  169.0810  137.6860 C   0  0  2  0  0  3  0  0  0  0  0  0
  191.9470  169.3760  139.1800 C   0  0  1  0  0  3  0  0  0  0  0  0
  189.8180  169.9610  138.2100 C   0  0  0  0  0  2  0  0  0  0  0  0
  192.8600  170.1210  136.9170 C   0  0  0  0  0  2  0  0  0  0  0  0
  194.0650  169.4960  136.3030 C   0  0  0  0  0  0  0  0  0  0  0  0
  194.8240  170.1780  135.5670 O   0  0  0  0  0  0  0  0  0  0  0  0
  194.3670  168.1660  136.5600 O   0  0  0  0  0  1  0  0  0  0  0  0
  2  8  2  0  0  0  0
  5  8  1  0  0  0  0
  5  7  1  0  0  0  0
  6  1  1  0  0  0  0
  6  3  2  0  0  0  0
  7 12  2  0  0  0  0
  8  9  1  0  0  0  0
  9 11  2  0  0  0  0
  9 10  1  0  0  0  0
 10 13  2  0  0  0  0
 11  6  1  0  0  0  0
 12 10  1  0  0  0  0
 12 16  1  0  0  0  0
 13  3  1  0  0  0  0
 13  4  1  0  0  0  0
 14 15  1  0  0  0  0
 15  5  1  0  0  0  0
 16 17  1  0  0  0  0
 17 18  1  0  0  0  0
 19 18  1  0  0  0  0
 19 20  1  0  0  0  0
 22 21  1  6  0  0  0
 22 20  1  0  0  0  0
 23 22  1  0  0  0  0
 24 23  1  0  0  0  0
 25 28  1  0  0  0  0
 25 29  1  0  0  0  0
 26 27  1  0  0  0  0
 27 30  1  0  0  0  0
 27 24  1  0  0  0  0
 28 26  1  0  0  0  0
 29 30  1  0  0  0  0
 31  1  1  0  0  0  0
 32 31  1  0  0  0  0
 33 32  1  0  0  0  0
 34 33  1  0  0  0  0
 35 34  1  0  0  0  0
 36 37  1  0  0  0  0
 37 35  1  0  0  0  0
 38 31  1  0  0  0  0
 39 40  1  0  0  0  0
 39 38  1  0  0  0  0
 41 40  1  0  0  0  0
 42 41  1  0  0  0  0
 43 42  1  0  0  0  0
 44 43  1  0  0  0  0
 46 45  1  1  0  0  0
 46 44  1  0  0  0  0
 47 48  1  1  0  0  0
 47 46  1  0  0  0  0
 49 50  2  0  0  0  0
 49 47  1  0  0  0  0
 52 53  1  0  0  0  0
 52 55  1  0  0  0  0
 53 56  1  6  0  0  0
 53 54  1  0  0  0  0
 54 51  1  0  0  0  0
 54 49  1  6  0  0  0
 55 51  1  0  0  0  0
 57 59  1  0  0  0  0
 57 56  1  0  0  0  0
 58 57  2  0  0  0  0
M  END
>  <MODEL>
3

>  <REMARK>
 VINA RESULT:      -5.0      2.607     10.340
  Name = 
  30 active torsions:
  status: ('A' for Active; 'I' for Inactive)
    1  A    between atoms: N_1  and  C_16
    2  A    between atoms: N_1  and  C_25
    3  A    between atoms: N_1  and  C_29
    4  A    between atoms: C_4  and  C_17
    5  A    between atoms: C_6  and  C_19
    6  A    between atoms: C_6  and  C_35
    7  A    between atoms: N_9  and  C_37
    8  A    between atoms: N_9  and  C_43
    9  A    between atoms: C_12  and  C_46
   10  A    between atoms: C_12  and  C_54
   11  A    between atoms: N_14  and  N_55
   12  A    between atoms: N_14  and  C_59
   13  A    between atoms: C_16  and  C_31
   14  A    between atoms: C_17  and  C_18
   15  A    between atoms: C_21  and  N_30
   16  A    between atoms: C_21  and  N_55
   17  A    between atoms: C_23  and  C_41
   18  A    between atoms: C_23  and  C_49
   19  A    between atoms: N_24  and  C_58
   20  A    between atoms: C_25  and  O_48
   21  A    between atoms: C_26  and  C_29
   22  A    between atoms: C_28  and  C_43
   23  A    between atoms: C_28  and  O_47
   24  A    between atoms: N_30  and  C_31
   25  A    between atoms: C_32  and  C_37
   26  A    between atoms: C_35  and  C_57
   27  A    between atoms: C_41  and  O_47
   28  A    between atoms: C_46  and  O_48
   29  A    between atoms: C_49  and  C_50
   30  A    between atoms: C_57  and  C_59
                            x       y       z     vdW  Elec       q    Type
                         _______ _______ _______ _____ _____    ______ ____

>  <TORSDO>
F 30

$$$$
=
 OpenBabel11042414403D

 59 62  0  0  1  0  0  0  0  0999 V2000
  192.5220  176.2750  144.0240 C   0  0  0  0  0  2  0  0  0  0  0  0
  192.9240  171.4040  144.9140 O   0  0  0  0  0  0  0  0  0  0  0  0
  192.6930  175.1810  141.7850 C   0  0  0  0  0  3  0  0  0  0  0  0
  192.8330  174.2810  139.5140 C   0  0  0  0  0  1  0  0  0  0  0  0
  193.1950  170.3190  142.9260 N   0  0  0  0  0  0  0  0  0  0  0  0
  192.6500  175.0590  143.1690 C   0  0  0  0  0  0  0  0  0  0  0  0
  193.3030  170.3590  141.5730 C   0  0  0  0  0  3  0  0  0  0  0  0
  193.0060  171.4590  143.6540 C   0  0  0  0  0  0  0  0  0  0  0  0
  192.9100  172.7000  143.0070 C   0  0  0  0  0  0  0  0  0  0  0  0
  192.9940  172.7710  141.5910 C   0  0  0  0  0  0  0  0  0  0  0  0
  192.7470  173.8350  143.7430 N   0  0  0  0  0  0  0  0  0  0  0  0
  193.2120  171.5640  140.8720 C   0  0  0  0  0  0  0  0  0  0  0  0
  192.8540  174.0500  140.9860 C   0  0  0  0  0  0  0  0  0  0  0  0
  194.7470  168.5720  143.6390 C   0  0  0  0  0  1  0  0  0  0  0  0
  193.2960  169.0200  143.5840 C   0  0  0  0  0  2  0  0  0  0  0  0
  193.4230  171.5080  139.3920 C   0  0  0  0  0  2  0  0  0  0  0  0
  194.0300  170.1740  138.9950 C   0  0  0  0  0  2  0  0  0  0  0  0
  193.0560  169.3910  138.1370 C   0  0  0  0  0  2  0  0  0  0  0  0
  191.8650  170.1100  138.0090 O   0  0  0  0  0  0  0  0  0  0  0  0
  191.5160  169.9850  136.6620 C   0  0  0  0  0  2  0  0  0  0  0  0
  190.9530  171.6980  135.1050 O   0  0  0  0  0  1  0  0  0  0  0  0
  190.5330  171.0770  136.2840 C   0  0  2  0  0  3  0  0  0  0  0  0
  190.4630  172.0550  137.3600 N   0  0  0  0  0  2  0  0  0  0  0  0
  189.0930  172.5420  137.4410 C   0  0  0  0  0  2  0  0  0  0  0  0
  188.3560  173.5330  141.5550 C   0  0  0  0  0  2  0  0  0  0  0  0
  189.7820  172.2660  139.8350 C   0  0  0  0  0  2  0  0  0  0  0  0
  188.6790  172.7410  138.8900 C   0  0  0  0  0  3  0  0  0  0  0  0
  189.3540  172.3950  141.3030 C   0  0  0  0  0  2  0  0  0  0  0  0
  188.5670  174.6810  140.5720 C   0  0  0  0  0  2  0  0  0  0  0  0
  188.3450  174.2200  139.1240 C   0  0  0  0  0  2  0  0  0  0  0  0
  193.7570  176.5310  144.7580 N   0  0  0  0  0  0  0  0  0  0  0  0
  194.6390  175.3620  144.6520 C   0  0  0  0  0  2  0  0  0  0  0  0
  195.9780  175.7360  144.4860 O   0  0  0  0  0  0  0  0  0  0  0  0
  196.1180  175.9430  143.1100 C   0  0  0  0  0  2  0  0  0  0  0  0
  197.5750  175.8120  142.7010 C   0  0  0  0  0  2  0  0  0  0  0  0
  196.4460  174.9270  140.7940 O   0  0  0  0  0  1  0  0  0  0  0  0
  197.6980  175.3080  141.2760 C   0  0  0  0  0  2  0  0  0  0  0  0
  193.3940  176.7240  146.1550 C   0  0  0  0  0  2  0  0  0  0  0  0
  192.0290  176.1200  146.4320 C   0  0  0  0  0  2  0  0  0  0  0  0
  191.3640  176.8890  147.4690 N   0  0  0  0  0  2  0  0  0  0  0  0
  189.9910  177.0700  147.0380 C   0  0  0  0  0  2  0  0  0  0  0  0
  189.3170  175.7840  147.0320 N   0  0  0  0  0  2  0  0  0  0  0  0
  187.9510  176.0420  146.8650 N   0  0  0  0  0  2  0  0  0  0  0  0
  187.8030  177.4840  146.8020 C   0  0  0  0  0  2  0  0  0  0  0  0
  186.8730  179.1590  148.2450 O   0  0  0  0  0  1  0  0  0  0  0  0
  186.6130  177.9230  147.6410 C   0  0  1  0  0  3  0  0  0  0  0  0
  185.3530  177.9840  146.7780 C   0  0  2  0  0  3  0  0  0  0  0  0
  184.6470  176.6410  146.6590 C   0  0  0  0  0  1  0  0  0  0  0  0
  185.6200  178.5750  145.4290 C   0  0  0  0  0  0  0  0  0  0  0  0
  186.0540  179.7140  145.3580 O   0  0  0  0  0  0  0  0  0  0  0  0
  184.5400  178.5960  143.1500 C   0  0  0  0  0  2  0  0  0  0  0  0
  186.0200  177.0010  142.0210 C   0  0  0  0  0  2  0  0  0  0  0  0
  186.5180  177.2050  143.4410 C   0  0  2  0  0  3  0  0  0  0  0  0
  185.3170  177.7970  144.1730 C   0  0  1  0  0  3  0  0  0  0  0  0
  184.8470  177.9510  141.8130 C   0  0  0  0  0  2  0  0  0  0  0  0
  187.7330  178.1340  143.4230 C   0  0  0  0  0  2  0  0  0  0  0  0
  188.9850  177.3590  143.2020 C   0  0  0  0  0  0  0  0  0  0  0  0
  189.0980  176.1960  143.6700 O   0  0  0  0  0  1  0  0  0  0  0  0
  190.0230  177.9070  142.4610 O   0  0  0  0  0  0  0  0  0  0  0  0
  1 31  1  0  0  0  0
  3  6  1  0  0  0  0
  4 13  1  0  0  0  0
  5 15  1  0  0  0  0
  5  8  1  0  0  0  0
  6 11  2  0  0  0  0
  6  1  1  0  0  0  0
  7  5  1  0  0  0  0
  8  2  2  0  0  0  0
  9  8  1  0  0  0  0
  9 11  1  0  0  0  0
 10  9  2  0  0  0  0
 12  7  2  0  0  0  0
 12 10  1  0  0  0  0
 13 10  1  0  0  0  0
 13  3  2  0  0  0  0
 15 14  1  0  0  0  0
 16 12  1  0  0  0  0
 17 16  1  0  0  0  0
 18 17  1  0  0  0  0
 19 18  1  0  0  0  0
 20 19  1  0  0  0  0
 22 21  1  6  0  0  0
 22 20  1  0  0  0  0
 22 23  1  0  0  0  0
 23 24  1  0  0  0  0
 24 27  1  0  0  0  0
 26 28  1  0  0  0  0
 27 30  1  0  0  0  0
 27 26  1  0  0  0  0
 28 25  1  0  0  0  0
 29 25  1  0  0  0  0
 30 29  1  0  0  0  0
 31 38  1  0  0  0  0
 32 31  1  0  0  0  0
 33 32  1  0  0  0  0
 34 33  1  0  0  0  0
 35 34  1  0  0  0  0
 36 37  1  0  0  0  0
 37 35  1  0  0  0  0
 38 39  1  0  0  0  0
 39 40  1  0  0  0  0
 41 40  1  0  0  0  0
 42 41  1  0  0  0  0
 43 42  1  0  0  0  0
 44 43  1  0  0  0  0
 44 46  1  0  0  0  0
 46 45  1  6  0  0  0
 47 48  1  6  0  0  0
 47 46  1  0  0  0  0
 49 47  1  0  0  0  0
 50 49  2  0  0  0  0
 51 54  1  0  0  0  0
 52 53  1  0  0  0  0
 53 56  1  6  0  0  0
 53 54  1  0  0  0  0
 54 49  1  1  0  0  0
 55 52  1  0  0  0  0
 55 51  1  0  0  0  0
 57 56  1  0  0  0  0
 57 58  1  0  0  0  0
 59 57  2  0  0  0  0
M  END
>  <MODEL>
4

>  <REMARK>
 VINA RESULT:      -4.9      2.597      6.725
  Name = 
  30 active torsions:
  status: ('A' for Active; 'I' for Inactive)
    1  A    between atoms: N_1  and  C_16
    2  A    between atoms: N_1  and  C_25
    3  A    between atoms: N_1  and  C_29
    4  A    between atoms: C_4  and  C_17
    5  A    between atoms: C_6  and  C_19
    6  A    between atoms: C_6  and  C_35
    7  A    between atoms: N_9  and  C_37
    8  A    between atoms: N_9  and  C_43
    9  A    between atoms: C_12  and  C_46
   10  A    between atoms: C_12  and  C_54
   11  A    between atoms: N_14  and  N_55
   12  A    between atoms: N_14  and  C_59
   13  A    between atoms: C_16  and  C_31
   14  A    between atoms: C_17  and  C_18
   15  A    between atoms: C_21  and  N_30
   16  A    between atoms: C_21  and  N_55
   17  A    between atoms: C_23  and  C_41
   18  A    between atoms: C_23  and  C_49
   19  A    between atoms: N_24  and  C_58
   20  A    between atoms: C_25  and  O_48
   21  A    between atoms: C_26  and  C_29
   22  A    between atoms: C_28  and  C_43
   23  A    between atoms: C_28  and  O_47
   24  A    between atoms: N_30  and  C_31
   25  A    between atoms: C_32  and  C_37
   26  A    between atoms: C_35  and  C_57
   27  A    between atoms: C_41  and  O_47
   28  A    between atoms: C_46  and  O_48
   29  A    between atoms: C_49  and  C_50
   30  A    between atoms: C_57  and  C_59
                            x       y       z     vdW  Elec       q    Type
                         _______ _______ _______ _____ _____    ______ ____

>  <TORSDO>
F 30

$$$$
=
 OpenBabel11042414403D

 59 62  0  0  1  0  0  0  0  0999 V2000
  190.6620  172.8480  140.6070 C   0  0  0  0  0  2  0  0  0  0  0  0
  187.8510  176.9410  140.7250 O   0  0  0  0  0  0  0  0  0  0  0  0
  190.2140  173.3020  143.0220 C   0  0  0  0  0  3  0  0  0  0  0  0
  189.8660  173.5850  145.4280 C   0  0  0  0  0  1  0  0  0  0  0  0
  187.4730  177.5060  142.9020 N   0  0  0  0  0  0  0  0  0  0  0  0
  190.0350  173.6590  141.6900 C   0  0  0  0  0  0  0  0  0  0  0  0
  187.6490  177.2570  144.2260 C   0  0  0  0  0  3  0  0  0  0  0  0
  188.0110  176.6860  141.9510 C   0  0  0  0  0  0  0  0  0  0  0  0
  188.7530  175.5570  142.3330 C   0  0  0  0  0  0  0  0  0  0  0  0
  188.9330  175.2580  143.7090 C   0  0  0  0  0  0  0  0  0  0  0  0
  189.3080  174.7600  141.3780 N   0  0  0  0  0  0  0  0  0  0  0  0
  188.3750  176.1480  144.6670 C   0  0  0  0  0  0  0  0  0  0  0  0
  189.6630  174.0820  144.0370 C   0  0  0  0  0  0  0  0  0  0  0  0
  185.6610  178.9930  143.5890 C   0  0  0  0  0  1  0  0  0  0  0  0
  186.6970  178.6820  142.5220 C   0  0  0  0  0  2  0  0  0  0  0  0
  188.5750  176.0100  146.1430 C   0  0  0  0  0  2  0  0  0  0  0  0
  189.1320  177.2970  146.7230 C   0  0  0  0  0  2  0  0  0  0  0  0
  190.3430  177.0010  147.5860 C   0  0  0  0  0  2  0  0  0  0  0  0
  191.0870  175.9700  147.0080 O   0  0  0  0  0  0  0  0  0  0  0  0
  192.1080  176.6170  146.3070 C   0  0  0  0  0  2  0  0  0  0  0  0
  194.4720  176.9130  146.3220 O   0  0  0  0  0  1  0  0  0  0  0  0
  193.4520  176.0410  146.7130 C   0  0  2  0  0  3  0  0  0  0  0  0
  193.6350  174.7470  146.0710 N   0  0  0  0  0  2  0  0  0  0  0  0
  194.2540  174.9690  144.7720 C   0  0  0  0  0  2  0  0  0  0  0  0
  197.6340  172.3190  144.7510 C   0  0  0  0  0  2  0  0  0  0  0  0
  196.7460  174.7280  144.6720 C   0  0  0  0  0  2  0  0  0  0  0  0
  195.4070  174.0020  144.5540 C   0  0  0  0  0  3  0  0  0  0  0  0
  197.9210  173.7820  144.3870 C   0  0  0  0  0  2  0  0  0  0  0  0
  196.6590  172.2200  145.9200 C   0  0  0  0  0  2  0  0  0  0  0  0
  195.3050  172.8540  145.5680 C   0  0  0  0  0  2  0  0  0  0  0  0
  190.1170  173.2060  139.3020 N   0  0  0  0  0  0  0  0  0  0  0  0
  188.7260  172.7470  139.2120 C   0  0  0  0  0  2  0  0  0  0  0  0
  188.1320  173.1250  138.0010 O   0  0  0  0  0  0  0  0  0  0  0  0
  187.8850  174.4930  138.1440 C   0  0  0  0  0  2  0  0  0  0  0  0
  187.8160  175.1630  136.7820 C   0  0  0  0  0  2  0  0  0  0  0  0
  185.5460  175.8880  136.6490 O   0  0  0  0  0  1  0  0  0  0  0  0
  186.8570  176.3380  136.8000 C   0  0  0  0  0  2  0  0  0  0  0  0
  190.9100  172.5100  138.2990 C   0  0  0  0  0  2  0  0  0  0  0  0
  191.6870  173.5070  137.4580 C   0  0  0  0  0  2  0  0  0  0  0  0
  192.2700  172.8230  136.3160 N   0  0  0  0  0  2  0  0  0  0  0  0
  193.7020  173.0400  136.3870 C   0  0  0  0  0  2  0  0  0  0  0  0
  194.3780  171.7570  136.4690 N   0  0  0  0  0  2  0  0  0  0  0  0
  194.4840  171.4410  137.8290 N   0  0  0  0  0  2  0  0  0  0  0  0
  194.2030  170.0220  137.9500 C   0  0  0  0  0  2  0  0  0  0  0  0
  194.0450  168.2230  139.5280 O   0  0  0  0  0  1  0  0  0  0  0  0
  194.3170  169.5910  139.4040 C   0  0  1  0  0  3  0  0  0  0  0  0
  195.7040  169.9290  139.9480 C   0  0  2  0  0  3  0  0  0  0  0  0
  196.5820  168.7010  140.1450 C   0  0  0  0  0  1  0  0  0  0  0  0
  195.6360  170.7500  141.1980 C   0  0  0  0  0  0  0  0  0  0  0  0
  194.8780  170.4060  142.0920 O   0  0  0  0  0  0  0  0  0  0  0  0
  197.5180  172.1500  140.2720 C   0  0  0  0  0  2  0  0  0  0  0  0
  196.7040  174.3620  140.9440 C   0  0  0  0  0  2  0  0  0  0  0  0
  195.6780  173.3220  141.3560 C   0  0  2  0  0  3  0  0  0  0  0  0
  196.4560  172.0090  141.3390 C   0  0  1  0  0  3  0  0  0  0  0  0
  197.8010  173.6360  140.1760 C   0  0  0  0  0  2  0  0  0  0  0  0
  194.5110  173.3440  140.3670 C   0  0  0  0  0  2  0  0  0  0  0  0
  193.9500  174.7190  140.2460 C   0  0  0  0  0  0  0  0  0  0  0  0
  194.0630  175.3530  139.1650 O   0  0  0  0  0  0  0  0  0  0  0  0
  193.2810  175.2950  141.3160 O   0  0  0  0  0  1  0  0  0  0  0  0
  1  6  1  0  0  0  0
  2  8  2  0  0  0  0
  3 13  1  0  0  0  0
  5  7  1  0  0  0  0
  6  3  2  0  0  0  0
  7 12  2  0  0  0  0
  8  9  1  0  0  0  0
  8  5  1  0  0  0  0
  9 10  1  0  0  0  0
 10 13  2  0  0  0  0
 10 12  1  0  0  0  0
 11  6  1  0  0  0  0
 11  9  2  0  0  0  0
 12 16  1  0  0  0  0
 13  4  1  0  0  0  0
 15  5  1  0  0  0  0
 15 14  1  0  0  0  0
 16 17  1  0  0  0  0
 17 18  1  0  0  0  0
 19 18  1  0  0  0  0
 20 22  1  0  0  0  0
 20 19  1  0  0  0  0
 22 21  1  6  0  0  0
 23 22  1  0  0  0  0
 24 23  1  0  0  0  0
 25 29  1  0  0  0  0
 27 26  1  0  0  0  0
 27 24  1  0  0  0  0
 27 30  1  0  0  0  0
 28 26  1  0  0  0  0
 28 25  1  0  0  0  0
 30 29  1  0  0  0  0
 31  1  1  0  0  0  0
 32 31  1  0  0  0  0
 33 34  1  0  0  0  0
 33 32  1  0  0  0  0
 35 37  1  0  0  0  0
 35 34  1  0  0  0  0
 36 37  1  0  0  0  0
 38 31  1  0  0  0  0
 39 38  1  0  0  0  0
 40 41  1  0  0  0  0
 40 39  1  0  0  0  0
 41 42  1  0  0  0  0
 42 43  1  0  0  0  0
 43 44  1  0  0  0  0
 44 46  1  0  0  0  0
 46 45  1  6  0  0  0
 46 47  1  0  0  0  0
 47 48  1  1  0  0  0
 47 49  1  0  0  0  0
 49 50  2  0  0  0  0
 51 54  1  0  0  0  0
 52 53  1  0  0  0  0
 53 56  1  6  0  0  0
 54 49  1  6  0  0  0
 54 53  1  0  0  0  0
 55 51  1  0  0  0  0
 55 52  1  0  0  0  0
 57 56  1  0  0  0  0
 57 59  1  0  0  0  0
 58 57  2  0  0  0  0
M  END
>  <MODEL>
5

>  <REMARK>
 VINA RESULT:      -4.9      2.451      8.395
  Name = 
  30 active torsions:
  status: ('A' for Active; 'I' for Inactive)
    1  A    between atoms: N_1  and  C_16
    2  A    between atoms: N_1  and  C_25
    3  A    between atoms: N_1  and  C_29
    4  A    between atoms: C_4  and  C_17
    5  A    between atoms: C_6  and  C_19
    6  A    between atoms: C_6  and  C_35
    7  A    between atoms: N_9  and  C_37
    8  A    between atoms: N_9  and  C_43
    9  A    between atoms: C_12  and  C_46
   10  A    between atoms: C_12  and  C_54
   11  A    between atoms: N_14  and  N_55
   12  A    between atoms: N_14  and  C_59
   13  A    between atoms: C_16  and  C_31
   14  A    between atoms: C_17  and  C_18
   15  A    between atoms: C_21  and  N_30
   16  A    between atoms: C_21  and  N_55
   17  A    between atoms: C_23  and  C_41
   18  A    between atoms: C_23  and  C_49
   19  A    between atoms: N_24  and  C_58
   20  A    between atoms: C_25  and  O_48
   21  A    between atoms: C_26  and  C_29
   22  A    between atoms: C_28  and  C_43
   23  A    between atoms: C_28  and  O_47
   24  A    between atoms: N_30  and  C_31
   25  A    between atoms: C_32  and  C_37
   26  A    between atoms: C_35  and  C_57
   27  A    between atoms: C_41  and  O_47
   28  A    between atoms: C_46  and  O_48
   29  A    between atoms: C_49  and  C_50
   30  A    between atoms: C_57  and  C_59
                            x       y       z     vdW  Elec       q    Type
                         _______ _______ _______ _____ _____    ______ ____

>  <TORSDO>
F 30

$$$$
=
 OpenBabel11042414403D

 59 62  0  0  1  0  0  0  0  0999 V2000
  194.5530  172.3010  144.3510 C   0  0  0  0  0  2  0  0  0  0  0  0
  190.1230  172.7680  142.1520 O   0  0  0  0  0  0  0  0  0  0  0  0
  193.4660  174.2850  145.4120 C   0  0  0  0  0  3  0  0  0  0  0  0
  192.5510  176.2370  146.5690 C   0  0  0  0  0  1  0  0  0  0  0  0
  189.0900  174.6250  142.9780 N   0  0  0  0  0  0  0  0  0  0  0  0
  193.4040  173.2420  144.4940 C   0  0  0  0  0  0  0  0  0  0  0  0
  189.0970  175.7010  143.8080 C   0  0  0  0  0  3  0  0  0  0  0  0
  190.1410  173.7540  142.9410 C   0  0  0  0  0  0  0  0  0  0  0  0
  191.2510  173.9540  143.7760 C   0  0  0  0  0  0  0  0  0  0  0  0
  191.2760  175.0550  144.6710 C   0  0  0  0  0  0  0  0  0  0  0  0
  192.3070  173.0950  143.7130 N   0  0  0  0  0  0  0  0  0  0  0  0
  190.1720  175.9510  144.6640 C   0  0  0  0  0  0  0  0  0  0  0  0
  192.4110  175.1890  145.5190 C   0  0  0  0  0  0  0  0  0  0  0  0
  188.2480  174.8630  140.6970 C   0  0  0  0  0  1  0  0  0  0  0  0
  187.9270  174.4300  142.1180 C   0  0  0  0  0  2  0  0  0  0  0  0
  190.1160  177.2040  145.4790 C   0  0  0  0  0  2  0  0  0  0  0  0
  189.3910  176.9490  146.7880 C   0  0  0  0  0  2  0  0  0  0  0  0
  188.3150  175.8990  146.5950 C   0  0  0  0  0  2  0  0  0  0  0  0
  187.1220  176.5170  146.2150 O   0  0  0  0  0  0  0  0  0  0  0  0
  186.6390  177.1110  147.3830 C   0  0  0  0  0  2  0  0  0  0  0  0
  184.8240  178.5450  147.9550 O   0  0  0  0  0  1  0  0  0  0  0  0
  185.8630  178.3680  147.0370 C   0  0  2  0  0  3  0  0  0  0  0  0
  185.3190  178.2420  145.6920 N   0  0  0  0  0  2  0  0  0  0  0  0
  185.5510  179.4960  144.9900 C   0  0  0  0  0  2  0  0  0  0  0  0
  185.6220  178.2670  140.8760 C   0  0  0  0  0  2  0  0  0  0  0  0
  186.8040  178.3380  143.1550 C   0  0  0  0  0  2  0  0  0  0  0  0
  185.6370  179.2650  143.4900 C   0  0  0  0  0  3  0  0  0  0  0  0
  186.9490  178.1470  141.6390 C   0  0  0  0  0  2  0  0  0  0  0  0
  184.4470  177.8130  141.7340 C   0  0  0  0  0  2  0  0  0  0  0  0
  184.3060  178.6860  142.9900 C   0  0  0  0  0  2  0  0  0  0  0  0
  195.7590  172.8520  144.9580 N   0  0  0  0  0  0  0  0  0  0  0  0
  196.7570  173.1120  143.9130 C   0  0  0  0  0  2  0  0  0  0  0  0
  196.1540  173.4270  142.6880 O   0  0  0  0  0  0  0  0  0  0  0  0
  197.0020  174.3790  142.1150 C   0  0  0  0  0  2  0  0  0  0  0  0
  196.4720  175.7800  142.3670 C   0  0  0  0  0  2  0  0  0  0  0  0
  194.0930  175.9350  142.2660 O   0  0  0  0  0  1  0  0  0  0  0  0
  195.2560  176.0660  141.5080 C   0  0  0  0  0  2  0  0  0  0  0  0
  196.2820  171.8430  145.8690 C   0  0  0  0  0  2  0  0  0  0  0  0
  195.5750  170.5180  145.6460 C   0  0  0  0  0  2  0  0  0  0  0  0
  196.5640  169.4770  145.4190 N   0  0  0  0  0  2  0  0  0  0  0  0
  196.3800  169.0180  144.0560 C   0  0  0  0  0  2  0  0  0  0  0  0
  195.0400  168.4800  143.9070 N   0  0  0  0  0  2  0  0  0  0  0  0
  194.8010  168.3560  142.5340 N   0  0  0  0  0  2  0  0  0  0  0  0
  194.4430  169.6770  142.0510 C   0  0  0  0  0  2  0  0  0  0  0  0
  193.6390  168.4740  140.1380 O   0  0  0  0  0  1  0  0  0  0  0  0
  194.2800  169.6530  140.5390 C   0  0  1  0  0  3  0  0  0  0  0  0
  193.5090  170.8870  140.0710 C   0  0  2  0  0  3  0  0  0  0  0  0
  192.0620  170.5840  139.7110 C   0  0  0  0  0  1  0  0  0  0  0  0
  194.2070  171.5980  138.9520 C   0  0  0  0  0  0  0  0  0  0  0  0
  194.5890  170.9520  137.9890 O   0  0  0  0  0  0  0  0  0  0  0  0
  195.7580  173.4900  138.3430 C   0  0  0  0  0  2  0  0  0  0  0  0
  194.1030  175.2890  138.1710 C   0  0  0  0  0  2  0  0  0  0  0  0
  193.3790  173.9920  138.4840 C   0  0  2  0  0  3  0  0  0  0  0  0
  194.4740  173.0800  139.0290 C   0  0  1  0  0  3  0  0  0  0  0  0
  195.5760  174.9510  137.9810 C   0  0  0  0  0  2  0  0  0  0  0  0
  192.7270  173.4560  137.2080 C   0  0  0  0  0  2  0  0  0  0  0  0
  191.2440  173.4210  137.3500 C   0  0  0  0  0  0  0  0  0  0  0  0
  190.7140  173.5970  138.4780 O   0  0  0  0  0  1  0  0  0  0  0  0
  190.4420  173.2200  136.2360 O   0  0  0  0  0  0  0  0  0  0  0  0
  1  6  1  0  0  0  0
  1 31  1  0  0  0  0
  2  8  2  0  0  0  0
  3 13  1  0  0  0  0
  5  7  1  0  0  0  0
  6  3  2  0  0  0  0
  7 12  2  0  0  0  0
  8  5  1  0  0  0  0
  8  9  1  0  0  0  0
  9 10  1  0  0  0  0
 10 13  2  0  0  0  0
 11  9  2  0  0  0  0
 11  6  1  0  0  0  0
 12 10  1  0  0  0  0
 12 16  1  0  0  0  0
 13  4  1  0  0  0  0
 14 15  1  0  0  0  0
 15  5  1  0  0  0  0
 16 17  1  0  0  0  0
 18 17  1  0  0  0  0
 19 18  1  0  0  0  0
 19 20  1  0  0  0  0
 22 20  1  0  0  0  0
 22 21  1  1  0  0  0
 23 22  1  0  0  0  0
 24 23  1  0  0  0  0
 25 28  1  0  0  0  0
 25 29  1  0  0  0  0
 26 27  1  0  0  0  0
 27 24  1  0  0  0  0
 28 26  1  0  0  0  0
 29 30  1  0  0  0  0
 30 27  1  0  0  0  0
 31 38  1  0  0  0  0
 32 31  1  0  0  0  0
 33 32  1  0  0  0  0
 34 35  1  0  0  0  0
 34 33  1  0  0  0  0
 37 36  1  0  0  0  0
 37 35  1  0  0  0  0
 39 38  1  0  0  0  0
 40 39  1  0  0  0  0
 41 40  1  0  0  0  0
 42 41  1  0  0  0  0
 43 42  1  0  0  0  0
 44 43  1  0  0  0  0
 46 45  1  1  0  0  0
 46 44  1  0  0  0  0
 47 48  1  6  0  0  0
 47 46  1  0  0  0  0
 49 47  1  0  0  0  0
 50 49  2  0  0  0  0
 51 54  1  0  0  0  0
 52 53  1  0  0  0  0
 53 56  1  6  0  0  0
 53 54  1  0  0  0  0
 54 49  1  6  0  0  0
 55 52  1  0  0  0  0
 55 51  1  0  0  0  0
 56 57  1  0  0  0  0
 57 58  1  0  0  0  0
 59 57  2  0  0  0  0
M  END
>  <MODEL>
6

>  <REMARK>
 VINA RESULT:      -4.7      2.492     10.148
  Name = 
  30 active torsions:
  status: ('A' for Active; 'I' for Inactive)
    1  A    between atoms: N_1  and  C_16
    2  A    between atoms: N_1  and  C_25
    3  A    between atoms: N_1  and  C_29
    4  A    between atoms: C_4  and  C_17
    5  A    between atoms: C_6  and  C_19
    6  A    between atoms: C_6  and  C_35
    7  A    between atoms: N_9  and  C_37
    8  A    between atoms: N_9  and  C_43
    9  A    between atoms: C_12  and  C_46
   10  A    between atoms: C_12  and  C_54
   11  A    between atoms: N_14  and  N_55
   12  A    between atoms: N_14  and  C_59
   13  A    between atoms: C_16  and  C_31
   14  A    between atoms: C_17  and  C_18
   15  A    between atoms: C_21  and  N_30
   16  A    between atoms: C_21  and  N_55
   17  A    between atoms: C_23  and  C_41
   18  A    between atoms: C_23  and  C_49
   19  A    between atoms: N_24  and  C_58
   20  A    between atoms: C_25  and  O_48
   21  A    between atoms: C_26  and  C_29
   22  A    between atoms: C_28  and  C_43
   23  A    between atoms: C_28  and  O_47
   24  A    between atoms: N_30  and  C_31
   25  A    between atoms: C_32  and  C_37
   26  A    between atoms: C_35  and  C_57
   27  A    between atoms: C_41  and  O_47
   28  A    between atoms: C_46  and  O_48
   29  A    between atoms: C_49  and  C_50
   30  A    between atoms: C_57  and  C_59
                            x       y       z     vdW  Elec       q    Type
                         _______ _______ _______ _____ _____    ______ ____

>  <TORSDO>
F 30

$$$$
=
 OpenBabel11042414403D

 59 62  0  0  1  0  0  0  0  0999 V2000
  190.4980  175.7040  145.1930 C   0  0  0  0  0  2  0  0  0  0  0  0
  190.6210  171.2260  143.0470 O   0  0  0  0  0  0  0  0  0  0  0  0
  192.2500  175.8420  143.4180 C   0  0  0  0  0  3  0  0  0  0  0  0
  193.9840  176.1630  141.7210 C   0  0  0  0  0  1  0  0  0  0  0  0
  192.2730  171.2150  141.4750 N   0  0  0  0  0  0  0  0  0  0  0  0
  191.2850  175.0940  144.0820 C   0  0  0  0  0  0  0  0  0  0  0  0
  193.2720  171.8590  140.8180 C   0  0  0  0  0  3  0  0  0  0  0  0
  191.5360  171.8460  142.4360 C   0  0  0  0  0  0  0  0  0  0  0  0
  191.7960  173.1880  142.7550 C   0  0  0  0  0  0  0  0  0  0  0  0
  192.8180  173.8950  142.0680 C   0  0  0  0  0  0  0  0  0  0  0  0
  191.0740  173.8020  143.7330 N   0  0  0  0  0  0  0  0  0  0  0  0
  193.5770  173.1950  141.0900 C   0  0  0  0  0  0  0  0  0  0  0  0
  193.0140  175.2630  142.4070 C   0  0  0  0  0  0  0  0  0  0  0  0
  192.9530  169.3710  140.0230 C   0  0  0  0  0  1  0  0  0  0  0  0
  192.0140  169.8200  141.1300 C   0  0  0  0  0  2  0  0  0  0  0  0
  194.7450  173.7880  140.3670 C   0  0  0  0  0  2  0  0  0  0  0  0
  195.1160  172.9300  139.1710 C   0  0  0  0  0  2  0  0  0  0  0  0
  195.0850  173.7590  137.9030 C   0  0  0  0  0  2  0  0  0  0  0  0
  194.0220  173.3410  137.0980 O   0  0  0  0  0  0  0  0  0  0  0  0
  194.1420  171.9500  137.0430 C   0  0  0  0  0  2  0  0  0  0  0  0
  194.1020  171.6690  134.6770 O   0  0  0  0  0  1  0  0  0  0  0  0
  193.3780  171.4170  135.8450 C   0  0  2  0  0  3  0  0  0  0  0  0
  192.0800  172.0720  135.7730 N   0  0  0  0  0  2  0  0  0  0  0  0
  191.0520  171.0680  136.0130 C   0  0  0  0  0  2  0  0  0  0  0  0
  188.3410  173.1180  138.6380 C   0  0  0  0  0  2  0  0  0  0  0  0
  190.5030  171.7600  138.3580 C   0  0  0  0  0  2  0  0  0  0  0  0
  189.9720  171.6140  136.9330 C   0  0  0  0  0  3  0  0  0  0  0  0
  189.4060  172.2460  139.3160 C   0  0  0  0  0  2  0  0  0  0  0  0
  188.9290  173.9020  137.4690 C   0  0  0  0  0  2  0  0  0  0  0  0
  189.4720  172.9580  136.3860 C   0  0  0  0  0  2  0  0  0  0  0  0
  191.3720  176.3950  146.1350 N   0  0  0  0  0  0  0  0  0  0  0  0
  192.4290  175.4790  146.5820 C   0  0  0  0  0  2  0  0  0  0  0  0
  193.5860  176.1690  146.9650 O   0  0  0  0  0  0  0  0  0  0  0  0
  194.5680  175.7290  146.0730 C   0  0  0  0  0  2  0  0  0  0  0  0
  194.4030  174.2450  145.7950 C   0  0  0  0  0  2  0  0  0  0  0  0
  196.1080  174.7970  144.2190 O   0  0  0  0  0  1  0  0  0  0  0  0
  195.5090  173.7320  144.8920 C   0  0  0  0  0  2  0  0  0  0  0  0
  190.5570  176.7710  147.2820 C   0  0  0  0  0  2  0  0  0  0  0  0
  189.2690  177.4270  146.8180 C   0  0  0  0  0  2  0  0  0  0  0  0
  188.7990  178.3430  147.8440 N   0  0  0  0  0  2  0  0  0  0  0  0
  187.3500  178.3040  147.8050 C   0  0  0  0  0  2  0  0  0  0  0  0
  186.9130  176.9420  147.5580 N   0  0  0  0  0  2  0  0  0  0  0  0
  185.5130  176.9540  147.5750 N   0  0  0  0  0  2  0  0  0  0  0  0
  185.1020  178.2670  147.1120 C   0  0  0  0  0  2  0  0  0  0  0  0
  183.5210  179.0740  145.5000 O   0  0  0  0  0  1  0  0  0  0  0  0
  184.5800  178.1780  145.6870 C   0  0  1  0  0  3  0  0  0  0  0  0
  185.7110  178.4440  144.6930 C   0  0  2  0  0  3  0  0  0  0  0  0
  185.4810  179.6900  143.8500 C   0  0  0  0  0  1  0  0  0  0  0  0
  185.9980  177.2540  143.8320 C   0  0  0  0  0  0  0  0  0  0  0  0
  186.6980  176.3570  144.2760 O   0  0  0  0  0  0  0  0  0  0  0  0
  184.4800  178.2740  142.0960 C   0  0  0  0  0  2  0  0  0  0  0  0
  185.7480  177.6660  140.0880 C   0  0  0  0  0  2  0  0  0  0  0  0
  186.5170  177.1940  141.3090 C   0  0  2  0  0  3  0  0  0  0  0  0
  185.4710  177.1780  142.4200 C   0  0  1  0  0  3  0  0  0  0  0  0
  184.5290  178.4310  140.5890 C   0  0  0  0  0  2  0  0  0  0  0  0
  187.6740  178.1560  141.5810 C   0  0  0  0  0  2  0  0  0  0  0  0
  188.8980  177.4070  141.9800 C   0  0  0  0  0  0  0  0  0  0  0  0
  188.9440  176.1570  141.8460 O   0  0  0  0  0  0  0  0  0  0  0  0
  190.0000  178.0880  142.4780 O   0  0  0  0  0  1  0  0  0  0  0  0
  1 31  1  0  0  0  0
  3  6  1  0  0  0  0
  4 13  1  0  0  0  0
  5  8  1  0  0  0  0
  6  1  1  0  0  0  0
  7 12  2  0  0  0  0
  7  5  1  0  0  0  0
  8  9  1  0  0  0  0
  8  2  2  0  0  0  0
  9 11  1  0  0  0  0
 10 13  1  0  0  0  0
 10  9  2  0  0  0  0
 11  6  2  0  0  0  0
 12 10  1  0  0  0  0
 13  3  2  0  0  0  0
 14 15  1  0  0  0  0
 15  5  1  0  0  0  0
 16 12  1  0  0  0  0
 17 16  1  0  0  0  0
 18 17  1  0  0  0  0
 19 18  1  0  0  0  0
 20 19  1  0  0  0  0
 22 21  1  6  0  0  0
 22 20  1  0  0  0  0
 23 22  1  0  0  0  0
 23 24  1  0  0  0  0
 24 27  1  0  0  0  0
 25 28  1  0  0  0  0
 26 28  1  0  0  0  0
 27 26  1  0  0  0  0
 29 25  1  0  0  0  0
 30 27  1  0  0  0  0
 30 29  1  0  0  0  0
 31 32  1  0  0  0  0
 31 38  1  0  0  0  0
 32 33  1  0  0  0  0
 34 33  1  0  0  0  0
 35 34  1  0  0  0  0
 36 37  1  0  0  0  0
 37 35  1  0  0  0  0
 39 38  1  0  0  0  0
 39 40  1  0  0  0  0
 41 40  1  0  0  0  0
 42 43  1  0  0  0  0
 42 41  1  0  0  0  0
 44 43  1  0  0  0  0
 46 45  1  1  0  0  0
 46 44  1  0  0  0  0
 47 48  1  6  0  0  0
 47 46  1  0  0  0  0
 49 50  2  0  0  0  0
 49 47  1  0  0  0  0
 51 54  1  0  0  0  0
 52 55  1  0  0  0  0
 52 53  1  0  0  0  0
 53 56  1  1  0  0  0
 53 54  1  0  0  0  0
 54 49  1  1  0  0  0
 55 51  1  0  0  0  0
 56 57  1  0  0  0  0
 57 59  1  0  0  0  0
 58 57  2  0  0  0  0
M  END
>  <MODEL>
7

>  <REMARK>
 VINA RESULT:      -4.6      2.524      6.362
  Name = 
  30 active torsions:
  status: ('A' for Active; 'I' for Inactive)
    1  A    between atoms: N_1  and  C_16
    2  A    between atoms: N_1  and  C_25
    3  A    between atoms: N_1  and  C_29
    4  A    between atoms: C_4  and  C_17
    5  A    between atoms: C_6  and  C_19
    6  A    between atoms: C_6  and  C_35
    7  A    between atoms: N_9  and  C_37
    8  A    between atoms: N_9  and  C_43
    9  A    between atoms: C_12  and  C_46
   10  A    between atoms: C_12  and  C_54
   11  A    between atoms: N_14  and  N_55
   12  A    between atoms: N_14  and  C_59
   13  A    between atoms: C_16  and  C_31
   14  A    between atoms: C_17  and  C_18
   15  A    between atoms: C_21  and  N_30
   16  A    between atoms: C_21  and  N_55
   17  A    between atoms: C_23  and  C_41
   18  A    between atoms: C_23  and  C_49
   19  A    between atoms: N_24  and  C_58
   20  A    between atoms: C_25  and  O_48
   21  A    between atoms: C_26  and  C_29
   22  A    between atoms: C_28  and  C_43
   23  A    between atoms: C_28  and  O_47
   24  A    between atoms: N_30  and  C_31
   25  A    between atoms: C_32  and  C_37
   26  A    between atoms: C_35  and  C_57
   27  A    between atoms: C_41  and  O_47
   28  A    between atoms: C_46  and  O_48
   29  A    between atoms: C_49  and  C_50
   30  A    between atoms: C_57  and  C_59
                            x       y       z     vdW  Elec       q    Type
                         _______ _______ _______ _____ _____    ______ ____

>  <TORSDO>
F 30

$$$$
=
 OpenBabel11042414403D

 59 62  0  0  1  0  0  0  0  0999 V2000
  187.9400  174.9790  141.7000 C   0  0  0  0  0  2  0  0  0  0  0  0
  189.0860  172.6140  137.4840 O   0  0  0  0  0  0  0  0  0  0  0  0
  189.3530  173.0310  142.3690 C   0  0  0  0  0  3  0  0  0  0  0  0
  190.7300  171.1880  143.2030 C   0  0  0  0  0  1  0  0  0  0  0  0
  190.2920  170.7480  137.9990 N   0  0  0  0  0  0  0  0  0  0  0  0
  188.7420  173.7680  141.3610 C   0  0  0  0  0  0  0  0  0  0  0  0
  190.8680  169.9430  138.9280 C   0  0  0  0  0  3  0  0  0  0  0  0
  189.6300  171.8860  138.3610 C   0  0  0  0  0  0  0  0  0  0  0  0
  189.5430  172.2490  139.7140 C   0  0  0  0  0  0  0  0  0  0  0  0
  190.1570  171.4410  140.7070 C   0  0  0  0  0  0  0  0  0  0  0  0
  188.8580  173.3720  140.0690 N   0  0  0  0  0  0  0  0  0  0  0  0
  190.8180  170.2530  140.2900 C   0  0  0  0  0  0  0  0  0  0  0  0
  190.0690  171.8760  142.0580 C   0  0  0  0  0  0  0  0  0  0  0  0
  191.7580  169.7510  136.3180 C   0  0  0  0  0  1  0  0  0  0  0  0
  190.3920  170.3570  136.5960 C   0  0  0  0  0  2  0  0  0  0  0  0
  191.4160  169.2610  141.2360 C   0  0  0  0  0  2  0  0  0  0  0  0
  192.9320  169.3000  141.1540 C   0  0  0  0  0  2  0  0  0  0  0  0
  193.5370  168.9720  142.5040 C   0  0  0  0  0  2  0  0  0  0  0  0
  194.7340  169.6750  142.6620 O   0  0  0  0  0  0  0  0  0  0  0  0
  195.1520  169.9650  141.3610 C   0  0  0  0  0  2  0  0  0  0  0  0
  195.5980  172.1390  142.2290 O   0  0  0  0  0  1  0  0  0  0  0  0
  196.1000  171.1490  141.3800 C   0  0  2  0  0  3  0  0  0  0  0  0
  196.2360  171.6780  140.0300 N   0  0  0  0  0  2  0  0  0  0  0  0
  194.9650  171.4980  139.3430 C   0  0  0  0  0  2  0  0  0  0  0  0
  193.7700  175.2530  137.6340 C   0  0  0  0  0  2  0  0  0  0  0  0
  193.0880  172.9410  138.5200 C   0  0  0  0  0  2  0  0  0  0  0  0
  194.6030  172.7430  138.5480 C   0  0  0  0  0  3  0  0  0  0  0  0
  192.6990  174.1550  137.6650 C   0  0  0  0  0  2  0  0  0  0  0  0
  194.5690  175.2840  138.9330 C   0  0  0  0  0  2  0  0  0  0  0  0
  195.3120  173.9590  139.1590 C   0  0  0  0  0  2  0  0  0  0  0  0
  188.7030  176.1980  141.4520 N   0  0  0  0  0  0  0  0  0  0  0  0
  190.0180  176.0900  142.0960 C   0  0  0  0  0  2  0  0  0  0  0  0
  190.3750  177.2770  142.7480 O   0  0  0  0  0  0  0  0  0  0  0  0
  191.7230  177.1050  143.0750 C   0  0  0  0  0  2  0  0  0  0  0  0
  191.9520  175.7260  143.6700 C   0  0  0  0  0  2  0  0  0  0  0  0
  194.1070  176.1490  142.7370 O   0  0  0  0  0  1  0  0  0  0  0  0
  193.2640  175.1350  143.1900 C   0  0  0  0  0  2  0  0  0  0  0  0
  187.9670  177.2970  142.0630 C   0  0  0  0  0  2  0  0  0  0  0  0
  186.5360  177.3150  141.5590 C   0  0  0  0  0  2  0  0  0  0  0  0
  185.6310  177.0680  142.6690 N   0  0  0  0  0  2  0  0  0  0  0  0
  184.4350  177.8460  142.4130 C   0  0  0  0  0  2  0  0  0  0  0  0
  184.4530  179.0390  143.2400 N   0  0  0  0  0  2  0  0  0  0  0  0
  185.4920  178.8770  144.1640 N   0  0  0  0  0  2  0  0  0  0  0  0
  185.1770  179.7250  145.2990 C   0  0  0  0  0  2  0  0  0  0  0  0
  184.4570  178.9560  147.4540 O   0  0  0  0  0  1  0  0  0  0  0  0
  185.5600  179.0260  146.5940 C   0  0  1  0  0  3  0  0  0  0  0  0
  186.1180  177.6340  146.2980 C   0  0  2  0  0  3  0  0  0  0  0  0
  185.1150  176.5220  146.5660 C   0  0  0  0  0  1  0  0  0  0  0  0
  187.4100  177.3800  147.0100 C   0  0  0  0  0  0  0  0  0  0  0  0
  187.8850  178.2620  147.7080 O   0  0  0  0  0  0  0  0  0  0  0  0
  188.2480  175.6370  145.3910 C   0  0  0  0  0  2  0  0  0  0  0  0
  190.2140  174.8790  146.6430 C   0  0  0  0  0  2  0  0  0  0  0  0
  189.5520  176.0060  147.4150 C   0  0  2  0  0  3  0  0  0  0  0  0
  188.1420  176.0720  146.8360 C   0  0  1  0  0  3  0  0  0  0  0  0
  189.4560  174.7230  145.3300 C   0  0  0  0  0  2  0  0  0  0  0  0
  190.3490  177.2950  147.2110 C   0  0  0  0  0  2  0  0  0  0  0  0
  191.5810  177.2900  148.0490 C   0  0  0  0  0  0  0  0  0  0  0  0
  191.5800  177.8480  149.1770 O   0  0  0  0  0  1  0  0  0  0  0  0
  192.7270  176.6490  147.5990 O   0  0  0  0  0  0  0  0  0  0  0  0
  2  8  2  0  0  0  0
  5  8  1  0  0  0  0
  5  7  1  0  0  0  0
  6  1  1  0  0  0  0
  6  3  2  0  0  0  0
  7 12  2  0  0  0  0
  8  9  1  0  0  0  0
  9 11  2  0  0  0  0
  9 10  1  0  0  0  0
 10 13  2  0  0  0  0
 11  6  1  0  0  0  0
 12 10  1  0  0  0  0
 12 16  1  0  0  0  0
 13  3  1  0  0  0  0
 13  4  1  0  0  0  0
 14 15  1  0  0  0  0
 15  5  1  0  0  0  0
 17 16  1  0  0  0  0
 17 18  1  0  0  0  0
 18 19  1  0  0  0  0
 20 22  1  0  0  0  0
 20 19  1  0  0  0  0
 22 21  1  1  0  0  0
 23 22  1  0  0  0  0
 24 23  1  0  0  0  0
 25 28  1  0  0  0  0
 25 29  1  0  0  0  0
 26 27  1  0  0  0  0
 27 30  1  0  0  0  0
 27 24  1  0  0  0  0
 28 26  1  0  0  0  0
 29 30  1  0  0  0  0
 31  1  1  0  0  0  0
 31 38  1  0  0  0  0
 31 32  1  0  0  0  0
 32 33  1  0  0  0  0
 33 34  1  0  0  0  0
 34 35  1  0  0  0  0
 36 37  1  0  0  0  0
 37 35  1  0  0  0  0
 39 38  1  0  0  0  0
 39 40  1  0  0  0  0
 41 40  1  0  0  0  0
 41 42  1  0  0  0  0
 42 43  1  0  0  0  0
 43 44  1  0  0  0  0
 44 46  1  0  0  0  0
 46 45  1  1  0  0  0
 47 48  1  1  0  0  0
 47 46  1  0  0  0  0
 47 49  1  0  0  0  0
 49 50  2  0  0  0  0
 51 54  1  0  0  0  0
 52 53  1  0  0  0  0
 53 56  1  6  0  0  0
 54 49  1  6  0  0  0
 54 53  1  0  0  0  0
 55 51  1  0  0  0  0
 55 52  1  0  0  0  0
 56 57  1  0  0  0  0
 57 58  1  0  0  0  0
 59 57  2  0  0  0  0
M  END
>  <MODEL>
8

>  <REMARK>
 VINA RESULT:      -4.3      2.505      4.353
  Name = 
  30 active torsions:
  status: ('A' for Active; 'I' for Inactive)
    1  A    between atoms: N_1  and  C_16
    2  A    between atoms: N_1  and  C_25
    3  A    between atoms: N_1  and  C_29
    4  A    between atoms: C_4  and  C_17
    5  A    between atoms: C_6  and  C_19
    6  A    between atoms: C_6  and  C_35
    7  A    between atoms: N_9  and  C_37
    8  A    between atoms: N_9  and  C_43
    9  A    between atoms: C_12  and  C_46
   10  A    between atoms: C_12  and  C_54
   11  A    between atoms: N_14  and  N_55
   12  A    between atoms: N_14  and  C_59
   13  A    between atoms: C_16  and  C_31
   14  A    between atoms: C_17  and  C_18
   15  A    between atoms: C_21  and  N_30
   16  A    between atoms: C_21  and  N_55
   17  A    between atoms: C_23  and  C_41
   18  A    between atoms: C_23  and  C_49
   19  A    between atoms: N_24  and  C_58
   20  A    between atoms: C_25  and  O_48
   21  A    between atoms: C_26  and  C_29
   22  A    between atoms: C_28  and  C_43
   23  A    between atoms: C_28  and  O_47
   24  A    between atoms: N_30  and  C_31
   25  A    between atoms: C_32  and  C_37
   26  A    between atoms: C_35  and  C_57
   27  A    between atoms: C_41  and  O_47
   28  A    between atoms: C_46  and  O_48
   29  A    between atoms: C_49  and  C_50
   30  A    between atoms: C_57  and  C_59
                            x       y       z     vdW  Elec       q    Type
                         _______ _______ _______ _____ _____    ______ ____

>  <TORSDO>
F 30

$$$$
=
 OpenBabel11042414403D

 59 62  0  0  1  0  0  0  0  0999 V2000
  191.9100  173.4900  143.3670 C   0  0  0  0  0  2  0  0  0  0  0  0
  194.4310  174.8680  139.3150 O   0  0  0  0  0  0  0  0  0  0  0  0
  190.3750  173.0920  141.4360 C   0  0  0  0  0  3  0  0  0  0  0  0
  188.7490  172.6260  139.6680 C   0  0  0  0  0  1  0  0  0  0  0  0
  193.0720  174.6430  137.4970 N   0  0  0  0  0  0  0  0  0  0  0  0
  191.6140  173.5140  141.9050 C   0  0  0  0  0  0  0  0  0  0  0  0
  191.8680  174.3040  136.9670 C   0  0  0  0  0  3  0  0  0  0  0  0
  193.3110  174.5320  138.8370 C   0  0  0  0  0  0  0  0  0  0  0  0
  192.3090  174.0510  139.6940 C   0  0  0  0  0  0  0  0  0  0  0  0
  191.0490  173.6650  139.1660 C   0  0  0  0  0  0  0  0  0  0  0  0
  192.5470  173.9690  141.0330 N   0  0  0  0  0  0  0  0  0  0  0  0
  190.8330  173.8160  137.7680 C   0  0  0  0  0  0  0  0  0  0  0  0
  190.0830  173.1520  140.0750 C   0  0  0  0  0  0  0  0  0  0  0  0
  193.4740  175.9570  135.4770 C   0  0  0  0  0  1  0  0  0  0  0  0
  194.1040  175.1390  136.5930 C   0  0  0  0  0  2  0  0  0  0  0  0
  189.5230  173.5460  137.0980 C   0  0  0  0  0  2  0  0  0  0  0  0
  189.7450  173.1230  135.6570 C   0  0  0  0  0  2  0  0  0  0  0  0
  189.9100  171.6180  135.5740 C   0  0  0  0  0  2  0  0  0  0  0  0
  190.6490  171.1690  136.6700 O   0  0  0  0  0  0  0  0  0  0  0  0
  190.9850  169.8500  136.3570 C   0  0  0  0  0  2  0  0  0  0  0  0
  189.6760  169.4160  138.3010 O   0  0  0  0  0  1  0  0  0  0  0  0
  190.7830  168.9670  137.5740 C   0  0  2  0  0  3  0  0  0  0  0  0
  191.9750  169.0170  138.4090 N   0  0  0  0  0  2  0  0  0  0  0  0
  191.6660  169.8040  139.5940 C   0  0  0  0  0  2  0  0  0  0  0  0
  195.1190  169.8670  142.1470 C   0  0  0  0  0  2  0  0  0  0  0  0
  192.5680  170.0610  141.9170 C   0  0  0  0  0  2  0  0  0  0  0  0
  192.9150  170.0310  140.4300 C   0  0  0  0  0  3  0  0  0  0  0  0
  193.8070  170.3560  142.7750 C   0  0  0  0  0  2  0  0  0  0  0  0
  194.8930  168.6290  141.2860 C   0  0  0  0  0  2  0  0  0  0  0  0
  193.9390  168.9300  140.1200 C   0  0  0  0  0  2  0  0  0  0  0  0
  192.1800  174.8330  143.8680 N   0  0  0  0  0  0  0  0  0  0  0  0
  193.6080  174.9550  144.1880 C   0  0  0  0  0  2  0  0  0  0  0  0
  194.3160  175.5950  143.1630 O   0  0  0  0  0  0  0  0  0  0  0  0
  195.6100  175.7430  143.6690 C   0  0  0  0  0  2  0  0  0  0  0  0
  196.4650  174.5440  143.2950 C   0  0  0  0  0  2  0  0  0  0  0  0
  196.8220  173.1130  145.1700 O   0  0  0  0  0  1  0  0  0  0  0  0
  197.3870  174.1540  144.4340 C   0  0  0  0  0  2  0  0  0  0  0  0
  191.4070  174.9990  145.0910 C   0  0  0  0  0  2  0  0  0  0  0  0
  191.9070  176.2020  145.8700 C   0  0  0  0  0  2  0  0  0  0  0  0
  191.1830  176.2970  147.1260 N   0  0  0  0  0  2  0  0  0  0  0  0
  190.0540  175.3920  147.0260 C   0  0  0  0  0  2  0  0  0  0  0  0
  188.8210  176.1550  147.0860 N   0  0  0  0  0  2  0  0  0  0  0  0
  189.1820  177.5000  147.2330 N   0  0  0  0  0  2  0  0  0  0  0  0
  187.9970  178.2040  147.6880 C   0  0  0  0  0  2  0  0  0  0  0  0
  185.9300  177.1380  148.2750 O   0  0  0  0  0  1  0  0  0  0  0  0
  186.7470  177.4920  147.1940 C   0  0  1  0  0  3  0  0  0  0  0  0
  185.9940  178.3750  146.1990 C   0  0  2  0  0  3  0  0  0  0  0  0
  184.5620  178.6640  146.6250 C   0  0  0  0  0  1  0  0  0  0  0  0
  186.0440  177.8270  144.8070 C   0  0  0  0  0  0  0  0  0  0  0  0
  185.1850  177.0360  144.4510 O   0  0  0  0  0  0  0  0  0  0  0  0
  188.2760  177.1880  143.8220 C   0  0  0  0  0  2  0  0  0  0  0  0
  188.0480  178.2790  141.6390 C   0  0  0  0  0  2  0  0  0  0  0  0
  186.7610  178.4820  142.4200 C   0  0  2  0  0  3  0  0  0  0  0  0
  187.1610  178.2090  143.8670 C   0  0  1  0  0  3  0  0  0  0  0  0
  188.9500  177.3820  142.4780 C   0  0  0  0  0  2  0  0  0  0  0  0
  185.6940  177.5190  141.8970 C   0  0  0  0  0  2  0  0  0  0  0  0
  184.5620  178.2690  141.2870 C   0  0  0  0  0  0  0  0  0  0  0  0
  183.4250  178.2440  141.8260 O   0  0  0  0  0  1  0  0  0  0  0  0
  184.7620  179.0180  140.1350 O   0  0  0  0  0  0  0  0  0  0  0  0
  1 31  1  0  0  0  0
  3  6  1  0  0  0  0
  4 13  1  0  0  0  0
  5  8  1  0  0  0  0
  6  1  1  0  0  0  0
  7  5  1  0  0  0  0
  7 12  2  0  0  0  0
  8  2  2  0  0  0  0
  8  9  1  0  0  0  0
  9 11  1  0  0  0  0
 10  9  2  0  0  0  0
 10 13  1  0  0  0  0
 11  6  2  0  0  0  0
 12 10  1  0  0  0  0
 13  3  2  0  0  0  0
 14 15  1  0  0  0  0
 15  5  1  0  0  0  0
 16 12  1  0  0  0  0
 17 16  1  0  0  0  0
 18 17  1  0  0  0  0
 18 19  1  0  0  0  0
 20 19  1  0  0  0  0
 20 22  1  0  0  0  0
 22 21  1  1  0  0  0
 22 23  1  0  0  0  0
 23 24  1  0  0  0  0
 24 27  1  0  0  0  0
 25 28  1  0  0  0  0
 26 28  1  0  0  0  0
 27 26  1  0  0  0  0
 29 25  1  0  0  0  0
 30 27  1  0  0  0  0
 30 29  1  0  0  0  0
 31 32  1  0  0  0  0
 31 38  1  0  0  0  0
 33 34  1  0  0  0  0
 33 32  1  0  0  0  0
 35 34  1  0  0  0  0
 35 37  1  0  0  0  0
 37 36  1  0  0  0  0
 38 39  1  0  0  0  0
 39 40  1  0  0  0  0
 41 42  1  0  0  0  0
 41 40  1  0  0  0  0
 42 43  1  0  0  0  0
 43 44  1  0  0  0  0
 46 44  1  0  0  0  0
 46 45  1  1  0  0  0
 47 48  1  1  0  0  0
 47 46  1  0  0  0  0
 49 47  1  0  0  0  0
 50 49  2  0  0  0  0
 51 54  1  0  0  0  0
 52 53  1  0  0  0  0
 52 55  1  0  0  0  0
 53 56  1  6  0  0  0
 53 54  1  0  0  0  0
 54 49  1  1  0  0  0
 55 51  1  0  0  0  0
 57 58  1  0  0  0  0
 57 56  1  0  0  0  0
 59 57  2  0  0  0  0
M  END
>  <MODEL>
9

>  <REMARK>
 VINA RESULT:      -4.2      3.003      6.076
  Name = 
  30 active torsions:
  status: ('A' for Active; 'I' for Inactive)
    1  A    between atoms: N_1  and  C_16
    2  A    between atoms: N_1  and  C_25
    3  A    between atoms: N_1  and  C_29
    4  A    between atoms: C_4  and  C_17
    5  A    between atoms: C_6  and  C_19
    6  A    between atoms: C_6  and  C_35
    7  A    between atoms: N_9  and  C_37
    8  A    between atoms: N_9  and  C_43
    9  A    between atoms: C_12  and  C_46
   10  A    between atoms: C_12  and  C_54
   11  A    between atoms: N_14  and  N_55
   12  A    between atoms: N_14  and  C_59
   13  A    between atoms: C_16  and  C_31
   14  A    between atoms: C_17  and  C_18
   15  A    between atoms: C_21  and  N_30
   16  A    between atoms: C_21  and  N_55
   17  A    between atoms: C_23  and  C_41
   18  A    between atoms: C_23  and  C_49
   19  A    between atoms: N_24  and  C_58
   20  A    between atoms: C_25  and  O_48
   21  A    between atoms: C_26  and  C_29
   22  A    between atoms: C_28  and  C_43
   23  A    between atoms: C_28  and  O_47
   24  A    between atoms: N_30  and  C_31
   25  A    between atoms: C_32  and  C_37
   26  A    between atoms: C_35  and  C_57
   27  A    between atoms: C_41  and  O_47
   28  A    between atoms: C_46  and  O_48
   29  A    between atoms: C_49  and  C_50
   30  A    between atoms: C_57  and  C_59
                            x       y       z     vdW  Elec       q    Type
                         _______ _______ _______ _____ _____    ______ ____

>  <TORSDO>
F 30

$$$$
