=
 OpenBabel11042419113D

 51 55  0  0  1  0  0  0  0  0999 V2000
  185.8640  176.7530  145.8510 C   0  0  0  0  0  3  0  0  0  0  0  0
  191.1110  178.5950  142.7700 C   0  0  0  0  0  1  0  0  0  0  0  0
  188.4750  177.4350  145.0750 C   0  0  0  0  0  0  0  0  0  0  0  0
  192.4310  175.3750  144.9820 C   0  0  0  0  0  3  0  0  0  0  0  0
  190.2440  175.2400  146.1070 C   0  0  0  0  0  0  0  0  0  0  0  0
  190.4530  177.5050  143.5780 C   0  0  1  0  0  3  0  0  0  0  0  0
  191.1420  177.3910  144.9200 C   0  0  2  0  0  3  0  0  0  0  0  0
  187.3650  177.8690  144.3260 C   0  0  0  0  0  3  0  0  0  0  0  0
  189.3420  176.0150  146.8850 N   0  0  0  0  0  2  0  0  0  0  0  0
  191.9250  172.9810  144.7880 C   0  0  0  0  0  0  0  0  0  0  0  0
  190.6070  172.9500  145.0750 C   0  0  0  0  0  0  0  0  0  0  0  0
  186.0630  177.5240  144.7000 C   0  0  0  0  0  0  0  0  0  0  0  0
  191.2580  175.9400  145.2820 C   0  0  0  0  0  0  0  0  0  0  0  0
  186.9570  176.3070  146.5980 C   0  0  0  0  0  3  0  0  0  0  0  0
  192.8220  174.0020  145.4110 C   0  0  0  0  0  2  0  0  0  0  0  0
  189.9470  173.9400  145.9630 C   0  0  0  0  0  3  0  0  0  0  0  0
  189.7880  178.1120  144.7930 C   0  0  2  0  0  3  0  0  0  0  0  0
  188.2600  176.6450  146.2200 C   0  0  0  0  0  0  0  0  0  0  0  0
  189.0330  171.2360  145.5800 F   0  0  0  0  0  0  0  0  0  0  0  0
  189.7470  171.8330  144.5570 C   0  0  1  0  0  3  0  0  0  0  0  0
  188.8200  172.2880  143.4290 C   0  0  0  0  0  2  0  0  0  0  0  0
  189.5220  172.4190  142.1610 N   0  0  0  0  0  2  0  0  0  0  0  0
  190.8320  174.6660  141.7060 O   0  0  0  0  0  0  0  0  0  0  0  0
  189.4560  174.0720  141.6160 S   0  0  0  0  0  0  0  0  0  0  0  0
  188.5230  174.8450  142.5130 O   0  0  0  0  0  0  0  0  0  0  0  0
  188.8940  174.2060  139.9270 C   0  0  0  0  0  2  0  0  0  0  0  0
  190.3090  172.8430  138.3560 C   0  0  0  0  0  0  0  0  0  0  0  0
  189.1760  172.9770  139.2130 N   0  0  0  0  0  2  0  0  0  0  0  0
  191.0870  173.8180  138.1630 O   0  0  0  0  0  0  0  0  0  0  0  0
  190.5760  171.5240  137.6970 C   0  0  1  0  0  3  0  0  0  0  0  0
  191.0510  171.7090  136.3900 O   0  0  0  0  0  0  0  0  0  0  0  0
  190.1350  171.0340  135.5770 C   0  0  0  0  0  1  0  0  0  0  0  0
  191.5540  170.7030  138.4910 C   0  0  0  0  0  0  0  0  0  0  0  0
  192.7670  171.0440  138.5380 O   0  0  0  0  0  0  0  0  0  0  0  0
  191.1100  169.4640  139.1510 C   0  0  0  0  0  0  0  0  0  0  0  0
  190.2400  168.7340  138.6110 O   0  0  0  0  0  0  0  0  0  0  0  0
  191.8140  168.9730  140.7060 S   0  0  0  0  0  3  0  0  0  0  0  0
  190.6990  169.2670  141.7040 O   0  0  0  0  0  0  0  0  0  0  0  0
  184.9940  177.9910  143.9360 O   0  0  0  0  0  0  0  0  0  0  0  0
  183.5380  178.1840  142.0360 C   0  0  0  0  0  1  0  0  0  0  0  0
  184.9360  177.8490  142.5230 C   0  0  0  0  0  2  0  0  0  0  0  0
  192.5580  171.8880  143.9690 C   0  0  0  0  0  2  0  0  0  0  0  0
  193.6280  171.1300  144.7360 C   0  0  0  0  0  2  0  0  0  0  0  0
  194.9420  170.5940  143.5890 S   0  0  0  0  0  0  0  0  0  0  0  0
  196.1270  175.3690  144.2800 C   0  0  0  0  0  1  0  0  0  0  0  0
  196.0900  171.9800  145.6230 N   0  0  0  0  0  2  0  0  0  0  0  0
  196.0480  173.1350  143.5350 C   0  0  1  0  0  3  0  0  0  0  0  0
  196.8600  173.5360  145.9820 S   0  0  0  0  0  0  0  0  0  0  0  0
  196.1980  171.7860  144.1920 C   0  0  2  0  0  3  0  0  0  0  0  0
  196.8310  174.0880  144.2960 N   0  0  0  0  0  0  0  0  0  0  0  0
  196.5790  173.0640  142.1120 C   0  0  0  0  0  1  0  0  0  0  0  0
  1 14  1  0  0  0  0
  3 18  1  0  0  0  0
  4 13  2  0  0  0  0
  4 15  1  0  0  0  0
  5  9  1  0  0  0  0
  6  2  1  6  0  0  0
  6 17  1  0  0  0  0
  6  7  1  0  0  0  0
  7 13  1  1  0  0  0
  8 12  1  0  0  0  0
  8  3  2  0  0  0  0
 10 11  2  0  0  0  0
 10 15  1  0  0  0  0
 11 16  1  0  0  0  0
 12  1  2  0  0  0  0
 13  5  1  0  0  0  0
 16  5  2  0  0  0  0
 17  7  1  0  0  0  0
 17  3  1  1  0  0  0
 18 14  2  0  0  0  0
 18  9  1  0  0  0  0
 20 11  1  0  0  0  0
 20 19  1  1  0  0  0
 21 20  1  0  0  0  0
 22 21  1  0  0  0  0
 24 23  2  0  0  0  0
 24 22  1  0  0  0  0
 24 25  2  0  0  0  0
 26 24  1  0  0  0  0
 27 28  1  0  0  0  0
 28 26  1  0  0  0  0
 29 27  2  0  0  0  0
 30 31  1  6  0  0  0
 30 27  1  0  0  0  0
 30 33  1  0  0  0  0
 32 31  1  0  0  0  0
 33 34  2  0  0  0  0
 33 35  1  0  0  0  0
 35 37  1  0  0  0  0
 36 35  2  0  0  0  0
 37 38  2  0  0  0  0
 39 12  1  0  0  0  0
 40 41  1  0  0  0  0
 41 39  1  0  0  0  0
 42 43  1  0  0  0  0
 42 10  1  0  0  0  0
 44 43  1  0  0  0  0
 45 50  1  0  0  0  0
 46 48  1  0  0  0  0
 47 51  1  6  0  0  0
 47 49  1  0  0  0  0
 47 50  1  0  0  0  0
 49 44  1  6  0  0  0
 49 46  1  0  0  0  0
 50 48  1  0  0  0  0
M  END
>  <MODEL>
1

>  <REMARK>
 VINA RESULT:      -6.1      0.000      0.000
  Name = 
  17 active torsions:
  status: ('A' for Active; 'I' for Inactive)
    1  A    between atoms: C_3  and  C_26
    2  A    between atoms: C_3  and  C_51
    3  A    between atoms: O_5  and  C_15
    4  A    between atoms: C_8  and  C_15
    5  A    between atoms: C_8  and  C_36
    6  A    between atoms: C_14  and  C_15
    7  A    between atoms: S_18  and  C_36
    8  A    between atoms: S_20  and  C_38
    9  A    between atoms: S_20  and  N_44
   10  A    between atoms: O_24  and  C_32
   11  A    between atoms: O_24  and  C_35
   12  A    between atoms: S_25  and  C_30
   13  A    between atoms: S_25  and  C_51
   14  A    between atoms: C_28  and  C_39
   15  A    between atoms: C_28  and  N_44
   16  A    between atoms: C_31  and  C_39
   17  A    between atoms: C_38  and  N_43
                            x       y       z     vdW  Elec       q    Type
                         _______ _______ _______ _____ _____    ______ ____

>  <TORSDO>
F 17

$$$$
=
 OpenBabel11042419113D

 51 55  0  0  1  0  0  0  0  0999 V2000
  196.8170  176.0760  140.8780 C   0  0  0  0  0  3  0  0  0  0  0  0
  196.3360  171.9520  145.6930 C   0  0  0  0  0  1  0  0  0  0  0  0
  196.5420  174.8100  143.3690 C   0  0  0  0  0  0  0  0  0  0  0  0
  193.5080  174.7990  146.6390 C   0  0  0  0  0  3  0  0  0  0  0  0
  194.2580  176.1870  144.7490 C   0  0  0  0  0  0  0  0  0  0  0  0
  195.6990  173.1140  144.9720 C   0  0  1  0  0  3  0  0  0  0  0  0
  195.7250  174.3320  145.8680 C   0  0  2  0  0  3  0  0  0  0  0  0
  197.0730  174.1180  142.2650 C   0  0  0  0  0  3  0  0  0  0  0  0
  195.4160  176.8220  144.2240 N   0  0  0  0  0  2  0  0  0  0  0  0
  191.3740  175.3590  145.5640 C   0  0  0  0  0  0  0  0  0  0  0  0
  191.7790  175.8100  144.3580 C   0  0  0  0  0  0  0  0  0  0  0  0
  197.2020  174.7380  141.0190 C   0  0  0  0  0  0  0  0  0  0  0  0
  194.4300  175.0740  145.7140 C   0  0  0  0  0  0  0  0  0  0  0  0
  196.2780  176.7730  141.9640 C   0  0  0  0  0  3  0  0  0  0  0  0
  192.2250  175.5460  146.7780 C   0  0  0  0  0  2  0  0  0  0  0  0
  193.0960  176.4570  144.1360 C   0  0  0  0  0  3  0  0  0  0  0  0
  196.7410  174.1810  144.7210 C   0  0  2  0  0  3  0  0  0  0  0  0
  196.1410  176.1500  143.2080 C   0  0  0  0  0  0  0  0  0  0  0  0
  190.7400  176.9790  142.5640 F   0  0  0  0  0  0  0  0  0  0  0  0
  190.8540  175.7450  143.1770 C   0  0  1  0  0  3  0  0  0  0  0  0
  191.2630  174.6650  142.1750 C   0  0  0  0  0  2  0  0  0  0  0  0
  191.8950  173.5260  142.8240 N   0  0  0  0  0  2  0  0  0  0  0  0
  189.3560  172.8090  142.9280 O   0  0  0  0  0  0  0  0  0  0  0  0
  190.7410  172.2340  143.0080 S   0  0  0  0  0  0  0  0  0  0  0  0
  190.9340  171.5940  144.3590 O   0  0  0  0  0  0  0  0  0  0  0  0
  190.9090  170.9910  141.7380 C   0  0  0  0  0  2  0  0  0  0  0  0
  192.0100  171.8300  139.6380 C   0  0  0  0  0  0  0  0  0  0  0  0
  190.8440  171.6080  140.4290 N   0  0  0  0  0  2  0  0  0  0  0  0
  193.1530  171.5250  140.0800 O   0  0  0  0  0  0  0  0  0  0  0  0
  191.8640  172.4150  138.2670 C   0  0  1  0  0  3  0  0  0  0  0  0
  193.0500  172.2630  137.5320 O   0  0  0  0  0  0  0  0  0  0  0  0
  193.1190  173.4020  136.7240 C   0  0  0  0  0  1  0  0  0  0  0  0
  190.7140  171.7930  137.5240 C   0  0  0  0  0  0  0  0  0  0  0  0
  190.7660  170.5780  137.1920 O   0  0  0  0  0  0  0  0  0  0  0  0
  189.5620  172.6190  137.1250 C   0  0  0  0  0  0  0  0  0  0  0  0
  189.3560  172.8760  135.9120 O   0  0  0  0  0  0  0  0  0  0  0  0
  188.4370  173.2420  138.3500 S   0  0  0  0  0  3  0  0  0  0  0  0
  187.8810  174.5070  137.7040 O   0  0  0  0  0  0  0  0  0  0  0  0
  197.7480  174.0180  139.9580 O   0  0  0  0  0  0  0  0  0  0  0  0
  197.9410  175.0280  137.7880 C   0  0  0  0  0  1  0  0  0  0  0  0
  197.1920  174.0290  138.6500 C   0  0  0  0  0  2  0  0  0  0  0  0
  189.9850  174.8090  145.7500 C   0  0  0  0  0  2  0  0  0  0  0  0
  189.2270  175.5070  146.8670 C   0  0  0  0  0  2  0  0  0  0  0  0
  188.8180  177.2110  146.3600 S   0  0  0  0  0  0  0  0  0  0  0  0
  184.4990  178.8030  144.4890 C   0  0  0  0  0  1  0  0  0  0  0  0
  187.4890  176.7660  144.0330 N   0  0  0  0  0  2  0  0  0  0  0  0
  186.1590  177.7260  145.7690 C   0  0  1  0  0  3  0  0  0  0  0  0
  185.8890  176.9520  143.2910 S   0  0  0  0  0  0  0  0  0  0  0  0
  187.2810  176.7640  145.4670 C   0  0  2  0  0  3  0  0  0  0  0  0
  185.1150  177.5110  144.7870 N   0  0  0  0  0  0  0  0  0  0  0  0
  185.6130  177.4430  147.1590 C   0  0  0  0  0  1  0  0  0  0  0  0
  1 12  2  0  0  0  0
  1 14  1  0  0  0  0
  4 15  1  0  0  0  0
  5 13  1  0  0  0  0
  6  2  1  1  0  0  0
  6  7  1  0  0  0  0
  7 13  1  6  0  0  0
  8  3  2  0  0  0  0
  9  5  1  0  0  0  0
 10 42  1  0  0  0  0
 10 15  1  0  0  0  0
 11 10  2  0  0  0  0
 12  8  1  0  0  0  0
 13  4  2  0  0  0  0
 14 18  2  0  0  0  0
 16 11  1  0  0  0  0
 16  5  2  0  0  0  0
 17  3  1  6  0  0  0
 17  6  1  0  0  0  0
 17  7  1  0  0  0  0
 18  3  1  0  0  0  0
 18  9  1  0  0  0  0
 20 19  1  6  0  0  0
 20 11  1  0  0  0  0
 21 22  1  0  0  0  0
 21 20  1  0  0  0  0
 22 24  1  0  0  0  0
 23 24  2  0  0  0  0
 24 25  2  0  0  0  0
 26 24  1  0  0  0  0
 27 29  2  0  0  0  0
 27 28  1  0  0  0  0
 28 26  1  0  0  0  0
 30 33  1  6  0  0  0
 30 27  1  0  0  0  0
 31 30  1  0  0  0  0
 32 31  1  0  0  0  0
 34 33  2  0  0  0  0
 35 33  1  0  0  0  0
 35 37  1  0  0  0  0
 36 35  2  0  0  0  0
 38 37  2  0  0  0  0
 39 12  1  0  0  0  0
 40 41  1  0  0  0  0
 41 39  1  0  0  0  0
 42 43  1  0  0  0  0
 44 43  1  0  0  0  0
 45 50  1  0  0  0  0
 46 49  1  0  0  0  0
 47 51  1  1  0  0  0
 48 46  1  0  0  0  0
 48 50  1  0  0  0  0
 49 47  1  0  0  0  0
 49 44  1  1  0  0  0
 50 47  1  0  0  0  0
M  END
>  <MODEL>
2

>  <REMARK>
 VINA RESULT:      -6.0      2.859      7.686
  Name = 
  17 active torsions:
  status: ('A' for Active; 'I' for Inactive)
    1  A    between atoms: C_3  and  C_26
    2  A    between atoms: C_3  and  C_51
    3  A    between atoms: O_5  and  C_15
    4  A    between atoms: C_8  and  C_15
    5  A    between atoms: C_8  and  C_36
    6  A    between atoms: C_14  and  C_15
    7  A    between atoms: S_18  and  C_36
    8  A    between atoms: S_20  and  C_38
    9  A    between atoms: S_20  and  N_44
   10  A    between atoms: O_24  and  C_32
   11  A    between atoms: O_24  and  C_35
   12  A    between atoms: S_25  and  C_30
   13  A    between atoms: S_25  and  C_51
   14  A    between atoms: C_28  and  C_39
   15  A    between atoms: C_28  and  N_44
   16  A    between atoms: C_31  and  C_39
   17  A    between atoms: C_38  and  N_43
                            x       y       z     vdW  Elec       q    Type
                         _______ _______ _______ _____ _____    ______ ____

>  <TORSDO>
F 17

$$$$
=
 OpenBabel11042419113D

 51 55  0  0  1  0  0  0  0  0999 V2000
  189.6280  173.5380  144.8150 C   0  0  0  0  0  3  0  0  0  0  0  0
  195.9690  173.9320  145.0630 C   0  0  0  0  0  1  0  0  0  0  0  0
  192.3920  173.0470  144.8840 C   0  0  0  0  0  0  0  0  0  0  0  0
  195.3440  170.9750  142.2570 C   0  0  0  0  0  3  0  0  0  0  0  0
  192.9270  171.0280  142.7270 C   0  0  0  0  0  0  0  0  0  0  0  0
  194.7760  173.4080  144.3010 C   0  0  1  0  0  3  0  0  0  0  0  0
  194.7530  171.8990  144.3850 C   0  0  2  0  0  3  0  0  0  0  0  0
  191.8700  174.2830  145.3080 C   0  0  0  0  0  3  0  0  0  0  0  0
  191.9950  170.8810  143.7890 N   0  0  0  0  0  2  0  0  0  0  0  0
  194.4060  171.0870  139.9920 C   0  0  0  0  0  0  0  0  0  0  0  0
  193.1330  171.4640  140.2350 C   0  0  0  0  0  0  0  0  0  0  0  0
  190.4970  174.5390  145.2650 C   0  0  0  0  0  0  0  0  0  0  0  0
  194.3380  171.3460  143.0540 C   0  0  0  0  0  0  0  0  0  0  0  0
  190.1340  172.3090  144.3820 C   0  0  0  0  0  3  0  0  0  0  0  0
  195.1560  170.2430  140.9720 C   0  0  0  0  0  2  0  0  0  0  0  0
  192.4160  171.1330  141.4910 C   0  0  0  0  0  3  0  0  0  0  0  0
  193.8160  172.7470  145.2640 C   0  0  2  0  0  3  0  0  0  0  0  0
  191.5090  172.0560  144.4160 C   0  0  0  0  0  0  0  0  0  0  0  0
  191.7510  171.2980  138.3040 F   0  0  0  0  0  0  0  0  0  0  0  0
  192.3450  172.1870  139.1810 C   0  0  1  0  0  3  0  0  0  0  0  0
  191.3140  173.1460  139.7790 C   0  0  0  0  0  2  0  0  0  0  0  0
  190.2500  173.4630  138.8370 N   0  0  0  0  0  2  0  0  0  0  0  0
  188.0120  172.5980  139.9400 O   0  0  0  0  0  0  0  0  0  0  0  0
  188.7920  173.8600  139.7040 S   0  0  0  0  0  0  0  0  0  0  0  0
  187.9670  174.8040  138.8670 O   0  0  0  0  0  0  0  0  0  0  0  0
  189.1300  174.6160  141.2860 C   0  0  0  0  0  2  0  0  0  0  0  0
  187.3030  176.1550  142.0720 C   0  0  0  0  0  0  0  0  0  0  0  0
  188.5120  175.9250  141.3500 N   0  0  0  0  0  2  0  0  0  0  0  0
  186.7080  175.2030  142.6500 O   0  0  0  0  0  0  0  0  0  0  0  0
  186.7510  177.5460  142.1500 C   0  0  1  0  0  3  0  0  0  0  0  0
  185.3830  177.5560  141.8400 O   0  0  0  0  0  0  0  0  0  0  0  0
  185.3180  178.0270  140.5240 C   0  0  0  0  0  1  0  0  0  0  0  0
  186.9770  178.1490  143.5090 C   0  0  0  0  0  0  0  0  0  0  0  0
  188.0790  177.9780  144.0960 O   0  0  0  0  0  0  0  0  0  0  0  0
  185.8870  178.8780  144.1810 C   0  0  0  0  0  0  0  0  0  0  0  0
  185.6120  180.0580  143.8450 O   0  0  0  0  0  0  0  0  0  0  0  0
  184.9330  178.0910  145.4550 S   0  0  0  0  0  3  0  0  0  0  0  0
  185.1990  178.9600  146.6790 O   0  0  0  0  0  0  0  0  0  0  0  0
  190.0240  175.7720  145.7110 O   0  0  0  0  0  0  0  0  0  0  0  0
  187.9600  175.9900  146.9200 C   0  0  0  0  0  1  0  0  0  0  0  0
  189.4750  175.9650  147.0080 C   0  0  0  0  0  2  0  0  0  0  0  0
  195.0450  171.3590  138.6570 C   0  0  0  0  0  2  0  0  0  0  0  0
  196.3650  172.1010  138.7830 C   0  0  0  0  0  2  0  0  0  0  0  0
  196.5150  173.3210  137.4340 S   0  0  0  0  0  0  0  0  0  0  0  0
  193.9340  175.3360  141.1700 C   0  0  0  0  0  1  0  0  0  0  0  0
  197.1860  174.7950  139.6150 N   0  0  0  0  0  2  0  0  0  0  0  0
  194.8640  174.8390  139.0630 C   0  0  1  0  0  3  0  0  0  0  0  0
  196.4730  175.8370  140.8600 S   0  0  0  0  0  0  0  0  0  0  0  0
  196.2620  174.7910  138.5000 C   0  0  2  0  0  3  0  0  0  0  0  0
  194.8520  175.8120  140.1370 N   0  0  0  0  0  0  0  0  0  0  0  0
  193.8960  175.2730  137.9750 C   0  0  0  0  0  1  0  0  0  0  0  0
  1 12  1  0  0  0  0
  3  8  1  0  0  0  0
  4 13  2  0  0  0  0
  5 13  1  0  0  0  0
  5  9  1  0  0  0  0
  6  7  1  0  0  0  0
  6  2  1  1  0  0  0
  6 17  1  0  0  0  0
  7 13  1  6  0  0  0
  7 17  1  0  0  0  0
  9 18  1  0  0  0  0
 10 11  2  0  0  0  0
 10 15  1  0  0  0  0
 11 16  1  0  0  0  0
 12  8  2  0  0  0  0
 12 39  1  0  0  0  0
 14 18  1  0  0  0  0
 14  1  2  0  0  0  0
 15  4  1  0  0  0  0
 16  5  2  0  0  0  0
 17  3  1  6  0  0  0
 18  3  2  0  0  0  0
 20 19  1  1  0  0  0
 20 21  1  0  0  0  0
 20 11  1  0  0  0  0
 22 24  1  0  0  0  0
 22 21  1  0  0  0  0
 24 23  2  0  0  0  0
 24 26  1  0  0  0  0
 25 24  2  0  0  0  0
 26 28  1  0  0  0  0
 27 30  1  0  0  0  0
 27 29  2  0  0  0  0
 28 27  1  0  0  0  0
 30 31  1  1  0  0  0
 30 33  1  0  0  0  0
 32 31  1  0  0  0  0
 33 34  2  0  0  0  0
 33 35  1  0  0  0  0
 35 37  1  0  0  0  0
 36 35  2  0  0  0  0
 37 38  2  0  0  0  0
 39 41  1  0  0  0  0
 40 41  1  0  0  0  0
 42 43  1  0  0  0  0
 42 10  1  0  0  0  0
 44 43  1  0  0  0  0
 46 48  1  0  0  0  0
 47 51  1  6  0  0  0
 47 50  1  0  0  0  0
 49 44  1  1  0  0  0
 49 47  1  0  0  0  0
 49 46  1  0  0  0  0
 50 48  1  0  0  0  0
 50 45  1  0  0  0  0
M  END
>  <MODEL>
3

>  <REMARK>
 VINA RESULT:      -5.9      3.214      6.937
  Name = 
  17 active torsions:
  status: ('A' for Active; 'I' for Inactive)
    1  A    between atoms: C_3  and  C_26
    2  A    between atoms: C_3  and  C_51
    3  A    between atoms: O_5  and  C_15
    4  A    between atoms: C_8  and  C_15
    5  A    between atoms: C_8  and  C_36
    6  A    between atoms: C_14  and  C_15
    7  A    between atoms: S_18  and  C_36
    8  A    between atoms: S_20  and  C_38
    9  A    between atoms: S_20  and  N_44
   10  A    between atoms: O_24  and  C_32
   11  A    between atoms: O_24  and  C_35
   12  A    between atoms: S_25  and  C_30
   13  A    between atoms: S_25  and  C_51
   14  A    between atoms: C_28  and  C_39
   15  A    between atoms: C_28  and  N_44
   16  A    between atoms: C_31  and  C_39
   17  A    between atoms: C_38  and  N_43
                            x       y       z     vdW  Elec       q    Type
                         _______ _______ _______ _____ _____    ______ ____

>  <TORSDO>
F 17

$$$$
=
 OpenBabel11042419113D

 51 55  0  0  1  0  0  0  0  0999 V2000
  188.5720  175.0860  147.4210 C   0  0  0  0  0  3  0  0  0  0  0  0
  191.5070  178.7590  143.1420 C   0  0  0  0  0  1  0  0  0  0  0  0
  190.4140  176.5340  145.8730 C   0  0  0  0  0  0  0  0  0  0  0  0
  194.0910  175.5700  143.5370 C   0  0  0  0  0  3  0  0  0  0  0  0
  192.7160  174.6720  145.3720 C   0  0  0  0  0  0  0  0  0  0  0  0
  191.4410  177.3960  143.7860 C   0  0  1  0  0  3  0  0  0  0  0  0
  192.6840  177.1760  144.6190 C   0  0  2  0  0  3  0  0  0  0  0  0
  189.0390  176.8290  145.8190 C   0  0  0  0  0  3  0  0  0  0  0  0
  192.1930  175.0210  146.6460 N   0  0  0  0  0  2  0  0  0  0  0  0
  193.8530  173.2210  142.8680 C   0  0  0  0  0  0  0  0  0  0  0  0
  192.8350  172.8080  143.6530 C   0  0  0  0  0  0  0  0  0  0  0  0
  188.1150  176.1060  146.5780 C   0  0  0  0  0  0  0  0  0  0  0  0
  193.1340  175.7560  144.4510 C   0  0  0  0  0  0  0  0  0  0  0  0
  189.9330  174.7740  147.4770 C   0  0  0  0  0  3  0  0  0  0  0  0
  194.8030  174.2760  143.3350 C   0  0  0  0  0  2  0  0  0  0  0  0
  192.5490  173.3990  144.9840 C   0  0  0  0  0  3  0  0  0  0  0  0
  191.3500  177.5550  145.2870 C   0  0  2  0  0  3  0  0  0  0  0  0
  190.8570  175.4930  146.7110 C   0  0  0  0  0  0  0  0  0  0  0  0
  191.9390  170.6760  144.2130 F   0  0  0  0  0  0  0  0  0  0  0  0
  191.9780  171.6500  143.2330 C   0  0  1  0  0  3  0  0  0  0  0  0
  190.5680  172.0840  142.8290 C   0  0  0  0  0  2  0  0  0  0  0  0
  190.5560  172.7920  141.5560 N   0  0  0  0  0  2  0  0  0  0  0  0
  187.9630  172.7050  142.0500 O   0  0  0  0  0  0  0  0  0  0  0  0
  188.9860  173.4970  141.2870 S   0  0  0  0  0  0  0  0  0  0  0  0
  188.6670  173.4300  139.8150 O   0  0  0  0  0  0  0  0  0  0  0  0
  188.9040  175.1950  141.8310 C   0  0  0  0  0  2  0  0  0  0  0  0
  187.5710  177.2400  141.2270 C   0  0  0  0  0  0  0  0  0  0  0  0
  187.7050  175.8230  141.3140 N   0  0  0  0  0  2  0  0  0  0  0  0
  188.4920  177.9990  141.6390 O   0  0  0  0  0  0  0  0  0  0  0  0
  186.3290  177.8220  140.6240 C   0  0  1  0  0  3  0  0  0  0  0  0
  185.8940  177.0470  139.5380 O   0  0  0  0  0  0  0  0  0  0  0  0
  186.6980  177.4480  138.4670 C   0  0  0  0  0  1  0  0  0  0  0  0
  185.2300  177.9440  141.6440 C   0  0  0  0  0  0  0  0  0  0  0  0
  184.0620  178.2400  141.2740 O   0  0  0  0  0  0  0  0  0  0  0  0
  185.5350  177.7880  143.0760 C   0  0  0  0  0  0  0  0  0  0  0  0
  185.5370  176.6470  143.6030 O   0  0  0  0  0  0  0  0  0  0  0  0
  185.9260  179.2070  144.0700 S   0  0  0  0  0  3  0  0  0  0  0  0
  184.5720  179.8800  144.2680 O   0  0  0  0  0  0  0  0  0  0  0  0
  186.7650  176.4460  146.5050 O   0  0  0  0  0  0  0  0  0  0  0  0
  186.1890  178.4860  147.6350 C   0  0  0  0  0  1  0  0  0  0  0  0
  186.0420  176.9760  147.6080 C   0  0  0  0  0  2  0  0  0  0  0  0
  194.1600  172.5130  141.5760 C   0  0  0  0  0  2  0  0  0  0  0  0
  195.1520  173.2760  140.7150 C   0  0  0  0  0  2  0  0  0  0  0  0
  194.2590  174.4570  139.6480 S   0  0  0  0  0  0  0  0  0  0  0  0
  197.1650  176.0780  135.9600 C   0  0  0  0  0  1  0  0  0  0  0  0
  196.4690  173.4730  138.4140 N   0  0  0  0  0  2  0  0  0  0  0  0
  195.3710  175.2320  137.2300 C   0  0  1  0  0  3  0  0  0  0  0  0
  197.4570  173.6870  136.9570 S   0  0  0  0  0  0  0  0  0  0  0  0
  195.1650  174.0270  138.1140 C   0  0  2  0  0  3  0  0  0  0  0  0
  196.3660  174.8860  136.2340 N   0  0  0  0  0  0  0  0  0  0  0  0
  194.0620  175.5790  136.5400 C   0  0  0  0  0  1  0  0  0  0  0  0
  1 14  1  0  0  0  0
  3 18  1  0  0  0  0
  4 13  2  0  0  0  0
  5  9  1  0  0  0  0
  6  2  1  6  0  0  0
  6  7  1  0  0  0  0
  6 17  1  0  0  0  0
  7 13  1  1  0  0  0
  7 17  1  0  0  0  0
  8  3  2  0  0  0  0
  8 12  1  0  0  0  0
  9 18  1  0  0  0  0
 10 15  1  0  0  0  0
 10 11  2  0  0  0  0
 11 16  1  0  0  0  0
 12  1  2  0  0  0  0
 13  5  1  0  0  0  0
 15  4  1  0  0  0  0
 16  5  2  0  0  0  0
 17  3  1  1  0  0  0
 18 14  2  0  0  0  0
 20 11  1  0  0  0  0
 20 19  1  1  0  0  0
 21 20  1  0  0  0  0
 22 21  1  0  0  0  0
 24 22  1  0  0  0  0
 24 26  1  0  0  0  0
 24 23  2  0  0  0  0
 25 24  2  0  0  0  0
 27 28  1  0  0  0  0
 27 29  2  0  0  0  0
 28 26  1  0  0  0  0
 30 31  1  6  0  0  0
 30 27  1  0  0  0  0
 30 33  1  0  0  0  0
 32 31  1  0  0  0  0
 33 35  1  0  0  0  0
 34 33  2  0  0  0  0
 35 36  2  0  0  0  0
 35 37  1  0  0  0  0
 37 38  2  0  0  0  0
 39 12  1  0  0  0  0
 39 41  1  0  0  0  0
 41 40  1  0  0  0  0
 42 10  1  0  0  0  0
 43 42  1  0  0  0  0
 44 43  1  0  0  0  0
 45 50  1  0  0  0  0
 47 51  1  6  0  0  0
 47 49  1  0  0  0  0
 48 46  1  0  0  0  0
 49 46  1  0  0  0  0
 49 44  1  1  0  0  0
 50 48  1  0  0  0  0
 50 47  1  0  0  0  0
M  END
>  <MODEL>
4

>  <REMARK>
 VINA RESULT:      -5.8      3.287      5.875
  Name = 
  17 active torsions:
  status: ('A' for Active; 'I' for Inactive)
    1  A    between atoms: C_3  and  C_26
    2  A    between atoms: C_3  and  C_51
    3  A    between atoms: O_5  and  C_15
    4  A    between atoms: C_8  and  C_15
    5  A    between atoms: C_8  and  C_36
    6  A    between atoms: C_14  and  C_15
    7  A    between atoms: S_18  and  C_36
    8  A    between atoms: S_20  and  C_38
    9  A    between atoms: S_20  and  N_44
   10  A    between atoms: O_24  and  C_32
   11  A    between atoms: O_24  and  C_35
   12  A    between atoms: S_25  and  C_30
   13  A    between atoms: S_25  and  C_51
   14  A    between atoms: C_28  and  C_39
   15  A    between atoms: C_28  and  N_44
   16  A    between atoms: C_31  and  C_39
   17  A    between atoms: C_38  and  N_43
                            x       y       z     vdW  Elec       q    Type
                         _______ _______ _______ _____ _____    ______ ____

>  <TORSDO>
F 17

$$$$
=
 OpenBabel11042419113D

 51 55  0  0  1  0  0  0  0  0999 V2000
  186.0140  176.8450  145.7530 C   0  0  0  0  0  3  0  0  0  0  0  0
  191.5200  178.7790  143.2300 C   0  0  0  0  0  1  0  0  0  0  0  0
  188.6950  177.4940  145.2220 C   0  0  0  0  0  0  0  0  0  0  0  0
  192.5710  175.2870  145.1540 C   0  0  0  0  0  3  0  0  0  0  0  0
  190.3100  175.1260  146.1170 C   0  0  0  0  0  0  0  0  0  0  0  0
  190.7700  177.6380  143.8700 C   0  0  1  0  0  3  0  0  0  0  0  0
  191.3630  177.3510  145.2320 C   0  0  2  0  0  3  0  0  0  0  0  0
  187.6540  178.0520  144.4570 C   0  0  0  0  0  3  0  0  0  0  0  0
  189.3860  175.8510  146.9170 N   0  0  0  0  0  2  0  0  0  0  0  0
  191.9940  172.9520  144.6660 C   0  0  0  0  0  0  0  0  0  0  0  0
  190.6590  172.9460  144.8650 C   0  0  0  0  0  0  0  0  0  0  0  0
  186.3180  177.7250  144.7080 C   0  0  0  0  0  0  0  0  0  0  0  0
  191.4020  175.8660  145.4400 C   0  0  0  0  0  0  0  0  0  0  0  0
  187.0380  176.2740  146.5140 C   0  0  0  0  0  3  0  0  0  0  0  0
  192.8830  173.8600  145.4530 C   0  0  0  0  0  2  0  0  0  0  0  0
  189.9780  173.8630  145.8120 C   0  0  0  0  0  3  0  0  0  0  0  0
  190.0470  178.1400  145.1000 C   0  0  2  0  0  3  0  0  0  0  0  0
  188.3750  176.5950  146.2580 C   0  0  0  0  0  0  0  0  0  0  0  0
  188.9380  171.3140  145.0660 F   0  0  0  0  0  0  0  0  0  0  0  0
  189.7970  171.9300  144.1740 C   0  0  1  0  0  3  0  0  0  0  0  0
  189.0310  172.5230  142.9900 C   0  0  0  0  0  2  0  0  0  0  0  0
  189.6040  173.7850  142.5430 N   0  0  0  0  0  2  0  0  0  0  0  0
  188.7530  176.1190  141.6480 O   0  0  0  0  0  0  0  0  0  0  0  0
  188.4450  174.6500  141.5730 S   0  0  0  0  0  0  0  0  0  0  0  0
  187.0640  174.4050  142.1260 O   0  0  0  0  0  0  0  0  0  0  0  0
  188.4910  174.1530  139.8590 C   0  0  0  0  0  2  0  0  0  0  0  0
  190.1950  173.4120  138.1650 C   0  0  0  0  0  0  0  0  0  0  0  0
  189.8200  173.6950  139.5120 N   0  0  0  0  0  2  0  0  0  0  0  0
  189.3540  173.5170  137.2290 O   0  0  0  0  0  0  0  0  0  0  0  0
  191.6050  173.0020  137.8680 C   0  0  1  0  0  3  0  0  0  0  0  0
  191.6710  172.2810  136.6660 O   0  0  0  0  0  0  0  0  0  0  0  0
  191.8750  170.9540  137.0550 C   0  0  0  0  0  1  0  0  0  0  0  0
  192.5210  174.1930  137.8070 C   0  0  0  0  0  0  0  0  0  0  0  0
  192.4820  174.9630  136.8100 O   0  0  0  0  0  0  0  0  0  0  0  0
  193.5090  174.4170  138.8750 C   0  0  0  0  0  0  0  0  0  0  0  0
  193.1930  174.2390  140.0790 O   0  0  0  0  0  0  0  0  0  0  0  0
  195.1650  174.9190  138.4750 S   0  0  0  0  0  3  0  0  0  0  0  0
  195.7990  173.6400  137.9390 O   0  0  0  0  0  0  0  0  0  0  0  0
  185.3200  178.3170  143.9350 O   0  0  0  0  0  0  0  0  0  0  0  0
  183.5450  178.2930  142.3170 C   0  0  0  0  0  1  0  0  0  0  0  0
  184.9540  177.8350  142.6490 C   0  0  0  0  0  2  0  0  0  0  0  0
  192.6410  171.9270  143.7730 C   0  0  0  0  0  2  0  0  0  0  0  0
  193.7940  171.2070  144.4520 C   0  0  0  0  0  2  0  0  0  0  0  0
  195.1150  170.8800  143.2360 S   0  0  0  0  0  0  0  0  0  0  0  0
  196.0410  175.6650  144.1980 C   0  0  0  0  0  1  0  0  0  0  0  0
  196.1480  172.2130  145.3660 N   0  0  0  0  0  2  0  0  0  0  0  0
  196.0910  173.4720  143.3380 C   0  0  1  0  0  3  0  0  0  0  0  0
  196.8310  173.7850  145.8210 S   0  0  0  0  0  0  0  0  0  0  0  0
  196.2950  172.1000  143.9290 C   0  0  2  0  0  3  0  0  0  0  0  0
  196.8090  174.4220  144.1650 N   0  0  0  0  0  0  0  0  0  0  0  0
  196.6550  173.5020  141.9270 C   0  0  0  0  0  1  0  0  0  0  0  0
  1 14  1  0  0  0  0
  3 18  1  0  0  0  0
  4 13  2  0  0  0  0
  4 15  1  0  0  0  0
  5  9  1  0  0  0  0
  6  2  1  6  0  0  0
  6 17  1  0  0  0  0
  6  7  1  0  0  0  0
  7 13  1  1  0  0  0
  8 12  1  0  0  0  0
  8  3  2  0  0  0  0
 10 11  2  0  0  0  0
 10 15  1  0  0  0  0
 11 16  1  0  0  0  0
 12  1  2  0  0  0  0
 13  5  1  0  0  0  0
 16  5  2  0  0  0  0
 17  3  1  1  0  0  0
 17  7  1  0  0  0  0
 18 14  2  0  0  0  0
 18  9  1  0  0  0  0
 20 11  1  0  0  0  0
 20 19  1  1  0  0  0
 21 20  1  0  0  0  0
 22 21  1  0  0  0  0
 24 23  2  0  0  0  0
 24 25  2  0  0  0  0
 24 22  1  0  0  0  0
 26 24  1  0  0  0  0
 27 28  1  0  0  0  0
 28 26  1  0  0  0  0
 29 27  2  0  0  0  0
 30 31  1  6  0  0  0
 30 27  1  0  0  0  0
 31 32  1  0  0  0  0
 33 30  1  0  0  0  0
 33 35  1  0  0  0  0
 34 33  2  0  0  0  0
 35 36  2  0  0  0  0
 37 35  1  0  0  0  0
 38 37  2  0  0  0  0
 39 12  1  0  0  0  0
 40 41  1  0  0  0  0
 41 39  1  0  0  0  0
 42 43  1  0  0  0  0
 42 10  1  0  0  0  0
 44 43  1  0  0  0  0
 46 48  1  0  0  0  0
 47 51  1  6  0  0  0
 47 49  1  0  0  0  0
 47 50  1  0  0  0  0
 49 44  1  6  0  0  0
 49 46  1  0  0  0  0
 50 45  1  0  0  0  0
 50 48  1  0  0  0  0
M  END
>  <MODEL>
5

>  <REMARK>
 VINA RESULT:      -5.8      1.526      2.194
  Name = 
  17 active torsions:
  status: ('A' for Active; 'I' for Inactive)
    1  A    between atoms: C_3  and  C_26
    2  A    between atoms: C_3  and  C_51
    3  A    between atoms: O_5  and  C_15
    4  A    between atoms: C_8  and  C_15
    5  A    between atoms: C_8  and  C_36
    6  A    between atoms: C_14  and  C_15
    7  A    between atoms: S_18  and  C_36
    8  A    between atoms: S_20  and  C_38
    9  A    between atoms: S_20  and  N_44
   10  A    between atoms: O_24  and  C_32
   11  A    between atoms: O_24  and  C_35
   12  A    between atoms: S_25  and  C_30
   13  A    between atoms: S_25  and  C_51
   14  A    between atoms: C_28  and  C_39
   15  A    between atoms: C_28  and  N_44
   16  A    between atoms: C_31  and  C_39
   17  A    between atoms: C_38  and  N_43
                            x       y       z     vdW  Elec       q    Type
                         _______ _______ _______ _____ _____    ______ ____

>  <TORSDO>
F 17

$$$$
=
 OpenBabel11042419113D

 51 55  0  0  1  0  0  0  0  0999 V2000
  197.2350  174.7250  140.3020 C   0  0  0  0  0  3  0  0  0  0  0  0
  196.6790  171.8740  145.9570 C   0  0  0  0  0  1  0  0  0  0  0  0
  197.0660  174.0870  143.0310 C   0  0  0  0  0  0  0  0  0  0  0  0
  194.5020  175.3400  146.4610 C   0  0  0  0  0  3  0  0  0  0  0  0
  195.2320  176.1310  144.2460 C   0  0  0  0  0  0  0  0  0  0  0  0
  196.1590  172.9580  145.0460 C   0  0  1  0  0  3  0  0  0  0  0  0
  196.4980  174.3100  145.6330 C   0  0  2  0  0  3  0  0  0  0  0  0
  197.3320  173.0900  142.0740 C   0  0  0  0  0  3  0  0  0  0  0  0
  196.4040  176.4100  143.4930 N   0  0  0  0  0  2  0  0  0  0  0  0
  192.3750  176.0550  145.4690 C   0  0  0  0  0  0  0  0  0  0  0  0
  192.6950  176.1580  144.1620 C   0  0  0  0  0  0  0  0  0  0  0  0
  197.4070  173.3980  140.7130 C   0  0  0  0  0  0  0  0  0  0  0  0
  195.3360  175.2340  145.4220 C   0  0  0  0  0  0  0  0  0  0  0  0
  196.9590  175.7230  141.2400 C   0  0  0  0  0  3  0  0  0  0  0  0
  193.3890  176.3290  146.5320 C   0  0  0  0  0  2  0  0  0  0  0  0
  194.0640  176.4810  143.6870 C   0  0  0  0  0  3  0  0  0  0  0  0
  197.3240  173.7310  144.4690 C   0  0  2  0  0  3  0  0  0  0  0  0
  196.8760  175.4140  142.6020 C   0  0  0  0  0  0  0  0  0  0  0  0
  191.3650  177.2390  142.5100 F   0  0  0  0  0  0  0  0  0  0  0  0
  191.6330  176.0220  143.1100 C   0  0  1  0  0  3  0  0  0  0  0  0
  191.9770  174.9560  142.0680 C   0  0  0  0  0  2  0  0  0  0  0  0
  191.6520  173.6140  142.5290 N   0  0  0  0  0  2  0  0  0  0  0  0
  189.1840  173.8020  143.4480 O   0  0  0  0  0  0  0  0  0  0  0  0
  189.9610  173.2920  142.2680 S   0  0  0  0  0  0  0  0  0  0  0  0
  189.7590  171.8020  142.1490 O   0  0  0  0  0  0  0  0  0  0  0  0
  189.3380  174.0900  140.7980 C   0  0  0  0  0  2  0  0  0  0  0  0
  189.3580  173.2850  138.4150 C   0  0  0  0  0  0  0  0  0  0  0  0
  190.0380  173.5930  139.6310 N   0  0  0  0  0  2  0  0  0  0  0  0
  188.1030  173.4010  138.3340 O   0  0  0  0  0  0  0  0  0  0  0  0
  190.1520  172.8350  137.2270 C   0  0  1  0  0  3  0  0  0  0  0  0
  189.3040  172.3770  136.2070 O   0  0  0  0  0  0  0  0  0  0  0  0
  189.7950  171.1110  135.8740 C   0  0  0  0  0  1  0  0  0  0  0  0
  191.0350  173.9360  136.7090 C   0  0  0  0  0  0  0  0  0  0  0  0
  190.5270  174.9030  136.0780 O   0  0  0  0  0  0  0  0  0  0  0  0
  192.4950  173.8490  136.8750 C   0  0  0  0  0  0  0  0  0  0  0  0
  193.2400  174.7570  136.4270 O   0  0  0  0  0  0  0  0  0  0  0  0
  193.2200  172.4730  137.7330 S   0  0  0  0  0  3  0  0  0  0  0  0
  194.1280  173.1400  138.7610 O   0  0  0  0  0  0  0  0  0  0  0  0
  197.6900  172.3800  139.8040 O   0  0  0  0  0  0  0  0  0  0  0  0
  197.5040  170.2850  138.6450 C   0  0  0  0  0  1  0  0  0  0  0  0
  196.9460  171.1700  139.7440 C   0  0  0  0  0  2  0  0  0  0  0  0
  190.9470  175.8310  145.8930 C   0  0  0  0  0  2  0  0  0  0  0  0
  190.1260  177.1090  145.8750 C   0  0  0  0  0  2  0  0  0  0  0  0
  188.5030  176.8070  146.6530 S   0  0  0  0  0  0  0  0  0  0  0  0
  185.3620  179.5780  143.9820 C   0  0  0  0  0  1  0  0  0  0  0  0
  188.3480  177.4880  144.0280 N   0  0  0  0  0  2  0  0  0  0  0  0
  186.3480  177.8720  145.2730 C   0  0  1  0  0  3  0  0  0  0  0  0
  187.2270  178.1650  142.8330 S   0  0  0  0  0  0  0  0  0  0  0  0
  187.5360  176.9580  145.1040 C   0  0  2  0  0  3  0  0  0  0  0  0
  185.8500  178.2000  143.9520 N   0  0  0  0  0  0  0  0  0  0  0  0
  185.2650  177.1500  146.0570 C   0  0  0  0  0  1  0  0  0  0  0  0
  1 12  2  0  0  0  0
  1 14  1  0  0  0  0
  4 15  1  0  0  0  0
  5 13  1  0  0  0  0
  6  7  1  0  0  0  0
  6  2  1  1  0  0  0
  7 13  1  6  0  0  0
  8  3  2  0  0  0  0
  9  5  1  0  0  0  0
 10 42  1  0  0  0  0
 10 15  1  0  0  0  0
 11 10  2  0  0  0  0
 12  8  1  0  0  0  0
 13  4  2  0  0  0  0
 14 18  2  0  0  0  0
 16 11  1  0  0  0  0
 16  5  2  0  0  0  0
 17  3  1  6  0  0  0
 17  6  1  0  0  0  0
 17  7  1  0  0  0  0
 18  3  1  0  0  0  0
 18  9  1  0  0  0  0
 20 19  1  6  0  0  0
 20 11  1  0  0  0  0
 21 22  1  0  0  0  0
 21 20  1  0  0  0  0
 24 22  1  0  0  0  0
 24 23  2  0  0  0  0
 25 24  2  0  0  0  0
 26 24  1  0  0  0  0
 27 28  1  0  0  0  0
 28 26  1  0  0  0  0
 29 27  2  0  0  0  0
 30 31  1  6  0  0  0
 30 27  1  0  0  0  0
 32 31  1  0  0  0  0
 33 35  1  0  0  0  0
 33 30  1  0  0  0  0
 34 33  2  0  0  0  0
 35 37  1  0  0  0  0
 36 35  2  0  0  0  0
 37 38  2  0  0  0  0
 39 12  1  0  0  0  0
 40 41  1  0  0  0  0
 41 39  1  0  0  0  0
 43 42  1  0  0  0  0
 43 44  1  0  0  0  0
 46 49  1  0  0  0  0
 47 51  1  1  0  0  0
 48 50  1  0  0  0  0
 48 46  1  0  0  0  0
 49 47  1  0  0  0  0
 49 44  1  1  0  0  0
 50 45  1  0  0  0  0
 50 47  1  0  0  0  0
M  END
>  <MODEL>
6

>  <REMARK>
 VINA RESULT:      -5.8      3.010      7.933
  Name = 
  17 active torsions:
  status: ('A' for Active; 'I' for Inactive)
    1  A    between atoms: C_3  and  C_26
    2  A    between atoms: C_3  and  C_51
    3  A    between atoms: O_5  and  C_15
    4  A    between atoms: C_8  and  C_15
    5  A    between atoms: C_8  and  C_36
    6  A    between atoms: C_14  and  C_15
    7  A    between atoms: S_18  and  C_36
    8  A    between atoms: S_20  and  C_38
    9  A    between atoms: S_20  and  N_44
   10  A    between atoms: O_24  and  C_32
   11  A    between atoms: O_24  and  C_35
   12  A    between atoms: S_25  and  C_30
   13  A    between atoms: S_25  and  C_51
   14  A    between atoms: C_28  and  C_39
   15  A    between atoms: C_28  and  N_44
   16  A    between atoms: C_31  and  C_39
   17  A    between atoms: C_38  and  N_43
                            x       y       z     vdW  Elec       q    Type
                         _______ _______ _______ _____ _____    ______ ____

>  <TORSDO>
F 17

$$$$
=
 OpenBabel11042419113D

 51 55  0  0  1  0  0  0  0  0999 V2000
  196.0660  172.8940  143.8550 C   0  0  0  0  0  3  0  0  0  0  0  0
  192.3180  176.2890  147.7070 C   0  0  0  0  0  1  0  0  0  0  0  0
  194.4820  174.8590  145.0840 C   0  0  0  0  0  0  0  0  0  0  0  0
  190.8710  177.2270  143.9610 C   0  0  0  0  0  3  0  0  0  0  0  0
  192.7150  175.9670  142.9240 C   0  0  0  0  0  0  0  0  0  0  0  0
  192.5190  175.7510  146.3120 C   0  0  1  0  0  3  0  0  0  0  0  0
  192.7820  176.9020  145.3660 C   0  0  2  0  0  3  0  0  0  0  0  0
  194.9830  173.7730  145.8240 C   0  0  0  0  0  3  0  0  0  0  0  0
  194.1340  175.9000  142.8830 N   0  0  0  0  0  2  0  0  0  0  0  0
  189.6670  175.8580  142.3190 C   0  0  0  0  0  0  0  0  0  0  0  0
  190.5920  174.9300  141.9960 C   0  0  0  0  0  0  0  0  0  0  0  0
  195.7630  172.7850  145.2170 C   0  0  0  0  0  0  0  0  0  0  0  0
  192.0650  176.6390  144.0750 C   0  0  0  0  0  0  0  0  0  0  0  0
  195.5660  173.9620  143.1050 C   0  0  0  0  0  3  0  0  0  0  0  0
  190.0730  177.2440  142.7020 C   0  0  0  0  0  2  0  0  0  0  0  0
  192.0530  175.1870  142.0560 C   0  0  0  0  0  3  0  0  0  0  0  0
  193.9400  176.0210  145.8700 C   0  0  2  0  0  3  0  0  0  0  0  0
  194.7790  174.9470  143.7110 C   0  0  0  0  0  0  0  0  0  0  0  0
  189.8990  173.6410  140.1190 F   0  0  0  0  0  0  0  0  0  0  0  0
  190.1670  173.5880  141.4740 C   0  0  1  0  0  3  0  0  0  0  0  0
  191.1810  172.4890  141.7950 C   0  0  0  0  0  2  0  0  0  0  0  0
  190.5610  171.1740  141.8690 N   0  0  0  0  0  2  0  0  0  0  0  0
  191.6160  168.7930  142.3080 O   0  0  0  0  0  0  0  0  0  0  0  0
  191.6950  169.9550  141.3600 S   0  0  0  0  0  0  0  0  0  0  0  0
  193.0870  170.5340  141.4020 O   0  0  0  0  0  0  0  0  0  0  0  0
  191.3540  169.3600  139.7110 C   0  0  0  0  0  2  0  0  0  0  0  0
  190.6030  171.2050  138.1760 C   0  0  0  0  0  0  0  0  0  0  0  0
  191.6350  170.3990  138.7420 N   0  0  0  0  0  2  0  0  0  0  0  0
  189.3940  171.0050  138.4800 O   0  0  0  0  0  0  0  0  0  0  0  0
  190.9700  172.3030  137.2260 C   0  0  1  0  0  3  0  0  0  0  0  0
  192.0950  171.9480  136.4660 O   0  0  0  0  0  0  0  0  0  0  0  0
  192.9020  173.0900  136.4660 C   0  0  0  0  0  1  0  0  0  0  0  0
  189.8220  172.6490  136.3180 C   0  0  0  0  0  0  0  0  0  0  0  0
  189.5210  171.8780  135.3670 O   0  0  0  0  0  0  0  0  0  0  0  0
  189.1000  173.9200  136.4960 C   0  0  0  0  0  0  0  0  0  0  0  0
  188.4460  174.1350  137.5480 O   0  0  0  0  0  0  0  0  0  0  0  0
  189.1630  175.1720  135.2380 S   0  0  0  0  0  3  0  0  0  0  0  0
  190.6400  175.2150  134.8610 O   0  0  0  0  0  0  0  0  0  0  0  0
  196.2510  171.7350  145.9940 O   0  0  0  0  0  0  0  0  0  0  0  0
  196.8770  169.5020  146.6190 C   0  0  0  0  0  1  0  0  0  0  0  0
  196.3120  170.3940  145.5280 C   0  0  0  0  0  2  0  0  0  0  0  0
  188.2000  175.5740  142.1360 C   0  0  0  0  0  2  0  0  0  0  0  0
  187.3920  176.8330  141.8710 C   0  0  0  0  0  2  0  0  0  0  0  0
  185.8730  176.8120  142.8830 S   0  0  0  0  0  0  0  0  0  0  0  0
  185.1290  178.7040  147.4170 C   0  0  0  0  0  1  0  0  0  0  0  0
  187.1990  176.6290  145.2470 N   0  0  0  0  0  2  0  0  0  0  0  0
  185.6190  178.4150  145.1300 C   0  0  1  0  0  3  0  0  0  0  0  0
  187.3130  177.4040  146.8380 S   0  0  0  0  0  0  0  0  0  0  0  0
  186.6290  177.6120  144.3490 C   0  0  2  0  0  3  0  0  0  0  0  0
  186.2000  178.7220  146.4220 N   0  0  0  0  0  0  0  0  0  0  0  0
  185.3220  179.7090  144.3890 C   0  0  0  0  0  1  0  0  0  0  0  0
  1 12  1  0  0  0  0
  3  8  1  0  0  0  0
  4 13  2  0  0  0  0
  5 13  1  0  0  0  0
  6  2  1  1  0  0  0
  7 13  1  6  0  0  0
  7 17  1  0  0  0  0
  7  6  1  0  0  0  0
  9  5  1  0  0  0  0
  9 18  1  0  0  0  0
 10 15  1  0  0  0  0
 11 16  1  0  0  0  0
 11 10  2  0  0  0  0
 12  8  2  0  0  0  0
 12 39  1  0  0  0  0
 14 18  1  0  0  0  0
 14  1  2  0  0  0  0
 15  4  1  0  0  0  0
 16  5  2  0  0  0  0
 17  3  1  6  0  0  0
 17  6  1  0  0  0  0
 18  3  2  0  0  0  0
 20 19  1  6  0  0  0
 20 21  1  0  0  0  0
 20 11  1  0  0  0  0
 21 22  1  0  0  0  0
 24 25  2  0  0  0  0
 24 22  1  0  0  0  0
 24 23  2  0  0  0  0
 26 24  1  0  0  0  0
 27 29  2  0  0  0  0
 27 28  1  0  0  0  0
 28 26  1  0  0  0  0
 30 33  1  6  0  0  0
 30 27  1  0  0  0  0
 31 30  1  0  0  0  0
 32 31  1  0  0  0  0
 33 35  1  0  0  0  0
 34 33  2  0  0  0  0
 35 36  2  0  0  0  0
 37 35  1  0  0  0  0
 38 37  2  0  0  0  0
 41 39  1  0  0  0  0
 41 40  1  0  0  0  0
 42 10  1  0  0  0  0
 43 42  1  0  0  0  0
 43 44  1  0  0  0  0
 46 48  1  0  0  0  0
 47 51  1  6  0  0  0
 47 50  1  0  0  0  0
 49 44  1  6  0  0  0
 49 47  1  0  0  0  0
 49 46  1  0  0  0  0
 50 48  1  0  0  0  0
 50 45  1  0  0  0  0
M  END
>  <MODEL>
7

>  <REMARK>
 VINA RESULT:      -5.7      3.056      7.681
  Name = 
  17 active torsions:
  status: ('A' for Active; 'I' for Inactive)
    1  A    between atoms: C_3  and  C_26
    2  A    between atoms: C_3  and  C_51
    3  A    between atoms: O_5  and  C_15
    4  A    between atoms: C_8  and  C_15
    5  A    between atoms: C_8  and  C_36
    6  A    between atoms: C_14  and  C_15
    7  A    between atoms: S_18  and  C_36
    8  A    between atoms: S_20  and  C_38
    9  A    between atoms: S_20  and  N_44
   10  A    between atoms: O_24  and  C_32
   11  A    between atoms: O_24  and  C_35
   12  A    between atoms: S_25  and  C_30
   13  A    between atoms: S_25  and  C_51
   14  A    between atoms: C_28  and  C_39
   15  A    between atoms: C_28  and  N_44
   16  A    between atoms: C_31  and  C_39
   17  A    between atoms: C_38  and  N_43
                            x       y       z     vdW  Elec       q    Type
                         _______ _______ _______ _____ _____    ______ ____

>  <TORSDO>
F 17

$$$$
=
 OpenBabel11042419113D

 51 55  0  0  1  0  0  0  0  0999 V2000
  195.4070  172.4370  143.7830 C   0  0  0  0  0  3  0  0  0  0  0  0
  191.5640  175.3630  147.9180 C   0  0  0  0  0  1  0  0  0  0  0  0
  193.8350  174.2620  145.2280 C   0  0  0  0  0  0  0  0  0  0  0  0
  190.4260  176.9870  144.3030 C   0  0  0  0  0  3  0  0  0  0  0  0
  192.2760  175.8100  143.1820 C   0  0  0  0  0  0  0  0  0  0  0  0
  191.8360  175.0510  146.4670 C   0  0  1  0  0  3  0  0  0  0  0  0
  192.2170  176.3240  145.7460 C   0  0  2  0  0  3  0  0  0  0  0  0
  194.2320  173.0410  145.8030 C   0  0  0  0  0  3  0  0  0  0  0  0
  193.6890  175.6690  143.2160 N   0  0  0  0  0  2  0  0  0  0  0  0
  189.2750  175.9790  142.3840 C   0  0  0  0  0  0  0  0  0  0  0  0
  190.1750  175.0640  141.9670 C   0  0  0  0  0  0  0  0  0  0  0  0
  195.0050  172.1230  145.0870 C   0  0  0  0  0  0  0  0  0  0  0  0
  191.5800  176.3200  144.3880 C   0  0  0  0  0  0  0  0  0  0  0  0
  195.0100  173.6420  143.1950 C   0  0  0  0  0  3  0  0  0  0  0  0
  189.7180  177.2570  143.0190 C   0  0  0  0  0  2  0  0  0  0  0  0
  191.6390  175.2240  142.1570 C   0  0  0  0  0  3  0  0  0  0  0  0
  193.2950  175.3080  146.1640 C   0  0  2  0  0  3  0  0  0  0  0  0
  194.2300  174.5570  143.9090 C   0  0  0  0  0  0  0  0  0  0  0  0
  189.6390  174.1220  139.8480 F   0  0  0  0  0  0  0  0  0  0  0  0
  189.7250  173.8540  141.2020 C   0  0  1  0  0  3  0  0  0  0  0  0
  190.6070  172.6340  141.4690 C   0  0  0  0  0  2  0  0  0  0  0  0
  190.1900  171.4740  140.6930 N   0  0  0  0  0  2  0  0  0  0  0  0
  190.8160  169.0710  141.5900 O   0  0  0  0  0  0  0  0  0  0  0  0
  191.3910  170.2190  140.8110 S   0  0  0  0  0  0  0  0  0  0  0  0
  192.5940  170.7610  141.5430 O   0  0  0  0  0  0  0  0  0  0  0  0
  191.8990  169.6150  139.2100 C   0  0  0  0  0  2  0  0  0  0  0  0
  192.3540  171.6000  137.7350 C   0  0  0  0  0  0  0  0  0  0  0  0
  192.8110  170.5550  138.5920 N   0  0  0  0  0  2  0  0  0  0  0  0
  191.1280  171.7110  137.4550 O   0  0  0  0  0  0  0  0  0  0  0  0
  193.3450  172.5760  137.1790 C   0  0  1  0  0  3  0  0  0  0  0  0
  192.9980  172.9470  135.8710 O   0  0  0  0  0  0  0  0  0  0  0  0
  193.6680  172.0340  135.0500 C   0  0  0  0  0  1  0  0  0  0  0  0
  193.4580  173.7980  138.0490 C   0  0  0  0  0  0  0  0  0  0  0  0
  192.6500  173.9660  139.0020 O   0  0  0  0  0  0  0  0  0  0  0  0
  194.4640  174.8290  137.7440 C   0  0  0  0  0  0  0  0  0  0  0  0
  194.2540  175.6700  136.8330 O   0  0  0  0  0  0  0  0  0  0  0  0
  195.9750  174.9110  138.6730 S   0  0  0  0  0  3  0  0  0  0  0  0
  195.8400  173.7600  139.6640 O   0  0  0  0  0  0  0  0  0  0  0  0
  195.3890  170.9340  145.7050 O   0  0  0  0  0  0  0  0  0  0  0  0
  193.9000  169.2710  144.8170 C   0  0  0  0  0  1  0  0  0  0  0  0
  194.4620  169.9190  146.0680 C   0  0  0  0  0  2  0  0  0  0  0  0
  187.8120  175.8140  142.0680 C   0  0  0  0  0  2  0  0  0  0  0  0
  187.1030  177.1450  141.8820 C   0  0  0  0  0  2  0  0  0  0  0  0
  185.5630  177.1620  142.8620 S   0  0  0  0  0  0  0  0  0  0  0  0
  184.8690  178.6630  147.5470 C   0  0  0  0  0  1  0  0  0  0  0  0
  186.8220  176.6540  145.2150 N   0  0  0  0  0  2  0  0  0  0  0  0
  185.3840  178.5580  145.2500 C   0  0  1  0  0  3  0  0  0  0  0  0
  186.9620  177.2620  146.8740 S   0  0  0  0  0  0  0  0  0  0  0  0
  186.3470  177.7590  144.4080 C   0  0  2  0  0  3  0  0  0  0  0  0
  185.9590  178.6950  146.5730 N   0  0  0  0  0  0  0  0  0  0  0  0
  185.1990  179.9350  144.6330 C   0  0  0  0  0  1  0  0  0  0  0  0
  1 12  1  0  0  0  0
  3  8  1  0  0  0  0
  4 13  2  0  0  0  0
  5  9  1  0  0  0  0
  5 13  1  0  0  0  0
  6  2  1  1  0  0  0
  7 13  1  6  0  0  0
  7 17  1  0  0  0  0
  7  6  1  0  0  0  0
  9 18  1  0  0  0  0
 10 15  1  0  0  0  0
 11 16  1  0  0  0  0
 11 10  2  0  0  0  0
 12 39  1  0  0  0  0
 12  8  2  0  0  0  0
 14  1  2  0  0  0  0
 14 18  1  0  0  0  0
 15  4  1  0  0  0  0
 16  5  2  0  0  0  0
 17  3  1  6  0  0  0
 17  6  1  0  0  0  0
 18  3  2  0  0  0  0
 20 19  1  6  0  0  0
 20 21  1  0  0  0  0
 20 11  1  0  0  0  0
 22 24  1  0  0  0  0
 22 21  1  0  0  0  0
 24 25  2  0  0  0  0
 24 23  2  0  0  0  0
 26 24  1  0  0  0  0
 27 28  1  0  0  0  0
 28 26  1  0  0  0  0
 29 27  2  0  0  0  0
 30 31  1  6  0  0  0
 30 27  1  0  0  0  0
 30 33  1  0  0  0  0
 32 31  1  0  0  0  0
 33 34  2  0  0  0  0
 35 33  1  0  0  0  0
 35 37  1  0  0  0  0
 36 35  2  0  0  0  0
 37 38  2  0  0  0  0
 39 41  1  0  0  0  0
 40 41  1  0  0  0  0
 42 10  1  0  0  0  0
 43 42  1  0  0  0  0
 43 44  1  0  0  0  0
 46 48  1  0  0  0  0
 47 51  1  6  0  0  0
 47 50  1  0  0  0  0
 49 44  1  6  0  0  0
 49 46  1  0  0  0  0
 49 47  1  0  0  0  0
 50 48  1  0  0  0  0
 50 45  1  0  0  0  0
M  END
>  <MODEL>
8

>  <REMARK>
 VINA RESULT:      -5.7      3.109      7.560
  Name = 
  17 active torsions:
  status: ('A' for Active; 'I' for Inactive)
    1  A    between atoms: C_3  and  C_26
    2  A    between atoms: C_3  and  C_51
    3  A    between atoms: O_5  and  C_15
    4  A    between atoms: C_8  and  C_15
    5  A    between atoms: C_8  and  C_36
    6  A    between atoms: C_14  and  C_15
    7  A    between atoms: S_18  and  C_36
    8  A    between atoms: S_20  and  C_38
    9  A    between atoms: S_20  and  N_44
   10  A    between atoms: O_24  and  C_32
   11  A    between atoms: O_24  and  C_35
   12  A    between atoms: S_25  and  C_30
   13  A    between atoms: S_25  and  C_51
   14  A    between atoms: C_28  and  C_39
   15  A    between atoms: C_28  and  N_44
   16  A    between atoms: C_31  and  C_39
   17  A    between atoms: C_38  and  N_43
                            x       y       z     vdW  Elec       q    Type
                         _______ _______ _______ _____ _____    ______ ____

>  <TORSDO>
F 17

$$$$
=
 OpenBabel11042419113D

 51 55  0  0  1  0  0  0  0  0999 V2000
  185.6290  176.7910  145.5590 C   0  0  0  0  0  3  0  0  0  0  0  0
  191.0130  178.7060  142.7730 C   0  0  0  0  0  1  0  0  0  0  0  0
  188.2650  177.5320  144.9350 C   0  0  0  0  0  0  0  0  0  0  0  0
  192.2760  175.5950  145.1660 C   0  0  0  0  0  3  0  0  0  0  0  0
  190.0250  175.4240  146.1490 C   0  0  0  0  0  0  0  0  0  0  0  0
  190.3340  177.6200  143.5700 C   0  0  1  0  0  3  0  0  0  0  0  0
  190.9360  177.5670  144.9560 C   0  0  2  0  0  3  0  0  0  0  0  0
  187.1950  177.9090  144.1020 C   0  0  0  0  0  3  0  0  0  0  0  0
  189.0510  176.1920  146.8420 N   0  0  0  0  0  2  0  0  0  0  0  0
  191.8550  173.1820  145.0130 C   0  0  0  0  0  0  0  0  0  0  0  0
  190.5220  173.1170  145.2140 C   0  0  0  0  0  0  0  0  0  0  0  0
  185.8820  177.5340  144.4000 C   0  0  0  0  0  0  0  0  0  0  0  0
  191.0710  176.1320  145.3710 C   0  0  0  0  0  0  0  0  0  0  0  0
  186.6830  176.4010  146.3900 C   0  0  0  0  0  3  0  0  0  0  0  0
  192.6780  174.2470  145.6610 C   0  0  0  0  0  2  0  0  0  0  0  0
  189.7770  174.1120  146.0250 C   0  0  0  0  0  3  0  0  0  0  0  0
  189.5730  178.2420  144.7190 C   0  0  2  0  0  3  0  0  0  0  0  0
  187.9980  176.7690  146.0870 C   0  0  0  0  0  0  0  0  0  0  0  0
  188.9130  171.4180  145.6490 F   0  0  0  0  0  0  0  0  0  0  0  0
  189.7320  171.9600  144.6750 C   0  0  1  0  0  3  0  0  0  0  0  0
  188.9320  172.3320  143.4250 C   0  0  0  0  0  2  0  0  0  0  0  0
  189.7800  172.4470  142.2470 N   0  0  0  0  0  2  0  0  0  0  0  0
  190.9330  174.7760  141.7800 O   0  0  0  0  0  0  0  0  0  0  0  0
  189.6380  174.0460  141.5710 S   0  0  0  0  0  0  0  0  0  0  0  0
  188.5330  174.7830  142.2850 O   0  0  0  0  0  0  0  0  0  0  0  0
  189.2880  174.0120  139.8210 C   0  0  0  0  0  2  0  0  0  0  0  0
  190.9630  172.5510  138.6450 C   0  0  0  0  0  0  0  0  0  0  0  0
  189.6900  172.7390  139.2600 N   0  0  0  0  0  2  0  0  0  0  0  0
  191.7720  173.5150  138.5360 O   0  0  0  0  0  0  0  0  0  0  0  0
  191.3390  171.1920  138.1410 C   0  0  1  0  0  3  0  0  0  0  0  0
  191.5690  170.3110  139.2100 O   0  0  0  0  0  0  0  0  0  0  0  0
  192.8750  169.8490  139.0190 C   0  0  0  0  0  1  0  0  0  0  0  0
  190.2810  170.6320  137.2300 C   0  0  0  0  0  0  0  0  0  0  0  0
  189.6080  169.6300  137.5930 O   0  0  0  0  0  0  0  0  0  0  0  0
  190.0830  171.2100  135.8900 C   0  0  0  0  0  0  0  0  0  0  0  0
  188.9820  171.7340  135.5830 O   0  0  0  0  0  0  0  0  0  0  0  0
  191.4020  171.1950  134.7030 S   0  0  0  0  0  3  0  0  0  0  0  0
  192.0310  172.5760  134.8600 O   0  0  0  0  0  0  0  0  0  0  0  0
  184.8520  177.9450  143.5550 O   0  0  0  0  0  0  0  0  0  0  0  0
  183.7440  177.9930  141.4240 C   0  0  0  0  0  1  0  0  0  0  0  0
  185.0480  178.2050  142.1710 C   0  0  0  0  0  2  0  0  0  0  0  0
  192.5730  172.0860  144.2710 C   0  0  0  0  0  2  0  0  0  0  0  0
  193.4830  172.6210  143.1790 C   0  0  0  0  0  2  0  0  0  0  0  0
  194.6850  171.3350  142.6970 S   0  0  0  0  0  0  0  0  0  0  0  0
  196.8840  175.7310  143.4210 C   0  0  0  0  0  1  0  0  0  0  0  0
  196.0510  172.4460  144.7660 N   0  0  0  0  0  2  0  0  0  0  0  0
  196.3310  173.5650  142.6760 C   0  0  1  0  0  3  0  0  0  0  0  0
  197.1370  173.7940  145.1470 S   0  0  0  0  0  0  0  0  0  0  0  0
  196.1560  172.2220  143.3380 C   0  0  2  0  0  3  0  0  0  0  0  0
  197.2840  174.3260  143.4600 N   0  0  0  0  0  0  0  0  0  0  0  0
  196.8770  173.3670  141.2710 C   0  0  0  0  0  1  0  0  0  0  0  0
  1 14  1  0  0  0  0
  3 18  1  0  0  0  0
  4 13  2  0  0  0  0
  4 15  1  0  0  0  0
  5  9  1  0  0  0  0
  6  2  1  6  0  0  0
  6 17  1  0  0  0  0
  6  7  1  0  0  0  0
  7 13  1  1  0  0  0
  8 12  1  0  0  0  0
  8  3  2  0  0  0  0
 10 11  2  0  0  0  0
 10 15  1  0  0  0  0
 11 16  1  0  0  0  0
 12  1  2  0  0  0  0
 13  5  1  0  0  0  0
 16  5  2  0  0  0  0
 17  3  1  1  0  0  0
 17  7  1  0  0  0  0
 18 14  2  0  0  0  0
 18  9  1  0  0  0  0
 20 11  1  0  0  0  0
 20 19  1  1  0  0  0
 21 20  1  0  0  0  0
 22 21  1  0  0  0  0
 24 23  2  0  0  0  0
 24 22  1  0  0  0  0
 24 25  2  0  0  0  0
 26 24  1  0  0  0  0
 27 28  1  0  0  0  0
 28 26  1  0  0  0  0
 29 27  2  0  0  0  0
 30 33  1  6  0  0  0
 30 27  1  0  0  0  0
 30 31  1  0  0  0  0
 32 31  1  0  0  0  0
 33 34  2  0  0  0  0
 35 33  1  0  0  0  0
 36 35  2  0  0  0  0
 37 38  2  0  0  0  0
 37 35  1  0  0  0  0
 39 12  1  0  0  0  0
 40 41  1  0  0  0  0
 41 39  1  0  0  0  0
 42 10  1  0  0  0  0
 43 42  1  0  0  0  0
 44 43  1  0  0  0  0
 45 50  1  0  0  0  0
 46 48  1  0  0  0  0
 47 51  1  6  0  0  0
 47 49  1  0  0  0  0
 47 50  1  0  0  0  0
 49 44  1  6  0  0  0
 49 46  1  0  0  0  0
 50 48  1  0  0  0  0
M  END
>  <MODEL>
9

>  <REMARK>
 VINA RESULT:      -5.6      1.204      1.985
  Name = 
  17 active torsions:
  status: ('A' for Active; 'I' for Inactive)
    1  A    between atoms: C_3  and  C_26
    2  A    between atoms: C_3  and  C_51
    3  A    between atoms: O_5  and  C_15
    4  A    between atoms: C_8  and  C_15
    5  A    between atoms: C_8  and  C_36
    6  A    between atoms: C_14  and  C_15
    7  A    between atoms: S_18  and  C_36
    8  A    between atoms: S_20  and  C_38
    9  A    between atoms: S_20  and  N_44
   10  A    between atoms: O_24  and  C_32
   11  A    between atoms: O_24  and  C_35
   12  A    between atoms: S_25  and  C_30
   13  A    between atoms: S_25  and  C_51
   14  A    between atoms: C_28  and  C_39
   15  A    between atoms: C_28  and  N_44
   16  A    between atoms: C_31  and  C_39
   17  A    between atoms: C_38  and  N_43
                            x       y       z     vdW  Elec       q    Type
                         _______ _______ _______ _____ _____    ______ ____

>  <TORSDO>
F 17

$$$$
