=
 OpenBabel11042419333D

 32 35  0  0  1  0  0  0  0  0999 V2000
  190.6880  174.7300  146.1970 C   0  0  0  0  0  0  0  0  0  0  0  0
  191.8410  175.2750  145.9980 N   0  0  0  0  0  0  0  0  0  0  0  0
  190.1920  173.7250  145.2010 C   0  0  0  0  0  2  0  0  0  0  0  0
  189.0980  174.1940  143.0360 C   0  0  0  0  0  2  0  0  0  0  0  0
  190.4150  174.2210  143.7830 C   0  0  0  0  0  3  0  0  0  0  0  0
  190.1180  173.0990  142.8070 C   0  0  0  0  0  2  0  0  0  0  0  0
  192.4410  176.2480  146.8840 C   0  0  0  0  0  2  0  0  0  0  0  0
  195.1120  175.0630  145.1280 C   0  0  0  0  0  3  0  0  0  0  0  0
  194.6460  175.2830  146.4470 N   0  0  0  0  0  2  0  0  0  0  0  0
  194.7270  176.0400  144.3320 C   0  0  0  0  0  0  0  0  0  0  0  0
  193.8880  176.5250  146.4860 C   0  0  1  0  0  3  0  0  0  0  0  0
  193.9280  177.0640  145.0560 C   0  0  0  0  0  2  0  0  0  0  0  0
  196.3780  176.5430  141.0980 O   0  0  0  0  0  0  0  0  0  0  0  0
  195.0130  176.1260  142.9310 N   0  0  0  0  0  2  0  0  0  0  0  0
  197.2840  177.0390  143.1410 O   0  0  0  0  0  1  0  0  0  0  0  0
  196.2430  176.5680  142.3490 C   0  0  0  0  0  0  0  0  0  0  0  0
  189.8600  175.0590  147.4160 C   0  0  0  0  0  2  0  0  0  0  0  0
  188.5400  175.3570  147.0660 O   0  0  0  0  0  0  0  0  0  0  0  0
  188.5400  176.7300  146.8200 C   0  0  0  0  0  2  0  0  0  0  0  0
  187.5870  177.0400  145.7120 C   0  0  0  0  0  0  0  0  0  0  0  0
  188.7560  178.3420  141.7270 O   0  0  0  0  0  1  0  0  0  0  0  0
  184.1010  178.3080  140.4610 N   0  0  0  0  0  1  0  0  0  0  0  0
  185.7140  177.4970  143.7120 C   0  0  0  0  0  0  0  0  0  0  0  0
  185.3270  177.0980  144.9510 N   0  0  0  0  0  0  0  0  0  0  0  0
  186.2240  176.8670  145.9400 C   0  0  0  0  0  3  0  0  0  0  0  0
  185.1010  178.1100  141.4520 C   0  0  0  0  0  0  0  0  0  0  0  0
  186.4430  178.3140  141.1400 C   0  0  0  0  0  3  0  0  0  0  0  0
  188.0370  177.4680  144.4470 C   0  0  0  0  0  0  0  0  0  0  0  0
  184.7380  177.7020  142.7340 C   0  0  0  0  0  3  0  0  0  0  0  0
  189.5090  177.6420  144.2290 C   0  0  0  0  0  1  0  0  0  0  0  0
  187.0890  177.7050  143.4160 C   0  0  0  0  0  0  0  0  0  0  0  0
  187.4370  178.1210  142.1040 C   0  0  0  0  0  0  0  0  0  0  0  0
  1 17  1  0  0  0  0
  2  1  2  0  0  0  0
  2  7  1  0  0  0  0
  3  1  1  0  0  0  0
  4  5  1  0  0  0  0
  5  3  1  0  0  0  0
  6  4  1  0  0  0  0
  6  5  1  0  0  0  0
  8  9  1  0  0  0  0
  9 11  1  0  0  0  0
 10 12  1  0  0  0  0
 10  8  2  0  0  0  0
 11  7  1  6  0  0  0
 12 11  1  0  0  0  0
 13 16  2  0  0  0  0
 14 10  1  0  0  0  0
 16 14  1  0  0  0  0
 16 15  1  0  0  0  0
 18 17  1  0  0  0  0
 19 18  1  0  0  0  0
 20 25  1  0  0  0  0
 20 19  1  0  0  0  0
 21 32  1  0  0  0  0
 22 26  1  0  0  0  0
 23 24  1  0  0  0  0
 24 25  2  0  0  0  0
 26 29  1  0  0  0  0
 27 26  2  0  0  0  0
 27 32  1  0  0  0  0
 28 20  2  0  0  0  0
 29 23  2  0  0  0  0
 30 28  1  0  0  0  0
 31 23  1  0  0  0  0
 31 28  1  0  0  0  0
 32 31  2  0  0  0  0
M  END
>  <MODEL>
1

>  <REMARK>
 VINA RESULT:      -7.4      0.000      0.000
  Name = 
  9 active torsions:
  status: ('A' for Active; 'I' for Inactive)
    1  A    between atoms: C_1  and  C_19
    2  A    between atoms: C_3  and  C_15
    3  A    between atoms: C_3  and  C_29
    4  A    between atoms: C_11  and  C_15
    5  A    between atoms: C_12  and  N_16
    6  A    between atoms: N_14  and  C_21
    7  A    between atoms: C_19  and  O_25
    8  A    between atoms: C_21  and  C_23
    9  A    between atoms: O_25  and  C_29
                            x       y       z     vdW  Elec       q    Type
                         _______ _______ _______ _____ _____    ______ ____

>  <TORSDO>
F 9

$$$$
=
 OpenBabel11042419333D

 32 35  0  0  1  0  0  0  0  0999 V2000
  187.4680  177.1350  145.7480 C   0  0  0  0  0  0  0  0  0  0  0  0
  187.8890  177.5770  144.6100 N   0  0  0  0  0  0  0  0  0  0  0  0
  185.9930  177.1480  146.0170 C   0  0  0  0  0  2  0  0  0  0  0  0
  184.2620  178.4550  147.2010 C   0  0  0  0  0  2  0  0  0  0  0  0
  185.5250  178.5490  146.3720 C   0  0  0  0  0  3  0  0  0  0  0  0
  184.1750  178.8050  145.7310 C   0  0  0  0  0  2  0  0  0  0  0  0
  189.2810  177.6090  144.2190 C   0  0  0  0  0  2  0  0  0  0  0  0
  188.0170  176.0560  141.4610 C   0  0  0  0  0  3  0  0  0  0  0  0
  189.1440  176.0760  142.3180 N   0  0  0  0  0  2  0  0  0  0  0  0
  187.5610  177.2770  141.2680 C   0  0  0  0  0  0  0  0  0  0  0  0
  189.4240  177.4500  142.7090 C   0  0  1  0  0  3  0  0  0  0  0  0
  188.3590  178.2910  142.0050 C   0  0  0  0  0  2  0  0  0  0  0  0
  184.2380  178.3340  140.1370 O   0  0  0  0  0  0  0  0  0  0  0  0
  186.4230  177.6170  140.4660 N   0  0  0  0  0  2  0  0  0  0  0  0
  184.8590  178.0220  142.3180 O   0  0  0  0  0  1  0  0  0  0  0  0
  185.1370  178.0100  140.9560 C   0  0  0  0  0  0  0  0  0  0  0  0
  188.4200  176.5840  146.7820 C   0  0  0  0  0  2  0  0  0  0  0  0
  188.5700  175.2020  146.6470 O   0  0  0  0  0  0  0  0  0  0  0  0
  189.7870  174.9160  147.2650 C   0  0  0  0  0  2  0  0  0  0  0  0
  190.8990  175.0710  146.2780 C   0  0  0  0  0  0  0  0  0  0  0  0
  194.4310  177.5400  146.8880 O   0  0  0  0  0  1  0  0  0  0  0  0
  196.1090  176.0130  142.6310 N   0  0  0  0  0  1  0  0  0  0  0  0
  192.9390  175.1990  144.3970 C   0  0  0  0  0  0  0  0  0  0  0  0
  191.8420  174.4280  144.1840 N   0  0  0  0  0  0  0  0  0  0  0  0
  190.8370  174.3480  145.0890 C   0  0  0  0  0  3  0  0  0  0  0  0
  195.0860  176.0020  143.6180 C   0  0  0  0  0  0  0  0  0  0  0  0
  195.2250  176.7620  144.7770 C   0  0  0  0  0  3  0  0  0  0  0  0
  192.0100  175.8970  146.5390 C   0  0  0  0  0  0  0  0  0  0  0  0
  193.9460  175.2220  143.4300 C   0  0  0  0  0  3  0  0  0  0  0  0
  192.0510  176.6600  147.8280 C   0  0  0  0  0  1  0  0  0  0  0  0
  193.0600  175.9720  145.5850 C   0  0  0  0  0  0  0  0  0  0  0  0
  194.2290  176.7600  145.7570 C   0  0  0  0  0  0  0  0  0  0  0  0
  1  3  1  0  0  0  0
  1 17  1  0  0  0  0
  2  1  2  0  0  0  0
  3  5  1  0  0  0  0
  5  4  1  0  0  0  0
  6  5  1  0  0  0  0
  6  4  1  0  0  0  0
  7  2  1  0  0  0  0
  8  9  1  0  0  0  0
  9 11  1  0  0  0  0
 10  8  2  0  0  0  0
 10 12  1  0  0  0  0
 11  7  1  1  0  0  0
 12 11  1  0  0  0  0
 13 16  2  0  0  0  0
 14 16  1  0  0  0  0
 14 10  1  0  0  0  0
 16 15  1  0  0  0  0
 18 17  1  0  0  0  0
 18 19  1  0  0  0  0
 20 28  1  0  0  0  0
 20 19  1  0  0  0  0
 22 26  1  0  0  0  0
 23 31  1  0  0  0  0
 24 23  2  0  0  0  0
 24 25  1  0  0  0  0
 25 20  2  0  0  0  0
 26 27  1  0  0  0  0
 27 32  2  0  0  0  0
 28 30  1  0  0  0  0
 29 26  2  0  0  0  0
 29 23  1  0  0  0  0
 31 32  1  0  0  0  0
 31 28  2  0  0  0  0
 32 21  1  0  0  0  0
M  END
>  <MODEL>
2

>  <REMARK>
 VINA RESULT:      -7.2      2.181      7.619
  Name = 
  9 active torsions:
  status: ('A' for Active; 'I' for Inactive)
    1  A    between atoms: C_1  and  C_19
    2  A    between atoms: C_3  and  C_15
    3  A    between atoms: C_3  and  C_29
    4  A    between atoms: C_11  and  C_15
    5  A    between atoms: C_12  and  N_16
    6  A    between atoms: N_14  and  C_21
    7  A    between atoms: C_19  and  O_25
    8  A    between atoms: C_21  and  C_23
    9  A    between atoms: O_25  and  C_29
                            x       y       z     vdW  Elec       q    Type
                         _______ _______ _______ _____ _____    ______ ____

>  <TORSDO>
F 9

$$$$
=
 OpenBabel11042419333D

 32 35  0  0  1  0  0  0  0  0999 V2000
  189.0450  176.4660  145.8000 C   0  0  0  0  0  0  0  0  0  0  0  0
  188.0080  177.2330  145.8650 N   0  0  0  0  0  0  0  0  0  0  0  0
  189.7620  176.3450  144.4890 C   0  0  0  0  0  2  0  0  0  0  0  0
  190.3380  178.1530  142.9060 C   0  0  0  0  0  2  0  0  0  0  0  0
  190.6600  177.5480  144.2560 C   0  0  0  0  0  3  0  0  0  0  0  0
  191.5620  177.2770  143.0680 C   0  0  0  0  0  2  0  0  0  0  0  0
  187.2340  177.4480  147.0680 C   0  0  0  0  0  2  0  0  0  0  0  0
  184.4550  178.9310  145.7670 C   0  0  0  0  0  3  0  0  0  0  0  0
  185.0410  178.5290  146.9910 N   0  0  0  0  0  2  0  0  0  0  0  0
  184.7140  178.0540  144.8180 C   0  0  0  0  0  0  0  0  0  0  0  0
  185.7440  177.2700  146.7930 C   0  0  1  0  0  3  0  0  0  0  0  0
  185.5360  176.9220  145.3190 C   0  0  0  0  0  2  0  0  0  0  0  0
  184.6140  178.5120  141.1830 O   0  0  0  0  0  0  0  0  0  0  0  0
  184.2850  178.1590  143.4550 N   0  0  0  0  0  2  0  0  0  0  0  0
  186.4430  178.8600  142.5130 O   0  0  0  0  0  1  0  0  0  0  0  0
  185.1100  178.5080  142.3390 C   0  0  0  0  0  0  0  0  0  0  0  0
  189.5560  175.7260  147.0130 C   0  0  0  0  0  2  0  0  0  0  0  0
  190.7160  176.3210  147.5170 O   0  0  0  0  0  0  0  0  0  0  0  0
  191.6470  175.2840  147.5790 C   0  0  0  0  0  2  0  0  0  0  0  0
  192.7510  175.5430  146.6060 C   0  0  0  0  0  0  0  0  0  0  0  0
  193.4960  173.1970  143.0170 O   0  0  0  0  0  1  0  0  0  0  0  0
  197.0980  176.2120  141.9160 N   0  0  0  0  0  1  0  0  0  0  0  0
  194.7870  176.1900  144.8290 C   0  0  0  0  0  0  0  0  0  0  0  0
  194.5760  176.9310  145.9480 N   0  0  0  0  0  0  0  0  0  0  0  0
  193.5870  176.6360  146.8250 C   0  0  0  0  0  3  0  0  0  0  0  0
  196.0550  175.8220  142.8020 C   0  0  0  0  0  0  0  0  0  0  0  0
  195.2710  174.7090  142.5090 C   0  0  0  0  0  3  0  0  0  0  0  0
  192.9400  174.7350  145.4670 C   0  0  0  0  0  0  0  0  0  0  0  0
  195.8140  176.5610  143.9580 C   0  0  0  0  0  3  0  0  0  0  0  0
  192.0230  173.5690  145.2550 C   0  0  0  0  0  1  0  0  0  0  0  0
  193.9770  175.0550  144.5520 C   0  0  0  0  0  0  0  0  0  0  0  0
  194.2410  174.3160  143.3680 C   0  0  0  0  0  0  0  0  0  0  0  0
  1  2  2  0  0  0  0
  1 17  1  0  0  0  0
  2  7  1  0  0  0  0
  3  1  1  0  0  0  0
  4  6  1  0  0  0  0
  4  5  1  0  0  0  0
  5  3  1  0  0  0  0
  6  5  1  0  0  0  0
  8  9  1  0  0  0  0
 10 12  1  0  0  0  0
 10  8  2  0  0  0  0
 11  9  1  0  0  0  0
 11  7  1  6  0  0  0
 12 11  1  0  0  0  0
 13 16  2  0  0  0  0
 14 10  1  0  0  0  0
 16 15  1  0  0  0  0
 16 14  1  0  0  0  0
 17 18  1  0  0  0  0
 18 19  1  0  0  0  0
 20 25  1  0  0  0  0
 20 19  1  0  0  0  0
 21 32  1  0  0  0  0
 22 26  1  0  0  0  0
 23 24  1  0  0  0  0
 24 25  2  0  0  0  0
 26 29  1  0  0  0  0
 27 26  2  0  0  0  0
 27 32  1  0  0  0  0
 28 20  2  0  0  0  0
 29 23  2  0  0  0  0
 30 28  1  0  0  0  0
 31 23  1  0  0  0  0
 31 28  1  0  0  0  0
 32 31  2  0  0  0  0
M  END
>  <MODEL>
3

>  <REMARK>
 VINA RESULT:      -7.2      2.231      8.130
  Name = 
  9 active torsions:
  status: ('A' for Active; 'I' for Inactive)
    1  A    between atoms: C_1  and  C_19
    2  A    between atoms: C_3  and  C_15
    3  A    between atoms: C_3  and  C_29
    4  A    between atoms: C_11  and  C_15
    5  A    between atoms: C_12  and  N_16
    6  A    between atoms: N_14  and  C_21
    7  A    between atoms: C_19  and  O_25
    8  A    between atoms: C_21  and  C_23
    9  A    between atoms: O_25  and  C_29
                            x       y       z     vdW  Elec       q    Type
                         _______ _______ _______ _____ _____    ______ ____

>  <TORSDO>
F 9

$$$$
=
 OpenBabel11042419333D

 32 35  0  0  1  0  0  0  0  0999 V2000
  191.4180  175.0490  146.4440 C   0  0  0  0  0  0  0  0  0  0  0  0
  191.3760  174.1900  145.4810 N   0  0  0  0  0  0  0  0  0  0  0  0
  192.7170  175.7410  146.7270 C   0  0  0  0  0  2  0  0  0  0  0  0
  194.9750  175.2330  145.8600 C   0  0  0  0  0  2  0  0  0  0  0  0
  193.6000  175.7490  145.4910 C   0  0  0  0  0  3  0  0  0  0  0  0
  194.7450  176.7210  145.6990 C   0  0  0  0  0  2  0  0  0  0  0  0
  190.1870  173.4620  145.0960 C   0  0  0  0  0  2  0  0  0  0  0  0
  188.5330  172.4240  142.3030 C   0  0  0  0  0  3  0  0  0  0  0  0
  189.2470  171.9420  143.4260 N   0  0  0  0  0  2  0  0  0  0  0  0
  189.0770  173.5350  141.8490 C   0  0  0  0  0  0  0  0  0  0  0  0
  190.3540  172.8440  143.7110 C   0  0  1  0  0  3  0  0  0  0  0  0
  190.2630  173.9390  142.6490 C   0  0  0  0  0  2  0  0  0  0  0  0
  188.0230  174.5960  138.5020 O   0  0  0  0  0  0  0  0  0  0  0  0
  188.5980  174.2950  140.7330 N   0  0  0  0  0  2  0  0  0  0  0  0
  188.9870  172.5840  139.0130 O   0  0  0  0  0  1  0  0  0  0  0  0
  188.5160  173.8400  139.3790 C   0  0  0  0  0  0  0  0  0  0  0  0
  190.1900  175.3860  147.2540 C   0  0  0  0  0  2  0  0  0  0  0  0
  189.5710  176.5450  146.7790 O   0  0  0  0  0  0  0  0  0  0  0  0
  188.2060  176.3050  146.9310 C   0  0  0  0  0  2  0  0  0  0  0  0
  187.4980  176.6090  145.6500 C   0  0  0  0  0  0  0  0  0  0  0  0
  183.7170  178.7440  145.3520 O   0  0  0  0  0  1  0  0  0  0  0  0
  184.0480  178.4540  140.5480 N   0  0  0  0  0  1  0  0  0  0  0  0
  186.3340  177.1920  143.1950 C   0  0  0  0  0  0  0  0  0  0  0  0
  187.5110  176.5180  143.2670 N   0  0  0  0  0  0  0  0  0  0  0  0
  188.0980  176.2270  144.4530 C   0  0  0  0  0  3  0  0  0  0  0  0
  184.5880  178.1640  141.8320 C   0  0  0  0  0  0  0  0  0  0  0  0
  183.9170  178.5780  142.9800 C   0  0  0  0  0  3  0  0  0  0  0  0
  186.2690  177.2980  145.6290 C   0  0  0  0  0  0  0  0  0  0  0  0
  185.7930  177.4740  141.9390 C   0  0  0  0  0  3  0  0  0  0  0  0
  185.6490  177.7000  146.9320 C   0  0  0  0  0  1  0  0  0  0  0  0
  185.6630  177.6010  144.3800 C   0  0  0  0  0  0  0  0  0  0  0  0
  184.4360  178.3030  144.2480 C   0  0  0  0  0  0  0  0  0  0  0  0
  1  3  1  0  0  0  0
  1 17  1  0  0  0  0
  2  1  2  0  0  0  0
  5  6  1  0  0  0  0
  5  4  1  0  0  0  0
  5  3  1  0  0  0  0
  6  4  1  0  0  0  0
  7  2  1  0  0  0  0
  8  9  1  0  0  0  0
  9 11  1  0  0  0  0
 10  8  2  0  0  0  0
 10 12  1  0  0  0  0
 11  7  1  1  0  0  0
 12 11  1  0  0  0  0
 13 16  2  0  0  0  0
 14 10  1  0  0  0  0
 15 16  1  0  0  0  0
 16 14  1  0  0  0  0
 18 19  1  0  0  0  0
 18 17  1  0  0  0  0
 20 19  1  0  0  0  0
 22 26  1  0  0  0  0
 23 24  2  0  0  0  0
 23 31  1  0  0  0  0
 24 25  1  0  0  0  0
 25 20  2  0  0  0  0
 26 29  2  0  0  0  0
 26 27  1  0  0  0  0
 27 32  2  0  0  0  0
 28 20  1  0  0  0  0
 28 30  1  0  0  0  0
 29 23  1  0  0  0  0
 31 28  2  0  0  0  0
 32 31  1  0  0  0  0
 32 21  1  0  0  0  0
M  END
>  <MODEL>
4

>  <REMARK>
 VINA RESULT:      -6.9      2.846      4.910
  Name = 
  9 active torsions:
  status: ('A' for Active; 'I' for Inactive)
    1  A    between atoms: C_1  and  C_19
    2  A    between atoms: C_3  and  C_15
    3  A    between atoms: C_3  and  C_29
    4  A    between atoms: C_11  and  C_15
    5  A    between atoms: C_12  and  N_16
    6  A    between atoms: N_14  and  C_21
    7  A    between atoms: C_19  and  O_25
    8  A    between atoms: C_21  and  C_23
    9  A    between atoms: O_25  and  C_29
                            x       y       z     vdW  Elec       q    Type
                         _______ _______ _______ _____ _____    ______ ____

>  <TORSDO>
F 9

$$$$
=
 OpenBabel11042419333D

 32 35  0  0  1  0  0  0  0  0999 V2000
  189.3560  177.2440  145.9970 C   0  0  0  0  0  0  0  0  0  0  0  0
  188.1040  177.5600  146.0120 N   0  0  0  0  0  0  0  0  0  0  0  0
  190.0950  177.3190  144.6950 C   0  0  0  0  0  2  0  0  0  0  0  0
  189.1350  175.3040  143.6330 C   0  0  0  0  0  2  0  0  0  0  0  0
  189.2260  176.8140  143.5560 C   0  0  0  0  0  3  0  0  0  0  0  0
  190.0630  175.9540  142.6290 C   0  0  0  0  0  2  0  0  0  0  0  0
  187.2780  177.5430  147.2000 C   0  0  0  0  0  2  0  0  0  0  0  0
  184.4190  178.7420  145.7860 C   0  0  0  0  0  3  0  0  0  0  0  0
  184.9870  178.3820  147.0310 N   0  0  0  0  0  2  0  0  0  0  0  0
  184.8150  177.9160  144.8390 C   0  0  0  0  0  0  0  0  0  0  0  0
  185.8310  177.2100  146.8500 C   0  0  1  0  0  3  0  0  0  0  0  0
  185.7320  176.8700  145.3640 C   0  0  0  0  0  2  0  0  0  0  0  0
  184.8310  178.4510  141.2120 O   0  0  0  0  0  0  0  0  0  0  0  0
  184.4420  178.0000  143.4580 N   0  0  0  0  0  2  0  0  0  0  0  0
  186.5340  178.9970  142.6410 O   0  0  0  0  0  1  0  0  0  0  0  0
  185.2670  178.4810  142.3930 C   0  0  0  0  0  0  0  0  0  0  0  0
  190.0820  176.8400  147.2570 C   0  0  0  0  0  2  0  0  0  0  0  0
  190.2560  175.4550  147.3200 O   0  0  0  0  0  0  0  0  0  0  0  0
  191.6260  175.2790  147.5150 C   0  0  0  0  0  2  0  0  0  0  0  0
  192.2880  175.0060  146.2030 C   0  0  0  0  0  0  0  0  0  0  0  0
  195.7060  177.2030  144.6450 O   0  0  0  0  0  1  0  0  0  0  0  0
  195.7450  174.2430  140.8350 N   0  0  0  0  0  1  0  0  0  0  0  0
  193.4830  174.3350  143.7860 C   0  0  0  0  0  0  0  0  0  0  0  0
  192.4120  173.6410  144.2510 N   0  0  0  0  0  0  0  0  0  0  0  0
  191.8160  173.9490  145.4280 C   0  0  0  0  0  3  0  0  0  0  0  0
  195.1590  174.6440  142.0680 C   0  0  0  0  0  0  0  0  0  0  0  0
  195.6910  175.7190  142.7760 C   0  0  0  0  0  3  0  0  0  0  0  0
  193.3870  175.7660  145.7560 C   0  0  0  0  0  0  0  0  0  0  0  0
  194.0590  173.9530  142.5720 C   0  0  0  0  0  3  0  0  0  0  0  0
  193.8760  176.8950  146.6120 C   0  0  0  0  0  1  0  0  0  0  0  0
  194.0070  175.4330  144.5220 C   0  0  0  0  0  0  0  0  0  0  0  0
  195.1280  176.1240  143.9900 C   0  0  0  0  0  0  0  0  0  0  0  0
  1  2  2  0  0  0  0
  1 17  1  0  0  0  0
  2  7  1  0  0  0  0
  3  1  1  0  0  0  0
  5  4  1  0  0  0  0
  5  3  1  0  0  0  0
  6  5  1  0  0  0  0
  6  4  1  0  0  0  0
  8  9  1  0  0  0  0
 10 12  1  0  0  0  0
 10  8  2  0  0  0  0
 11  9  1  0  0  0  0
 11  7  1  6  0  0  0
 12 11  1  0  0  0  0
 13 16  2  0  0  0  0
 14 10  1  0  0  0  0
 16 15  1  0  0  0  0
 16 14  1  0  0  0  0
 17 18  1  0  0  0  0
 18 19  1  0  0  0  0
 20 19  1  0  0  0  0
 22 26  1  0  0  0  0
 23 24  2  0  0  0  0
 23 31  1  0  0  0  0
 24 25  1  0  0  0  0
 25 20  2  0  0  0  0
 26 29  2  0  0  0  0
 26 27  1  0  0  0  0
 27 32  2  0  0  0  0
 28 20  1  0  0  0  0
 28 30  1  0  0  0  0
 29 23  1  0  0  0  0
 31 28  2  0  0  0  0
 32 31  1  0  0  0  0
 32 21  1  0  0  0  0
M  END
>  <MODEL>
5

>  <REMARK>
 VINA RESULT:      -6.8      1.936      7.840
  Name = 
  9 active torsions:
  status: ('A' for Active; 'I' for Inactive)
    1  A    between atoms: C_1  and  C_19
    2  A    between atoms: C_3  and  C_15
    3  A    between atoms: C_3  and  C_29
    4  A    between atoms: C_11  and  C_15
    5  A    between atoms: C_12  and  N_16
    6  A    between atoms: N_14  and  C_21
    7  A    between atoms: C_19  and  O_25
    8  A    between atoms: C_21  and  C_23
    9  A    between atoms: O_25  and  C_29
                            x       y       z     vdW  Elec       q    Type
                         _______ _______ _______ _____ _____    ______ ____

>  <TORSDO>
F 9

$$$$
=
 OpenBabel11042419333D

 32 35  0  0  1  0  0  0  0  0999 V2000
  190.8270  174.5750  145.4280 C   0  0  0  0  0  0  0  0  0  0  0  0
  191.8490  174.8550  144.6900 N   0  0  0  0  0  0  0  0  0  0  0  0
  189.7310  173.7380  144.8400 C   0  0  0  0  0  2  0  0  0  0  0  0
  188.9610  174.3090  142.5620 C   0  0  0  0  0  2  0  0  0  0  0  0
  189.9690  173.5070  143.3580 C   0  0  0  0  0  3  0  0  0  0  0  0
  188.7580  172.8210  142.7560 C   0  0  0  0  0  2  0  0  0  0  0  0
  192.9780  175.6410  145.1360 C   0  0  0  0  0  2  0  0  0  0  0  0
  196.1380  174.5230  145.7500 C   0  0  0  0  0  3  0  0  0  0  0  0
  195.4220  175.6310  145.2380 N   0  0  0  0  0  0  0  0  0  0  0  0
  195.5580  173.3930  145.3990 C   0  0  0  0  0  0  0  0  0  0  0  0
  194.2700  175.1510  144.4890 C   0  0  1  0  0  3  0  0  0  0  0  0
  194.3390  173.6270  144.5810 C   0  0  0  0  0  3  0  0  0  0  0  0
  197.3600  170.2040  145.5390 O   0  0  0  0  0  1  0  0  0  0  0  0
  196.0120  172.0830  145.7600 N   0  0  0  0  0  2  0  0  0  0  0  0
  197.6140  171.8000  143.9190 O   0  0  0  0  0  0  0  0  0  0  0  0
  197.0190  171.3260  145.0820 C   0  0  0  0  0  0  0  0  0  0  0  0
  190.7350  175.0440  146.8600 C   0  0  0  0  0  2  0  0  0  0  0  0
  189.4450  175.4810  147.1680 O   0  0  0  0  0  0  0  0  0  0  0  0
  189.4390  176.8340  146.8300 C   0  0  0  0  0  2  0  0  0  0  0  0
  188.2690  177.1260  145.9480 C   0  0  0  0  0  0  0  0  0  0  0  0
  188.5460  178.2880  141.7630 O   0  0  0  0  0  1  0  0  0  0  0  0
  183.7260  178.2870  141.5480 N   0  0  0  0  0  1  0  0  0  0  0  0
  186.0060  177.5500  144.3930 C   0  0  0  0  0  0  0  0  0  0  0  0
  185.8980  177.1950  145.6990 N   0  0  0  0  0  0  0  0  0  0  0  0
  186.9880  176.9800  146.4740 C   0  0  0  0  0  3  0  0  0  0  0  0
  184.9180  178.1030  142.3030 C   0  0  0  0  0  0  0  0  0  0  0  0
  186.1600  178.2770  141.6980 C   0  0  0  0  0  3  0  0  0  0  0  0
  188.4330  177.5070  144.6010 C   0  0  0  0  0  0  0  0  0  0  0  0
  184.8410  177.7400  143.6460 C   0  0  0  0  0  3  0  0  0  0  0  0
  189.8230  177.6520  144.0610 C   0  0  0  0  0  1  0  0  0  0  0  0
  187.2840  177.7280  143.7960 C   0  0  0  0  0  0  0  0  0  0  0  0
  187.3400  178.0990  142.4260 C   0  0  0  0  0  0  0  0  0  0  0  0
  1 17  1  0  0  0  0
  2  7  1  0  0  0  0
  2  1  2  0  0  0  0
  3  1  1  0  0  0  0
  4  6  1  0  0  0  0
  4  5  1  0  0  0  0
  5  3  1  0  0  0  0
  6  5  1  0  0  0  0
  9  8  2  0  0  0  0
 10  8  1  0  0  0  0
 10 14  1  0  0  0  0
 11 12  1  0  0  0  0
 11  7  1  1  0  0  0
 11  9  1  0  0  0  0
 12 10  2  0  0  0  0
 15 16  2  0  0  0  0
 16 13  1  0  0  0  0
 16 14  1  0  0  0  0
 17 18  1  0  0  0  0
 19 18  1  0  0  0  0
 20 25  1  0  0  0  0
 20 19  1  0  0  0  0
 21 32  1  0  0  0  0
 22 26  1  0  0  0  0
 23 24  1  0  0  0  0
 24 25  2  0  0  0  0
 26 29  1  0  0  0  0
 27 26  2  0  0  0  0
 27 32  1  0  0  0  0
 28 20  2  0  0  0  0
 29 23  2  0  0  0  0
 30 28  1  0  0  0  0
 31 23  1  0  0  0  0
 31 28  1  0  0  0  0
 32 31  2  0  0  0  0
M  END
>  <MODEL>
6

>  <REMARK>
 VINA RESULT:      -6.6      2.084      2.501
  Name = 
  9 active torsions:
  status: ('A' for Active; 'I' for Inactive)
    1  A    between atoms: C_1  and  C_19
    2  A    between atoms: C_3  and  C_15
    3  A    between atoms: C_3  and  C_29
    4  A    between atoms: C_11  and  C_15
    5  A    between atoms: C_12  and  N_16
    6  A    between atoms: N_14  and  C_21
    7  A    between atoms: C_19  and  O_25
    8  A    between atoms: C_21  and  C_23
    9  A    between atoms: O_25  and  C_29
                            x       y       z     vdW  Elec       q    Type
                         _______ _______ _______ _____ _____    ______ ____

>  <TORSDO>
F 9

$$$$
=
 OpenBabel11042419333D

 32 35  0  0  1  0  0  0  0  0999 V2000
  193.1660  175.8510  144.9940 C   0  0  0  0  0  0  0  0  0  0  0  0
  193.7730  174.7250  144.8170 N   0  0  0  0  0  0  0  0  0  0  0  0
  192.9940  176.3560  146.3950 C   0  0  0  0  0  2  0  0  0  0  0  0
  190.8890  175.1220  146.7890 C   0  0  0  0  0  2  0  0  0  0  0  0
  192.3150  175.3100  147.2620 C   0  0  0  0  0  3  0  0  0  0  0  0
  191.1720  175.9530  148.0220 C   0  0  0  0  0  2  0  0  0  0  0  0
  194.0160  174.1320  143.5210 C   0  0  0  0  0  2  0  0  0  0  0  0
  191.2210  172.3070  144.2110 C   0  0  0  0  0  3  0  0  0  0  0  0
  192.5680  172.4880  144.6090 N   0  0  0  0  0  2  0  0  0  0  0  0
  191.1050  172.4210  142.9040 C   0  0  0  0  0  0  0  0  0  0  0  0
  193.3840  172.7460  143.4310 C   0  0  1  0  0  3  0  0  0  0  0  0
  192.4110  172.7050  142.2530 C   0  0  0  0  0  2  0  0  0  0  0  0
  187.7860  173.0390  141.4760 O   0  0  0  0  0  0  0  0  0  0  0  0
  189.8800  172.3100  142.1700 N   0  0  0  0  0  2  0  0  0  0  0  0
  188.8010  174.3230  143.0760 O   0  0  0  0  0  1  0  0  0  0  0  0
  188.7860  173.2310  142.2160 C   0  0  0  0  0  0  0  0  0  0  0  0
  192.6650  176.6690  143.8280 C   0  0  0  0  0  2  0  0  0  0  0  0
  191.2930  176.4890  143.6360 O   0  0  0  0  0  0  0  0  0  0  0  0
  190.7230  177.7160  143.9740 C   0  0  0  0  0  2  0  0  0  0  0  0
  189.3340  177.7920  143.4290 C   0  0  0  0  0  0  0  0  0  0  0  0
  185.7120  177.6510  145.8380 O   0  0  0  0  0  1  0  0  0  0  0  0
  183.1310  178.2920  141.8120 N   0  0  0  0  0  1  0  0  0  0  0  0
  186.8100  178.0350  142.2940 C   0  0  0  0  0  0  0  0  0  0  0  0
  187.9270  178.0740  141.5230 N   0  0  0  0  0  0  0  0  0  0  0  0
  189.1680  177.9610  142.0560 C   0  0  0  0  0  3  0  0  0  0  0  0
  184.3970  178.1410  142.4440 C   0  0  0  0  0  0  0  0  0  0  0  0
  184.4710  177.9680  143.8240 C   0  0  0  0  0  3  0  0  0  0  0  0
  188.2040  177.7300  144.2680 C   0  0  0  0  0  0  0  0  0  0  0  0
  185.5620  178.1750  141.6820 C   0  0  0  0  0  3  0  0  0  0  0  0
  188.4140  177.5510  145.7420 C   0  0  0  0  0  1  0  0  0  0  0  0
  186.9080  177.8530  143.7010 C   0  0  0  0  0  0  0  0  0  0  0  0
  185.7080  177.8200  144.4590 C   0  0  0  0  0  0  0  0  0  0  0  0
  1  3  1  0  0  0  0
  2  1  2  0  0  0  0
  3  5  1  0  0  0  0
  4  5  1  0  0  0  0
  4  6  1  0  0  0  0
  5  6  1  0  0  0  0
  7  2  1  0  0  0  0
  8  9  1  0  0  0  0
 10  8  2  0  0  0  0
 11  7  1  1  0  0  0
 11  9  1  0  0  0  0
 12 10  1  0  0  0  0
 12 11  1  0  0  0  0
 13 16  2  0  0  0  0
 14 16  1  0  0  0  0
 14 10  1  0  0  0  0
 16 15  1  0  0  0  0
 17  1  1  0  0  0  0
 18 17  1  0  0  0  0
 18 19  1  0  0  0  0
 20 19  1  0  0  0  0
 20 28  1  0  0  0  0
 22 26  1  0  0  0  0
 23 31  1  0  0  0  0
 24 25  1  0  0  0  0
 24 23  2  0  0  0  0
 25 20  2  0  0  0  0
 26 27  1  0  0  0  0
 27 32  2  0  0  0  0
 28 30  1  0  0  0  0
 29 23  1  0  0  0  0
 29 26  2  0  0  0  0
 31 28  2  0  0  0  0
 31 32  1  0  0  0  0
 32 21  1  0  0  0  0
M  END
>  <MODEL>
7

>  <REMARK>
 VINA RESULT:      -6.5      2.389      4.628
  Name = 
  9 active torsions:
  status: ('A' for Active; 'I' for Inactive)
    1  A    between atoms: C_1  and  C_19
    2  A    between atoms: C_3  and  C_15
    3  A    between atoms: C_3  and  C_29
    4  A    between atoms: C_11  and  C_15
    5  A    between atoms: C_12  and  N_16
    6  A    between atoms: N_14  and  C_21
    7  A    between atoms: C_19  and  O_25
    8  A    between atoms: C_21  and  C_23
    9  A    between atoms: O_25  and  C_29
                            x       y       z     vdW  Elec       q    Type
                         _______ _______ _______ _____ _____    ______ ____

>  <TORSDO>
F 9

$$$$
=
 OpenBabel11042419333D

 32 35  0  0  1  0  0  0  0  0999 V2000
  186.5990  176.8010  145.1090 C   0  0  0  0  0  0  0  0  0  0  0  0
  186.3220  176.6660  143.8550 N   0  0  0  0  0  0  0  0  0  0  0  0
  185.4670  176.8200  146.0920 C   0  0  0  0  0  2  0  0  0  0  0  0
  185.5580  179.2820  145.9010 C   0  0  0  0  0  2  0  0  0  0  0  0
  184.6360  178.0810  145.9280 C   0  0  0  0  0  3  0  0  0  0  0  0
  184.7910  178.9470  147.1630 C   0  0  0  0  0  2  0  0  0  0  0  0
  187.3170  176.6200  142.8070 C   0  0  0  0  0  2  0  0  0  0  0  0
  186.1030  177.5370  139.7570 C   0  0  0  0  0  3  0  0  0  0  0  0
  187.3110  177.3330  140.4670 N   0  0  0  0  0  0  0  0  0  0  0  0
  185.1910  178.0760  140.5400 C   0  0  0  0  0  0  0  0  0  0  0  0
  187.1410  177.7870  141.8400 C   0  0  1  0  0  3  0  0  0  0  0  0
  185.7040  178.3000  141.9170 C   0  0  0  0  0  3  0  0  0  0  0  0
  181.5830  178.7250  140.5300 O   0  0  0  0  0  0  0  0  0  0  0  0
  183.8520  178.4010  140.1480 N   0  0  0  0  0  2  0  0  0  0  0  0
  182.7790  177.9130  142.3040 O   0  0  0  0  0  1  0  0  0  0  0  0
  182.6960  178.3620  140.9910 C   0  0  0  0  0  0  0  0  0  0  0  0
  188.0240  176.9050  145.5960 C   0  0  0  0  0  2  0  0  0  0  0  0
  188.0990  176.7520  146.9830 O   0  0  0  0  0  0  0  0  0  0  0  0
  188.5810  175.4570  147.1710 C   0  0  0  0  0  2  0  0  0  0  0  0
  190.0560  175.4330  146.9340 C   0  0  0  0  0  0  0  0  0  0  0  0
  192.0930  172.6690  144.2590 O   0  0  0  0  0  1  0  0  0  0  0  0
  196.2440  174.9110  145.2660 N   0  0  0  0  0  1  0  0  0  0  0  0
  192.8000  175.5550  146.5120 C   0  0  0  0  0  0  0  0  0  0  0  0
  192.1850  176.4220  147.3570 N   0  0  0  0  0  0  0  0  0  0  0  0
  190.8480  176.3830  147.5740 C   0  0  0  0  0  3  0  0  0  0  0  0
  194.8400  174.7890  145.4600 C   0  0  0  0  0  0  0  0  0  0  0  0
  194.1250  173.8030  144.7840 C   0  0  0  0  0  3  0  0  0  0  0  0
  190.6500  174.5010  146.0590 C   0  0  0  0  0  0  0  0  0  0  0  0
  194.1790  175.6620  146.3210 C   0  0  0  0  0  3  0  0  0  0  0  0
  189.7730  173.4930  145.3800 C   0  0  0  0  0  1  0  0  0  0  0  0
  192.0520  174.5530  145.8350 C   0  0  0  0  0  0  0  0  0  0  0  0
  192.7450  173.6720  144.9630 C   0  0  0  0  0  0  0  0  0  0  0  0
  1 17  1  0  0  0  0
  1  3  1  0  0  0  0
  2  1  2  0  0  0  0
  4  5  1  0  0  0  0
  4  6  1  0  0  0  0
  5  3  1  0  0  0  0
  5  6  1  0  0  0  0
  7  2  1  0  0  0  0
  8  9  2  0  0  0  0
  8 10  1  0  0  0  0
  9 11  1  0  0  0  0
 10 12  2  0  0  0  0
 11 12  1  0  0  0  0
 11  7  1  1  0  0  0
 13 16  2  0  0  0  0
 14 10  1  0  0  0  0
 14 16  1  0  0  0  0
 16 15  1  0  0  0  0
 17 18  1  0  0  0  0
 18 19  1  0  0  0  0
 20 19  1  0  0  0  0
 20 25  1  0  0  0  0
 21 32  1  0  0  0  0
 22 26  1  0  0  0  0
 23 24  1  0  0  0  0
 24 25  2  0  0  0  0
 26 29  2  0  0  0  0
 27 32  2  0  0  0  0
 27 26  1  0  0  0  0
 28 20  2  0  0  0  0
 29 23  1  0  0  0  0
 30 28  1  0  0  0  0
 31 28  1  0  0  0  0
 31 23  2  0  0  0  0
 32 31  1  0  0  0  0
M  END
>  <MODEL>
8

>  <REMARK>
 VINA RESULT:      -6.5      2.501      8.650
  Name = 
  9 active torsions:
  status: ('A' for Active; 'I' for Inactive)
    1  A    between atoms: C_1  and  C_19
    2  A    between atoms: C_3  and  C_15
    3  A    between atoms: C_3  and  C_29
    4  A    between atoms: C_11  and  C_15
    5  A    between atoms: C_12  and  N_16
    6  A    between atoms: N_14  and  C_21
    7  A    between atoms: C_19  and  O_25
    8  A    between atoms: C_21  and  C_23
    9  A    between atoms: O_25  and  C_29
                            x       y       z     vdW  Elec       q    Type
                         _______ _______ _______ _____ _____    ______ ____

>  <TORSDO>
F 9

$$$$
=
 OpenBabel11042419333D

 32 35  0  0  1  0  0  0  0  0999 V2000
  190.8130  174.5550  145.9180 C   0  0  0  0  0  0  0  0  0  0  0  0
  192.0420  174.5660  145.5210 N   0  0  0  0  0  0  0  0  0  0  0  0
  189.8310  173.7040  145.1700 C   0  0  0  0  0  2  0  0  0  0  0  0
  189.2090  173.7320  142.7790 C   0  0  0  0  0  2  0  0  0  0  0  0
  190.3230  173.4310  143.7600 C   0  0  0  0  0  3  0  0  0  0  0  0
  189.5140  172.2980  143.1580 C   0  0  0  0  0  2  0  0  0  0  0  0
  193.0910  175.3310  146.1580 C   0  0  0  0  0  2  0  0  0  0  0  0
  195.3740  176.1540  143.7650 C   0  0  0  0  0  3  0  0  0  0  0  0
  195.0320  176.3960  145.1170 N   0  0  0  0  0  2  0  0  0  0  0  0
  194.2900  176.0510  143.0240 C   0  0  0  0  0  0  0  0  0  0  0  0
  193.5820  176.4480  145.2410 C   0  0  1  0  0  3  0  0  0  0  0  0
  193.0500  176.2160  143.8280 C   0  0  0  0  0  2  0  0  0  0  0  0
  193.7280  174.5560  139.7240 O   0  0  0  0  0  0  0  0  0  0  0  0
  194.2730  175.7910  141.6150 N   0  0  0  0  0  2  0  0  0  0  0  0
  193.2030  173.5820  141.7270 O   0  0  0  0  0  1  0  0  0  0  0  0
  193.7240  174.6320  140.9800 C   0  0  0  0  0  0  0  0  0  0  0  0
  190.3660  175.3460  147.1230 C   0  0  0  0  0  2  0  0  0  0  0  0
  189.0450  175.7800  146.9820 O   0  0  0  0  0  0  0  0  0  0  0  0
  189.1520  177.0980  146.5370 C   0  0  0  0  0  2  0  0  0  0  0  0
  188.2870  177.2920  145.3340 C   0  0  0  0  0  0  0  0  0  0  0  0
  184.0990  178.4700  145.4520 O   0  0  0  0  0  1  0  0  0  0  0  0
  184.0830  178.5250  140.6280 N   0  0  0  0  0  1  0  0  0  0  0  0
  186.8170  177.7080  143.0140 C   0  0  0  0  0  0  0  0  0  0  0  0
  188.1200  177.3330  142.9550 N   0  0  0  0  0  0  0  0  0  0  0  0
  188.8570  177.1290  144.0730 C   0  0  0  0  0  3  0  0  0  0  0  0
  184.7820  178.3050  141.8470 C   0  0  0  0  0  0  0  0  0  0  0  0
  184.1320  178.4840  143.0660 C   0  0  0  0  0  3  0  0  0  0  0  0
  186.9330  177.6650  145.4470 C   0  0  0  0  0  0  0  0  0  0  0  0
  186.1200  177.9190  141.8210 C   0  0  0  0  0  3  0  0  0  0  0  0
  186.3480  177.8370  146.8160 C   0  0  0  0  0  1  0  0  0  0  0  0
  186.1700  177.8800  144.2680 C   0  0  0  0  0  0  0  0  0  0  0  0
  184.8060  178.2730  144.2720 C   0  0  0  0  0  0  0  0  0  0  0  0
  1 17  1  0  0  0  0
  2  1  2  0  0  0  0
  2  7  1  0  0  0  0
  3  1  1  0  0  0  0
  4  6  1  0  0  0  0
  4  5  1  0  0  0  0
  5  3  1  0  0  0  0
  6  5  1  0  0  0  0
  8  9  1  0  0  0  0
  9 11  1  0  0  0  0
 10  8  2  0  0  0  0
 10 12  1  0  0  0  0
 11  7  1  1  0  0  0
 12 11  1  0  0  0  0
 13 16  2  0  0  0  0
 14 10  1  0  0  0  0
 16 14  1  0  0  0  0
 16 15  1  0  0  0  0
 18 17  1  0  0  0  0
 19 18  1  0  0  0  0
 20 28  1  0  0  0  0
 20 19  1  0  0  0  0
 22 26  1  0  0  0  0
 23 31  1  0  0  0  0
 24 23  2  0  0  0  0
 24 25  1  0  0  0  0
 25 20  2  0  0  0  0
 26 27  1  0  0  0  0
 27 32  2  0  0  0  0
 28 30  1  0  0  0  0
 29 26  2  0  0  0  0
 29 23  1  0  0  0  0
 31 32  1  0  0  0  0
 31 28  2  0  0  0  0
 32 21  1  0  0  0  0
M  END
>  <MODEL>
9

>  <REMARK>
 VINA RESULT:      -6.5      1.923      2.384
  Name = 
  9 active torsions:
  status: ('A' for Active; 'I' for Inactive)
    1  A    between atoms: C_1  and  C_19
    2  A    between atoms: C_3  and  C_15
    3  A    between atoms: C_3  and  C_29
    4  A    between atoms: C_11  and  C_15
    5  A    between atoms: C_12  and  N_16
    6  A    between atoms: N_14  and  C_21
    7  A    between atoms: C_19  and  O_25
    8  A    between atoms: C_21  and  C_23
    9  A    between atoms: O_25  and  C_29
                            x       y       z     vdW  Elec       q    Type
                         _______ _______ _______ _____ _____    ______ ____

>  <TORSDO>
F 9

$$$$
