=
 OpenBabel11042414093D

 49 54  0  0  1  0  0  0  0  0999 V2000
  192.9370  175.5590  146.1110 C   0  0  0  0  0  2  0  0  0  0  0  0
  192.9790  170.6230  144.1800 C   0  0  0  0  0  0  0  0  0  0  0  0
  193.5040  173.1340  145.2870 C   0  0  0  0  0  0  0  0  0  0  0  0
  194.1890  170.8970  144.8130 C   0  0  0  0  0  3  0  0  0  0  0  0
  193.9740  174.4850  145.7980 C   0  0  1  0  0  3  0  0  0  0  0  0
  190.5640  174.9960  146.4920 C   0  0  1  0  0  3  0  0  0  0  0  0
  191.1220  173.8550  144.6540 C   0  0  0  0  0  2  0  0  0  0  0  0
  191.9340  175.1160  147.1620 C   0  0  0  0  0  2  0  0  0  0  0  0
  192.2550  172.8850  144.6620 C   0  0  0  0  0  0  0  0  0  0  0  0
  190.4330  173.7520  145.8670 O   0  0  0  0  0  0  0  0  0  0  0  0
  192.0080  171.6200  144.1250 C   0  0  0  0  0  3  0  0  0  0  0  0
  194.4190  172.1260  145.3370 N   0  0  0  0  0  0  0  0  0  0  0  0
  196.3380  174.8170  144.9860 C   0  0  0  0  0  3  0  0  0  0  0  0
  195.0210  175.0390  144.8840 C   0  0  0  0  0  0  0  0  0  0  0  0
  196.1270  175.8910  143.1030 C   0  0  0  0  0  0  0  0  0  0  0  0
  197.2020  175.9770  140.4470 Cl  0  0  0  0  0  0  0  0  0  0  0  0
  194.6570  175.6220  141.4550 C   0  0  0  0  0  3  0  0  0  0  0  0
  193.9590  175.4670  142.7050 N   0  0  0  0  0  0  0  0  0  0  0  0
  197.0270  175.3000  143.8180 N   0  0  0  0  0  0  0  0  0  0  0  0
  194.8290  175.7250  143.6220 C   0  0  0  0  0  0  0  0  0  0  0  0
  195.9560  175.8390  141.6690 C   0  0  0  0  0  0  0  0  0  0  0  0
  189.4600  175.1600  147.5240 C   0  0  0  0  0  2  0  0  0  0  0  0
  188.1800  175.6320  146.8460 C   0  0  0  0  0  2  0  0  0  0  0  0
  188.2280  177.1300  146.5850 C   0  0  0  0  0  2  0  0  0  0  0  0
  185.3940  178.6650  144.5820 C   0  0  0  0  0  0  0  0  0  0  0  0
  185.8360  177.6430  147.1530 C   0  0  0  0  0  3  0  0  0  0  0  0
  184.3510  178.6430  145.5150 C   0  0  0  0  0  3  0  0  0  0  0  0
  185.1600  179.2020  143.2140 C   0  0  0  0  0  1  0  0  0  0  0  0
  186.8810  177.6650  146.2200 C   0  0  0  0  0  0  0  0  0  0  0  0
  186.6560  178.1740  144.9330 C   0  0  0  0  0  3  0  0  0  0  0  0
  184.5710  178.1340  146.8000 C   0  0  0  0  0  3  0  0  0  0  0  0
  192.7070  169.3370  143.6090 N   0  0  0  0  0  2  0  0  0  0  0  0
  193.0120  169.0010  142.2260 C   0  0  0  0  0  2  0  0  0  0  0  0
  191.9590  169.5400  141.3200 C   0  0  0  0  0  0  0  0  0  0  0  0
  190.8750  168.9090  141.1850 O   0  0  0  0  0  0  0  0  0  0  0  0
  192.1780  170.7730  140.6210 N   0  0  0  0  0  2  0  0  0  0  0  0
  191.1850  171.3670  139.7400 C   0  0  0  0  0  2  0  0  0  0  0  0
  191.0060  172.8390  140.0760 C   0  0  0  0  0  2  0  0  0  0  0  0
  189.9240  173.4010  139.2860 N   0  0  0  0  0  2  0  0  0  0  0  0
  188.6720  173.0620  139.9520 C   0  0  0  0  0  2  0  0  0  0  0  0
  188.7610  173.3770  141.3670 N   0  0  0  0  0  2  0  0  0  0  0  0
  187.5900  173.7130  142.1150 C   0  0  0  0  0  3  0  0  0  0  0  0
  187.3170  174.9720  142.4640 C   0  0  0  0  0  3  0  0  0  0  0  0
  188.1980  176.1200  142.0850 C   0  0  0  0  0  2  0  0  0  0  0  0
  189.3640  178.4780  141.9870 O   0  0  0  0  0  1  0  0  0  0  0  0
  189.9350  177.6100  142.9240 C   0  0  2  0  0  0  0  0  0  0  0  0
  190.4770  178.1870  144.2150 C   0  0  0  0  0  1  0  0  0  0  0  0
  190.5020  176.3750  142.4190 C   0  0  0  0  0  2  0  0  0  0  0  0
  189.2020  176.3400  143.1230 N   0  0  0  0  0  0  0  0  0  0  0  0
  1  8  1  0  0  0  0
  2  4  1  0  0  0  0
  3 12  1  0  0  0  0
  3  5  1  0  0  0  0
  4 12  2  0  0  0  0
  5 14  1  6  0  0  0
  5  1  1  0  0  0  0
  6  8  1  0  0  0  0
  6 22  1  1  0  0  0
  7  9  1  0  0  0  0
  7 10  1  0  0  0  0
  9  3  2  0  0  0  0
 10  6  1  0  0  0  0
 11  2  2  0  0  0  0
 11  9  1  0  0  0  0
 14 13  1  0  0  0  0
 15 20  1  0  0  0  0
 15 19  1  0  0  0  0
 16 21  1  0  0  0  0
 17 21  1  0  0  0  0
 17 18  2  0  0  0  0
 18 20  1  0  0  0  0
 19 13  2  0  0  0  0
 20 14  2  0  0  0  0
 21 15  2  0  0  0  0
 23 22  1  0  0  0  0
 24 23  1  0  0  0  0
 25 30  2  0  0  0  0
 25 27  1  0  0  0  0
 27 31  2  0  0  0  0
 28 25  1  0  0  0  0
 29 24  1  0  0  0  0
 29 26  2  0  0  0  0
 30 29  1  0  0  0  0
 31 26  1  0  0  0  0
 32  2  1  0  0  0  0
 33 32  1  0  0  0  0
 34 33  1  0  0  0  0
 35 34  2  0  0  0  0
 36 34  1  0  0  0  0
 37 38  1  0  0  0  0
 37 36  1  0  0  0  0
 39 40  1  0  0  0  0
 39 38  1  0  0  0  0
 40 41  1  0  0  0  0
 41 42  1  0  0  0  0
 42 43  2  0  0  0  0
 44 43  1  0  0  0  0
 44 49  1  0  0  0  0
 45 46  1  0  0  0  0
 46 49  1  0  0  0  0
 46 47  1  1  0  0  0
 48 46  1  0  0  0  0
 48 49  1  0  0  0  0
M  END
>  <MODEL>
1

>  <REMARK>
 VINA RESULT:      -7.3      0.000      0.000
  Name = 
  16 active torsions:
  status: ('A' for Active; 'I' for Inactive)
    1  A    between atoms: C_1  and  C_26
    2  A    between atoms: C_1  and  C_41
    3  A    between atoms: C_3  and  N_49
    4  A    between atoms: N_4  and  C_32
    5  A    between atoms: N_4  and  C_47
    6  A    between atoms: C_9  and  C_14
    7  A    between atoms: N_17  and  C_27
    8  A    between atoms: N_17  and  C_47
    9  A    between atoms: C_19  and  C_38
   10  A    between atoms: N_21  and  C_28
   11  A    between atoms: C_22  and  C_42
   12  A    between atoms: C_28  and  C_32
   13  A    between atoms: C_29  and  C_34
   14  A    between atoms: C_29  and  N_45
   15  A    between atoms: C_38  and  N_49
   16  A    between atoms: C_41  and  C_42
                            x       y       z     vdW  Elec       q    Type
                         _______ _______ _______ _____ _____    ______ ____

>  <TORSDO>
F 16

$$$$
=
 OpenBabel11042414093D

 49 54  0  0  1  0  0  0  0  0999 V2000
  194.1710  173.3940  140.4700 C   0  0  0  0  0  2  0  0  0  0  0  0
  191.0990  175.8730  144.0070 C   0  0  0  0  0  0  0  0  0  0  0  0
  192.3470  174.1490  142.1970 C   0  0  0  0  0  0  0  0  0  0  0  0
  190.7170  174.5380  143.8980 C   0  0  0  0  0  3  0  0  0  0  0  0
  192.8340  173.1480  141.1640 C   0  0  1  0  0  3  0  0  0  0  0  0
  195.8640  174.9170  141.4230 C   0  0  1  0  0  3  0  0  0  0  0  0
  193.9460  176.0540  141.5620 C   0  0  0  0  0  2  0  0  0  0  0  0
  195.3300  173.4830  141.4470 C   0  0  0  0  0  2  0  0  0  0  0  0
  192.7700  175.4990  142.2940 C   0  0  0  0  0  0  0  0  0  0  0  0
  195.1090  175.7340  142.2710 O   0  0  0  0  0  0  0  0  0  0  0  0
  192.1420  176.3410  143.2130 C   0  0  0  0  0  3  0  0  0  0  0  0
  191.3360  173.7250  143.0070 N   0  0  0  0  0  0  0  0  0  0  0  0
  191.1830  173.8510  139.3930 C   0  0  0  0  0  3  0  0  0  0  0  0
  191.7670  172.9080  140.1440 C   0  0  0  0  0  0  0  0  0  0  0  0
  190.4160  171.9800  138.5830 C   0  0  0  0  0  0  0  0  0  0  0  0
  189.7000  170.7500  136.0950 Cl  0  0  0  0  0  0  0  0  0  0  0  0
  191.4750  170.0840  138.1010 C   0  0  0  0  0  3  0  0  0  0  0  0
  192.0170  170.5970  139.3320 N   0  0  0  0  0  0  0  0  0  0  0  0
  190.3800  173.2530  138.3590 N   0  0  0  0  0  0  0  0  0  0  0  0
  191.3100  171.6380  139.6160 C   0  0  0  0  0  0  0  0  0  0  0  0
  190.5450  170.9120  137.6190 C   0  0  0  0  0  0  0  0  0  0  0  0
  197.3180  174.9420  141.8630 C   0  0  0  0  0  2  0  0  0  0  0  0
  197.4230  175.4710  143.2870 C   0  0  0  0  0  2  0  0  0  0  0  0
  197.3000  174.3380  144.2940 C   0  0  0  0  0  2  0  0  0  0  0  0
  194.2490  175.5340  146.2080 C   0  0  0  0  0  0  0  0  0  0  0  0
  195.1670  173.1960  144.9680 C   0  0  0  0  0  3  0  0  0  0  0  0
  193.4540  174.3830  146.2090 C   0  0  0  0  0  3  0  0  0  0  0  0
  193.7610  176.7790  146.8610 C   0  0  0  0  0  1  0  0  0  0  0  0
  195.9660  174.3470  144.9680 C   0  0  0  0  0  0  0  0  0  0  0  0
  195.5030  175.5170  145.5860 C   0  0  0  0  0  3  0  0  0  0  0  0
  193.9120  173.2140  145.5910 C   0  0  0  0  0  3  0  0  0  0  0  0
  190.4600  176.7610  144.9330 N   0  0  0  0  0  2  0  0  0  0  0  0
  190.3140  176.4620  146.3500 C   0  0  0  0  0  2  0  0  0  0  0  0
  188.8950  176.1380  146.6640 C   0  0  0  0  0  0  0  0  0  0  0  0
  188.6040  174.9970  147.1160 O   0  0  0  0  0  0  0  0  0  0  0  0
  187.8740  177.1260  146.4640 N   0  0  0  0  0  2  0  0  0  0  0  0
  186.4730  176.8850  146.7720 C   0  0  0  0  0  2  0  0  0  0  0  0
  185.9720  177.9200  147.7660 C   0  0  0  0  0  2  0  0  0  0  0  0
  184.8540  178.6540  147.1990 N   0  0  0  0  0  2  0  0  0  0  0  0
  184.5210  178.0320  145.9240 C   0  0  0  0  0  2  0  0  0  0  0  0
  184.5220  179.0300  144.8690 N   0  0  0  0  0  2  0  0  0  0  0  0
  184.1010  178.6920  143.5440 C   0  0  0  0  0  3  0  0  0  0  0  0
  184.9790  178.4370  142.5730 C   0  0  0  0  0  3  0  0  0  0  0  0
  186.4580  178.4650  142.7970 C   0  0  0  0  0  2  0  0  0  0  0  0
  187.5540  176.1300  143.3220 O   0  0  0  0  0  1  0  0  0  0  0  0
  187.8740  176.6260  142.0540 C   0  0  2  0  0  0  0  0  0  0  0  0
  188.0400  175.6470  140.9100 C   0  0  0  0  0  1  0  0  0  0  0  0
  188.5840  177.8900  142.0000 C   0  0  0  0  0  2  0  0  0  0  0  0
  187.1440  177.8530  141.6630 N   0  0  0  0  0  0  0  0  0  0  0  0
  1  5  1  0  0  0  0
  1  8  1  0  0  0  0
  2 32  1  0  0  0  0
  3  9  2  0  0  0  0
  3 12  1  0  0  0  0
  4  2  1  0  0  0  0
  5 14  1  6  0  0  0
  5  3  1  0  0  0  0
  6  8  1  0  0  0  0
  6 22  1  1  0  0  0
  6 10  1  0  0  0  0
  7 10  1  0  0  0  0
  7  9  1  0  0  0  0
  9 11  1  0  0  0  0
 11  2  2  0  0  0  0
 12  4  2  0  0  0  0
 13 14  1  0  0  0  0
 15 20  1  0  0  0  0
 16 21  1  0  0  0  0
 17 18  2  0  0  0  0
 18 20  1  0  0  0  0
 19 15  1  0  0  0  0
 19 13  2  0  0  0  0
 20 14  2  0  0  0  0
 21 17  1  0  0  0  0
 21 15  2  0  0  0  0
 22 23  1  0  0  0  0
 23 24  1  0  0  0  0
 24 29  1  0  0  0  0
 25 27  1  0  0  0  0
 25 28  1  0  0  0  0
 26 31  1  0  0  0  0
 29 26  2  0  0  0  0
 29 30  1  0  0  0  0
 30 25  2  0  0  0  0
 31 27  2  0  0  0  0
 32 33  1  0  0  0  0
 33 34  1  0  0  0  0
 34 35  2  0  0  0  0
 36 34  1  0  0  0  0
 36 37  1  0  0  0  0
 37 38  1  0  0  0  0
 39 38  1  0  0  0  0
 40 39  1  0  0  0  0
 41 40  1  0  0  0  0
 42 41  1  0  0  0  0
 43 44  1  0  0  0  0
 43 42  2  0  0  0  0
 46 47  1  6  0  0  0
 46 45  1  0  0  0  0
 48 46  1  0  0  0  0
 49 48  1  0  0  0  0
 49 46  1  0  0  0  0
 49 44  1  0  0  0  0
M  END
>  <MODEL>
2

>  <REMARK>
 VINA RESULT:      -7.0      2.856      7.638
  Name = 
  16 active torsions:
  status: ('A' for Active; 'I' for Inactive)
    1  A    between atoms: C_1  and  C_26
    2  A    between atoms: C_1  and  C_41
    3  A    between atoms: C_3  and  N_49
    4  A    between atoms: N_4  and  C_32
    5  A    between atoms: N_4  and  C_47
    6  A    between atoms: C_9  and  C_14
    7  A    between atoms: N_17  and  C_27
    8  A    between atoms: N_17  and  C_47
    9  A    between atoms: C_19  and  C_38
   10  A    between atoms: N_21  and  C_28
   11  A    between atoms: C_22  and  C_42
   12  A    between atoms: C_28  and  C_32
   13  A    between atoms: C_29  and  C_34
   14  A    between atoms: C_29  and  N_45
   15  A    between atoms: C_38  and  N_49
   16  A    between atoms: C_41  and  C_42
                            x       y       z     vdW  Elec       q    Type
                         _______ _______ _______ _____ _____    ______ ____

>  <TORSDO>
F 16

$$$$
=
 OpenBabel11042414093D

 49 54  0  0  1  0  0  0  0  0999 V2000
  188.2710  177.1270  143.8240 C   0  0  0  0  0  2  0  0  0  0  0  0
  188.5600  173.3290  140.1380 C   0  0  0  0  0  0  0  0  0  0  0  0
  188.6960  174.9670  142.3970 C   0  0  0  0  0  0  0  0  0  0  0  0
  188.9970  172.8350  141.3650 C   0  0  0  0  0  3  0  0  0  0  0  0
  188.9560  175.7730  143.6570 C   0  0  1  0  0  3  0  0  0  0  0  0
  186.2710  177.7360  142.5110 C   0  0  1  0  0  3  0  0  0  0  0  0
  187.6860  176.8770  141.0100 C   0  0  0  0  0  2  0  0  0  0  0  0
  186.7560  177.0270  143.7760 C   0  0  0  0  0  2  0  0  0  0  0  0
  188.2330  175.4980  141.1660 C   0  0  0  0  0  0  0  0  0  0  0  0
  186.3450  176.8770  141.4100 O   0  0  0  0  0  0  0  0  0  0  0  0
  188.1620  174.6600  140.0520 C   0  0  0  0  0  3  0  0  0  0  0  0
  189.0580  173.6540  142.4440 N   0  0  0  0  0  0  0  0  0  0  0  0
  191.2630  176.6290  143.1070 C   0  0  0  0  0  3  0  0  0  0  0  0
  190.4280  175.9180  143.8760 C   0  0  0  0  0  0  0  0  0  0  0  0
  192.4940  176.0180  144.7960 C   0  0  0  0  0  0  0  0  0  0  0  0
  194.5900  176.9810  146.4970 Cl  0  0  0  0  0  0  0  0  0  0  0  0
  192.0460  176.0260  146.9750 C   0  0  0  0  0  3  0  0  0  0  0  0
  190.8620  175.5950  146.2780 N   0  0  0  0  0  0  0  0  0  0  0  0
  192.5540  176.7480  143.7310 N   0  0  0  0  0  0  0  0  0  0  0  0
  191.2000  175.5170  145.0350 C   0  0  0  0  0  0  0  0  0  0  0  0
  193.0180  176.3180  146.1090 C   0  0  0  0  0  0  0  0  0  0  0  0
  184.8360  178.2040  142.6900 C   0  0  0  0  0  2  0  0  0  0  0  0
  184.7890  179.3880  143.6460 C   0  0  0  0  0  2  0  0  0  0  0  0
  183.9400  179.0640  144.8660 C   0  0  0  0  0  2  0  0  0  0  0  0
  186.3540  178.6550  147.7650 C   0  0  0  0  0  0  0  0  0  0  0  0
  184.6710  177.0610  146.1920 C   0  0  0  0  0  3  0  0  0  0  0  0
  186.2690  177.2790  148.0050 C   0  0  0  0  0  3  0  0  0  0  0  0
  187.2430  179.5050  148.6030 C   0  0  0  0  0  1  0  0  0  0  0  0
  184.7570  178.4380  145.9500 C   0  0  0  0  0  0  0  0  0  0  0  0
  185.5970  179.2340  146.7410 C   0  0  0  0  0  3  0  0  0  0  0  0
  185.4290  176.4810  147.2190 C   0  0  0  0  0  3  0  0  0  0  0  0
  188.4920  172.4920  138.9760 N   0  0  0  0  0  2  0  0  0  0  0  0
  189.6370  171.7620  138.4540 C   0  0  0  0  0  2  0  0  0  0  0  0
  190.6980  172.7120  138.0170 C   0  0  0  0  0  0  0  0  0  0  0  0
  190.3930  173.6800  137.2690 O   0  0  0  0  0  0  0  0  0  0  0  0
  192.0500  172.5270  138.4580 N   0  0  0  0  0  2  0  0  0  0  0  0
  193.1300  173.4290  138.0880 C   0  0  0  0  0  2  0  0  0  0  0  0
  193.5870  174.2200  139.3040 C   0  0  0  0  0  2  0  0  0  0  0  0
  194.4310  175.3270  138.8880 N   0  0  0  0  0  2  0  0  0  0  0  0
  195.7190  175.1700  139.5520 C   0  0  0  0  0  2  0  0  0  0  0  0
  195.5350  175.1290  140.9910 N   0  0  0  0  0  2  0  0  0  0  0  0
  195.5760  176.3300  141.7680 C   0  0  0  0  0  3  0  0  0  0  0  0
  196.0060  176.3350  143.0300 C   0  0  0  0  0  3  0  0  0  0  0  0
  196.4930  175.0990  143.7190 C   0  0  0  0  0  2  0  0  0  0  0  0
  196.4500  173.8480  146.0340 O   0  0  0  0  0  1  0  0  0  0  0  0
  195.5100  173.3620  145.1190 C   0  0  2  0  0  0  0  0  0  0  0  0
  194.1740  172.8750  145.6370 C   0  0  0  0  0  1  0  0  0  0  0  0
  196.0220  172.8100  143.8790 C   0  0  0  0  0  2  0  0  0  0  0  0
  195.3940  174.1500  143.8710 N   0  0  0  0  0  0  0  0  0  0  0  0
  2  4  1  0  0  0  0
  3 12  1  0  0  0  0
  3  5  1  0  0  0  0
  4 12  2  0  0  0  0
  5  1  1  0  0  0  0
  5 14  1  6  0  0  0
  6 22  1  1  0  0  0
  6  8  1  0  0  0  0
  7  9  1  0  0  0  0
  7 10  1  0  0  0  0
  8  1  1  0  0  0  0
  9  3  2  0  0  0  0
 10  6  1  0  0  0  0
 11  2  2  0  0  0  0
 11  9  1  0  0  0  0
 13 19  2  0  0  0  0
 13 14  1  0  0  0  0
 14 20  2  0  0  0  0
 15 20  1  0  0  0  0
 15 21  2  0  0  0  0
 18 17  2  0  0  0  0
 19 15  1  0  0  0  0
 20 18  1  0  0  0  0
 21 16  1  0  0  0  0
 21 17  1  0  0  0  0
 22 23  1  0  0  0  0
 23 24  1  0  0  0  0
 24 29  1  0  0  0  0
 25 27  1  0  0  0  0
 25 28  1  0  0  0  0
 26 31  1  0  0  0  0
 29 26  2  0  0  0  0
 29 30  1  0  0  0  0
 30 25  2  0  0  0  0
 31 27  2  0  0  0  0
 32  2  1  0  0  0  0
 33 32  1  0  0  0  0
 34 33  1  0  0  0  0
 34 36  1  0  0  0  0
 35 34  2  0  0  0  0
 37 36  1  0  0  0  0
 37 38  1  0  0  0  0
 39 38  1  0  0  0  0
 39 40  1  0  0  0  0
 40 41  1  0  0  0  0
 41 42  1  0  0  0  0
 42 43  2  0  0  0  0
 43 44  1  0  0  0  0
 44 49  1  0  0  0  0
 46 47  1  1  0  0  0
 46 45  1  0  0  0  0
 48 46  1  0  0  0  0
 49 48  1  0  0  0  0
 49 46  1  0  0  0  0
M  END
>  <MODEL>
3

>  <REMARK>
 VINA RESULT:      -6.9      2.644      5.865
  Name = 
  16 active torsions:
  status: ('A' for Active; 'I' for Inactive)
    1  A    between atoms: C_1  and  C_26
    2  A    between atoms: C_1  and  C_41
    3  A    between atoms: C_3  and  N_49
    4  A    between atoms: N_4  and  C_32
    5  A    between atoms: N_4  and  C_47
    6  A    between atoms: C_9  and  C_14
    7  A    between atoms: N_17  and  C_27
    8  A    between atoms: N_17  and  C_47
    9  A    between atoms: C_19  and  C_38
   10  A    between atoms: N_21  and  C_28
   11  A    between atoms: C_22  and  C_42
   12  A    between atoms: C_28  and  C_32
   13  A    between atoms: C_29  and  C_34
   14  A    between atoms: C_29  and  N_45
   15  A    between atoms: C_38  and  N_49
   16  A    between atoms: C_41  and  C_42
                            x       y       z     vdW  Elec       q    Type
                         _______ _______ _______ _____ _____    ______ ____

>  <TORSDO>
F 16

$$$$
=
 OpenBabel11042414093D

 49 54  0  0  1  0  0  0  0  0999 V2000
  190.6220  176.9600  144.6280 C   0  0  0  0  0  2  0  0  0  0  0  0
  188.7580  174.1180  140.5600 C   0  0  0  0  0  0  0  0  0  0  0  0
  189.2850  175.9340  142.6170 C   0  0  0  0  0  0  0  0  0  0  0  0
  188.0390  175.3050  140.6800 C   0  0  0  0  0  3  0  0  0  0  0  0
  189.3660  176.9310  143.7600 C   0  0  1  0  0  3  0  0  0  0  0  0
  192.7530  175.9830  143.8550 C   0  0  1  0  0  3  0  0  0  0  0  0
  191.2200  174.4280  143.3810 C   0  0  0  0  0  2  0  0  0  0  0  0
  191.8810  177.2400  143.8260 C   0  0  0  0  0  2  0  0  0  0  0  0
  190.0460  174.7400  142.5150 C   0  0  0  0  0  0  0  0  0  0  0  0
  192.3450  175.0820  142.8670 O   0  0  0  0  0  0  0  0  0  0  0  0
  189.7750  173.8520  141.4730 C   0  0  0  0  0  3  0  0  0  0  0  0
  188.3120  176.1660  141.6920 N   0  0  0  0  0  0  0  0  0  0  0  0
  188.1140  176.2540  145.8410 C   0  0  0  0  0  3  0  0  0  0  0  0
  188.1520  176.8150  144.6250 C   0  0  0  0  0  0  0  0  0  0  0  0
  186.1370  177.1380  145.6040 C   0  0  0  0  0  0  0  0  0  0  0  0
  184.1080  178.5050  147.0970 Cl  0  0  0  0  0  0  0  0  0  0  0  0
  185.5420  179.1350  144.8250 C   0  0  0  0  0  3  0  0  0  0  0  0
  186.6190  178.6400  144.0070 N   0  0  0  0  0  0  0  0  0  0  0  0
  186.8550  176.5230  146.4860 N   0  0  0  0  0  0  0  0  0  0  0  0
  186.8610  177.4480  144.4370 C   0  0  0  0  0  0  0  0  0  0  0  0
  185.2640  178.2720  145.8040 C   0  0  0  0  0  0  0  0  0  0  0  0
  194.2100  176.3510  143.6320 C   0  0  0  0  0  2  0  0  0  0  0  0
  194.9430  176.4110  144.9650 C   0  0  0  0  0  2  0  0  0  0  0  0
  194.3780  175.3870  145.9380 C   0  0  0  0  0  2  0  0  0  0  0  0
  194.9560  171.6690  145.4460 C   0  0  0  0  0  0  0  0  0  0  0  0
  196.4640  173.9890  145.8820 C   0  0  0  0  0  3  0  0  0  0  0  0
  196.3510  171.5920  145.5240 C   0  0  0  0  0  3  0  0  0  0  0  0
  194.1530  170.4380  145.2100 C   0  0  0  0  0  1  0  0  0  0  0  0
  195.0670  174.0670  145.8050 C   0  0  0  0  0  0  0  0  0  0  0  0
  194.3160  172.9050  145.5840 C   0  0  0  0  0  3  0  0  0  0  0  0
  197.1060  172.7510  145.7430 C   0  0  0  0  0  3  0  0  0  0  0  0
  188.4890  173.1830  139.5070 N   0  0  0  0  0  2  0  0  0  0  0  0
  188.8760  173.4120  138.1230 C   0  0  0  0  0  2  0  0  0  0  0  0
  190.3060  173.0450  137.9210 C   0  0  0  0  0  0  0  0  0  0  0  0
  190.6510  171.8340  137.9890 O   0  0  0  0  0  0  0  0  0  0  0  0
  191.2740  174.0650  137.6390 N   0  0  0  0  0  2  0  0  0  0  0  0
  192.6800  173.7760  137.4080 C   0  0  0  0  0  2  0  0  0  0  0  0
  193.5240  174.9970  137.7380 C   0  0  0  0  0  2  0  0  0  0  0  0
  194.1930  174.8080  139.0140 N   0  0  0  0  0  2  0  0  0  0  0  0
  195.6070  174.5840  138.7400 C   0  0  0  0  0  2  0  0  0  0  0  0
  196.1760  173.7090  139.7490 N   0  0  0  0  0  2  0  0  0  0  0  0
  196.1910  174.0950  141.1260 C   0  0  0  0  0  3  0  0  0  0  0  0
  195.6450  173.3320  142.0740 C   0  0  0  0  0  3  0  0  0  0  0  0
  194.9980  172.0160  141.7750 C   0  0  0  0  0  2  0  0  0  0  0  0
  193.7180  169.7200  141.6490 O   0  0  0  0  0  1  0  0  0  0  0  0
  192.8690  170.8300  141.7200 C   0  0  2  0  0  0  0  0  0  0  0  0
  191.5650  170.7020  142.4790 C   0  0  0  0  0  1  0  0  0  0  0  0
  192.9590  171.7980  140.6430 C   0  0  0  0  0  2  0  0  0  0  0  0
  193.5530  172.1210  141.9590 N   0  0  0  0  0  0  0  0  0  0  0  0
  2  4  2  0  0  0  0
  2 11  1  0  0  0  0
  3  5  1  0  0  0  0
  4 12  1  0  0  0  0
  5 14  1  1  0  0  0
  5  1  1  0  0  0  0
  6 22  1  6  0  0  0
  8  6  1  0  0  0  0
  8  1  1  0  0  0  0
  9  3  1  0  0  0  0
  9  7  1  0  0  0  0
 10  7  1  0  0  0  0
 10  6  1  0  0  0  0
 11  9  2  0  0  0  0
 12  3  2  0  0  0  0
 13 19  1  0  0  0  0
 14 13  2  0  0  0  0
 15 21  1  0  0  0  0
 15 19  2  0  0  0  0
 17 21  2  0  0  0  0
 18 20  2  0  0  0  0
 18 17  1  0  0  0  0
 20 14  1  0  0  0  0
 20 15  1  0  0  0  0
 21 16  1  0  0  0  0
 22 23  1  0  0  0  0
 23 24  1  0  0  0  0
 25 27  2  0  0  0  0
 25 30  1  0  0  0  0
 27 31  1  0  0  0  0
 28 25  1  0  0  0  0
 29 26  1  0  0  0  0
 29 24  1  0  0  0  0
 30 29  2  0  0  0  0
 31 26  2  0  0  0  0
 32  2  1  0  0  0  0
 33 32  1  0  0  0  0
 34 35  2  0  0  0  0
 34 33  1  0  0  0  0
 36 34  1  0  0  0  0
 37 36  1  0  0  0  0
 37 38  1  0  0  0  0
 38 39  1  0  0  0  0
 40 39  1  0  0  0  0
 40 41  1  0  0  0  0
 41 42  1  0  0  0  0
 42 43  2  0  0  0  0
 44 49  1  0  0  0  0
 44 43  1  0  0  0  0
 45 46  1  0  0  0  0
 46 49  1  0  0  0  0
 46 47  1  1  0  0  0
 48 46  1  0  0  0  0
 48 49  1  0  0  0  0
M  END
>  <MODEL>
4

>  <REMARK>
 VINA RESULT:      -6.8      3.096      8.082
  Name = 
  16 active torsions:
  status: ('A' for Active; 'I' for Inactive)
    1  A    between atoms: C_1  and  C_26
    2  A    between atoms: C_1  and  C_41
    3  A    between atoms: C_3  and  N_49
    4  A    between atoms: N_4  and  C_32
    5  A    between atoms: N_4  and  C_47
    6  A    between atoms: C_9  and  C_14
    7  A    between atoms: N_17  and  C_27
    8  A    between atoms: N_17  and  C_47
    9  A    between atoms: C_19  and  C_38
   10  A    between atoms: N_21  and  C_28
   11  A    between atoms: C_22  and  C_42
   12  A    between atoms: C_28  and  C_32
   13  A    between atoms: C_29  and  C_34
   14  A    between atoms: C_29  and  N_45
   15  A    between atoms: C_38  and  N_49
   16  A    between atoms: C_41  and  C_42
                            x       y       z     vdW  Elec       q    Type
                         _______ _______ _______ _____ _____    ______ ____

>  <TORSDO>
F 16

$$$$
=
 OpenBabel11042414093D

 49 54  0  0  1  0  0  0  0  0999 V2000
  192.1600  175.8190  145.9180 C   0  0  0  0  0  2  0  0  0  0  0  0
  192.6220  170.8450  144.1450 C   0  0  0  0  0  0  0  0  0  0  0  0
  192.9190  173.4060  145.2210 C   0  0  0  0  0  0  0  0  0  0  0  0
  193.7530  171.1960  144.8770 C   0  0  0  0  0  3  0  0  0  0  0  0
  193.2740  174.7910  145.7320 C   0  0  1  0  0  3  0  0  0  0  0  0
  189.7930  175.1430  146.0980 C   0  0  1  0  0  3  0  0  0  0  0  0
  190.5730  173.9880  144.3530 C   0  0  0  0  0  2  0  0  0  0  0  0
  191.0870  175.3500  146.8860 C   0  0  0  0  0  2  0  0  0  0  0  0
  191.7470  173.0770  144.4920 C   0  0  0  0  0  0  0  0  0  0  0  0
  189.7810  173.8790  145.5000 O   0  0  0  0  0  0  0  0  0  0  0  0
  191.6130  171.7880  143.9730 C   0  0  0  0  0  3  0  0  0  0  0  0
  193.8740  172.4480  145.3830 N   0  0  0  0  0  0  0  0  0  0  0  0
  195.6830  175.2500  145.1470 C   0  0  0  0  0  3  0  0  0  0  0  0
  194.3720  175.3760  144.9020 C   0  0  0  0  0  0  0  0  0  0  0  0
  195.6000  176.2230  143.2000 C   0  0  0  0  0  0  0  0  0  0  0  0
  196.9360  176.2670  140.6650 Cl  0  0  0  0  0  0  0  0  0  0  0  0
  194.3290  175.7830  141.4280 C   0  0  0  0  0  3  0  0  0  0  0  0
  193.5160  175.6350  142.6080 N   0  0  0  0  0  0  0  0  0  0  0  0
  196.4570  175.7270  144.0310 N   0  0  0  0  0  0  0  0  0  0  0  0
  194.2680  175.9920  143.5940 C   0  0  0  0  0  0  0  0  0  0  0  0
  195.5830  176.0970  141.7610 C   0  0  0  0  0  0  0  0  0  0  0  0
  188.5920  175.2770  147.0200 C   0  0  0  0  0  2  0  0  0  0  0  0
  188.1530  176.7330  147.0970 C   0  0  0  0  0  2  0  0  0  0  0  0
  186.6620  176.8630  146.8260 C   0  0  0  0  0  2  0  0  0  0  0  0
  186.8290  178.2910  143.3140 C   0  0  0  0  0  0  0  0  0  0  0  0
  185.4450  178.7530  145.7060 C   0  0  0  0  0  3  0  0  0  0  0  0
  185.8810  179.3180  143.3870 C   0  0  0  0  0  3  0  0  0  0  0  0
  187.5620  178.0400  142.0430 C   0  0  0  0  0  1  0  0  0  0  0  0
  186.3950  177.7260  145.6350 C   0  0  0  0  0  0  0  0  0  0  0  0
  187.0840  177.4940  144.4360 C   0  0  0  0  0  3  0  0  0  0  0  0
  185.1900  179.5500  144.5810 C   0  0  0  0  0  3  0  0  0  0  0  0
  192.4670  169.5330  143.5900 N   0  0  0  0  0  2  0  0  0  0  0  0
  192.9190  169.1770  142.2530 C   0  0  0  0  0  2  0  0  0  0  0  0
  191.7720  168.6980  141.4320 C   0  0  0  0  0  0  0  0  0  0  0  0
  190.6890  168.3890  141.9990 O   0  0  0  0  0  0  0  0  0  0  0  0
  191.9020  168.6030  140.0060 N   0  0  0  0  0  2  0  0  0  0  0  0
  190.8170  168.1660  139.1430 C   0  0  0  0  0  2  0  0  0  0  0  0
  190.4810  169.2550  138.1360 C   0  0  0  0  0  2  0  0  0  0  0  0
  191.7020  169.8610  137.6340 N   0  0  0  0  0  2  0  0  0  0  0  0
  191.3680  171.1990  137.1620 C   0  0  0  0  0  2  0  0  0  0  0  0
  189.9300  171.3960  137.2070 N   0  0  0  0  0  2  0  0  0  0  0  0
  189.3410  172.5950  136.6970 C   0  0  0  0  0  3  0  0  0  0  0  0
  188.8500  173.5350  137.5070 C   0  0  0  0  0  3  0  0  0  0  0  0
  188.8960  173.4170  138.9970 C   0  0  0  0  0  2  0  0  0  0  0  0
  190.0090  171.6370  140.5840 O   0  0  0  0  0  1  0  0  0  0  0  0
  190.7290  172.8330  140.4940 C   0  0  2  0  0  0  0  0  0  0  0  0
  192.2410  172.7780  140.5480 C   0  0  0  0  0  1  0  0  0  0  0  0
  190.0570  174.0420  140.9330 C   0  0  0  0  0  2  0  0  0  0  0  0
  190.2210  173.7890  139.4840 N   0  0  0  0  0  0  0  0  0  0  0  0
  1  8  1  0  0  0  0
  2  4  1  0  0  0  0
  3 12  1  0  0  0  0
  3  5  1  0  0  0  0
  4 12  2  0  0  0  0
  5 14  1  6  0  0  0
  5  1  1  0  0  0  0
  6  8  1  0  0  0  0
  6 22  1  1  0  0  0
  7  9  1  0  0  0  0
  7 10  1  0  0  0  0
  9  3  2  0  0  0  0
 10  6  1  0  0  0  0
 11  2  2  0  0  0  0
 11  9  1  0  0  0  0
 14 13  1  0  0  0  0
 15 20  1  0  0  0  0
 15 19  1  0  0  0  0
 16 21  1  0  0  0  0
 17 21  1  0  0  0  0
 17 18  2  0  0  0  0
 18 20  1  0  0  0  0
 19 13  2  0  0  0  0
 20 14  2  0  0  0  0
 21 15  2  0  0  0  0
 22 23  1  0  0  0  0
 24 23  1  0  0  0  0
 25 27  2  0  0  0  0
 25 30  1  0  0  0  0
 27 31  1  0  0  0  0
 28 25  1  0  0  0  0
 29 26  1  0  0  0  0
 29 24  1  0  0  0  0
 30 29  2  0  0  0  0
 31 26  2  0  0  0  0
 32  2  1  0  0  0  0
 33 32  1  0  0  0  0
 34 35  2  0  0  0  0
 34 33  1  0  0  0  0
 36 34  1  0  0  0  0
 37 36  1  0  0  0  0
 38 37  1  0  0  0  0
 39 38  1  0  0  0  0
 40 41  1  0  0  0  0
 40 39  1  0  0  0  0
 42 41  1  0  0  0  0
 42 43  2  0  0  0  0
 43 44  1  0  0  0  0
 44 49  1  0  0  0  0
 46 47  1  1  0  0  0
 46 45  1  0  0  0  0
 46 48  1  0  0  0  0
 49 46  1  0  0  0  0
 49 48  1  0  0  0  0
M  END
>  <MODEL>
5

>  <REMARK>
 VINA RESULT:      -6.7      1.665      2.759
  Name = 
  16 active torsions:
  status: ('A' for Active; 'I' for Inactive)
    1  A    between atoms: C_1  and  C_26
    2  A    between atoms: C_1  and  C_41
    3  A    between atoms: C_3  and  N_49
    4  A    between atoms: N_4  and  C_32
    5  A    between atoms: N_4  and  C_47
    6  A    between atoms: C_9  and  C_14
    7  A    between atoms: N_17  and  C_27
    8  A    between atoms: N_17  and  C_47
    9  A    between atoms: C_19  and  C_38
   10  A    between atoms: N_21  and  C_28
   11  A    between atoms: C_22  and  C_42
   12  A    between atoms: C_28  and  C_32
   13  A    between atoms: C_29  and  C_34
   14  A    between atoms: C_29  and  N_45
   15  A    between atoms: C_38  and  N_49
   16  A    between atoms: C_41  and  C_42
                            x       y       z     vdW  Elec       q    Type
                         _______ _______ _______ _____ _____    ______ ____

>  <TORSDO>
F 16

$$$$
=
 OpenBabel11042414093D

 49 54  0  0  1  0  0  0  0  0999 V2000
  189.0590  173.2390  139.9880 C   0  0  0  0  0  2  0  0  0  0  0  0
  192.6680  171.6980  143.5520 C   0  0  0  0  0  0  0  0  0  0  0  0
  191.1910  172.4700  141.3090 C   0  0  0  0  0  0  0  0  0  0  0  0
  193.2910  171.9980  142.3430 C   0  0  0  0  0  3  0  0  0  0  0  0
  190.5080  172.7570  139.9840 C   0  0  1  0  0  3  0  0  0  0  0  0
  188.0280  174.2210  142.0040 C   0  0  1  0  0  3  0  0  0  0  0  0
  189.0640  172.3850  142.7440 C   0  0  0  0  0  2  0  0  0  0  0  0
  188.8730  174.5290  140.7680 C   0  0  0  0  0  2  0  0  0  0  0  0
  190.5260  172.1850  142.5300 C   0  0  0  0  0  0  0  0  0  0  0  0
  188.8330  173.7330  143.0380 O   0  0  0  0  0  0  0  0  0  0  0  0
  191.2830  171.8120  143.6410 C   0  0  0  0  0  3  0  0  0  0  0  0
  192.5490  172.3650  141.2690 N   0  0  0  0  0  0  0  0  0  0  0  0
  189.7320  170.6240  138.8860 C   0  0  0  0  0  3  0  0  0  0  0  0
  190.6510  171.5820  139.0710 C   0  0  0  0  0  0  0  0  0  0  0  0
  191.2580  170.1880  137.3940 C   0  0  0  0  0  0  0  0  0  0  0  0
  191.5450  169.2570  134.6980 Cl  0  0  0  0  0  0  0  0  0  0  0  0
  192.3420  171.5500  136.0100 C   0  0  0  0  0  3  0  0  0  0  0  0
  192.2220  172.2120  137.2830 N   0  0  0  0  0  0  0  0  0  0  0  0
  190.0900  169.7840  137.7730 N   0  0  0  0  0  0  0  0  0  0  0  0
  191.6740  171.3500  138.0710 C   0  0  0  0  0  0  0  0  0  0  0  0
  191.7430  170.3590  136.0430 C   0  0  0  0  0  0  0  0  0  0  0  0
  187.3100  175.4760  142.4740 C   0  0  0  0  0  2  0  0  0  0  0  0
  188.1690  176.2190  143.4880 C   0  0  0  0  0  2  0  0  0  0  0  0
  187.9950  177.7230  143.3440 C   0  0  0  0  0  2  0  0  0  0  0  0
  185.5900  178.4130  146.1980 C   0  0  0  0  0  0  0  0  0  0  0  0
  185.8050  178.9480  143.4560 C   0  0  0  0  0  3  0  0  0  0  0  0
  184.5920  179.1480  145.5480 C   0  0  0  0  0  3  0  0  0  0  0  0
  185.4810  178.1320  147.6550 C   0  0  0  0  0  1  0  0  0  0  0  0
  186.8050  178.2120  144.1050 C   0  0  0  0  0  0  0  0  0  0  0  0
  186.6960  177.9480  145.4780 C   0  0  0  0  0  3  0  0  0  0  0  0
  184.6980  179.4140  144.1780 C   0  0  0  0  0  3  0  0  0  0  0  0
  193.4220  171.2990  144.7040 N   0  0  0  0  0  2  0  0  0  0  0  0
  194.4050  170.2270  144.6780 C   0  0  0  0  0  2  0  0  0  0  0  0
  195.7350  170.7370  145.1130 C   0  0  0  0  0  0  0  0  0  0  0  0
  196.2960  170.2280  146.1210 O   0  0  0  0  0  0  0  0  0  0  0  0
  196.3730  171.7920  144.3780 N   0  0  0  0  0  2  0  0  0  0  0  0
  197.6800  172.3220  144.7330 C   0  0  0  0  0  2  0  0  0  0  0  0
  197.6330  173.8410  144.7720 C   0  0  0  0  0  2  0  0  0  0  0  0
  196.2920  174.2880  145.1090 N   0  0  0  0  0  2  0  0  0  0  0  0
  195.9480  175.3710  144.1960 C   0  0  0  0  0  2  0  0  0  0  0  0
  194.8280  176.1300  144.7260 N   0  0  0  0  0  2  0  0  0  0  0  0
  194.6740  176.3160  146.1360 C   0  0  0  0  0  3  0  0  0  0  0  0
  193.4720  176.4510  146.6980 C   0  0  0  0  0  3  0  0  0  0  0  0
  192.2030  176.3990  145.9070 C   0  0  0  0  0  2  0  0  0  0  0  0
  189.8540  177.3020  146.6770 O   0  0  0  0  0  1  0  0  0  0  0  0
  190.0780  175.9640  147.0190 C   0  0  2  0  0  0  0  0  0  0  0  0
  188.9090  175.0020  147.0030 C   0  0  0  0  0  1  0  0  0  0  0  0
  191.1980  175.6880  147.8990 C   0  0  0  0  0  2  0  0  0  0  0  0
  191.3160  175.3780  146.4570 N   0  0  0  0  0  0  0  0  0  0  0  0
  1  8  1  0  0  0  0
  2 11  1  0  0  0  0
  2 32  1  0  0  0  0
  3  9  1  0  0  0  0
  4  2  2  0  0  0  0
  5 14  1  6  0  0  0
  5  1  1  0  0  0  0
  5  3  1  0  0  0  0
  6 22  1  1  0  0  0
  6 10  1  0  0  0  0
  7 10  1  0  0  0  0
  8  6  1  0  0  0  0
  9  7  1  0  0  0  0
  9 11  2  0  0  0  0
 12  3  2  0  0  0  0
 12  4  1  0  0  0  0
 13 14  1  0  0  0  0
 15 19  1  0  0  0  0
 15 20  1  0  0  0  0
 16 21  1  0  0  0  0
 17 21  1  0  0  0  0
 17 18  2  0  0  0  0
 18 20  1  0  0  0  0
 19 13  2  0  0  0  0
 20 14  2  0  0  0  0
 21 15  2  0  0  0  0
 22 23  1  0  0  0  0
 24 23  1  0  0  0  0
 24 29  1  0  0  0  0
 25 28  1  0  0  0  0
 26 29  2  0  0  0  0
 26 31  1  0  0  0  0
 27 25  1  0  0  0  0
 29 30  1  0  0  0  0
 30 25  2  0  0  0  0
 31 27  2  0  0  0  0
 33 32  1  0  0  0  0
 33 34  1  0  0  0  0
 34 35  2  0  0  0  0
 36 37  1  0  0  0  0
 36 34  1  0  0  0  0
 37 38  1  0  0  0  0
 38 39  1  0  0  0  0
 40 41  1  0  0  0  0
 40 39  1  0  0  0  0
 41 42  1  0  0  0  0
 42 43  2  0  0  0  0
 44 49  1  0  0  0  0
 44 43  1  0  0  0  0
 45 46  1  0  0  0  0
 46 47  1  1  0  0  0
 46 48  1  0  0  0  0
 49 46  1  0  0  0  0
 49 48  1  0  0  0  0
M  END
>  <MODEL>
6

>  <REMARK>
 VINA RESULT:      -6.7      2.641      6.113
  Name = 
  16 active torsions:
  status: ('A' for Active; 'I' for Inactive)
    1  A    between atoms: C_1  and  C_26
    2  A    between atoms: C_1  and  C_41
    3  A    between atoms: C_3  and  N_49
    4  A    between atoms: N_4  and  C_32
    5  A    between atoms: N_4  and  C_47
    6  A    between atoms: C_9  and  C_14
    7  A    between atoms: N_17  and  C_27
    8  A    between atoms: N_17  and  C_47
    9  A    between atoms: C_19  and  C_38
   10  A    between atoms: N_21  and  C_28
   11  A    between atoms: C_22  and  C_42
   12  A    between atoms: C_28  and  C_32
   13  A    between atoms: C_29  and  C_34
   14  A    between atoms: C_29  and  N_45
   15  A    between atoms: C_38  and  N_49
   16  A    between atoms: C_41  and  C_42
                            x       y       z     vdW  Elec       q    Type
                         _______ _______ _______ _____ _____    ______ ____

>  <TORSDO>
F 16

$$$$
=
 OpenBabel11042414093D

 49 54  0  0  1  0  0  0  0  0999 V2000
  190.3590  177.2570  144.7770 C   0  0  0  0  0  2  0  0  0  0  0  0
  188.9630  174.0880  140.7640 C   0  0  0  0  0  0  0  0  0  0  0  0
  189.2410  176.0500  142.7350 C   0  0  0  0  0  0  0  0  0  0  0  0
  188.1910  175.2480  140.7460 C   0  0  0  0  0  3  0  0  0  0  0  0
  189.1850  177.1180  143.8120 C   0  0  1  0  0  3  0  0  0  0  0  0
  192.5850  176.3280  144.2510 C   0  0  1  0  0  3  0  0  0  0  0  0
  191.1590  174.6810  143.7540 C   0  0  0  0  0  2  0  0  0  0  0  0
  191.6710  177.5410  144.0670 C   0  0  0  0  0  2  0  0  0  0  0  0
  190.0530  174.8870  142.7750 C   0  0  0  0  0  0  0  0  0  0  0  0
  192.2980  175.3500  143.2930 O   0  0  0  0  0  0  0  0  0  0  0  0
  189.9060  173.9250  141.7740 C   0  0  0  0  0  3  0  0  0  0  0  0
  188.3430  176.1810  141.7180 N   0  0  0  0  0  0  0  0  0  0  0  0
  187.7890  176.5410  145.8300 C   0  0  0  0  0  3  0  0  0  0  0  0
  187.9060  177.0040  144.5780 C   0  0  0  0  0  0  0  0  0  0  0  0
  185.8000  177.2900  145.3550 C   0  0  0  0  0  0  0  0  0  0  0  0
  183.5820  178.6550  146.5520 Cl  0  0  0  0  0  0  0  0  0  0  0  0
  185.1780  179.1820  144.3630 C   0  0  0  0  0  3  0  0  0  0  0  0
  186.3460  178.6850  143.6830 N   0  0  0  0  0  0  0  0  0  0  0  0
  186.4660  176.7880  146.3420 N   0  0  0  0  0  0  0  0  0  0  0  0
  186.6080  177.5460  144.2310 C   0  0  0  0  0  0  0  0  0  0  0  0
  184.8580  178.3860  145.3850 C   0  0  0  0  0  0  0  0  0  0  0  0
  194.0410  176.7450  144.1250 C   0  0  0  0  0  2  0  0  0  0  0  0
  194.6980  176.7650  145.5000 C   0  0  0  0  0  2  0  0  0  0  0  0
  194.1490  175.6500  146.3760 C   0  0  0  0  0  2  0  0  0  0  0  0
  194.6450  172.0160  145.4010 C   0  0  0  0  0  0  0  0  0  0  0  0
  196.2020  174.2200  146.1530 C   0  0  0  0  0  3  0  0  0  0  0  0
  196.0370  171.8950  145.4810 C   0  0  0  0  0  3  0  0  0  0  0  0
  193.8160  170.8480  144.9970 C   0  0  0  0  0  1  0  0  0  0  0  0
  194.8080  174.3420  146.0750 C   0  0  0  0  0  0  0  0  0  0  0  0
  194.0320  173.2390  145.6960 C   0  0  0  0  0  3  0  0  0  0  0  0
  196.8160  172.9950  145.8570 C   0  0  0  0  0  3  0  0  0  0  0  0
  188.8210  173.0790  139.7570 N   0  0  0  0  0  2  0  0  0  0  0  0
  189.9490  172.5220  139.0250 C   0  0  0  0  0  2  0  0  0  0  0  0
  190.3830  173.4620  137.9550 C   0  0  0  0  0  0  0  0  0  0  0  0
  189.5210  174.1580  137.3530 O   0  0  0  0  0  0  0  0  0  0  0  0
  191.7740  173.5780  137.6250 N   0  0  0  0  0  2  0  0  0  0  0  0
  192.2700  174.4920  136.6070 C   0  0  0  0  0  2  0  0  0  0  0  0
  193.5900  175.1010  137.0530 C   0  0  0  0  0  2  0  0  0  0  0  0
  194.2320  175.7690  135.9340 N   0  0  0  0  0  2  0  0  0  0  0  0
  195.5080  175.1040  135.7000 C   0  0  0  0  0  2  0  0  0  0  0  0
  196.5310  175.6740  136.5580 N   0  0  0  0  0  2  0  0  0  0  0  0
  197.5730  174.8560  137.0950 C   0  0  0  0  0  3  0  0  0  0  0  0
  197.8500  174.8410  138.4000 C   0  0  0  0  0  3  0  0  0  0  0  0
  197.0860  175.6560  139.3950 C   0  0  0  0  0  2  0  0  0  0  0  0
  194.7690  175.3890  140.6150 O   0  0  0  0  0  1  0  0  0  0  0  0
  195.8660  175.0560  141.4170 C   0  0  2  0  0  0  0  0  0  0  0  0
  195.7180  173.9320  142.4210 C   0  0  0  0  0  1  0  0  0  0  0  0
  196.8330  176.1040  141.6800 C   0  0  0  0  0  2  0  0  0  0  0  0
  197.1680  175.0350  140.7140 N   0  0  0  0  0  0  0  0  0  0  0  0
  2 11  1  0  0  0  0
  3  9  1  0  0  0  0
  3  5  1  0  0  0  0
  4  2  2  0  0  0  0
  4 12  1  0  0  0  0
  5 14  1  1  0  0  0
  5  1  1  0  0  0  0
  6 22  1  6  0  0  0
  8  6  1  0  0  0  0
  8  1  1  0  0  0  0
  9  7  1  0  0  0  0
 10  7  1  0  0  0  0
 10  6  1  0  0  0  0
 11  9  2  0  0  0  0
 12  3  2  0  0  0  0
 13 19  1  0  0  0  0
 14 13  2  0  0  0  0
 15 21  1  0  0  0  0
 15 19  2  0  0  0  0
 17 21  2  0  0  0  0
 18 20  2  0  0  0  0
 18 17  1  0  0  0  0
 20 14  1  0  0  0  0
 20 15  1  0  0  0  0
 21 16  1  0  0  0  0
 22 23  1  0  0  0  0
 23 24  1  0  0  0  0
 25 27  2  0  0  0  0
 25 30  1  0  0  0  0
 27 31  1  0  0  0  0
 28 25  1  0  0  0  0
 29 26  1  0  0  0  0
 29 24  1  0  0  0  0
 30 29  2  0  0  0  0
 31 26  2  0  0  0  0
 32  2  1  0  0  0  0
 33 32  1  0  0  0  0
 34 33  1  0  0  0  0
 35 34  2  0  0  0  0
 36 34  1  0  0  0  0
 37 38  1  0  0  0  0
 37 36  1  0  0  0  0
 39 38  1  0  0  0  0
 40 39  1  0  0  0  0
 40 41  1  0  0  0  0
 41 42  1  0  0  0  0
 42 43  2  0  0  0  0
 43 44  1  0  0  0  0
 44 49  1  0  0  0  0
 45 46  1  0  0  0  0
 46 48  1  0  0  0  0
 46 47  1  1  0  0  0
 49 46  1  0  0  0  0
 49 48  1  0  0  0  0
M  END
>  <MODEL>
7

>  <REMARK>
 VINA RESULT:      -6.5      3.611      8.243
  Name = 
  16 active torsions:
  status: ('A' for Active; 'I' for Inactive)
    1  A    between atoms: C_1  and  C_26
    2  A    between atoms: C_1  and  C_41
    3  A    between atoms: C_3  and  N_49
    4  A    between atoms: N_4  and  C_32
    5  A    between atoms: N_4  and  C_47
    6  A    between atoms: C_9  and  C_14
    7  A    between atoms: N_17  and  C_27
    8  A    between atoms: N_17  and  C_47
    9  A    between atoms: C_19  and  C_38
   10  A    between atoms: N_21  and  C_28
   11  A    between atoms: C_22  and  C_42
   12  A    between atoms: C_28  and  C_32
   13  A    between atoms: C_29  and  C_34
   14  A    between atoms: C_29  and  N_45
   15  A    between atoms: C_38  and  N_49
   16  A    between atoms: C_41  and  C_42
                            x       y       z     vdW  Elec       q    Type
                         _______ _______ _______ _____ _____    ______ ____

>  <TORSDO>
F 16

$$$$
=
 OpenBabel11042414093D

 49 54  0  0  1  0  0  0  0  0999 V2000
  193.3090  171.4460  143.3600 C   0  0  0  0  0  2  0  0  0  0  0  0
  188.7990  174.0060  142.2650 C   0  0  0  0  0  0  0  0  0  0  0  0
  190.8580  172.1960  142.8060 C   0  0  0  0  0  0  0  0  0  0  0  0
  188.5330  172.6640  142.5290 C   0  0  0  0  0  3  0  0  0  0  0  0
  191.8790  171.0840  142.9700 C   0  0  1  0  0  3  0  0  0  0  0  0
  193.8580  173.6170  144.3980 C   0  0  1  0  0  3  0  0  0  0  0  0
  192.5310  174.1390  142.6780 C   0  0  0  0  0  2  0  0  0  0  0  0
  193.3850  172.1910  144.6820 C   0  0  0  0  0  2  0  0  0  0  0  0
  191.1620  173.5580  142.5550 C   0  0  0  0  0  0  0  0  0  0  0  0
  192.7790  174.4250  144.0250 O   0  0  0  0  0  0  0  0  0  0  0  0
  190.1180  174.4490  142.2980 C   0  0  0  0  0  3  0  0  0  0  0  0
  189.5520  171.8060  142.7830 N   0  0  0  0  0  0  0  0  0  0  0  0
  191.2650  169.0370  141.6330 C   0  0  0  0  0  3  0  0  0  0  0  0
  191.8880  170.2160  141.7520 C   0  0  0  0  0  0  0  0  0  0  0  0
  192.0030  169.4490  139.6260 C   0  0  0  0  0  0  0  0  0  0  0  0
  191.2650  169.1620  136.8710 Cl  0  0  0  0  0  0  0  0  0  0  0  0
  191.9540  171.3280  138.4360 C   0  0  0  0  0  3  0  0  0  0  0  0
  192.2580  171.6720  139.8010 N   0  0  0  0  0  0  0  0  0  0  0  0
  191.2810  168.5880  140.2650 N   0  0  0  0  0  0  0  0  0  0  0  0
  192.3690  170.5480  140.4250 C   0  0  0  0  0  0  0  0  0  0  0  0
  191.7620  170.0130  138.3170 C   0  0  0  0  0  0  0  0  0  0  0  0
  194.5230  174.2040  145.6330 C   0  0  0  0  0  2  0  0  0  0  0  0
  195.9680  174.5700  145.3210 C   0  0  0  0  0  2  0  0  0  0  0  0
  196.9290  173.6380  146.0420 C   0  0  0  0  0  2  0  0  0  0  0  0
  197.3970  170.9160  143.4390 C   0  0  0  0  0  0  0  0  0  0  0  0
  196.6670  171.1410  146.1340 C   0  0  0  0  0  3  0  0  0  0  0  0
  197.0890  169.7690  144.1790 C   0  0  0  0  0  3  0  0  0  0  0  0
  197.7900  170.7990  142.0080 C   0  0  0  0  0  1  0  0  0  0  0  0
  196.9740  172.2910  145.3940 C   0  0  0  0  0  0  0  0  0  0  0  0
  197.3420  172.1750  144.0470 C   0  0  0  0  0  3  0  0  0  0  0  0
  196.7220  169.8800  145.5250 C   0  0  0  0  0  3  0  0  0  0  0  0
  187.7460  174.9360  141.9840 N   0  0  0  0  0  2  0  0  0  0  0  0
  187.8000  175.8900  140.8860 C   0  0  0  0  0  2  0  0  0  0  0  0
  186.8320  176.9980  141.1190 C   0  0  0  0  0  0  0  0  0  0  0  0
  186.5580  177.7910  140.1770 O   0  0  0  0  0  0  0  0  0  0  0  0
  186.2100  177.1480  142.4030 N   0  0  0  0  0  2  0  0  0  0  0  0
  185.2400  178.1920  142.6930 C   0  0  0  0  0  2  0  0  0  0  0  0
  185.9430  179.4110  143.2690 C   0  0  0  0  0  2  0  0  0  0  0  0
  185.0940  180.0530  144.2570 N   0  0  0  0  0  2  0  0  0  0  0  0
  184.5370  179.0060  145.1050 C   0  0  0  0  0  2  0  0  0  0  0  0
  185.3510  178.8480  146.2980 N   0  0  0  0  0  2  0  0  0  0  0  0
  185.3650  177.6100  147.0130 C   0  0  0  0  0  3  0  0  0  0  0  0
  186.4240  176.7990  146.9910 C   0  0  0  0  0  3  0  0  0  0  0  0
  187.6740  177.1280  146.2380 C   0  0  0  0  0  2  0  0  0  0  0  0
  190.0440  177.9020  145.3970 O   0  0  0  0  0  1  0  0  0  0  0  0
  190.0710  176.7030  146.1180 C   0  0  2  0  0  0  0  0  0  0  0  0
  191.2670  176.4100  146.9980 C   0  0  0  0  0  1  0  0  0  0  0  0
  189.3130  175.5910  145.5760 C   0  0  0  0  0  2  0  0  0  0  0  0
  188.7840  176.3270  146.7460 N   0  0  0  0  0  0  0  0  0  0  0  0
  1  8  1  0  0  0  0
  2 11  2  0  0  0  0
  2  4  1  0  0  0  0
  3  5  1  0  0  0  0
  4 12  2  0  0  0  0
  5 14  1  6  0  0  0
  5  1  1  0  0  0  0
  6  8  1  0  0  0  0
  6 22  1  1  0  0  0
  7 10  1  0  0  0  0
  9  7  1  0  0  0  0
  9  3  2  0  0  0  0
 10  6  1  0  0  0  0
 11  9  1  0  0  0  0
 12  3  1  0  0  0  0
 13 14  1  0  0  0  0
 15 19  1  0  0  0  0
 15 20  1  0  0  0  0
 16 21  1  0  0  0  0
 17 18  2  0  0  0  0
 18 20  1  0  0  0  0
 19 13  2  0  0  0  0
 20 14  2  0  0  0  0
 21 17  1  0  0  0  0
 21 15  2  0  0  0  0
 23 22  1  0  0  0  0
 23 24  1  0  0  0  0
 25 30  2  0  0  0  0
 25 27  1  0  0  0  0
 27 31  2  0  0  0  0
 28 25  1  0  0  0  0
 29 24  1  0  0  0  0
 29 26  2  0  0  0  0
 30 29  1  0  0  0  0
 31 26  1  0  0  0  0
 32  2  1  0  0  0  0
 33 34  1  0  0  0  0
 33 32  1  0  0  0  0
 34 36  1  0  0  0  0
 35 34  2  0  0  0  0
 36 37  1  0  0  0  0
 37 38  1  0  0  0  0
 38 39  1  0  0  0  0
 39 40  1  0  0  0  0
 40 41  1  0  0  0  0
 41 42  1  0  0  0  0
 43 42  2  0  0  0  0
 44 49  1  0  0  0  0
 44 43  1  0  0  0  0
 45 46  1  0  0  0  0
 46 49  1  0  0  0  0
 46 47  1  1  0  0  0
 48 46  1  0  0  0  0
 48 49  1  0  0  0  0
M  END
>  <MODEL>
8

>  <REMARK>
 VINA RESULT:      -6.5      2.922      8.136
  Name = 
  16 active torsions:
  status: ('A' for Active; 'I' for Inactive)
    1  A    between atoms: C_1  and  C_26
    2  A    between atoms: C_1  and  C_41
    3  A    between atoms: C_3  and  N_49
    4  A    between atoms: N_4  and  C_32
    5  A    between atoms: N_4  and  C_47
    6  A    between atoms: C_9  and  C_14
    7  A    between atoms: N_17  and  C_27
    8  A    between atoms: N_17  and  C_47
    9  A    between atoms: C_19  and  C_38
   10  A    between atoms: N_21  and  C_28
   11  A    between atoms: C_22  and  C_42
   12  A    between atoms: C_28  and  C_32
   13  A    between atoms: C_29  and  C_34
   14  A    between atoms: C_29  and  N_45
   15  A    between atoms: C_38  and  N_49
   16  A    between atoms: C_41  and  C_42
                            x       y       z     vdW  Elec       q    Type
                         _______ _______ _______ _____ _____    ______ ____

>  <TORSDO>
F 16

$$$$
=
 OpenBabel11042414093D

 49 54  0  0  1  0  0  0  0  0999 V2000
  189.4930  177.8960  144.5660 C   0  0  0  0  0  2  0  0  0  0  0  0
  189.4220  173.1920  142.1240 C   0  0  0  0  0  0  0  0  0  0  0  0
  189.4280  175.8790  142.8900 C   0  0  0  0  0  0  0  0  0  0  0  0
  189.5850  174.2110  141.1890 C   0  0  0  0  0  3  0  0  0  0  0  0
  189.3060  177.3710  143.1450 C   0  0  1  0  0  3  0  0  0  0  0  0
  190.6470  176.5670  146.2960 C   0  0  1  0  0  3  0  0  0  0  0  0
  189.2300  175.1290  145.3380 C   0  0  0  0  0  2  0  0  0  0  0  0
  190.8550  177.5510  145.1440 C   0  0  0  0  0  2  0  0  0  0  0  0
  189.2740  174.8650  143.8710 C   0  0  0  0  0  0  0  0  0  0  0  0
  190.5410  175.2600  145.8100 O   0  0  0  0  0  0  0  0  0  0  0  0
  189.2850  173.5280  143.4680 C   0  0  0  0  0  3  0  0  0  0  0  0
  189.5790  175.5070  141.5880 N   0  0  0  0  0  0  0  0  0  0  0  0
  187.6700  177.8450  141.2860 C   0  0  0  0  0  3  0  0  0  0  0  0
  188.0190  177.8820  142.5780 C   0  0  0  0  0  0  0  0  0  0  0  0
  185.8720  178.5390  142.2990 C   0  0  0  0  0  0  0  0  0  0  0  0
  183.0180  178.2910  142.2060 Cl  0  0  0  0  0  0  0  0  0  0  0  0
  184.9020  177.8080  144.1630 C   0  0  0  0  0  3  0  0  0  0  0  0
  186.3280  177.7890  144.3650 N   0  0  0  0  0  0  0  0  0  0  0  0
  186.2840  178.1970  141.1230 N   0  0  0  0  0  0  0  0  0  0  0  0
  186.8360  178.3080  143.2990 C   0  0  0  0  0  0  0  0  0  0  0  0
  184.6100  178.2170  142.9270 C   0  0  0  0  0  0  0  0  0  0  0  0
  191.8100  176.6490  147.2710 C   0  0  0  0  0  2  0  0  0  0  0  0
  192.9330  175.7240  146.8220 C   0  0  0  0  0  2  0  0  0  0  0  0
  194.1890  176.5170  146.4970 C   0  0  0  0  0  2  0  0  0  0  0  0
  194.0270  175.6750  142.8000 C   0  0  0  0  0  0  0  0  0  0  0  0
  195.8470  176.7690  144.6270 C   0  0  0  0  0  3  0  0  0  0  0  0
  195.2930  176.0840  142.3660 C   0  0  0  0  0  3  0  0  0  0  0  0
  193.0560  175.0980  141.8300 C   0  0  0  0  0  1  0  0  0  0  0  0
  194.5800  176.3580  145.0620 C   0  0  0  0  0  0  0  0  0  0  0  0
  193.6710  175.8140  144.1460 C   0  0  0  0  0  3  0  0  0  0  0  0
  196.2040  176.6290  143.2780 C   0  0  0  0  0  3  0  0  0  0  0  0
  189.4150  171.8130  141.7350 N   0  0  0  0  0  2  0  0  0  0  0  0
  190.4070  171.2350  140.8400 C   0  0  0  0  0  2  0  0  0  0  0  0
  191.2000  170.1950  141.5530 C   0  0  0  0  0  0  0  0  0  0  0  0
  190.8310  168.9900  141.5040 O   0  0  0  0  0  0  0  0  0  0  0  0
  192.3810  170.5670  142.2790 N   0  0  0  0  0  2  0  0  0  0  0  0
  193.2140  169.6010  142.9770 C   0  0  0  0  0  2  0  0  0  0  0  0
  193.1010  169.8060  144.4800 C   0  0  0  0  0  2  0  0  0  0  0  0
  194.4040  170.1260  145.0370 N   0  0  0  0  0  2  0  0  0  0  0  0
  194.2760  171.3870  145.7570 C   0  0  0  0  0  2  0  0  0  0  0  0
  194.6620  172.4910  144.8970 N   0  0  0  0  0  2  0  0  0  0  0  0
  196.0220  172.9290  144.8360 C   0  0  0  0  0  3  0  0  0  0  0  0
  196.7210  172.8890  143.7000 C   0  0  0  0  0  3  0  0  0  0  0  0
  196.1350  172.4070  142.4110 C   0  0  0  0  0  2  0  0  0  0  0  0
  194.6240  172.4080  140.2560 O   0  0  0  0  0  1  0  0  0  0  0  0
  195.8660  173.0230  140.0680 C   0  0  2  0  0  0  0  0  0  0  0  0
  195.9550  174.2160  139.1400 C   0  0  0  0  0  1  0  0  0  0  0  0
  197.0450  172.2010  140.2630 C   0  0  0  0  0  2  0  0  0  0  0  0
  196.6710  173.1880  141.2990 N   0  0  0  0  0  0  0  0  0  0  0  0
  1  8  1  0  0  0  0
  2 11  1  0  0  0  0
  3  5  1  0  0  0  0
  3  9  1  0  0  0  0
  4 12  1  0  0  0  0
  4  2  2  0  0  0  0
  5 14  1  1  0  0  0
  5  1  1  0  0  0  0
  6 22  1  1  0  0  0
  7 10  1  0  0  0  0
  8  6  1  0  0  0  0
  9  7  1  0  0  0  0
 10  6  1  0  0  0  0
 11  9  2  0  0  0  0
 12  3  2  0  0  0  0
 13 14  1  0  0  0  0
 14 20  2  0  0  0  0
 15 21  2  0  0  0  0
 15 20  1  0  0  0  0
 16 21  1  0  0  0  0
 17 18  2  0  0  0  0
 19 13  2  0  0  0  0
 19 15  1  0  0  0  0
 20 18  1  0  0  0  0
 21 17  1  0  0  0  0
 23 22  1  0  0  0  0
 24 23  1  0  0  0  0
 25 30  1  0  0  0  0
 26 29  1  0  0  0  0
 27 25  2  0  0  0  0
 27 31  1  0  0  0  0
 28 25  1  0  0  0  0
 29 24  1  0  0  0  0
 30 29  2  0  0  0  0
 31 26  2  0  0  0  0
 32  2  1  0  0  0  0
 33 34  1  0  0  0  0
 33 32  1  0  0  0  0
 34 36  1  0  0  0  0
 35 34  2  0  0  0  0
 36 37  1  0  0  0  0
 37 38  1  0  0  0  0
 38 39  1  0  0  0  0
 39 40  1  0  0  0  0
 41 40  1  0  0  0  0
 42 41  1  0  0  0  0
 43 42  2  0  0  0  0
 44 43  1  0  0  0  0
 46 47  1  6  0  0  0
 46 45  1  0  0  0  0
 46 48  1  0  0  0  0
 46 49  1  0  0  0  0
 48 49  1  0  0  0  0
 49 44  1  0  0  0  0
M  END
>  <MODEL>
9

>  <REMARK>
 VINA RESULT:      -6.5      2.906      7.622
  Name = 
  16 active torsions:
  status: ('A' for Active; 'I' for Inactive)
    1  A    between atoms: C_1  and  C_26
    2  A    between atoms: C_1  and  C_41
    3  A    between atoms: C_3  and  N_49
    4  A    between atoms: N_4  and  C_32
    5  A    between atoms: N_4  and  C_47
    6  A    between atoms: C_9  and  C_14
    7  A    between atoms: N_17  and  C_27
    8  A    between atoms: N_17  and  C_47
    9  A    between atoms: C_19  and  C_38
   10  A    between atoms: N_21  and  C_28
   11  A    between atoms: C_22  and  C_42
   12  A    between atoms: C_28  and  C_32
   13  A    between atoms: C_29  and  C_34
   14  A    between atoms: C_29  and  N_45
   15  A    between atoms: C_38  and  N_49
   16  A    between atoms: C_41  and  C_42
                            x       y       z     vdW  Elec       q    Type
                         _______ _______ _______ _____ _____    ______ ____

>  <TORSDO>
F 16

$$$$
