=
 OpenBabel11042415533D

 50 55  0  0  1  0  0  0  0  0999 V2000
  186.6720  178.5770  148.0220 C   0  0  0  0  0  2  0  0  0  0  0  0
  184.4230  178.9550  146.6240 N   0  0  0  0  0  2  0  0  0  0  0  0
  186.2230  177.3230  147.5560 C   0  0  2  0  0  3  0  0  0  0  0  0
  186.5860  177.0750  146.1480 N   0  0  0  0  0  0  0  0  0  0  0  0
  184.6710  178.4650  145.2940 C   0  0  0  0  0  0  0  0  0  0  0  0
  183.8790  178.9110  144.2350 C   0  0  0  0  0  3  0  0  0  0  0  0
  185.2410  178.4780  147.4860 C   0  0  1  0  0  3  0  0  0  0  0  0
  185.1780  177.5820  142.6720 C   0  0  0  0  0  0  0  0  0  0  0  0
  185.7460  177.5500  145.0450 C   0  0  0  0  0  0  0  0  0  0  0  0
  185.9820  177.1280  143.7290 C   0  0  0  0  0  3  0  0  0  0  0  0
  184.1310  178.4710  142.9330 C   0  0  0  0  0  3  0  0  0  0  0  0
  187.7430  176.2250  145.8940 C   0  0  0  0  0  2  0  0  0  0  0  0
  188.2200  175.5910  147.1860 C   0  0  0  0  0  2  0  0  0  0  0  0
  189.5630  174.9040  146.9540 C   0  0  0  0  0  2  0  0  0  0  0  0
  189.6720  174.3000  145.6230 N   0  0  0  0  0  0  0  0  0  0  0  0
  189.9730  172.4270  144.5400 C   0  0  0  0  0  1  0  0  0  0  0  0
  189.4670  172.9610  145.7280 O   0  0  0  0  0  0  0  0  0  0  0  0
  191.0270  174.5070  145.1260 C   0  0  0  0  0  2  0  0  0  0  0  0
  191.6210  175.7710  145.7290 C   0  0  0  0  0  2  0  0  0  0  0  0
  192.0060  176.7090  144.6810 N   0  0  0  0  0  0  0  0  0  0  0  0
  189.9910  177.8850  144.8730 O   0  0  0  0  0  1  0  0  0  0  0  0
  191.4700  178.6860  143.3250 O   0  0  0  0  0  0  0  0  0  0  0  0
  191.1120  177.7730  144.3100 C   0  0  0  0  0  0  0  0  0  0  0  0
  195.6900  175.7810  144.3460 C   0  0  0  0  0  2  0  0  0  0  0  0
  193.2240  175.5780  142.8640 C   0  0  0  0  0  2  0  0  0  0  0  0
  193.3180  176.5400  144.0500 C   0  0  2  0  0  3  0  0  0  0  0  0
  194.6190  177.1680  146.0970 C   0  0  0  0  0  1  0  0  0  0  0  0
  195.4840  174.7660  143.3150 N   0  0  0  0  0  2  0  0  0  0  0  0
  194.6130  175.3280  142.2870 C   0  0  0  0  0  2  0  0  0  0  0  0
  194.3770  176.0830  145.0640 C   0  0  2  0  0  3  0  0  0  0  0  0
  185.4030  177.1690  141.3560 O   0  0  0  0  0  0  0  0  0  0  0  0
  186.1460  177.9460  140.4270 C   0  0  0  0  0  2  0  0  0  0  0  0
  186.9160  177.0260  139.5030 C   0  0  0  0  0  2  0  0  0  0  0  0
  185.9900  176.5170  138.4130 C   0  0  0  0  0  2  0  0  0  0  0  0
  186.7600  176.0780  137.2610 N   0  0  0  0  0  2  0  0  0  0  0  0
  188.5670  174.2090  137.4750 C   0  0  0  0  0  0  0  0  0  0  0  0
  187.7330  175.0730  137.3760 C   0  0  0  0  0  0  0  0  0  0  0  0
  189.5790  173.1550  137.5980 C   0  0  2  0  0  3  0  0  0  0  0  0
  189.2920  172.1050  136.7230 O   0  0  0  0  0  1  0  0  0  0  0  0
  191.0310  172.9430  139.7200 C   0  0  1  0  0  0  0  0  0  0  0  0
  189.6950  172.6590  139.0410 C   0  0  1  0  0  3  0  0  0  0  0  0
  189.1850  173.3700  141.1150 C   0  0  2  0  0  3  0  0  0  0  0  0
  190.6850  173.5610  141.0350 C   0  0  1  0  0  3  0  0  0  0  0  0
  191.3870  172.2130  140.9990 C   0  0  2  0  0  3  0  0  0  0  0  0
  188.6600  173.2030  139.8200 O   0  0  0  0  0  0  0  0  0  0  0  0
  192.0250  173.6790  139.0670 O   0  0  0  0  0  1  0  0  0  0  0  0
  192.7400  172.3870  141.2990 O   0  0  0  0  0  1  0  0  0  0  0  0
  188.5500  174.5460  141.7790 C   0  0  0  0  0  0  0  0  0  0  0  0
  187.3250  174.5300  142.0720 O   0  0  0  0  0  1  0  0  0  0  0  0
  189.3120  175.6720  142.0560 O   0  0  0  0  0  0  0  0  0  0  0  0
  2  7  1  0  0  0  0
  3  1  1  1  0  0  0
  4  3  1  0  0  0  0
  5  2  1  0  0  0  0
  6  5  2  0  0  0  0
  7  3  1  0  0  0  0
  7  1  1  6  0  0  0
  8 11  2  0  0  0  0
  8 10  1  0  0  0  0
  9  5  1  0  0  0  0
  9  4  1  0  0  0  0
 10  9  2  0  0  0  0
 11  6  1  0  0  0  0
 12  4  1  0  0  0  0
 12 13  1  0  0  0  0
 14 13  1  0  0  0  0
 15 17  1  0  0  0  0
 15 14  1  0  0  0  0
 16 17  1  0  0  0  0
 18 15  1  0  0  0  0
 18 19  1  0  0  0  0
 20 19  1  0  0  0  0
 22 23  2  0  0  0  0
 23 20  1  0  0  0  0
 23 21  1  0  0  0  0
 24 30  1  0  0  0  0
 25 26  1  0  0  0  0
 26 20  1  1  0  0  0
 26 30  1  0  0  0  0
 28 24  1  0  0  0  0
 29 25  1  0  0  0  0
 29 28  1  0  0  0  0
 30 27  1  1  0  0  0
 31  8  1  0  0  0  0
 32 31  1  0  0  0  0
 33 32  1  0  0  0  0
 34 33  1  0  0  0  0
 35 37  1  0  0  0  0
 35 34  1  0  0  0  0
 36 38  1  0  0  0  0
 37 36  3  0  0  0  0
 38 39  1  6  0  0  0
 40 46  1  6  0  0  0
 40 44  1  0  0  0  0
 40 43  1  0  0  0  0
 41 38  1  6  0  0  0
 41 40  1  0  0  0  0
 41 45  1  0  0  0  0
 42 48  1  6  0  0  0
 43 42  1  0  0  0  0
 44 43  1  0  0  0  0
 44 47  1  0  0  0  0
 45 42  1  0  0  0  0
 48 50  2  0  0  0  0
 48 49  1  0  0  0  0
M  END
>  <MODEL>
1

>  <REMARK>
 VINA RESULT:      -6.9      0.000      0.000
  Name = 
  18 active torsions:
  status: ('A' for Active; 'I' for Inactive)
    1  A    between atoms: C_1  and  C_14
    2  A    between atoms: C_2  and  C_15
    3  A    between atoms: C_2  and  N_24
    4  A    between atoms: O_3  and  C_39
    5  A    between atoms: O_3  and  C_48
    6  A    between atoms: C_6  and  C_17
    7  A    between atoms: C_8  and  C_17
    8  A    between atoms: C_11  and  N_16
    9  A    between atoms: C_13  and  N_24
   10  A    between atoms: C_13  and  C_34
   11  A    between atoms: C_15  and  N_16
   12  A    between atoms: N_24  and  O_32
   13  A    between atoms: N_25  and  C_49
   14  A    between atoms: N_30  and  C_33
   15  A    between atoms: N_30  and  C_46
   16  A    between atoms: C_34  and  C_49
   17  A    between atoms: C_46  and  C_50
   18  A    between atoms: C_48  and  C_50
                            x       y       z     vdW  Elec       q    Type
                         _______ _______ _______ _____ _____    ______ ____

>  <TORSDO>
F 18

$$$$
=
 OpenBabel11042415533D

 50 55  0  0  1  0  0  0  0  0999 V2000
  184.8840  177.9680  141.7610 C   0  0  0  0  0  2  0  0  0  0  0  0
  184.4070  178.4730  144.3450 N   0  0  0  0  0  2  0  0  0  0  0  0
  186.0240  178.5940  142.3090 C   0  0  2  0  0  3  0  0  0  0  0  0
  186.8830  177.6600  143.0600 N   0  0  0  0  0  0  0  0  0  0  0  0
  185.4140  177.7740  145.0990 C   0  0  0  0  0  0  0  0  0  0  0  0
  185.1870  177.4760  146.4430 C   0  0  0  0  0  3  0  0  0  0  0  0
  184.7450  178.6550  143.1220 C   0  0  1  0  0  3  0  0  0  0  0  0
  187.3310  176.3450  146.5810 C   0  0  0  0  0  0  0  0  0  0  0  0
  186.6320  177.3540  144.4710 C   0  0  0  0  0  0  0  0  0  0  0  0
  187.5700  176.6390  145.2290 C   0  0  0  0  0  3  0  0  0  0  0  0
  186.1400  176.7670  147.1780 C   0  0  0  0  0  3  0  0  0  0  0  0
  188.0710  177.1510  142.3840 C   0  0  0  0  0  2  0  0  0  0  0  0
  187.7430  175.8680  141.6450 C   0  0  0  0  0  2  0  0  0  0  0  0
  188.7160  174.7720  142.0660 C   0  0  0  0  0  2  0  0  0  0  0  0
  188.5500  173.5350  141.2970 N   0  0  0  0  0  0  0  0  0  0  0  0
  189.2560  172.4900  143.0810 C   0  0  0  0  0  1  0  0  0  0  0  0
  189.4780  172.6320  141.7080 O   0  0  0  0  0  0  0  0  0  0  0  0
  188.8010  173.8230  139.8890 C   0  0  0  0  0  2  0  0  0  0  0  0
  188.4690  172.6080  139.0370 C   0  0  0  0  0  2  0  0  0  0  0  0
  189.3640  172.5250  137.8880 N   0  0  0  0  0  0  0  0  0  0  0  0
  188.4850  174.4840  136.9540 O   0  0  0  0  0  1  0  0  0  0  0  0
  190.1700  173.4850  135.7760 O   0  0  0  0  0  0  0  0  0  0  0  0
  189.3130  173.5390  136.8690 C   0  0  0  0  0  0  0  0  0  0  0  0
  192.2240  170.2340  138.9430 C   0  0  0  0  0  2  0  0  0  0  0  0
  189.5620  170.0720  137.8430 C   0  0  0  0  0  2  0  0  0  0  0  0
  190.3080  171.4080  137.8270 C   0  0  2  0  0  3  0  0  0  0  0  0
  192.2330  172.7050  138.7700 C   0  0  0  0  0  1  0  0  0  0  0  0
  191.3980  169.0360  139.0800 N   0  0  0  0  0  2  0  0  0  0  0  0
  190.5610  168.9200  137.8890 C   0  0  0  0  0  2  0  0  0  0  0  0
  191.3490  171.4850  138.9540 C   0  0  2  0  0  3  0  0  0  0  0  0
  188.2590  175.6340  147.3470 O   0  0  0  0  0  0  0  0  0  0  0  0
  189.3090  174.8740  146.7640 C   0  0  0  0  0  2  0  0  0  0  0  0
  190.6260  175.2650  147.4000 C   0  0  0  0  0  2  0  0  0  0  0  0
  191.4930  175.9680  146.3710 C   0  0  0  0  0  2  0  0  0  0  0  0
  192.8190  176.2150  146.9130 N   0  0  0  0  0  2  0  0  0  0  0  0
  194.9670  175.5630  145.5860 C   0  0  0  0  0  0  0  0  0  0  0  0
  193.9730  175.8630  146.1980 C   0  0  0  0  0  0  0  0  0  0  0  0
  196.1770  175.1980  144.8430 C   0  0  2  0  0  3  0  0  0  0  0  0
  196.4350  176.1380  143.8430 O   0  0  0  0  0  1  0  0  0  0  0  0
  196.5530  172.6670  145.1790 C   0  0  1  0  0  0  0  0  0  0  0  0
  196.0700  173.7860  144.2620 C   0  0  1  0  0  3  0  0  0  0  0  0
  194.5370  172.1470  144.0850 C   0  0  2  0  0  3  0  0  0  0  0  0
  195.4590  171.6520  145.1790 C   0  0  1  0  0  3  0  0  0  0  0  0
  196.8180  171.2910  144.6020 C   0  0  2  0  0  3  0  0  0  0  0  0
  194.7440  173.5240  143.8800 O   0  0  0  0  0  0  0  0  0  0  0  0
  196.9810  172.9430  146.4820 O   0  0  0  0  0  1  0  0  0  0  0  0
  197.5170  170.5030  145.5190 O   0  0  0  0  0  1  0  0  0  0  0  0
  193.1140  171.8900  144.4530 C   0  0  0  0  0  0  0  0  0  0  0  0
  192.3960  172.8150  144.9180 O   0  0  0  0  0  1  0  0  0  0  0  0
  192.5850  170.6170  144.3000 O   0  0  0  0  0  0  0  0  0  0  0  0
  2  5  1  0  0  0  0
  3  1  1  6  0  0  0
  3  4  1  0  0  0  0
  3  7  1  0  0  0  0
  4  9  1  0  0  0  0
  5  6  1  0  0  0  0
  6 11  2  0  0  0  0
  7  1  1  6  0  0  0
  7  2  1  0  0  0  0
  8 11  1  0  0  0  0
  8 31  1  0  0  0  0
  9  5  2  0  0  0  0
  9 10  1  0  0  0  0
 10  8  2  0  0  0  0
 12  4  1  0  0  0  0
 13 14  1  0  0  0  0
 13 12  1  0  0  0  0
 15 17  1  0  0  0  0
 15 14  1  0  0  0  0
 17 16  1  0  0  0  0
 18 15  1  0  0  0  0
 19 18  1  0  0  0  0
 20 19  1  0  0  0  0
 22 23  2  0  0  0  0
 23 21  1  0  0  0  0
 23 20  1  0  0  0  0
 24 30  1  0  0  0  0
 24 28  1  0  0  0  0
 25 29  1  0  0  0  0
 26 25  1  0  0  0  0
 26 20  1  1  0  0  0
 26 30  1  0  0  0  0
 29 28  1  0  0  0  0
 30 27  1  6  0  0  0
 32 31  1  0  0  0  0
 32 33  1  0  0  0  0
 34 35  1  0  0  0  0
 34 33  1  0  0  0  0
 36 37  3  0  0  0  0
 37 35  1  0  0  0  0
 38 39  1  6  0  0  0
 38 36  1  0  0  0  0
 40 43  1  0  0  0  0
 40 46  1  1  0  0  0
 41 38  1  1  0  0  0
 41 40  1  0  0  0  0
 42 48  1  1  0  0  0
 42 43  1  0  0  0  0
 44 40  1  0  0  0  0
 44 43  1  0  0  0  0
 44 47  1  0  0  0  0
 45 42  1  0  0  0  0
 45 41  1  0  0  0  0
 48 49  1  0  0  0  0
 50 48  2  0  0  0  0
M  END
>  <MODEL>
2

>  <REMARK>
 VINA RESULT:      -6.5      3.026      7.197
  Name = 
  18 active torsions:
  status: ('A' for Active; 'I' for Inactive)
    1  A    between atoms: C_1  and  C_14
    2  A    between atoms: C_2  and  C_15
    3  A    between atoms: C_2  and  N_24
    4  A    between atoms: O_3  and  C_39
    5  A    between atoms: O_3  and  C_48
    6  A    between atoms: C_6  and  C_17
    7  A    between atoms: C_8  and  C_17
    8  A    between atoms: C_11  and  N_16
    9  A    between atoms: C_13  and  N_24
   10  A    between atoms: C_13  and  C_34
   11  A    between atoms: C_15  and  N_16
   12  A    between atoms: N_24  and  O_32
   13  A    between atoms: N_25  and  C_49
   14  A    between atoms: N_30  and  C_33
   15  A    between atoms: N_30  and  C_46
   16  A    between atoms: C_34  and  C_49
   17  A    between atoms: C_46  and  C_50
   18  A    between atoms: C_48  and  C_50
                            x       y       z     vdW  Elec       q    Type
                         _______ _______ _______ _____ _____    ______ ____

>  <TORSDO>
F 18

$$$$
=
 OpenBabel11042415533D

 50 55  0  0  1  0  0  0  0  0999 V2000
  184.7020  177.8260  141.4740 C   0  0  0  0  0  2  0  0  0  0  0  0
  184.1330  178.3560  144.0340 N   0  0  0  0  0  2  0  0  0  0  0  0
  185.6910  178.6980  141.9780 C   0  0  2  0  0  3  0  0  0  0  0  0
  186.7220  177.9970  142.7660 N   0  0  0  0  0  0  0  0  0  0  0  0
  185.2610  177.9160  144.8120 C   0  0  0  0  0  0  0  0  0  0  0  0
  185.0990  177.6480  146.1720 C   0  0  0  0  0  3  0  0  0  0  0  0
  184.4260  178.5400  142.8000 C   0  0  1  0  0  3  0  0  0  0  0  0
  187.4280  176.9840  146.3440 C   0  0  0  0  0  0  0  0  0  0  0  0
  186.5390  177.7200  144.1930 C   0  0  0  0  0  0  0  0  0  0  0  0
  187.6020  177.2500  144.9760 C   0  0  0  0  0  3  0  0  0  0  0  0
  186.1760  177.1860  146.9320 C   0  0  0  0  0  3  0  0  0  0  0  0
  187.9880  177.7050  142.1040 C   0  0  0  0  0  2  0  0  0  0  0  0
  187.9800  176.2900  141.5590 C   0  0  0  0  0  2  0  0  0  0  0  0
  189.1620  175.5150  142.1330 C   0  0  0  0  0  2  0  0  0  0  0  0
  189.0550  174.0700  141.9150 N   0  0  0  0  0  0  0  0  0  0  0  0
  190.1580  174.4010  143.7720 C   0  0  0  0  0  1  0  0  0  0  0  0
  189.4970  173.4220  143.0250 O   0  0  0  0  0  0  0  0  0  0  0  0
  189.9270  173.6990  140.8060 C   0  0  0  0  0  2  0  0  0  0  0  0
  189.4340  172.4140  140.1560 C   0  0  0  0  0  2  0  0  0  0  0  0
  190.5410  171.4910  139.9380 N   0  0  0  0  0  0  0  0  0  0  0  0
  190.3660  170.6320  142.1090 O   0  0  0  0  0  1  0  0  0  0  0  0
  191.9900  169.7020  140.7960 O   0  0  0  0  0  0  0  0  0  0  0  0
  190.9480  170.6010  140.9930 C   0  0  0  0  0  0  0  0  0  0  0  0
  190.8800  171.3040  136.1440 C   0  0  0  0  0  2  0  0  0  0  0  0
  191.8940  172.8260  138.3740 C   0  0  0  0  0  2  0  0  0  0  0  0
  191.1930  171.4900  138.6260 C   0  0  2  0  0  3  0  0  0  0  0  0
  189.7020  169.7290  137.6500 C   0  0  0  0  0  1  0  0  0  0  0  0
  191.4060  172.6580  135.9860 N   0  0  0  0  0  2  0  0  0  0  0  0
  192.4730  172.8510  136.9630 C   0  0  0  0  0  2  0  0  0  0  0  0
  190.2000  171.1550  137.5030 C   0  0  2  0  0  3  0  0  0  0  0  0
  188.4810  176.5160  147.1350 O   0  0  0  0  0  0  0  0  0  0  0  0
  188.8890  175.1550  147.1360 C   0  0  0  0  0  2  0  0  0  0  0  0
  190.3380  175.0650  147.5660 C   0  0  0  0  0  2  0  0  0  0  0  0
  191.1130  176.2280  146.9740 C   0  0  0  0  0  2  0  0  0  0  0  0
  192.5300  175.9130  146.9150 N   0  0  0  0  0  2  0  0  0  0  0  0
  193.3960  173.8000  145.6560 C   0  0  0  0  0  0  0  0  0  0  0  0
  192.9960  174.7770  146.2360 C   0  0  0  0  0  0  0  0  0  0  0  0
  193.8810  172.6090  144.9510 C   0  0  2  0  0  3  0  0  0  0  0  0
  194.3150  171.6470  145.8670 O   0  0  0  0  0  1  0  0  0  0  0  0
  194.5130  173.2470  142.5330 C   0  0  1  0  0  0  0  0  0  0  0  0
  194.9870  172.9630  143.9550 C   0  0  1  0  0  3  0  0  0  0  0  0
  196.1320  174.7810  143.2820 C   0  0  2  0  0  3  0  0  0  0  0  0
  195.1560  174.5390  142.1490 C   0  0  1  0  0  3  0  0  0  0  0  0
  195.5210  173.2670  141.4010 C   0  0  2  0  0  3  0  0  0  0  0  0
  195.7180  174.0680  144.4220 O   0  0  0  0  0  0  0  0  0  0  0  0
  193.1510  173.2520  142.2180 O   0  0  0  0  0  1  0  0  0  0  0  0
  194.8690  173.2510  140.1660 O   0  0  0  0  0  1  0  0  0  0  0  0
  196.2140  176.2390  143.5890 C   0  0  0  0  0  0  0  0  0  0  0  0
  197.0240  176.9780  142.9700 O   0  0  0  0  0  0  0  0  0  0  0  0
  195.4060  176.7780  144.5800 O   0  0  0  0  0  1  0  0  0  0  0  0
  2  5  1  0  0  0  0
  3  1  1  6  0  0  0
  3  4  1  0  0  0  0
  3  7  1  0  0  0  0
  4  9  1  0  0  0  0
  5  6  1  0  0  0  0
  6 11  2  0  0  0  0
  7  1  1  6  0  0  0
  7  2  1  0  0  0  0
  8 11  1  0  0  0  0
  8 31  1  0  0  0  0
  9  5  2  0  0  0  0
  9 10  1  0  0  0  0
 10  8  2  0  0  0  0
 12  4  1  0  0  0  0
 13 12  1  0  0  0  0
 13 14  1  0  0  0  0
 15 14  1  0  0  0  0
 15 17  1  0  0  0  0
 17 16  1  0  0  0  0
 18 15  1  0  0  0  0
 19 18  1  0  0  0  0
 20 19  1  0  0  0  0
 20 23  1  0  0  0  0
 22 23  2  0  0  0  0
 23 21  1  0  0  0  0
 24 30  1  0  0  0  0
 25 26  1  0  0  0  0
 26 20  1  1  0  0  0
 28 24  1  0  0  0  0
 28 29  1  0  0  0  0
 29 25  1  0  0  0  0
 30 27  1  1  0  0  0
 30 26  1  0  0  0  0
 31 32  1  0  0  0  0
 32 33  1  0  0  0  0
 34 33  1  0  0  0  0
 35 34  1  0  0  0  0
 36 37  3  0  0  0  0
 37 35  1  0  0  0  0
 38 36  1  0  0  0  0
 38 39  1  1  0  0  0
 40 46  1  6  0  0  0
 40 41  1  0  0  0  0
 41 45  1  0  0  0  0
 41 38  1  1  0  0  0
 42 48  1  1  0  0  0
 42 45  1  0  0  0  0
 43 40  1  0  0  0  0
 43 42  1  0  0  0  0
 44 43  1  0  0  0  0
 44 40  1  0  0  0  0
 47 44  1  0  0  0  0
 48 50  1  0  0  0  0
 49 48  2  0  0  0  0
M  END
>  <MODEL>
3

>  <REMARK>
 VINA RESULT:      -6.5      2.719      6.965
  Name = 
  18 active torsions:
  status: ('A' for Active; 'I' for Inactive)
    1  A    between atoms: C_1  and  C_14
    2  A    between atoms: C_2  and  C_15
    3  A    between atoms: C_2  and  N_24
    4  A    between atoms: O_3  and  C_39
    5  A    between atoms: O_3  and  C_48
    6  A    between atoms: C_6  and  C_17
    7  A    between atoms: C_8  and  C_17
    8  A    between atoms: C_11  and  N_16
    9  A    between atoms: C_13  and  N_24
   10  A    between atoms: C_13  and  C_34
   11  A    between atoms: C_15  and  N_16
   12  A    between atoms: N_24  and  O_32
   13  A    between atoms: N_25  and  C_49
   14  A    between atoms: N_30  and  C_33
   15  A    between atoms: N_30  and  C_46
   16  A    between atoms: C_34  and  C_49
   17  A    between atoms: C_46  and  C_50
   18  A    between atoms: C_48  and  C_50
                            x       y       z     vdW  Elec       q    Type
                         _______ _______ _______ _____ _____    ______ ____

>  <TORSDO>
F 18

$$$$
=
 OpenBabel11042415533D

 50 55  0  0  1  0  0  0  0  0999 V2000
  186.5920  178.6600  147.9420 C   0  0  0  0  0  2  0  0  0  0  0  0
  184.4990  178.3550  146.3030 N   0  0  0  0  0  2  0  0  0  0  0  0
  186.7590  177.4550  147.2270 C   0  0  2  0  0  3  0  0  0  0  0  0
  187.2870  177.6660  145.8660 N   0  0  0  0  0  0  0  0  0  0  0  0
  185.0230  178.2890  144.9650 C   0  0  0  0  0  0  0  0  0  0  0  0
  184.1900  178.5730  143.8820 C   0  0  0  0  0  3  0  0  0  0  0  0
  185.3830  178.0920  147.1930 C   0  0  1  0  0  3  0  0  0  0  0  0
  186.0360  178.2400  142.3410 C   0  0  0  0  0  0  0  0  0  0  0  0
  186.4010  177.9660  144.7390 C   0  0  0  0  0  0  0  0  0  0  0  0
  186.8840  177.9530  143.4230 C   0  0  0  0  0  3  0  0  0  0  0  0
  184.6930  178.5480  142.5790 C   0  0  0  0  0  3  0  0  0  0  0  0
  188.7120  177.4370  145.6580 C   0  0  0  0  0  2  0  0  0  0  0  0
  189.0700  176.0080  146.0170 C   0  0  0  0  0  2  0  0  0  0  0  0
  190.1130  175.4800  145.0360 C   0  0  0  0  0  2  0  0  0  0  0  0
  191.4760  175.9010  145.3720 N   0  0  0  0  0  0  0  0  0  0  0  0
  191.7980  177.1070  143.5800 C   0  0  0  0  0  1  0  0  0  0  0  0
  191.6530  177.1850  144.9680 O   0  0  0  0  0  0  0  0  0  0  0  0
  192.4180  175.0660  144.6350 C   0  0  0  0  0  2  0  0  0  0  0  0
  193.6380  174.7670  145.4930 C   0  0  0  0  0  2  0  0  0  0  0  0
  194.8590  174.8570  144.6990 N   0  0  0  0  0  0  0  0  0  0  0  0
  194.9970  177.1730  145.0160 O   0  0  0  0  0  1  0  0  0  0  0  0
  196.6710  176.2330  143.7750 O   0  0  0  0  0  0  0  0  0  0  0  0
  195.4980  176.1320  144.5140 C   0  0  0  0  0  0  0  0  0  0  0  0
  196.1380  171.2660  144.5800 C   0  0  0  0  0  2  0  0  0  0  0  0
  194.4640  173.0600  143.0630 C   0  0  0  0  0  2  0  0  0  0  0  0
  195.4050  173.6230  144.1300 C   0  0  2  0  0  3  0  0  0  0  0  0
  196.8200  173.0780  146.1250 C   0  0  0  0  0  1  0  0  0  0  0  0
  195.1020  170.7810  143.6710 N   0  0  0  0  0  2  0  0  0  0  0  0
  194.9920  171.7210  142.5590 C   0  0  0  0  0  2  0  0  0  0  0  0
  195.7070  172.5840  145.2200 C   0  0  2  0  0  3  0  0  0  0  0  0
  186.5050  178.2300  141.0250 O   0  0  0  0  0  0  0  0  0  0  0  0
  185.8140  177.5710  139.9720 C   0  0  0  0  0  2  0  0  0  0  0  0
  186.8140  176.9090  139.0490 C   0  0  0  0  0  2  0  0  0  0  0  0
  186.1140  176.4760  137.7740 C   0  0  0  0  0  2  0  0  0  0  0  0
  187.0640  175.8650  136.8590 N   0  0  0  0  0  2  0  0  0  0  0  0
  188.6090  173.9070  137.6210 C   0  0  0  0  0  0  0  0  0  0  0  0
  187.8940  174.8110  137.2690 C   0  0  0  0  0  0  0  0  0  0  0  0
  189.4820  172.8100  138.0500 C   0  0  2  0  0  3  0  0  0  0  0  0
  189.3950  171.7430  137.1530 O   0  0  0  0  0  1  0  0  0  0  0  0
  190.3470  172.2830  140.4230 C   0  0  1  0  0  0  0  0  0  0  0  0
  189.1530  172.3630  139.4770 C   0  0  1  0  0  3  0  0  0  0  0  0
  188.4580  173.2760  141.4130 C   0  0  2  0  0  3  0  0  0  0  0  0
  189.9320  173.0280  141.6490 C   0  0  1  0  0  3  0  0  0  0  0  0
  190.2100  171.5360  141.7350 C   0  0  2  0  0  3  0  0  0  0  0  0
  188.1830  173.2110  140.0340 O   0  0  0  0  0  0  0  0  0  0  0  0
  191.6210  172.6760  140.0040 O   0  0  0  0  0  1  0  0  0  0  0  0
  191.4640  171.3290  142.3120 O   0  0  0  0  0  1  0  0  0  0  0  0
  188.0660  174.6110  141.9530 C   0  0  0  0  0  0  0  0  0  0  0  0
  186.9720  174.7590  142.5610 O   0  0  0  0  0  1  0  0  0  0  0  0
  188.9040  175.7000  141.7640 O   0  0  0  0  0  0  0  0  0  0  0  0
  2  7  1  0  0  0  0
  3  1  1  1  0  0  0
  4  3  1  0  0  0  0
  5  2  1  0  0  0  0
  6  5  2  0  0  0  0
  7  3  1  0  0  0  0
  7  1  1  6  0  0  0
  8 11  2  0  0  0  0
  8 10  1  0  0  0  0
  9  5  1  0  0  0  0
  9  4  1  0  0  0  0
 10  9  2  0  0  0  0
 11  6  1  0  0  0  0
 12  4  1  0  0  0  0
 12 13  1  0  0  0  0
 14 15  1  0  0  0  0
 14 13  1  0  0  0  0
 16 17  1  0  0  0  0
 17 15  1  0  0  0  0
 18 15  1  0  0  0  0
 18 19  1  0  0  0  0
 20 19  1  0  0  0  0
 22 23  2  0  0  0  0
 23 20  1  0  0  0  0
 23 21  1  0  0  0  0
 24 30  1  0  0  0  0
 25 26  1  0  0  0  0
 26 20  1  1  0  0  0
 26 30  1  0  0  0  0
 28 24  1  0  0  0  0
 29 25  1  0  0  0  0
 29 28  1  0  0  0  0
 30 27  1  1  0  0  0
 31  8  1  0  0  0  0
 32 31  1  0  0  0  0
 33 32  1  0  0  0  0
 34 33  1  0  0  0  0
 35 37  1  0  0  0  0
 35 34  1  0  0  0  0
 36 38  1  0  0  0  0
 37 36  3  0  0  0  0
 38 39  1  6  0  0  0
 40 46  1  6  0  0  0
 40 43  1  0  0  0  0
 40 44  1  0  0  0  0
 41 38  1  6  0  0  0
 41 45  1  0  0  0  0
 41 40  1  0  0  0  0
 42 43  1  0  0  0  0
 42 48  1  6  0  0  0
 43 44  1  0  0  0  0
 44 47  1  0  0  0  0
 45 42  1  0  0  0  0
 48 49  1  0  0  0  0
 50 48  2  0  0  0  0
M  END
>  <MODEL>
4

>  <REMARK>
 VINA RESULT:      -6.5      1.887      2.431
  Name = 
  18 active torsions:
  status: ('A' for Active; 'I' for Inactive)
    1  A    between atoms: C_1  and  C_14
    2  A    between atoms: C_2  and  C_15
    3  A    between atoms: C_2  and  N_24
    4  A    between atoms: O_3  and  C_39
    5  A    between atoms: O_3  and  C_48
    6  A    between atoms: C_6  and  C_17
    7  A    between atoms: C_8  and  C_17
    8  A    between atoms: C_11  and  N_16
    9  A    between atoms: C_13  and  N_24
   10  A    between atoms: C_13  and  C_34
   11  A    between atoms: C_15  and  N_16
   12  A    between atoms: N_24  and  O_32
   13  A    between atoms: N_25  and  C_49
   14  A    between atoms: N_30  and  C_33
   15  A    between atoms: N_30  and  C_46
   16  A    between atoms: C_34  and  C_49
   17  A    between atoms: C_46  and  C_50
   18  A    between atoms: C_48  and  C_50
                            x       y       z     vdW  Elec       q    Type
                         _______ _______ _______ _____ _____    ______ ____

>  <TORSDO>
F 18

$$$$
=
 OpenBabel11042415533D

 50 55  0  0  1  0  0  0  0  0999 V2000
  183.7830  178.2720  142.7560 C   0  0  0  0  0  2  0  0  0  0  0  0
  184.1350  178.9240  145.3270 N   0  0  0  0  0  2  0  0  0  0  0  0
  185.1100  178.7200  142.9230 C   0  0  2  0  0  3  0  0  0  0  0  0
  185.9980  177.6800  143.4770 N   0  0  0  0  0  0  0  0  0  0  0  0
  185.1990  178.0930  145.8250 C   0  0  0  0  0  0  0  0  0  0  0  0
  185.3190  177.8750  147.1990 C   0  0  0  0  0  3  0  0  0  0  0  0
  184.1370  179.0130  144.0490 C   0  0  1  0  0  3  0  0  0  0  0  0
  187.2220  176.4150  146.8270 C   0  0  0  0  0  0  0  0  0  0  0  0
  186.1140  177.4610  144.9210 C   0  0  0  0  0  0  0  0  0  0  0  0
  187.1100  176.6260  145.4430 C   0  0  0  0  0  3  0  0  0  0  0  0
  186.3250  177.0430  147.6950 C   0  0  0  0  0  3  0  0  0  0  0  0
  186.8570  176.9650  142.5410 C   0  0  0  0  0  2  0  0  0  0  0  0
  187.9740  177.8700  142.0590 C   0  0  0  0  0  2  0  0  0  0  0  0
  189.2840  177.0880  142.0160 C   0  0  0  0  0  2  0  0  0  0  0  0
  189.5830  176.4080  143.2790 N   0  0  0  0  0  0  0  0  0  0  0  0
  191.0420  178.0100  142.9970 C   0  0  0  0  0  1  0  0  0  0  0  0
  190.5440  177.1050  143.9390 O   0  0  0  0  0  0  0  0  0  0  0  0
  190.1170  175.0840  142.9810 C   0  0  0  0  0  2  0  0  0  0  0  0
  189.3700  174.4680  141.8080 C   0  0  0  0  0  2  0  0  0  0  0  0
  189.9000  173.1440  141.5000 N   0  0  0  0  0  0  0  0  0  0  0  0
  189.0790  172.2550  143.5050 O   0  0  0  0  0  1  0  0  0  0  0  0
  190.1770  170.7880  142.1380 O   0  0  0  0  0  0  0  0  0  0  0  0
  189.6940  172.0600  142.4230 C   0  0  0  0  0  0  0  0  0  0  0  0
  190.6270  173.4150  137.7660 C   0  0  0  0  0  2  0  0  0  0  0  0
  191.9960  173.6110  140.2980 C   0  0  0  0  0  2  0  0  0  0  0  0
  190.6130  172.9620  140.2330 C   0  0  2  0  0  3  0  0  0  0  0  0
  188.5370  172.6650  138.8630 C   0  0  0  0  0  1  0  0  0  0  0  0
  191.8680  174.1710  137.9220 N   0  0  0  0  0  2  0  0  0  0  0  0
  192.6810  173.5090  138.9390 C   0  0  0  0  0  2  0  0  0  0  0  0
  189.7960  173.4910  139.0450 C   0  0  2  0  0  3  0  0  0  0  0  0
  188.2120  175.5850  147.3600 O   0  0  0  0  0  0  0  0  0  0  0  0
  189.4530  175.3560  146.7050 C   0  0  0  0  0  2  0  0  0  0  0  0
  190.5890  175.7060  147.6420 C   0  0  0  0  0  2  0  0  0  0  0  0
  191.8740  175.8430  146.8470 C   0  0  0  0  0  2  0  0  0  0  0  0
  192.1380  174.6250  146.1000 N   0  0  0  0  0  2  0  0  0  0  0  0
  194.5740  173.7790  145.7120 C   0  0  0  0  0  0  0  0  0  0  0  0
  193.4480  174.1690  145.8900 C   0  0  0  0  0  0  0  0  0  0  0  0
  195.9460  173.3070  145.4980 C   0  0  2  0  0  3  0  0  0  0  0  0
  196.7850  173.7810  146.5090 O   0  0  0  0  0  1  0  0  0  0  0  0
  196.1240  172.7370  142.9880 C   0  0  1  0  0  0  0  0  0  0  0  0
  196.4630  173.7080  144.1140 C   0  0  1  0  0  3  0  0  0  0  0  0
  195.8190  174.9890  142.3790 C   0  0  2  0  0  3  0  0  0  0  0  0
  195.5510  173.5790  141.8960 C   0  0  1  0  0  3  0  0  0  0  0  0
  196.8600  172.8420  141.6670 C   0  0  2  0  0  3  0  0  0  0  0  0
  195.9880  174.9860  143.7760 O   0  0  0  0  0  0  0  0  0  0  0  0
  195.3270  171.6130  143.2250 O   0  0  0  0  0  1  0  0  0  0  0  0
  196.6240  171.7080  140.8850 O   0  0  0  0  0  1  0  0  0  0  0  0
  194.6910  175.8880  142.0000 C   0  0  0  0  0  0  0  0  0  0  0  0
  193.5760  175.7950  142.5790 O   0  0  0  0  0  1  0  0  0  0  0  0
  194.8660  176.8190  140.9860 O   0  0  0  0  0  0  0  0  0  0  0  0
  2  5  1  0  0  0  0
  3  1  1  6  0  0  0
  3  4  1  0  0  0  0
  3  7  1  0  0  0  0
  4  9  1  0  0  0  0
  5  6  1  0  0  0  0
  6 11  2  0  0  0  0
  7  1  1  6  0  0  0
  7  2  1  0  0  0  0
  8 31  1  0  0  0  0
  8 11  1  0  0  0  0
  9 10  1  0  0  0  0
  9  5  2  0  0  0  0
 10  8  2  0  0  0  0
 12  4  1  0  0  0  0
 13 12  1  0  0  0  0
 14 13  1  0  0  0  0
 14 15  1  0  0  0  0
 15 17  1  0  0  0  0
 16 17  1  0  0  0  0
 18 15  1  0  0  0  0
 19 18  1  0  0  0  0
 20 19  1  0  0  0  0
 20 23  1  0  0  0  0
 22 23  2  0  0  0  0
 23 21  1  0  0  0  0
 24 28  1  0  0  0  0
 24 30  1  0  0  0  0
 26 25  1  0  0  0  0
 26 20  1  1  0  0  0
 28 29  1  0  0  0  0
 29 25  1  0  0  0  0
 30 27  1  6  0  0  0
 30 26  1  0  0  0  0
 32 31  1  0  0  0  0
 32 33  1  0  0  0  0
 34 33  1  0  0  0  0
 35 34  1  0  0  0  0
 36 37  3  0  0  0  0
 37 35  1  0  0  0  0
 38 36  1  0  0  0  0
 38 39  1  1  0  0  0
 40 46  1  1  0  0  0
 40 41  1  0  0  0  0
 41 38  1  1  0  0  0
 42 48  1  1  0  0  0
 42 45  1  0  0  0  0
 43 42  1  0  0  0  0
 43 40  1  0  0  0  0
 44 43  1  0  0  0  0
 44 40  1  0  0  0  0
 45 41  1  0  0  0  0
 47 44  1  0  0  0  0
 48 49  1  0  0  0  0
 50 48  2  0  0  0  0
M  END
>  <MODEL>
5

>  <REMARK>
 VINA RESULT:      -6.4      2.546      6.568
  Name = 
  18 active torsions:
  status: ('A' for Active; 'I' for Inactive)
    1  A    between atoms: C_1  and  C_14
    2  A    between atoms: C_2  and  C_15
    3  A    between atoms: C_2  and  N_24
    4  A    between atoms: O_3  and  C_39
    5  A    between atoms: O_3  and  C_48
    6  A    between atoms: C_6  and  C_17
    7  A    between atoms: C_8  and  C_17
    8  A    between atoms: C_11  and  N_16
    9  A    between atoms: C_13  and  N_24
   10  A    between atoms: C_13  and  C_34
   11  A    between atoms: C_15  and  N_16
   12  A    between atoms: N_24  and  O_32
   13  A    between atoms: N_25  and  C_49
   14  A    between atoms: N_30  and  C_33
   15  A    between atoms: N_30  and  C_46
   16  A    between atoms: C_34  and  C_49
   17  A    between atoms: C_46  and  C_50
   18  A    between atoms: C_48  and  C_50
                            x       y       z     vdW  Elec       q    Type
                         _______ _______ _______ _____ _____    ______ ____

>  <TORSDO>
F 18

$$$$
=
 OpenBabel11042415533D

 50 55  0  0  1  0  0  0  0  0999 V2000
  184.3060  177.9960  142.2530 C   0  0  0  0  0  2  0  0  0  0  0  0
  184.1640  178.4380  144.8880 N   0  0  0  0  0  2  0  0  0  0  0  0
  185.3760  178.8400  142.6200 C   0  0  2  0  0  3  0  0  0  0  0  0
  186.5100  178.1010  143.2080 N   0  0  0  0  0  0  0  0  0  0  0  0
  185.3950  177.9600  145.4580 C   0  0  0  0  0  0  0  0  0  0  0  0
  185.4500  177.6440  146.8160 C   0  0  0  0  0  3  0  0  0  0  0  0
  184.2570  178.6630  143.6300 C   0  0  1  0  0  3  0  0  0  0  0  0
  187.7660  176.9540  146.5880 C   0  0  0  0  0  0  0  0  0  0  0  0
  186.5540  177.7750  144.6350 C   0  0  0  0  0  0  0  0  0  0  0  0
  187.7220  177.2670  145.2200 C   0  0  0  0  0  3  0  0  0  0  0  0
  186.6280  177.1460  147.3770 C   0  0  0  0  0  3  0  0  0  0  0  0
  187.6490  177.8220  142.3410 C   0  0  0  0  0  2  0  0  0  0  0  0
  187.4530  176.4960  141.6310 C   0  0  0  0  0  2  0  0  0  0  0  0
  188.7690  175.7230  141.6220 C   0  0  0  0  0  2  0  0  0  0  0  0
  188.6170  174.3460  141.1460 N   0  0  0  0  0  0  0  0  0  0  0  0
  188.3070  172.5140  142.2950 C   0  0  0  0  0  1  0  0  0  0  0  0
  187.6950  173.7120  141.9160 O   0  0  0  0  0  0  0  0  0  0  0  0
  189.8900  173.6520  141.3110 C   0  0  0  0  0  2  0  0  0  0  0  0
  190.6000  173.5300  139.9710 C   0  0  0  0  0  2  0  0  0  0  0  0
  190.6100  172.1430  139.5190 N   0  0  0  0  0  0  0  0  0  0  0  0
  188.5100  172.3670  138.5080 O   0  0  0  0  0  1  0  0  0  0  0  0
  189.5000  170.3160  138.3090 O   0  0  0  0  0  0  0  0  0  0  0  0
  189.4990  171.6300  138.7630 C   0  0  0  0  0  0  0  0  0  0  0  0
  194.2760  171.1190  139.7400 C   0  0  0  0  0  2  0  0  0  0  0  0
  191.8830  171.1020  141.3510 C   0  0  0  0  0  2  0  0  0  0  0  0
  191.7780  171.3200  139.8400 C   0  0  2  0  0  3  0  0  0  0  0  0
  193.0290  171.9040  137.7500 C   0  0  0  0  0  1  0  0  0  0  0  0
  194.3230  171.0850  141.2000 N   0  0  0  0  0  2  0  0  0  0  0  0
  193.1620  170.3380  141.6770 C   0  0  0  0  0  2  0  0  0  0  0  0
  193.0680  171.9230  139.2660 C   0  0  2  0  0  3  0  0  0  0  0  0
  188.9250  176.4480  147.1830 O   0  0  0  0  0  0  0  0  0  0  0  0
  190.1580  176.3400  146.4850 C   0  0  0  0  0  2  0  0  0  0  0  0
  190.5380  174.8800  146.3560 C   0  0  0  0  0  2  0  0  0  0  0  0
  190.3470  174.4340  144.9180 C   0  0  0  0  0  2  0  0  0  0  0  0
  190.8620  173.0870  144.7340 N   0  0  0  0  0  2  0  0  0  0  0  0
  193.4250  172.6160  144.6610 C   0  0  0  0  0  0  0  0  0  0  0  0
  192.2410  172.8340  144.6970 C   0  0  0  0  0  0  0  0  0  0  0  0
  194.8670  172.3510  144.6150 C   0  0  2  0  0  3  0  0  0  0  0  0
  195.2090  171.3670  145.5460 O   0  0  0  0  0  1  0  0  0  0  0  0
  195.9620  174.4460  143.5820 C   0  0  1  0  0  0  0  0  0  0  0  0
  195.6760  173.6300  144.8390 C   0  0  1  0  0  3  0  0  0  0  0  0
  195.3130  175.7770  145.4100 C   0  0  2  0  0  3  0  0  0  0  0  0
  195.5710  175.8470  143.9190 C   0  0  1  0  0  3  0  0  0  0  0  0
  197.0260  175.5250  143.6190 C   0  0  2  0  0  3  0  0  0  0  0  0
  195.0290  174.4490  145.7780 O   0  0  0  0  0  0  0  0  0  0  0  0
  195.4370  174.0630  142.3440 O   0  0  0  0  0  1  0  0  0  0  0  0
  197.3370  175.9480  142.3250 O   0  0  0  0  0  1  0  0  0  0  0  0
  194.1750  176.6680  145.7790 C   0  0  0  0  0  0  0  0  0  0  0  0
  194.0910  177.1500  146.9400 O   0  0  0  0  0  1  0  0  0  0  0  0
  193.1920  176.9500  144.8420 O   0  0  0  0  0  0  0  0  0  0  0  0
  2  5  1  0  0  0  0
  3  1  1  6  0  0  0
  3  4  1  0  0  0  0
  3  7  1  0  0  0  0
  4  9  1  0  0  0  0
  5  6  1  0  0  0  0
  6 11  2  0  0  0  0
  7  1  1  6  0  0  0
  7  2  1  0  0  0  0
  8 31  1  0  0  0  0
  8 11  1  0  0  0  0
  9 10  1  0  0  0  0
  9  5  2  0  0  0  0
 10  8  2  0  0  0  0
 12  4  1  0  0  0  0
 13 12  1  0  0  0  0
 14 13  1  0  0  0  0
 15 18  1  0  0  0  0
 15 14  1  0  0  0  0
 15 17  1  0  0  0  0
 17 16  1  0  0  0  0
 19 18  1  0  0  0  0
 20 19  1  0  0  0  0
 21 23  1  0  0  0  0
 22 23  2  0  0  0  0
 23 20  1  0  0  0  0
 24 28  1  0  0  0  0
 25 29  1  0  0  0  0
 26 20  1  1  0  0  0
 26 25  1  0  0  0  0
 28 29  1  0  0  0  0
 30 27  1  6  0  0  0
 30 24  1  0  0  0  0
 30 26  1  0  0  0  0
 32 31  1  0  0  0  0
 33 32  1  0  0  0  0
 34 33  1  0  0  0  0
 35 34  1  0  0  0  0
 36 37  3  0  0  0  0
 37 35  1  0  0  0  0
 38 36  1  0  0  0  0
 38 39  1  1  0  0  0
 40 46  1  6  0  0  0
 40 44  1  0  0  0  0
 40 43  1  0  0  0  0
 40 41  1  0  0  0  0
 41 38  1  6  0  0  0
 41 45  1  0  0  0  0
 42 45  1  0  0  0  0
 42 48  1  6  0  0  0
 43 42  1  0  0  0  0
 44 43  1  0  0  0  0
 47 44  1  0  0  0  0
 48 49  1  0  0  0  0
 50 48  2  0  0  0  0
M  END
>  <MODEL>
6

>  <REMARK>
 VINA RESULT:      -6.4      2.627      6.577
  Name = 
  18 active torsions:
  status: ('A' for Active; 'I' for Inactive)
    1  A    between atoms: C_1  and  C_14
    2  A    between atoms: C_2  and  C_15
    3  A    between atoms: C_2  and  N_24
    4  A    between atoms: O_3  and  C_39
    5  A    between atoms: O_3  and  C_48
    6  A    between atoms: C_6  and  C_17
    7  A    between atoms: C_8  and  C_17
    8  A    between atoms: C_11  and  N_16
    9  A    between atoms: C_13  and  N_24
   10  A    between atoms: C_13  and  C_34
   11  A    between atoms: C_15  and  N_16
   12  A    between atoms: N_24  and  O_32
   13  A    between atoms: N_25  and  C_49
   14  A    between atoms: N_30  and  C_33
   15  A    between atoms: N_30  and  C_46
   16  A    between atoms: C_34  and  C_49
   17  A    between atoms: C_46  and  C_50
   18  A    between atoms: C_48  and  C_50
                            x       y       z     vdW  Elec       q    Type
                         _______ _______ _______ _____ _____    ______ ____

>  <TORSDO>
F 18

$$$$
=
 OpenBabel11042415533D

 50 55  0  0  1  0  0  0  0  0999 V2000
  185.3990  178.6430  147.7710 C   0  0  0  0  0  2  0  0  0  0  0  0
  183.9460  178.9290  145.5420 N   0  0  0  0  0  2  0  0  0  0  0  0
  185.1640  177.3630  147.2260 C   0  0  2  0  0  3  0  0  0  0  0  0
  186.0780  177.0400  146.1130 N   0  0  0  0  0  0  0  0  0  0  0  0
  184.7180  178.3690  144.4660 C   0  0  0  0  0  0  0  0  0  0  0  0
  184.4490  178.7500  143.1510 C   0  0  0  0  0  3  0  0  0  0  0  0
  184.3210  178.5060  146.6920 C   0  0  1  0  0  3  0  0  0  0  0  0
  186.2580  177.3470  142.3460 C   0  0  0  0  0  0  0  0  0  0  0  0
  185.7830  177.4480  144.7370 C   0  0  0  0  0  0  0  0  0  0  0  0
  186.5400  176.9570  143.6650 C   0  0  0  0  0  3  0  0  0  0  0  0
  185.2130  178.2410  142.0980 C   0  0  0  0  0  3  0  0  0  0  0  0
  187.2210  176.1850  146.4110 C   0  0  0  0  0  2  0  0  0  0  0  0
  188.4880  177.0130  146.4860 C   0  0  0  0  0  2  0  0  0  0  0  0
  189.6330  176.2570  145.8180 C   0  0  0  0  0  2  0  0  0  0  0  0
  189.8820  174.9470  146.4270 N   0  0  0  0  0  0  0  0  0  0  0  0
  191.1360  175.7880  148.0060 C   0  0  0  0  0  1  0  0  0  0  0  0
  191.1510  174.9200  146.9110 O   0  0  0  0  0  0  0  0  0  0  0  0
  189.7770  173.9240  145.3920 C   0  0  0  0  0  2  0  0  0  0  0  0
  191.0910  173.8060  144.6340 C   0  0  0  0  0  2  0  0  0  0  0  0
  190.9690  172.8510  143.5390 N   0  0  0  0  0  0  0  0  0  0  0  0
  192.2110  171.2370  144.6940 O   0  0  0  0  0  1  0  0  0  0  0  0
  191.4440  170.6190  142.6310 O   0  0  0  0  0  0  0  0  0  0  0  0
  191.5660  171.5470  143.6580 C   0  0  0  0  0  0  0  0  0  0  0  0
  190.1940  173.4090  139.8470 C   0  0  0  0  0  2  0  0  0  0  0  0
  188.9080  172.4640  142.2500 C   0  0  0  0  0  2  0  0  0  0  0  0
  190.2130  173.2550  142.3510 C   0  0  2  0  0  3  0  0  0  0  0  0
  192.2160  174.0940  141.1020 C   0  0  0  0  0  1  0  0  0  0  0  0
  189.0430  172.5100  139.8100 N   0  0  0  0  0  2  0  0  0  0  0  0
  188.1860  172.8160  140.9520 C   0  0  0  0  0  2  0  0  0  0  0  0
  191.0550  173.1180  141.0740 C   0  0  2  0  0  3  0  0  0  0  0  0
  187.0050  176.8630  141.2670 O   0  0  0  0  0  0  0  0  0  0  0  0
  188.2990  176.2970  141.4270 C   0  0  0  0  0  2  0  0  0  0  0  0
  189.2320  177.3320  142.0200 C   0  0  0  0  0  2  0  0  0  0  0  0
  190.5020  176.6520  142.4970 C   0  0  0  0  0  2  0  0  0  0  0  0
  191.3870  177.6180  143.1250 N   0  0  0  0  0  2  0  0  0  0  0  0
  193.1720  176.8790  144.8760 C   0  0  0  0  0  0  0  0  0  0  0  0
  192.3460  177.2200  144.0680 C   0  0  0  0  0  0  0  0  0  0  0  0
  194.1790  176.4610  145.8570 C   0  0  2  0  0  3  0  0  0  0  0  0
  194.3280  177.4390  146.8440 O   0  0  0  0  0  1  0  0  0  0  0  0
  195.7480  174.6750  144.8550 C   0  0  1  0  0  0  0  0  0  0  0  0
  195.5160  176.1470  145.1820 C   0  0  1  0  0  3  0  0  0  0  0  0
  196.3930  176.1140  143.1090 C   0  0  2  0  0  3  0  0  0  0  0  0
  196.1810  174.6490  143.4260 C   0  0  1  0  0  3  0  0  0  0  0  0
  197.1450  174.1980  144.5110 C   0  0  2  0  0  3  0  0  0  0  0  0
  195.6510  176.9040  144.0070 O   0  0  0  0  0  0  0  0  0  0  0  0
  194.7530  173.7220  145.0940 O   0  0  0  0  0  1  0  0  0  0  0  0
  197.2030  172.8030  144.5300 O   0  0  0  0  0  1  0  0  0  0  0  0
  195.9790  176.4040  141.7050 C   0  0  0  0  0  0  0  0  0  0  0  0
  196.8140  176.3370  140.7650 O   0  0  0  0  0  0  0  0  0  0  0  0
  194.6680  176.7710  141.4390 O   0  0  0  0  0  1  0  0  0  0  0  0
  2  7  1  0  0  0  0
  3  1  1  1  0  0  0
  4 12  1  0  0  0  0
  4  3  1  0  0  0  0
  5  9  1  0  0  0  0
  5  2  1  0  0  0  0
  6  5  2  0  0  0  0
  7  3  1  0  0  0  0
  7  1  1  6  0  0  0
  8 10  1  0  0  0  0
  9  4  1  0  0  0  0
 10  9  2  0  0  0  0
 11  8  2  0  0  0  0
 11  6  1  0  0  0  0
 12 13  1  0  0  0  0
 14 15  1  0  0  0  0
 14 13  1  0  0  0  0
 15 17  1  0  0  0  0
 17 16  1  0  0  0  0
 18 15  1  0  0  0  0
 19 18  1  0  0  0  0
 20 23  1  0  0  0  0
 20 19  1  0  0  0  0
 22 23  2  0  0  0  0
 23 21  1  0  0  0  0
 24 30  1  0  0  0  0
 25 26  1  0  0  0  0
 26 20  1  1  0  0  0
 28 24  1  0  0  0  0
 28 29  1  0  0  0  0
 29 25  1  0  0  0  0
 30 27  1  1  0  0  0
 30 26  1  0  0  0  0
 31 32  1  0  0  0  0
 31  8  1  0  0  0  0
 32 33  1  0  0  0  0
 33 34  1  0  0  0  0
 34 35  1  0  0  0  0
 35 37  1  0  0  0  0
 36 38  1  0  0  0  0
 37 36  3  0  0  0  0
 38 39  1  1  0  0  0
 40 46  1  1  0  0  0
 40 41  1  0  0  0  0
 41 38  1  6  0  0  0
 42 48  1  6  0  0  0
 42 43  1  0  0  0  0
 42 45  1  0  0  0  0
 43 44  1  0  0  0  0
 43 40  1  0  0  0  0
 44 47  1  0  0  0  0
 44 40  1  0  0  0  0
 45 41  1  0  0  0  0
 49 48  2  0  0  0  0
 50 48  1  0  0  0  0
M  END
>  <MODEL>
7

>  <REMARK>
 VINA RESULT:      -6.4      2.428      5.788
  Name = 
  18 active torsions:
  status: ('A' for Active; 'I' for Inactive)
    1  A    between atoms: C_1  and  C_14
    2  A    between atoms: C_2  and  C_15
    3  A    between atoms: C_2  and  N_24
    4  A    between atoms: O_3  and  C_39
    5  A    between atoms: O_3  and  C_48
    6  A    between atoms: C_6  and  C_17
    7  A    between atoms: C_8  and  C_17
    8  A    between atoms: C_11  and  N_16
    9  A    between atoms: C_13  and  N_24
   10  A    between atoms: C_13  and  C_34
   11  A    between atoms: C_15  and  N_16
   12  A    between atoms: N_24  and  O_32
   13  A    between atoms: N_25  and  C_49
   14  A    between atoms: N_30  and  C_33
   15  A    between atoms: N_30  and  C_46
   16  A    between atoms: C_34  and  C_49
   17  A    between atoms: C_46  and  C_50
   18  A    between atoms: C_48  and  C_50
                            x       y       z     vdW  Elec       q    Type
                         _______ _______ _______ _____ _____    ______ ____

>  <TORSDO>
F 18

$$$$
=
 OpenBabel11042415533D

 50 55  0  0  1  0  0  0  0  0999 V2000
  184.7520  178.1940  141.9510 C   0  0  0  0  0  2  0  0  0  0  0  0
  184.3890  178.5840  144.5740 N   0  0  0  0  0  2  0  0  0  0  0  0
  185.9070  178.8130  142.4730 C   0  0  2  0  0  3  0  0  0  0  0  0
  186.8120  177.8600  143.1430 N   0  0  0  0  0  0  0  0  0  0  0  0
  185.4380  177.8690  145.2500 C   0  0  0  0  0  0  0  0  0  0  0  0
  185.2780  177.5120  146.5900 C   0  0  0  0  0  3  0  0  0  0  0  0
  184.6670  178.8220  143.3450 C   0  0  1  0  0  3  0  0  0  0  0  0
  187.4390  176.4080  146.5810 C   0  0  0  0  0  0  0  0  0  0  0  0
  186.6310  177.4930  144.5500 C   0  0  0  0  0  0  0  0  0  0  0  0
  187.6110  176.7600  145.2330 C   0  0  0  0  0  3  0  0  0  0  0  0
  186.2730  176.7880  147.2510 C   0  0  0  0  0  3  0  0  0  0  0  0
  187.9730  177.3960  142.3930 C   0  0  0  0  0  2  0  0  0  0  0  0
  187.5990  176.2050  141.5330 C   0  0  0  0  0  2  0  0  0  0  0  0
  188.5410  175.0430  141.8310 C   0  0  0  0  0  2  0  0  0  0  0  0
  188.2350  173.8440  141.0460 N   0  0  0  0  0  0  0  0  0  0  0  0
  188.4540  172.3970  142.6680 C   0  0  0  0  0  1  0  0  0  0  0  0
  189.0280  172.8260  141.4680 O   0  0  0  0  0  0  0  0  0  0  0  0
  188.5520  174.1080  139.6470 C   0  0  0  0  0  2  0  0  0  0  0  0
  188.3260  172.8560  138.8120 C   0  0  0  0  0  2  0  0  0  0  0  0
  189.3310  172.7520  137.7600 N   0  0  0  0  0  0  0  0  0  0  0  0
  188.5670  174.7030  136.7160 O   0  0  0  0  0  1  0  0  0  0  0  0
  190.3540  173.6760  135.7270 O   0  0  0  0  0  0  0  0  0  0  0  0
  189.3910  173.7510  136.7270 C   0  0  0  0  0  0  0  0  0  0  0  0
  192.0010  170.4150  139.1590 C   0  0  0  0  0  2  0  0  0  0  0  0
  189.5190  170.2980  137.6940 C   0  0  0  0  0  2  0  0  0  0  0  0
  190.2680  171.6270  137.8090 C   0  0  2  0  0  3  0  0  0  0  0  0
  192.0500  172.8880  139.0380 C   0  0  0  0  0  1  0  0  0  0  0  0
  191.1570  169.2220  139.1550 N   0  0  0  0  0  2  0  0  0  0  0  0
  190.4940  169.1360  137.8560 C   0  0  0  0  0  2  0  0  0  0  0  0
  191.1410  171.6740  139.0710 C   0  0  2  0  0  3  0  0  0  0  0  0
  188.4100  175.6780  147.2740 O   0  0  0  0  0  0  0  0  0  0  0  0
  189.5480  175.1180  146.6320 C   0  0  0  0  0  2  0  0  0  0  0  0
  190.7550  175.2580  147.5350 C   0  0  0  0  0  2  0  0  0  0  0  0
  190.9280  176.7150  147.9240 C   0  0  0  0  0  2  0  0  0  0  0  0
  192.3380  177.0630  147.9620 N   0  0  0  0  0  2  0  0  0  0  0  0
  193.9240  176.5160  145.9660 C   0  0  0  0  0  0  0  0  0  0  0  0
  193.1900  176.7690  146.8870 C   0  0  0  0  0  0  0  0  0  0  0  0
  194.8200  176.2090  144.8460 C   0  0  2  0  0  3  0  0  0  0  0  0
  195.7180  177.2590  144.6420 O   0  0  0  0  0  1  0  0  0  0  0  0
  194.8310  175.2190  142.4640 C   0  0  1  0  0  0  0  0  0  0  0  0
  194.0320  175.8980  143.5720 C   0  0  1  0  0  3  0  0  0  0  0  0
  192.6990  174.2730  142.7680 C   0  0  2  0  0  3  0  0  0  0  0  0
  194.0080  174.0470  142.0410 C   0  0  1  0  0  3  0  0  0  0  0  0
  194.2670  175.1760  141.0570 C   0  0  2  0  0  3  0  0  0  0  0  0
  192.9130  175.1070  143.8800 O   0  0  0  0  0  0  0  0  0  0  0  0
  196.1640  174.8490  142.6650 O   0  0  0  0  0  1  0  0  0  0  0  0
  195.2530  174.7830  140.1490 O   0  0  0  0  0  1  0  0  0  0  0  0
  192.1200  172.9690  143.2060 C   0  0  0  0  0  0  0  0  0  0  0  0
  192.2570  171.9380  142.4960 O   0  0  0  0  0  0  0  0  0  0  0  0
  191.4080  172.9000  144.3950 O   0  0  0  0  0  1  0  0  0  0  0  0
  2  5  1  0  0  0  0
  3  1  1  6  0  0  0
  3  4  1  0  0  0  0
  3  7  1  0  0  0  0
  4  9  1  0  0  0  0
  5  6  1  0  0  0  0
  6 11  2  0  0  0  0
  7  1  1  6  0  0  0
  7  2  1  0  0  0  0
  8 11  1  0  0  0  0
  8 31  1  0  0  0  0
  9 10  1  0  0  0  0
  9  5  2  0  0  0  0
 10  8  2  0  0  0  0
 12  4  1  0  0  0  0
 13 14  1  0  0  0  0
 13 12  1  0  0  0  0
 15 17  1  0  0  0  0
 15 14  1  0  0  0  0
 17 16  1  0  0  0  0
 18 15  1  0  0  0  0
 19 18  1  0  0  0  0
 20 19  1  0  0  0  0
 21 23  1  0  0  0  0
 22 23  2  0  0  0  0
 23 20  1  0  0  0  0
 25 26  1  0  0  0  0
 25 29  1  0  0  0  0
 26 20  1  1  0  0  0
 26 30  1  0  0  0  0
 28 24  1  0  0  0  0
 29 28  1  0  0  0  0
 30 27  1  6  0  0  0
 30 24  1  0  0  0  0
 32 31  1  0  0  0  0
 32 33  1  0  0  0  0
 33 34  1  0  0  0  0
 34 35  1  0  0  0  0
 36 37  3  0  0  0  0
 37 35  1  0  0  0  0
 38 39  1  6  0  0  0
 38 36  1  0  0  0  0
 40 46  1  1  0  0  0
 40 41  1  0  0  0  0
 41 45  1  0  0  0  0
 41 38  1  1  0  0  0
 42 48  1  1  0  0  0
 42 45  1  0  0  0  0
 43 40  1  0  0  0  0
 43 42  1  0  0  0  0
 44 43  1  0  0  0  0
 44 40  1  0  0  0  0
 47 44  1  0  0  0  0
 48 50  1  0  0  0  0
 49 48  2  0  0  0  0
M  END
>  <MODEL>
8

>  <REMARK>
 VINA RESULT:      -6.4      2.536      6.871
  Name = 
  18 active torsions:
  status: ('A' for Active; 'I' for Inactive)
    1  A    between atoms: C_1  and  C_14
    2  A    between atoms: C_2  and  C_15
    3  A    between atoms: C_2  and  N_24
    4  A    between atoms: O_3  and  C_39
    5  A    between atoms: O_3  and  C_48
    6  A    between atoms: C_6  and  C_17
    7  A    between atoms: C_8  and  C_17
    8  A    between atoms: C_11  and  N_16
    9  A    between atoms: C_13  and  N_24
   10  A    between atoms: C_13  and  C_34
   11  A    between atoms: C_15  and  N_16
   12  A    between atoms: N_24  and  O_32
   13  A    between atoms: N_25  and  C_49
   14  A    between atoms: N_30  and  C_33
   15  A    between atoms: N_30  and  C_46
   16  A    between atoms: C_34  and  C_49
   17  A    between atoms: C_46  and  C_50
   18  A    between atoms: C_48  and  C_50
                            x       y       z     vdW  Elec       q    Type
                         _______ _______ _______ _____ _____    ______ ____

>  <TORSDO>
F 18

$$$$
=
 OpenBabel11042415533D

 50 55  0  0  1  0  0  0  0  0999 V2000
  184.0300  178.2470  142.5630 C   0  0  0  0  0  2  0  0  0  0  0  0
  184.1180  178.3610  145.2350 N   0  0  0  0  0  2  0  0  0  0  0  0
  185.1230  179.0560  142.9380 C   0  0  2  0  0  3  0  0  0  0  0  0
  186.3080  178.2690  143.3290 N   0  0  0  0  0  0  0  0  0  0  0  0
  185.3970  177.8360  145.6330 C   0  0  0  0  0  0  0  0  0  0  0  0
  185.5730  177.3580  146.9320 C   0  0  0  0  0  3  0  0  0  0  0  0
  184.0990  178.7400  144.0110 C   0  0  1  0  0  3  0  0  0  0  0  0
  187.8640  176.7370  146.4200 C   0  0  0  0  0  0  0  0  0  0  0  0
  186.4800  177.7710  144.6960 C   0  0  0  0  0  0  0  0  0  0  0  0
  187.6970  177.2140  145.1100 C   0  0  0  0  0  3  0  0  0  0  0  0
  186.7990  176.8130  147.3220 C   0  0  0  0  0  3  0  0  0  0  0  0
  187.3680  178.1160  142.3380 C   0  0  0  0  0  2  0  0  0  0  0  0
  187.1810  176.8230  141.5680 C   0  0  0  0  0  2  0  0  0  0  0  0
  188.4460  175.9770  141.6750 C   0  0  0  0  0  2  0  0  0  0  0  0
  188.2080  174.5580  141.3980 N   0  0  0  0  0  0  0  0  0  0  0  0
  189.4860  174.4960  143.1690 C   0  0  0  0  0  1  0  0  0  0  0  0
  188.4270  173.8430  142.5320 O   0  0  0  0  0  0  0  0  0  0  0  0
  189.1690  174.1110  140.3950 C   0  0  0  0  0  2  0  0  0  0  0  0
  188.9120  172.6560  140.0330 C   0  0  0  0  0  2  0  0  0  0  0  0
  190.1650  171.9690  139.7420 N   0  0  0  0  0  0  0  0  0  0  0  0
  190.4570  171.3700  141.9870 O   0  0  0  0  0  1  0  0  0  0  0  0
  192.0770  170.6510  140.5430 O   0  0  0  0  0  0  0  0  0  0  0  0
  190.8900  171.3250  140.8050 C   0  0  0  0  0  0  0  0  0  0  0  0
  190.1270  171.2570  135.9960 C   0  0  0  0  0  2  0  0  0  0  0  0
  190.8370  173.3670  137.8300 C   0  0  0  0  0  2  0  0  0  0  0  0
  190.6340  171.9440  138.3550 C   0  0  2  0  0  3  0  0  0  0  0  0
  189.6900  169.6780  137.8540 C   0  0  0  0  0  1  0  0  0  0  0  0
  190.1700  172.6600  135.5880 N   0  0  0  0  0  2  0  0  0  0  0  0
  191.2190  173.3260  136.3540 C   0  0  0  0  0  2  0  0  0  0  0  0
  189.6850  171.1420  137.4530 C   0  0  2  0  0  3  0  0  0  0  0  0
  189.0730  176.1800  146.8450 O   0  0  0  0  0  0  0  0  0  0  0  0
  190.2820  176.9260  146.8940 C   0  0  0  0  0  2  0  0  0  0  0  0
  191.4550  175.9990  146.6560 C   0  0  0  0  0  2  0  0  0  0  0  0
  192.6620  176.5050  147.4250 C   0  0  0  0  0  2  0  0  0  0  0  0
  193.7770  176.7320  146.5220 N   0  0  0  0  0  2  0  0  0  0  0  0
  195.3710  174.7890  145.8280 C   0  0  0  0  0  0  0  0  0  0  0  0
  194.6350  175.6870  146.1470 C   0  0  0  0  0  0  0  0  0  0  0  0
  196.2680  173.6950  145.4420 C   0  0  2  0  0  3  0  0  0  0  0  0
  197.5760  174.1660  145.3050 O   0  0  0  0  0  1  0  0  0  0  0  0
  194.7190  171.9390  144.3600 C   0  0  1  0  0  0  0  0  0  0  0  0
  195.7890  173.0070  144.1620 C   0  0  1  0  0  3  0  0  0  0  0  0
  194.2790  173.3480  142.5280 C   0  0  2  0  0  3  0  0  0  0  0  0
  193.6450  172.2650  143.3750 C   0  0  1  0  0  3  0  0  0  0  0  0
  194.4200  170.9650  143.2370 C   0  0  2  0  0  3  0  0  0  0  0  0
  195.3170  173.9660  143.2500 O   0  0  0  0  0  0  0  0  0  0  0  0
  194.1790  171.6900  145.6250 O   0  0  0  0  0  1  0  0  0  0  0  0
  193.6390  169.9060  143.7050 O   0  0  0  0  0  1  0  0  0  0  0  0
  193.2560  174.3590  142.1320 C   0  0  0  0  0  0  0  0  0  0  0  0
  192.9590  175.3060  142.9070 O   0  0  0  0  0  1  0  0  0  0  0  0
  192.6130  174.2410  140.9080 O   0  0  0  0  0  0  0  0  0  0  0  0
  2  5  1  0  0  0  0
  3  1  1  6  0  0  0
  3  4  1  0  0  0  0
  3  7  1  0  0  0  0
  4  9  1  0  0  0  0
  5  6  1  0  0  0  0
  6 11  2  0  0  0  0
  7  1  1  6  0  0  0
  7  2  1  0  0  0  0
  8 31  1  0  0  0  0
  8 11  1  0  0  0  0
  9 10  1  0  0  0  0
  9  5  2  0  0  0  0
 10  8  2  0  0  0  0
 12  4  1  0  0  0  0
 13 14  1  0  0  0  0
 13 12  1  0  0  0  0
 15 14  1  0  0  0  0
 15 17  1  0  0  0  0
 17 16  1  0  0  0  0
 18 15  1  0  0  0  0
 19 18  1  0  0  0  0
 20 19  1  0  0  0  0
 20 23  1  0  0  0  0
 22 23  2  0  0  0  0
 23 21  1  0  0  0  0
 24 30  1  0  0  0  0
 25 26  1  0  0  0  0
 26 20  1  1  0  0  0
 28 24  1  0  0  0  0
 28 29  1  0  0  0  0
 29 25  1  0  0  0  0
 30 27  1  1  0  0  0
 30 26  1  0  0  0  0
 31 32  1  0  0  0  0
 33 32  1  0  0  0  0
 33 34  1  0  0  0  0
 35 34  1  0  0  0  0
 36 37  3  0  0  0  0
 37 35  1  0  0  0  0
 38 39  1  6  0  0  0
 38 36  1  0  0  0  0
 40 46  1  1  0  0  0
 41 40  1  0  0  0  0
 41 38  1  1  0  0  0
 42 48  1  1  0  0  0
 42 45  1  0  0  0  0
 42 43  1  0  0  0  0
 43 40  1  0  0  0  0
 44 43  1  0  0  0  0
 44 47  1  0  0  0  0
 44 40  1  0  0  0  0
 45 41  1  0  0  0  0
 48 49  1  0  0  0  0
 50 48  2  0  0  0  0
M  END
>  <MODEL>
9

>  <REMARK>
 VINA RESULT:      -6.3      2.655      7.039
  Name = 
  18 active torsions:
  status: ('A' for Active; 'I' for Inactive)
    1  A    between atoms: C_1  and  C_14
    2  A    between atoms: C_2  and  C_15
    3  A    between atoms: C_2  and  N_24
    4  A    between atoms: O_3  and  C_39
    5  A    between atoms: O_3  and  C_48
    6  A    between atoms: C_6  and  C_17
    7  A    between atoms: C_8  and  C_17
    8  A    between atoms: C_11  and  N_16
    9  A    between atoms: C_13  and  N_24
   10  A    between atoms: C_13  and  C_34
   11  A    between atoms: C_15  and  N_16
   12  A    between atoms: N_24  and  O_32
   13  A    between atoms: N_25  and  C_49
   14  A    between atoms: N_30  and  C_33
   15  A    between atoms: N_30  and  C_46
   16  A    between atoms: C_34  and  C_49
   17  A    between atoms: C_46  and  C_50
   18  A    between atoms: C_48  and  C_50
                            x       y       z     vdW  Elec       q    Type
                         _______ _______ _______ _____ _____    ______ ____

>  <TORSDO>
F 18

$$$$
