=
 OpenBabel11042414193D

 62 67  0  0  1  0  0  0  0  0999 V2000
  193.3610  174.7730  143.3470 C   0  0  2  0  0  3  0  0  0  0  0  0
  194.8230  171.5190  144.7090 C   0  0  0  0  0  0  0  0  0  0  0  0
  195.1320  169.3350  143.7110 C   0  0  0  0  0  3  0  0  0  0  0  0
  193.7420  172.4660  142.3060 C   0  0  0  0  0  3  0  0  0  0  0  0
  195.6710  168.8950  144.8830 N   0  0  0  0  0  0  0  0  0  0  0  0
  195.3760  171.0420  145.9000 C   0  0  0  0  0  3  0  0  0  0  0  0
  196.3960  169.1820  147.2210 C   0  0  0  0  0  1  0  0  0  0  0  0
  194.1650  171.1340  142.3970 C   0  0  0  0  0  3  0  0  0  0  0  0
  193.8530  173.3340  143.4100 C   0  0  0  0  0  0  0  0  0  0  0  0
  194.3870  172.8390  144.6140 C   0  0  0  0  0  3  0  0  0  0  0  0
  194.7050  170.6610  143.5960 C   0  0  0  0  0  0  0  0  0  0  0  0
  195.8020  169.7110  145.9660 C   0  0  0  0  0  0  0  0  0  0  0  0
  189.3550  177.4730  143.7480 N   0  0  0  0  0  2  0  0  0  0  0  0
  190.2980  176.4510  145.8720 C   0  0  0  0  0  0  0  0  0  0  0  0
  187.9460  177.3520  143.9670 C   0  0  0  0  0  0  0  0  0  0  0  0
  190.3150  176.6280  144.3930 C   0  0  0  0  0  0  0  0  0  0  0  0
  192.5940  175.5250  145.6930 C   0  0  2  0  0  3  0  0  0  0  0  0
  192.1790  175.1020  144.2720 C   0  0  1  0  0  3  0  0  0  0  0  0
  191.3550  175.8840  146.4730 C   0  0  0  0  0  3  0  0  0  0  0  0
  191.2450  176.0630  143.6780 N   0  0  0  0  0  0  0  0  0  0  0  0
  187.4700  176.2730  144.4240 O   0  0  0  0  0  0  0  0  0  0  0  0
  193.4430  176.6340  145.6470 O   0  0  0  0  0  0  0  0  0  0  0  0
  194.5650  176.2620  146.3900 C   0  0  0  0  0  1  0  0  0  0  0  0
  189.1970  176.8990  146.6120 O   0  0  0  0  0  0  0  0  0  0  0  0
  189.2850  177.9240  147.5920 C   0  0  0  0  0  1  0  0  0  0  0  0
  187.0400  178.5170  143.6940 C   0  0  1  0  0  3  0  0  0  0  0  0
  186.7890  178.6120  142.3200 O   0  0  0  0  0  0  0  0  0  0  0  0
  185.4040  178.4400  142.1630 C   0  0  0  0  0  2  0  0  0  0  0  0
  183.8080  178.4480  140.2300 O   0  0  0  0  0  1  0  0  0  0  0  0
  185.0700  178.1520  140.7340 C   0  0  0  0  0  0  0  0  0  0  0  0
  185.9470  177.6640  139.9720 O   0  0  0  0  0  0  0  0  0  0  0  0
  185.7280  178.3080  144.4490 C   0  0  0  0  0  2  0  0  0  0  0  0
  185.6440  179.2310  145.6520 C   0  0  0  0  0  2  0  0  0  0  0  0
  185.5940  178.1490  147.5800 C   0  0  0  0  0  1  0  0  0  0  0  0
  184.7680  178.6940  146.5930 O   0  0  0  0  0  0  0  0  0  0  0  0
  193.1900  175.3290  141.9920 N   0  0  0  0  0  0  0  0  0  0  0  0
  192.2450  174.5370  141.2060 C   0  0  0  0  0  1  0  0  0  0  0  0
  194.4840  175.3070  141.3240 C   0  0  0  0  0  2  0  0  0  0  0  0
  194.3090  175.1160  139.8160 C   0  0  0  0  0  2  0  0  0  0  0  0
  195.5820  174.7280  139.2230 N   0  0  0  0  0  2  0  0  0  0  0  0
  195.5720  173.2870  138.9730 C   0  0  0  0  0  2  0  0  0  0  0  0
  194.1530  172.7430  138.7970 C   0  0  0  0  0  2  0  0  0  0  0  0
  193.8770  172.3660  137.3570 C   0  0  0  0  0  2  0  0  0  0  0  0
  192.4780  172.2270  137.1660 O   0  0  0  0  0  0  0  0  0  0  0  0
  190.3400  171.0160  137.6500 C   0  0  2  0  0  3  0  0  0  0  0  0
  191.8590  168.5570  137.0860 C   0  0  0  0  0  2  0  0  0  0  0  0
  192.4680  169.8890  137.1240 N   0  0  0  0  0  0  0  0  0  0  0  0
  189.6740  169.6780  137.3140 C   0  0  0  0  0  2  0  0  0  0  0  0
  191.8160  171.0070  137.3000 C   0  0  0  0  0  0  0  0  0  0  0  0
  190.5270  168.5290  137.8180 C   0  0  0  0  0  2  0  0  0  0  0  0
  189.1740  172.4530  139.4500 C   0  0  0  0  0  0  0  0  0  0  0  0
  189.2250  172.5730  140.8250 C   0  0  0  0  0  0  0  0  0  0  0  0
  188.9880  173.4050  143.1610 C   0  0  0  0  0  2  0  0  0  0  0  0
  189.3850  171.9890  143.6080 C   0  0  0  0  0  2  0  0  0  0  0  0
  190.6670  170.9870  140.2060 N   0  0  0  0  0  0  0  0  0  0  0  0
  190.4740  171.4080  142.6960 C   0  0  0  0  0  2  0  0  0  0  0  0
  191.5370  169.9250  140.3130 O   0  0  0  0  0  1  0  0  0  0  0  0
  188.3770  173.3950  141.7580 C   0  0  1  0  0  3  0  0  0  0  0  0
  188.2400  174.8210  141.2720 C   0  0  0  0  0  1  0  0  0  0  0  0
  190.0970  171.4840  139.0750 C   0  0  0  0  0  0  0  0  0  0  0  0
  188.3220  173.1580  138.6030 O   0  0  0  0  0  1  0  0  0  0  0  0
  190.1220  171.6240  141.2560 C   0  0  0  0  0  0  0  0  0  0  0  0
  1 36  1  6  0  0  0
  1  9  1  0  0  0  0
  2  6  2  0  0  0  0
  3  5  1  0  0  0  0
  4  8  2  0  0  0  0
  4  9  1  0  0  0  0
  5 12  2  0  0  0  0
  6 12  1  0  0  0  0
  8 11  1  0  0  0  0
  9 10  2  0  0  0  0
 10  2  1  0  0  0  0
 11  3  2  0  0  0  0
 11  2  1  0  0  0  0
 12  7  1  0  0  0  0
 13 15  1  0  0  0  0
 13 16  1  0  0  0  0
 14 19  2  0  0  0  0
 14 24  1  0  0  0  0
 15 21  2  0  0  0  0
 16 14  1  0  0  0  0
 17 22  1  6  0  0  0
 17 19  1  0  0  0  0
 18  1  1  6  0  0  0
 18 17  1  0  0  0  0
 20 18  1  0  0  0  0
 20 16  2  0  0  0  0
 22 23  1  0  0  0  0
 24 25  1  0  0  0  0
 26 15  1  0  0  0  0
 26 32  1  1  0  0  0
 27 26  1  0  0  0  0
 28 27  1  0  0  0  0
 29 30  1  0  0  0  0
 30 28  1  0  0  0  0
 31 30  2  0  0  0  0
 32 33  1  0  0  0  0
 33 35  1  0  0  0  0
 35 34  1  0  0  0  0
 37 36  1  0  0  0  0
 38 36  1  0  0  0  0
 39 38  1  0  0  0  0
 40 39  1  0  0  0  0
 41 40  1  0  0  0  0
 42 41  1  0  0  0  0
 43 42  1  0  0  0  0
 44 49  1  0  0  0  0
 44 43  1  0  0  0  0
 45 60  1  1  0  0  0
 46 47  1  0  0  0  0
 46 50  1  0  0  0  0
 47 49  2  0  0  0  0
 48 45  1  0  0  0  0
 48 50  1  0  0  0  0
 49 45  1  0  0  0  0
 51 52  1  0  0  0  0
 52 62  2  0  0  0  0
 52 58  1  0  0  0  0
 53 54  1  0  0  0  0
 55 57  1  0  0  0  0
 55 62  1  0  0  0  0
 56 54  1  0  0  0  0
 58 59  1  6  0  0  0
 58 53  1  0  0  0  0
 60 51  2  0  0  0  0
 60 55  1  0  0  0  0
 61 51  1  0  0  0  0
 62 56  1  0  0  0  0
M  END
>  <MODEL>
1

>  <REMARK>
 VINA RESULT:      -6.5      0.000      0.000
  Name = 
  21 active torsions:
  status: ('A' for Active; 'I' for Inactive)
    1  A    between atoms: C_1  and  N_19
    2  A    between atoms: C_1  and  C_21
    3  A    between atoms: C_5  and  O_26
    4  A    between atoms: C_7  and  C_13
    5  A    between atoms: C_11  and  O_29
    6  A    between atoms: C_11  and  C_46
    7  A    between atoms: C_12  and  C_51
    8  A    between atoms: C_13  and  C_41
    9  A    between atoms: C_13  and  O_47
   10  A    between atoms: C_16  and  O_53
   11  A    between atoms: C_17  and  C_38
   12  A    between atoms: C_17  and  O_47
   13  A    between atoms: N_19  and  C_35
   14  A    between atoms: N_20  and  C_21
   15  A    between atoms: N_20  and  C_23
   16  A    between atoms: C_23  and  C_28
   17  A    between atoms: C_23  and  C_44
   18  A    between atoms: O_29  and  C_43
   19  A    between atoms: C_35  and  C_46
   20  A    between atoms: O_37  and  C_62
   21  A    between atoms: C_41  and  C_62
                            x       y       z     vdW  Elec       q    Type
                         _______ _______ _______ _____ _____    ______ ____

>  <TORSDO>
F 21

$$$$
=
 OpenBabel11042414193D

 62 67  0  0  1  0  0  0  0  0999 V2000
  193.4520  174.5690  143.8200 C   0  0  2  0  0  3  0  0  0  0  0  0
  194.5720  171.1410  142.5670 C   0  0  0  0  0  0  0  0  0  0  0  0
  194.0470  168.8930  143.2970 C   0  0  0  0  0  3  0  0  0  0  0  0
  192.8810  172.1800  144.5410 C   0  0  0  0  0  3  0  0  0  0  0  0
  194.8610  168.4040  142.3200 N   0  0  0  0  0  0  0  0  0  0  0  0
  195.4040  170.6140  141.5750 C   0  0  0  0  0  3  0  0  0  0  0  0
  196.4100  168.6410  140.4170 C   0  0  0  0  0  1  0  0  0  0  0  0
  193.0330  170.7930  144.4210 C   0  0  0  0  0  3  0  0  0  0  0  0
  193.5690  173.0580  143.6810 C   0  0  0  0  0  0  0  0  0  0  0  0
  194.4250  172.5190  142.7020 C   0  0  0  0  0  3  0  0  0  0  0  0
  193.8770  170.2740  143.4350 C   0  0  0  0  0  0  0  0  0  0  0  0
  195.5330  169.2250  141.4660 C   0  0  0  0  0  0  0  0  0  0  0  0
  189.2260  176.8880  144.3330 N   0  0  0  0  0  2  0  0  0  0  0  0
  190.6880  176.6460  146.3930 C   0  0  0  0  0  0  0  0  0  0  0  0
  187.9160  176.7130  144.8820 C   0  0  0  0  0  0  0  0  0  0  0  0
  190.4050  176.3690  144.9580 C   0  0  0  0  0  0  0  0  0  0  0  0
  193.0250  175.9210  145.9750 C   0  0  2  0  0  3  0  0  0  0  0  0
  192.4240  175.0530  144.8550 C   0  0  1  0  0  3  0  0  0  0  0  0
  191.9110  176.3860  146.8790 C   0  0  0  0  0  3  0  0  0  0  0  0
  191.2620  175.7000  144.2400 N   0  0  0  0  0  0  0  0  0  0  0  0
  187.7020  175.7830  145.7120 O   0  0  0  0  0  0  0  0  0  0  0  0
  193.6730  177.0370  145.4380 O   0  0  0  0  0  0  0  0  0  0  0  0
  194.6560  177.3690  146.3720 C   0  0  0  0  0  1  0  0  0  0  0  0
  189.6870  177.1950  147.2050 O   0  0  0  0  0  0  0  0  0  0  0  0
  189.9180  178.2750  148.0980 C   0  0  0  0  0  1  0  0  0  0  0  0
  186.8100  177.6530  144.5030 C   0  0  1  0  0  3  0  0  0  0  0  0
  186.1940  177.2130  143.3250 O   0  0  0  0  0  0  0  0  0  0  0  0
  186.4060  178.2230  142.3730 C   0  0  0  0  0  2  0  0  0  0  0  0
  187.0300  176.8740  140.3540 O   0  0  0  0  0  0  0  0  0  0  0  0
  187.3980  177.7760  141.3470 C   0  0  0  0  0  0  0  0  0  0  0  0
  188.5680  178.2430  141.3640 O   0  0  0  0  0  1  0  0  0  0  0  0
  185.7880  177.6940  145.6390 C   0  0  0  0  0  2  0  0  0  0  0  0
  185.7050  179.0850  146.2410 C   0  0  0  0  0  2  0  0  0  0  0  0
  186.0580  177.8890  148.0670 C   0  0  0  0  0  1  0  0  0  0  0  0
  185.3500  178.9940  147.5860 O   0  0  0  0  0  0  0  0  0  0  0  0
  193.3770  175.3220  142.5540 N   0  0  0  0  0  0  0  0  0  0  0  0
  192.4870  174.6670  141.5970 C   0  0  0  0  0  1  0  0  0  0  0  0
  194.7140  175.3820  141.9810 C   0  0  0  0  0  2  0  0  0  0  0  0
  194.6610  175.9070  140.5440 C   0  0  0  0  0  2  0  0  0  0  0  0
  195.7620  175.3400  139.7780 N   0  0  0  0  0  2  0  0  0  0  0  0
  195.4180  173.9730  139.3880 C   0  0  0  0  0  2  0  0  0  0  0  0
  194.0140  173.8810  138.7900 C   0  0  0  0  0  2  0  0  0  0  0  0
  194.0550  173.4800  137.3300 C   0  0  0  0  0  2  0  0  0  0  0  0
  192.7790  173.6900  136.7480 O   0  0  0  0  0  0  0  0  0  0  0  0
  190.4690  172.7290  136.6580 C   0  0  2  0  0  3  0  0  0  0  0  0
  191.6780  170.5270  135.1210 C   0  0  0  0  0  2  0  0  0  0  0  0
  192.4570  171.6130  135.7230 N   0  0  0  0  0  0  0  0  0  0  0  0
  189.6530  171.7710  135.7830 C   0  0  0  0  0  2  0  0  0  0  0  0
  191.9510  172.6410  136.3490 C   0  0  0  0  0  0  0  0  0  0  0  0
  190.3050  170.4010  135.7630 C   0  0  0  0  0  2  0  0  0  0  0  0
  190.8400  171.7110  139.0010 C   0  0  0  0  0  0  0  0  0  0  0  0
  190.3360  171.9100  140.2720 C   0  0  0  0  0  0  0  0  0  0  0  0
  189.7200  171.6260  142.6690 C   0  0  0  0  0  2  0  0  0  0  0  0
  189.3440  173.1170  142.6540 C   0  0  0  0  0  2  0  0  0  0  0  0
  189.3380  173.3490  138.8890 N   0  0  0  0  0  0  0  0  0  0  0  0
  188.6730  173.5010  141.3280 C   0  0  0  0  0  2  0  0  0  0  0  0
  188.5910  174.4290  138.4750 O   0  0  0  0  0  1  0  0  0  0  0  0
  190.7500  171.3000  141.5840 C   0  0  1  0  0  3  0  0  0  0  0  0
  190.8920  169.7980  141.4780 C   0  0  0  0  0  1  0  0  0  0  0  0
  190.1900  172.5930  138.1460 C   0  0  0  0  0  0  0  0  0  0  0  0
  191.8450  170.8100  138.6560 O   0  0  0  0  0  1  0  0  0  0  0  0
  189.4470  172.9540  140.1700 C   0  0  0  0  0  0  0  0  0  0  0  0
  1 36  1  6  0  0  0
  2 10  2  0  0  0  0
  2 11  1  0  0  0  0
  3 11  1  0  0  0  0
  5  3  2  0  0  0  0
  6  2  1  0  0  0  0
  7 12  1  0  0  0  0
  8  4  1  0  0  0  0
  9  1  1  0  0  0  0
  9  4  2  0  0  0  0
 10  9  1  0  0  0  0
 11  8  2  0  0  0  0
 12  6  2  0  0  0  0
 12  5  1  0  0  0  0
 13 15  1  0  0  0  0
 13 16  1  0  0  0  0
 14 19  2  0  0  0  0
 14 24  1  0  0  0  0
 15 21  2  0  0  0  0
 16 14  1  0  0  0  0
 17 22  1  6  0  0  0
 17 19  1  0  0  0  0
 18  1  1  6  0  0  0
 18 17  1  0  0  0  0
 20 18  1  0  0  0  0
 20 16  2  0  0  0  0
 22 23  1  0  0  0  0
 24 25  1  0  0  0  0
 26 15  1  0  0  0  0
 26 32  1  1  0  0  0
 27 26  1  0  0  0  0
 28 27  1  0  0  0  0
 29 30  2  0  0  0  0
 30 31  1  0  0  0  0
 30 28  1  0  0  0  0
 32 33  1  0  0  0  0
 33 35  1  0  0  0  0
 35 34  1  0  0  0  0
 37 36  1  0  0  0  0
 38 36  1  0  0  0  0
 39 38  1  0  0  0  0
 40 39  1  0  0  0  0
 41 40  1  0  0  0  0
 42 41  1  0  0  0  0
 43 42  1  0  0  0  0
 44 43  1  0  0  0  0
 45 60  1  1  0  0  0
 46 47  1  0  0  0  0
 46 50  1  0  0  0  0
 47 49  2  0  0  0  0
 48 45  1  0  0  0  0
 49 45  1  0  0  0  0
 49 44  1  0  0  0  0
 50 48  1  0  0  0  0
 51 52  1  0  0  0  0
 52 58  1  0  0  0  0
 54 53  1  0  0  0  0
 55 62  1  0  0  0  0
 56 54  1  0  0  0  0
 57 55  1  0  0  0  0
 58 59  1  6  0  0  0
 58 53  1  0  0  0  0
 60 55  1  0  0  0  0
 60 51  2  0  0  0  0
 61 51  1  0  0  0  0
 62 52  2  0  0  0  0
 62 56  1  0  0  0  0
M  END
>  <MODEL>
2

>  <REMARK>
 VINA RESULT:      -6.3      1.579      2.327
  Name = 
  21 active torsions:
  status: ('A' for Active; 'I' for Inactive)
    1  A    between atoms: C_1  and  N_19
    2  A    between atoms: C_1  and  C_21
    3  A    between atoms: C_5  and  O_26
    4  A    between atoms: C_7  and  C_13
    5  A    between atoms: C_11  and  O_29
    6  A    between atoms: C_11  and  C_46
    7  A    between atoms: C_12  and  C_51
    8  A    between atoms: C_13  and  C_41
    9  A    between atoms: C_13  and  O_47
   10  A    between atoms: C_16  and  O_53
   11  A    between atoms: C_17  and  C_38
   12  A    between atoms: C_17  and  O_47
   13  A    between atoms: N_19  and  C_35
   14  A    between atoms: N_20  and  C_21
   15  A    between atoms: N_20  and  C_23
   16  A    between atoms: C_23  and  C_28
   17  A    between atoms: C_23  and  C_44
   18  A    between atoms: O_29  and  C_43
   19  A    between atoms: C_35  and  C_46
   20  A    between atoms: O_37  and  C_62
   21  A    between atoms: C_41  and  C_62
                            x       y       z     vdW  Elec       q    Type
                         _______ _______ _______ _____ _____    ______ ____

>  <TORSDO>
F 21

$$$$
=
 OpenBabel11042414193D

 62 67  0  0  1  0  0  0  0  0999 V2000
  190.2750  176.0990  142.8830 C   0  0  2  0  0  3  0  0  0  0  0  0
  187.2530  177.2030  144.9380 C   0  0  0  0  0  0  0  0  0  0  0  0
  186.5750  176.7290  147.2140 C   0  0  0  0  0  3  0  0  0  0  0  0
  189.5550  175.6510  145.2980 C   0  0  0  0  0  3  0  0  0  0  0  0
  185.4690  177.5010  147.0270 N   0  0  0  0  0  0  0  0  0  0  0  0
  186.1080  177.9870  144.7720 C   0  0  0  0  0  3  0  0  0  0  0  0
  183.9970  178.9570  145.6900 C   0  0  0  0  0  1  0  0  0  0  0  0
  188.6470  175.7960  146.3540 C   0  0  0  0  0  3  0  0  0  0  0  0
  189.3240  176.2770  144.0570 C   0  0  0  0  0  0  0  0  0  0  0  0
  188.1550  177.0420  143.8890 C   0  0  0  0  0  3  0  0  0  0  0  0
  187.4980  176.5710  146.1750 C   0  0  0  0  0  0  0  0  0  0  0  0
  185.2200  178.1270  145.8440 C   0  0  0  0  0  0  0  0  0  0  0  0
  192.0630  173.2280  139.4100 N   0  0  0  0  0  2  0  0  0  0  0  0
  190.7910  172.1210  141.3070 C   0  0  0  0  0  0  0  0  0  0  0  0
  193.1130  172.2850  139.1730 C   0  0  0  0  0  0  0  0  0  0  0  0
  191.3790  173.3290  140.6640 C   0  0  0  0  0  0  0  0  0  0  0  0
  189.4780  173.6480  142.7570 C   0  0  2  0  0  3  0  0  0  0  0  0
  190.6330  174.6440  142.5430 C   0  0  1  0  0  3  0  0  0  0  0  0
  189.9330  172.2770  142.3260 C   0  0  0  0  0  3  0  0  0  0  0  0
  191.2240  174.5010  141.2100 N   0  0  0  0  0  0  0  0  0  0  0  0
  193.7350  171.7780  140.1500 O   0  0  0  0  0  0  0  0  0  0  0  0
  188.3630  174.0190  141.9990 O   0  0  0  0  0  0  0  0  0  0  0  0
  187.5060  172.9190  142.0540 C   0  0  0  0  0  1  0  0  0  0  0  0
  191.1190  170.8480  140.8240 O   0  0  0  0  0  0  0  0  0  0  0  0
  190.8430  169.6520  141.5390 C   0  0  0  0  0  1  0  0  0  0  0  0
  193.4470  171.8690  137.7710 C   0  0  1  0  0  3  0  0  0  0  0  0
  192.6860  172.6120  136.8600 O   0  0  0  0  0  0  0  0  0  0  0  0
  191.8650  171.6890  136.1920 C   0  0  0  0  0  2  0  0  0  0  0  0
  189.3880  171.3770  135.9660 O   0  0  0  0  0  0  0  0  0  0  0  0
  190.4810  172.2340  136.0370 C   0  0  0  0  0  0  0  0  0  0  0  0
  190.3000  173.4810  136.0010 O   0  0  0  0  0  1  0  0  0  0  0  0
  194.9360  172.1150  137.5250 C   0  0  0  0  0  2  0  0  0  0  0  0
  195.1820  173.5530  137.1050 C   0  0  0  0  0  2  0  0  0  0  0  0
  196.7390  174.5470  135.8890 C   0  0  0  0  0  1  0  0  0  0  0  0
  195.7350  173.5770  135.8250 O   0  0  0  0  0  0  0  0  0  0  0  0
  191.4540  176.9860  142.8780 N   0  0  0  0  0  0  0  0  0  0  0  0
  192.6480  176.2820  142.4130 C   0  0  0  0  0  1  0  0  0  0  0  0
  191.6840  177.4440  144.2410 C   0  0  0  0  0  2  0  0  0  0  0  0
  193.0400  176.9520  144.7520 C   0  0  0  0  0  2  0  0  0  0  0  0
  192.9780  176.7680  146.1970 N   0  0  0  0  0  2  0  0  0  0  0  0
  192.9510  175.3370  146.4940 C   0  0  0  0  0  2  0  0  0  0  0  0
  192.8480  174.4870  145.2270 C   0  0  0  0  0  2  0  0  0  0  0  0
  192.5170  173.0450  145.5500 C   0  0  0  0  0  2  0  0  0  0  0  0
  193.3020  172.1880  144.7360 O   0  0  0  0  0  0  0  0  0  0  0  0
  195.7060  172.7330  145.1720 C   0  0  2  0  0  3  0  0  0  0  0  0
  195.9760  169.9120  145.9740 C   0  0  0  0  0  2  0  0  0  0  0  0
  194.7440  170.4770  145.4170 N   0  0  0  0  0  0  0  0  0  0  0  0
  196.8700  172.2100  146.0220 C   0  0  0  0  0  2  0  0  0  0  0  0
  194.5650  171.7350  145.1170 C   0  0  0  0  0  0  0  0  0  0  0  0
  197.1850  170.7740  145.6480 C   0  0  0  0  0  2  0  0  0  0  0  0
  196.3900  174.5200  143.4390 C   0  0  0  0  0  0  0  0  0  0  0  0
  196.7630  174.5360  142.1090 C   0  0  0  0  0  0  0  0  0  0  0  0
  197.2800  175.2580  139.7820 C   0  0  0  0  0  2  0  0  0  0  0  0
  197.9410  173.8820  139.6000 C   0  0  0  0  0  2  0  0  0  0  0  0
  196.3670  172.4210  142.7010 N   0  0  0  0  0  0  0  0  0  0  0  0
  197.1390  172.7870  140.3160 C   0  0  0  0  0  2  0  0  0  0  0  0
  196.3560  171.0460  142.6330 O   0  0  0  0  0  1  0  0  0  0  0  0
  197.2550  175.6740  141.2550 C   0  0  1  0  0  3  0  0  0  0  0  0
  196.3800  176.8990  141.4040 C   0  0  0  0  0  1  0  0  0  0  0  0
  196.1190  173.2020  143.7870 C   0  0  0  0  0  0  0  0  0  0  0  0
  196.3330  175.6280  144.2820 O   0  0  0  0  0  1  0  0  0  0  0  0
  196.7790  173.2230  141.7030 C   0  0  0  0  0  0  0  0  0  0  0  0
  1 36  1  1  0  0  0
  1  9  1  0  0  0  0
  2 11  1  0  0  0  0
  4  8  2  0  0  0  0
  5  3  1  0  0  0  0
  6  2  2  0  0  0  0
  6 12  1  0  0  0  0
  7 12  1  0  0  0  0
  9  4  1  0  0  0  0
 10  9  2  0  0  0  0
 10  2  1  0  0  0  0
 11  8  1  0  0  0  0
 11  3  2  0  0  0  0
 12  5  2  0  0  0  0
 13 16  1  0  0  0  0
 14 19  2  0  0  0  0
 15 13  1  0  0  0  0
 15 21  2  0  0  0  0
 16 20  2  0  0  0  0
 16 14  1  0  0  0  0
 17 22  1  6  0  0  0
 18 17  1  0  0  0  0
 18  1  1  6  0  0  0
 19 17  1  0  0  0  0
 20 18  1  0  0  0  0
 22 23  1  0  0  0  0
 24 14  1  0  0  0  0
 24 25  1  0  0  0  0
 26 32  1  6  0  0  0
 26 15  1  0  0  0  0
 27 26  1  0  0  0  0
 28 27  1  0  0  0  0
 29 30  2  0  0  0  0
 30 28  1  0  0  0  0
 31 30  1  0  0  0  0
 33 32  1  0  0  0  0
 35 34  1  0  0  0  0
 35 33  1  0  0  0  0
 36 38  1  0  0  0  0
 37 36  1  0  0  0  0
 38 39  1  0  0  0  0
 39 40  1  0  0  0  0
 40 41  1  0  0  0  0
 42 43  1  0  0  0  0
 42 41  1  0  0  0  0
 44 49  1  0  0  0  0
 44 43  1  0  0  0  0
 45 60  1  6  0  0  0
 45 48  1  0  0  0  0
 47 46  1  0  0  0  0
 49 45  1  0  0  0  0
 49 47  2  0  0  0  0
 50 46  1  0  0  0  0
 50 48  1  0  0  0  0
 51 60  2  0  0  0  0
 51 61  1  0  0  0  0
 52 51  1  0  0  0  0
 53 58  1  0  0  0  0
 54 53  1  0  0  0  0
 54 56  1  0  0  0  0
 55 60  1  0  0  0  0
 56 62  1  0  0  0  0
 57 55  1  0  0  0  0
 58 59  1  6  0  0  0
 58 52  1  0  0  0  0
 62 52  2  0  0  0  0
 62 55  1  0  0  0  0
M  END
>  <MODEL>
3

>  <REMARK>
 VINA RESULT:      -6.0      2.678      9.104
  Name = 
  21 active torsions:
  status: ('A' for Active; 'I' for Inactive)
    1  A    between atoms: C_1  and  N_19
    2  A    between atoms: C_1  and  C_21
    3  A    between atoms: C_5  and  O_26
    4  A    between atoms: C_7  and  C_13
    5  A    between atoms: C_11  and  O_29
    6  A    between atoms: C_11  and  C_46
    7  A    between atoms: C_12  and  C_51
    8  A    between atoms: C_13  and  C_41
    9  A    between atoms: C_13  and  O_47
   10  A    between atoms: C_16  and  O_53
   11  A    between atoms: C_17  and  C_38
   12  A    between atoms: C_17  and  O_47
   13  A    between atoms: N_19  and  C_35
   14  A    between atoms: N_20  and  C_21
   15  A    between atoms: N_20  and  C_23
   16  A    between atoms: C_23  and  C_28
   17  A    between atoms: C_23  and  C_44
   18  A    between atoms: O_29  and  C_43
   19  A    between atoms: C_35  and  C_46
   20  A    between atoms: O_37  and  C_62
   21  A    between atoms: C_41  and  C_62
                            x       y       z     vdW  Elec       q    Type
                         _______ _______ _______ _____ _____    ______ ____

>  <TORSDO>
F 21

$$$$
=
 OpenBabel11042414193D

 62 67  0  0  1  0  0  0  0  0999 V2000
  195.0480  174.5330  143.4280 C   0  0  2  0  0  3  0  0  0  0  0  0
  196.4690  171.2770  144.8280 C   0  0  0  0  0  0  0  0  0  0  0  0
  197.7590  169.4980  143.8110 C   0  0  0  0  0  3  0  0  0  0  0  0
  196.4490  172.6580  142.3930 C   0  0  0  0  0  3  0  0  0  0  0  0
  197.7730  168.8480  145.0080 N   0  0  0  0  0  0  0  0  0  0  0  0
  196.4950  170.5880  146.0430 C   0  0  0  0  0  3  0  0  0  0  0  0
  197.2070  168.6110  147.3960 C   0  0  0  0  0  1  0  0  0  0  0  0
  197.1040  171.4230  142.4820 C   0  0  0  0  0  3  0  0  0  0  0  0
  195.8010  173.2130  143.5130 C   0  0  0  0  0  0  0  0  0  0  0  0
  195.8090  172.5000  144.7260 C   0  0  0  0  0  3  0  0  0  0  0  0
  197.1140  170.7340  143.6970 C   0  0  0  0  0  0  0  0  0  0  0  0
  197.1640  169.3610  146.1130 C   0  0  0  0  0  0  0  0  0  0  0  0
  190.5280  176.0000  144.3870 N   0  0  0  0  0  2  0  0  0  0  0  0
  192.1900  175.9900  146.3060 C   0  0  0  0  0  0  0  0  0  0  0  0
  189.3290  175.5670  145.0370 C   0  0  0  0  0  0  0  0  0  0  0  0
  191.8350  175.6980  144.8890 C   0  0  0  0  0  0  0  0  0  0  0  0
  194.5730  175.7300  145.6630 C   0  0  2  0  0  3  0  0  0  0  0  0
  194.0460  174.7910  144.5640 C   0  0  1  0  0  3  0  0  0  0  0  0
  193.4790  175.9550  146.6760 C   0  0  0  0  0  3  0  0  0  0  0  0
  192.7330  175.2210  144.0750 N   0  0  0  0  0  0  0  0  0  0  0  0
  189.3680  174.5950  145.8450 O   0  0  0  0  0  0  0  0  0  0  0  0
  194.9510  176.9610  145.1180 O   0  0  0  0  0  0  0  0  0  0  0  0
  194.8900  177.8620  146.1820 C   0  0  0  0  0  1  0  0  0  0  0  0
  191.1810  176.3210  147.2200 O   0  0  0  0  0  0  0  0  0  0  0  0
  191.4100  177.1200  148.3720 C   0  0  0  0  0  1  0  0  0  0  0  0
  188.0370  176.2900  144.7910 C   0  0  1  0  0  3  0  0  0  0  0  0
  188.0800  177.5550  145.3890 O   0  0  0  0  0  0  0  0  0  0  0  0
  187.7540  177.3610  146.7400 C   0  0  0  0  0  2  0  0  0  0  0  0
  186.5570  179.0300  148.1780 O   0  0  0  0  0  1  0  0  0  0  0  0
  186.5340  178.1460  147.1050 C   0  0  0  0  0  0  0  0  0  0  0  0
  185.4860  178.0280  146.4160 O   0  0  0  0  0  0  0  0  0  0  0  0
  187.8330  176.4340  143.2830 C   0  0  0  0  0  2  0  0  0  0  0  0
  186.7110  177.4110  142.9820 C   0  0  0  0  0  2  0  0  0  0  0  0
  188.4290  178.0640  141.7520 C   0  0  0  0  0  1  0  0  0  0  0  0
  187.2200  178.5110  142.2930 O   0  0  0  0  0  0  0  0  0  0  0  0
  194.4960  174.8680  142.1020 N   0  0  0  0  0  0  0  0  0  0  0  0
  194.1430  176.2840  142.0140 C   0  0  0  0  0  1  0  0  0  0  0  0
  193.2930  174.0740  141.8970 C   0  0  0  0  0  2  0  0  0  0  0  0
  192.8940  174.0730  140.4190 C   0  0  0  0  0  2  0  0  0  0  0  0
  194.0620  173.7730  139.6000 N   0  0  0  0  0  2  0  0  0  0  0  0
  193.7940  174.1780  138.2210 C   0  0  0  0  0  2  0  0  0  0  0  0
  192.3100  174.0680  137.8660 C   0  0  0  0  0  2  0  0  0  0  0  0
  192.0900  173.1730  136.6640 C   0  0  0  0  0  2  0  0  0  0  0  0
  192.7580  171.9370  136.8690 O   0  0  0  0  0  0  0  0  0  0  0  0
  190.9440  170.6150  137.9770 C   0  0  2  0  0  3  0  0  0  0  0  0
  191.7040  168.4410  136.1410 C   0  0  0  0  0  2  0  0  0  0  0  0
  192.4280  169.7120  136.2290 N   0  0  0  0  0  0  0  0  0  0  0  0
  190.0310  169.4250  137.6640 C   0  0  0  0  0  2  0  0  0  0  0  0
  192.0800  170.7240  136.9790 C   0  0  0  0  0  0  0  0  0  0  0  0
  190.8640  168.1880  137.3830 C   0  0  0  0  0  2  0  0  0  0  0  0
  190.7090  171.0980  140.5020 C   0  0  0  0  0  0  0  0  0  0  0  0
  191.4890  170.9350  141.6310 C   0  0  0  0  0  0  0  0  0  0  0  0
  192.4240  171.1060  143.9330 C   0  0  0  0  0  2  0  0  0  0  0  0
  193.2810  169.8800  143.5770 C   0  0  0  0  0  2  0  0  0  0  0  0
  192.6320  170.1720  139.8730 N   0  0  0  0  0  0  0  0  0  0  0  0
  193.7710  169.9550  142.1250 C   0  0  0  0  0  2  0  0  0  0  0  0
  193.6090  169.5150  139.1600 O   0  0  0  0  0  1  0  0  0  0  0  0
  191.1540  171.1640  143.0800 C   0  0  1  0  0  3  0  0  0  0  0  0
  190.4840  172.5040  143.2900 C   0  0  0  0  0  1  0  0  0  0  0  0
  191.4430  170.6460  139.4120 C   0  0  0  0  0  0  0  0  0  0  0  0
  189.4080  171.5960  140.4770 O   0  0  0  0  0  1  0  0  0  0  0  0
  192.6450  170.3220  141.2090 C   0  0  0  0  0  0  0  0  0  0  0  0
  1 36  1  6  0  0  0
  1  9  1  0  0  0  0
  2  6  2  0  0  0  0
  3  5  1  0  0  0  0
  4  8  2  0  0  0  0
  4  9  1  0  0  0  0
  5 12  2  0  0  0  0
  6 12  1  0  0  0  0
  8 11  1  0  0  0  0
  9 10  2  0  0  0  0
 10  2  1  0  0  0  0
 11  3  2  0  0  0  0
 11  2  1  0  0  0  0
 12  7  1  0  0  0  0
 13 16  1  0  0  0  0
 13 15  1  0  0  0  0
 14 19  2  0  0  0  0
 14 24  1  0  0  0  0
 15 21  2  0  0  0  0
 16 14  1  0  0  0  0
 17 22  1  6  0  0  0
 17 19  1  0  0  0  0
 18  1  1  6  0  0  0
 18 17  1  0  0  0  0
 20 18  1  0  0  0  0
 20 16  2  0  0  0  0
 22 23  1  0  0  0  0
 24 25  1  0  0  0  0
 26 32  1  6  0  0  0
 26 15  1  0  0  0  0
 26 27  1  0  0  0  0
 27 28  1  0  0  0  0
 28 30  1  0  0  0  0
 30 29  1  0  0  0  0
 31 30  2  0  0  0  0
 33 32  1  0  0  0  0
 34 35  1  0  0  0  0
 35 33  1  0  0  0  0
 37 36  1  0  0  0  0
 38 36  1  0  0  0  0
 39 38  1  0  0  0  0
 40 39  1  0  0  0  0
 41 40  1  0  0  0  0
 42 41  1  0  0  0  0
 43 44  1  0  0  0  0
 43 42  1  0  0  0  0
 44 49  1  0  0  0  0
 45 60  1  1  0  0  0
 46 47  1  0  0  0  0
 46 50  1  0  0  0  0
 47 49  2  0  0  0  0
 48 45  1  0  0  0  0
 49 45  1  0  0  0  0
 50 48  1  0  0  0  0
 51 52  1  0  0  0  0
 52 58  1  0  0  0  0
 54 53  1  0  0  0  0
 55 62  1  0  0  0  0
 56 54  1  0  0  0  0
 57 55  1  0  0  0  0
 58 59  1  6  0  0  0
 58 53  1  0  0  0  0
 60 55  1  0  0  0  0
 60 51  2  0  0  0  0
 61 51  1  0  0  0  0
 62 52  2  0  0  0  0
 62 56  1  0  0  0  0
M  END
>  <MODEL>
4

>  <REMARK>
 VINA RESULT:      -5.9      1.700      2.995
  Name = 
  21 active torsions:
  status: ('A' for Active; 'I' for Inactive)
    1  A    between atoms: C_1  and  N_19
    2  A    between atoms: C_1  and  C_21
    3  A    between atoms: C_5  and  O_26
    4  A    between atoms: C_7  and  C_13
    5  A    between atoms: C_11  and  O_29
    6  A    between atoms: C_11  and  C_46
    7  A    between atoms: C_12  and  C_51
    8  A    between atoms: C_13  and  C_41
    9  A    between atoms: C_13  and  O_47
   10  A    between atoms: C_16  and  O_53
   11  A    between atoms: C_17  and  C_38
   12  A    between atoms: C_17  and  O_47
   13  A    between atoms: N_19  and  C_35
   14  A    between atoms: N_20  and  C_21
   15  A    between atoms: N_20  and  C_23
   16  A    between atoms: C_23  and  C_28
   17  A    between atoms: C_23  and  C_44
   18  A    between atoms: O_29  and  C_43
   19  A    between atoms: C_35  and  C_46
   20  A    between atoms: O_37  and  C_62
   21  A    between atoms: C_41  and  C_62
                            x       y       z     vdW  Elec       q    Type
                         _______ _______ _______ _____ _____    ______ ____

>  <TORSDO>
F 21

$$$$
=
 OpenBabel11042414193D

 62 67  0  0  1  0  0  0  0  0999 V2000
  190.9540  173.0200  139.2170 C   0  0  2  0  0  3  0  0  0  0  0  0
  193.2720  174.7390  136.7170 C   0  0  0  0  0  0  0  0  0  0  0  0
  194.8930  173.8700  135.1420 C   0  0  0  0  0  3  0  0  0  0  0  0
  192.6430  172.1290  137.5120 C   0  0  0  0  0  3  0  0  0  0  0  0
  195.1750  175.1450  134.7550 N   0  0  0  0  0  0  0  0  0  0  0  0
  193.5820  176.0370  136.3040 C   0  0  0  0  0  3  0  0  0  0  0  0
  194.8910  177.5920  134.8500 C   0  0  0  0  0  1  0  0  0  0  0  0
  193.6130  172.3360  136.5240 C   0  0  0  0  0  3  0  0  0  0  0  0
  191.9810  173.2190  138.1110 C   0  0  0  0  0  0  0  0  0  0  0  0
  192.3180  174.5250  137.7090 C   0  0  0  0  0  3  0  0  0  0  0  0
  193.9270  173.6380  136.1260 C   0  0  0  0  0  0  0  0  0  0  0  0
  194.5460  176.2200  135.3060 C   0  0  0  0  0  0  0  0  0  0  0  0
  194.9820  172.8590  141.9090 N   0  0  0  0  0  2  0  0  0  0  0  0
  193.0830  171.3000  142.5460 C   0  0  0  0  0  0  0  0  0  0  0  0
  195.4830  173.2480  143.1920 C   0  0  0  0  0  0  0  0  0  0  0  0
  193.6420  172.3960  141.7080 C   0  0  0  0  0  0  0  0  0  0  0  0
  191.2790  171.0570  140.8590 C   0  0  2  0  0  3  0  0  0  0  0  0
  191.5240  172.5470  140.5630 C   0  0  1  0  0  3  0  0  0  0  0  0
  191.9410  170.7060  142.1670 C   0  0  0  0  0  3  0  0  0  0  0  0
  192.9350  172.9050  140.7390 N   0  0  0  0  0  0  0  0  0  0  0  0
  194.6760  173.5660  144.1120 O   0  0  0  0  0  0  0  0  0  0  0  0
  191.8190  170.2600  139.8450 O   0  0  0  0  0  0  0  0  0  0  0  0
  191.2010  169.0180  139.9930 C   0  0  0  0  0  1  0  0  0  0  0  0
  193.7660  170.8900  143.6980 O   0  0  0  0  0  0  0  0  0  0  0  0
  194.4280  169.6380  143.8030 C   0  0  0  0  0  1  0  0  0  0  0  0
  196.9600  173.2400  143.4570 C   0  0  1  0  0  3  0  0  0  0  0  0
  197.3350  174.4290  144.0940 O   0  0  0  0  0  0  0  0  0  0  0  0
  197.6980  175.3220  143.0740 C   0  0  0  0  0  2  0  0  0  0  0  0
  196.3420  176.9470  141.7290 O   0  0  0  0  0  0  0  0  0  0  0  0
  196.7020  176.4340  142.9700 C   0  0  0  0  0  0  0  0  0  0  0  0
  196.1640  176.8890  144.0150 O   0  0  0  0  0  1  0  0  0  0  0  0
  197.2940  172.0450  144.3490 C   0  0  0  0  0  2  0  0  0  0  0  0
  196.6900  172.2180  145.7310 C   0  0  0  0  0  2  0  0  0  0  0  0
  197.4820  170.1580  145.5980 C   0  0  0  0  0  1  0  0  0  0  0  0
  196.9370  171.0790  146.4960 O   0  0  0  0  0  0  0  0  0  0  0  0
  189.7350  172.2850  138.8310 N   0  0  0  0  0  0  0  0  0  0  0  0
  189.7540  171.9310  137.4120 C   0  0  0  0  0  1  0  0  0  0  0  0
  188.5870  173.1450  139.0810 C   0  0  0  0  0  2  0  0  0  0  0  0
  188.1040  172.9910  140.5260 C   0  0  0  0  0  2  0  0  0  0  0  0
  188.4590  174.1810  141.2870 N   0  0  0  0  0  2  0  0  0  0  0  0
  187.9770  175.3640  140.5750 C   0  0  0  0  0  2  0  0  0  0  0  0
  187.8810  176.5870  141.4880 C   0  0  0  0  0  2  0  0  0  0  0  0
  186.4530  176.8530  141.9150 C   0  0  0  0  0  2  0  0  0  0  0  0
  186.2370  176.3010  143.2040 O   0  0  0  0  0  0  0  0  0  0  0  0
  187.1390  178.0510  144.7510 C   0  0  2  0  0  3  0  0  0  0  0  0
  184.5430  177.8640  146.1290 C   0  0  0  0  0  2  0  0  0  0  0  0
  184.9300  176.9900  145.0180 N   0  0  0  0  0  0  0  0  0  0  0  0
  186.6110  179.1360  145.6950 C   0  0  0  0  0  2  0  0  0  0  0  0
  186.0410  177.0890  144.3380 C   0  0  0  0  0  0  0  0  0  0  0  0
  185.7540  178.5120  146.7800 C   0  0  0  0  0  2  0  0  0  0  0  0
  189.6690  177.5450  144.8500 C   0  0  0  0  0  0  0  0  0  0  0  0
  190.4980  176.7200  145.5830 C   0  0  0  0  0  0  0  0  0  0  0  0
  192.4440  175.3790  146.3720 C   0  0  0  0  0  2  0  0  0  0  0  0
  191.6980  175.2540  147.7100 C   0  0  0  0  0  2  0  0  0  0  0  0
  188.4030  176.4110  146.2850 N   0  0  0  0  0  0  0  0  0  0  0  0
  190.1900  175.0770  147.4850 C   0  0  0  0  0  2  0  0  0  0  0  0
  187.3610  175.9940  147.0820 O   0  0  0  0  0  1  0  0  0  0  0  0
  192.0000  176.6250  145.6010 C   0  0  1  0  0  3  0  0  0  0  0  0
  192.5700  176.5650  144.2010 C   0  0  0  0  0  1  0  0  0  0  0  0
  188.3650  177.3220  145.2760 C   0  0  0  0  0  0  0  0  0  0  0  0
  190.0790  178.4600  143.8820 O   0  0  0  0  0  1  0  0  0  0  0  0
  189.6880  176.0710  146.4850 C   0  0  0  0  0  0  0  0  0  0  0  0
  1 36  1  6  0  0  0
  2 10  1  0  0  0  0
  3 11  1  0  0  0  0
  4  9  1  0  0  0  0
  5  3  2  0  0  0  0
  5 12  1  0  0  0  0
  6  2  1  0  0  0  0
  7 12  1  0  0  0  0
  8  4  2  0  0  0  0
  9  1  1  0  0  0  0
 10  9  2  0  0  0  0
 11  8  1  0  0  0  0
 11  2  2  0  0  0  0
 12  6  2  0  0  0  0
 13 15  1  0  0  0  0
 14 24  1  0  0  0  0
 15 26  1  0  0  0  0
 15 21  2  0  0  0  0
 16 13  1  0  0  0  0
 16 14  1  0  0  0  0
 17 22  1  6  0  0  0
 17 19  1  0  0  0  0
 18  1  1  6  0  0  0
 18 20  1  0  0  0  0
 18 17  1  0  0  0  0
 19 14  2  0  0  0  0
 20 16  2  0  0  0  0
 22 23  1  0  0  0  0
 24 25  1  0  0  0  0
 26 27  1  0  0  0  0
 26 32  1  1  0  0  0
 28 27  1  0  0  0  0
 29 30  2  0  0  0  0
 30 28  1  0  0  0  0
 30 31  1  0  0  0  0
 32 33  1  0  0  0  0
 33 35  1  0  0  0  0
 34 35  1  0  0  0  0
 36 38  1  0  0  0  0
 37 36  1  0  0  0  0
 38 39  1  0  0  0  0
 39 40  1  0  0  0  0
 41 40  1  0  0  0  0
 41 42  1  0  0  0  0
 42 43  1  0  0  0  0
 43 44  1  0  0  0  0
 44 49  1  0  0  0  0
 45 60  1  1  0  0  0
 45 48  1  0  0  0  0
 46 50  1  0  0  0  0
 47 46  1  0  0  0  0
 48 50  1  0  0  0  0
 49 45  1  0  0  0  0
 49 47  2  0  0  0  0
 51 60  2  0  0  0  0
 51 52  1  0  0  0  0
 52 58  1  0  0  0  0
 52 62  2  0  0  0  0
 53 54  1  0  0  0  0
 55 62  1  0  0  0  0
 55 57  1  0  0  0  0
 56 54  1  0  0  0  0
 58 59  1  6  0  0  0
 58 53  1  0  0  0  0
 60 55  1  0  0  0  0
 61 51  1  0  0  0  0
 62 56  1  0  0  0  0
M  END
>  <MODEL>
5

>  <REMARK>
 VINA RESULT:      -5.9      2.639      9.457
  Name = 
  21 active torsions:
  status: ('A' for Active; 'I' for Inactive)
    1  A    between atoms: C_1  and  N_19
    2  A    between atoms: C_1  and  C_21
    3  A    between atoms: C_5  and  O_26
    4  A    between atoms: C_7  and  C_13
    5  A    between atoms: C_11  and  O_29
    6  A    between atoms: C_11  and  C_46
    7  A    between atoms: C_12  and  C_51
    8  A    between atoms: C_13  and  C_41
    9  A    between atoms: C_13  and  O_47
   10  A    between atoms: C_16  and  O_53
   11  A    between atoms: C_17  and  C_38
   12  A    between atoms: C_17  and  O_47
   13  A    between atoms: N_19  and  C_35
   14  A    between atoms: N_20  and  C_21
   15  A    between atoms: N_20  and  C_23
   16  A    between atoms: C_23  and  C_28
   17  A    between atoms: C_23  and  C_44
   18  A    between atoms: O_29  and  C_43
   19  A    between atoms: C_35  and  C_46
   20  A    between atoms: O_37  and  C_62
   21  A    between atoms: C_41  and  C_62
                            x       y       z     vdW  Elec       q    Type
                         _______ _______ _______ _____ _____    ______ ____

>  <TORSDO>
F 21

$$$$
=
 OpenBabel11042414193D

 62 67  0  0  1  0  0  0  0  0999 V2000
  194.7400  174.4620  143.4290 C   0  0  2  0  0  3  0  0  0  0  0  0
  195.9380  171.1800  144.9680 C   0  0  0  0  0  0  0  0  0  0  0  0
  197.0800  169.2650  144.0240 C   0  0  0  0  0  3  0  0  0  0  0  0
  195.9860  172.4430  142.4690 C   0  0  0  0  0  3  0  0  0  0  0  0
  197.0630  168.6720  145.2500 N   0  0  0  0  0  0  0  0  0  0  0  0
  195.9300  170.5480  146.2140 C   0  0  0  0  0  3  0  0  0  0  0  0
  196.5140  168.5900  147.6520 C   0  0  0  0  0  1  0  0  0  0  0  0
  196.5500  171.1690  142.6110 C   0  0  0  0  0  3  0  0  0  0  0  0
  195.3960  173.0960  143.5690 C   0  0  0  0  0  0  0  0  0  0  0  0
  195.3680  172.4420  144.8140 C   0  0  0  0  0  3  0  0  0  0  0  0
  196.5260  170.5380  143.8580 C   0  0  0  0  0  0  0  0  0  0  0  0
  196.5090  169.2800  146.3350 C   0  0  0  0  0  0  0  0  0  0  0  0
  190.5290  176.8410  143.7540 N   0  0  0  0  0  2  0  0  0  0  0  0
  191.5140  175.9020  145.8960 C   0  0  0  0  0  0  0  0  0  0  0  0
  189.1300  176.6110  143.9500 C   0  0  0  0  0  0  0  0  0  0  0  0
  191.5410  176.0760  144.4180 C   0  0  0  0  0  0  0  0  0  0  0  0
  193.8780  175.1580  145.7580 C   0  0  2  0  0  3  0  0  0  0  0  0
  193.5210  174.7010  144.3320 C   0  0  1  0  0  3  0  0  0  0  0  0
  192.6020  175.4210  146.5170 C   0  0  0  0  0  3  0  0  0  0  0  0
  192.5240  175.5830  143.7190 N   0  0  0  0  0  0  0  0  0  0  0  0
  188.7330  175.5000  144.4030 O   0  0  0  0  0  0  0  0  0  0  0  0
  194.6380  176.3300  145.7220 O   0  0  0  0  0  0  0  0  0  0  0  0
  194.2380  177.0560  146.8450 C   0  0  0  0  0  1  0  0  0  0  0  0
  190.3680  176.2640  146.6170 O   0  0  0  0  0  0  0  0  0  0  0  0
  190.3410  177.3460  147.5370 C   0  0  0  0  0  1  0  0  0  0  0  0
  188.1410  177.7010  143.6580 C   0  0  1  0  0  3  0  0  0  0  0  0
  187.9780  177.8370  142.2730 O   0  0  0  0  0  0  0  0  0  0  0  0
  186.8770  177.0370  141.9290 C   0  0  0  0  0  2  0  0  0  0  0  0
  184.8880  178.1810  140.9190 O   0  0  0  0  0  1  0  0  0  0  0  0
  186.1500  177.6190  140.7590 C   0  0  0  0  0  0  0  0  0  0  0  0
  186.6980  177.6280  139.6240 O   0  0  0  0  0  0  0  0  0  0  0  0
  186.8050  177.3400  144.3050 C   0  0  0  0  0  2  0  0  0  0  0  0
  186.2500  178.5140  145.0900 C   0  0  0  0  0  2  0  0  0  0  0  0
  185.4640  176.6960  146.0740 C   0  0  0  0  0  1  0  0  0  0  0  0
  185.2450  178.0710  145.9480 O   0  0  0  0  0  0  0  0  0  0  0  0
  194.5160  174.9230  142.0450 N   0  0  0  0  0  0  0  0  0  0  0  0
  194.6800  176.3710  141.9330 C   0  0  0  0  0  1  0  0  0  0  0  0
  193.1540  174.5770  141.6660 C   0  0  0  0  0  2  0  0  0  0  0  0
  193.1350  173.8780  140.3040 C   0  0  0  0  0  2  0  0  0  0  0  0
  194.2430  174.3630  139.4920 N   0  0  0  0  0  2  0  0  0  0  0  0
  194.2780  173.6150  138.2370 C   0  0  0  0  0  2  0  0  0  0  0  0
  193.1160  173.9830  137.3140 C   0  0  0  0  0  2  0  0  0  0  0  0
  192.6080  172.7770  136.5510 C   0  0  0  0  0  2  0  0  0  0  0  0
  192.9350  171.5950  137.2660 O   0  0  0  0  0  0  0  0  0  0  0  0
  190.8160  170.5940  138.1470 C   0  0  2  0  0  3  0  0  0  0  0  0
  191.5160  168.2320  136.5330 C   0  0  0  0  0  2  0  0  0  0  0  0
  192.3910  169.3990  136.6750 N   0  0  0  0  0  0  0  0  0  0  0  0
  189.8000  169.5180  137.7510 C   0  0  0  0  0  2  0  0  0  0  0  0
  192.0860  170.4910  137.3230 C   0  0  0  0  0  0  0  0  0  0  0  0
  190.4830  168.1680  137.6460 C   0  0  0  0  0  2  0  0  0  0  0  0
  192.1830  170.0210  140.2610 C   0  0  0  0  0  0  0  0  0  0  0  0
  192.1250  170.3300  141.6060 C   0  0  0  0  0  0  0  0  0  0  0  0
  192.4580  170.3240  144.0750 C   0  0  0  0  0  2  0  0  0  0  0  0
  191.8040  171.7150  144.0740 C   0  0  0  0  0  2  0  0  0  0  0  0
  190.4360  171.3610  140.5770 N   0  0  0  0  0  0  0  0  0  0  0  0
  190.6490  171.7800  143.0660 C   0  0  0  0  0  2  0  0  0  0  0  0
  189.3870  172.2320  140.3810 O   0  0  0  0  0  1  0  0  0  0  0  0
  193.0870  170.0030  142.7170 C   0  0  1  0  0  3  0  0  0  0  0  0
  193.4880  168.5440  142.6940 C   0  0  0  0  0  1  0  0  0  0  0  0
  191.1090  170.6450  139.6370 C   0  0  0  0  0  0  0  0  0  0  0  0
  193.1650  169.2490  139.6450 O   0  0  0  0  0  1  0  0  0  0  0  0
  191.0640  171.1910  141.7540 C   0  0  0  0  0  0  0  0  0  0  0  0
  1 36  1  6  0  0  0
  1  9  1  0  0  0  0
  2  6  2  0  0  0  0
  3  5  1  0  0  0  0
  4  8  2  0  0  0  0
  4  9  1  0  0  0  0
  5 12  2  0  0  0  0
  6 12  1  0  0  0  0
  8 11  1  0  0  0  0
  9 10  2  0  0  0  0
 10  2  1  0  0  0  0
 11  3  2  0  0  0  0
 11  2  1  0  0  0  0
 12  7  1  0  0  0  0
 13 15  1  0  0  0  0
 13 16  1  0  0  0  0
 14 19  2  0  0  0  0
 14 24  1  0  0  0  0
 15 21  2  0  0  0  0
 16 14  1  0  0  0  0
 17 22  1  6  0  0  0
 17 19  1  0  0  0  0
 18  1  1  6  0  0  0
 18 17  1  0  0  0  0
 20 18  1  0  0  0  0
 20 16  2  0  0  0  0
 22 23  1  0  0  0  0
 24 25  1  0  0  0  0
 26 15  1  0  0  0  0
 26 32  1  1  0  0  0
 27 26  1  0  0  0  0
 28 27  1  0  0  0  0
 30 29  1  0  0  0  0
 30 28  1  0  0  0  0
 31 30  2  0  0  0  0
 32 33  1  0  0  0  0
 33 35  1  0  0  0  0
 35 34  1  0  0  0  0
 37 36  1  0  0  0  0
 38 36  1  0  0  0  0
 39 38  1  0  0  0  0
 40 39  1  0  0  0  0
 41 40  1  0  0  0  0
 42 41  1  0  0  0  0
 43 44  1  0  0  0  0
 43 42  1  0  0  0  0
 44 49  1  0  0  0  0
 45 60  1  1  0  0  0
 46 47  1  0  0  0  0
 46 50  1  0  0  0  0
 47 49  2  0  0  0  0
 48 45  1  0  0  0  0
 49 45  1  0  0  0  0
 50 48  1  0  0  0  0
 51 52  1  0  0  0  0
 52 62  2  0  0  0  0
 52 58  1  0  0  0  0
 54 53  1  0  0  0  0
 55 62  1  0  0  0  0
 56 54  1  0  0  0  0
 57 55  1  0  0  0  0
 58 59  1  1  0  0  0
 58 53  1  0  0  0  0
 60 51  2  0  0  0  0
 60 55  1  0  0  0  0
 61 51  1  0  0  0  0
 62 56  1  0  0  0  0
M  END
>  <MODEL>
6

>  <REMARK>
 VINA RESULT:      -5.7      1.432      2.272
  Name = 
  21 active torsions:
  status: ('A' for Active; 'I' for Inactive)
    1  A    between atoms: C_1  and  N_19
    2  A    between atoms: C_1  and  C_21
    3  A    between atoms: C_5  and  O_26
    4  A    between atoms: C_7  and  C_13
    5  A    between atoms: C_11  and  O_29
    6  A    between atoms: C_11  and  C_46
    7  A    between atoms: C_12  and  C_51
    8  A    between atoms: C_13  and  C_41
    9  A    between atoms: C_13  and  O_47
   10  A    between atoms: C_16  and  O_53
   11  A    between atoms: C_17  and  C_38
   12  A    between atoms: C_17  and  O_47
   13  A    between atoms: N_19  and  C_35
   14  A    between atoms: N_20  and  C_21
   15  A    between atoms: N_20  and  C_23
   16  A    between atoms: C_23  and  C_28
   17  A    between atoms: C_23  and  C_44
   18  A    between atoms: O_29  and  C_43
   19  A    between atoms: C_35  and  C_46
   20  A    between atoms: O_37  and  C_62
   21  A    between atoms: C_41  and  C_62
                            x       y       z     vdW  Elec       q    Type
                         _______ _______ _______ _____ _____    ______ ____

>  <TORSDO>
F 21

$$$$
=
 OpenBabel11042414193D

 62 67  0  0  1  0  0  0  0  0999 V2000
  190.1740  176.0430  142.9020 C   0  0  2  0  0  3  0  0  0  0  0  0
  187.2370  177.1900  145.0550 C   0  0  0  0  0  0  0  0  0  0  0  0
  186.6280  176.7250  147.3520 C   0  0  0  0  0  3  0  0  0  0  0  0
  189.5270  175.6050  145.3390 C   0  0  0  0  0  3  0  0  0  0  0  0
  185.5270  177.5130  147.2020 N   0  0  0  0  0  0  0  0  0  0  0  0
  186.0990  177.9900  144.9260 C   0  0  0  0  0  3  0  0  0  0  0  0
  184.0330  178.9910  145.9140 C   0  0  0  0  0  1  0  0  0  0  0  0
  188.6570  175.7630  146.4250 C   0  0  0  0  0  3  0  0  0  0  0  0
  189.2640  176.2340  144.1070 C   0  0  0  0  0  0  0  0  0  0  0  0
  188.1010  177.0170  143.9770 C   0  0  0  0  0  3  0  0  0  0  0  0
  187.5140  176.5540  146.2840 C   0  0  0  0  0  0  0  0  0  0  0  0
  185.2480  178.1430  146.0270 C   0  0  0  0  0  0  0  0  0  0  0  0
  192.1380  173.1880  139.5120 N   0  0  0  0  0  2  0  0  0  0  0  0
  190.6610  172.0890  141.2590 C   0  0  0  0  0  0  0  0  0  0  0  0
  193.1650  172.2070  139.3380 C   0  0  0  0  0  0  0  0  0  0  0  0
  191.3520  173.2860  140.7050 C   0  0  0  0  0  0  0  0  0  0  0  0
  189.2910  173.6340  142.6360 C   0  0  2  0  0  3  0  0  0  0  0  0
  190.4990  174.5830  142.5510 C   0  0  1  0  0  3  0  0  0  0  0  0
  189.7250  172.2550  142.2050 C   0  0  0  0  0  3  0  0  0  0  0  0
  191.1980  174.4490  141.2700 N   0  0  0  0  0  0  0  0  0  0  0  0
  193.6790  171.6480  140.3500 O   0  0  0  0  0  0  0  0  0  0  0  0
  188.2620  174.0720  141.7960 O   0  0  0  0  0  0  0  0  0  0  0  0
  187.4020  172.9790  141.6760 C   0  0  0  0  0  1  0  0  0  0  0  0
  190.9780  170.8150  140.7690 O   0  0  0  0  0  0  0  0  0  0  0  0
  191.3660  169.7360  141.6070 C   0  0  0  0  0  1  0  0  0  0  0  0
  193.6030  171.8130  137.9580 C   0  0  1  0  0  3  0  0  0  0  0  0
  194.6900  172.6010  137.5610 O   0  0  0  0  0  0  0  0  0  0  0  0
  194.1770  173.5530  136.6660 C   0  0  0  0  0  2  0  0  0  0  0  0
  196.5040  173.7250  135.7500 O   0  0  0  0  0  1  0  0  0  0  0  0
  195.2870  174.3330  136.0360 C   0  0  0  0  0  0  0  0  0  0  0  0
  195.1070  175.5440  135.7350 O   0  0  0  0  0  0  0  0  0  0  0  0
  194.0080  170.3390  137.9720 C   0  0  0  0  0  2  0  0  0  0  0  0
  192.8060  169.4470  137.7210 C   0  0  0  0  0  2  0  0  0  0  0  0
  190.6000  169.5510  137.5910 C   0  0  0  0  0  1  0  0  0  0  0  0
  191.7670  170.2020  137.1800 O   0  0  0  0  0  0  0  0  0  0  0  0
  191.3640  176.9130  142.8570 N   0  0  0  0  0  0  0  0  0  0  0  0
  192.5670  176.1530  142.5240 C   0  0  0  0  0  1  0  0  0  0  0  0
  191.5390  177.5120  144.1730 C   0  0  0  0  0  2  0  0  0  0  0  0
  192.8910  177.1130  144.7690 C   0  0  0  0  0  2  0  0  0  0  0  0
  192.7160  176.7390  146.1670 N   0  0  0  0  0  2  0  0  0  0  0  0
  193.3420  175.4370  146.3940 C   0  0  0  0  0  2  0  0  0  0  0  0
  193.0560  174.4540  145.2590 C   0  0  0  0  0  2  0  0  0  0  0  0
  192.6720  173.0880  145.7880 C   0  0  0  0  0  2  0  0  0  0  0  0
  193.3060  172.0860  145.0090 O   0  0  0  0  0  0  0  0  0  0  0  0
  195.7600  172.4430  145.3590 C   0  0  2  0  0  3  0  0  0  0  0  0
  195.8360  169.6110  146.1640 C   0  0  0  0  0  2  0  0  0  0  0  0
  194.6330  170.2700  145.6480 N   0  0  0  0  0  0  0  0  0  0  0  0
  196.9070  171.8320  146.1710 C   0  0  0  0  0  2  0  0  0  0  0  0
  194.5430  171.5380  145.3480 C   0  0  0  0  0  0  0  0  0  0  0  0
  197.0970  170.3760  145.7930 C   0  0  0  0  0  2  0  0  0  0  0  0
  196.4910  174.1740  143.5890 C   0  0  0  0  0  0  0  0  0  0  0  0
  196.8270  174.1570  142.2500 C   0  0  0  0  0  0  0  0  0  0  0  0
  197.3200  174.8270  139.9020 C   0  0  0  0  0  2  0  0  0  0  0  0
  197.9010  173.4160  139.7180 C   0  0  0  0  0  2  0  0  0  0  0  0
  196.3360  172.0720  142.8750 N   0  0  0  0  0  0  0  0  0  0  0  0
  197.0620  172.3730  140.4670 C   0  0  0  0  0  2  0  0  0  0  0  0
  196.2500  170.6990  142.8230 O   0  0  0  0  0  1  0  0  0  0  0  0
  197.3560  175.2580  141.3700 C   0  0  1  0  0  3  0  0  0  0  0  0
  196.5520  176.5300  141.5290 C   0  0  0  0  0  1  0  0  0  0  0  0
  196.1590  172.8760  143.9580 C   0  0  0  0  0  0  0  0  0  0  0  0
  196.5150  175.2920  144.4200 O   0  0  0  0  0  1  0  0  0  0  0  0
  196.7630  172.8400  141.8580 C   0  0  0  0  0  0  0  0  0  0  0  0
  1 36  1  1  0  0  0
  1  9  1  0  0  0  0
  2 11  1  0  0  0  0
  4  8  2  0  0  0  0
  5  3  1  0  0  0  0
  6  2  2  0  0  0  0
  6 12  1  0  0  0  0
  7 12  1  0  0  0  0
  9  4  1  0  0  0  0
 10  9  2  0  0  0  0
 10  2  1  0  0  0  0
 11  8  1  0  0  0  0
 11  3  2  0  0  0  0
 12  5  2  0  0  0  0
 13 16  1  0  0  0  0
 14 19  2  0  0  0  0
 15 13  1  0  0  0  0
 15 21  2  0  0  0  0
 16 14  1  0  0  0  0
 16 20  2  0  0  0  0
 17 22  1  6  0  0  0
 18 17  1  0  0  0  0
 18  1  1  6  0  0  0
 19 17  1  0  0  0  0
 20 18  1  0  0  0  0
 23 22  1  0  0  0  0
 24 14  1  0  0  0  0
 24 25  1  0  0  0  0
 26 32  1  1  0  0  0
 26 15  1  0  0  0  0
 27 26  1  0  0  0  0
 28 27  1  0  0  0  0
 29 30  1  0  0  0  0
 30 28  1  0  0  0  0
 31 30  2  0  0  0  0
 33 32  1  0  0  0  0
 35 34  1  0  0  0  0
 35 33  1  0  0  0  0
 36 38  1  0  0  0  0
 37 36  1  0  0  0  0
 38 39  1  0  0  0  0
 39 40  1  0  0  0  0
 40 41  1  0  0  0  0
 42 43  1  0  0  0  0
 42 41  1  0  0  0  0
 44 49  1  0  0  0  0
 44 43  1  0  0  0  0
 45 60  1  6  0  0  0
 45 48  1  0  0  0  0
 47 46  1  0  0  0  0
 49 45  1  0  0  0  0
 49 47  2  0  0  0  0
 50 46  1  0  0  0  0
 50 48  1  0  0  0  0
 51 60  2  0  0  0  0
 51 61  1  0  0  0  0
 52 51  1  0  0  0  0
 53 58  1  0  0  0  0
 54 53  1  0  0  0  0
 54 56  1  0  0  0  0
 55 60  1  0  0  0  0
 56 62  1  0  0  0  0
 57 55  1  0  0  0  0
 58 59  1  6  0  0  0
 58 52  1  0  0  0  0
 62 52  2  0  0  0  0
 62 55  1  0  0  0  0
M  END
>  <MODEL>
7

>  <REMARK>
 VINA RESULT:      -5.6      2.617      9.242
  Name = 
  21 active torsions:
  status: ('A' for Active; 'I' for Inactive)
    1  A    between atoms: C_1  and  N_19
    2  A    between atoms: C_1  and  C_21
    3  A    between atoms: C_5  and  O_26
    4  A    between atoms: C_7  and  C_13
    5  A    between atoms: C_11  and  O_29
    6  A    between atoms: C_11  and  C_46
    7  A    between atoms: C_12  and  C_51
    8  A    between atoms: C_13  and  C_41
    9  A    between atoms: C_13  and  O_47
   10  A    between atoms: C_16  and  O_53
   11  A    between atoms: C_17  and  C_38
   12  A    between atoms: C_17  and  O_47
   13  A    between atoms: N_19  and  C_35
   14  A    between atoms: N_20  and  C_21
   15  A    between atoms: N_20  and  C_23
   16  A    between atoms: C_23  and  C_28
   17  A    between atoms: C_23  and  C_44
   18  A    between atoms: O_29  and  C_43
   19  A    between atoms: C_35  and  C_46
   20  A    between atoms: O_37  and  C_62
   21  A    between atoms: C_41  and  C_62
                            x       y       z     vdW  Elec       q    Type
                         _______ _______ _______ _____ _____    ______ ____

>  <TORSDO>
F 21

$$$$
=
 OpenBabel11042414193D

 62 67  0  0  1  0  0  0  0  0999 V2000
  191.1510  174.9330  143.5930 C   0  0  2  0  0  3  0  0  0  0  0  0
  187.9550  176.6950  144.7150 C   0  0  0  0  0  0  0  0  0  0  0  0
  186.6970  178.5340  143.7690 C   0  0  0  0  0  3  0  0  0  0  0  0
  189.7750  176.8460  142.5930 C   0  0  0  0  0  3  0  0  0  0  0  0
  185.8110  178.4360  144.7990 N   0  0  0  0  0  0  0  0  0  0  0  0
  187.0340  176.6170  145.7630 C   0  0  0  0  0  3  0  0  0  0  0  0
  184.9600  177.4410  146.8880 C   0  0  0  0  0  1  0  0  0  0  0  0
  188.6930  177.7330  142.6400 C   0  0  0  0  0  3  0  0  0  0  0  0
  189.9590  175.8790  143.6010 C   0  0  0  0  0  0  0  0  0  0  0  0
  189.0420  175.8250  144.6670 C   0  0  0  0  0  3  0  0  0  0  0  0
  187.7840  177.6580  143.6990 C   0  0  0  0  0  0  0  0  0  0  0  0
  185.9540  177.5060  145.7840 C   0  0  0  0  0  0  0  0  0  0  0  0
  191.5810  173.8470  138.8880 N   0  0  0  0  0  2  0  0  0  0  0  0
  190.3840  172.1720  140.3740 C   0  0  0  0  0  0  0  0  0  0  0  0
  192.3050  172.9860  138.0030 C   0  0  0  0  0  0  0  0  0  0  0  0
  191.1510  173.4350  140.1900 C   0  0  0  0  0  0  0  0  0  0  0  0
  189.7480  172.9950  142.6270 C   0  0  2  0  0  3  0  0  0  0  0  0
  191.0690  173.7840  142.5760 C   0  0  1  0  0  3  0  0  0  0  0  0
  189.7650  171.9470  141.5420 C   0  0  0  0  0  3  0  0  0  0  0  0
  191.3860  174.2110  141.2100 N   0  0  0  0  0  0  0  0  0  0  0  0
  192.9240  171.9850  138.4660 O   0  0  0  0  0  0  0  0  0  0  0  0
  188.6590  173.8470  142.4210 O   0  0  0  0  0  0  0  0  0  0  0  0
  187.5970  173.0040  142.0890 C   0  0  0  0  0  1  0  0  0  0  0  0
  190.2980  171.2530  139.3190 O   0  0  0  0  0  0  0  0  0  0  0  0
  190.4240  169.8500  139.5010 C   0  0  0  0  0  1  0  0  0  0  0  0
  192.2970  173.2480  136.5260 C   0  0  1  0  0  3  0  0  0  0  0  0
  190.9790  173.2680  136.0530 O   0  0  0  0  0  0  0  0  0  0  0  0
  190.7160  174.5970  135.6850 C   0  0  0  0  0  2  0  0  0  0  0  0
  188.5880  175.3570  134.5980 O   0  0  0  0  0  0  0  0  0  0  0  0
  189.2460  174.8710  135.7230 C   0  0  0  0  0  0  0  0  0  0  0  0
  188.5930  174.6330  136.7740 O   0  0  0  0  0  1  0  0  0  0  0  0
  192.9640  174.5980  136.2620 C   0  0  0  0  0  2  0  0  0  0  0  0
  194.4300  174.4170  135.9130 C   0  0  0  0  0  2  0  0  0  0  0  0
  195.9600  173.1320  134.9640 C   0  0  0  0  0  1  0  0  0  0  0  0
  194.6380  173.1310  135.4170 O   0  0  0  0  0  0  0  0  0  0  0  0
  191.6160  174.4820  144.9180 N   0  0  0  0  0  0  0  0  0  0  0  0
  192.2690  175.5650  145.6500 C   0  0  0  0  0  1  0  0  0  0  0  0
  192.5790  173.4070  144.7200 C   0  0  0  0  0  2  0  0  0  0  0  0
  193.9260  173.7690  145.3490 C   0  0  0  0  0  2  0  0  0  0  0  0
  194.6780  172.5520  145.6250 N   0  0  0  0  0  2  0  0  0  0  0  0
  193.9260  171.4030  145.1230 C   0  0  0  0  0  2  0  0  0  0  0  0
  194.4500  170.0810  145.6860 C   0  0  0  0  0  2  0  0  0  0  0  0
  194.6120  169.0390  144.5990 C   0  0  0  0  0  2  0  0  0  0  0  0
  194.4870  169.6590  143.3290 O   0  0  0  0  0  0  0  0  0  0  0  0
  196.7700  170.3840  142.6020 C   0  0  2  0  0  3  0  0  0  0  0  0
  196.3440  168.6390  140.2680 C   0  0  0  0  0  2  0  0  0  0  0  0
  195.3160  168.8970  141.2800 N   0  0  0  0  0  0  0  0  0  0  0  0
  197.9120  169.8740  141.7170 C   0  0  0  0  0  2  0  0  0  0  0  0
  195.4900  169.6070  142.3620 C   0  0  0  0  0  0  0  0  0  0  0  0
  197.4300  169.7040  140.2890 C   0  0  0  0  0  2  0  0  0  0  0  0
  195.6600  172.5110  141.6480 C   0  0  0  0  0  0  0  0  0  0  0  0
  195.7180  173.8690  141.8950 C   0  0  0  0  0  0  0  0  0  0  0  0
  195.5180  176.3440  141.6960 C   0  0  0  0  0  2  0  0  0  0  0  0
  195.8650  176.4000  143.1920 C   0  0  0  0  0  2  0  0  0  0  0  0
  197.1020  172.8390  143.3100 N   0  0  0  0  0  0  0  0  0  0  0  0
  196.9300  175.3550  143.5490 C   0  0  0  0  0  2  0  0  0  0  0  0
  197.9340  172.6550  144.3910 O   0  0  0  0  0  1  0  0  0  0  0  0
  194.9020  174.9940  141.3170 C   0  0  1  0  0  3  0  0  0  0  0  0
  194.8150  174.9000  139.8100 C   0  0  0  0  0  1  0  0  0  0  0  0
  196.5470  171.8850  142.5160 C   0  0  0  0  0  0  0  0  0  0  0  0
  194.8310  171.8880  140.7180 O   0  0  0  0  0  1  0  0  0  0  0  0
  196.5830  174.0260  142.9520 C   0  0  0  0  0  0  0  0  0  0  0  0
  1  9  1  0  0  0  0
  1 36  1  1  0  0  0
  2  6  2  0  0  0  0
  3  5  1  0  0  0  0
  4  8  2  0  0  0  0
  4  9  1  0  0  0  0
  5 12  2  0  0  0  0
  6 12  1  0  0  0  0
  8 11  1  0  0  0  0
  9 10  2  0  0  0  0
 10  2  1  0  0  0  0
 11  3  2  0  0  0  0
 11  2  1  0  0  0  0
 12  7  1  0  0  0  0
 13 16  1  0  0  0  0
 14 19  2  0  0  0  0
 15 21  2  0  0  0  0
 15 13  1  0  0  0  0
 16 14  1  0  0  0  0
 16 20  2  0  0  0  0
 17 22  1  6  0  0  0
 18 17  1  0  0  0  0
 18  1  1  1  0  0  0
 19 17  1  0  0  0  0
 20 18  1  0  0  0  0
 23 22  1  0  0  0  0
 24 25  1  0  0  0  0
 24 14  1  0  0  0  0
 26 32  1  1  0  0  0
 26 15  1  0  0  0  0
 27 26  1  0  0  0  0
 28 30  1  0  0  0  0
 28 27  1  0  0  0  0
 29 30  2  0  0  0  0
 30 31  1  0  0  0  0
 33 32  1  0  0  0  0
 34 35  1  0  0  0  0
 35 33  1  0  0  0  0
 36 37  1  0  0  0  0
 38 36  1  0  0  0  0
 38 39  1  0  0  0  0
 39 40  1  0  0  0  0
 41 40  1  0  0  0  0
 41 42  1  0  0  0  0
 43 42  1  0  0  0  0
 44 43  1  0  0  0  0
 45 60  1  6  0  0  0
 46 50  1  0  0  0  0
 46 47  1  0  0  0  0
 47 49  2  0  0  0  0
 48 45  1  0  0  0  0
 49 45  1  0  0  0  0
 49 44  1  0  0  0  0
 50 48  1  0  0  0  0
 51 52  1  0  0  0  0
 51 60  2  0  0  0  0
 52 62  2  0  0  0  0
 53 54  1  0  0  0  0
 54 56  1  0  0  0  0
 55 57  1  0  0  0  0
 58 59  1  6  0  0  0
 58 53  1  0  0  0  0
 58 52  1  0  0  0  0
 60 55  1  0  0  0  0
 61 51  1  0  0  0  0
 62 55  1  0  0  0  0
 62 56  1  0  0  0  0
M  END
>  <MODEL>
8

>  <REMARK>
 VINA RESULT:      -5.3      2.758      8.434
  Name = 
  21 active torsions:
  status: ('A' for Active; 'I' for Inactive)
    1  A    between atoms: C_1  and  N_19
    2  A    between atoms: C_1  and  C_21
    3  A    between atoms: C_5  and  O_26
    4  A    between atoms: C_7  and  C_13
    5  A    between atoms: C_11  and  O_29
    6  A    between atoms: C_11  and  C_46
    7  A    between atoms: C_12  and  C_51
    8  A    between atoms: C_13  and  C_41
    9  A    between atoms: C_13  and  O_47
   10  A    between atoms: C_16  and  O_53
   11  A    between atoms: C_17  and  C_38
   12  A    between atoms: C_17  and  O_47
   13  A    between atoms: N_19  and  C_35
   14  A    between atoms: N_20  and  C_21
   15  A    between atoms: N_20  and  C_23
   16  A    between atoms: C_23  and  C_28
   17  A    between atoms: C_23  and  C_44
   18  A    between atoms: O_29  and  C_43
   19  A    between atoms: C_35  and  C_46
   20  A    between atoms: O_37  and  C_62
   21  A    between atoms: C_41  and  C_62
                            x       y       z     vdW  Elec       q    Type
                         _______ _______ _______ _____ _____    ______ ____

>  <TORSDO>
F 21

$$$$
=
 OpenBabel11042414193D

 62 67  0  0  1  0  0  0  0  0999 V2000
  190.0740  174.0570  141.9650 C   0  0  2  0  0  3  0  0  0  0  0  0
  191.8030  173.3850  138.6280 C   0  0  0  0  0  0  0  0  0  0  0  0
  191.0440  172.3180  136.5910 C   0  0  0  0  0  3  0  0  0  0  0  0
  189.2870  172.9730  139.7840 C   0  0  0  0  0  3  0  0  0  0  0  0
  192.2680  172.5420  136.0380 N   0  0  0  0  0  0  0  0  0  0  0  0
  193.0510  173.5990  138.0380 C   0  0  0  0  0  3  0  0  0  0  0  0
  194.5840  173.3860  136.0750 C   0  0  0  0  0  1  0  0  0  0  0  0
  189.5250  172.5380  138.4750 C   0  0  0  0  0  3  0  0  0  0  0  0
  190.2980  173.6140  140.5260 C   0  0  0  0  0  0  0  0  0  0  0  0
  191.5610  173.8020  139.9340 C   0  0  0  0  0  3  0  0  0  0  0  0
  190.7810  172.7440  137.8970 C   0  0  0  0  0  0  0  0  0  0  0  0
  193.2640  173.1670  136.7240 C   0  0  0  0  0  0  0  0  0  0  0  0
  194.7160  174.1120  143.3630 N   0  0  0  0  0  2  0  0  0  0  0  0
  193.2620  172.2050  144.1970 C   0  0  0  0  0  0  0  0  0  0  0  0
  195.5330  174.3770  144.5070 C   0  0  0  0  0  0  0  0  0  0  0  0
  193.4310  173.4860  143.4560 C   0  0  0  0  0  0  0  0  0  0  0  0
  191.0730  171.9430  143.0570 C   0  0  2  0  0  3  0  0  0  0  0  0
  191.0650  173.4810  142.9890 C   0  0  1  0  0  3  0  0  0  0  0  0
  192.1270  171.5060  144.0430 C   0  0  0  0  0  3  0  0  0  0  0  0
  192.4190  174.0190  142.8330 N   0  0  0  0  0  0  0  0  0  0  0  0
  195.0090  174.4280  145.6570 O   0  0  0  0  0  0  0  0  0  0  0  0
  191.3650  171.3980  141.8040 O   0  0  0  0  0  0  0  0  0  0  0  0
  190.6980  170.1720  141.7780 C   0  0  0  0  0  1  0  0  0  0  0  0
  194.2960  171.7360  145.0180 O   0  0  0  0  0  0  0  0  0  0  0  0
  194.4410  170.3710  145.3810 C   0  0  0  0  0  1  0  0  0  0  0  0
  197.0150  174.5550  144.3480 C   0  0  1  0  0  3  0  0  0  0  0  0
  197.6680  173.3390  144.5840 O   0  0  0  0  0  0  0  0  0  0  0  0
  197.4460  172.5480  143.4450 C   0  0  0  0  0  2  0  0  0  0  0  0
  197.9410  170.6670  145.0260 O   0  0  0  0  0  1  0  0  0  0  0  0
  197.7990  171.1210  143.7200 C   0  0  0  0  0  0  0  0  0  0  0  0
  197.9410  170.3170  142.7600 O   0  0  0  0  0  0  0  0  0  0  0  0
  197.3030  175.0310  142.9240 C   0  0  0  0  0  2  0  0  0  0  0  0
  197.0590  176.5240  142.7950 C   0  0  0  0  0  2  0  0  0  0  0  0
  196.8400  175.7140  140.7490 C   0  0  0  0  0  1  0  0  0  0  0  0
  196.4830  176.7980  141.5550 O   0  0  0  0  0  0  0  0  0  0  0  0
  188.6780  174.0040  142.4390 N   0  0  0  0  0  0  0  0  0  0  0  0
  188.0740  172.7000  142.1710 C   0  0  0  0  0  1  0  0  0  0  0  0
  187.9190  175.0240  141.7290 C   0  0  0  0  0  2  0  0  0  0  0  0
  188.4220  176.4220  142.0940 C   0  0  0  0  0  2  0  0  0  0  0  0
  188.2510  177.3150  140.9550 N   0  0  0  0  0  2  0  0  0  0  0  0
  186.8280  177.6020  140.7840 C   0  0  0  0  0  2  0  0  0  0  0  0
  186.2170  178.2460  142.0290 C   0  0  0  0  0  2  0  0  0  0  0  0
  185.0920  177.4050  142.5960 C   0  0  0  0  0  2  0  0  0  0  0  0
  185.5020  176.8440  143.8330 O   0  0  0  0  0  0  0  0  0  0  0  0
  186.6570  178.3890  145.4290 C   0  0  2  0  0  3  0  0  0  0  0  0
  184.1620  178.2930  146.9900 C   0  0  0  0  0  2  0  0  0  0  0  0
  184.3940  177.4840  145.7900 N   0  0  0  0  0  0  0  0  0  0  0  0
  186.2920  179.4320  146.4900 C   0  0  0  0  0  2  0  0  0  0  0  0
  185.4560  177.5510  145.0340 C   0  0  0  0  0  0  0  0  0  0  0  0
  185.4670  178.7910  147.5900 C   0  0  0  0  0  2  0  0  0  0  0  0
  189.1490  177.7200  145.3360 C   0  0  0  0  0  0  0  0  0  0  0  0
  189.9530  176.7620  145.9230 C   0  0  0  0  0  0  0  0  0  0  0  0
  191.8360  175.2180  146.4470 C   0  0  0  0  0  2  0  0  0  0  0  0
  191.1430  174.9790  147.7980 C   0  0  0  0  0  2  0  0  0  0  0  0
  187.8740  176.5000  146.6910 N   0  0  0  0  0  0  0  0  0  0  0  0
  189.6190  174.9230  147.6320 C   0  0  0  0  0  2  0  0  0  0  0  0
  186.8430  176.0550  147.4870 O   0  0  0  0  0  1  0  0  0  0  0  0
  191.4440  176.5740  145.8530 C   0  0  1  0  0  3  0  0  0  0  0  0
  191.9470  176.6480  144.4280 C   0  0  0  0  0  1  0  0  0  0  0  0
  187.8530  177.5270  145.8000 C   0  0  0  0  0  0  0  0  0  0  0  0
  189.5780  178.7170  144.4630 O   0  0  0  0  0  1  0  0  0  0  0  0
  189.1410  176.0600  146.7830 C   0  0  0  0  0  0  0  0  0  0  0  0
  1 36  1  1  0  0  0
  2 10  1  0  0  0  0
  3 11  1  0  0  0  0
  4  9  1  0  0  0  0
  5  3  2  0  0  0  0
  5 12  1  0  0  0  0
  6  2  1  0  0  0  0
  7 12  1  0  0  0  0
  8  4  2  0  0  0  0
  9  1  1  0  0  0  0
 10  9  2  0  0  0  0
 11  8  1  0  0  0  0
 11  2  2  0  0  0  0
 12  6  2  0  0  0  0
 13 16  1  0  0  0  0
 13 15  1  0  0  0  0
 14 24  1  0  0  0  0
 15 21  2  0  0  0  0
 16 14  1  0  0  0  0
 17 22  1  6  0  0  0
 17 19  1  0  0  0  0
 18  1  1  6  0  0  0
 18 17  1  0  0  0  0
 19 14  2  0  0  0  0
 20 18  1  0  0  0  0
 20 16  2  0  0  0  0
 23 22  1  0  0  0  0
 24 25  1  0  0  0  0
 26 32  1  6  0  0  0
 26 15  1  0  0  0  0
 26 27  1  0  0  0  0
 28 30  1  0  0  0  0
 28 27  1  0  0  0  0
 30 29  1  0  0  0  0
 31 30  2  0  0  0  0
 33 32  1  0  0  0  0
 34 35  1  0  0  0  0
 35 33  1  0  0  0  0
 37 36  1  0  0  0  0
 38 39  1  0  0  0  0
 38 36  1  0  0  0  0
 40 39  1  0  0  0  0
 41 40  1  0  0  0  0
 41 42  1  0  0  0  0
 42 43  1  0  0  0  0
 43 44  1  0  0  0  0
 44 49  1  0  0  0  0
 45 60  1  1  0  0  0
 45 48  1  0  0  0  0
 46 50  1  0  0  0  0
 47 46  1  0  0  0  0
 48 50  1  0  0  0  0
 49 45  1  0  0  0  0
 49 47  2  0  0  0  0
 51 60  2  0  0  0  0
 51 52  1  0  0  0  0
 52 62  2  0  0  0  0
 53 54  1  0  0  0  0
 55 62  1  0  0  0  0
 55 57  1  0  0  0  0
 56 54  1  0  0  0  0
 58 59  1  6  0  0  0
 58 52  1  0  0  0  0
 58 53  1  0  0  0  0
 60 55  1  0  0  0  0
 61 51  1  0  0  0  0
 62 56  1  0  0  0  0
M  END
>  <MODEL>
9

>  <REMARK>
 VINA RESULT:      -5.3      2.654      9.423
  Name = 
  21 active torsions:
  status: ('A' for Active; 'I' for Inactive)
    1  A    between atoms: C_1  and  N_19
    2  A    between atoms: C_1  and  C_21
    3  A    between atoms: C_5  and  O_26
    4  A    between atoms: C_7  and  C_13
    5  A    between atoms: C_11  and  O_29
    6  A    between atoms: C_11  and  C_46
    7  A    between atoms: C_12  and  C_51
    8  A    between atoms: C_13  and  C_41
    9  A    between atoms: C_13  and  O_47
   10  A    between atoms: C_16  and  O_53
   11  A    between atoms: C_17  and  C_38
   12  A    between atoms: C_17  and  O_47
   13  A    between atoms: N_19  and  C_35
   14  A    between atoms: N_20  and  C_21
   15  A    between atoms: N_20  and  C_23
   16  A    between atoms: C_23  and  C_28
   17  A    between atoms: C_23  and  C_44
   18  A    between atoms: O_29  and  C_43
   19  A    between atoms: C_35  and  C_46
   20  A    between atoms: O_37  and  C_62
   21  A    between atoms: C_41  and  C_62
                            x       y       z     vdW  Elec       q    Type
                         _______ _______ _______ _____ _____    ______ ____

>  <TORSDO>
F 21

$$$$
