=
 OpenBabel11042414013D

 31 35  0  0  1  0  0  0  0  0999 V2000
  191.9000  175.2090  146.4770 C   0  0  2  0  0  3  0  0  0  0  0  0
  190.9940  177.8740  148.9500 C   0  0  0  0  0  1  0  0  0  0  0  0
  188.4030  176.2310  144.6460 C   0  0  0  0  0  0  0  0  0  0  0  0
  190.4790  174.8730  144.5430 C   0  0  0  0  0  0  0  0  0  0  0  0
  191.5730  176.9070  147.9790 C   0  0  0  0  0  0  0  0  0  0  0  0
  188.8900  174.7030  142.6600 C   0  0  0  0  0  0  0  0  0  0  0  0
  190.7960  175.8280  147.2990 C   0  0  1  0  0  3  0  0  0  0  0  0
  193.0440  175.7930  146.8020 C   0  0  2  0  0  3  0  0  0  0  0  0
  187.9680  175.6660  143.3500 C   0  0  0  0  0  0  0  0  0  0  0  0
  188.6790  177.0300  146.7310 N   0  0  0  0  0  0  0  0  0  0  0  0
  186.8550  175.9600  142.8440 O   0  0  0  0  0  0  0  0  0  0  0  0
  187.8350  177.0160  145.6610 C   0  0  0  0  0  0  0  0  0  0  0  0
  191.6320  174.5700  145.1590 C   0  0  0  0  0  3  0  0  0  0  0  0
  192.8410  176.8460  147.7360 N   0  0  0  0  0  0  0  0  0  0  0  0
  189.5850  175.8370  145.1730 C   0  0  0  0  0  0  0  0  0  0  0  0
  190.0660  174.3340  143.2310 C   0  0  0  0  0  3  0  0  0  0  0  0
  194.3280  175.6180  146.0640 C   0  0  0  0  0  1  0  0  0  0  0  0
  189.7560  176.3320  146.3990 N   0  0  0  0  0  0  0  0  0  0  0  0
  184.0710  178.9930  145.6170 N   0  0  0  0  0  0  0  0  0  0  0  0
  185.5040  177.3250  146.5490 C   0  0  0  0  0  3  0  0  0  0  0  0
  184.2750  177.9870  146.5090 C   0  0  0  0  0  3  0  0  0  0  0  0
  186.2840  178.7390  144.7590 C   0  0  0  0  0  3  0  0  0  0  0  0
  185.0440  179.3780  144.7480 C   0  0  0  0  0  3  0  0  0  0  0  0
  186.5270  177.7050  145.6740 C   0  0  0  0  0  0  0  0  0  0  0  0
  188.4890  174.1540  141.3520 C   0  0  0  0  0  3  0  0  0  0  0  0
  189.2440  174.2440  140.2620 C   0  0  0  0  0  3  0  0  0  0  0  0
  188.6780  173.5510  138.7170 P   0  0  1  0  0  0  0  0  0  0  0  0
  187.8600  172.3090  138.9980 O   0  0  0  0  0  1  0  0  0  0  0  0
  187.7170  174.6920  137.9160 O   0  0  0  0  0  0  0  0  0  0  0  0
  191.1390  173.4760  138.5490 C   0  0  0  0  0  1  0  0  0  0  0  0
  190.0260  173.1540  137.7680 O   0  0  0  0  0  0  0  0  0  0  0  0
  1 13  1  6  0  0  0
  1  8  1  0  0  0  0
  1  7  1  0  0  0  0
  3 15  2  0  0  0  0
  3 12  1  0  0  0  0
  4 13  2  0  0  0  0
  4 15  1  0  0  0  0
  5  2  1  0  0  0  0
  6 16  2  0  0  0  0
  6  9  1  0  0  0  0
  7  5  1  6  0  0  0
  8 17  1  6  0  0  0
  8 14  1  0  0  0  0
  9  3  1  0  0  0  0
 11  9  2  0  0  0  0
 12 24  1  0  0  0  0
 12 10  2  0  0  0  0
 14  5  2  0  0  0  0
 15 18  1  0  0  0  0
 16  4  1  0  0  0  0
 18 10  1  0  0  0  0
 18  7  1  0  0  0  0
 19 21  1  0  0  0  0
 21 20  2  0  0  0  0
 22 24  2  0  0  0  0
 23 22  1  0  0  0  0
 23 19  2  0  0  0  0
 24 20  1  0  0  0  0
 25  6  1  0  0  0  0
 26 25  2  0  0  0  0
 27 29  2  6  0  0  0
 27 28  1  0  0  0  0
 27 26  1  0  0  0  0
 31 30  1  0  0  0  0
 31 27  1  0  0  0  0
M  END
>  <MODEL>
1

>  <REMARK>
 VINA RESULT:      -7.9      0.000      0.000
  Name = 
  4 active torsions:
  status: ('A' for Active; 'I' for Inactive)
    1  A    between atoms: P_3  and  C_17
    2  A    between atoms: P_3  and  O_31
    3  A    between atoms: C_8  and  C_14
    4  A    between atoms: C_20  and  C_29
                            x       y       z     vdW  Elec       q    Type
                         _______ _______ _______ _____ _____    ______ ____

>  <TORSDO>
F 4

$$$$
=
 OpenBabel11042414013D

 31 35  0  0  1  0  0  0  0  0999 V2000
  185.2590  178.4440  142.1170 C   0  0  2  0  0  3  0  0  0  0  0  0
  184.8910  179.3750  145.7280 C   0  0  0  0  0  1  0  0  0  0  0  0
  188.3380  176.1060  143.4120 C   0  0  0  0  0  0  0  0  0  0  0  0
  186.9030  176.7750  141.4990 C   0  0  0  0  0  0  0  0  0  0  0  0
  184.8000  178.9890  144.2940 C   0  0  0  0  0  0  0  0  0  0  0  0
  188.6390  175.0640  141.1000 C   0  0  0  0  0  0  0  0  0  0  0  0
  185.9770  178.8170  143.3910 C   0  0  1  0  0  3  0  0  0  0  0  0
  183.9540  178.5500  142.3230 C   0  0  2  0  0  3  0  0  0  0  0  0
  189.0800  175.1780  142.5310 C   0  0  0  0  0  0  0  0  0  0  0  0
  187.5770  177.6180  144.8920 N   0  0  0  0  0  0  0  0  0  0  0  0
  190.0630  174.5160  142.9510 O   0  0  0  0  0  0  0  0  0  0  0  0
  188.4800  176.6130  144.7120 C   0  0  0  0  0  0  0  0  0  0  0  0
  185.8750  177.5410  141.1050 C   0  0  0  0  0  3  0  0  0  0  0  0
  183.6690  178.8910  143.6740 N   0  0  0  0  0  0  0  0  0  0  0  0
  187.3250  176.8360  142.8940 C   0  0  0  0  0  0  0  0  0  0  0  0
  187.6170  175.8220  140.6250 C   0  0  0  0  0  3  0  0  0  0  0  0
  182.9030  178.0640  141.3850 C   0  0  0  0  0  1  0  0  0  0  0  0
  186.8600  177.7150  143.7820 N   0  0  0  0  0  0  0  0  0  0  0  0
  191.2470  175.4060  147.7050 N   0  0  0  0  0  0  0  0  0  0  0  0
  190.7360  176.7640  145.8090 C   0  0  0  0  0  3  0  0  0  0  0  0
  191.6270  176.3450  146.7980 C   0  0  0  0  0  3  0  0  0  0  0  0
  189.0880  175.2470  146.6990 C   0  0  0  0  0  3  0  0  0  0  0  0
  190.0050  174.8520  147.6740 C   0  0  0  0  0  3  0  0  0  0  0  0
  189.4480  176.2210  145.7580 C   0  0  0  0  0  0  0  0  0  0  0  0
  189.3460  174.1200  140.2150 C   0  0  0  0  0  3  0  0  0  0  0  0
  188.8080  173.6190  139.1080 C   0  0  0  0  0  3  0  0  0  0  0  0
  189.7370  172.4790  138.0950 P   0  0  1  0  0  0  0  0  0  0  0  0
  191.2160  172.7370  138.2840 O   0  0  0  0  0  0  0  0  0  0  0  0
  189.3730  170.8950  138.5660 O   0  0  0  0  0  1  0  0  0  0  0  0
  189.5430  174.0720  136.2200 C   0  0  0  0  0  1  0  0  0  0  0  0
  189.3100  172.7170  136.4710 O   0  0  0  0  0  0  0  0  0  0  0  0
  1 13  1  1  0  0  0
  1  8  1  0  0  0  0
  1  7  1  0  0  0  0
  3 12  1  0  0  0  0
  4 15  1  0  0  0  0
  5  2  1  0  0  0  0
  6  9  1  0  0  0  0
  7 18  1  0  0  0  0
  7  5  1  1  0  0  0
  8 17  1  1  0  0  0
  8 14  1  0  0  0  0
  9 11  2  0  0  0  0
  9  3  1  0  0  0  0
 12 10  2  0  0  0  0
 12 24  1  0  0  0  0
 13  4  2  0  0  0  0
 14  5  2  0  0  0  0
 15  3  2  0  0  0  0
 15 18  1  0  0  0  0
 16  6  2  0  0  0  0
 16  4  1  0  0  0  0
 18 10  1  0  0  0  0
 20 21  1  0  0  0  0
 21 19  2  0  0  0  0
 22 23  2  0  0  0  0
 23 19  1  0  0  0  0
 24 20  2  0  0  0  0
 24 22  1  0  0  0  0
 25  6  1  0  0  0  0
 26 25  2  0  0  0  0
 27 28  2  1  0  0  0
 27 29  1  0  0  0  0
 27 26  1  0  0  0  0
 30 31  1  0  0  0  0
 31 27  1  0  0  0  0
M  END
>  <MODEL>
2

>  <REMARK>
 VINA RESULT:      -7.5      2.064      5.819
  Name = 
  4 active torsions:
  status: ('A' for Active; 'I' for Inactive)
    1  A    between atoms: P_3  and  C_17
    2  A    between atoms: P_3  and  O_31
    3  A    between atoms: C_8  and  C_14
    4  A    between atoms: C_20  and  C_29
                            x       y       z     vdW  Elec       q    Type
                         _______ _______ _______ _____ _____    ______ ____

>  <TORSDO>
F 4

$$$$
=
 OpenBabel11042414013D

 31 35  0  0  1  0  0  0  0  0999 V2000
  189.2810  172.5600  141.1630 C   0  0  2  0  0  3  0  0  0  0  0  0
  192.9040  171.6440  141.4490 C   0  0  0  0  0  1  0  0  0  0  0  0
  190.2360  175.6290  143.6730 C   0  0  0  0  0  0  0  0  0  0  0  0
  188.4940  174.5770  142.2510 C   0  0  0  0  0  0  0  0  0  0  0  0
  191.4920  171.9630  141.1040 C   0  0  0  0  0  0  0  0  0  0  0  0
  187.9140  176.6620  143.4400 C   0  0  0  0  0  0  0  0  0  0  0  0
  190.4630  172.4080  142.0900 C   0  0  1  0  0  3  0  0  0  0  0  0
  189.6330  172.1320  139.9600 C   0  0  2  0  0  3  0  0  0  0  0  0
  189.2840  176.6950  144.0520 C   0  0  0  0  0  0  0  0  0  0  0  0
  191.7820  174.0050  143.4900 N   0  0  0  0  0  0  0  0  0  0  0  0
  189.5950  177.5930  144.8760 O   0  0  0  0  0  0  0  0  0  0  0  0
  191.5080  175.2010  144.0830 C   0  0  0  0  0  0  0  0  0  0  0  0
  188.2130  173.5670  141.4130 C   0  0  0  0  0  3  0  0  0  0  0  0
  191.0060  171.7590  139.9230 N   0  0  0  0  0  0  0  0  0  0  0  0
  189.8310  174.6550  142.8270 C   0  0  0  0  0  0  0  0  0  0  0  0
  187.5520  175.6600  142.5970 C   0  0  0  0  0  3  0  0  0  0  0  0
  188.8240  172.3160  138.7210 C   0  0  0  0  0  1  0  0  0  0  0  0
  190.7600  173.7060  142.7020 N   0  0  0  0  0  0  0  0  0  0  0  0
  194.1920  177.1280  146.7590 N   0  0  0  0  0  0  0  0  0  0  0  0
  192.1930  175.8700  146.4070 C   0  0  0  0  0  3  0  0  0  0  0  0
  193.0870  176.5170  147.2630 C   0  0  0  0  0  3  0  0  0  0  0  0
  193.5820  176.4960  144.5390 C   0  0  0  0  0  3  0  0  0  0  0  0
  194.4540  177.1320  145.4240 C   0  0  0  0  0  3  0  0  0  0  0  0
  192.4400  175.8480  145.0300 C   0  0  0  0  0  0  0  0  0  0  0  0
  186.9610  177.7350  143.7810 C   0  0  0  0  0  3  0  0  0  0  0  0
  185.7020  177.5040  144.1380 C   0  0  0  0  0  3  0  0  0  0  0  0
  184.6170  178.8660  144.5330 P   0  0  1  0  0  0  0  0  0  0  0  0
  185.3830  180.1660  144.4100 O   0  0  0  0  0  1  0  0  0  0  0  0
  183.3160  178.8710  143.4490 O   0  0  0  0  0  0  0  0  0  0  0  0
  185.1960  178.6660  146.9230 C   0  0  0  0  0  1  0  0  0  0  0  0
  184.0530  178.6750  146.1200 O   0  0  0  0  0  0  0  0  0  0  0  0
  1 13  1  6  0  0  0
  1  7  1  0  0  0  0
  3  9  1  0  0  0  0
  3 12  1  0  0  0  0
  4 16  1  0  0  0  0
  4 15  1  0  0  0  0
  5  2  1  0  0  0  0
  6 25  1  0  0  0  0
  6  9  1  0  0  0  0
  7  5  1  6  0  0  0
  7 18  1  0  0  0  0
  8 17  1  6  0  0  0
  8  1  1  0  0  0  0
  9 11  2  0  0  0  0
 10 12  2  0  0  0  0
 12 24  1  0  0  0  0
 13  4  2  0  0  0  0
 14  8  1  0  0  0  0
 14  5  2  0  0  0  0
 15  3  2  0  0  0  0
 16  6  2  0  0  0  0
 18 15  1  0  0  0  0
 18 10  1  0  0  0  0
 19 21  1  0  0  0  0
 20 21  2  0  0  0  0
 22 24  2  0  0  0  0
 22 23  1  0  0  0  0
 23 19  2  0  0  0  0
 24 20  1  0  0  0  0
 25 26  2  0  0  0  0
 26 27  1  0  0  0  0
 27 29  2  6  0  0  0
 27 31  1  0  0  0  0
 28 27  1  0  0  0  0
 31 30  1  0  0  0  0
M  END
>  <MODEL>
3

>  <REMARK>
 VINA RESULT:      -7.4      3.911      7.305
  Name = 
  4 active torsions:
  status: ('A' for Active; 'I' for Inactive)
    1  A    between atoms: P_3  and  C_17
    2  A    between atoms: P_3  and  O_31
    3  A    between atoms: C_8  and  C_14
    4  A    between atoms: C_20  and  C_29
                            x       y       z     vdW  Elec       q    Type
                         _______ _______ _______ _____ _____    ______ ____

>  <TORSDO>
F 4

$$$$
=
 OpenBabel11042414013D

 31 35  0  0  1  0  0  0  0  0999 V2000
  185.8030  178.1570  141.3300 C   0  0  2  0  0  3  0  0  0  0  0  0
  185.0970  179.3650  144.8060 C   0  0  0  0  0  1  0  0  0  0  0  0
  188.6430  175.8330  143.1070 C   0  0  0  0  0  0  0  0  0  0  0  0
  187.4390  176.3990  141.0100 C   0  0  0  0  0  0  0  0  0  0  0  0
  185.1410  178.8760  143.4020 C   0  0  0  0  0  0  0  0  0  0  0  0
  189.1430  174.6140  140.9200 C   0  0  0  0  0  0  0  0  0  0  0  0
  186.3980  178.6030  142.6430 C   0  0  1  0  0  3  0  0  0  0  0  0
  184.4890  178.3160  141.3890 C   0  0  2  0  0  3  0  0  0  0  0  0
  189.4370  174.8200  142.3780 C   0  0  0  0  0  0  0  0  0  0  0  0
  187.7880  177.4730  144.3870 N   0  0  0  0  0  0  0  0  0  0  0  0
  190.3470  174.1630  142.9460 O   0  0  0  0  0  0  0  0  0  0  0  0
  188.6670  176.4310  144.3750 C   0  0  0  0  0  0  0  0  0  0  0  0
  186.4870  177.1640  140.4560 C   0  0  0  0  0  3  0  0  0  0  0  0
  184.0780  178.7650  142.6740 N   0  0  0  0  0  0  0  0  0  0  0  0
  187.7160  176.5510  142.4340 C   0  0  0  0  0  0  0  0  0  0  0  0
  188.2050  175.3630  140.2860 C   0  0  0  0  0  3  0  0  0  0  0  0
  183.5230  177.7920  140.3810 C   0  0  0  0  0  1  0  0  0  0  0  0
  187.1940  177.5080  143.2030 N   0  0  0  0  0  0  0  0  0  0  0  0
  191.0970  175.5290  147.7460 N   0  0  0  0  0  0  0  0  0  0  0  0
  189.0690  175.1990  146.5290 C   0  0  0  0  0  3  0  0  0  0  0  0
  189.8840  174.9260  147.6290 C   0  0  0  0  0  3  0  0  0  0  0  0
  190.7570  176.7050  145.6960 C   0  0  0  0  0  3  0  0  0  0  0  0
  191.5450  176.4070  146.8090 C   0  0  0  0  0  3  0  0  0  0  0  0
  189.5070  176.0900  145.5430 C   0  0  0  0  0  0  0  0  0  0  0  0
  189.9030  173.5860  140.1840 C   0  0  0  0  0  3  0  0  0  0  0  0
  189.6360  172.2860  140.2670 C   0  0  0  0  0  3  0  0  0  0  0  0
  190.6100  171.1100  139.3400 P   0  0  1  0  0  0  0  0  0  0  0  0
  189.6850  170.1240  138.6600 O   0  0  0  0  0  1  0  0  0  0  0  0
  191.5140  171.9360  138.1730 O   0  0  0  0  0  0  0  0  0  0  0  0
  190.8100  169.7520  141.3910 C   0  0  0  0  0  1  0  0  0  0  0  0
  191.6430  170.2930  140.4080 O   0  0  0  0  0  0  0  0  0  0  0  0
  1 13  1  1  0  0  0
  1  8  1  0  0  0  0
  1  7  1  0  0  0  0
  3 12  1  0  0  0  0
  4 15  1  0  0  0  0
  5  2  1  0  0  0  0
  6  9  1  0  0  0  0
  7 18  1  0  0  0  0
  7  5  1  1  0  0  0
  8 17  1  1  0  0  0
  8 14  1  0  0  0  0
  9 11  2  0  0  0  0
  9  3  1  0  0  0  0
 12 10  2  0  0  0  0
 12 24  1  0  0  0  0
 13  4  2  0  0  0  0
 14  5  2  0  0  0  0
 15  3  2  0  0  0  0
 15 18  1  0  0  0  0
 16  6  2  0  0  0  0
 16  4  1  0  0  0  0
 18 10  1  0  0  0  0
 20 21  2  0  0  0  0
 21 19  1  0  0  0  0
 22 23  1  0  0  0  0
 23 19  2  0  0  0  0
 24 22  2  0  0  0  0
 24 20  1  0  0  0  0
 25 26  2  0  0  0  0
 25  6  1  0  0  0  0
 27 29  2  6  0  0  0
 27 26  1  0  0  0  0
 27 31  1  0  0  0  0
 28 27  1  0  0  0  0
 31 30  1  0  0  0  0
M  END
>  <MODEL>
4

>  <REMARK>
 VINA RESULT:      -7.1      2.571      5.879
  Name = 
  4 active torsions:
  status: ('A' for Active; 'I' for Inactive)
    1  A    between atoms: P_3  and  C_17
    2  A    between atoms: P_3  and  O_31
    3  A    between atoms: C_8  and  C_14
    4  A    between atoms: C_20  and  C_29
                            x       y       z     vdW  Elec       q    Type
                         _______ _______ _______ _____ _____    ______ ____

>  <TORSDO>
F 4

$$$$
=
 OpenBabel11042414013D

 31 35  0  0  1  0  0  0  0  0999 V2000
  186.3090  177.7560  146.5240 C   0  0  2  0  0  3  0  0  0  0  0  0
  183.6980  178.6640  143.9940 C   0  0  0  0  0  1  0  0  0  0  0  0
  188.4480  176.4500  143.3080 C   0  0  0  0  0  0  0  0  0  0  0  0
  188.4320  176.8800  145.7540 C   0  0  0  0  0  0  0  0  0  0  0  0
  184.6870  178.5150  145.0960 C   0  0  0  0  0  0  0  0  0  0  0  0
  190.5090  176.0010  144.7470 C   0  0  0  0  0  0  0  0  0  0  0  0
  185.5710  177.3260  145.2790 C   0  0  1  0  0  3  0  0  0  0  0  0
  185.7800  178.8930  146.9540 C   0  0  2  0  0  3  0  0  0  0  0  0
  189.8420  175.9640  143.4030 C   0  0  0  0  0  0  0  0  0  0  0  0
  186.2720  176.8680  142.9230 N   0  0  0  0  0  0  0  0  0  0  0  0
  190.4510  175.5130  142.3990 O   0  0  0  0  0  0  0  0  0  0  0  0
  187.4360  176.4670  142.3370 C   0  0  0  0  0  0  0  0  0  0  0  0
  187.7110  177.3320  146.7910 C   0  0  0  0  0  3  0  0  0  0  0  0
  184.7710  179.3630  146.0690 N   0  0  0  0  0  0  0  0  0  0  0  0
  187.8210  176.8720  144.4300 C   0  0  0  0  0  0  0  0  0  0  0  0
  189.8360  176.4300  145.8460 C   0  0  0  0  0  3  0  0  0  0  0  0
  186.3640  179.7500  148.0250 C   0  0  0  0  0  1  0  0  0  0  0  0
  186.5370  177.1410  144.1930 N   0  0  0  0  0  0  0  0  0  0  0  0
  187.6400  175.2920  138.2570 N   0  0  0  0  0  0  0  0  0  0  0  0
  186.9270  176.8620  139.9080 C   0  0  0  0  0  3  0  0  0  0  0  0
  187.0020  176.4500  138.5760 C   0  0  0  0  0  3  0  0  0  0  0  0
  188.1560  174.8920  140.5530 C   0  0  0  0  0  3  0  0  0  0  0  0
  188.2120  174.5100  139.2120 C   0  0  0  0  0  3  0  0  0  0  0  0
  187.5140  176.0850  140.9120 C   0  0  0  0  0  0  0  0  0  0  0  0
  191.9090  175.5520  144.8540 C   0  0  0  0  0  3  0  0  0  0  0  0
  192.9430  176.3870  144.8680 C   0  0  0  0  0  3  0  0  0  0  0  0
  194.6080  175.7540  145.0000 P   0  0  1  0  0  0  0  0  0  0  0  0
  194.9420  175.5320  146.4600 O   0  0  0  0  0  1  0  0  0  0  0  0
  194.7090  174.2850  144.1660 O   0  0  0  0  0  0  0  0  0  0  0  0
  196.3980  176.1830  143.3570 C   0  0  0  0  0  1  0  0  0  0  0  0
  195.6770  176.8840  144.3270 O   0  0  0  0  0  0  0  0  0  0  0  0
  1 13  1  6  0  0  0
  1  8  1  0  0  0  0
  2  5  1  0  0  0  0
  3  9  1  0  0  0  0
  3 15  2  0  0  0  0
  4 16  1  0  0  0  0
  4 13  2  0  0  0  0
  5 14  2  0  0  0  0
  6 25  1  0  0  0  0
  6 16  2  0  0  0  0
  7  5  1  6  0  0  0
  7  1  1  0  0  0  0
  8 17  1  6  0  0  0
  9  6  1  0  0  0  0
 10 18  1  0  0  0  0
 11  9  2  0  0  0  0
 12 10  2  0  0  0  0
 12  3  1  0  0  0  0
 14  8  1  0  0  0  0
 15  4  1  0  0  0  0
 18 15  1  0  0  0  0
 18  7  1  0  0  0  0
 19 21  2  0  0  0  0
 19 23  1  0  0  0  0
 20 24  2  0  0  0  0
 21 20  1  0  0  0  0
 22 24  1  0  0  0  0
 23 22  2  0  0  0  0
 24 12  1  0  0  0  0
 25 26  2  0  0  0  0
 26 27  1  0  0  0  0
 27 29  2  6  0  0  0
 27 28  1  0  0  0  0
 30 31  1  0  0  0  0
 31 27  1  0  0  0  0
M  END
>  <MODEL>
5

>  <REMARK>
 VINA RESULT:      -7.1      3.993      6.667
  Name = 
  4 active torsions:
  status: ('A' for Active; 'I' for Inactive)
    1  A    between atoms: P_3  and  C_17
    2  A    between atoms: P_3  and  O_31
    3  A    between atoms: C_8  and  C_14
    4  A    between atoms: C_20  and  C_29
                            x       y       z     vdW  Elec       q    Type
                         _______ _______ _______ _____ _____    ______ ____

>  <TORSDO>
F 4

$$$$
=
 OpenBabel11042414013D

 31 35  0  0  1  0  0  0  0  0999 V2000
  193.3080  176.7490  144.2910 C   0  0  2  0  0  3  0  0  0  0  0  0
  195.3540  174.0720  142.6520 C   0  0  0  0  0  1  0  0  0  0  0  0
  190.1580  175.0020  142.3810 C   0  0  0  0  0  0  0  0  0  0  0  0
  190.9020  176.7230  144.0080 C   0  0  0  0  0  0  0  0  0  0  0  0
  194.6700  175.0870  143.4970 C   0  0  0  0  0  0  0  0  0  0  0  0
  188.4790  176.5060  143.5800 C   0  0  0  0  0  0  0  0  0  0  0  0
  193.5610  175.9690  143.0250 C   0  0  1  0  0  3  0  0  0  0  0  0
  194.2250  176.4080  145.1850 C   0  0  2  0  0  3  0  0  0  0  0  0
  188.7530  175.4170  142.5840 C   0  0  0  0  0  0  0  0  0  0  0  0
  192.1970  174.3620  141.6790 N   0  0  0  0  0  0  0  0  0  0  0  0
  187.8120  174.8950  141.9320 O   0  0  0  0  0  0  0  0  0  0  0  0
  190.8600  174.1690  141.4970 C   0  0  0  0  0  0  0  0  0  0  0  0
  191.9550  177.2670  144.6360 C   0  0  0  0  0  3  0  0  0  0  0  0
  195.0720  175.3780  144.6910 N   0  0  0  0  0  0  0  0  0  0  0  0
  191.1370  175.6360  143.0660 C   0  0  0  0  0  0  0  0  0  0  0  0
  189.4970  177.1160  144.2410 C   0  0  0  0  0  3  0  0  0  0  0  0
  194.1910  176.7910  146.6260 C   0  0  0  0  0  1  0  0  0  0  0  0
  192.3440  175.2370  142.6640 N   0  0  0  0  0  0  0  0  0  0  0  0
  189.3480  171.5630  138.4970 N   0  0  0  0  0  0  0  0  0  0  0  0
  190.5680  171.8690  140.5270 C   0  0  0  0  0  3  0  0  0  0  0  0
  190.0660  171.0360  139.5250 C   0  0  0  0  0  3  0  0  0  0  0  0
  189.5920  173.7610  139.3970 C   0  0  0  0  0  3  0  0  0  0  0  0
  189.1050  172.8980  138.4140 C   0  0  0  0  0  3  0  0  0  0  0  0
  190.3250  173.2450  140.4740 C   0  0  0  0  0  0  0  0  0  0  0  0
  187.0820  176.9110  143.8190 C   0  0  0  0  0  3  0  0  0  0  0  0
  186.7020  178.1790  143.9390 C   0  0  0  0  0  3  0  0  0  0  0  0
  184.9850  178.5770  144.2300 P   0  0  1  0  0  0  0  0  0  0  0  0
  184.8230  180.0820  144.2630 O   0  0  0  0  0  1  0  0  0  0  0  0
  184.0460  177.9330  142.9780 O   0  0  0  0  0  0  0  0  0  0  0  0
  185.1710  178.6680  146.6890 C   0  0  0  0  0  1  0  0  0  0  0  0
  184.5140  177.9120  145.7160 O   0  0  0  0  0  0  0  0  0  0  0  0
  1 13  1  1  0  0  0
  1  8  1  0  0  0  0
  2  5  1  0  0  0  0
  3  9  1  0  0  0  0
  3 15  2  0  0  0  0
  4 16  1  0  0  0  0
  4 13  2  0  0  0  0
  5 14  2  0  0  0  0
  6 25  1  0  0  0  0
  6 16  2  0  0  0  0
  7  5  1  1  0  0  0
  7  1  1  0  0  0  0
  8 17  1  1  0  0  0
  9  6  1  0  0  0  0
 10 18  1  0  0  0  0
 11  9  2  0  0  0  0
 12 10  2  0  0  0  0
 12  3  1  0  0  0  0
 14  8  1  0  0  0  0
 15  4  1  0  0  0  0
 18  7  1  0  0  0  0
 18 15  1  0  0  0  0
 19 21  1  0  0  0  0
 21 20  2  0  0  0  0
 22 24  2  0  0  0  0
 23 19  2  0  0  0  0
 23 22  1  0  0  0  0
 24 20  1  0  0  0  0
 24 12  1  0  0  0  0
 25 26  2  0  0  0  0
 26 27  1  0  0  0  0
 27 29  2  6  0  0  0
 27 28  1  0  0  0  0
 27 31  1  0  0  0  0
 31 30  1  0  0  0  0
M  END
>  <MODEL>
6

>  <REMARK>
 VINA RESULT:      -7.1      3.491      6.729
  Name = 
  4 active torsions:
  status: ('A' for Active; 'I' for Inactive)
    1  A    between atoms: P_3  and  C_17
    2  A    between atoms: P_3  and  O_31
    3  A    between atoms: C_8  and  C_14
    4  A    between atoms: C_20  and  C_29
                            x       y       z     vdW  Elec       q    Type
                         _______ _______ _______ _____ _____    ______ ____

>  <TORSDO>
F 4

$$$$
=
 OpenBabel11042414013D

 31 35  0  0  1  0  0  0  0  0999 V2000
  189.3330  173.5430  139.8570 C   0  0  2  0  0  3  0  0  0  0  0  0
  192.9410  172.6660  139.3500 C   0  0  0  0  0  1  0  0  0  0  0  0
  190.6720  175.6160  143.1030 C   0  0  0  0  0  0  0  0  0  0  0  0
  188.7380  175.0620  141.6480 C   0  0  0  0  0  0  0  0  0  0  0  0
  191.5040  173.0510  139.3170 C   0  0  0  0  0  0  0  0  0  0  0  0
  188.3620  176.6150  143.5310 C   0  0  0  0  0  0  0  0  0  0  0  0
  190.6210  173.1170  140.5190 C   0  0  1  0  0  3  0  0  0  0  0  0
  189.5170  173.5500  138.5450 C   0  0  2  0  0  3  0  0  0  0  0  0
  189.8000  176.4720  143.9360 C   0  0  0  0  0  0  0  0  0  0  0  0
  192.1450  174.1830  142.1900 N   0  0  0  0  0  0  0  0  0  0  0  0
  190.2350  177.0500  144.9650 O   0  0  0  0  0  0  0  0  0  0  0  0
  191.9760  175.1060  143.1780 C   0  0  0  0  0  0  0  0  0  0  0  0
  188.3290  174.3840  140.5650 C   0  0  0  0  0  3  0  0  0  0  0  0
  190.8650  173.2420  138.2090 N   0  0  0  0  0  0  0  0  0  0  0  0
  190.1390  174.9730  142.0390 C   0  0  0  0  0  0  0  0  0  0  0  0
  187.8720  175.9450  142.4560 C   0  0  0  0  0  3  0  0  0  0  0  0
  188.5590  174.1190  137.5550 C   0  0  0  0  0  1  0  0  0  0  0  0
  191.0230  174.1420  141.4860 N   0  0  0  0  0  0  0  0  0  0  0  0
  195.0280  176.0870  145.9710 N   0  0  0  0  0  0  0  0  0  0  0  0
  192.9400  175.0300  145.4980 C   0  0  0  0  0  3  0  0  0  0  0  0
  193.9530  175.3710  146.3970 C   0  0  0  0  0  3  0  0  0  0  0  0
  194.1520  176.1650  143.7520 C   0  0  0  0  0  3  0  0  0  0  0  0
  195.1460  176.4880  144.6770 C   0  0  0  0  0  3  0  0  0  0  0  0
  193.0370  175.4200  144.1590 C   0  0  0  0  0  0  0  0  0  0  0  0
  187.4850  177.4910  144.3310 C   0  0  0  0  0  3  0  0  0  0  0  0
  186.7410  177.0490  145.3400 C   0  0  0  0  0  3  0  0  0  0  0  0
  185.7060  178.1820  146.2550 P   0  0  1  0  0  0  0  0  0  0  0  0
  184.3890  177.5070  146.5720 O   0  0  0  0  0  0  0  0  0  0  0  0
  186.4870  178.6060  147.6950 O   0  0  0  0  0  1  0  0  0  0  0  0
  184.3240  179.2610  144.5190 C   0  0  0  0  0  1  0  0  0  0  0  0
  185.4360  179.5620  145.3080 O   0  0  0  0  0  0  0  0  0  0  0  0
  1  7  1  0  0  0  0
  1 13  1  1  0  0  0
  3 12  1  0  0  0  0
  3  9  1  0  0  0  0
  4 15  1  0  0  0  0
  4 16  1  0  0  0  0
  5  2  1  0  0  0  0
  6  9  1  0  0  0  0
  6 25  1  0  0  0  0
  7  5  1  6  0  0  0
  7 18  1  0  0  0  0
  8 17  1  1  0  0  0
  8  1  1  0  0  0  0
  9 11  2  0  0  0  0
 10 12  2  0  0  0  0
 12 24  1  0  0  0  0
 13  4  2  0  0  0  0
 14  8  1  0  0  0  0
 14  5  2  0  0  0  0
 15  3  2  0  0  0  0
 16  6  2  0  0  0  0
 18 15  1  0  0  0  0
 18 10  1  0  0  0  0
 19 21  1  0  0  0  0
 20 21  2  0  0  0  0
 22 24  2  0  0  0  0
 22 23  1  0  0  0  0
 23 19  2  0  0  0  0
 24 20  1  0  0  0  0
 25 26  2  0  0  0  0
 26 27  1  0  0  0  0
 27 28  2  1  0  0  0
 27 29  1  0  0  0  0
 30 31  1  0  0  0  0
 31 27  1  0  0  0  0
M  END
>  <MODEL>
7

>  <REMARK>
 VINA RESULT:      -6.9      4.156      7.885
  Name = 
  4 active torsions:
  status: ('A' for Active; 'I' for Inactive)
    1  A    between atoms: P_3  and  C_17
    2  A    between atoms: P_3  and  O_31
    3  A    between atoms: C_8  and  C_14
    4  A    between atoms: C_20  and  C_29
                            x       y       z     vdW  Elec       q    Type
                         _______ _______ _______ _____ _____    ______ ____

>  <TORSDO>
F 4

$$$$
=
 OpenBabel11042414013D

 31 35  0  0  1  0  0  0  0  0999 V2000
  190.2300  174.9030  146.0180 C   0  0  2  0  0  3  0  0  0  0  0  0
  188.3320  177.8970  147.2340 C   0  0  0  0  0  1  0  0  0  0  0  0
  188.2990  175.5680  142.4890 C   0  0  0  0  0  0  0  0  0  0  0  0
  190.0240  174.2500  143.6950 C   0  0  0  0  0  0  0  0  0  0  0  0
  189.2720  176.8050  146.8640 C   0  0  0  0  0  0  0  0  0  0  0  0
  189.6600  173.7630  141.3010 C   0  0  0  0  0  0  0  0  0  0  0  0
  188.9020  175.6190  146.0340 C   0  0  1  0  0  3  0  0  0  0  0  0
  191.0660  175.5520  146.8160 C   0  0  2  0  0  3  0  0  0  0  0  0
  188.5780  174.8030  141.2540 C   0  0  0  0  0  0  0  0  0  0  0  0
  187.4860  176.6800  144.2670 N   0  0  0  0  0  0  0  0  0  0  0  0
  187.9210  174.9950  140.1990 O   0  0  0  0  0  0  0  0  0  0  0  0
  187.3340  176.4870  142.9260 C   0  0  0  0  0  0  0  0  0  0  0  0
  190.6570  174.0660  144.8630 C   0  0  0  0  0  3  0  0  0  0  0  0
  190.4710  176.7310  147.3430 N   0  0  0  0  0  0  0  0  0  0  0  0
  188.9970  175.2810  143.6120 C   0  0  0  0  0  0  0  0  0  0  0  0
  190.3310  173.5090  142.4540 C   0  0  0  0  0  3  0  0  0  0  0  0
  192.5320  175.2910  146.9050 C   0  0  0  0  0  1  0  0  0  0  0  0
  188.5280  175.9610  144.6590 N   0  0  0  0  0  0  0  0  0  0  0  0
  184.2440  178.4320  140.7480 N   0  0  0  0  0  0  0  0  0  0  0  0
  186.4470  177.5110  140.8090 C   0  0  0  0  0  3  0  0  0  0  0  0
  185.4180  178.1560  140.1190 C   0  0  0  0  0  3  0  0  0  0  0  0
  185.0480  177.4530  142.7710 C   0  0  0  0  0  3  0  0  0  0  0  0
  184.0420  178.0980  142.0500 C   0  0  0  0  0  3  0  0  0  0  0  0
  186.2640  177.1450  142.1470 C   0  0  0  0  0  0  0  0  0  0  0  0
  189.9740  173.0140  140.0700 C   0  0  0  0  0  3  0  0  0  0  0  0
  190.0930  171.6900  140.0350 C   0  0  0  0  0  3  0  0  0  0  0  0
  190.4780  170.8640  138.4990 P   0  0  1  0  0  0  0  0  0  0  0  0
  189.6970  171.5130  137.3760 O   0  0  0  0  0  0  0  0  0  0  0  0
  192.1360  171.0070  138.1930 O   0  0  0  0  0  1  0  0  0  0  0  0
  190.5770  168.6100  137.5010 C   0  0  0  0  0  1  0  0  0  0  0  0
  190.0470  169.2300  138.6350 O   0  0  0  0  0  0  0  0  0  0  0  0
  1 13  1  6  0  0  0
  1  7  1  0  0  0  0
  1  8  1  0  0  0  0
  3 12  1  0  0  0  0
  3 15  2  0  0  0  0
  4 13  2  0  0  0  0
  5  2  1  0  0  0  0
  5 14  2  0  0  0  0
  6 16  2  0  0  0  0
  7  5  1  1  0  0  0
  8 17  1  6  0  0  0
  8 14  1  0  0  0  0
  9  6  1  0  0  0  0
  9  3  1  0  0  0  0
 10 18  1  0  0  0  0
 11  9  2  0  0  0  0
 12 10  2  0  0  0  0
 15  4  1  0  0  0  0
 15 18  1  0  0  0  0
 16  4  1  0  0  0  0
 18  7  1  0  0  0  0
 19 23  1  0  0  0  0
 20 24  2  0  0  0  0
 21 19  2  0  0  0  0
 21 20  1  0  0  0  0
 23 22  2  0  0  0  0
 24 22  1  0  0  0  0
 24 12  1  0  0  0  0
 25  6  1  0  0  0  0
 26 25  2  0  0  0  0
 27 28  2  6  0  0  0
 27 31  1  0  0  0  0
 27 26  1  0  0  0  0
 29 27  1  0  0  0  0
 30 31  1  0  0  0  0
M  END
>  <MODEL>
8

>  <REMARK>
 VINA RESULT:      -6.7      2.484      3.228
  Name = 
  4 active torsions:
  status: ('A' for Active; 'I' for Inactive)
    1  A    between atoms: P_3  and  C_17
    2  A    between atoms: P_3  and  O_31
    3  A    between atoms: C_8  and  C_14
    4  A    between atoms: C_20  and  C_29
                            x       y       z     vdW  Elec       q    Type
                         _______ _______ _______ _____ _____    ______ ____

>  <TORSDO>
F 4

$$$$
=
 OpenBabel11042414013D

 31 35  0  0  1  0  0  0  0  0999 V2000
  187.8870  177.2030  144.9080 C   0  0  2  0  0  3  0  0  0  0  0  0
  189.9850  177.9720  147.9160 C   0  0  0  0  0  1  0  0  0  0  0  0
  191.0440  174.8960  143.7510 C   0  0  0  0  0  0  0  0  0  0  0  0
  188.7110  175.6060  143.2830 C   0  0  0  0  0  0  0  0  0  0  0  0
  188.9730  177.6440  146.8760 C   0  0  0  0  0  0  0  0  0  0  0  0
  189.7470  173.9600  141.7600 C   0  0  0  0  0  0  0  0  0  0  0  0
  189.2670  177.5420  145.4160 C   0  0  1  0  0  3  0  0  0  0  0  0
  187.0380  177.2660  145.9240 C   0  0  2  0  0  3  0  0  0  0  0  0
  191.0190  174.0260  142.5550 C   0  0  0  0  0  0  0  0  0  0  0  0
  191.4510  176.3240  145.4400 N   0  0  0  0  0  0  0  0  0  0  0  0
  192.0320  173.3730  142.1950 O   0  0  0  0  0  0  0  0  0  0  0  0
  192.0070  175.3520  144.6630 C   0  0  0  0  0  0  0  0  0  0  0  0
  187.6820  176.3600  143.6970 C   0  0  0  0  0  3  0  0  0  0  0  0
  187.7120  177.5420  147.1450 N   0  0  0  0  0  0  0  0  0  0  0  0
  189.9440  175.6190  144.0610 C   0  0  0  0  0  0  0  0  0  0  0  0
  188.6690  174.7100  142.1090 C   0  0  0  0  0  3  0  0  0  0  0  0
  185.6260  176.7910  145.8820 C   0  0  0  0  0  1  0  0  0  0  0  0
  190.1820  176.4480  145.0780 N   0  0  0  0  0  0  0  0  0  0  0  0
  196.0900  174.2450  145.0870 N   0  0  0  0  0  0  0  0  0  0  0  0
  193.7780  173.6760  145.2720 C   0  0  0  0  0  3  0  0  0  0  0  0
  195.1260  173.3410  145.4090 C   0  0  0  0  0  3  0  0  0  0  0  0
  194.4350  175.8570  144.4840 C   0  0  0  0  0  3  0  0  0  0  0  0
  195.7730  175.4870  144.6320 C   0  0  0  0  0  3  0  0  0  0  0  0
  193.4210  174.9420  144.7970 C   0  0  0  0  0  0  0  0  0  0  0  0
  189.6930  173.0730  140.5840 C   0  0  0  0  0  3  0  0  0  0  0  0
  190.2350  173.3860  139.4110 C   0  0  0  0  0  3  0  0  0  0  0  0
  190.1210  172.2500  138.0380 P   0  0  1  0  0  0  0  0  0  0  0  0
  191.4630  172.1720  137.3430 O   0  0  0  0  0  0  0  0  0  0  0  0
  189.6930  170.7190  138.6190 O   0  0  0  0  0  1  0  0  0  0  0  0
  189.2350  174.1660  136.7600 C   0  0  0  0  0  1  0  0  0  0  0  0
  188.9420  172.8150  136.9580 O   0  0  0  0  0  0  0  0  0  0  0  0
  1 13  1  1  0  0  0
  1  7  1  0  0  0  0
  1  8  1  0  0  0  0
  3 15  2  0  0  0  0
  3 12  1  0  0  0  0
  4 13  2  0  0  0  0
  4 15  1  0  0  0  0
  5 14  2  0  0  0  0
  5  2  1  0  0  0  0
  6 16  2  0  0  0  0
  6  9  1  0  0  0  0
  7  5  1  1  0  0  0
  8 17  1  1  0  0  0
  8 14  1  0  0  0  0
  9  3  1  0  0  0  0
 11  9  2  0  0  0  0
 12 24  1  0  0  0  0
 12 10  2  0  0  0  0
 15 18  1  0  0  0  0
 16  4  1  0  0  0  0
 18  7  1  0  0  0  0
 18 10  1  0  0  0  0
 19 21  1  0  0  0  0
 20 21  2  0  0  0  0
 22 23  1  0  0  0  0
 22 24  2  0  0  0  0
 23 19  2  0  0  0  0
 24 20  1  0  0  0  0
 25  6  1  0  0  0  0
 26 25  2  0  0  0  0
 27 28  2  6  0  0  0
 27 29  1  0  0  0  0
 27 26  1  0  0  0  0
 30 31  1  0  0  0  0
 31 27  1  0  0  0  0
M  END
>  <MODEL>
9

>  <REMARK>
 VINA RESULT:      -6.4      2.059      5.721
  Name = 
  4 active torsions:
  status: ('A' for Active; 'I' for Inactive)
    1  A    between atoms: P_3  and  C_17
    2  A    between atoms: P_3  and  O_31
    3  A    between atoms: C_8  and  C_14
    4  A    between atoms: C_20  and  C_29
                            x       y       z     vdW  Elec       q    Type
                         _______ _______ _______ _____ _____    ______ ____

>  <TORSDO>
F 4

$$$$
