=
 OpenBabel11042419343D

 32 37  0  0  1  0  0  0  0  0999 V2000
  187.0540  177.0570  146.9570 C   0  0  0  0  0  3  0  0  0  0  0  0
  187.2040  176.1700  141.9530 C   0  0  0  0  0  3  0  0  0  0  0  0
  184.5310  178.3080  144.8180 C   0  0  0  0  0  0  0  0  0  0  0  0
  189.3670  174.7730  141.8390 C   0  0  2  0  0  3  0  0  0  0  0  0
  188.5330  175.6260  143.8560 N   0  0  0  0  0  0  0  0  0  0  0  0
  185.9410  177.6660  146.3870 C   0  0  0  0  0  0  0  0  0  0  0  0
  186.3190  176.8610  142.7870 C   0  0  0  0  0  3  0  0  0  0  0  0
  187.9460  176.3580  146.1240 C   0  0  0  0  0  0  0  0  0  0  0  0
  187.7050  176.2890  144.7190 C   0  0  0  0  0  0  0  0  0  0  0  0
  183.9000  178.5060  143.5580 N   0  0  0  0  0  1  0  0  0  0  0  0
  190.2970  174.3900  143.0080 C   0  0  0  0  0  2  0  0  0  0  0  0
  186.5550  176.9280  144.1710 C   0  0  0  0  0  0  0  0  0  0  0  0
  184.9490  178.3920  147.0180 C   0  0  0  0  0  3  0  0  0  0  0  0
  185.6950  177.6070  145.0410 C   0  0  0  0  0  0  0  0  0  0  0  0
  188.3110  175.5570  142.5360 C   0  0  0  0  0  0  0  0  0  0  0  0
  189.6800  174.9490  144.1640 O   0  0  0  0  0  0  0  0  0  0  0  0
  184.0580  178.7970  146.0250 C   0  0  0  0  0  3  0  0  0  0  0  0
  188.8090  173.6160  141.2920 O   0  0  0  0  0  0  0  0  0  0  0  0
  189.1000  173.6870  139.9720 N   0  0  0  0  0  2  0  0  0  0  0  0
  188.2500  172.7170  139.3040 C   0  0  0  0  0  1  0  0  0  0  0  0
  189.1450  175.7390  146.7610 C   0  0  0  0  0  2  0  0  0  0  0  0
  190.1300  176.8160  147.1790 C   0  0  0  0  0  2  0  0  0  0  0  0
  191.2690  176.2090  147.8430 N   0  0  0  0  0  2  0  0  0  0  0  0
  191.9870  175.4340  146.8400 C   0  0  0  0  0  2  0  0  0  0  0  0
  194.4710  175.4400  146.3930 C   0  0  0  0  0  2  0  0  0  0  0  0
  195.1160  176.0380  142.5510 S   0  0  0  0  0  0  0  0  0  0  0  0
  192.8680  176.7050  144.5180 S   0  0  0  0  0  0  0  0  0  0  0  0
  193.1600  176.2260  146.2740 C   0  0  1  0  0  3  0  0  0  0  0  0
  196.3550  174.8750  144.7330 C   0  0  0  0  0  2  0  0  0  0  0  0
  194.2250  175.6150  144.0550 C   0  0  2  0  0  3  0  0  0  0  0  0
  195.2190  175.7700  145.1340 C   0  0  1  0  0  3  0  0  0  0  0  0
  196.5950  175.1920  143.2530 C   0  0  0  0  0  2  0  0  0  0  0  0
  2 15  2  0  0  0  0
  2  7  1  0  0  0  0
  3 14  2  0  0  0  0
  3 17  1  0  0  0  0
  4 18  1  1  0  0  0
  4 15  1  0  0  0  0
  4 11  1  0  0  0  0
  5 16  1  0  0  0  0
  5  9  1  0  0  0  0
  6  1  2  0  0  0  0
  6 13  1  0  0  0  0
  7 12  2  0  0  0  0
  8 21  1  0  0  0  0
  8  1  1  0  0  0  0
  9  8  2  0  0  0  0
 10  3  1  0  0  0  0
 11 16  1  0  0  0  0
 12  9  1  0  0  0  0
 12 14  1  0  0  0  0
 14  6  1  0  0  0  0
 15  5  1  0  0  0  0
 17 13  2  0  0  0  0
 19 18  1  0  0  0  0
 20 19  1  0  0  0  0
 21 22  1  0  0  0  0
 22 23  1  0  0  0  0
 24 23  1  0  0  0  0
 26 32  1  0  0  0  0
 27 28  1  0  0  0  0
 28 25  1  0  0  0  0
 28 24  1  6  0  0  0
 30 26  1  6  0  0  0
 30 27  1  0  0  0  0
 30 31  1  0  0  0  0
 31 29  1  6  0  0  0
 31 25  1  0  0  0  0
 32 29  1  0  0  0  0
M  END
>  <MODEL>
1

>  <REMARK>
 VINA RESULT:      -8.1      0.000      0.000
  Name = 
  7 active torsions:
  status: ('A' for Active; 'I' for Inactive)
    1  A    between atoms: O_3  and  N_4
    2  A    between atoms: O_3  and  C_12
    3  A    between atoms: C_5  and  C_16
    4  A    between atoms: C_5  and  C_28
    5  A    between atoms: C_8  and  C_25
    6  A    between atoms: N_20  and  C_25
    7  A    between atoms: N_20  and  C_28
                            x       y       z     vdW  Elec       q    Type
                         _______ _______ _______ _____ _____    ______ ____

>  <TORSDO>
F 7

$$$$
=
 OpenBabel11042419343D

 32 37  0  0  1  0  0  0  0  0999 V2000
  186.1750  178.4160  143.1310 C   0  0  0  0  0  3  0  0  0  0  0  0
  189.9040  176.8390  146.2060 C   0  0  0  0  0  3  0  0  0  0  0  0
  185.6810  178.2210  146.6280 C   0  0  0  0  0  0  0  0  0  0  0  0
  191.7430  176.4150  144.4510 C   0  0  2  0  0  3  0  0  0  0  0  0
  189.6090  177.1880  143.8670 N   0  0  0  0  0  0  0  0  0  0  0  0
  185.6890  178.4470  144.4340 C   0  0  0  0  0  0  0  0  0  0  0  0
  188.5870  177.2600  146.4200 C   0  0  0  0  0  3  0  0  0  0  0  0
  187.4990  177.9960  142.9110 C   0  0  0  0  0  0  0  0  0  0  0  0
  188.3160  177.6050  144.0140 C   0  0  0  0  0  0  0  0  0  0  0  0
  186.0810  177.9480  147.9670 N   0  0  0  0  0  1  0  0  0  0  0  0
  191.6390  176.5920  142.9230 C   0  0  0  0  0  2  0  0  0  0  0  0
  187.7820  177.6470  145.3350 C   0  0  0  0  0  0  0  0  0  0  0  0
  184.4320  178.8250  144.8680 C   0  0  0  0  0  3  0  0  0  0  0  0
  186.4610  178.0760  145.5030 C   0  0  0  0  0  0  0  0  0  0  0  0
  190.3830  176.8200  144.8980 C   0  0  0  0  0  0  0  0  0  0  0  0
  190.3160  177.0730  142.7010 O   0  0  0  0  0  0  0  0  0  0  0  0
  184.4280  178.6820  146.2550 C   0  0  0  0  0  3  0  0  0  0  0  0
  192.6900  177.3070  144.9580 O   0  0  0  0  0  0  0  0  0  0  0  0
  193.8220  176.5750  145.0770 N   0  0  0  0  0  2  0  0  0  0  0  0
  194.1470  176.5340  146.4910 C   0  0  0  0  0  1  0  0  0  0  0  0
  187.9820  177.9470  141.5000 C   0  0  0  0  0  2  0  0  0  0  0  0
  187.2640  176.8480  140.7390 C   0  0  0  0  0  2  0  0  0  0  0  0
  187.6710  175.5510  141.2510 N   0  0  0  0  0  2  0  0  0  0  0  0
  188.3490  174.8550  140.1660 C   0  0  0  0  0  2  0  0  0  0  0  0
  190.4630  173.6650  140.8630 C   0  0  0  0  0  2  0  0  0  0  0  0
  190.0180  172.2140  144.5010 S   0  0  0  0  0  0  0  0  0  0  0  0
  188.1390  172.9590  142.2010 S   0  0  0  0  0  0  0  0  0  0  0  0
  188.9490  173.5410  140.6500 C   0  0  1  0  0  3  0  0  0  0  0  0
  192.0370  173.0440  142.8020 C   0  0  0  0  0  2  0  0  0  0  0  0
  189.7030  173.2340  143.0520 C   0  0  2  0  0  3  0  0  0  0  0  0
  190.7380  172.8330  142.0810 C   0  0  1  0  0  3  0  0  0  0  0  0
  191.8220  172.4130  144.1810 C   0  0  0  0  0  2  0  0  0  0  0  0
  1  6  2  0  0  0  0
  2  7  1  0  0  0  0
  3 10  1  0  0  0  0
  4 15  1  0  0  0  0
  4 18  1  1  0  0  0
  5  9  1  0  0  0  0
  5 15  1  0  0  0  0
  6 13  1  0  0  0  0
  6 14  1  0  0  0  0
  8  1  1  0  0  0  0
  8  9  2  0  0  0  0
  9 12  1  0  0  0  0
 11  4  1  0  0  0  0
 12 14  1  0  0  0  0
 12  7  2  0  0  0  0
 13 17  2  0  0  0  0
 14  3  2  0  0  0  0
 15  2  2  0  0  0  0
 16 11  1  0  0  0  0
 16  5  1  0  0  0  0
 17  3  1  0  0  0  0
 18 19  1  0  0  0  0
 19 20  1  0  0  0  0
 21  8  1  0  0  0  0
 22 23  1  0  0  0  0
 22 21  1  0  0  0  0
 24 23  1  0  0  0  0
 28 24  1  1  0  0  0
 28 25  1  0  0  0  0
 28 27  1  0  0  0  0
 29 32  1  0  0  0  0
 30 27  1  6  0  0  0
 30 26  1  0  0  0  0
 31 25  1  6  0  0  0
 31 29  1  0  0  0  0
 31 30  1  0  0  0  0
 32 26  1  0  0  0  0
M  END
>  <MODEL>
2

>  <REMARK>
 VINA RESULT:      -7.9      2.661      5.237
  Name = 
  7 active torsions:
  status: ('A' for Active; 'I' for Inactive)
    1  A    between atoms: O_3  and  N_4
    2  A    between atoms: O_3  and  C_12
    3  A    between atoms: C_5  and  C_16
    4  A    between atoms: C_5  and  C_28
    5  A    between atoms: C_8  and  C_25
    6  A    between atoms: N_20  and  C_25
    7  A    between atoms: N_20  and  C_28
                            x       y       z     vdW  Elec       q    Type
                         _______ _______ _______ _____ _____    ______ ____

>  <TORSDO>
F 7

$$$$
=
 OpenBabel11042419343D

 32 37  0  0  1  0  0  0  0  0999 V2000
  186.2260  178.3800  143.1680 C   0  0  0  0  0  3  0  0  0  0  0  0
  189.9640  176.8780  146.2710 C   0  0  0  0  0  3  0  0  0  0  0  0
  185.7510  178.2950  146.6720 C   0  0  0  0  0  0  0  0  0  0  0  0
  191.7910  176.3890  144.5200 C   0  0  2  0  0  3  0  0  0  0  0  0
  189.6580  177.1550  143.9230 N   0  0  0  0  0  0  0  0  0  0  0  0
  185.7470  178.4540  144.4730 C   0  0  0  0  0  0  0  0  0  0  0  0
  188.6510  177.3120  146.4780 C   0  0  0  0  0  3  0  0  0  0  0  0
  187.5470  177.9450  142.9550 C   0  0  0  0  0  0  0  0  0  0  0  0
  188.3680  177.5840  144.0640 C   0  0  0  0  0  0  0  0  0  0  0  0
  186.1560  178.0610  148.0160 N   0  0  0  0  0  1  0  0  0  0  0  0
  191.6790  176.5190  142.9880 C   0  0  0  0  0  2  0  0  0  0  0  0
  187.8420  177.6700  145.3860 C   0  0  0  0  0  0  0  0  0  0  0  0
  184.4950  178.8520  144.9010 C   0  0  0  0  0  3  0  0  0  0  0  0
  186.5240  178.1110  145.5480 C   0  0  0  0  0  0  0  0  0  0  0  0
  190.4350  176.8150  144.9610 C   0  0  0  0  0  0  0  0  0  0  0  0
  190.3580  177.0000  142.7580 O   0  0  0  0  0  0  0  0  0  0  0  0
  184.4990  178.7520  146.2920 C   0  0  0  0  0  3  0  0  0  0  0  0
  192.7450  177.2910  144.9940 O   0  0  0  0  0  0  0  0  0  0  0  0
  193.8830  176.5640  145.0960 N   0  0  0  0  0  2  0  0  0  0  0  0
  193.8480  175.9160  146.3950 C   0  0  0  0  0  1  0  0  0  0  0  0
  188.0220  177.8510  141.5430 C   0  0  0  0  0  2  0  0  0  0  0  0
  187.3050  176.7210  140.8250 C   0  0  0  0  0  2  0  0  0  0  0  0
  188.1030  175.5100  140.8980 N   0  0  0  0  0  2  0  0  0  0  0  0
  187.5430  174.6900  141.9630 C   0  0  0  0  0  2  0  0  0  0  0  0
  188.7290  172.9070  140.6260 C   0  0  0  0  0  2  0  0  0  0  0  0
  192.2720  172.2130  142.2090 S   0  0  0  0  0  0  0  0  0  0  0  0
  189.5950  173.2890  143.2330 S   0  0  0  0  0  0  0  0  0  0  0  0
  188.2150  173.3220  142.0100 C   0  0  1  0  0  3  0  0  0  0  0  0
  190.9850  172.0100  139.7700 C   0  0  0  0  0  2  0  0  0  0  0  0
  190.7350  173.0770  141.8550 C   0  0  2  0  0  3  0  0  0  0  0  0
  190.0230  172.1990  140.9060 C   0  0  1  0  0  3  0  0  0  0  0  0
  192.3230  171.6900  140.4430 C   0  0  0  0  0  2  0  0  0  0  0  0
  1  6  2  0  0  0  0
  2  7  1  0  0  0  0
  3 10  1  0  0  0  0
  4 15  1  0  0  0  0
  4 18  1  1  0  0  0
  5  9  1  0  0  0  0
  5 15  1  0  0  0  0
  6 13  1  0  0  0  0
  6 14  1  0  0  0  0
  8  1  1  0  0  0  0
  8  9  2  0  0  0  0
  9 12  1  0  0  0  0
 11  4  1  0  0  0  0
 12 14  1  0  0  0  0
 12  7  2  0  0  0  0
 13 17  2  0  0  0  0
 14  3  2  0  0  0  0
 15  2  2  0  0  0  0
 16 11  1  0  0  0  0
 16  5  1  0  0  0  0
 17  3  1  0  0  0  0
 18 19  1  0  0  0  0
 19 20  1  0  0  0  0
 21  8  1  0  0  0  0
 22 23  1  0  0  0  0
 22 21  1  0  0  0  0
 23 24  1  0  0  0  0
 25 31  1  0  0  0  0
 25 28  1  0  0  0  0
 28 24  1  6  0  0  0
 28 27  1  0  0  0  0
 29 32  1  0  0  0  0
 30 26  1  1  0  0  0
 30 27  1  0  0  0  0
 31 29  1  6  0  0  0
 31 30  1  0  0  0  0
 32 26  1  0  0  0  0
M  END
>  <MODEL>
3

>  <REMARK>
 VINA RESULT:      -7.8      2.488      5.288
  Name = 
  7 active torsions:
  status: ('A' for Active; 'I' for Inactive)
    1  A    between atoms: O_3  and  N_4
    2  A    between atoms: O_3  and  C_12
    3  A    between atoms: C_5  and  C_16
    4  A    between atoms: C_5  and  C_28
    5  A    between atoms: C_8  and  C_25
    6  A    between atoms: N_20  and  C_25
    7  A    between atoms: N_20  and  C_28
                            x       y       z     vdW  Elec       q    Type
                         _______ _______ _______ _____ _____    ______ ____

>  <TORSDO>
F 7

$$$$
=
 OpenBabel11042419343D

 32 37  0  0  1  0  0  0  0  0999 V2000
  188.9390  177.2260  143.7420 C   0  0  0  0  0  3  0  0  0  0  0  0
  190.2390  172.3720  144.5150 C   0  0  0  0  0  3  0  0  0  0  0  0
  190.0880  176.1380  146.9060 C   0  0  0  0  0  0  0  0  0  0  0  0
  189.7850  171.4360  142.1570 C   0  0  2  0  0  3  0  0  0  0  0  0
  189.4330  173.6890  142.6990 N   0  0  0  0  0  0  0  0  0  0  0  0
  189.3480  177.1040  145.0670 C   0  0  0  0  0  0  0  0  0  0  0  0
  190.2180  173.5090  145.3300 C   0  0  0  0  0  3  0  0  0  0  0  0
  188.9600  176.0860  142.9190 C   0  0  0  0  0  0  0  0  0  0  0  0
  189.3890  174.8320  143.4470 C   0  0  0  0  0  0  0  0  0  0  0  0
  190.5680  175.1710  147.8330 N   0  0  0  0  0  1  0  0  0  0  0  0
  189.2480  172.2030  140.9320 C   0  0  0  0  0  2  0  0  0  0  0  0
  189.7980  174.7450  144.8100 C   0  0  0  0  0  0  0  0  0  0  0  0
  189.4060  178.0880  146.0360 C   0  0  0  0  0  3  0  0  0  0  0  0
  189.7630  175.9070  145.5880 C   0  0  0  0  0  0  0  0  0  0  0  0
  189.8350  172.5070  143.1890 C   0  0  0  0  0  0  0  0  0  0  0  0
  189.0900  173.5450  141.3830 O   0  0  0  0  0  0  0  0  0  0  0  0
  189.8740  177.4760  147.1980 C   0  0  0  0  0  3  0  0  0  0  0  0
  191.0770  170.9800  141.8890 O   0  0  0  0  0  0  0  0  0  0  0  0
  190.9100  169.9840  140.9880 N   0  0  0  0  0  2  0  0  0  0  0  0
  190.8480  168.7450  141.7420 C   0  0  0  0  0  1  0  0  0  0  0  0
  188.4910  176.2430  141.5110 C   0  0  0  0  0  2  0  0  0  0  0  0
  187.6980  177.5300  141.3660 C   0  0  0  0  0  2  0  0  0  0  0  0
  186.2780  177.2450  141.4730 N   0  0  0  0  0  2  0  0  0  0  0  0
  185.6380  178.4450  141.9950 C   0  0  0  0  0  2  0  0  0  0  0  0
  185.4410  176.9180  143.9950 C   0  0  0  0  0  2  0  0  0  0  0  0
  185.6510  179.0490  147.3040 S   0  0  0  0  0  0  0  0  0  0  0  0
  184.8270  179.5910  144.4060 S   0  0  0  0  0  0  0  0  0  0  0  0
  184.8610  178.1390  143.2700 C   0  0  1  0  0  3  0  0  0  0  0  0
  186.1390  176.4710  146.4320 C   0  0  0  0  0  2  0  0  0  0  0  0
  185.8260  178.6370  145.5620 C   0  0  2  0  0  3  0  0  0  0  0  0
  185.3180  177.2560  145.4520 C   0  0  1  0  0  3  0  0  0  0  0  0
  186.1370  177.3190  147.7080 C   0  0  0  0  0  2  0  0  0  0  0  0
  1  6  2  0  0  0  0
  2  7  1  0  0  0  0
  3 17  1  0  0  0  0
  3 10  1  0  0  0  0
  4 18  1  6  0  0  0
  4 15  1  0  0  0  0
  5 15  1  0  0  0  0
  5  9  1  0  0  0  0
  6 14  1  0  0  0  0
  6 13  1  0  0  0  0
  8  9  2  0  0  0  0
  8  1  1  0  0  0  0
  9 12  1  0  0  0  0
 11 16  1  0  0  0  0
 11  4  1  0  0  0  0
 12  7  2  0  0  0  0
 12 14  1  0  0  0  0
 13 17  2  0  0  0  0
 14  3  2  0  0  0  0
 15  2  2  0  0  0  0
 16  5  1  0  0  0  0
 19 20  1  0  0  0  0
 19 18  1  0  0  0  0
 21  8  1  0  0  0  0
 22 23  1  0  0  0  0
 22 21  1  0  0  0  0
 23 24  1  0  0  0  0
 26 32  1  0  0  0  0
 28 24  1  6  0  0  0
 28 25  1  0  0  0  0
 28 27  1  0  0  0  0
 29 32  1  0  0  0  0
 30 27  1  6  0  0  0
 30 26  1  0  0  0  0
 31 25  1  6  0  0  0
 31 30  1  0  0  0  0
 31 29  1  0  0  0  0
M  END
>  <MODEL>
4

>  <REMARK>
 VINA RESULT:      -7.7      3.664      6.669
  Name = 
  7 active torsions:
  status: ('A' for Active; 'I' for Inactive)
    1  A    between atoms: O_3  and  N_4
    2  A    between atoms: O_3  and  C_12
    3  A    between atoms: C_5  and  C_16
    4  A    between atoms: C_5  and  C_28
    5  A    between atoms: C_8  and  C_25
    6  A    between atoms: N_20  and  C_25
    7  A    between atoms: N_20  and  C_28
                            x       y       z     vdW  Elec       q    Type
                         _______ _______ _______ _____ _____    ______ ____

>  <TORSDO>
F 7

$$$$
=
 OpenBabel11042419343D

 32 37  0  0  1  0  0  0  0  0999 V2000
  188.4460  176.6950  143.9510 C   0  0  0  0  0  3  0  0  0  0  0  0
  183.8230  178.7960  143.7080 C   0  0  0  0  0  3  0  0  0  0  0  0
  186.8780  177.9690  146.8540 C   0  0  0  0  0  0  0  0  0  0  0  0
  183.3680  178.5190  141.1860 C   0  0  2  0  0  3  0  0  0  0  0  0
  185.3590  177.7900  142.1870 N   0  0  0  0  0  0  0  0  0  0  0  0
  188.0970  177.0970  145.2370 C   0  0  0  0  0  0  0  0  0  0  0  0
  184.7300  178.5730  144.7490 C   0  0  0  0  0  3  0  0  0  0  0  0
  187.5370  176.9170  142.9010 C   0  0  0  0  0  0  0  0  0  0  0  0
  186.2850  177.5480  143.1630 C   0  0  0  0  0  0  0  0  0  0  0  0
  185.8190  178.5950  147.5700 N   0  0  0  0  0  1  0  0  0  0  0  0
  184.3050  177.9020  140.1280 C   0  0  0  0  0  2  0  0  0  0  0  0
  185.9630  177.9490  144.4930 C   0  0  0  0  0  0  0  0  0  0  0  0
  188.8340  176.9750  146.3990 C   0  0  0  0  0  3  0  0  0  0  0  0
  186.8980  177.7040  145.5030 C   0  0  0  0  0  0  0  0  0  0  0  0
  184.1800  178.3830  142.4260 C   0  0  0  0  0  0  0  0  0  0  0  0
  185.4590  177.4910  140.8560 O   0  0  0  0  0  0  0  0  0  0  0  0
  188.0630  177.5260  147.4210 C   0  0  0  0  0  3  0  0  0  0  0  0
  182.2130  177.7420  141.2930 O   0  0  0  0  0  0  0  0  0  0  0  0
  181.3060  178.3660  140.5050 N   0  0  0  0  0  2  0  0  0  0  0  0
  180.6220  179.3340  141.3440 C   0  0  0  0  0  1  0  0  0  0  0  0
  187.9520  176.4990  141.5300 C   0  0  0  0  0  2  0  0  0  0  0  0
  187.9900  174.9840  141.4340 C   0  0  0  0  0  2  0  0  0  0  0  0
  189.3420  174.5460  141.1390 N   0  0  0  0  0  2  0  0  0  0  0  0
  189.6760  173.5030  142.0990 C   0  0  0  0  0  2  0  0  0  0  0  0
  191.4990  175.1710  142.6140 C   0  0  0  0  0  2  0  0  0  0  0  0
  192.4650  174.9310  146.4280 S   0  0  0  0  0  0  0  0  0  0  0  0
  191.2400  173.0330  144.3610 S   0  0  0  0  0  0  0  0  0  0  0  0
  191.0850  173.6950  142.6460 C   0  0  1  0  0  3  0  0  0  0  0  0
  192.5210  176.7640  144.3580 C   0  0  0  0  0  2  0  0  0  0  0  0
  191.4920  174.7240  144.9290 C   0  0  2  0  0  3  0  0  0  0  0  0
  192.2970  175.3620  143.8700 C   0  0  1  0  0  3  0  0  0  0  0  0
  192.9460  176.6020  145.8210 C   0  0  0  0  0  2  0  0  0  0  0  0
  1  6  2  0  0  0  0
  2  7  1  0  0  0  0
  3 17  1  0  0  0  0
  3 10  1  0  0  0  0
  4 18  1  1  0  0  0
  4 15  1  0  0  0  0
  5 15  1  0  0  0  0
  5  9  1  0  0  0  0
  6 14  1  0  0  0  0
  6 13  1  0  0  0  0
  8  9  2  0  0  0  0
  8  1  1  0  0  0  0
  9 12  1  0  0  0  0
 11 16  1  0  0  0  0
 11  4  1  0  0  0  0
 12  7  2  0  0  0  0
 12 14  1  0  0  0  0
 13 17  2  0  0  0  0
 14  3  2  0  0  0  0
 15  2  2  0  0  0  0
 16  5  1  0  0  0  0
 19 18  1  0  0  0  0
 19 20  1  0  0  0  0
 21  8  1  0  0  0  0
 22 21  1  0  0  0  0
 23 22  1  0  0  0  0
 23 24  1  0  0  0  0
 25 28  1  0  0  0  0
 28 24  1  1  0  0  0
 28 27  1  0  0  0  0
 29 32  1  0  0  0  0
 30 27  1  6  0  0  0
 30 26  1  0  0  0  0
 31 25  1  6  0  0  0
 31 29  1  0  0  0  0
 31 30  1  0  0  0  0
 32 26  1  0  0  0  0
M  END
>  <MODEL>
5

>  <REMARK>
 VINA RESULT:      -7.6      2.773      5.210
  Name = 
  7 active torsions:
  status: ('A' for Active; 'I' for Inactive)
    1  A    between atoms: O_3  and  N_4
    2  A    between atoms: O_3  and  C_12
    3  A    between atoms: C_5  and  C_16
    4  A    between atoms: C_5  and  C_28
    5  A    between atoms: C_8  and  C_25
    6  A    between atoms: N_20  and  C_25
    7  A    between atoms: N_20  and  C_28
                            x       y       z     vdW  Elec       q    Type
                         _______ _______ _______ _____ _____    ______ ____

>  <TORSDO>
F 7

$$$$
=
 OpenBabel11042419343D

 32 37  0  0  1  0  0  0  0  0999 V2000
  189.2880  174.1950  143.6740 C   0  0  0  0  0  3  0  0  0  0  0  0
  186.6600  178.5470  143.6440 C   0  0  0  0  0  3  0  0  0  0  0  0
  188.9740  176.1440  146.6090 C   0  0  0  0  0  0  0  0  0  0  0  0
  185.9090  178.5670  141.1780 C   0  0  2  0  0  3  0  0  0  0  0  0
  187.2180  176.8420  142.0750 N   0  0  0  0  0  0  0  0  0  0  0  0
  189.3400  174.7280  144.9580 C   0  0  0  0  0  0  0  0  0  0  0  0
  187.3680  177.8520  144.6290 C   0  0  0  0  0  3  0  0  0  0  0  0
  188.5750  174.8890  142.6800 C   0  0  0  0  0  0  0  0  0  0  0  0
  187.9270  176.1210  142.9950 C   0  0  0  0  0  0  0  0  0  0  0  0
  188.5210  177.2630  147.3630 N   0  0  0  0  0  1  0  0  0  0  0  0
  186.2370  177.5240  140.0910 C   0  0  0  0  0  2  0  0  0  0  0  0
  188.0050  176.6380  144.3210 C   0  0  0  0  0  0  0  0  0  0  0  0
  189.9780  174.2140  146.0710 C   0  0  0  0  0  3  0  0  0  0  0  0
  188.7230  175.9090  145.2750 C   0  0  0  0  0  0  0  0  0  0  0  0
  186.6070  177.9990  142.3640 C   0  0  0  0  0  0  0  0  0  0  0  0
  187.0150  176.5340  140.7580 O   0  0  0  0  0  0  0  0  0  0  0  0
  189.7450  175.1090  147.1140 C   0  0  0  0  0  3  0  0  0  0  0  0
  184.5320  178.5830  141.4060 O   0  0  0  0  0  0  0  0  0  0  0  0
  183.9860  178.1960  140.2300 N   0  0  0  0  0  2  0  0  0  0  0  0
  182.5650  178.0150  140.4680 C   0  0  0  0  0  1  0  0  0  0  0  0
  188.5590  174.3040  141.3060 C   0  0  0  0  0  2  0  0  0  0  0  0
  189.7220  173.3430  141.1350 C   0  0  0  0  0  2  0  0  0  0  0  0
  190.8510  174.0390  140.5460 N   0  0  0  0  0  2  0  0  0  0  0  0
  192.0530  173.3120  140.9310 C   0  0  0  0  0  2  0  0  0  0  0  0
  192.3500  175.5040  142.1470 C   0  0  0  0  0  2  0  0  0  0  0  0
  193.8120  174.8260  145.7440 S   0  0  0  0  0  0  0  0  0  0  0  0
  193.8610  173.3630  143.0560 S   0  0  0  0  0  0  0  0  0  0  0  0
  193.0380  174.2270  141.6490 C   0  0  1  0  0  3  0  0  0  0  0  0
  192.3070  176.7250  144.4120 C   0  0  0  0  0  2  0  0  0  0  0  0
  193.0060  174.4890  144.1720 C   0  0  2  0  0  3  0  0  0  0  0  0
  193.0010  175.7870  143.4700 C   0  0  1  0  0  3  0  0  0  0  0  0
  192.9540  176.4560  145.7750 C   0  0  0  0  0  2  0  0  0  0  0  0
  1  6  2  0  0  0  0
  2  7  1  0  0  0  0
  3 17  1  0  0  0  0
  3 10  1  0  0  0  0
  4 18  1  1  0  0  0
  4 15  1  0  0  0  0
  5 15  1  0  0  0  0
  5  9  1  0  0  0  0
  6 14  1  0  0  0  0
  6 13  1  0  0  0  0
  8  9  2  0  0  0  0
  8  1  1  0  0  0  0
  9 12  1  0  0  0  0
 11 16  1  0  0  0  0
 11  4  1  0  0  0  0
 12  7  2  0  0  0  0
 12 14  1  0  0  0  0
 13 17  2  0  0  0  0
 14  3  2  0  0  0  0
 15  2  2  0  0  0  0
 16  5  1  0  0  0  0
 19 20  1  0  0  0  0
 19 18  1  0  0  0  0
 21  8  1  0  0  0  0
 22 21  1  0  0  0  0
 23 24  1  0  0  0  0
 23 22  1  0  0  0  0
 26 32  1  0  0  0  0
 28 24  1  1  0  0  0
 28 25  1  0  0  0  0
 28 27  1  0  0  0  0
 29 32  1  0  0  0  0
 30 27  1  6  0  0  0
 30 26  1  0  0  0  0
 31 25  1  6  0  0  0
 31 30  1  0  0  0  0
 31 29  1  0  0  0  0
M  END
>  <MODEL>
6

>  <REMARK>
 VINA RESULT:      -7.4      2.433      5.009
  Name = 
  7 active torsions:
  status: ('A' for Active; 'I' for Inactive)
    1  A    between atoms: O_3  and  N_4
    2  A    between atoms: O_3  and  C_12
    3  A    between atoms: C_5  and  C_16
    4  A    between atoms: C_5  and  C_28
    5  A    between atoms: C_8  and  C_25
    6  A    between atoms: N_20  and  C_25
    7  A    between atoms: N_20  and  C_28
                            x       y       z     vdW  Elec       q    Type
                         _______ _______ _______ _____ _____    ______ ____

>  <TORSDO>
F 7

$$$$
=
 OpenBabel11042419343D

 32 37  0  0  1  0  0  0  0  0999 V2000
  186.5810  177.9610  142.9350 C   0  0  0  0  0  3  0  0  0  0  0  0
  188.5530  175.7400  147.0620 C   0  0  0  0  0  3  0  0  0  0  0  0
  185.0190  178.2890  146.0910 C   0  0  0  0  0  0  0  0  0  0  0  0
  190.6200  174.6310  145.9940 C   0  0  2  0  0  3  0  0  0  0  0  0
  189.0980  175.9040  144.7470 N   0  0  0  0  0  0  0  0  0  0  0  0
  185.7570  178.2670  144.0130 C   0  0  0  0  0  0  0  0  0  0  0  0
  187.4230  176.5340  146.8370 C   0  0  0  0  0  3  0  0  0  0  0  0
  187.7190  177.1650  143.1560 C   0  0  0  0  0  0  0  0  0  0  0  0
  188.0080  176.6810  144.4670 C   0  0  0  0  0  0  0  0  0  0  0  0
  184.8940  178.0590  147.4900 N   0  0  0  0  0  1  0  0  0  0  0  0
  191.0400  174.6650  144.5110 C   0  0  0  0  0  2  0  0  0  0  0  0
  187.1390  177.0130  145.5470 C   0  0  0  0  0  0  0  0  0  0  0  0
  184.6020  179.0260  144.0160 C   0  0  0  0  0  3  0  0  0  0  0  0
  186.0220  177.8100  145.2770 C   0  0  0  0  0  0  0  0  0  0  0  0
  189.3750  175.4470  145.9760 C   0  0  0  0  0  0  0  0  0  0  0  0
  190.0550  175.4710  143.8710 O   0  0  0  0  0  0  0  0  0  0  0  0
  184.1370  179.0400  145.3310 C   0  0  0  0  0  3  0  0  0  0  0  0
  191.5910  175.2700  146.7670 O   0  0  0  0  0  0  0  0  0  0  0  0
  192.6790  175.3360  145.9640 N   0  0  0  0  0  2  0  0  0  0  0  0
  193.5320  176.3800  146.5020 C   0  0  0  0  0  1  0  0  0  0  0  0
  188.5690  176.8320  141.9740 C   0  0  0  0  0  2  0  0  0  0  0  0
  187.8160  175.9070  141.0350 C   0  0  0  0  0  2  0  0  0  0  0  0
  188.3960  174.5770  141.0880 N   0  0  0  0  0  2  0  0  0  0  0  0
  188.6090  174.1460  139.7130 C   0  0  0  0  0  2  0  0  0  0  0  0
  190.7700  173.5250  140.8580 C   0  0  0  0  0  2  0  0  0  0  0  0
  191.2660  169.6170  140.7050 S   0  0  0  0  0  0  0  0  0  0  0  0
  189.7570  171.6950  139.0380 S   0  0  0  0  0  0  0  0  0  0  0  0
  189.9570  173.4520  139.5600 C   0  0  1  0  0  3  0  0  0  0  0  0
  192.0300  171.7720  142.2600 C   0  0  0  0  0  2  0  0  0  0  0  0
  190.4200  171.2030  140.6390 C   0  0  2  0  0  3  0  0  0  0  0  0
  191.4690  172.1980  140.9360 C   0  0  1  0  0  3  0  0  0  0  0  0
  192.2530  170.2630  142.1210 C   0  0  0  0  0  2  0  0  0  0  0  0
  1  8  1  0  0  0  0
  1  6  2  0  0  0  0
  3 10  1  0  0  0  0
  4 18  1  1  0  0  0
  5 15  1  0  0  0  0
  6 13  1  0  0  0  0
  6 14  1  0  0  0  0
  7  2  1  0  0  0  0
  8  9  2  0  0  0  0
  9  5  1  0  0  0  0
  9 12  1  0  0  0  0
 11  4  1  0  0  0  0
 12  7  2  0  0  0  0
 13 17  2  0  0  0  0
 14 12  1  0  0  0  0
 14  3  2  0  0  0  0
 15  4  1  0  0  0  0
 15  2  2  0  0  0  0
 16 11  1  0  0  0  0
 16  5  1  0  0  0  0
 17  3  1  0  0  0  0
 19 20  1  0  0  0  0
 19 18  1  0  0  0  0
 21  8  1  0  0  0  0
 22 23  1  0  0  0  0
 22 21  1  0  0  0  0
 24 23  1  0  0  0  0
 26 32  1  0  0  0  0
 27 28  1  0  0  0  0
 28 24  1  1  0  0  0
 28 25  1  0  0  0  0
 30 27  1  6  0  0  0
 30 26  1  0  0  0  0
 30 31  1  0  0  0  0
 31 25  1  1  0  0  0
 31 29  1  0  0  0  0
 32 29  1  0  0  0  0
M  END
>  <MODEL>
7

>  <REMARK>
 VINA RESULT:      -7.1      2.744      5.375
  Name = 
  7 active torsions:
  status: ('A' for Active; 'I' for Inactive)
    1  A    between atoms: O_3  and  N_4
    2  A    between atoms: O_3  and  C_12
    3  A    between atoms: C_5  and  C_16
    4  A    between atoms: C_5  and  C_28
    5  A    between atoms: C_8  and  C_25
    6  A    between atoms: N_20  and  C_25
    7  A    between atoms: N_20  and  C_28
                            x       y       z     vdW  Elec       q    Type
                         _______ _______ _______ _____ _____    ______ ____

>  <TORSDO>
F 7

$$$$
=
 OpenBabel11042419343D

 32 37  0  0  1  0  0  0  0  0999 V2000
  186.2870  177.8200  142.9870 C   0  0  0  0  0  3  0  0  0  0  0  0
  189.4940  176.8950  146.8230 C   0  0  0  0  0  3  0  0  0  0  0  0
  185.4060  178.6140  146.3190 C   0  0  0  0  0  0  0  0  0  0  0  0
  191.4600  175.8890  145.4930 C   0  0  2  0  0  3  0  0  0  0  0  0
  189.4870  176.6140  144.4550 N   0  0  0  0  0  0  0  0  0  0  0  0
  185.6700  178.2350  144.1630 C   0  0  0  0  0  0  0  0  0  0  0  0
  188.2090  177.4430  146.7470 C   0  0  0  0  0  3  0  0  0  0  0  0
  187.5800  177.2690  143.0580 C   0  0  0  0  0  0  0  0  0  0  0  0
  188.2320  177.1390  144.3200 C   0  0  0  0  0  0  0  0  0  0  0  0
  185.6310  178.6880  147.7220 N   0  0  0  0  0  1  0  0  0  0  0  0
  191.5370  175.6520  143.9710 C   0  0  0  0  0  2  0  0  0  0  0  0
  187.5670  177.5740  145.5040 C   0  0  0  0  0  0  0  0  0  0  0  0
  184.4170  178.7980  144.3160 C   0  0  0  0  0  3  0  0  0  0  0  0
  186.2840  178.1170  145.3810 C   0  0  0  0  0  0  0  0  0  0  0  0
  190.1050  176.4890  145.6380 C   0  0  0  0  0  0  0  0  0  0  0  0
  190.2990  176.1400  143.4620 O   0  0  0  0  0  0  0  0  0  0  0  0
  184.2520  179.0370  145.6800 C   0  0  0  0  0  3  0  0  0  0  0  0
  192.4290  176.8220  145.8670 O   0  0  0  0  0  0  0  0  0  0  0  0
  193.0870  176.2380  146.8960 N   0  0  0  0  0  2  0  0  0  0  0  0
  194.4610  176.0550  146.4640 C   0  0  0  0  0  1  0  0  0  0  0  0
  188.2040  176.8080  141.7830 C   0  0  0  0  0  2  0  0  0  0  0  0
  187.7220  175.4090  141.4420 C   0  0  0  0  0  2  0  0  0  0  0  0
  188.7510  174.7040  140.7000 N   0  0  0  0  0  2  0  0  0  0  0  0
  188.4000  173.2900  140.7160 C   0  0  0  0  0  2  0  0  0  0  0  0
  188.1940  173.7890  138.2510 C   0  0  0  0  0  2  0  0  0  0  0  0
  191.4560  172.5960  136.3880 S   0  0  0  0  0  0  0  0  0  0  0  0
  190.0100  171.8230  138.9730 S   0  0  0  0  0  0  0  0  0  0  0  0
  188.4260  172.7050  139.3090 C   0  0  1  0  0  3  0  0  0  0  0  0
  189.4190  174.4400  136.0820 C   0  0  0  0  0  2  0  0  0  0  0  0
  190.3890  173.0890  137.7490 C   0  0  2  0  0  3  0  0  0  0  0  0
  189.0940  173.4000  137.1140 C   0  0  1  0  0  3  0  0  0  0  0  0
  190.6540  173.8960  135.3580 C   0  0  0  0  0  2  0  0  0  0  0  0
  1  8  1  0  0  0  0
  1  6  2  0  0  0  0
  3 10  1  0  0  0  0
  4 15  1  0  0  0  0
  4 18  1  6  0  0  0
  5 15  1  0  0  0  0
  6 13  1  0  0  0  0
  6 14  1  0  0  0  0
  7  2  1  0  0  0  0
  8  9  2  0  0  0  0
  9  5  1  0  0  0  0
  9 12  1  0  0  0  0
 11  4  1  0  0  0  0
 12  7  2  0  0  0  0
 13 17  2  0  0  0  0
 14 12  1  0  0  0  0
 14  3  2  0  0  0  0
 15  2  2  0  0  0  0
 16 11  1  0  0  0  0
 16  5  1  0  0  0  0
 17  3  1  0  0  0  0
 18 19  1  0  0  0  0
 20 19  1  0  0  0  0
 21  8  1  0  0  0  0
 22 21  1  0  0  0  0
 23 24  1  0  0  0  0
 23 22  1  0  0  0  0
 25 28  1  0  0  0  0
 27 28  1  0  0  0  0
 28 24  1  1  0  0  0
 30 26  1  6  0  0  0
 30 27  1  0  0  0  0
 31 29  1  6  0  0  0
 31 30  1  0  0  0  0
 31 25  1  0  0  0  0
 32 29  1  0  0  0  0
 32 26  1  0  0  0  0
M  END
>  <MODEL>
8

>  <REMARK>
 VINA RESULT:      -7.0      2.755      6.289
  Name = 
  7 active torsions:
  status: ('A' for Active; 'I' for Inactive)
    1  A    between atoms: O_3  and  N_4
    2  A    between atoms: O_3  and  C_12
    3  A    between atoms: C_5  and  C_16
    4  A    between atoms: C_5  and  C_28
    5  A    between atoms: C_8  and  C_25
    6  A    between atoms: N_20  and  C_25
    7  A    between atoms: N_20  and  C_28
                            x       y       z     vdW  Elec       q    Type
                         _______ _______ _______ _____ _____    ______ ____

>  <TORSDO>
F 7

$$$$
=
 OpenBabel11042419343D

 32 37  0  0  1  0  0  0  0  0999 V2000
  193.3950  174.9470  144.4130 C   0  0  0  0  0  3  0  0  0  0  0  0
  189.9510  171.6830  142.5880 C   0  0  0  0  0  3  0  0  0  0  0  0
  193.7750  171.4610  144.8780 C   0  0  0  0  0  0  0  0  0  0  0  0
  188.3270  173.3570  141.4910 C   0  0  2  0  0  3  0  0  0  0  0  0
  190.2690  174.0460  142.6080 N   0  0  0  0  0  0  0  0  0  0  0  0
  193.8120  173.6630  144.7470 C   0  0  0  0  0  0  0  0  0  0  0  0
  191.1400  171.5310  143.3080 C   0  0  0  0  0  3  0  0  0  0  0  0
  192.2010  175.1050  143.6880 C   0  0  0  0  0  0  0  0  0  0  0  0
  191.4370  173.9590  143.3130 C   0  0  0  0  0  0  0  0  0  0  0  0
  193.3870  170.0990  144.7400 N   0  0  0  0  0  1  0  0  0  0  0  0
  188.4400  174.8950  141.4700 C   0  0  0  0  0  2  0  0  0  0  0  0
  191.8950  172.6590  143.6750 C   0  0  0  0  0  0  0  0  0  0  0  0
  194.9430  173.2870  145.4480 C   0  0  0  0  0  3  0  0  0  0  0  0
  193.0900  172.5540  144.3940 C   0  0  0  0  0  0  0  0  0  0  0  0
  189.5470  172.9730  142.2520 C   0  0  0  0  0  0  0  0  0  0  0  0
  189.6530  175.1810  142.1600 O   0  0  0  0  0  0  0  0  0  0  0  0
  194.9190  171.8960  145.5290 C   0  0  0  0  0  3  0  0  0  0  0  0
  188.4130  172.8680  140.1860 O   0  0  0  0  0  0  0  0  0  0  0  0
  188.4920  173.9740  139.4100 N   0  0  0  0  0  2  0  0  0  0  0  0
  188.3290  173.5330  138.0360 C   0  0  0  0  0  1  0  0  0  0  0  0
  191.7660  176.4960  143.3680 C   0  0  0  0  0  2  0  0  0  0  0  0
  191.5610  177.2860  144.6480 C   0  0  0  0  0  2  0  0  0  0  0  0
  190.1860  177.7480  144.7240 N   0  0  0  0  0  2  0  0  0  0  0  0
  189.4770  176.8420  145.6170 C   0  0  0  0  0  2  0  0  0  0  0  0
  187.0520  176.6090  146.2750 C   0  0  0  0  0  2  0  0  0  0  0  0
  184.8830  179.2040  144.2510 S   0  0  0  0  0  0  0  0  0  0  0  0
  187.5660  177.7940  143.8220 S   0  0  0  0  0  0  0  0  0  0  0  0
  188.0610  176.5820  145.1200 C   0  0  1  0  0  3  0  0  0  0  0  0
  184.8010  177.8030  146.6340 C   0  0  0  0  0  2  0  0  0  0  0  0
  186.3440  178.4430  144.9740 C   0  0  2  0  0  3  0  0  0  0  0  0
  185.8320  177.2590  145.6900 C   0  0  1  0  0  3  0  0  0  0  0  0
  183.9590  178.7570  145.7810 C   0  0  0  0  0  2  0  0  0  0  0  0
  1  6  2  0  0  0  0
  2  7  1  0  0  0  0
  3 17  1  0  0  0  0
  4 18  1  6  0  0  0
  4 15  1  0  0  0  0
  5  9  1  0  0  0  0
  6 13  1  0  0  0  0
  7 12  2  0  0  0  0
  8  1  1  0  0  0  0
  9 12  1  0  0  0  0
  9  8  2  0  0  0  0
 10  3  1  0  0  0  0
 11  4  1  0  0  0  0
 11 16  1  0  0  0  0
 12 14  1  0  0  0  0
 13 17  2  0  0  0  0
 14  6  1  0  0  0  0
 14  3  2  0  0  0  0
 15  2  2  0  0  0  0
 15  5  1  0  0  0  0
 16  5  1  0  0  0  0
 19 18  1  0  0  0  0
 20 19  1  0  0  0  0
 21  8  1  0  0  0  0
 21 22  1  0  0  0  0
 22 23  1  0  0  0  0
 23 24  1  0  0  0  0
 26 30  1  0  0  0  0
 26 32  1  0  0  0  0
 27 28  1  0  0  0  0
 28 24  1  1  0  0  0
 28 25  1  0  0  0  0
 30 27  1  6  0  0  0
 30 31  1  0  0  0  0
 31 25  1  1  0  0  0
 31 29  1  0  0  0  0
 32 29  1  0  0  0  0
M  END
>  <MODEL>
9

>  <REMARK>
 VINA RESULT:      -7.0      2.966      7.451
  Name = 
  7 active torsions:
  status: ('A' for Active; 'I' for Inactive)
    1  A    between atoms: O_3  and  N_4
    2  A    between atoms: O_3  and  C_12
    3  A    between atoms: C_5  and  C_16
    4  A    between atoms: C_5  and  C_28
    5  A    between atoms: C_8  and  C_25
    6  A    between atoms: N_20  and  C_25
    7  A    between atoms: N_20  and  C_28
                            x       y       z     vdW  Elec       q    Type
                         _______ _______ _______ _____ _____    ______ ____

>  <TORSDO>
F 7

$$$$
