=
 OpenBabel11042416113D

 26 29  0  0  1  0  0  0  0  0999 V2000
  184.9720  178.8780  146.8570 C   0  0  0  0  0  3  0  0  0  0  0  0
  191.2620  175.9180  146.2200 C   0  0  0  0  0  0  0  0  0  0  0  0
  188.3110  177.0260  146.5520 C   0  0  2  0  0  3  0  0  0  0  0  0
  189.4410  173.8090  146.4130 O   0  0  0  0  0  1  0  0  0  0  0  0
  186.3050  178.3050  147.1240 C   0  0  0  0  0  3  0  0  0  0  0  0
  186.9730  177.6100  146.1950 C   0  0  0  0  0  0  0  0  0  0  0  0
  188.4370  176.1340  144.1930 C   0  0  1  0  0  3  0  0  0  0  0  0
  189.4470  176.2060  143.0690 C   0  0  0  0  0  2  0  0  0  0  0  0
  186.3710  177.3810  144.8340 C   0  0  0  0  0  0  0  0  0  0  0  0
  190.6060  176.7840  145.1650 C   0  0  1  0  0  3  0  0  0  0  0  0
  190.8110  176.1990  143.7640 C   0  0  2  0  0  3  0  0  0  0  0  0
  184.4150  177.8200  143.5020 O   0  0  0  0  0  0  0  0  0  0  0  0
  189.3320  174.7910  147.3990 C   0  0  2  0  0  3  0  0  0  0  0  0
  189.0980  176.9710  145.2520 C   0  0  2  0  0  3  0  0  0  0  0  0
  188.0810  175.6420  147.1770 C   0  0  0  0  0  2  0  0  0  0  0  0
  185.0170  177.9560  144.6000 C   0  0  0  0  0  0  0  0  0  0  0  0
  187.0530  176.6870  143.8800 C   0  0  0  0  0  0  0  0  0  0  0  0
  184.3680  178.7150  145.6790 C   0  0  0  0  0  3  0  0  0  0  0  0
  190.6190  175.6000  147.5390 C   0  0  0  0  0  2  0  0  0  0  0  0
  192.3970  175.5130  146.0280 O   0  0  0  0  0  0  0  0  0  0  0  0
  186.7970  177.0680  141.4330 C   0  0  0  0  0  1  0  0  0  0  0  0
  186.4360  176.4260  142.6460 O   0  0  0  0  0  0  0  0  0  0  0  0
  191.8130  177.0400  142.9900 C   0  0  0  0  0  2  0  0  0  0  0  0
  193.0080  176.2290  142.6240 C   0  0  0  0  0  0  0  0  0  0  0  0
  192.9770  175.4830  141.6100 O   0  0  0  0  0  0  0  0  0  0  0  0
  194.1690  176.3200  143.3800 O   0  0  0  0  0  1  0  0  0  0  0  0
  1  5  1  0  0  0  0
  2 19  1  0  0  0  0
  3 15  1  6  0  0  0
  6  3  1  0  0  0  0
  6  5  2  0  0  0  0
  7  8  1  6  0  0  0
  7 14  1  0  0  0  0
  8 11  1  0  0  0  0
  9  6  1  0  0  0  0
 10 14  1  0  0  0  0
 10  2  1  1  0  0  0
 11 23  1  6  0  0  0
 11 10  1  0  0  0  0
 12 16  2  0  0  0  0
 13  4  1  6  0  0  0
 13 19  1  0  0  0  0
 14  3  1  0  0  0  0
 15 13  1  0  0  0  0
 16  9  1  0  0  0  0
 16 18  1  0  0  0  0
 17  7  1  0  0  0  0
 17  9  2  0  0  0  0
 18  1  2  0  0  0  0
 20  2  2  0  0  0  0
 21 22  1  0  0  0  0
 22 17  1  0  0  0  0
 24 23  1  0  0  0  0
 24 26  1  0  0  0  0
 25 24  2  0  0  0  0
M  END
>  <MODEL>
1

>  <REMARK>
 VINA RESULT:      -8.2      0.000      0.000
  Name = 
  3 active torsions:
  status: ('A' for Active; 'I' for Inactive)
    1  A    between atoms: C_3  and  C_22
    2  A    between atoms: O_9  and  C_23
    3  A    between atoms: C_14  and  C_22
                            x       y       z     vdW  Elec       q    Type
                         _______ _______ _______ _____ _____    ______ ____

>  <TORSDO>
F 3

$$$$
=
 OpenBabel11042416113D

 26 29  0  0  1  0  0  0  0  0999 V2000
  193.4890  176.6130  144.0910 C   0  0  0  0  0  3  0  0  0  0  0  0
  186.8950  177.4490  141.9580 C   0  0  0  0  0  0  0  0  0  0  0  0
  189.8540  176.8150  142.9000 C   0  0  2  0  0  3  0  0  0  0  0  0
  187.2530  174.6970  142.2750 O   0  0  0  0  0  1  0  0  0  0  0  0
  192.2710  176.7850  143.2760 C   0  0  0  0  0  3  0  0  0  0  0  0
  191.0470  176.6610  143.8020 C   0  0  0  0  0  0  0  0  0  0  0  0
  188.4000  176.4240  144.9280 C   0  0  1  0  0  3  0  0  0  0  0  0
  187.2420  177.1510  145.5770 C   0  0  0  0  0  2  0  0  0  0  0  0
  190.8730  176.3270  145.2600 C   0  0  0  0  0  0  0  0  0  0  0  0
  187.4520  177.9750  143.2650 C   0  0  1  0  0  3  0  0  0  0  0  0
  186.4600  177.7640  144.4120 C   0  0  2  0  0  3  0  0  0  0  0  0
  192.0930  175.8540  147.2790 O   0  0  0  0  0  0  0  0  0  0  0  0
  188.2230  175.3460  141.5090 C   0  0  2  0  0  3  0  0  0  0  0  0
  188.7340  177.3400  143.7840 C   0  0  2  0  0  3  0  0  0  0  0  0
  189.5400  175.4470  142.2790 C   0  0  0  0  0  2  0  0  0  0  0  0
  192.1190  176.1430  146.0540 C   0  0  0  0  0  0  0  0  0  0  0  0
  189.6290  176.2140  145.8040 C   0  0  0  0  0  0  0  0  0  0  0  0
  193.4200  176.3110  145.3890 C   0  0  0  0  0  3  0  0  0  0  0  0
  187.7170  176.6800  140.9640 C   0  0  0  0  0  2  0  0  0  0  0  0
  185.7440  177.7190  141.6560 O   0  0  0  0  0  0  0  0  0  0  0  0
  188.9770  174.5750  147.5600 C   0  0  0  0  0  1  0  0  0  0  0  0
  189.4970  175.8300  147.1470 O   0  0  0  0  0  0  0  0  0  0  0  0
  185.8430  179.0920  144.8200 C   0  0  0  0  0  2  0  0  0  0  0  0
  184.3640  178.9670  144.9510 C   0  0  0  0  0  0  0  0  0  0  0  0
  183.6330  179.0420  143.9290 O   0  0  0  0  0  0  0  0  0  0  0  0
  183.7940  178.7330  146.1940 O   0  0  0  0  0  1  0  0  0  0  0  0
  1 18  2  0  0  0  0
  3 15  1  1  0  0  0
  3 14  1  0  0  0  0
  3  6  1  0  0  0  0
  5  6  2  0  0  0  0
  5  1  1  0  0  0  0
  6  9  1  0  0  0  0
  7  8  1  1  0  0  0
  7 17  1  0  0  0  0
  9 17  2  0  0  0  0
  9 16  1  0  0  0  0
 10  2  1  6  0  0  0
 10 14  1  0  0  0  0
 10 11  1  0  0  0  0
 11 23  1  1  0  0  0
 11  8  1  0  0  0  0
 13  4  1  1  0  0  0
 13 15  1  0  0  0  0
 14  7  1  0  0  0  0
 16 12  2  0  0  0  0
 17 22  1  0  0  0  0
 18 16  1  0  0  0  0
 19 13  1  0  0  0  0
 19  2  1  0  0  0  0
 20  2  2  0  0  0  0
 22 21  1  0  0  0  0
 23 24  1  0  0  0  0
 24 26  1  0  0  0  0
 25 24  2  0  0  0  0
M  END
>  <MODEL>
2

>  <REMARK>
 VINA RESULT:      -8.1      1.879      6.690
  Name = 
  3 active torsions:
  status: ('A' for Active; 'I' for Inactive)
    1  A    between atoms: C_3  and  C_22
    2  A    between atoms: O_9  and  C_23
    3  A    between atoms: C_14  and  C_22
                            x       y       z     vdW  Elec       q    Type
                         _______ _______ _______ _____ _____    ______ ____

>  <TORSDO>
F 3

$$$$
=
 OpenBabel11042416113D

 26 29  0  0  1  0  0  0  0  0999 V2000
  183.9260  178.6610  146.1120 C   0  0  0  0  0  3  0  0  0  0  0  0
  187.7650  175.7370  141.0690 C   0  0  0  0  0  0  0  0  0  0  0  0
  186.1660  177.2770  143.3310 C   0  0  2  0  0  3  0  0  0  0  0  0
  188.9930  178.1780  141.6460 O   0  0  0  0  0  1  0  0  0  0  0  0
  184.4610  178.2210  144.8100 C   0  0  0  0  0  3  0  0  0  0  0  0
  185.6740  177.6670  144.6960 C   0  0  0  0  0  0  0  0  0  0  0  0
  188.2760  176.4440  144.4410 C   0  0  1  0  0  3  0  0  0  0  0  0
  189.0580  175.1480  144.4280 C   0  0  0  0  0  2  0  0  0  0  0  0
  186.5450  177.4810  145.9110 C   0  0  0  0  0  0  0  0  0  0  0  0
  187.5810  175.1590  142.4560 C   0  0  1  0  0  3  0  0  0  0  0  0
  188.9000  174.6080  143.0040 C   0  0  2  0  0  3  0  0  0  0  0  0
  186.6280  177.8510  148.2870 O   0  0  0  0  0  0  0  0  0  0  0  0
  187.6190  178.2380  141.4030 C   0  0  2  0  0  3  0  0  0  0  0  0
  187.1120  176.1070  143.5510 C   0  0  2  0  0  3  0  0  0  0  0  0
  186.8530  178.4960  142.7000 C   0  0  0  0  0  2  0  0  0  0  0  0
  185.9840  177.9490  147.2090 C   0  0  0  0  0  0  0  0  0  0  0  0
  187.7740  176.9030  145.8040 C   0  0  0  0  0  0  0  0  0  0  0  0
  184.6360  178.5370  147.2340 C   0  0  0  0  0  3  0  0  0  0  0  0
  187.1280  177.0210  140.6210 C   0  0  0  0  0  2  0  0  0  0  0  0
  188.4010  175.1000  140.2440 O   0  0  0  0  0  0  0  0  0  0  0  0
  189.8400  177.4770  147.0690 C   0  0  0  0  0  1  0  0  0  0  0  0
  188.5920  176.8110  146.9400 O   0  0  0  0  0  0  0  0  0  0  0  0
  188.8690  173.0880  143.0070 C   0  0  0  0  0  2  0  0  0  0  0  0
  189.9860  172.5370  142.1890 C   0  0  0  0  0  0  0  0  0  0  0  0
  190.8500  173.3110  141.7010 O   0  0  0  0  0  0  0  0  0  0  0  0
  190.0950  171.1670  141.9930 O   0  0  0  0  0  1  0  0  0  0  0  0
  1 18  2  0  0  0  0
  3 15  1  1  0  0  0
  3 14  1  0  0  0  0
  3  6  1  0  0  0  0
  5  1  1  0  0  0  0
  6  5  2  0  0  0  0
  6  9  1  0  0  0  0
  7  8  1  1  0  0  0
  7 17  1  0  0  0  0
  9 16  1  0  0  0  0
 10  2  1  6  0  0  0
 10 11  1  0  0  0  0
 10 14  1  0  0  0  0
 11 23  1  1  0  0  0
 11  8  1  0  0  0  0
 13  4  1  1  0  0  0
 13 15  1  0  0  0  0
 14  7  1  0  0  0  0
 16 18  1  0  0  0  0
 16 12  2  0  0  0  0
 17  9  2  0  0  0  0
 17 22  1  0  0  0  0
 19  2  1  0  0  0  0
 19 13  1  0  0  0  0
 20  2  2  0  0  0  0
 22 21  1  0  0  0  0
 24 23  1  0  0  0  0
 25 24  2  0  0  0  0
 26 24  1  0  0  0  0
M  END
>  <MODEL>
3

>  <REMARK>
 VINA RESULT:      -8.0      2.528      4.594
  Name = 
  3 active torsions:
  status: ('A' for Active; 'I' for Inactive)
    1  A    between atoms: C_3  and  C_22
    2  A    between atoms: O_9  and  C_23
    3  A    between atoms: C_14  and  C_22
                            x       y       z     vdW  Elec       q    Type
                         _______ _______ _______ _____ _____    ______ ____

>  <TORSDO>
F 3

$$$$
=
 OpenBabel11042416113D

 26 29  0  0  1  0  0  0  0  0999 V2000
  185.4250  179.1190  143.6630 C   0  0  0  0  0  3  0  0  0  0  0  0
  191.2350  176.4000  146.4150 C   0  0  0  0  0  0  0  0  0  0  0  0
  188.4780  177.4130  145.2240 C   0  0  2  0  0  3  0  0  0  0  0  0
  189.3660  174.3240  146.3710 O   0  0  0  0  0  1  0  0  0  0  0  0
  186.4960  178.6980  144.5860 C   0  0  0  0  0  3  0  0  0  0  0  0
  187.4400  177.8220  144.2180 C   0  0  0  0  0  0  0  0  0  0  0  0
  189.4960  175.9570  143.4290 C   0  0  1  0  0  3  0  0  0  0  0  0
  190.8790  175.7900  142.8360 C   0  0  0  0  0  2  0  0  0  0  0  0
  187.4300  177.2260  142.8350 C   0  0  0  0  0  0  0  0  0  0  0  0
  191.1190  176.9360  145.0040 C   0  0  1  0  0  3  0  0  0  0  0  0
  191.8390  176.0250  144.0050 C   0  0  2  0  0  3  0  0  0  0  0  0
  186.2150  177.2180  140.7570 O   0  0  0  0  0  0  0  0  0  0  0  0
  188.9270  175.5190  146.9450 C   0  0  2  0  0  3  0  0  0  0  0  0
  189.7200  177.0670  144.4180 C   0  0  2  0  0  3  0  0  0  0  0  0
  187.9300  176.2240  146.0260 C   0  0  0  0  0  2  0  0  0  0  0  0
  186.3270  177.6580  141.9320 C   0  0  0  0  0  0  0  0  0  0  0  0
  188.3960  176.3460  142.4500 C   0  0  0  0  0  0  0  0  0  0  0  0
  185.3420  178.6330  142.4240 C   0  0  0  0  0  3  0  0  0  0  0  0
  190.0930  176.3970  147.3910 C   0  0  0  0  0  2  0  0  0  0  0  0
  192.3230  176.0140  146.8120 O   0  0  0  0  0  0  0  0  0  0  0  0
  188.2650  174.3470  140.9710 C   0  0  0  0  0  1  0  0  0  0  0  0
  188.3190  175.7500  141.1810 O   0  0  0  0  0  0  0  0  0  0  0  0
  193.1190  176.6880  143.5240 C   0  0  0  0  0  2  0  0  0  0  0  0
  194.3030  175.8410  143.8430 C   0  0  0  0  0  0  0  0  0  0  0  0
  195.4650  176.2940  143.6760 O   0  0  0  0  0  0  0  0  0  0  0  0
  194.1260  174.5640  144.3580 O   0  0  0  0  0  1  0  0  0  0  0  0
  1  5  1  0  0  0  0
  2 20  2  0  0  0  0
  2 19  1  0  0  0  0
  3 15  1  6  0  0  0
  6  5  2  0  0  0  0
  6  3  1  0  0  0  0
  7  8  1  6  0  0  0
  7 14  1  0  0  0  0
  8 11  1  0  0  0  0
  9  6  1  0  0  0  0
 10  2  1  1  0  0  0
 11 23  1  6  0  0  0
 11 10  1  0  0  0  0
 12 16  2  0  0  0  0
 13  4  1  6  0  0  0
 13 19  1  0  0  0  0
 14 10  1  0  0  0  0
 14  3  1  0  0  0  0
 15 13  1  0  0  0  0
 16 18  1  0  0  0  0
 16  9  1  0  0  0  0
 17  9  2  0  0  0  0
 17  7  1  0  0  0  0
 18  1  2  0  0  0  0
 21 22  1  0  0  0  0
 22 17  1  0  0  0  0
 23 24  1  0  0  0  0
 24 26  1  0  0  0  0
 25 24  2  0  0  0  0
M  END
>  <MODEL>
4

>  <REMARK>
 VINA RESULT:      -7.6      1.614      2.075
  Name = 
  3 active torsions:
  status: ('A' for Active; 'I' for Inactive)
    1  A    between atoms: C_3  and  C_22
    2  A    between atoms: O_9  and  C_23
    3  A    between atoms: C_14  and  C_22
                            x       y       z     vdW  Elec       q    Type
                         _______ _______ _______ _____ _____    ______ ____

>  <TORSDO>
F 3

$$$$
=
 OpenBabel11042416113D

 26 29  0  0  1  0  0  0  0  0999 V2000
  190.5080  172.5690  141.0530 C   0  0  0  0  0  3  0  0  0  0  0  0
  189.1510  176.9600  146.3070 C   0  0  0  0  0  0  0  0  0  0  0  0
  189.9090  175.1540  143.8160 C   0  0  2  0  0  3  0  0  0  0  0  0
  190.5130  178.4640  144.3870 O   0  0  0  0  0  1  0  0  0  0  0  0
  190.5660  173.3420  142.3080 C   0  0  0  0  0  3  0  0  0  0  0  0
  189.7670  174.3930  142.5270 C   0  0  0  0  0  0  0  0  0  0  0  0
  188.0290  176.6430  143.0250 C   0  0  1  0  0  3  0  0  0  0  0  0
  186.7090  177.1060  143.6020 C   0  0  0  0  0  2  0  0  0  0  0  0
  188.7760  174.8290  141.4800 C   0  0  0  0  0  0  0  0  0  0  0  0
  188.0980  176.2780  145.4600 C   0  0  1  0  0  3  0  0  0  0  0  0
  186.9640  177.2430  145.1050 C   0  0  2  0  0  3  0  0  0  0  0  0
  187.9690  174.3200  139.2710 O   0  0  0  0  0  0  0  0  0  0  0  0
  191.1170  177.2580  144.7470 C   0  0  2  0  0  3  0  0  0  0  0  0
  188.5330  175.7320  144.1080 C   0  0  2  0  0  3  0  0  0  0  0  0
  190.9860  176.2310  143.6220 C   0  0  0  0  0  2  0  0  0  0  0  0
  188.7510  174.0400  140.2180 C   0  0  0  0  0  0  0  0  0  0  0  0
  187.9490  175.8890  141.7040 C   0  0  0  0  0  0  0  0  0  0  0  0
  189.6620  172.8940  140.0740 C   0  0  0  0  0  3  0  0  0  0  0  0
  190.6260  176.7600  146.1050 C   0  0  0  0  0  2  0  0  0  0  0  0
  188.7950  177.6520  147.2470 O   0  0  0  0  0  0  0  0  0  0  0  0
  187.0340  177.6540  140.2060 C   0  0  0  0  0  1  0  0  0  0  0  0
  187.0880  176.3180  140.6820 O   0  0  0  0  0  0  0  0  0  0  0  0
  185.7130  176.8930  145.8960 C   0  0  0  0  0  2  0  0  0  0  0  0
  185.0590  178.1250  146.4190 C   0  0  0  0  0  0  0  0  0  0  0  0
  185.6130  178.7930  147.3310 O   0  0  0  0  0  1  0  0  0  0  0  0
  183.8560  178.5570  145.8790 O   0  0  0  0  0  0  0  0  0  0  0  0
  1  5  1  0  0  0  0
  2 20  2  0  0  0  0
  3 15  1  6  0  0  0
  3 14  1  0  0  0  0
  5  6  2  0  0  0  0
  6  3  1  0  0  0  0
  7  8  1  1  0  0  0
  7 14  1  0  0  0  0
  8 11  1  0  0  0  0
  9 17  2  0  0  0  0
  9  6  1  0  0  0  0
 10  2  1  6  0  0  0
 11 10  1  0  0  0  0
 11 23  1  1  0  0  0
 12 16  2  0  0  0  0
 13  4  1  6  0  0  0
 13 19  1  0  0  0  0
 14 10  1  0  0  0  0
 15 13  1  0  0  0  0
 16  9  1  0  0  0  0
 17  7  1  0  0  0  0
 18 16  1  0  0  0  0
 18  1  2  0  0  0  0
 19  2  1  0  0  0  0
 21 22  1  0  0  0  0
 22 17  1  0  0  0  0
 23 24  1  0  0  0  0
 24 25  1  0  0  0  0
 26 24  2  0  0  0  0
M  END
>  <MODEL>
5

>  <REMARK>
 VINA RESULT:      -7.3      2.503      5.912
  Name = 
  3 active torsions:
  status: ('A' for Active; 'I' for Inactive)
    1  A    between atoms: C_3  and  C_22
    2  A    between atoms: O_9  and  C_23
    3  A    between atoms: C_14  and  C_22
                            x       y       z     vdW  Elec       q    Type
                         _______ _______ _______ _____ _____    ______ ____

>  <TORSDO>
F 3

$$$$
=
 OpenBabel11042416113D

 26 29  0  0  1  0  0  0  0  0999 V2000
  185.9000  177.9610  140.6200 C   0  0  0  0  0  3  0  0  0  0  0  0
  191.5330  175.2440  143.7210 C   0  0  0  0  0  0  0  0  0  0  0  0
  189.0520  176.7080  142.4000 C   0  0  2  0  0  3  0  0  0  0  0  0
  191.4390  177.9200  144.5180 O   0  0  0  0  0  1  0  0  0  0  0  0
  187.2630  177.4830  140.9220 C   0  0  0  0  0  3  0  0  0  0  0  0
  187.6360  177.1530  142.1650 C   0  0  0  0  0  0  0  0  0  0  0  0
  188.4450  176.4110  144.8330 C   0  0  1  0  0  3  0  0  0  0  0  0
  188.5660  175.2890  145.8420 C   0  0  0  0  0  2  0  0  0  0  0  0
  186.6650  177.2700  143.3090 C   0  0  0  0  0  0  0  0  0  0  0  0
  190.1090  174.8040  143.9830 C   0  0  1  0  0  3  0  0  0  0  0  0
  189.8690  174.5710  145.4780 C   0  0  2  0  0  3  0  0  0  0  0  0
  184.4120  177.9160  143.8560 O   0  0  0  0  0  0  0  0  0  0  0  0
  191.3380  177.6970  143.1430 C   0  0  2  0  0  3  0  0  0  0  0  0
  188.9970  175.7660  143.5920 C   0  0  2  0  0  3  0  0  0  0  0  0
  189.9120  177.9540  142.6570 C   0  0  0  0  0  2  0  0  0  0  0  0
  185.3020  177.7710  142.9770 C   0  0  0  0  0  0  0  0  0  0  0  0
  187.0340  176.9210  144.5740 C   0  0  0  0  0  0  0  0  0  0  0  0
  184.9830  178.0980  141.5790 C   0  0  0  0  0  3  0  0  0  0  0  0
  191.8930  176.3300  142.7480 C   0  0  0  0  0  2  0  0  0  0  0  0
  192.4460  174.6470  144.2690 O   0  0  0  0  0  0  0  0  0  0  0  0
  186.3460  178.0260  146.6950 C   0  0  0  0  0  1  0  0  0  0  0  0
  186.1310  177.1110  145.6310 O   0  0  0  0  0  0  0  0  0  0  0  0
  189.7590  173.0820  145.7630 C   0  0  0  0  0  2  0  0  0  0  0  0
  189.9720  172.2910  144.5180 C   0  0  0  0  0  0  0  0  0  0  0  0
  191.0890  171.7550  144.2960 O   0  0  0  0  0  1  0  0  0  0  0  0
  188.9300  172.1150  143.6190 O   0  0  0  0  0  0  0  0  0  0  0  0
  1  5  1  0  0  0  0
  1 18  2  0  0  0  0
  2 20  2  0  0  0  0
  3 15  1  1  0  0  0
  3 14  1  0  0  0  0
  5  6  2  0  0  0  0
  6  3  1  0  0  0  0
  6  9  1  0  0  0  0
  7  8  1  1  0  0  0
  9 17  2  0  0  0  0
 10  2  1  1  0  0  0
 10 11  1  0  0  0  0
 11 23  1  6  0  0  0
 11  8  1  0  0  0  0
 13  4  1  1  0  0  0
 14 10  1  0  0  0  0
 14  7  1  0  0  0  0
 15 13  1  0  0  0  0
 16  9  1  0  0  0  0
 16 12  2  0  0  0  0
 17  7  1  0  0  0  0
 17 22  1  0  0  0  0
 18 16  1  0  0  0  0
 19 13  1  0  0  0  0
 19  2  1  0  0  0  0
 22 21  1  0  0  0  0
 24 23  1  0  0  0  0
 25 24  1  0  0  0  0
 26 24  2  0  0  0  0
M  END
>  <MODEL>
6

>  <REMARK>
 VINA RESULT:      -6.8      1.899      4.155
  Name = 
  3 active torsions:
  status: ('A' for Active; 'I' for Inactive)
    1  A    between atoms: C_3  and  C_22
    2  A    between atoms: O_9  and  C_23
    3  A    between atoms: C_14  and  C_22
                            x       y       z     vdW  Elec       q    Type
                         _______ _______ _______ _____ _____    ______ ____

>  <TORSDO>
F 3

$$$$
=
 OpenBabel11042416113D

 26 29  0  0  1  0  0  0  0  0999 V2000
  187.1560  177.6090  145.1090 C   0  0  0  0  0  3  0  0  0  0  0  0
  194.0310  176.4020  145.1080 C   0  0  0  0  0  0  0  0  0  0  0  0
  190.8820  176.7330  145.2440 C   0  0  2  0  0  3  0  0  0  0  0  0
  192.8560  174.1240  146.2160 O   0  0  0  0  0  1  0  0  0  0  0  0
  188.5880  177.5540  145.4600 C   0  0  0  0  0  3  0  0  0  0  0  0
  189.4450  176.7620  144.8050 C   0  0  0  0  0  0  0  0  0  0  0  0
  191.3100  175.0800  143.3820 C   0  0  1  0  0  3  0  0  0  0  0  0
  192.2900  174.9850  142.2330 C   0  0  0  0  0  2  0  0  0  0  0  0
  188.9650  175.8840  143.6800 C   0  0  0  0  0  0  0  0  0  0  0  0
  193.1910  176.5970  143.8630 C   0  0  1  0  0  3  0  0  0  0  0  0
  193.5850  175.6020  142.7690 C   0  0  2  0  0  3  0  0  0  0  0  0
  186.9990  175.2520  142.4430 O   0  0  0  0  0  0  0  0  0  0  0  0
  192.4550  175.3400  146.7730 C   0  0  2  0  0  3  0  0  0  0  0  0
  191.6880  176.3980  143.9980 C   0  0  2  0  0  3  0  0  0  0  0  0
  191.0260  175.6810  146.3540 C   0  0  0  0  0  2  0  0  0  0  0  0
  187.5120  175.9480  143.3590 C   0  0  0  0  0  0  0  0  0  0  0  0
  189.8350  175.0870  142.9990 C   0  0  0  0  0  0  0  0  0  0  0  0
  186.6510  176.8580  144.1290 C   0  0  0  0  0  3  0  0  0  0  0  0
  193.4670  176.4510  146.4990 C   0  0  0  0  0  2  0  0  0  0  0  0
  195.2390  176.2700  144.9880 O   0  0  0  0  0  0  0  0  0  0  0  0
  189.3520  172.8090  142.1170 C   0  0  0  0  0  1  0  0  0  0  0  0
  189.3470  174.2250  142.0050 O   0  0  0  0  0  0  0  0  0  0  0  0
  194.3370  176.3180  141.6590 C   0  0  0  0  0  2  0  0  0  0  0  0
  195.7060  175.7520  141.5010 C   0  0  0  0  0  0  0  0  0  0  0  0
  196.5420  176.3240  140.7530 O   0  0  0  0  0  0  0  0  0  0  0  0
  196.0730  174.6130  142.2040 O   0  0  0  0  0  1  0  0  0  0  0  0
  1  5  1  0  0  0  0
  2 19  1  0  0  0  0
  3 15  1  1  0  0  0
  6  3  1  0  0  0  0
  6  5  2  0  0  0  0
  7  8  1  6  0  0  0
  7 14  1  0  0  0  0
  8 11  1  0  0  0  0
  9  6  1  0  0  0  0
 10 14  1  0  0  0  0
 10  2  1  1  0  0  0
 11 23  1  6  0  0  0
 11 10  1  0  0  0  0
 12 16  2  0  0  0  0
 13  4  1  6  0  0  0
 14  3  1  0  0  0  0
 15 13  1  0  0  0  0
 16  9  1  0  0  0  0
 16 18  1  0  0  0  0
 17  7  1  0  0  0  0
 17  9  2  0  0  0  0
 18  1  2  0  0  0  0
 19 13  1  0  0  0  0
 20  2  2  0  0  0  0
 22 21  1  0  0  0  0
 22 17  1  0  0  0  0
 24 23  1  0  0  0  0
 24 26  1  0  0  0  0
 25 24  2  0  0  0  0
M  END
>  <MODEL>
7

>  <REMARK>
 VINA RESULT:      -6.6      1.961      3.275
  Name = 
  3 active torsions:
  status: ('A' for Active; 'I' for Inactive)
    1  A    between atoms: C_3  and  C_22
    2  A    between atoms: O_9  and  C_23
    3  A    between atoms: C_14  and  C_22
                            x       y       z     vdW  Elec       q    Type
                         _______ _______ _______ _____ _____    ______ ____

>  <TORSDO>
F 3

$$$$
=
 OpenBabel11042416113D

 26 29  0  0  1  0  0  0  0  0999 V2000
  191.5320  171.8050  141.0430 C   0  0  0  0  0  3  0  0  0  0  0  0
  191.1740  176.3190  146.3550 C   0  0  0  0  0  0  0  0  0  0  0  0
  191.4320  174.4620  143.8000 C   0  0  2  0  0  3  0  0  0  0  0  0
  191.8900  177.8290  144.1170 O   0  0  0  0  0  1  0  0  0  0  0  0
  191.8380  172.6360  142.2230 C   0  0  0  0  0  3  0  0  0  0  0  0
  191.0360  173.6360  142.6090 C   0  0  0  0  0  0  0  0  0  0  0  0
  189.3010  175.7760  143.4690 C   0  0  1  0  0  3  0  0  0  0  0  0
  188.1330  176.1690  144.3460 C   0  0  0  0  0  2  0  0  0  0  0  0
  189.7840  173.9530  141.8330 C   0  0  0  0  0  0  0  0  0  0  0  0
  190.0010  175.5260  145.8180 C   0  0  1  0  0  3  0  0  0  0  0  0
  188.7410  176.3910  145.7340 C   0  0  2  0  0  3  0  0  0  0  0  0
  188.4980  173.2880  139.9110 O   0  0  0  0  0  0  0  0  0  0  0  0
  192.6600  176.6860  144.3440 C   0  0  2  0  0  3  0  0  0  0  0  0
  190.1300  174.9530  144.4140 C   0  0  2  0  0  3  0  0  0  0  0  0
  192.3370  175.6040  143.3150 C   0  0  0  0  0  2  0  0  0  0  0  0
  189.5110  173.1080  140.6380 C   0  0  0  0  0  0  0  0  0  0  0  0
  188.9560  174.9590  142.2300 C   0  0  0  0  0  0  0  0  0  0  0  0
  190.4460  172.0250  140.3000 C   0  0  0  0  0  3  0  0  0  0  0  0
  192.5630  176.2160  145.7940 C   0  0  0  0  0  2  0  0  0  0  0  0
  191.0080  177.0260  147.3360 O   0  0  0  0  0  0  0  0  0  0  0  0
  187.6060  176.5650  140.8900 C   0  0  0  0  0  1  0  0  0  0  0  0
  187.8370  175.2790  141.4460 O   0  0  0  0  0  0  0  0  0  0  0  0
  187.7580  175.9880  146.8220 C   0  0  0  0  0  2  0  0  0  0  0  0
  186.7010  177.0260  146.9870 C   0  0  0  0  0  0  0  0  0  0  0  0
  186.9920  178.1490  147.4740 O   0  0  0  0  0  1  0  0  0  0  0  0
  185.4020  176.7670  146.5730 O   0  0  0  0  0  0  0  0  0  0  0  0
  1  5  1  0  0  0  0
  2 20  2  0  0  0  0
  3 15  1  6  0  0  0
  3 14  1  0  0  0  0
  5  6  2  0  0  0  0
  6  3  1  0  0  0  0
  7  8  1  1  0  0  0
  7 14  1  0  0  0  0
  8 11  1  0  0  0  0
  9 17  2  0  0  0  0
  9  6  1  0  0  0  0
 10  2  1  6  0  0  0
 11 10  1  0  0  0  0
 11 23  1  1  0  0  0
 12 16  2  0  0  0  0
 13  4  1  1  0  0  0
 13 19  1  0  0  0  0
 14 10  1  0  0  0  0
 15 13  1  0  0  0  0
 16  9  1  0  0  0  0
 17  7  1  0  0  0  0
 18 16  1  0  0  0  0
 18  1  2  0  0  0  0
 19  2  1  0  0  0  0
 21 22  1  0  0  0  0
 22 17  1  0  0  0  0
 23 24  1  0  0  0  0
 24 25  1  0  0  0  0
 26 24  2  0  0  0  0
M  END
>  <MODEL>
8

>  <REMARK>
 VINA RESULT:      -6.5      2.699      5.967
  Name = 
  3 active torsions:
  status: ('A' for Active; 'I' for Inactive)
    1  A    between atoms: C_3  and  C_22
    2  A    between atoms: O_9  and  C_23
    3  A    between atoms: C_14  and  C_22
                            x       y       z     vdW  Elec       q    Type
                         _______ _______ _______ _____ _____    ______ ____

>  <TORSDO>
F 3

$$$$
=
 OpenBabel11042416113D

 26 29  0  0  1  0  0  0  0  0999 V2000
  193.7840  176.4350  146.8290 C   0  0  0  0  0  3  0  0  0  0  0  0
  187.8210  175.9390  143.2360 C   0  0  0  0  0  0  0  0  0  0  0  0
  190.5800  176.3770  144.7310 C   0  0  2  0  0  3  0  0  0  0  0  0
  189.2660  178.0060  142.0360 O   0  0  0  0  0  1  0  0  0  0  0  0
  192.3900  176.5740  146.3640 C   0  0  0  0  0  3  0  0  0  0  0  0
  192.0100  176.1690  145.1470 C   0  0  0  0  0  0  0  0  0  0  0  0
  191.1670  175.2730  142.5360 C   0  0  1  0  0  3  0  0  0  0  0  0
  190.6030  174.1280  141.7240 C   0  0  0  0  0  2  0  0  0  0  0  0
  193.0080  175.5580  144.1990 C   0  0  0  0  0  0  0  0  0  0  0  0
  188.8700  174.8500  143.3190 C   0  0  1  0  0  3  0  0  0  0  0  0
  189.0900  174.1900  141.9550 C   0  0  2  0  0  3  0  0  0  0  0  0
  195.3280  174.9590  143.9800 O   0  0  0  0  0  0  0  0  0  0  0  0
  189.1310  178.0910  143.4230 C   0  0  2  0  0  3  0  0  0  0  0  0
  190.2720  175.2620  143.7430 C   0  0  2  0  0  3  0  0  0  0  0  0
  190.4570  177.7780  144.1150 C   0  0  0  0  0  2  0  0  0  0  0  0
  194.4090  175.4460  144.6900 C   0  0  0  0  0  0  0  0  0  0  0  0
  192.6220  175.1300  142.9650 C   0  0  0  0  0  0  0  0  0  0  0  0
  194.7290  175.9100  146.0480 C   0  0  0  0  0  3  0  0  0  0  0  0
  187.9520  177.2640  143.9310 C   0  0  0  0  0  2  0  0  0  0  0  0
  186.7820  175.7120  142.6360 O   0  0  0  0  0  0  0  0  0  0  0  0
  193.9650  175.2900  140.8740 C   0  0  0  0  0  1  0  0  0  0  0  0
  193.5880  174.6330  142.0760 O   0  0  0  0  0  0  0  0  0  0  0  0
  188.4880  172.7940  141.9480 C   0  0  0  0  0  2  0  0  0  0  0  0
  189.3200  171.8580  142.7550 C   0  0  0  0  0  0  0  0  0  0  0  0
  189.2260  171.8540  144.0100 O   0  0  0  0  0  1  0  0  0  0  0  0
  190.1750  170.9650  142.1220 O   0  0  0  0  0  0  0  0  0  0  0  0
  2 19  1  0  0  0  0
  3 15  1  6  0  0  0
  3  6  1  0  0  0  0
  5  1  1  0  0  0  0
  6  5  2  0  0  0  0
  7  8  1  6  0  0  0
  7 17  1  0  0  0  0
  7 14  1  0  0  0  0
  8 11  1  0  0  0  0
  9 16  1  0  0  0  0
  9  6  1  0  0  0  0
 10  2  1  6  0  0  0
 10 14  1  0  0  0  0
 11 23  1  1  0  0  0
 11 10  1  0  0  0  0
 12 16  2  0  0  0  0
 13  4  1  6  0  0  0
 13 19  1  0  0  0  0
 13 15  1  0  0  0  0
 14  3  1  0  0  0  0
 16 18  1  0  0  0  0
 17  9  2  0  0  0  0
 18  1  2  0  0  0  0
 20  2  2  0  0  0  0
 21 22  1  0  0  0  0
 22 17  1  0  0  0  0
 23 24  1  0  0  0  0
 24 25  1  0  0  0  0
 26 24  2  0  0  0  0
M  END
>  <MODEL>
9

>  <REMARK>
 VINA RESULT:      -6.5      2.540      6.349
  Name = 
  3 active torsions:
  status: ('A' for Active; 'I' for Inactive)
    1  A    between atoms: C_3  and  C_22
    2  A    between atoms: O_9  and  C_23
    3  A    between atoms: C_14  and  C_22
                            x       y       z     vdW  Elec       q    Type
                         _______ _______ _______ _____ _____    ______ ____

>  <TORSDO>
F 3

$$$$
