=
 OpenBabel11042417053D

 44 49  0  0  1  0  0  0  0  0999 V2000
  192.1970  176.4830  143.2830 C   0  0  0  0  0  3  0  0  0  0  0  0
  191.4300  176.3640  144.3770 C   0  0  0  0  0  0  0  0  0  0  0  0
  192.9720  175.3500  142.6830 C   0  0  1  0  0  3  0  0  0  0  0  0
  192.1770  174.7330  141.5430 C   0  0  0  0  0  1  0  0  0  0  0  0
  194.2370  175.8550  142.1790 N   0  0  0  0  0  2  0  0  0  0  0  0
  194.6360  175.0050  141.1370 N   0  0  0  0  0  2  0  0  0  0  0  0
  196.2790  173.2230  141.9000 C   0  0  2  0  0  0  0  0  0  0  0  0
  196.9060  175.6310  141.7820 O   0  0  0  0  0  1  0  0  0  0  0  0
  195.0800  172.3130  142.1350 C   0  0  0  0  0  1  0  0  0  0  0  0
  196.0200  174.6240  141.3860 C   0  0  2  0  0  0  0  0  0  0  0  0
  196.6000  173.5780  140.4480 C   0  0  0  0  0  2  0  0  0  0  0  0
  197.4320  173.1020  142.7870 N   0  0  0  0  0  2  0  0  0  0  0  0
  196.9590  172.8440  144.1380 C   0  0  0  0  0  2  0  0  0  0  0  0
  194.9740  175.6590  145.9290 C   0  0  0  0  0  1  0  0  0  0  0  0
  196.6020  173.9160  146.2530 O   0  0  0  0  0  0  0  0  0  0  0  0
  195.4420  174.2730  145.5420 C   0  0  0  0  0  0  0  0  0  0  0  0
  194.4330  173.1330  145.5360 C   0  0  0  0  0  1  0  0  0  0  0  0
  196.7650  174.1610  144.8720 C   0  0  2  0  0  3  0  0  0  0  0  0
  191.2810  175.0420  145.0860 C   0  0  1  0  0  3  0  0  0  0  0  0
  191.4350  175.2170  146.5870 C   0  0  0  0  0  1  0  0  0  0  0  0
  189.9430  174.4040  144.7490 C   0  0  0  0  0  2  0  0  0  0  0  0
  190.1170  172.9780  144.2590 C   0  0  0  0  0  2  0  0  0  0  0  0
  189.8920  172.1310  142.0280 O   0  0  0  0  0  0  0  0  0  0  0  0
  188.6050  174.0280  142.6020 C   0  0  0  0  0  2  0  0  0  0  0  0
  189.2160  172.5290  140.8640 C   0  0  0  0  0  2  0  0  0  0  0  0
  189.1860  172.7220  143.0880 C   0  0  2  0  0  3  0  0  0  0  0  0
  188.5680  173.8710  141.1110 C   0  0  0  0  0  2  0  0  0  0  0  0
  190.6570  177.5680  144.8360 C   0  0  0  0  0  2  0  0  0  0  0  0
  188.1590  177.7550  144.6930 C   0  0  0  0  0  0  0  0  0  0  0  0
  189.3520  177.6740  144.1130 C   0  0  0  0  0  0  0  0  0  0  0  0
  187.8160  177.8110  146.0470 C   0  0  0  0  0  3  0  0  0  0  0  0
  185.8350  177.8250  144.0240 C   0  0  1  0  0  3  0  0  0  0  0  0
  187.2020  177.5950  140.2000 O   0  0  0  0  0  0  0  0  0  0  0  0
  184.8940  177.8160  142.8730 C   0  0  0  0  0  3  0  0  0  0  0  0
  186.7740  177.6710  141.3800 C   0  0  0  0  0  0  0  0  0  0  0  0
  186.4470  177.8750  146.3900 C   0  0  0  0  0  0  0  0  0  0  0  0
  185.4490  177.8880  145.3760 C   0  0  0  0  0  0  0  0  0  0  0  0
  185.3550  177.7430  141.6490 N   0  0  0  0  0  0  0  0  0  0  0  0
  189.1840  177.6160  142.6090 C   0  0  0  0  0  3  0  0  0  0  0  0
  187.6900  177.6880  142.5290 C   0  0  0  0  0  0  0  0  0  0  0  0
  187.1910  177.7620  143.7370 C   0  0  0  0  0  0  0  0  0  0  0  0
  184.1010  177.9610  145.7130 O   0  0  0  0  0  1  0  0  0  0  0  0
  186.0640  177.9450  147.8300 C   0  0  0  0  0  2  0  0  0  0  0  0
  186.7880  179.0910  148.5100 C   0  0  0  0  0  1  0  0  0  0  0  0
  1  2  2  0  0  0  0
  2 28  1  0  0  0  0
  2 19  1  0  0  0  0
  3  4  1  6  0  0  0
  3  1  1  0  0  0  0
  5  3  1  0  0  0  0
  6 10  1  0  0  0  0
  6  5  1  0  0  0  0
  7  9  1  1  0  0  0
  7 12  1  0  0  0  0
 10  8  1  1  0  0  0
 10  7  1  0  0  0  0
 11 10  1  0  0  0  0
 11  7  1  0  0  0  0
 12 13  1  0  0  0  0
 16 14  1  0  0  0  0
 16 15  1  0  0  0  0
 17 16  1  0  0  0  0
 18 13  1  6  0  0  0
 18 16  1  0  0  0  0
 18 15  1  0  0  0  0
 19 20  1  1  0  0  0
 21 19  1  0  0  0  0
 22 21  1  0  0  0  0
 23 26  1  0  0  0  0
 24 26  1  0  0  0  0
 25 27  1  0  0  0  0
 25 23  1  0  0  0  0
 26 22  1  1  0  0  0
 27 24  1  0  0  0  0
 29 31  2  0  0  0  0
 30 29  1  0  0  0  0
 30 28  1  0  0  0  0
 31 36  1  0  0  0  0
 32 34  1  1  0  0  0
 32 37  1  0  0  0  0
 33 35  2  0  0  0  0
 35 38  1  0  0  0  0
 35 40  1  0  0  0  0
 36 43  1  0  0  0  0
 37 42  1  0  0  0  0
 37 36  2  0  0  0  0
 38 34  2  0  0  0  0
 39 30  2  0  0  0  0
 40 39  1  0  0  0  0
 40 41  2  0  0  0  0
 41 32  1  0  0  0  0
 41 29  1  0  0  0  0
 43 44  1  0  0  0  0
M  END
>  <MODEL>
1

>  <REMARK>
 VINA RESULT:      -7.1      0.000      0.000
  Name = 
  14 active torsions:
  status: ('A' for Active; 'I' for Inactive)
    1  A    between atoms: C_2  and  N_31
    2  A    between atoms: C_7  and  C_14
    3  A    between atoms: C_8  and  C_19
    4  A    between atoms: N_12  and  N_38
    5  A    between atoms: N_12  and  C_40
    6  A    between atoms: C_13  and  C_22
    7  A    between atoms: C_14  and  N_38
    8  A    between atoms: C_15  and  C_41
    9  A    between atoms: C_16  and  C_20
   10  A    between atoms: C_16  and  C_30
   11  A    between atoms: C_19  and  C_30
   12  A    between atoms: C_20  and  C_36
   13  A    between atoms: N_31  and  C_41
   14  A    between atoms: C_34  and  C_36
                            x       y       z     vdW  Elec       q    Type
                         _______ _______ _______ _____ _____    ______ ____

>  <TORSDO>
F 14

$$$$
=
 OpenBabel11042417053D

 44 49  0  0  1  0  0  0  0  0999 V2000
  191.8760  175.4940  145.6680 C   0  0  0  0  0  3  0  0  0  0  0  0
  190.5500  175.6900  145.7120 C   0  0  0  0  0  0  0  0  0  0  0  0
  192.8840  176.5960  145.7820 C   0  0  1  0  0  3  0  0  0  0  0  0
  193.3230  176.7400  147.2310 C   0  0  0  0  0  1  0  0  0  0  0  0
  194.0330  176.2770  144.9530 N   0  0  0  0  0  2  0  0  0  0  0  0
  193.6320  176.4210  143.6170 N   0  0  0  0  0  2  0  0  0  0  0  0
  194.5840  174.8350  141.8750 C   0  0  2  0  0  0  0  0  0  0  0  0
  196.0440  176.3010  143.2620 O   0  0  0  0  0  1  0  0  0  0  0  0
  193.2530  174.0970  141.9150 C   0  0  0  0  0  1  0  0  0  0  0  0
  194.7600  176.0400  142.7770 C   0  0  2  0  0  0  0  0  0  0  0  0
  194.5730  176.2450  141.2820 C   0  0  0  0  0  2  0  0  0  0  0  0
  195.8030  174.0660  141.6420 N   0  0  0  0  0  2  0  0  0  0  0  0
  195.7600  172.8620  142.4580 C   0  0  0  0  0  2  0  0  0  0  0  0
  196.8150  173.5250  146.1350 C   0  0  0  0  0  1  0  0  0  0  0  0
  196.6750  171.8380  144.4230 O   0  0  0  0  0  0  0  0  0  0  0  0
  196.0450  172.9790  144.9510 C   0  0  0  0  0  0  0  0  0  0  0  0
  194.5450  172.7590  145.0900 C   0  0  0  0  0  1  0  0  0  0  0  0
  196.7220  173.0030  143.6270 C   0  0  2  0  0  3  0  0  0  0  0  0
  189.9700  177.0690  145.8990 C   0  0  1  0  0  3  0  0  0  0  0  0
  190.1260  177.8940  144.6330 C   0  0  0  0  0  1  0  0  0  0  0  0
  188.5100  176.9810  146.3130 C   0  0  0  0  0  2  0  0  0  0  0  0
  187.5940  177.5260  145.2320 C   0  0  0  0  0  2  0  0  0  0  0  0
  186.1560  177.9730  147.0970 O   0  0  0  0  0  0  0  0  0  0  0  0
  185.3680  178.5760  144.9510 C   0  0  0  0  0  2  0  0  0  0  0  0
  184.8490  178.4590  147.2670 C   0  0  0  0  0  2  0  0  0  0  0  0
  186.5760  178.4660  145.8510 C   0  0  2  0  0  3  0  0  0  0  0  0
  184.2140  178.6330  145.9070 C   0  0  0  0  0  2  0  0  0  0  0  0
  189.6520  174.4870  145.6470 C   0  0  0  0  0  2  0  0  0  0  0  0
  189.3800  174.0820  143.1860 C   0  0  0  0  0  0  0  0  0  0  0  0
  189.8620  173.7310  144.3740 C   0  0  0  0  0  0  0  0  0  0  0  0
  188.6360  175.2040  142.8100 C   0  0  0  0  0  3  0  0  0  0  0  0
  189.3260  173.1970  140.9340 C   0  0  0  0  0  0  0  0  0  0  0  0
  191.4490  170.0530  142.4020 O   0  0  0  0  0  0  0  0  0  0  0  0
  189.7430  172.0760  140.0520 C   0  0  0  0  0  3  0  0  0  0  0  0
  190.7970  171.0250  141.9410 C   0  0  0  0  0  0  0  0  0  0  0  0
  188.2310  175.3180  141.4610 C   0  0  0  0  0  0  0  0  0  0  0  0
  188.5820  174.3140  140.5150 C   0  0  0  0  0  0  0  0  0  0  0  0
  190.4280  171.0730  140.5440 N   0  0  0  0  0  0  0  0  0  0  0  0
  190.5810  172.4030  144.2600 C   0  0  0  0  0  2  0  0  0  0  0  0
  190.3830  172.1450  142.7980 C   0  0  0  0  0  0  0  0  0  0  0  0
  189.7010  173.1290  142.2690 C   0  0  0  0  0  0  0  0  0  0  0  0
  188.1910  174.4320  139.1840 O   0  0  0  0  0  1  0  0  0  0  0  0
  187.4450  176.5140  141.0400 C   0  0  0  0  0  2  0  0  0  0  0  0
  188.0650  177.7760  141.6090 C   0  0  0  0  0  1  0  0  0  0  0  0
  1  2  2  0  0  0  0
  1  3  1  0  0  0  0
  2 19  1  0  0  0  0
  3  4  1  1  0  0  0
  5  3  1  0  0  0  0
  6  5  1  0  0  0  0
  7  9  1  1  0  0  0
  7 10  1  0  0  0  0
 10  8  1  1  0  0  0
 10  6  1  0  0  0  0
 11  7  1  0  0  0  0
 11 10  1  0  0  0  0
 12  7  1  0  0  0  0
 12 13  1  0  0  0  0
 15 16  1  0  0  0  0
 16 17  1  0  0  0  0
 16 14  1  0  0  0  0
 18 13  1  6  0  0  0
 18 15  1  0  0  0  0
 18 16  1  0  0  0  0
 19 20  1  6  0  0  0
 19 21  1  0  0  0  0
 22 21  1  0  0  0  0
 23 25  1  0  0  0  0
 24 26  1  0  0  0  0
 24 27  1  0  0  0  0
 26 22  1  6  0  0  0
 26 23  1  0  0  0  0
 27 25  1  0  0  0  0
 28  2  1  0  0  0  0
 29 30  2  0  0  0  0
 30 28  1  0  0  0  0
 31 29  1  0  0  0  0
 32 41  1  0  0  0  0
 34 38  2  0  0  0  0
 34 32  1  0  0  0  0
 35 33  2  0  0  0  0
 35 40  1  0  0  0  0
 36 31  2  0  0  0  0
 37 32  2  0  0  0  0
 37 36  1  0  0  0  0
 38 35  1  0  0  0  0
 39 30  1  0  0  0  0
 40 39  1  0  0  0  0
 41 40  2  0  0  0  0
 41 29  1  0  0  0  0
 42 37  1  0  0  0  0
 43 36  1  0  0  0  0
 43 44  1  0  0  0  0
M  END
>  <MODEL>
2

>  <REMARK>
 VINA RESULT:      -7.0      2.038      5.329
  Name = 
  14 active torsions:
  status: ('A' for Active; 'I' for Inactive)
    1  A    between atoms: C_2  and  N_31
    2  A    between atoms: C_7  and  C_14
    3  A    between atoms: C_8  and  C_19
    4  A    between atoms: N_12  and  N_38
    5  A    between atoms: N_12  and  C_40
    6  A    between atoms: C_13  and  C_22
    7  A    between atoms: C_14  and  N_38
    8  A    between atoms: C_15  and  C_41
    9  A    between atoms: C_16  and  C_20
   10  A    between atoms: C_16  and  C_30
   11  A    between atoms: C_19  and  C_30
   12  A    between atoms: C_20  and  C_36
   13  A    between atoms: N_31  and  C_41
   14  A    between atoms: C_34  and  C_36
                            x       y       z     vdW  Elec       q    Type
                         _______ _______ _______ _____ _____    ______ ____

>  <TORSDO>
F 14

$$$$
=
 OpenBabel11042417053D

 44 49  0  0  1  0  0  0  0  0999 V2000
  191.7420  175.8590  143.0000 C   0  0  0  0  0  3  0  0  0  0  0  0
  190.5500  176.1160  143.5600 C   0  0  0  0  0  0  0  0  0  0  0  0
  192.2450  174.4780  142.7120 C   0  0  1  0  0  3  0  0  0  0  0  0
  192.4960  174.3250  141.2210 C   0  0  0  0  0  1  0  0  0  0  0  0
  193.4830  174.2620  143.4400 N   0  0  0  0  0  2  0  0  0  0  0  0
  194.4340  175.1490  142.9130 N   0  0  0  0  0  2  0  0  0  0  0  0
  196.8820  174.8880  143.5400 C   0  0  2  0  0  0  0  0  0  0  0  0
  195.1080  175.2180  145.2580 O   0  0  0  0  0  1  0  0  0  0  0  0
  197.1050  174.2950  142.1560 C   0  0  0  0  0  1  0  0  0  0  0  0
  195.4780  175.3190  143.9140 C   0  0  2  0  0  0  0  0  0  0  0  0
  196.5280  176.3740  143.6040 C   0  0  0  0  0  2  0  0  0  0  0  0
  197.6810  174.3840  144.6530 N   0  0  0  0  0  2  0  0  0  0  0  0
  197.7680  172.9350  144.5500 C   0  0  0  0  0  2  0  0  0  0  0  0
  194.5440  171.1520  145.7750 C   0  0  0  0  0  1  0  0  0  0  0  0
  196.9170  170.8890  145.4630 O   0  0  0  0  0  0  0  0  0  0  0  0
  195.7570  171.4780  144.9300 C   0  0  0  0  0  0  0  0  0  0  0  0
  195.6800  171.2660  143.4240 C   0  0  0  0  0  1  0  0  0  0  0  0
  196.8290  172.2940  145.5590 C   0  0  2  0  0  3  0  0  0  0  0  0
  189.6070  175.0010  143.9330 C   0  0  1  0  0  3  0  0  0  0  0  0
  189.2370  174.1770  142.7120 C   0  0  0  0  0  1  0  0  0  0  0  0
  190.2200  174.1240  145.0130 C   0  0  0  0  0  2  0  0  0  0  0  0
  189.4960  174.2870  146.3370 C   0  0  0  0  0  2  0  0  0  0  0  0
  189.9680  176.3890  147.3900 O   0  0  0  0  0  0  0  0  0  0  0  0
  191.8110  175.0150  146.8380 C   0  0  0  0  0  2  0  0  0  0  0  0
  191.1260  177.1110  147.7210 C   0  0  0  0  0  2  0  0  0  0  0  0
  190.3780  175.0480  147.3110 C   0  0  2  0  0  3  0  0  0  0  0  0
  192.3290  176.3820  147.1700 C   0  0  0  0  0  2  0  0  0  0  0  0
  190.1440  177.5510  143.7360 C   0  0  0  0  0  2  0  0  0  0  0  0
  187.6850  177.8580  144.1370 C   0  0  0  0  0  0  0  0  0  0  0  0
  188.7250  177.7610  143.3130 C   0  0  0  0  0  0  0  0  0  0  0  0
  187.6370  177.8410  145.5330 C   0  0  0  0  0  3  0  0  0  0  0  0
  185.2810  178.0730  143.9800 C   0  0  1  0  0  3  0  0  0  0  0  0
  185.8040  178.0300  139.9470 O   0  0  0  0  0  0  0  0  0  0  0  0
  184.1210  178.1810  143.0560 C   0  0  0  0  0  3  0  0  0  0  0  0
  185.6360  178.0490  141.1930 C   0  0  0  0  0  0  0  0  0  0  0  0
  186.3760  177.9440  146.1620 C   0  0  0  0  0  0  0  0  0  0  0  0
  185.1900  178.0670  145.3840 C   0  0  0  0  0  0  0  0  0  0  0  0
  184.3110  178.1670  141.7590 N   0  0  0  0  0  0  0  0  0  0  0  0
  188.2430  177.8080  141.8780 C   0  0  0  0  0  3  0  0  0  0  0  0
  186.7720  177.9510  142.1200 C   0  0  0  0  0  0  0  0  0  0  0  0
  186.5420  177.9690  143.4090 C   0  0  0  0  0  0  0  0  0  0  0  0
  183.9490  178.1780  146.0030 O   0  0  0  0  0  1  0  0  0  0  0  0
  186.3070  177.9380  147.6520 C   0  0  0  0  0  2  0  0  0  0  0  0
  186.4780  179.3450  148.1900 C   0  0  0  0  0  1  0  0  0  0  0  0
  1  2  2  0  0  0  0
  2 28  1  0  0  0  0
  2 19  1  0  0  0  0
  3  4  1  6  0  0  0
  3  1  1  0  0  0  0
  3  5  1  0  0  0  0
  6  5  1  0  0  0  0
  6 10  1  0  0  0  0
  7  9  1  6  0  0  0
  7 11  1  0  0  0  0
  7 10  1  0  0  0  0
  7 12  1  0  0  0  0
 10  8  1  1  0  0  0
 11 10  1  0  0  0  0
 13 12  1  0  0  0  0
 15 18  1  0  0  0  0
 16 15  1  0  0  0  0
 16 18  1  0  0  0  0
 16 14  1  0  0  0  0
 17 16  1  0  0  0  0
 18 13  1  6  0  0  0
 19 20  1  6  0  0  0
 19 21  1  0  0  0  0
 21 22  1  0  0  0  0
 23 25  1  0  0  0  0
 24 27  1  0  0  0  0
 24 26  1  0  0  0  0
 26 22  1  6  0  0  0
 26 23  1  0  0  0  0
 27 25  1  0  0  0  0
 29 31  2  0  0  0  0
 30 28  1  0  0  0  0
 30 29  1  0  0  0  0
 31 36  1  0  0  0  0
 32 34  1  6  0  0  0
 32 37  1  0  0  0  0
 33 35  2  0  0  0  0
 35 38  1  0  0  0  0
 35 40  1  0  0  0  0
 36 43  1  0  0  0  0
 37 42  1  0  0  0  0
 37 36  2  0  0  0  0
 38 34  2  0  0  0  0
 39 40  1  0  0  0  0
 39 30  2  0  0  0  0
 40 41  2  0  0  0  0
 41 32  1  0  0  0  0
 41 29  1  0  0  0  0
 43 44  1  0  0  0  0
M  END
>  <MODEL>
3

>  <REMARK>
 VINA RESULT:      -6.9      1.743      3.010
  Name = 
  14 active torsions:
  status: ('A' for Active; 'I' for Inactive)
    1  A    between atoms: C_2  and  N_31
    2  A    between atoms: C_7  and  C_14
    3  A    between atoms: C_8  and  C_19
    4  A    between atoms: N_12  and  N_38
    5  A    between atoms: N_12  and  C_40
    6  A    between atoms: C_13  and  C_22
    7  A    between atoms: C_14  and  N_38
    8  A    between atoms: C_15  and  C_41
    9  A    between atoms: C_16  and  C_20
   10  A    between atoms: C_16  and  C_30
   11  A    between atoms: C_19  and  C_30
   12  A    between atoms: C_20  and  C_36
   13  A    between atoms: N_31  and  C_41
   14  A    between atoms: C_34  and  C_36
                            x       y       z     vdW  Elec       q    Type
                         _______ _______ _______ _____ _____    ______ ____

>  <TORSDO>
F 14

$$$$
=
 OpenBabel11042417053D

 44 49  0  0  1  0  0  0  0  0999 V2000
  189.5850  174.5220  144.0270 C   0  0  0  0  0  3  0  0  0  0  0  0
  190.3900  175.5520  143.7290 C   0  0  0  0  0  0  0  0  0  0  0  0
  189.9250  173.0910  143.7390 C   0  0  1  0  0  3  0  0  0  0  0  0
  189.6930  172.2500  144.9850 C   0  0  0  0  0  1  0  0  0  0  0  0
  189.0790  172.6100  142.6610 N   0  0  0  0  0  2  0  0  0  0  0  0
  189.8680  171.7750  141.8560 N   0  0  0  0  0  2  0  0  0  0  0  0
  191.8250  172.5760  140.4480 C   0  0  2  0  0  0  0  0  0  0  0  0
  189.6120  173.7190  140.4010 O   0  0  0  0  0  1  0  0  0  0  0  0
  192.7320  171.7700  141.3690 C   0  0  0  0  0  1  0  0  0  0  0  0
  190.3370  172.5680  140.7280 C   0  0  2  0  0  0  0  0  0  0  0  0
  190.8800  171.7830  139.5450 C   0  0  0  0  0  2  0  0  0  0  0  0
  192.3330  173.8230  139.8850 N   0  0  0  0  0  2  0  0  0  0  0  0
  193.7860  173.7630  139.8470 C   0  0  0  0  0  2  0  0  0  0  0  0
  195.8420  176.6310  141.4660 C   0  0  0  0  0  1  0  0  0  0  0  0
  195.7080  175.1680  139.5600 O   0  0  0  0  0  0  0  0  0  0  0  0
  195.4830  175.2560  140.9450 C   0  0  0  0  0  0  0  0  0  0  0  0
  196.0300  174.0320  141.6650 C   0  0  0  0  0  1  0  0  0  0  0  0
  194.3590  175.1660  139.9750 C   0  0  2  0  0  3  0  0  0  0  0  0
  191.7320  175.3320  143.0800 C   0  0  1  0  0  3  0  0  0  0  0  0
  192.3980  176.6590  142.7570 C   0  0  0  0  0  1  0  0  0  0  0  0
  192.6220  174.4830  143.9720 C   0  0  0  0  0  2  0  0  0  0  0  0
  193.6170  175.3370  144.7380 C   0  0  0  0  0  2  0  0  0  0  0  0
  192.1530  174.5100  146.4480 O   0  0  0  0  0  0  0  0  0  0  0  0
  192.8280  176.7710  146.5970 C   0  0  0  0  0  2  0  0  0  0  0  0
  191.4780  175.0630  147.5480 C   0  0  0  0  0  2  0  0  0  0  0  0
  193.2360  175.3710  146.2070 C   0  0  2  0  0  3  0  0  0  0  0  0
  191.6860  176.5590  147.5460 C   0  0  0  0  0  2  0  0  0  0  0  0
  189.9530  176.9330  144.1290 C   0  0  0  0  0  2  0  0  0  0  0  0
  187.5810  177.7390  143.9750 C   0  0  0  0  0  0  0  0  0  0  0  0
  188.7100  177.3330  143.4000 C   0  0  0  0  0  0  0  0  0  0  0  0
  187.2780  177.9390  145.3240 C   0  0  0  0  0  3  0  0  0  0  0  0
  185.3430  178.3630  143.3000 C   0  0  1  0  0  3  0  0  0  0  0  0
  186.5700  177.6270  139.4920 O   0  0  0  0  0  0  0  0  0  0  0  0
  184.4190  178.5410  142.1490 C   0  0  0  0  0  3  0  0  0  0  0  0
  186.1870  177.8600  140.6670 C   0  0  0  0  0  0  0  0  0  0  0  0
  185.9720  178.3620  145.6620 C   0  0  0  0  0  0  0  0  0  0  0  0
  185.0000  178.5820  144.6460 C   0  0  0  0  0  0  0  0  0  0  0  0
  184.8340  178.3010  140.9300 N   0  0  0  0  0  0  0  0  0  0  0  0
  188.5170  177.2530  141.9010 C   0  0  0  0  0  3  0  0  0  0  0  0
  187.0890  177.6960  141.8150 C   0  0  0  0  0  0  0  0  0  0  0  0
  186.6370  177.9470  143.0180 C   0  0  0  0  0  0  0  0  0  0  0  0
  183.7170  179.0080  144.9780 O   0  0  0  0  0  1  0  0  0  0  0  0
  185.6340  178.5900  147.0970 C   0  0  0  0  0  2  0  0  0  0  0  0
  186.1240  177.4300  147.9410 C   0  0  0  0  0  1  0  0  0  0  0  0
  2  1  2  0  0  0  0
  2 28  1  0  0  0  0
  3  1  1  0  0  0  0
  3  4  1  1  0  0  0
  5  3  1  0  0  0  0
  6  5  1  0  0  0  0
  7 10  1  0  0  0  0
  7  9  1  1  0  0  0
 10  8  1  6  0  0  0
 10  6  1  0  0  0  0
 11  7  1  0  0  0  0
 11 10  1  0  0  0  0
 12  7  1  0  0  0  0
 13 12  1  0  0  0  0
 15 18  1  0  0  0  0
 15 16  1  0  0  0  0
 16 14  1  0  0  0  0
 16 17  1  0  0  0  0
 18 13  1  1  0  0  0
 18 16  1  0  0  0  0
 19 20  1  1  0  0  0
 19  2  1  0  0  0  0
 19 21  1  0  0  0  0
 21 22  1  0  0  0  0
 23 25  1  0  0  0  0
 24 27  1  0  0  0  0
 26 22  1  6  0  0  0
 26 23  1  0  0  0  0
 26 24  1  0  0  0  0
 27 25  1  0  0  0  0
 29 31  2  0  0  0  0
 30 29  1  0  0  0  0
 30 28  1  0  0  0  0
 31 36  1  0  0  0  0
 32 34  1  1  0  0  0
 32 37  1  0  0  0  0
 33 35  2  0  0  0  0
 35 38  1  0  0  0  0
 35 40  1  0  0  0  0
 36 43  1  0  0  0  0
 37 42  1  0  0  0  0
 37 36  2  0  0  0  0
 38 34  2  0  0  0  0
 39 30  2  0  0  0  0
 40 39  1  0  0  0  0
 40 41  2  0  0  0  0
 41 32  1  0  0  0  0
 41 29  1  0  0  0  0
 43 44  1  0  0  0  0
M  END
>  <MODEL>
4

>  <REMARK>
 VINA RESULT:      -6.8      2.052      4.204
  Name = 
  14 active torsions:
  status: ('A' for Active; 'I' for Inactive)
    1  A    between atoms: C_2  and  N_31
    2  A    between atoms: C_7  and  C_14
    3  A    between atoms: C_8  and  C_19
    4  A    between atoms: N_12  and  N_38
    5  A    between atoms: N_12  and  C_40
    6  A    between atoms: C_13  and  C_22
    7  A    between atoms: C_14  and  N_38
    8  A    between atoms: C_15  and  C_41
    9  A    between atoms: C_16  and  C_20
   10  A    between atoms: C_16  and  C_30
   11  A    between atoms: C_19  and  C_30
   12  A    between atoms: C_20  and  C_36
   13  A    between atoms: N_31  and  C_41
   14  A    between atoms: C_34  and  C_36
                            x       y       z     vdW  Elec       q    Type
                         _______ _______ _______ _____ _____    ______ ____

>  <TORSDO>
F 14

$$$$
=
 OpenBabel11042417053D

 44 49  0  0  1  0  0  0  0  0999 V2000
  189.5070  175.1050  143.7440 C   0  0  0  0  0  3  0  0  0  0  0  0
  190.3770  176.1200  143.8570 C   0  0  0  0  0  0  0  0  0  0  0  0
  189.8870  173.6640  143.9010 C   0  0  1  0  0  3  0  0  0  0  0  0
  189.6830  173.2360  145.3460 C   0  0  0  0  0  1  0  0  0  0  0  0
  189.0520  172.8560  143.0300 N   0  0  0  0  0  2  0  0  0  0  0  0
  189.8020  171.7280  142.6660 N   0  0  0  0  0  2  0  0  0  0  0  0
  191.8110  172.0900  141.1540 C   0  0  2  0  0  0  0  0  0  0  0  0
  189.4970  172.6630  140.4320 O   0  0  0  0  0  1  0  0  0  0  0  0
  192.6820  171.9950  142.4000 C   0  0  0  0  0  1  0  0  0  0  0  0
  190.3120  171.9550  141.3210 C   0  0  2  0  0  0  0  0  0  0  0  0
  191.1030  170.8100  140.7090 C   0  0  0  0  0  2  0  0  0  0  0  0
  192.2270  172.9850  140.0780 N   0  0  0  0  0  2  0  0  0  0  0  0
  192.8840  174.1450  140.6610 C   0  0  0  0  0  2  0  0  0  0  0  0
  196.4330  175.5320  139.9160 C   0  0  0  0  0  1  0  0  0  0  0  0
  195.0670  173.5500  139.8680 O   0  0  0  0  0  0  0  0  0  0  0  0
  195.3240  174.7390  140.5730 C   0  0  0  0  0  0  0  0  0  0  0  0
  195.3970  174.4800  142.0720 C   0  0  0  0  0  1  0  0  0  0  0  0
  194.0700  174.5470  139.7970 C   0  0  2  0  0  3  0  0  0  0  0  0
  191.8300  175.8720  144.1730 C   0  0  1  0  0  3  0  0  0  0  0  0
  192.7260  176.6960  143.2640 C   0  0  0  0  0  1  0  0  0  0  0  0
  192.1160  176.1740  145.6350 C   0  0  0  0  0  2  0  0  0  0  0  0
  192.6990  174.9660  146.3470 C   0  0  0  0  0  2  0  0  0  0  0  0
  193.8720  172.9680  145.7340 O   0  0  0  0  0  0  0  0  0  0  0  0
  195.1230  174.9700  145.8390 C   0  0  0  0  0  2  0  0  0  0  0  0
  195.2090  172.6240  145.4780 C   0  0  0  0  0  2  0  0  0  0  0  0
  193.7920  174.3490  145.4940 C   0  0  2  0  0  3  0  0  0  0  0  0
  196.0840  173.8210  145.7680 C   0  0  0  0  0  2  0  0  0  0  0  0
  189.8500  177.5220  143.7370 C   0  0  0  0  0  2  0  0  0  0  0  0
  187.3620  177.8430  143.8020 C   0  0  0  0  0  0  0  0  0  0  0  0
  188.5250  177.6560  144.4180 C   0  0  0  0  0  0  0  0  0  0  0  0
  187.0650  177.9110  142.4380 C   0  0  0  0  0  3  0  0  0  0  0  0
  185.0490  178.2220  144.4020 C   0  0  0  0  0  0  0  0  0  0  0  0
  186.2940  178.0160  148.2690 O   0  0  0  0  0  0  0  0  0  0  0  0
  184.0880  178.3770  145.5260 C   0  0  0  0  0  3  0  0  0  0  0  0
  185.9030  178.0760  147.0760 C   0  0  0  0  0  0  0  0  0  0  0  0
  185.7250  178.1410  142.0550 C   0  0  0  0  0  0  0  0  0  0  0  0
  184.7090  178.2920  143.0390 C   0  0  0  0  0  0  0  0  0  0  0  0
  184.5090  178.3050  146.7650 N   0  0  0  0  0  0  0  0  0  0  0  0
  188.3170  177.6870  145.9180 C   0  0  0  0  0  2  0  0  0  0  0  0
  186.8380  177.9180  145.9530 C   0  0  0  0  0  0  0  0  0  0  0  0
  186.3790  177.9950  144.7300 C   0  0  0  0  0  0  0  0  0  0  0  0
  183.3870  178.5090  142.6610 O   0  0  0  0  0  1  0  0  0  0  0  0
  185.3880  178.2090  140.6030 C   0  0  0  0  0  2  0  0  0  0  0  0
  186.4240  177.4550  139.7900 C   0  0  0  0  0  1  0  0  0  0  0  0
  1  2  2  0  0  0  0
  1  3  1  0  0  0  0
  2 19  1  0  0  0  0
  3  4  1  1  0  0  0
  5  3  1  0  0  0  0
  6  5  1  0  0  0  0
  7 10  1  0  0  0  0
  7  9  1  1  0  0  0
 10  8  1  6  0  0  0
 10  6  1  0  0  0  0
 11  7  1  0  0  0  0
 11 10  1  0  0  0  0
 12 13  1  0  0  0  0
 12  7  1  0  0  0  0
 14 16  1  0  0  0  0
 15 16  1  0  0  0  0
 16 17  1  0  0  0  0
 18 15  1  0  0  0  0
 18 16  1  0  0  0  0
 18 13  1  1  0  0  0
 19 20  1  6  0  0  0
 19 21  1  0  0  0  0
 21 22  1  0  0  0  0
 25 23  1  0  0  0  0
 25 27  1  0  0  0  0
 26 23  1  0  0  0  0
 26 24  1  0  0  0  0
 26 22  1  1  0  0  0
 27 24  1  0  0  0  0
 28  2  1  0  0  0  0
 28 30  1  0  0  0  0
 29 30  2  0  0  0  0
 29 41  1  0  0  0  0
 30 39  1  0  0  0  0
 31 29  1  0  0  0  0
 32 41  1  0  0  0  0
 32 34  1  0  0  0  0
 34 38  2  0  0  0  0
 35 33  2  0  0  0  0
 36 31  2  0  0  0  0
 36 37  1  0  0  0  0
 37 32  2  0  0  0  0
 38 35  1  0  0  0  0
 39 40  1  0  0  0  0
 40 35  1  0  0  0  0
 41 40  2  0  0  0  0
 42 37  1  0  0  0  0
 43 36  1  0  0  0  0
 44 43  1  0  0  0  0
M  END
>  <MODEL>
5

>  <REMARK>
 VINA RESULT:      -6.8      2.222      5.105
  Name = 
  14 active torsions:
  status: ('A' for Active; 'I' for Inactive)
    1  A    between atoms: C_2  and  N_31
    2  A    between atoms: C_7  and  C_14
    3  A    between atoms: C_8  and  C_19
    4  A    between atoms: N_12  and  N_38
    5  A    between atoms: N_12  and  C_40
    6  A    between atoms: C_13  and  C_22
    7  A    between atoms: C_14  and  N_38
    8  A    between atoms: C_15  and  C_41
    9  A    between atoms: C_16  and  C_20
   10  A    between atoms: C_16  and  C_30
   11  A    between atoms: C_19  and  C_30
   12  A    between atoms: C_20  and  C_36
   13  A    between atoms: N_31  and  C_41
   14  A    between atoms: C_34  and  C_36
                            x       y       z     vdW  Elec       q    Type
                         _______ _______ _______ _____ _____    ______ ____

>  <TORSDO>
F 14

$$$$
=
 OpenBabel11042417053D

 44 49  0  0  1  0  0  0  0  0999 V2000
  189.7500  174.7520  143.5420 C   0  0  0  0  0  3  0  0  0  0  0  0
  190.7200  175.6710  143.6650 C   0  0  0  0  0  0  0  0  0  0  0  0
  190.0080  173.3040  143.2560 C   0  0  1  0  0  3  0  0  0  0  0  0
  189.7370  172.4800  144.5040 C   0  0  0  0  0  1  0  0  0  0  0  0
  189.1290  172.8690  142.1840 N   0  0  0  0  0  2  0  0  0  0  0  0
  189.3100  173.7570  141.1130 N   0  0  0  0  0  2  0  0  0  0  0  0
  190.5480  172.9300  139.0550 C   0  0  2  0  0  0  0  0  0  0  0  0
  188.0620  172.8800  139.2070 O   0  0  0  0  0  1  0  0  0  0  0  0
  191.7570  173.7130  139.5500 C   0  0  0  0  0  1  0  0  0  0  0  0
  189.2820  172.9750  139.8840 C   0  0  2  0  0  0  0  0  0  0  0  0
  190.1290  171.7140  139.8820 C   0  0  0  0  0  2  0  0  0  0  0  0
  190.3310  172.8170  137.6160 N   0  0  0  0  0  2  0  0  0  0  0  0
  191.3390  173.6060  136.9260 C   0  0  0  0  0  2  0  0  0  0  0  0
  190.7030  176.7910  134.7990 C   0  0  0  0  0  1  0  0  0  0  0  0
  191.5180  174.5270  134.7200 O   0  0  0  0  0  0  0  0  0  0  0  0
  191.4440  175.6830  135.5160 C   0  0  0  0  0  0  0  0  0  0  0  0
  192.7920  175.9940  136.1510 C   0  0  0  0  0  1  0  0  0  0  0  0
  190.6770  174.4540  135.8510 C   0  0  2  0  0  3  0  0  0  0  0  0
  192.1730  175.2940  143.5340 C   0  0  1  0  0  3  0  0  0  0  0  0
  192.8280  176.0630  142.3990 C   0  0  0  0  0  1  0  0  0  0  0  0
  192.9050  175.5330  144.8440 C   0  0  0  0  0  2  0  0  0  0  0  0
  192.6700  174.3990  145.8260 C   0  0  0  0  0  2  0  0  0  0  0  0
  190.5580  174.6610  146.9290 O   0  0  0  0  0  0  0  0  0  0  0  0
  192.1250  176.4160  147.1570 C   0  0  0  0  0  2  0  0  0  0  0  0
  189.9240  175.6780  147.6610 C   0  0  0  0  0  2  0  0  0  0  0  0
  191.9330  174.9230  147.0440 C   0  0  2  0  0  3  0  0  0  0  0  0
  190.7930  176.9140  147.6300 C   0  0  0  0  0  2  0  0  0  0  0  0
  190.3240  177.0770  144.0140 C   0  0  0  0  0  2  0  0  0  0  0  0
  187.8740  177.5690  144.2330 C   0  0  0  0  0  0  0  0  0  0  0  0
  188.9610  177.3960  143.4880 C   0  0  0  0  0  0  0  0  0  0  0  0
  187.7200  177.5530  145.6220 C   0  0  0  0  0  3  0  0  0  0  0  0
  185.5110  177.9680  143.9000 C   0  0  1  0  0  3  0  0  0  0  0  0
  186.3290  177.8970  139.9160 O   0  0  0  0  0  0  0  0  0  0  0  0
  184.4350  178.1660  142.8930 C   0  0  0  0  0  3  0  0  0  0  0  0
  186.0710  177.9240  141.1470 C   0  0  0  0  0  0  0  0  0  0  0  0
  186.4260  177.7500  146.1560 C   0  0  0  0  0  0  0  0  0  0  0  0
  185.3150  177.9640  145.2930 C   0  0  0  0  0  0  0  0  0  0  0  0
  184.7200  178.1410  141.6140 N   0  0  0  0  0  0  0  0  0  0  0  0
  188.5930  177.4830  142.0220 C   0  0  0  0  0  3  0  0  0  0  0  0
  187.1230  177.7380  142.1550 C   0  0  0  0  0  0  0  0  0  0  0  0
  186.7990  177.7700  143.4230 C   0  0  0  0  0  0  0  0  0  0  0  0
  184.0430  178.1680  145.8190 O   0  0  0  0  0  1  0  0  0  0  0  0
  186.2450  177.7450  147.6360 C   0  0  0  0  0  2  0  0  0  0  0  0
  186.6920  179.0700  148.2230 C   0  0  0  0  0  1  0  0  0  0  0  0
  1  2  2  0  0  0  0
  2 28  1  0  0  0  0
  3  1  1  0  0  0  0
  3  4  1  1  0  0  0
  5  3  1  0  0  0  0
  6  5  1  0  0  0  0
  7  9  1  1  0  0  0
  7 11  1  0  0  0  0
  7 10  1  0  0  0  0
 10  8  1  6  0  0  0
 10  6  1  0  0  0  0
 11 10  1  0  0  0  0
 12  7  1  0  0  0  0
 13 12  1  0  0  0  0
 14 16  1  0  0  0  0
 15 16  1  0  0  0  0
 15 18  1  0  0  0  0
 16 18  1  0  0  0  0
 16 17  1  0  0  0  0
 18 13  1  1  0  0  0
 19 20  1  6  0  0  0
 19  2  1  0  0  0  0
 19 21  1  0  0  0  0
 21 22  1  0  0  0  0
 23 26  1  0  0  0  0
 23 25  1  0  0  0  0
 24 27  1  0  0  0  0
 26 22  1  6  0  0  0
 26 24  1  0  0  0  0
 27 25  1  0  0  0  0
 29 31  2  0  0  0  0
 30 28  1  0  0  0  0
 30 29  1  0  0  0  0
 31 36  1  0  0  0  0
 32 34  1  6  0  0  0
 32 37  1  0  0  0  0
 33 35  2  0  0  0  0
 35 38  1  0  0  0  0
 35 40  1  0  0  0  0
 36 43  1  0  0  0  0
 37 42  1  0  0  0  0
 37 36  2  0  0  0  0
 38 34  2  0  0  0  0
 39 40  1  0  0  0  0
 39 30  2  0  0  0  0
 40 41  2  0  0  0  0
 41 32  1  0  0  0  0
 41 29  1  0  0  0  0
 43 44  1  0  0  0  0
M  END
>  <MODEL>
6

>  <REMARK>
 VINA RESULT:      -6.7      3.082      5.681
  Name = 
  14 active torsions:
  status: ('A' for Active; 'I' for Inactive)
    1  A    between atoms: C_2  and  N_31
    2  A    between atoms: C_7  and  C_14
    3  A    between atoms: C_8  and  C_19
    4  A    between atoms: N_12  and  N_38
    5  A    between atoms: N_12  and  C_40
    6  A    between atoms: C_13  and  C_22
    7  A    between atoms: C_14  and  N_38
    8  A    between atoms: C_15  and  C_41
    9  A    between atoms: C_16  and  C_20
   10  A    between atoms: C_16  and  C_30
   11  A    between atoms: C_19  and  C_30
   12  A    between atoms: C_20  and  C_36
   13  A    between atoms: N_31  and  C_41
   14  A    between atoms: C_34  and  C_36
                            x       y       z     vdW  Elec       q    Type
                         _______ _______ _______ _____ _____    ______ ____

>  <TORSDO>
F 14

$$$$
=
 OpenBabel11042417053D

 44 49  0  0  1  0  0  0  0  0999 V2000
  189.0270  175.2480  141.6490 C   0  0  0  0  0  3  0  0  0  0  0  0
  189.5080  176.0450  142.6150 C   0  0  0  0  0  0  0  0  0  0  0  0
  189.1360  173.7540  141.6730 C   0  0  1  0  0  3  0  0  0  0  0  0
  187.7720  173.1460  141.9590 C   0  0  0  0  0  1  0  0  0  0  0  0
  189.6150  173.2920  140.3830 N   0  0  0  0  0  2  0  0  0  0  0  0
  190.0690  171.9760  140.5550 N   0  0  0  0  0  2  0  0  0  0  0  0
  192.2570  171.7210  141.8200 C   0  0  2  0  0  0  0  0  0  0  0  0
  192.1340  172.8740  139.6150 O   0  0  0  0  0  1  0  0  0  0  0  0
  191.4280  171.4400  143.0660 C   0  0  0  0  0  1  0  0  0  0  0  0
  191.5250  172.0050  140.5250 C   0  0  2  0  0  0  0  0  0  0  0  0
  192.2190  170.6660  140.7140 C   0  0  0  0  0  2  0  0  0  0  0  0
  193.5260  172.4290  141.9710 N   0  0  0  0  0  2  0  0  0  0  0  0
  193.3070  173.6170  142.7810 C   0  0  0  0  0  2  0  0  0  0  0  0
  195.7000  174.8800  145.5650 C   0  0  0  0  0  1  0  0  0  0  0  0
  195.2050  173.0200  144.1190 O   0  0  0  0  0  0  0  0  0  0  0  0
  194.6320  174.0630  144.8680 C   0  0  0  0  0  0  0  0  0  0  0  0
  193.4440  173.5650  145.6780 C   0  0  0  0  0  1  0  0  0  0  0  0
  194.6270  174.0760  143.3810 C   0  0  2  0  0  3  0  0  0  0  0  0
  190.1960  175.4740  143.8280 C   0  0  1  0  0  3  0  0  0  0  0  0
  191.3950  176.3230  144.2160 C   0  0  0  0  0  1  0  0  0  0  0  0
  189.2200  175.3530  144.9870 C   0  0  0  0  0  2  0  0  0  0  0  0
  189.8100  174.5440  146.1270 C   0  0  0  0  0  2  0  0  0  0  0  0
  189.6060  176.7450  147.0560 O   0  0  0  0  0  0  0  0  0  0  0  0
  191.3160  175.3590  147.9180 C   0  0  0  0  0  2  0  0  0  0  0  0
  190.3250  177.5170  147.9830 C   0  0  0  0  0  2  0  0  0  0  0  0
  189.9110  175.4100  147.3700 C   0  0  2  0  0  3  0  0  0  0  0  0
  191.5700  176.7610  148.3850 C   0  0  0  0  0  2  0  0  0  0  0  0
  189.2750  177.5240  142.4950 C   0  0  0  0  0  2  0  0  0  0  0  0
  186.9990  178.0250  143.4260 C   0  0  2  0  0  3  0  0  0  0  0  0
  187.8150  177.8300  142.3940 C   0  0  0  0  0  0  0  0  0  0  0  0
  187.2700  178.0470  144.7970 C   0  0  0  0  0  3  0  0  0  0  0  0
  184.6430  178.4160  143.8070 C   0  0  0  0  0  0  0  0  0  0  0  0
  184.2290  178.2340  139.7650 O   0  0  0  0  0  0  0  0  0  0  0  0
  183.3130  178.5870  143.1650 C   0  0  0  0  0  3  0  0  0  0  0  0
  184.3510  178.2950  141.0150 C   0  0  0  0  0  0  0  0  0  0  0  0
  186.1940  178.2600  145.6890 C   0  0  0  0  0  0  0  0  0  0  0  0
  184.8740  178.4510  145.1940 C   0  0  0  0  0  0  0  0  0  0  0  0
  183.2010  178.5270  141.8600 N   0  0  0  0  0  0  0  0  0  0  0  0
  187.0230  177.8770  141.1040 C   0  0  0  0  0  3  0  0  0  0  0  0
  185.6590  178.1360  141.6660 C   0  0  0  0  0  0  0  0  0  0  0  0
  185.7300  178.2030  142.9710 C   0  0  0  0  0  0  0  0  0  0  0  0
  183.8170  178.6710  146.0720 O   0  0  0  0  0  1  0  0  0  0  0  0
  186.4660  178.2960  147.1550 C   0  0  0  0  0  2  0  0  0  0  0  0
  186.3340  176.9060  147.7470 C   0  0  0  0  0  1  0  0  0  0  0  0
  1  3  1  0  0  0  0
  1  2  2  0  0  0  0
  2 19  1  0  0  0  0
  3  4  1  6  0  0  0
  5  6  1  0  0  0  0
  5  3  1  0  0  0  0
  7 12  1  0  0  0  0
  7  9  1  1  0  0  0
 10  8  1  6  0  0  0
 10  6  1  0  0  0  0
 10 11  1  0  0  0  0
 10  7  1  0  0  0  0
 11  7  1  0  0  0  0
 12 13  1  0  0  0  0
 15 16  1  0  0  0  0
 16 14  1  0  0  0  0
 16 17  1  0  0  0  0
 18 13  1  6  0  0  0
 18 15  1  0  0  0  0
 18 16  1  0  0  0  0
 19 20  1  1  0  0  0
 19 21  1  0  0  0  0
 21 22  1  0  0  0  0
 23 26  1  0  0  0  0
 23 25  1  0  0  0  0
 24 27  1  0  0  0  0
 25 27  1  0  0  0  0
 26 22  1  6  0  0  0
 26 24  1  0  0  0  0
 28  2  1  0  0  0  0
 29 31  1  1  0  0  0
 30 28  1  0  0  0  0
 30 29  1  0  0  0  0
 31 36  2  0  0  0  0
 32 37  2  0  0  0  0
 33 35  2  0  0  0  0
 34 32  1  0  0  0  0
 35 40  1  0  0  0  0
 35 38  1  0  0  0  0
 36 43  1  0  0  0  0
 37 36  1  0  0  0  0
 37 42  1  0  0  0  0
 38 34  2  0  0  0  0
 39 40  1  0  0  0  0
 39 30  2  0  0  0  0
 40 41  2  0  0  0  0
 41 29  1  0  0  0  0
 41 32  1  0  0  0  0
 43 44  1  0  0  0  0
M  END
>  <MODEL>
7

>  <REMARK>
 VINA RESULT:      -6.6      2.265      3.810
  Name = 
  14 active torsions:
  status: ('A' for Active; 'I' for Inactive)
    1  A    between atoms: C_2  and  N_31
    2  A    between atoms: C_7  and  C_14
    3  A    between atoms: C_8  and  C_19
    4  A    between atoms: N_12  and  N_38
    5  A    between atoms: N_12  and  C_40
    6  A    between atoms: C_13  and  C_22
    7  A    between atoms: C_14  and  N_38
    8  A    between atoms: C_15  and  C_41
    9  A    between atoms: C_16  and  C_20
   10  A    between atoms: C_16  and  C_30
   11  A    between atoms: C_19  and  C_30
   12  A    between atoms: C_20  and  C_36
   13  A    between atoms: N_31  and  C_41
   14  A    between atoms: C_34  and  C_36
                            x       y       z     vdW  Elec       q    Type
                         _______ _______ _______ _____ _____    ______ ____

>  <TORSDO>
F 14

$$$$
=
 OpenBabel11042417053D

 44 49  0  0  1  0  0  0  0  0999 V2000
  190.2210  175.4090  142.1270 C   0  0  0  0  0  3  0  0  0  0  0  0
  190.4940  174.1970  142.6330 C   0  0  0  0  0  0  0  0  0  0  0  0
  189.2390  176.3630  142.7370 C   0  0  1  0  0  3  0  0  0  0  0  0
  189.8060  177.7730  142.6990 C   0  0  0  0  0  1  0  0  0  0  0  0
  187.9990  176.3150  141.9830 N   0  0  0  0  0  2  0  0  0  0  0  0
  187.3350  177.5310  142.1990 N   0  0  0  0  0  2  0  0  0  0  0  0
  185.3170  178.3790  143.4900 C   0  0  2  0  0  0  0  0  0  0  0  0
  185.9150  175.9610  143.4140 O   0  0  0  0  0  1  0  0  0  0  0  0
  185.9470  179.7640  143.4330 C   0  0  0  0  0  1  0  0  0  0  0  0
  186.0650  177.2300  142.8450 C   0  0  2  0  0  0  0  0  0  0  0  0
  184.8260  177.7910  142.1670 C   0  0  0  0  0  2  0  0  0  0  0  0
  184.5370  178.0140  144.6680 N   0  0  0  0  0  2  0  0  0  0  0  0
  185.1380  178.6340  145.8390 C   0  0  0  0  0  2  0  0  0  0  0  0
  187.2800  175.8760  147.5350 C   0  0  0  0  0  1  0  0  0  0  0  0
  186.3760  178.0890  147.8180 O   0  0  0  0  0  0  0  0  0  0  0  0
  186.9100  177.1890  146.8790 C   0  0  0  0  0  0  0  0  0  0  0  0
  187.9340  177.8770  145.9860 C   0  0  0  0  0  1  0  0  0  0  0  0
  185.4720  177.5660  146.8680 C   0  0  2  0  0  3  0  0  0  0  0  0
  189.8230  173.7070  143.8910 C   0  0  1  0  0  3  0  0  0  0  0  0
  189.4200  172.2490  143.7530 C   0  0  0  0  0  1  0  0  0  0  0  0
  190.7340  173.9060  145.0920 C   0  0  0  0  0  2  0  0  0  0  0  0
  190.2810  175.0780  145.9440 C   0  0  0  0  0  2  0  0  0  0  0  0
  191.9770  176.5020  145.0260 O   0  0  0  0  0  0  0  0  0  0  0  0
  192.5530  175.2140  146.9220 C   0  0  0  0  0  2  0  0  0  0  0  0
  193.3380  176.7380  145.2780 C   0  0  0  0  0  2  0  0  0  0  0  0
  191.4610  175.9900  146.2270 C   0  0  2  0  0  3  0  0  0  0  0  0
  193.8160  175.7610  146.3270 C   0  0  0  0  0  2  0  0  0  0  0  0
  191.5460  173.3660  141.9550 C   0  0  0  0  0  2  0  0  0  0  0  0
  193.7620  173.4630  143.1280 C   0  0  2  0  0  3  0  0  0  0  0  0
  192.9120  173.9180  142.2130 C   0  0  0  0  0  0  0  0  0  0  0  0
  193.6450  172.3850  144.0110 C   0  0  0  0  0  3  0  0  0  0  0  0
  195.9460  174.0370  143.9980 C   0  0  0  0  0  0  0  0  0  0  0  0
  195.9080  177.1090  141.3310 O   0  0  0  0  0  0  0  0  0  0  0  0
  197.0910  174.9800  143.8980 C   0  0  0  0  0  3  0  0  0  0  0  0
  195.9270  176.1580  142.1550 C   0  0  0  0  0  0  0  0  0  0  0  0
  194.7100  172.1340  144.9060 C   0  0  0  0  0  0  0  0  0  0  0  0
  195.8690  172.9590  144.8970 C   0  0  0  0  0  0  0  0  0  0  0  0
  197.0600  175.9620  143.0310 N   0  0  0  0  0  0  0  0  0  0  0  0
  193.5010  175.1350  141.5310 C   0  0  0  0  0  3  0  0  0  0  0  0
  194.8070  175.2140  142.2610 C   0  0  0  0  0  0  0  0  0  0  0  0
  194.8750  174.2450  143.1390 C   0  0  0  0  0  0  0  0  0  0  0  0
  196.9220  172.7050  145.7720 O   0  0  0  0  0  1  0  0  0  0  0  0
  194.6060  170.9820  145.8480 C   0  0  0  0  0  2  0  0  0  0  0  0
  194.1920  169.7290  145.1010 C   0  0  0  0  0  1  0  0  0  0  0  0
  1  2  2  0  0  0  0
  1  3  1  0  0  0  0
  2 19  1  0  0  0  0
  3  4  1  6  0  0  0
  5  6  1  0  0  0  0
  5  3  1  0  0  0  0
  6 10  1  0  0  0  0
  7  9  1  6  0  0  0
  7 12  1  0  0  0  0
 10  8  1  1  0  0  0
 10  7  1  0  0  0  0
 11 10  1  0  0  0  0
 11  7  1  0  0  0  0
 12 13  1  0  0  0  0
 16 14  1  0  0  0  0
 16 15  1  0  0  0  0
 17 16  1  0  0  0  0
 18 13  1  6  0  0  0
 18 16  1  0  0  0  0
 18 15  1  0  0  0  0
 19 20  1  6  0  0  0
 19 21  1  0  0  0  0
 21 22  1  0  0  0  0
 23 25  1  0  0  0  0
 23 26  1  0  0  0  0
 25 27  1  0  0  0  0
 26 22  1  6  0  0  0
 26 24  1  0  0  0  0
 27 24  1  0  0  0  0
 28 30  1  0  0  0  0
 28  2  1  0  0  0  0
 29 41  1  0  0  0  0
 29 31  1  1  0  0  0
 30 29  1  0  0  0  0
 31 36  2  0  0  0  0
 32 37  2  0  0  0  0
 33 35  2  0  0  0  0
 34 32  1  0  0  0  0
 35 40  1  0  0  0  0
 35 38  1  0  0  0  0
 36 43  1  0  0  0  0
 37 36  1  0  0  0  0
 37 42  1  0  0  0  0
 38 34  2  0  0  0  0
 39 30  2  0  0  0  0
 39 40  1  0  0  0  0
 40 41  2  0  0  0  0
 41 32  1  0  0  0  0
 44 43  1  0  0  0  0
M  END
>  <MODEL>
8

>  <REMARK>
 VINA RESULT:      -6.6      2.049      8.964
  Name = 
  14 active torsions:
  status: ('A' for Active; 'I' for Inactive)
    1  A    between atoms: C_2  and  N_31
    2  A    between atoms: C_7  and  C_14
    3  A    between atoms: C_8  and  C_19
    4  A    between atoms: N_12  and  N_38
    5  A    between atoms: N_12  and  C_40
    6  A    between atoms: C_13  and  C_22
    7  A    between atoms: C_14  and  N_38
    8  A    between atoms: C_15  and  C_41
    9  A    between atoms: C_16  and  C_20
   10  A    between atoms: C_16  and  C_30
   11  A    between atoms: C_19  and  C_30
   12  A    between atoms: C_20  and  C_36
   13  A    between atoms: N_31  and  C_41
   14  A    between atoms: C_34  and  C_36
                            x       y       z     vdW  Elec       q    Type
                         _______ _______ _______ _____ _____    ______ ____

>  <TORSDO>
F 14

$$$$
=
 OpenBabel11042417053D

 44 49  0  0  1  0  0  0  0  0999 V2000
  191.2780  175.3930  146.6010 C   0  0  0  0  0  3  0  0  0  0  0  0
  190.1230  175.3930  145.9200 C   0  0  0  0  0  0  0  0  0  0  0  0
  191.9710  176.6380  147.0640 C   0  0  1  0  0  3  0  0  0  0  0  0
  191.5690  176.9450  148.4980 C   0  0  0  0  0  1  0  0  0  0  0  0
  193.4070  176.4370  146.9920 N   0  0  0  0  0  2  0  0  0  0  0  0
  193.6210  175.1870  146.3920 N   0  0  0  0  0  2  0  0  0  0  0  0
  194.7180  175.4270  144.1130 C   0  0  2  0  0  0  0  0  0  0  0  0
  195.9730  174.6010  146.1010 O   0  0  0  0  0  1  0  0  0  0  0  0
  193.3170  175.4570  143.5160 C   0  0  0  0  0  1  0  0  0  0  0  0
  194.8500  175.2770  145.6150 C   0  0  2  0  0  0  0  0  0  0  0  0
  195.1280  176.6250  144.9690 C   0  0  0  0  0  2  0  0  0  0  0  0
  195.7920  174.8070  143.3430 N   0  0  0  0  0  2  0  0  0  0  0  0
  195.2420  174.2980  142.0960 C   0  0  0  0  0  2  0  0  0  0  0  0
  196.1240  174.9970  138.3800 C   0  0  0  0  0  1  0  0  0  0  0  0
  195.6960  176.0360  140.5090 O   0  0  0  0  0  0  0  0  0  0  0  0
  195.3400  174.9620  139.6750 C   0  0  0  0  0  0  0  0  0  0  0  0
  193.8280  174.7970  139.6120 C   0  0  0  0  0  1  0  0  0  0  0  0
  196.1070  174.7540  140.9320 C   0  0  2  0  0  3  0  0  0  0  0  0
  189.4180  176.6810  145.5780 C   0  0  1  0  0  3  0  0  0  0  0  0
  190.1170  177.3870  144.4280 C   0  0  0  0  0  1  0  0  0  0  0  0
  187.9590  176.4180  145.2450 C   0  0  0  0  0  2  0  0  0  0  0  0
  187.0570  176.7230  146.4280 C   0  0  0  0  0  2  0  0  0  0  0  0
  185.6510  177.5910  144.6900 O   0  0  0  0  0  0  0  0  0  0  0  0
  184.9000  177.8380  146.9180 C   0  0  0  0  0  2  0  0  0  0  0  0
  184.4570  178.3270  144.6360 C   0  0  0  0  0  2  0  0  0  0  0  0
  185.6380  176.9540  145.9420 C   0  0  2  0  0  3  0  0  0  0  0  0
  184.0610  178.7180  146.0400 C   0  0  0  0  0  2  0  0  0  0  0  0
  189.5050  174.0690  145.5710 C   0  0  0  0  0  2  0  0  0  0  0  0
  189.8900  173.6810  143.1220 C   0  0  0  0  0  0  0  0  0  0  0  0
  190.1920  173.4510  144.3960 C   0  0  0  0  0  0  0  0  0  0  0  0
  188.9430  174.5440  142.5620 C   0  0  0  0  0  3  0  0  0  0  0  0
  190.5760  172.8940  140.9400 C   0  0  0  0  0  0  0  0  0  0  0  0
  193.1770  170.4750  142.9220 O   0  0  0  0  0  0  0  0  0  0  0  0
  191.4820  171.9760  140.2020 C   0  0  0  0  0  3  0  0  0  0  0  0
  192.3780  171.2240  142.3030 C   0  0  0  0  0  0  0  0  0  0  0  0
  188.8160  174.5760  141.1550 C   0  0  0  0  0  0  0  0  0  0  0  0
  189.6390  173.7530  140.3370 C   0  0  0  0  0  0  0  0  0  0  0  0
  192.3150  171.2060  140.8590 N   0  0  0  0  0  0  0  0  0  0  0  0
  191.2800  172.4010  144.4790 C   0  0  0  0  0  2  0  0  0  0  0  0
  191.4800  172.1430  143.0170 C   0  0  0  0  0  0  0  0  0  0  0  0
  190.6640  172.8960  142.3250 C   0  0  0  0  0  0  0  0  0  0  0  0
  189.5200  173.7920  138.9510 O   0  0  0  0  0  1  0  0  0  0  0  0
  187.8170  175.4980  140.5400 C   0  0  0  0  0  2  0  0  0  0  0  0
  187.4740  176.6180  141.5030 C   0  0  0  0  0  1  0  0  0  0  0  0
  1  3  1  0  0  0  0
  2  1  2  0  0  0  0
  3  4  1  1  0  0  0
  5  3  1  0  0  0  0
  6  5  1  0  0  0  0
  7  9  1  6  0  0  0
  7 11  1  0  0  0  0
  7 10  1  0  0  0  0
 10  8  1  1  0  0  0
 10  6  1  0  0  0  0
 11 10  1  0  0  0  0
 12  7  1  0  0  0  0
 13 12  1  0  0  0  0
 14 16  1  0  0  0  0
 15 18  1  0  0  0  0
 16 15  1  0  0  0  0
 16 18  1  0  0  0  0
 17 16  1  0  0  0  0
 18 13  1  1  0  0  0
 19 20  1  6  0  0  0
 19  2  1  0  0  0  0
 21 19  1  0  0  0  0
 21 22  1  0  0  0  0
 23 26  1  0  0  0  0
 25 23  1  0  0  0  0
 25 27  1  0  0  0  0
 26 22  1  1  0  0  0
 26 24  1  0  0  0  0
 27 24  1  0  0  0  0
 28  2  1  0  0  0  0
 29 30  2  0  0  0  0
 30 39  1  0  0  0  0
 30 28  1  0  0  0  0
 31 29  1  0  0  0  0
 32 41  1  0  0  0  0
 34 38  2  0  0  0  0
 34 32  1  0  0  0  0
 35 33  2  0  0  0  0
 35 40  1  0  0  0  0
 36 31  2  0  0  0  0
 37 32  2  0  0  0  0
 37 36  1  0  0  0  0
 38 35  1  0  0  0  0
 40 39  1  0  0  0  0
 41 40  2  0  0  0  0
 41 29  1  0  0  0  0
 42 37  1  0  0  0  0
 43 36  1  0  0  0  0
 43 44  1  0  0  0  0
M  END
>  <MODEL>
9

>  <REMARK>
 VINA RESULT:      -6.5      2.316      6.201
  Name = 
  14 active torsions:
  status: ('A' for Active; 'I' for Inactive)
    1  A    between atoms: C_2  and  N_31
    2  A    between atoms: C_7  and  C_14
    3  A    between atoms: C_8  and  C_19
    4  A    between atoms: N_12  and  N_38
    5  A    between atoms: N_12  and  C_40
    6  A    between atoms: C_13  and  C_22
    7  A    between atoms: C_14  and  N_38
    8  A    between atoms: C_15  and  C_41
    9  A    between atoms: C_16  and  C_20
   10  A    between atoms: C_16  and  C_30
   11  A    between atoms: C_19  and  C_30
   12  A    between atoms: C_20  and  C_36
   13  A    between atoms: N_31  and  C_41
   14  A    between atoms: C_34  and  C_36
                            x       y       z     vdW  Elec       q    Type
                         _______ _______ _______ _____ _____    ______ ____

>  <TORSDO>
F 14

$$$$
