=
 OpenBabel11042418273D

 28 31  0  0  1  0  0  0  0  0999 V2000
  191.9800  175.4230  143.4850 N   0  0  0  0  0  0  0  0  0  0  0  0
  191.0100  175.8320  142.4230 C   0  0  1  0  0  3  0  0  0  0  0  0
  191.4400  174.5060  142.4350 C   0  0  2  0  0  3  0  0  0  0  0  0
  190.6830  171.3230  142.6100 C   0  0  0  0  0  0  0  0  0  0  0  0
  190.2000  172.4170  142.1350 N   0  0  0  0  0  0  0  0  0  0  0  0
  191.3560  171.4630  143.8480 N   0  0  0  0  0  0  0  0  0  0  0  0
  190.5230  173.4670  143.0900 C   0  0  1  0  0  3  0  0  0  0  0  0
  191.2740  172.7160  144.1460 C   0  0  0  0  0  3  0  0  0  0  0  0
  190.5590  170.0760  141.9360 N   0  0  0  0  0  1  0  0  0  0  0  0
  189.3190  177.3580  143.3350 C   0  0  0  0  0  3  0  0  0  0  0  0
  189.6790  176.1140  143.0470 C   0  0  0  0  0  3  0  0  0  0  0  0
  188.0590  177.6850  143.9380 N   0  0  0  0  0  0  0  0  0  0  0  0
  183.8110  178.8960  144.9040 N   0  0  0  0  0  0  0  0  0  0  0  0
  187.7040  177.6700  145.2530 C   0  0  0  0  0  0  0  0  0  0  0  0
  185.9500  177.9540  147.8600 C   0  0  0  0  0  1  0  0  0  0  0  0
  185.5240  178.2170  146.4570 C   0  0  0  0  0  0  0  0  0  0  0  0
  185.9530  178.3230  144.0870 C   0  0  0  0  0  0  0  0  0  0  0  0
  184.6520  178.7450  143.8390 C   0  0  0  0  0  3  0  0  0  0  0  0
  186.3820  178.0640  145.3630 C   0  0  0  0  0  0  0  0  0  0  0  0
  186.9900  178.0880  143.2110 C   0  0  0  0  0  3  0  0  0  0  0  0
  184.2130  178.6460  146.1900 C   0  0  0  0  0  3  0  0  0  0  0  0
  188.5840  177.2420  146.3860 C   0  0  0  0  0  2  0  0  0  0  0  0
  188.5080  175.7370  146.5610 C   0  0  0  0  0  1  0  0  0  0  0  0
  193.7720  176.4440  144.5290 N   0  0  0  0  0  0  0  0  0  0  0  0
  192.7580  175.6870  144.6180 N   0  0  0  0  0  0  0  0  0  0  0  0
  194.9520  175.7090  146.5410 O   0  0  0  0  0  1  0  0  0  0  0  0
  194.5770  176.7280  145.6720 C   0  0  0  0  0  0  0  0  0  0  0  0
  194.9500  177.9080  145.8950 O   0  0  0  0  0  0  0  0  0  0  0  0
  1 25  1  0  0  0  0
  2  3  1  0  0  0  0
  2 11  1  1  0  0  0
  2  1  1  0  0  0  0
  3  7  1  0  0  0  0
  3  1  1  1  0  0  0
  4  6  1  0  0  0  0
  5  4  2  0  0  0  0
  5  7  1  0  0  0  0
  6  8  2  0  0  0  0
  7  8  1  1  0  0  0
  9  4  1  0  0  0  0
 10 12  1  0  0  0  0
 11 10  2  0  0  0  0
 12 14  1  0  0  0  0
 13 21  1  0  0  0  0
 14 19  2  0  0  0  0
 14 22  1  0  0  0  0
 16 15  1  0  0  0  0
 17 19  1  0  0  0  0
 18 17  1  0  0  0  0
 18 13  2  0  0  0  0
 19 16  1  0  0  0  0
 20 12  1  0  0  0  0
 20 17  2  0  0  0  0
 21 16  2  0  0  0  0
 22 23  1  0  0  0  0
 24 25  2  0  0  0  0
 24 27  1  0  0  0  0
 27 28  2  0  0  0  0
 27 26  1  0  0  0  0
M  END
>  <MODEL>
1

>  <REMARK>
 VINA RESULT:      -6.9      0.000      0.000
  Name = 
  6 active torsions:
  status: ('A' for Active; 'I' for Inactive)
    1  A    between atoms: C_1  and  C_9
    2  A    between atoms: N_4  and  C_8
    3  A    between atoms: C_12  and  C_28
    4  A    between atoms: C_13  and  N_15
    5  A    between atoms: N_16  and  N_17
    6  A    between atoms: C_20  and  C_23
                            x       y       z     vdW  Elec       q    Type
                         _______ _______ _______ _____ _____    ______ ____

>  <TORSDO>
F 6

$$$$
=
 OpenBabel11042418273D

 28 31  0  0  1  0  0  0  0  0999 V2000
  184.7680  178.5640  142.2050 N   0  0  0  0  0  0  0  0  0  0  0  0
  186.2580  178.5680  142.3380 C   0  0  1  0  0  3  0  0  0  0  0  0
  185.5060  179.0150  143.4250 C   0  0  2  0  0  3  0  0  0  0  0  0
  185.8080  178.5010  146.6470 C   0  0  0  0  0  0  0  0  0  0  0  0
  186.3320  178.1030  145.5400 N   0  0  0  0  0  0  0  0  0  0  0  0
  184.4150  178.7420  146.5860 N   0  0  0  0  0  0  0  0  0  0  0  0
  185.2520  178.0270  144.5680 C   0  0  1  0  0  3  0  0  0  0  0  0
  184.0690  178.4700  145.3730 C   0  0  0  0  0  3  0  0  0  0  0  0
  186.5750  178.6940  147.8300 N   0  0  0  0  0  1  0  0  0  0  0  0
  188.0060  176.8700  142.0650 C   0  0  0  0  0  3  0  0  0  0  0  0
  186.7560  177.1580  142.4000 C   0  0  0  0  0  3  0  0  0  0  0  0
  188.5350  175.5360  142.1000 N   0  0  0  0  0  0  0  0  0  0  0  0
  190.0460  171.3640  141.2320 N   0  0  0  0  0  0  0  0  0  0  0  0
  188.9680  174.8100  143.1680 C   0  0  0  0  0  0  0  0  0  0  0  0
  190.1490  172.4160  144.8490 C   0  0  0  0  0  1  0  0  0  0  0  0
  189.9260  172.4560  143.3780 C   0  0  0  0  0  0  0  0  0  0  0  0
  189.1970  173.5650  141.3650 C   0  0  0  0  0  0  0  0  0  0  0  0
  189.5250  172.4540  140.5970 C   0  0  0  0  0  3  0  0  0  0  0  0
  189.3920  173.5700  142.7220 C   0  0  0  0  0  0  0  0  0  0  0  0
  188.6690  174.7800  140.9860 C   0  0  0  0  0  3  0  0  0  0  0  0
  190.2510  171.3400  142.5870 C   0  0  0  0  0  3  0  0  0  0  0  0
  189.0290  175.2960  144.5820 C   0  0  0  0  0  2  0  0  0  0  0  0
  190.2790  176.1290  144.7910 C   0  0  0  0  0  1  0  0  0  0  0  0
  182.4630  178.5010  142.0460 N   0  0  0  0  0  0  0  0  0  0  0  0
  183.5900  178.2980  141.4990 N   0  0  0  0  0  0  0  0  0  0  0  0
  180.0240  178.3380  141.9880 O   0  0  0  0  0  1  0  0  0  0  0  0
  181.2500  178.2390  141.3410 C   0  0  0  0  0  0  0  0  0  0  0  0
  181.2920  177.9160  140.1270 O   0  0  0  0  0  0  0  0  0  0  0  0
  1  2  1  0  0  0  0
  2 11  1  1  0  0  0
  2  3  1  0  0  0  0
  3  1  1  6  0  0  0
  3  7  1  0  0  0  0
  4  9  1  0  0  0  0
  5  4  2  0  0  0  0
  6  4  1  0  0  0  0
  7  8  1  1  0  0  0
  7  5  1  0  0  0  0
  8  6  2  0  0  0  0
 10 12  1  0  0  0  0
 10 11  2  0  0  0  0
 12 14  1  0  0  0  0
 13 21  1  0  0  0  0
 14 22  1  0  0  0  0
 16 15  1  0  0  0  0
 17 19  1  0  0  0  0
 18 13  2  0  0  0  0
 18 17  1  0  0  0  0
 19 14  2  0  0  0  0
 19 16  1  0  0  0  0
 20 17  2  0  0  0  0
 20 12  1  0  0  0  0
 21 16  2  0  0  0  0
 22 23  1  0  0  0  0
 25 24  2  0  0  0  0
 25  1  1  0  0  0  0
 27 26  1  0  0  0  0
 27 24  1  0  0  0  0
 28 27  2  0  0  0  0
M  END
>  <MODEL>
2

>  <REMARK>
 VINA RESULT:      -6.8      4.673      8.721
  Name = 
  6 active torsions:
  status: ('A' for Active; 'I' for Inactive)
    1  A    between atoms: C_1  and  C_9
    2  A    between atoms: N_4  and  C_8
    3  A    between atoms: C_12  and  C_28
    4  A    between atoms: C_13  and  N_15
    5  A    between atoms: N_16  and  N_17
    6  A    between atoms: C_20  and  C_23
                            x       y       z     vdW  Elec       q    Type
                         _______ _______ _______ _____ _____    ______ ____

>  <TORSDO>
F 6

$$$$
=
 OpenBabel11042418273D

 28 31  0  0  1  0  0  0  0  0999 V2000
  191.9970  175.4960  143.5470 N   0  0  0  0  0  0  0  0  0  0  0  0
  190.9540  175.8960  142.5520 C   0  0  1  0  0  3  0  0  0  0  0  0
  191.4150  174.5800  142.5180 C   0  0  2  0  0  3  0  0  0  0  0  0
  190.7030  171.3840  142.6520 C   0  0  0  0  0  0  0  0  0  0  0  0
  190.1730  172.4880  142.2540 N   0  0  0  0  0  0  0  0  0  0  0  0
  191.4740  171.4930  143.8340 N   0  0  0  0  0  0  0  0  0  0  0  0
  190.5640  173.5110  143.2120 C   0  0  1  0  0  3  0  0  0  0  0  0
  191.4060  172.7360  144.1780 C   0  0  0  0  0  3  0  0  0  0  0  0
  190.5350  170.1580  141.9500 N   0  0  0  0  0  1  0  0  0  0  0  0
  189.3750  177.3330  143.7580 C   0  0  0  0  0  3  0  0  0  0  0  0
  189.6580  176.1370  143.2610 C   0  0  0  0  0  3  0  0  0  0  0  0
  188.1510  177.6200  144.4510 N   0  0  0  0  0  0  0  0  0  0  0  0
  184.8100  178.2450  147.4330 N   0  0  0  0  0  0  0  0  0  0  0  0
  186.9620  178.0570  143.9520 C   0  0  0  0  0  0  0  0  0  0  0  0
  183.9570  179.0130  143.8440 C   0  0  0  0  0  1  0  0  0  0  0  0
  184.7270  178.6060  145.0510 C   0  0  0  0  0  0  0  0  0  0  0  0
  186.7350  177.8210  146.1290 C   0  0  0  0  0  0  0  0  0  0  0  0
  186.1130  177.8430  147.3720 C   0  0  0  0  0  3  0  0  0  0  0  0
  186.0630  178.1930  144.9950 C   0  0  0  0  0  0  0  0  0  0  0  0
  188.0230  177.4680  145.7900 C   0  0  0  0  0  3  0  0  0  0  0  0
  184.1130  178.6210  146.3150 C   0  0  0  0  0  3  0  0  0  0  0  0
  186.6910  178.3910  142.5180 C   0  0  0  0  0  2  0  0  0  0  0  0
  186.2960  177.1380  141.7600 C   0  0  0  0  0  1  0  0  0  0  0  0
  193.4790  176.8560  144.6860 N   0  0  0  0  0  0  0  0  0  0  0  0
  192.8370  175.7620  144.6330 N   0  0  0  0  0  0  0  0  0  0  0  0
  195.2280  178.2140  145.7230 O   0  0  0  0  0  0  0  0  0  0  0  0
  194.3380  177.1480  145.7860 C   0  0  0  0  0  0  0  0  0  0  0  0
  194.2900  176.4360  146.8220 O   0  0  0  0  0  1  0  0  0  0  0  0
  1 25  1  0  0  0  0
  2 11  1  1  0  0  0
  2  1  1  0  0  0  0
  3  2  1  0  0  0  0
  3  7  1  0  0  0  0
  3  1  1  1  0  0  0
  4  6  1  0  0  0  0
  5  4  2  0  0  0  0
  5  7  1  0  0  0  0
  6  8  2  0  0  0  0
  7  8  1  1  0  0  0
  9  4  1  0  0  0  0
 10 12  1  0  0  0  0
 11 10  2  0  0  0  0
 12 20  1  0  0  0  0
 14 12  1  0  0  0  0
 14 19  2  0  0  0  0
 15 16  1  0  0  0  0
 16 21  2  0  0  0  0
 17 18  1  0  0  0  0
 18 13  2  0  0  0  0
 19 16  1  0  0  0  0
 19 17  1  0  0  0  0
 20 17  2  0  0  0  0
 21 13  1  0  0  0  0
 22 14  1  0  0  0  0
 23 22  1  0  0  0  0
 24 27  1  0  0  0  0
 25 24  2  0  0  0  0
 26 27  2  0  0  0  0
 27 28  1  0  0  0  0
M  END
>  <MODEL>
3

>  <REMARK>
 VINA RESULT:      -6.8      0.825      2.108
  Name = 
  6 active torsions:
  status: ('A' for Active; 'I' for Inactive)
    1  A    between atoms: C_1  and  C_9
    2  A    between atoms: N_4  and  C_8
    3  A    between atoms: C_12  and  C_28
    4  A    between atoms: C_13  and  N_15
    5  A    between atoms: N_16  and  N_17
    6  A    between atoms: C_20  and  C_23
                            x       y       z     vdW  Elec       q    Type
                         _______ _______ _______ _____ _____    ______ ____

>  <TORSDO>
F 6

$$$$
=
 OpenBabel11042418273D

 28 31  0  0  1  0  0  0  0  0999 V2000
  191.5570  174.2000  143.3290 N   0  0  0  0  0  0  0  0  0  0  0  0
  191.1020  175.5840  142.9890 C   0  0  1  0  0  3  0  0  0  0  0  0
  191.0060  174.6060  141.9990 C   0  0  2  0  0  3  0  0  0  0  0  0
  188.8370  173.5780  139.7690 C   0  0  0  0  0  0  0  0  0  0  0  0
  188.9770  174.5230  140.6330 N   0  0  0  0  0  0  0  0  0  0  0  0
  189.3520  172.3250  140.1770 N   0  0  0  0  0  0  0  0  0  0  0  0
  189.6430  173.9390  141.7880 C   0  0  1  0  0  3  0  0  0  0  0  0
  189.8310  172.5160  141.3600 C   0  0  0  0  0  3  0  0  0  0  0  0
  188.2220  173.7850  138.5030 N   0  0  0  0  0  1  0  0  0  0  0  0
  189.3900  177.1380  143.8090 C   0  0  0  0  0  3  0  0  0  0  0  0
  189.8500  175.8950  143.7500 C   0  0  0  0  0  3  0  0  0  0  0  0
  188.2000  177.4950  144.5260 N   0  0  0  0  0  0  0  0  0  0  0  0
  184.9750  178.3430  147.5800 N   0  0  0  0  0  0  0  0  0  0  0  0
  187.0160  177.9690  144.0480 C   0  0  0  0  0  0  0  0  0  0  0  0
  184.0520  179.0490  143.9950 C   0  0  0  0  0  1  0  0  0  0  0  0
  184.8390  178.6430  145.1920 C   0  0  0  0  0  0  0  0  0  0  0  0
  186.8430  177.8020  146.2370 C   0  0  0  0  0  0  0  0  0  0  0  0
  186.2580  177.8850  147.4950 C   0  0  0  0  0  3  0  0  0  0  0  0
  186.1540  178.1720  145.1110 C   0  0  0  0  0  0  0  0  0  0  0  0
  188.1040  177.3860  145.8720 C   0  0  0  0  0  3  0  0  0  0  0  0
  184.2620  178.7190  146.4720 C   0  0  0  0  0  3  0  0  0  0  0  0
  186.7190  178.2750  142.6130 C   0  0  0  0  0  2  0  0  0  0  0  0
  186.3530  177.0000  141.8770 C   0  0  0  0  0  1  0  0  0  0  0  0
  193.1210  172.6080  143.9300 N   0  0  0  0  0  0  0  0  0  0  0  0
  192.0650  173.2490  144.2200 N   0  0  0  0  0  0  0  0  0  0  0  0
  193.3870  170.2840  144.6440 O   0  0  0  0  0  0  0  0  0  0  0  0
  193.6570  171.6360  144.8260 C   0  0  0  0  0  0  0  0  0  0  0  0
  194.3790  172.0040  145.7870 O   0  0  0  0  0  1  0  0  0  0  0  0
  1 25  1  0  0  0  0
  2  1  1  0  0  0  0
  2 11  1  1  0  0  0
  3  2  1  0  0  0  0
  3  1  1  1  0  0  0
  4  6  1  0  0  0  0
  4  5  2  0  0  0  0
  5  7  1  0  0  0  0
  6  8  2  0  0  0  0
  7  8  1  6  0  0  0
  7  3  1  0  0  0  0
  9  4  1  0  0  0  0
 10 12  1  0  0  0  0
 11 10  2  0  0  0  0
 12 20  1  0  0  0  0
 14 12  1  0  0  0  0
 14 19  2  0  0  0  0
 15 16  1  0  0  0  0
 16 21  2  0  0  0  0
 17 18  1  0  0  0  0
 18 13  2  0  0  0  0
 19 16  1  0  0  0  0
 19 17  1  0  0  0  0
 20 17  2  0  0  0  0
 21 13  1  0  0  0  0
 22 14  1  0  0  0  0
 23 22  1  0  0  0  0
 24 25  2  0  0  0  0
 24 27  1  0  0  0  0
 26 27  2  0  0  0  0
 27 28  1  0  0  0  0
M  END
>  <MODEL>
4

>  <REMARK>
 VINA RESULT:      -6.7      2.237      3.390
  Name = 
  6 active torsions:
  status: ('A' for Active; 'I' for Inactive)
    1  A    between atoms: C_1  and  C_9
    2  A    between atoms: N_4  and  C_8
    3  A    between atoms: C_12  and  C_28
    4  A    between atoms: C_13  and  N_15
    5  A    between atoms: N_16  and  N_17
    6  A    between atoms: C_20  and  C_23
                            x       y       z     vdW  Elec       q    Type
                         _______ _______ _______ _____ _____    ______ ____

>  <TORSDO>
F 6

$$$$
=
 OpenBabel11042418273D

 28 31  0  0  1  0  0  0  0  0999 V2000
  191.3540  174.0720  142.9420 N   0  0  0  0  0  0  0  0  0  0  0  0
  190.9340  175.4450  142.5250 C   0  0  1  0  0  3  0  0  0  0  0  0
  190.8850  174.4310  141.5690 C   0  0  2  0  0  3  0  0  0  0  0  0
  188.8080  173.3940  139.2560 C   0  0  0  0  0  0  0  0  0  0  0  0
  188.9160  174.3450  140.1180 N   0  0  0  0  0  0  0  0  0  0  0  0
  189.3000  172.1410  139.6960 N   0  0  0  0  0  0  0  0  0  0  0  0
  189.5290  173.7670  141.3050 C   0  0  1  0  0  3  0  0  0  0  0  0
  189.7300  172.3410  140.8970 C   0  0  0  0  0  3  0  0  0  0  0  0
  188.2490  173.5930  137.9640 N   0  0  0  0  0  1  0  0  0  0  0  0
  189.2710  177.0630  143.3220 C   0  0  0  0  0  3  0  0  0  0  0  0
  189.6440  175.7960  143.2000 C   0  0  0  0  0  3  0  0  0  0  0  0
  188.0490  177.4570  143.9640 N   0  0  0  0  0  0  0  0  0  0  0  0
  183.8830  178.8320  145.0560 N   0  0  0  0  0  0  0  0  0  0  0  0
  187.7580  177.5260  145.2920 C   0  0  0  0  0  0  0  0  0  0  0  0
  186.1390  178.0030  147.9580 C   0  0  0  0  0  1  0  0  0  0  0  0
  185.6530  178.1980  146.5640 C   0  0  0  0  0  0  0  0  0  0  0  0
  185.9690  178.1570  144.1740 C   0  0  0  0  0  0  0  0  0  0  0  0
  184.6680  178.5990  143.9640 C   0  0  0  0  0  3  0  0  0  0  0  0
  186.4530  177.9600  145.4410 C   0  0  0  0  0  0  0  0  0  0  0  0
  186.9570  177.8460  143.2660 C   0  0  0  0  0  3  0  0  0  0  0  0
  184.3400  178.6450  146.3330 C   0  0  0  0  0  3  0  0  0  0  0  0
  188.6820  177.1400  146.4060 C   0  0  0  0  0  2  0  0  0  0  0  0
  188.5360  175.6610  146.7110 C   0  0  0  0  0  1  0  0  0  0  0  0
  192.9970  172.7280  143.8590 N   0  0  0  0  0  0  0  0  0  0  0  0
  191.8010  173.1510  143.8960 N   0  0  0  0  0  0  0  0  0  0  0  0
  193.2490  170.4300  144.6550 O   0  0  0  0  0  0  0  0  0  0  0  0
  193.4720  171.7910  144.8240 C   0  0  0  0  0  0  0  0  0  0  0  0
  194.0980  172.2010  145.8350 O   0  0  0  0  0  1  0  0  0  0  0  0
  1 25  1  0  0  0  0
  2  1  1  0  0  0  0
  2 11  1  1  0  0  0
  3  2  1  0  0  0  0
  3  1  1  1  0  0  0
  4  6  1  0  0  0  0
  4  5  2  0  0  0  0
  5  7  1  0  0  0  0
  6  8  2  0  0  0  0
  7  8  1  6  0  0  0
  7  3  1  0  0  0  0
  9  4  1  0  0  0  0
 10 12  1  0  0  0  0
 11 10  2  0  0  0  0
 12 14  1  0  0  0  0
 13 21  1  0  0  0  0
 14 19  2  0  0  0  0
 14 22  1  0  0  0  0
 16 15  1  0  0  0  0
 17 19  1  0  0  0  0
 18 17  1  0  0  0  0
 18 13  2  0  0  0  0
 19 16  1  0  0  0  0
 20 12  1  0  0  0  0
 20 17  2  0  0  0  0
 21 16  2  0  0  0  0
 22 23  1  0  0  0  0
 24 25  2  0  0  0  0
 24 27  1  0  0  0  0
 26 27  2  0  0  0  0
 27 28  1  0  0  0  0
M  END
>  <MODEL>
5

>  <REMARK>
 VINA RESULT:      -6.7      2.166      2.818
  Name = 
  6 active torsions:
  status: ('A' for Active; 'I' for Inactive)
    1  A    between atoms: C_1  and  C_9
    2  A    between atoms: N_4  and  C_8
    3  A    between atoms: C_12  and  C_28
    4  A    between atoms: C_13  and  N_15
    5  A    between atoms: N_16  and  N_17
    6  A    between atoms: C_20  and  C_23
                            x       y       z     vdW  Elec       q    Type
                         _______ _______ _______ _____ _____    ______ ____

>  <TORSDO>
F 6

$$$$
=
 OpenBabel11042418273D

 28 31  0  0  1  0  0  0  0  0999 V2000
  191.6230  174.1810  145.8720 N   0  0  0  0  0  0  0  0  0  0  0  0
  191.1670  175.0060  147.0340 C   0  0  1  0  0  3  0  0  0  0  0  0
  192.4540  175.2270  146.5450 C   0  0  2  0  0  3  0  0  0  0  0  0
  194.5680  176.7180  144.5340 C   0  0  0  0  0  0  0  0  0  0  0  0
  194.0260  176.8960  145.6880 N   0  0  0  0  0  0  0  0  0  0  0  0
  193.7200  176.1240  143.5690 N   0  0  0  0  0  0  0  0  0  0  0  0
  192.6590  176.4070  145.5880 C   0  0  1  0  0  3  0  0  0  0  0  0
  192.5940  175.9320  144.1700 C   0  0  0  0  0  3  0  0  0  0  0  0
  195.9160  177.0810  144.2580 N   0  0  0  0  0  1  0  0  0  0  0  0
  188.8250  175.6000  146.6090 C   0  0  0  0  0  3  0  0  0  0  0  0
  190.1030  175.9570  146.5810 C   0  0  0  0  0  3  0  0  0  0  0  0
  187.7650  176.4680  146.1820 N   0  0  0  0  0  0  0  0  0  0  0  0
  184.0710  179.0390  145.7500 N   0  0  0  0  0  0  0  0  0  0  0  0
  187.5890  177.0860  144.9820 C   0  0  0  0  0  0  0  0  0  0  0  0
  186.3080  178.8760  142.7210 C   0  0  0  0  0  1  0  0  0  0  0  0
  185.7760  178.6430  144.0920 C   0  0  0  0  0  0  0  0  0  0  0  0
  185.8940  177.6310  146.2770 C   0  0  0  0  0  0  0  0  0  0  0  0
  184.7040  178.2410  146.6580 C   0  0  0  0  0  3  0  0  0  0  0  0
  186.4200  177.8250  145.0270 C   0  0  0  0  0  0  0  0  0  0  0  0
  186.7260  176.7940  146.9870 C   0  0  0  0  0  3  0  0  0  0  0  0
  184.5730  179.2500  144.4920 C   0  0  0  0  0  3  0  0  0  0  0  0
  188.5370  177.0220  143.8240 C   0  0  0  0  0  2  0  0  0  0  0  0
  188.2770  175.7690  143.0100 C   0  0  0  0  0  1  0  0  0  0  0  0
  190.2510  173.0270  144.4130 N   0  0  0  0  0  0  0  0  0  0  0  0
  191.4150  173.2110  144.8860 N   0  0  0  0  0  0  0  0  0  0  0  0
  191.0440  171.2030  142.9890 O   0  0  0  0  0  1  0  0  0  0  0  0
  190.0180  172.0440  143.4060 C   0  0  0  0  0  0  0  0  0  0  0  0
  188.8760  171.9370  142.8910 O   0  0  0  0  0  0  0  0  0  0  0  0
  1  2  1  0  0  0  0
  2 11  1  6  0  0  0
  3  1  1  6  0  0  0
  3  2  1  0  0  0  0
  4  5  2  0  0  0  0
  6  8  2  0  0  0  0
  6  4  1  0  0  0  0
  7  8  1  6  0  0  0
  7  5  1  0  0  0  0
  7  3  1  0  0  0  0
  9  4  1  0  0  0  0
 11 10  2  0  0  0  0
 12 10  1  0  0  0  0
 12 20  1  0  0  0  0
 13 18  2  0  0  0  0
 14 19  2  0  0  0  0
 14 12  1  0  0  0  0
 15 16  1  0  0  0  0
 16 21  2  0  0  0  0
 16 19  1  0  0  0  0
 17 18  1  0  0  0  0
 17 20  2  0  0  0  0
 19 17  1  0  0  0  0
 21 13  1  0  0  0  0
 22 14  1  0  0  0  0
 23 22  1  0  0  0  0
 24 25  2  0  0  0  0
 25  1  1  0  0  0  0
 26 27  1  0  0  0  0
 27 24  1  0  0  0  0
 28 27  2  0  0  0  0
M  END
>  <MODEL>
6

>  <REMARK>
 VINA RESULT:      -6.6      2.590      4.686
  Name = 
  6 active torsions:
  status: ('A' for Active; 'I' for Inactive)
    1  A    between atoms: C_1  and  C_9
    2  A    between atoms: N_4  and  C_8
    3  A    between atoms: C_12  and  C_28
    4  A    between atoms: C_13  and  N_15
    5  A    between atoms: N_16  and  N_17
    6  A    between atoms: C_20  and  C_23
                            x       y       z     vdW  Elec       q    Type
                         _______ _______ _______ _____ _____    ______ ____

>  <TORSDO>
F 6

$$$$
=
 OpenBabel11042418273D

 28 31  0  0  1  0  0  0  0  0999 V2000
  191.6450  173.5720  143.5440 N   0  0  0  0  0  0  0  0  0  0  0  0
  191.5490  173.8960  145.0010 C   0  0  1  0  0  3  0  0  0  0  0  0
  192.7560  174.1600  144.3530 C   0  0  2  0  0  3  0  0  0  0  0  0
  195.0430  176.2990  143.3870 C   0  0  0  0  0  0  0  0  0  0  0  0
  194.2940  176.0630  144.4080 N   0  0  0  0  0  0  0  0  0  0  0  0
  194.4320  176.0410  142.1360 N   0  0  0  0  0  0  0  0  0  0  0  0
  193.0150  175.5980  143.8910 C   0  0  1  0  0  3  0  0  0  0  0  0
  193.2410  175.6270  142.4120 C   0  0  0  0  0  3  0  0  0  0  0  0
  196.3790  176.7700  143.5120 N   0  0  0  0  0  1  0  0  0  0  0  0
  189.3400  174.8530  145.4720 C   0  0  0  0  0  3  0  0  0  0  0  0
  190.6210  175.0550  145.1930 C   0  0  0  0  0  3  0  0  0  0  0  0
  188.4050  175.9250  145.6610 N   0  0  0  0  0  0  0  0  0  0  0  0
  185.5590  179.0760  147.2130 N   0  0  0  0  0  0  0  0  0  0  0  0
  187.8070  176.7190  144.7300 C   0  0  0  0  0  0  0  0  0  0  0  0
  185.9940  178.9740  143.4720 C   0  0  0  0  0  1  0  0  0  0  0  0
  186.1460  178.6440  144.9160 C   0  0  0  0  0  0  0  0  0  0  0  0
  187.0850  177.3430  146.7140 C   0  0  0  0  0  0  0  0  0  0  0  0
  186.3730  178.0740  147.6570 C   0  0  0  0  0  3  0  0  0  0  0  0
  186.9780  177.6180  145.3760 C   0  0  0  0  0  0  0  0  0  0  0  0
  187.9670  176.2980  146.8860 C   0  0  0  0  0  3  0  0  0  0  0  0
  185.4310  179.3730  145.8820 C   0  0  0  0  0  3  0  0  0  0  0  0
  188.0520  176.6640  143.2540 C   0  0  0  0  0  2  0  0  0  0  0  0
  187.1080  175.6660  142.6090 C   0  0  0  0  0  1  0  0  0  0  0  0
  190.1380  173.7430  141.8000 N   0  0  0  0  0  0  0  0  0  0  0  0
  191.0980  173.1140  142.3410 N   0  0  0  0  0  0  0  0  0  0  0  0
  188.7200  174.1200  139.8430 O   0  0  0  0  0  0  0  0  0  0  0  0
  189.5680  173.2940  140.5710 C   0  0  0  0  0  0  0  0  0  0  0  0
  189.8360  172.1420  140.1440 O   0  0  0  0  0  1  0  0  0  0  0  0
  1  2  1  0  0  0  0
  2 11  1  6  0  0  0
  3  1  1  6  0  0  0
  3  2  1  0  0  0  0
  4  9  1  0  0  0  0
  4  5  2  0  0  0  0
  6  8  2  0  0  0  0
  6  4  1  0  0  0  0
  7  8  1  6  0  0  0
  7  3  1  0  0  0  0
  7  5  1  0  0  0  0
 10 12  1  0  0  0  0
 11 10  2  0  0  0  0
 12 20  1  0  0  0  0
 13 18  2  0  0  0  0
 14 19  2  0  0  0  0
 14 12  1  0  0  0  0
 15 16  1  0  0  0  0
 16 19  1  0  0  0  0
 16 21  2  0  0  0  0
 17 20  2  0  0  0  0
 17 18  1  0  0  0  0
 19 17  1  0  0  0  0
 21 13  1  0  0  0  0
 22 14  1  0  0  0  0
 23 22  1  0  0  0  0
 24 25  2  0  0  0  0
 25  1  1  0  0  0  0
 26 27  2  0  0  0  0
 27 24  1  0  0  0  0
 28 27  1  0  0  0  0
M  END
>  <MODEL>
7

>  <REMARK>
 VINA RESULT:      -6.6      3.033      4.843
  Name = 
  6 active torsions:
  status: ('A' for Active; 'I' for Inactive)
    1  A    between atoms: C_1  and  C_9
    2  A    between atoms: N_4  and  C_8
    3  A    between atoms: C_12  and  C_28
    4  A    between atoms: C_13  and  N_15
    5  A    between atoms: N_16  and  N_17
    6  A    between atoms: C_20  and  C_23
                            x       y       z     vdW  Elec       q    Type
                         _______ _______ _______ _____ _____    ______ ____

>  <TORSDO>
F 6

$$$$
=
 OpenBabel11042418273D

 28 31  0  0  1  0  0  0  0  0999 V2000
  194.0510  173.4650  145.4810 N   0  0  0  0  0  0  0  0  0  0  0  0
  193.7460  174.8890  145.8200 C   0  0  1  0  0  3  0  0  0  0  0  0
  194.7630  174.6430  144.8970 C   0  0  2  0  0  3  0  0  0  0  0  0
  195.7620  175.7730  141.9880 C   0  0  0  0  0  0  0  0  0  0  0  0
  194.8810  176.0370  142.8890 N   0  0  0  0  0  0  0  0  0  0  0  0
  196.0070  174.3930  141.7900 N   0  0  0  0  0  0  0  0  0  0  0  0
  194.4160  174.7600  143.4090 C   0  0  1  0  0  3  0  0  0  0  0  0
  195.2270  173.7810  142.6170 C   0  0  0  0  0  3  0  0  0  0  0  0
  196.4400  176.7900  141.2600 N   0  0  0  0  0  1  0  0  0  0  0  0
  191.9820  176.5130  145.3020 C   0  0  0  0  0  3  0  0  0  0  0  0
  192.4060  175.2570  145.2620 C   0  0  0  0  0  3  0  0  0  0  0  0
  190.7060  176.9210  144.7870 N   0  0  0  0  0  0  0  0  0  0  0  0
  187.1770  178.2810  142.3110 N   0  0  0  0  0  0  0  0  0  0  0  0
  189.5200  177.0610  145.4410 C   0  0  0  0  0  0  0  0  0  0  0  0
  186.4660  177.6610  145.9590 C   0  0  0  0  0  1  0  0  0  0  0  0
  187.1950  177.7660  144.6650 C   0  0  0  0  0  0  0  0  0  0  0  0
  189.1950  177.5940  143.3300 C   0  0  0  0  0  0  0  0  0  0  0  0
  188.5070  177.9990  142.1920 C   0  0  0  0  0  3  0  0  0  0  0  0
  188.5590  177.4790  144.5380 C   0  0  0  0  0  0  0  0  0  0  0  0
  190.5200  177.2490  143.4880 C   0  0  0  0  0  3  0  0  0  0  0  0
  186.5150  178.1760  143.5050 C   0  0  0  0  0  3  0  0  0  0  0  0
  189.2830  176.7560  146.8880 C   0  0  0  0  0  2  0  0  0  0  0  0
  189.0800  175.2640  147.0760 C   0  0  0  0  0  1  0  0  0  0  0  0
  194.7910  171.2920  145.7570 N   0  0  0  0  0  0  0  0  0  0  0  0
  193.8180  172.0900  145.5920 N   0  0  0  0  0  0  0  0  0  0  0  0
  195.1940  169.1600  146.8850 O   0  0  0  0  0  1  0  0  0  0  0  0
  194.5740  169.8870  145.8750 C   0  0  0  0  0  0  0  0  0  0  0  0
  193.8160  169.3020  145.0600 O   0  0  0  0  0  0  0  0  0  0  0  0
  1 25  1  0  0  0  0
  1  2  1  0  0  0  0
  2 11  1  6  0  0  0
  3  1  1  6  0  0  0
  3  2  1  0  0  0  0
  4  5  2  0  0  0  0
  5  7  1  0  0  0  0
  6  4  1  0  0  0  0
  6  8  2  0  0  0  0
  7  8  1  6  0  0  0
  7  3  1  0  0  0  0
  9  4  1  0  0  0  0
 11 10  2  0  0  0  0
 12 10  1  0  0  0  0
 12 14  1  0  0  0  0
 13 21  1  0  0  0  0
 14 22  1  0  0  0  0
 16 15  1  0  0  0  0
 17 20  2  0  0  0  0
 17 19  1  0  0  0  0
 18 13  2  0  0  0  0
 18 17  1  0  0  0  0
 19 16  1  0  0  0  0
 19 14  2  0  0  0  0
 20 12  1  0  0  0  0
 21 16  2  0  0  0  0
 22 23  1  0  0  0  0
 24 27  1  0  0  0  0
 25 24  2  0  0  0  0
 27 26  1  0  0  0  0
 28 27  2  0  0  0  0
M  END
>  <MODEL>
8

>  <REMARK>
 VINA RESULT:      -6.5      3.294      4.705
  Name = 
  6 active torsions:
  status: ('A' for Active; 'I' for Inactive)
    1  A    between atoms: C_1  and  C_9
    2  A    between atoms: N_4  and  C_8
    3  A    between atoms: C_12  and  C_28
    4  A    between atoms: C_13  and  N_15
    5  A    between atoms: N_16  and  N_17
    6  A    between atoms: C_20  and  C_23
                            x       y       z     vdW  Elec       q    Type
                         _______ _______ _______ _____ _____    ______ ____

>  <TORSDO>
F 6

$$$$
=
 OpenBabel11042418273D

 28 31  0  0  1  0  0  0  0  0999 V2000
  192.5170  174.6490  145.8870 N   0  0  0  0  0  0  0  0  0  0  0  0
  191.8420  175.7200  146.6830 C   0  0  1  0  0  3  0  0  0  0  0  0
  193.1690  175.9270  146.3080 C   0  0  2  0  0  3  0  0  0  0  0  0
  195.3140  176.6400  143.9360 C   0  0  0  0  0  0  0  0  0  0  0  0
  194.8400  177.1610  145.0140 N   0  0  0  0  0  0  0  0  0  0  0  0
  194.3760  175.9000  143.1770 N   0  0  0  0  0  0  0  0  0  0  0  0
  193.4330  176.7950  145.0730 C   0  0  1  0  0  3  0  0  0  0  0  0
  193.2650  175.9780  143.8290 C   0  0  0  0  0  3  0  0  0  0  0  0
  196.6740  176.7900  143.5480 N   0  0  0  0  0  1  0  0  0  0  0  0
  189.5280  176.4010  146.2350 C   0  0  0  0  0  3  0  0  0  0  0  0
  190.7950  176.3800  145.8410 C   0  0  0  0  0  3  0  0  0  0  0  0
  188.4830  177.0140  145.4660 N   0  0  0  0  0  0  0  0  0  0  0  0
  185.8330  178.8500  142.2970 N   0  0  0  0  0  0  0  0  0  0  0  0
  187.2550  177.4410  145.8700 C   0  0  0  0  0  0  0  0  0  0  0  0
  184.3560  178.6810  145.7590 C   0  0  0  0  0  1  0  0  0  0  0  0
  185.3140  178.5330  144.6290 C   0  0  0  0  0  0  0  0  0  0  0  0
  187.4400  177.8570  143.7160 C   0  0  0  0  0  0  0  0  0  0  0  0
  187.0720  178.2990  142.4500 C   0  0  0  0  0  3  0  0  0  0  0  0
  186.5850  177.9690  144.7810 C   0  0  0  0  0  0  0  0  0  0  0  0
  188.6100  177.2670  144.1420 C   0  0  0  0  0  3  0  0  0  0  0  0
  184.9580  178.9760  143.3430 C   0  0  0  0  0  3  0  0  0  0  0  0
  186.7000  177.3070  147.2550 C   0  0  0  0  0  2  0  0  0  0  0  0
  186.9630  178.5760  148.0430 C   0  0  0  0  0  1  0  0  0  0  0  0
  191.4710  173.0140  144.6320 N   0  0  0  0  0  0  0  0  0  0  0  0
  192.5200  173.4190  145.2210 N   0  0  0  0  0  0  0  0  0  0  0  0
  190.5370  171.5290  142.9280 O   0  0  0  0  0  0  0  0  0  0  0  0
  191.4540  171.7630  143.9450 C   0  0  0  0  0  0  0  0  0  0  0  0
  192.2770  170.8660  144.2630 O   0  0  0  0  0  1  0  0  0  0  0  0
  1  2  1  0  0  0  0
  2 11  1  6  0  0  0
  3  1  1  6  0  0  0
  3  2  1  0  0  0  0
  4  5  2  0  0  0  0
  5  7  1  0  0  0  0
  6  8  2  0  0  0  0
  6  4  1  0  0  0  0
  7  8  1  6  0  0  0
  7  3  1  0  0  0  0
  9  4  1  0  0  0  0
 11 10  2  0  0  0  0
 12 14  1  0  0  0  0
 12 10  1  0  0  0  0
 13 18  2  0  0  0  0
 13 21  1  0  0  0  0
 14 22  1  0  0  0  0
 16 19  1  0  0  0  0
 16 15  1  0  0  0  0
 17 20  2  0  0  0  0
 17 19  1  0  0  0  0
 18 17  1  0  0  0  0
 19 14  2  0  0  0  0
 20 12  1  0  0  0  0
 21 16  2  0  0  0  0
 22 23  1  0  0  0  0
 24 25  2  0  0  0  0
 25  1  1  0  0  0  0
 26 27  2  0  0  0  0
 27 28  1  0  0  0  0
 27 24  1  0  0  0  0
M  END
>  <MODEL>
9

>  <REMARK>
 VINA RESULT:      -6.5      2.579      4.456
  Name = 
  6 active torsions:
  status: ('A' for Active; 'I' for Inactive)
    1  A    between atoms: C_1  and  C_9
    2  A    between atoms: N_4  and  C_8
    3  A    between atoms: C_12  and  C_28
    4  A    between atoms: C_13  and  N_15
    5  A    between atoms: N_16  and  N_17
    6  A    between atoms: C_20  and  C_23
                            x       y       z     vdW  Elec       q    Type
                         _______ _______ _______ _____ _____    ______ ____

>  <TORSDO>
F 6

$$$$
