=
 OpenBabel11042415213D

 47 49  0  0  1  0  0  0  0  0999 V2000
  194.1830  175.0020  144.1960 C   0  0  1  0  0  3  0  0  0  0  0  0
  194.7270  172.6080  143.9360 C   0  0  0  0  0  3  0  0  0  0  0  0
  194.5680  171.1040  143.8580 C   0  0  2  0  0  3  0  0  0  0  0  0
  191.6890  172.2160  143.8560 C   0  0  0  0  0  0  0  0  0  0  0  0
  192.4020  173.2380  144.6980 C   0  0  0  0  0  2  0  0  0  0  0  0
  193.3460  170.5360  144.5700 C   0  0  0  0  0  2  0  0  0  0  0  0
  192.1110  170.9470  143.8330 C   0  0  0  0  0  3  0  0  0  0  0  0
  193.7960  173.5470  144.2240 C   0  0  0  0  0  0  0  0  0  0  0  0
  190.4780  172.5940  143.0590 C   0  0  2  0  0  3  0  0  0  0  0  0
  190.1200  171.4830  142.0550 C   0  0  0  0  0  2  0  0  0  0  0  0
  190.4450  172.9720  140.0430 C   0  0  1  0  0  3  0  0  0  0  0  0
  192.2440  174.4530  140.7240 N   0  0  0  0  0  2  0  0  0  0  0  0
  190.6240  173.9970  142.4400 C   0  0  0  0  0  2  0  0  0  0  0  0
  191.1110  173.9250  141.0210 C   0  0  0  0  0  0  0  0  0  0  0  0
  189.4680  172.0450  140.7950 C   0  0  0  0  0  2  0  0  0  0  0  0
  190.2910  173.2690  137.6790 C   0  0  0  0  0  1  0  0  0  0  0  0
  188.3500  173.3000  138.9380 C   0  0  0  0  0  1  0  0  0  0  0  0
  189.7540  173.7010  138.9650 N   0  0  0  0  0  0  0  0  0  0  0  0
  195.7760  170.4600  144.3680 N   0  0  0  0  0  2  0  0  0  0  0  0
  195.9810  170.7610  145.7870 C   0  0  0  0  0  3  0  0  0  0  0  0
  197.0380  171.8360  146.0020 C   0  0  0  0  0  1  0  0  0  0  0  0
  196.2930  169.5100  146.5940 C   0  0  0  0  0  1  0  0  0  0  0  0
  193.7950  175.7300  145.4860 C   0  0  1  0  0  3  0  0  0  0  0  0
  194.8970  175.8740  146.3360 O   0  0  0  0  0  1  0  0  0  0  0  0
  193.2410  177.0370  145.1750 N   0  0  0  0  0  2  0  0  0  0  0  0
  192.3830  176.8790  144.0110 C   0  0  0  0  0  2  0  0  0  0  0  0
  188.1520  176.5460  144.6290 C   0  0  0  0  0  2  0  0  0  0  0  0
  190.9610  177.1290  144.3900 C   0  0  0  0  0  0  0  0  0  0  0  0
  190.0470  177.8530  143.4420 C   0  0  0  0  0  2  0  0  0  0  0  0
  190.4670  176.6710  145.5470 C   0  0  0  0  0  3  0  0  0  0  0  0
  189.0120  176.8950  145.8530 C   0  0  2  0  0  3  0  0  0  0  0  0
  188.7220  177.0930  143.2960 C   0  0  2  0  0  3  0  0  0  0  0  0
  189.6720  175.2060  147.1230 C   0  0  0  0  0  1  0  0  0  0  0  0
  188.6290  176.1180  146.9500 O   0  0  0  0  0  0  0  0  0  0  0  0
  187.6970  177.9370  142.5390 C   0  0  1  0  0  3  0  0  0  0  0  0
  187.8390  177.7340  141.1640 O   0  0  0  0  0  0  0  0  0  0  0  0
  187.6570  176.3600  140.9840 C   0  0  0  0  0  1  0  0  0  0  0  0
  186.3920  177.5980  142.9290 O   0  0  0  0  0  0  0  0  0  0  0  0
  184.6470  178.4820  141.7610 O   0  0  0  0  0  1  0  0  0  0  0  0
  185.6290  178.7520  142.7150 C   0  0  1  0  0  3  0  0  0  0  0  0
  183.7210  179.1450  144.0980 O   0  0  0  0  0  0  0  0  0  0  0  0
  184.9790  179.1870  143.9900 C   0  0  0  0  0  0  0  0  0  0  0  0
  185.7520  179.6030  145.0700 O   0  0  0  0  0  1  0  0  0  0  0  0
  195.6530  175.2020  143.8360 C   0  0  0  0  0  2  0  0  0  0  0  0
  195.8190  176.4190  143.0570 N   0  0  0  0  0  2  0  0  0  0  0  0
  195.7860  176.0150  140.8830 O   0  0  0  0  0  1  0  0  0  0  0  0
  196.6150  176.0900  141.9520 N   0  0  0  0  0  2  0  0  0  0  0  0
  1 44  1  1  0  0  0
  1  8  1  0  0  0  0
  1 23  1  0  0  0  0
  2  8  2  0  0  0  0
  3  2  1  0  0  0  0
  3 19  1  1  0  0  0
  3  6  1  0  0  0  0
  4  5  1  0  0  0  0
  7  4  2  0  0  0  0
  7  6  1  0  0  0  0
  8  5  1  0  0  0  0
  9  4  1  6  0  0  0
 10  9  1  0  0  0  0
 11 18  1  6  0  0  0
 11 15  1  0  0  0  0
 11 14  1  0  0  0  0
 12 14  2  0  0  0  0
 13  9  1  0  0  0  0
 14 13  1  0  0  0  0
 15 10  1  0  0  0  0
 16 18  1  0  0  0  0
 17 18  1  0  0  0  0
 19 20  1  0  0  0  0
 20 21  1  0  0  0  0
 20 22  1  0  0  0  0
 23 24  1  1  0  0  0
 25 23  1  0  0  0  0
 26 28  1  0  0  0  0
 26 25  1  0  0  0  0
 27 31  1  0  0  0  0
 28 30  2  0  0  0  0
 29 28  1  0  0  0  0
 30 31  1  0  0  0  0
 31 34  1  1  0  0  0
 32 35  1  1  0  0  0
 32 29  1  0  0  0  0
 32 27  1  0  0  0  0
 34 33  1  0  0  0  0
 35 36  1  6  0  0  0
 35 38  1  0  0  0  0
 37 36  1  0  0  0  0
 40 39  1  6  0  0  0
 40 38  1  0  0  0  0
 40 42  1  0  0  0  0
 42 41  2  0  0  0  0
 42 43  1  0  0  0  0
 45 44  1  0  0  0  0
 46 47  1  0  0  0  0
 47 45  1  0  0  0  0
M  END
>  <MODEL>
1

>  <REMARK>
 VINA RESULT:      -6.3      0.000      0.000
  Name = 
  18 active torsions:
  status: ('A' for Active; 'I' for Inactive)
    1  A    between atoms: C_3  and  N_18
    2  A    between atoms: O_5  and  C_9
    3  A    between atoms: O_5  and  C_32
    4  A    between atoms: C_6  and  C_9
    5  A    between atoms: C_10  and  C_29
    6  A    between atoms: O_11  and  C_32
    7  A    between atoms: C_14  and  C_34
    8  A    between atoms: N_15  and  C_25
    9  A    between atoms: N_15  and  C_34
   10  A    between atoms: N_18  and  C_28
   11  A    between atoms: C_19  and  C_20
   12  A    between atoms: C_19  and  C_25
   13  A    between atoms: C_19  and  C_45
   14  A    between atoms: C_20  and  N_23
   15  A    between atoms: C_21  and  N_46
   16  A    between atoms: N_23  and  N_40
   17  A    between atoms: C_32  and  C_42
   18  A    between atoms: C_39  and  O_44
                            x       y       z     vdW  Elec       q    Type
                         _______ _______ _______ _____ _____    ______ ____

>  <TORSDO>
F 18

$$$$
=
 OpenBabel11042415213D

 47 49  0  0  1  0  0  0  0  0999 V2000
  193.4350  172.3920  144.4740 C   0  0  1  0  0  3  0  0  0  0  0  0
  192.5480  174.2970  145.7700 C   0  0  0  0  0  3  0  0  0  0  0  0
  192.4570  175.6470  146.4510 C   0  0  2  0  0  3  0  0  0  0  0  0
  195.0120  175.7900  144.7250 C   0  0  0  0  0  0  0  0  0  0  0  0
  194.9820  174.3320  145.0910 C   0  0  0  0  0  2  0  0  0  0  0  0
  193.7900  176.2930  146.8070 C   0  0  0  0  0  2  0  0  0  0  0  0
  194.4900  176.7040  145.5500 C   0  0  0  0  0  3  0  0  0  0  0  0
  193.5970  173.7430  145.1190 C   0  0  0  0  0  0  0  0  0  0  0  0
  195.6550  176.2440  143.4500 C   0  0  2  0  0  3  0  0  0  0  0  0
  194.7800  175.8750  142.2390 C   0  0  0  0  0  2  0  0  0  0  0  0
  196.5450  174.3920  141.2100 C   0  0  1  0  0  3  0  0  0  0  0  0
  197.6750  173.4440  143.1380 N   0  0  0  0  0  2  0  0  0  0  0  0
  197.1170  175.7710  143.3550 C   0  0  0  0  0  2  0  0  0  0  0  0
  197.2350  174.5020  142.5590 C   0  0  0  0  0  0  0  0  0  0  0  0
  195.6190  175.6060  140.9930 C   0  0  0  0  0  2  0  0  0  0  0  0
  196.8580  173.6960  138.9480 C   0  0  0  0  0  1  0  0  0  0  0  0
  197.9310  175.6070  139.6880 C   0  0  0  0  0  1  0  0  0  0  0  0
  197.5210  174.2720  140.1130 N   0  0  0  0  0  0  0  0  0  0  0  0
  191.6320  175.5310  147.6510 N   0  0  0  0  0  2  0  0  0  0  0  0
  190.2820  176.0530  147.4210 C   0  0  0  0  0  3  0  0  0  0  0  0
  189.2710  174.9430  147.1640 C   0  0  0  0  0  1  0  0  0  0  0  0
  190.2560  177.0920  146.3110 C   0  0  0  0  0  1  0  0  0  0  0  0
  192.9340  172.4930  143.0310 C   0  0  1  0  0  3  0  0  0  0  0  0
  193.9670  172.2500  142.1190 O   0  0  0  0  0  1  0  0  0  0  0  0
  191.8510  171.5480  142.8110 N   0  0  0  0  0  2  0  0  0  0  0  0
  190.7570  171.9290  143.6900 C   0  0  0  0  0  2  0  0  0  0  0  0
  188.7450  174.5580  140.9630 C   0  0  0  0  0  2  0  0  0  0  0  0
  189.7290  172.6910  142.9210 C   0  0  0  0  0  0  0  0  0  0  0  0
  189.2160  174.0020  143.4490 C   0  0  0  0  0  2  0  0  0  0  0  0
  189.2900  172.2510  141.7360 C   0  0  0  0  0  3  0  0  0  0  0  0
  188.3010  173.0870  140.9730 C   0  0  2  0  0  3  0  0  0  0  0  0
  189.2380  175.0650  142.3420 C   0  0  2  0  0  3  0  0  0  0  0  0
  189.4950  172.4260  139.2300 C   0  0  0  0  0  1  0  0  0  0  0  0
  188.1810  172.6110  139.6640 O   0  0  0  0  0  0  0  0  0  0  0  0
  188.4920  176.3220  142.7890 C   0  0  1  0  0  3  0  0  0  0  0  0
  189.0950  177.4530  142.2320 O   0  0  0  0  0  0  0  0  0  0  0  0
  190.3970  177.4510  142.7380 C   0  0  0  0  0  1  0  0  0  0  0  0
  187.1470  176.2670  142.3920 O   0  0  0  0  0  0  0  0  0  0  0  0
  187.2770  176.6660  144.6310 O   0  0  0  0  0  1  0  0  0  0  0  0
  186.4050  176.4180  143.5700 C   0  0  1  0  0  3  0  0  0  0  0  0
  184.6170  177.5700  142.4830 O   0  0  0  0  0  0  0  0  0  0  0  0
  185.4450  177.5570  143.4360 C   0  0  0  0  0  0  0  0  0  0  0  0
  185.4330  178.5840  144.3770 O   0  0  0  0  0  1  0  0  0  0  0  0
  194.6970  171.5410  144.5920 C   0  0  0  0  0  2  0  0  0  0  0  0
  194.5420  170.5550  145.6510 N   0  0  0  0  0  2  0  0  0  0  0  0
  194.6060  169.2250  143.8850 O   0  0  0  0  0  1  0  0  0  0  0  0
  193.9710  169.4170  145.0670 N   0  0  0  0  0  2  0  0  0  0  0  0
  1 44  1  6  0  0  0
  1  8  1  0  0  0  0
  2  3  1  0  0  0  0
  3  6  1  0  0  0  0
  3 19  1  1  0  0  0
  4  5  1  0  0  0  0
  4  7  2  0  0  0  0
  5  8  1  0  0  0  0
  7  6  1  0  0  0  0
  8  2  2  0  0  0  0
  9  4  1  1  0  0  0
 10  9  1  0  0  0  0
 11 18  1  6  0  0  0
 11 14  1  0  0  0  0
 13  9  1  0  0  0  0
 14 12  2  0  0  0  0
 14 13  1  0  0  0  0
 15 11  1  0  0  0  0
 15 10  1  0  0  0  0
 16 18  1  0  0  0  0
 17 18  1  0  0  0  0
 20 19  1  0  0  0  0
 21 20  1  0  0  0  0
 22 20  1  0  0  0  0
 23 24  1  6  0  0  0
 23  1  1  0  0  0  0
 25 23  1  0  0  0  0
 25 26  1  0  0  0  0
 27 31  1  0  0  0  0
 27 32  1  0  0  0  0
 28 29  1  0  0  0  0
 28 26  1  0  0  0  0
 30 28  2  0  0  0  0
 31 34  1  6  0  0  0
 31 30  1  0  0  0  0
 32 35  1  1  0  0  0
 32 29  1  0  0  0  0
 33 34  1  0  0  0  0
 35 36  1  6  0  0  0
 36 37  1  0  0  0  0
 38 35  1  0  0  0  0
 38 40  1  0  0  0  0
 40 39  1  1  0  0  0
 41 42  2  0  0  0  0
 42 40  1  0  0  0  0
 42 43  1  0  0  0  0
 44 45  1  0  0  0  0
 46 47  1  0  0  0  0
 47 45  1  0  0  0  0
M  END
>  <MODEL>
2

>  <REMARK>
 VINA RESULT:      -6.1      2.457      5.767
  Name = 
  18 active torsions:
  status: ('A' for Active; 'I' for Inactive)
    1  A    between atoms: C_3  and  N_18
    2  A    between atoms: O_5  and  C_9
    3  A    between atoms: O_5  and  C_32
    4  A    between atoms: C_6  and  C_9
    5  A    between atoms: C_10  and  C_29
    6  A    between atoms: O_11  and  C_32
    7  A    between atoms: C_14  and  C_34
    8  A    between atoms: N_15  and  C_25
    9  A    between atoms: N_15  and  C_34
   10  A    between atoms: N_18  and  C_28
   11  A    between atoms: C_19  and  C_20
   12  A    between atoms: C_19  and  C_25
   13  A    between atoms: C_19  and  C_45
   14  A    between atoms: C_20  and  N_23
   15  A    between atoms: C_21  and  N_46
   16  A    between atoms: N_23  and  N_40
   17  A    between atoms: C_32  and  C_42
   18  A    between atoms: C_39  and  O_44
                            x       y       z     vdW  Elec       q    Type
                         _______ _______ _______ _____ _____    ______ ____

>  <TORSDO>
F 18

$$$$
=
 OpenBabel11042415213D

 47 49  0  0  1  0  0  0  0  0999 V2000
  189.1250  174.3900  142.8600 C   0  0  1  0  0  3  0  0  0  0  0  0
  188.6720  176.3050  144.3510 C   0  0  0  0  0  3  0  0  0  0  0  0
  188.6650  177.1950  145.5760 C   0  0  2  0  0  3  0  0  0  0  0  0
  190.7430  174.9980  146.1930 C   0  0  0  0  0  0  0  0  0  0  0  0
  189.7650  174.2490  145.3310 C   0  0  0  0  0  2  0  0  0  0  0  0
  188.9100  176.4860  146.9030 C   0  0  0  0  0  2  0  0  0  0  0  0
  190.3290  176.0150  146.9560 C   0  0  0  0  0  3  0  0  0  0  0  0
  189.2010  175.0680  144.2020 C   0  0  0  0  0  0  0  0  0  0  0  0
  192.1860  174.5960  146.2380 C   0  0  2  0  0  3  0  0  0  0  0  0
  193.0700  175.7900  146.6380 C   0  0  0  0  0  2  0  0  0  0  0  0
  194.3610  175.7700  144.4690 C   0  0  1  0  0  3  0  0  0  0  0  0
  192.7120  175.0480  142.8400 N   0  0  0  0  0  2  0  0  0  0  0  0
  192.6140  173.8840  144.9410 C   0  0  0  0  0  2  0  0  0  0  0  0
  193.2660  174.8380  143.9800 C   0  0  0  0  0  0  0  0  0  0  0  0
  194.4570  175.7070  146.0070 C   0  0  0  0  0  2  0  0  0  0  0  0
  196.3920  176.6930  143.6200 C   0  0  0  0  0  1  0  0  0  0  0  0
  196.4750  174.7040  144.7980 C   0  0  0  0  0  1  0  0  0  0  0  0
  195.6580  175.4520  143.8470 N   0  0  0  0  0  0  0  0  0  0  0  0
  187.4030  177.9280  145.6370 N   0  0  0  0  0  2  0  0  0  0  0  0
  186.2900  177.1130  145.1430 C   0  0  0  0  0  3  0  0  0  0  0  0
  185.5800  177.7610  143.9610 C   0  0  0  0  0  1  0  0  0  0  0  0
  185.3100  176.7590  146.2500 C   0  0  0  0  0  1  0  0  0  0  0  0
  189.2680  172.8700  142.9690 C   0  0  1  0  0  3  0  0  0  0  0  0
  188.1470  172.2180  142.4420 O   0  0  0  0  0  1  0  0  0  0  0  0
  190.4650  172.4280  142.2720 N   0  0  0  0  0  2  0  0  0  0  0  0
  190.6750  171.0300  142.6130 C   0  0  0  0  0  2  0  0  0  0  0  0
  194.9040  171.3110  143.2710 C   0  0  0  0  0  2  0  0  0  0  0  0
  192.1370  170.7450  142.7110 C   0  0  0  0  0  0  0  0  0  0  0  0
  193.0270  170.9640  141.5200 C   0  0  0  0  0  2  0  0  0  0  0  0
  192.6840  170.3450  143.8660 C   0  0  0  0  0  3  0  0  0  0  0  0
  194.1700  170.1330  143.9290 C   0  0  2  0  0  3  0  0  0  0  0  0
  194.2750  171.7590  141.9270 C   0  0  2  0  0  3  0  0  0  0  0  0
  194.8960  171.2890  145.6720 C   0  0  0  0  0  1  0  0  0  0  0  0
  194.5780  169.9940  145.2590 O   0  0  0  0  0  0  0  0  0  0  0  0
  195.2990  171.7710  140.7930 C   0  0  1  0  0  3  0  0  0  0  0  0
  195.0980  170.6660  139.9620 O   0  0  0  0  0  0  0  0  0  0  0  0
  195.8430  170.9410  138.8120 C   0  0  0  0  0  1  0  0  0  0  0  0
  195.1860  172.9490  140.0370 O   0  0  0  0  0  0  0  0  0  0  0  0
  197.1670  173.3660  141.0820 O   0  0  0  0  0  1  0  0  0  0  0  0
  195.9300  173.9090  140.7330 C   0  0  1  0  0  3  0  0  0  0  0  0
  195.6020  175.1860  138.7410 O   0  0  0  0  0  0  0  0  0  0  0  0
  196.1390  175.1210  139.8820 C   0  0  0  0  0  0  0  0  0  0  0  0
  196.8920  176.1930  140.3540 O   0  0  0  0  0  1  0  0  0  0  0  0
  187.8830  174.8020  142.0740 C   0  0  0  0  0  2  0  0  0  0  0  0
  188.2650  175.5450  140.8830 N   0  0  0  0  0  2  0  0  0  0  0  0
  187.8960  177.7040  141.1920 O   0  0  0  0  0  1  0  0  0  0  0  0
  187.3230  176.5700  140.7230 N   0  0  0  0  0  2  0  0  0  0  0  0
  1 44  1  1  0  0  0
  1 23  1  0  0  0  0
  1  8  1  0  0  0  0
  2  3  1  0  0  0  0
  3 19  1  1  0  0  0
  3  6  1  0  0  0  0
  4  7  2  0  0  0  0
  5  4  1  0  0  0  0
  6  7  1  0  0  0  0
  8  2  2  0  0  0  0
  8  5  1  0  0  0  0
  9  4  1  6  0  0  0
  9 10  1  0  0  0  0
 11 18  1  6  0  0  0
 11 15  1  0  0  0  0
 12 14  2  0  0  0  0
 13  9  1  0  0  0  0
 14 11  1  0  0  0  0
 14 13  1  0  0  0  0
 15 10  1  0  0  0  0
 16 18  1  0  0  0  0
 18 17  1  0  0  0  0
 20 19  1  0  0  0  0
 20 22  1  0  0  0  0
 21 20  1  0  0  0  0
 23 24  1  6  0  0  0
 25 26  1  0  0  0  0
 25 23  1  0  0  0  0
 26 28  1  0  0  0  0
 27 31  1  0  0  0  0
 28 30  2  0  0  0  0
 29 32  1  0  0  0  0
 29 28  1  0  0  0  0
 30 31  1  0  0  0  0
 31 34  1  1  0  0  0
 32 35  1  6  0  0  0
 32 27  1  0  0  0  0
 34 33  1  0  0  0  0
 35 36  1  6  0  0  0
 37 36  1  0  0  0  0
 38 40  1  0  0  0  0
 38 35  1  0  0  0  0
 40 39  1  6  0  0  0
 41 42  2  0  0  0  0
 42 43  1  0  0  0  0
 42 40  1  0  0  0  0
 45 44  1  0  0  0  0
 47 45  1  0  0  0  0
 47 46  1  0  0  0  0
M  END
>  <MODEL>
3

>  <REMARK>
 VINA RESULT:      -6.0      2.668      8.673
  Name = 
  18 active torsions:
  status: ('A' for Active; 'I' for Inactive)
    1  A    between atoms: C_3  and  N_18
    2  A    between atoms: O_5  and  C_9
    3  A    between atoms: O_5  and  C_32
    4  A    between atoms: C_6  and  C_9
    5  A    between atoms: C_10  and  C_29
    6  A    between atoms: O_11  and  C_32
    7  A    between atoms: C_14  and  C_34
    8  A    between atoms: N_15  and  C_25
    9  A    between atoms: N_15  and  C_34
   10  A    between atoms: N_18  and  C_28
   11  A    between atoms: C_19  and  C_20
   12  A    between atoms: C_19  and  C_25
   13  A    between atoms: C_19  and  C_45
   14  A    between atoms: C_20  and  N_23
   15  A    between atoms: C_21  and  N_46
   16  A    between atoms: N_23  and  N_40
   17  A    between atoms: C_32  and  C_42
   18  A    between atoms: C_39  and  O_44
                            x       y       z     vdW  Elec       q    Type
                         _______ _______ _______ _____ _____    ______ ____

>  <TORSDO>
F 18

$$$$
=
 OpenBabel11042415213D

 47 49  0  0  1  0  0  0  0  0999 V2000
  193.1570  174.8180  145.0870 C   0  0  1  0  0  3  0  0  0  0  0  0
  194.1510  172.5680  145.3000 C   0  0  0  0  0  3  0  0  0  0  0  0
  194.4430  171.1030  145.0530 C   0  0  2  0  0  3  0  0  0  0  0  0
  192.7100  171.9900  142.6570 C   0  0  0  0  0  0  0  0  0  0  0  0
  192.1750  172.8700  143.7540 C   0  0  0  0  0  2  0  0  0  0  0  0
  193.3320  170.3210  144.3620 C   0  0  0  0  0  2  0  0  0  0  0  0
  193.2110  170.7840  142.9440 C   0  0  0  0  0  3  0  0  0  0  0  0
  193.2330  173.3640  144.7040 C   0  0  0  0  0  0  0  0  0  0  0  0
  192.6580  172.4360  141.2280 C   0  0  2  0  0  3  0  0  0  0  0  0
  191.5550  173.4900  141.0270 C   0  0  0  0  0  2  0  0  0  0  0  0
  190.2650  172.0670  139.3900 C   0  0  1  0  0  3  0  0  0  0  0  0
  190.6540  169.8060  140.1840 N   0  0  0  0  0  2  0  0  0  0  0  0
  192.5830  171.2360  140.2650 C   0  0  0  0  0  2  0  0  0  0  0  0
  191.1660  170.9390  139.8640 C   0  0  0  0  0  0  0  0  0  0  0  0
  190.9560  173.4260  139.6250 C   0  0  0  0  0  2  0  0  0  0  0  0
  189.0190  173.0020  137.5810 C   0  0  0  0  0  1  0  0  0  0  0  0
  191.0880  172.0620  137.1460 C   0  0  0  0  0  1  0  0  0  0  0  0
  189.8950  171.9030  137.9730 N   0  0  0  0  0  0  0  0  0  0  0  0
  194.7860  170.4560  146.3170 N   0  0  0  0  0  2  0  0  0  0  0  0
  195.9740  169.6100  146.1760 C   0  0  0  0  0  3  0  0  0  0  0  0
  196.3090  168.8680  147.4630 C   0  0  0  0  0  1  0  0  0  0  0  0
  197.1710  170.3930  145.6610 C   0  0  0  0  0  1  0  0  0  0  0  0
  192.3300  175.0420  146.3560 C   0  0  1  0  0  3  0  0  0  0  0  0
  192.7870  176.1580  147.0670 O   0  0  0  0  0  1  0  0  0  0  0  0
  190.9280  175.2180  146.0150 N   0  0  0  0  0  2  0  0  0  0  0  0
  190.4820  176.4540  146.6370 C   0  0  0  0  0  2  0  0  0  0  0  0
  186.6810  176.8100  144.6830 C   0  0  0  0  0  2  0  0  0  0  0  0
  189.2680  176.9670  145.9360 C   0  0  0  0  0  0  0  0  0  0  0  0
  189.2470  177.0520  144.4350 C   0  0  0  0  0  2  0  0  0  0  0  0
  188.1690  177.3050  146.6210 C   0  0  0  0  0  3  0  0  0  0  0  0
  186.9520  177.7550  145.8630 C   0  0  2  0  0  3  0  0  0  0  0  0
  187.9550  176.4350  143.8850 C   0  0  2  0  0  3  0  0  0  0  0  0
  185.8200  179.0990  147.2100 C   0  0  0  0  0  1  0  0  0  0  0  0
  185.8440  177.7930  146.7150 O   0  0  0  0  0  0  0  0  0  0  0  0
  187.8060  176.7370  142.3950 C   0  0  1  0  0  3  0  0  0  0  0  0
  188.6050  175.8640  141.6520 O   0  0  0  0  0  0  0  0  0  0  0  0
  188.0360  174.6030  141.8480 C   0  0  0  0  0  1  0  0  0  0  0  0
  186.4680  176.6010  141.9930 O   0  0  0  0  0  0  0  0  0  0  0  0
  186.4590  177.4070  139.8630 O   0  0  0  0  0  1  0  0  0  0  0  0
  186.2020  177.7220  141.1980 C   0  0  1  0  0  3  0  0  0  0  0  0
  184.1550  178.6190  140.3560 O   0  0  0  0  0  0  0  0  0  0  0  0
  184.7730  178.1370  141.3460 C   0  0  0  0  0  0  0  0  0  0  0  0
  184.1090  177.9600  142.5570 O   0  0  0  0  0  1  0  0  0  0  0  0
  194.5370  175.4660  145.1710 C   0  0  0  0  0  2  0  0  0  0  0  0
  194.6730  176.4940  144.1510 N   0  0  0  0  0  2  0  0  0  0  0  0
  196.2930  176.1560  142.6850 O   0  0  0  0  0  1  0  0  0  0  0  0
  196.0440  176.6580  143.9180 N   0  0  0  0  0  2  0  0  0  0  0  0
  1 44  1  1  0  0  0
  1 23  1  0  0  0  0
  3  2  1  0  0  0  0
  3 19  1  1  0  0  0
  4  7  2  0  0  0  0
  4  5  1  0  0  0  0
  5  8  1  0  0  0  0
  6  3  1  0  0  0  0
  7  6  1  0  0  0  0
  8  1  1  0  0  0  0
  8  2  2  0  0  0  0
  9  4  1  1  0  0  0
 10  9  1  0  0  0  0
 11 18  1  6  0  0  0
 11 15  1  0  0  0  0
 11 14  1  0  0  0  0
 13  9  1  0  0  0  0
 14 12  2  0  0  0  0
 14 13  1  0  0  0  0
 15 10  1  0  0  0  0
 16 18  1  0  0  0  0
 17 18  1  0  0  0  0
 20 19  1  0  0  0  0
 20 21  1  0  0  0  0
 22 20  1  0  0  0  0
 23 24  1  6  0  0  0
 25 23  1  0  0  0  0
 25 26  1  0  0  0  0
 27 31  1  0  0  0  0
 28 30  2  0  0  0  0
 28 26  1  0  0  0  0
 29 28  1  0  0  0  0
 31 30  1  0  0  0  0
 31 34  1  1  0  0  0
 32 35  1  6  0  0  0
 32 29  1  0  0  0  0
 32 27  1  0  0  0  0
 34 33  1  0  0  0  0
 35 36  1  6  0  0  0
 36 37  1  0  0  0  0
 38 35  1  0  0  0  0
 40 39  1  6  0  0  0
 40 42  1  0  0  0  0
 40 38  1  0  0  0  0
 41 42  2  0  0  0  0
 42 43  1  0  0  0  0
 45 44  1  0  0  0  0
 46 47  1  0  0  0  0
 47 45  1  0  0  0  0
M  END
>  <MODEL>
4

>  <REMARK>
 VINA RESULT:      -5.8      1.746      2.469
  Name = 
  18 active torsions:
  status: ('A' for Active; 'I' for Inactive)
    1  A    between atoms: C_3  and  N_18
    2  A    between atoms: O_5  and  C_9
    3  A    between atoms: O_5  and  C_32
    4  A    between atoms: C_6  and  C_9
    5  A    between atoms: C_10  and  C_29
    6  A    between atoms: O_11  and  C_32
    7  A    between atoms: C_14  and  C_34
    8  A    between atoms: N_15  and  C_25
    9  A    between atoms: N_15  and  C_34
   10  A    between atoms: N_18  and  C_28
   11  A    between atoms: C_19  and  C_20
   12  A    between atoms: C_19  and  C_25
   13  A    between atoms: C_19  and  C_45
   14  A    between atoms: C_20  and  N_23
   15  A    between atoms: C_21  and  N_46
   16  A    between atoms: N_23  and  N_40
   17  A    between atoms: C_32  and  C_42
   18  A    between atoms: C_39  and  O_44
                            x       y       z     vdW  Elec       q    Type
                         _______ _______ _______ _____ _____    ______ ____

>  <TORSDO>
F 18

$$$$
=
 OpenBabel11042415213D

 47 49  0  0  1  0  0  0  0  0999 V2000
  188.5010  175.9440  146.0660 C   0  0  1  0  0  3  0  0  0  0  0  0
  188.6950  176.8960  143.7960 C   0  0  0  0  0  3  0  0  0  0  0  0
  189.2870  177.5350  142.5580 C   0  0  2  0  0  3  0  0  0  0  0  0
  191.7130  176.8100  144.3240 C   0  0  0  0  0  0  0  0  0  0  0  0
  190.6660  177.1080  145.3620 C   0  0  0  0  0  2  0  0  0  0  0  0
  190.5560  178.3480  142.7820 C   0  0  0  0  0  2  0  0  0  0  0  0
  191.6780  177.4240  143.1360 C   0  0  0  0  0  3  0  0  0  0  0  0
  189.2870  176.6370  144.9850 C   0  0  0  0  0  0  0  0  0  0  0  0
  192.8260  175.8500  144.6140 C   0  0  2  0  0  3  0  0  0  0  0  0
  193.9660  176.5540  145.3710 C   0  0  0  0  0  2  0  0  0  0  0  0
  195.6610  176.1210  143.5520 C   0  0  1  0  0  3  0  0  0  0  0  0
  194.3400  176.2260  141.5170 N   0  0  0  0  0  2  0  0  0  0  0  0
  193.2660  175.0950  143.3460 C   0  0  0  0  0  2  0  0  0  0  0  0
  194.4580  175.7470  142.7030 C   0  0  0  0  0  0  0  0  0  0  0  0
  195.3260  175.9430  145.0470 C   0  0  0  0  0  2  0  0  0  0  0  0
  197.9390  176.2450  142.8490 C   0  0  0  0  0  1  0  0  0  0  0  0
  197.3200  174.5970  144.3510 C   0  0  0  0  0  1  0  0  0  0  0  0
  196.8490  175.3330  143.1810 N   0  0  0  0  0  0  0  0  0  0  0  0
  188.2770  178.3690  141.9110 N   0  0  0  0  0  2  0  0  0  0  0  0
  187.0220  177.6370  141.7250 C   0  0  0  0  0  3  0  0  0  0  0  0
  186.7880  177.2540  140.2690 C   0  0  0  0  0  1  0  0  0  0  0  0
  185.8330  178.3930  142.2950 C   0  0  0  0  0  1  0  0  0  0  0  0
  189.4020  175.1820  147.0410 C   0  0  1  0  0  3  0  0  0  0  0  0
  188.6470  174.4010  147.9230 O   0  0  0  0  0  1  0  0  0  0  0  0
  190.3290  174.3350  146.3080 N   0  0  0  0  0  2  0  0  0  0  0  0
  189.5370  173.3900  145.5370 C   0  0  0  0  0  2  0  0  0  0  0  0
  190.9390  171.3920  142.0100 C   0  0  0  0  0  2  0  0  0  0  0  0
  190.2600  173.0230  144.2840 C   0  0  0  0  0  0  0  0  0  0  0  0
  191.5660  172.2820  144.3610 C   0  0  0  0  0  2  0  0  0  0  0  0
  189.7380  173.2970  143.0820 C   0  0  0  0  0  3  0  0  0  0  0  0
  190.4760  172.8490  141.8520 C   0  0  2  0  0  3  0  0  0  0  0  0
  191.5570  171.0870  143.3980 C   0  0  2  0  0  3  0  0  0  0  0  0
  189.0910  174.2470  140.8380 C   0  0  0  0  0  1  0  0  0  0  0  0
  189.6540  172.9740  140.7280 O   0  0  0  0  0  0  0  0  0  0  0  0
  192.9540  170.4800  143.2810 C   0  0  1  0  0  3  0  0  0  0  0  0
  193.4780  170.7390  142.0120 O   0  0  0  0  0  0  0  0  0  0  0  0
  194.4730  171.6970  142.2230 C   0  0  0  0  0  1  0  0  0  0  0  0
  193.8100  171.0150  144.2570 O   0  0  0  0  0  0  0  0  0  0  0  0
  193.6950  168.7600  144.5580 O   0  0  0  0  0  1  0  0  0  0  0  0
  194.0440  169.9700  145.1580 C   0  0  1  0  0  3  0  0  0  0  0  0
  196.3700  170.2890  144.7160 O   0  0  0  0  0  0  0  0  0  0  0  0
  195.4880  169.9340  145.5480 C   0  0  0  0  0  0  0  0  0  0  0  0
  195.8640  169.5490  146.8320 O   0  0  0  0  0  1  0  0  0  0  0  0
  187.5430  176.8930  146.7820 C   0  0  0  0  0  2  0  0  0  0  0  0
  186.1830  176.6870  146.3070 N   0  0  0  0  0  2  0  0  0  0  0  0
  185.6090  178.8050  146.0340 O   0  0  0  0  0  1  0  0  0  0  0  0
  185.4070  177.7280  146.8310 N   0  0  0  0  0  2  0  0  0  0  0  0
  1 44  1  1  0  0  0
  1 23  1  0  0  0  0
  2  8  2  0  0  0  0
  3 19  1  1  0  0  0
  3  6  1  0  0  0  0
  3  2  1  0  0  0  0
  4  5  1  0  0  0  0
  6  7  1  0  0  0  0
  7  4  2  0  0  0  0
  8  5  1  0  0  0  0
  8  1  1  0  0  0  0
  9  4  1  6  0  0  0
  9 10  1  0  0  0  0
 11 18  1  6  0  0  0
 11 15  1  0  0  0  0
 12 14  2  0  0  0  0
 13  9  1  0  0  0  0
 14 13  1  0  0  0  0
 14 11  1  0  0  0  0
 15 10  1  0  0  0  0
 16 18  1  0  0  0  0
 18 17  1  0  0  0  0
 20 19  1  0  0  0  0
 20 22  1  0  0  0  0
 21 20  1  0  0  0  0
 23 24  1  1  0  0  0
 25 23  1  0  0  0  0
 26 25  1  0  0  0  0
 27 32  1  0  0  0  0
 28 29  1  0  0  0  0
 28 26  1  0  0  0  0
 30 28  2  0  0  0  0
 31 34  1  6  0  0  0
 31 27  1  0  0  0  0
 31 30  1  0  0  0  0
 32 35  1  6  0  0  0
 32 29  1  0  0  0  0
 34 33  1  0  0  0  0
 35 36  1  6  0  0  0
 35 38  1  0  0  0  0
 36 37  1  0  0  0  0
 38 40  1  0  0  0  0
 40 39  1  6  0  0  0
 40 42  1  0  0  0  0
 41 42  2  0  0  0  0
 42 43  1  0  0  0  0
 45 44  1  0  0  0  0
 45 47  1  0  0  0  0
 46 47  1  0  0  0  0
M  END
>  <MODEL>
5

>  <REMARK>
 VINA RESULT:      -5.7      3.114      8.826
  Name = 
  18 active torsions:
  status: ('A' for Active; 'I' for Inactive)
    1  A    between atoms: C_3  and  N_18
    2  A    between atoms: O_5  and  C_9
    3  A    between atoms: O_5  and  C_32
    4  A    between atoms: C_6  and  C_9
    5  A    between atoms: C_10  and  C_29
    6  A    between atoms: O_11  and  C_32
    7  A    between atoms: C_14  and  C_34
    8  A    between atoms: N_15  and  C_25
    9  A    between atoms: N_15  and  C_34
   10  A    between atoms: N_18  and  C_28
   11  A    between atoms: C_19  and  C_20
   12  A    between atoms: C_19  and  C_25
   13  A    between atoms: C_19  and  C_45
   14  A    between atoms: C_20  and  N_23
   15  A    between atoms: C_21  and  N_46
   16  A    between atoms: N_23  and  N_40
   17  A    between atoms: C_32  and  C_42
   18  A    between atoms: C_39  and  O_44
                            x       y       z     vdW  Elec       q    Type
                         _______ _______ _______ _____ _____    ______ ____

>  <TORSDO>
F 18

$$$$
=
 OpenBabel11042415213D

 47 49  0  0  1  0  0  0  0  0999 V2000
  193.1560  175.8570  145.3910 C   0  0  1  0  0  3  0  0  0  0  0  0
  193.8990  173.5180  145.1240 C   0  0  0  0  0  3  0  0  0  0  0  0
  194.0640  172.1240  144.5560 C   0  0  2  0  0  3  0  0  0  0  0  0
  192.6410  173.7320  142.3380 C   0  0  0  0  0  0  0  0  0  0  0  0
  192.1040  174.3940  143.5770 C   0  0  0  0  0  2  0  0  0  0  0  0
  192.9450  171.6560  143.6330 C   0  0  0  0  0  2  0  0  0  0  0  0
  192.9930  172.4420  142.3610 C   0  0  0  0  0  3  0  0  0  0  0  0
  193.1190  174.5300  144.6790 C   0  0  0  0  0  0  0  0  0  0  0  0
  192.7570  174.4950  141.0540 C   0  0  2  0  0  3  0  0  0  0  0  0
  192.5700  173.5590  139.8470 C   0  0  0  0  0  2  0  0  0  0  0  0
  194.8830  174.0020  138.9380 C   0  0  1  0  0  3  0  0  0  0  0  0
  196.2190  174.3320  140.9390 N   0  0  0  0  0  2  0  0  0  0  0  0
  194.0410  175.3450  141.0160 C   0  0  0  0  0  2  0  0  0  0  0  0
  195.1500  174.6340  140.2940 C   0  0  0  0  0  0  0  0  0  0  0  0
  193.3710  174.0270  138.6350 C   0  0  0  0  0  2  0  0  0  0  0  0
  196.5860  173.7200  137.2890 C   0  0  0  0  0  1  0  0  0  0  0  0
  194.7390  175.0170  136.7790 C   0  0  0  0  0  1  0  0  0  0  0  0
  195.6450  174.6720  137.8700 N   0  0  0  0  0  0  0  0  0  0  0  0
  194.2310  171.1690  145.6480 N   0  0  0  0  0  2  0  0  0  0  0  0
  195.5690  170.5730  145.6340 C   0  0  0  0  0  3  0  0  0  0  0  0
  196.6680  171.6190  145.7720 C   0  0  0  0  0  1  0  0  0  0  0  0
  195.7890  169.6990  144.4100 C   0  0  0  0  0  1  0  0  0  0  0  0
  192.5850  175.7720  146.8080 C   0  0  1  0  0  3  0  0  0  0  0  0
  192.8760  176.9280  147.5410 O   0  0  0  0  0  1  0  0  0  0  0  0
  191.1450  175.5730  146.7560 N   0  0  0  0  0  2  0  0  0  0  0  0
  190.5210  176.7950  147.2380 C   0  0  0  0  0  2  0  0  0  0  0  0
  186.8680  176.6890  144.9940 C   0  0  0  0  0  2  0  0  0  0  0  0
  189.3510  177.1420  146.3790 C   0  0  0  0  0  0  0  0  0  0  0  0
  189.4390  176.9780  144.8870 C   0  0  0  0  0  2  0  0  0  0  0  0
  188.1970  177.5500  146.9210 C   0  0  0  0  0  3  0  0  0  0  0  0
  187.0290  177.8260  146.0160 C   0  0  2  0  0  3  0  0  0  0  0  0
  188.2060  176.2320  144.3600 C   0  0  2  0  0  3  0  0  0  0  0  0
  184.8220  177.7180  145.8700 C   0  0  0  0  0  1  0  0  0  0  0  0
  185.8610  177.9650  146.7710 O   0  0  0  0  0  0  0  0  0  0  0  0
  188.1600  176.2790  142.8340 C   0  0  1  0  0  3  0  0  0  0  0  0
  188.4430  177.5750  142.3910 O   0  0  0  0  0  0  0  0  0  0  0  0
  187.3700  177.9120  141.5620 C   0  0  0  0  0  1  0  0  0  0  0  0
  189.0920  175.3850  142.2830 O   0  0  0  0  0  0  0  0  0  0  0  0
  188.2140  174.6460  140.3150 O   0  0  0  0  0  1  0  0  0  0  0  0
  188.3290  174.3780  141.6800 C   0  0  1  0  0  3  0  0  0  0  0  0
  189.0720  172.5560  143.0340 O   0  0  0  0  0  1  0  0  0  0  0  0
  188.9800  173.0460  141.8740 C   0  0  0  0  0  0  0  0  0  0  0  0
  189.4530  172.3260  140.7790 O   0  0  0  0  0  0  0  0  0  0  0  0
  194.5460  176.4890  145.3610 C   0  0  0  0  0  2  0  0  0  0  0  0
  195.1420  176.3310  144.0440 N   0  0  0  0  0  2  0  0  0  0  0  0
  196.7810  177.1350  142.7950 O   0  0  0  0  0  1  0  0  0  0  0  0
  196.3870  176.9730  144.0810 N   0  0  0  0  0  2  0  0  0  0  0  0
  1 44  1  1  0  0  0
  1 23  1  0  0  0  0
  3  2  1  0  0  0  0
  3 19  1  1  0  0  0
  4  7  2  0  0  0  0
  4  5  1  0  0  0  0
  5  8  1  0  0  0  0
  6  3  1  0  0  0  0
  7  6  1  0  0  0  0
  8  2  2  0  0  0  0
  8  1  1  0  0  0  0
  9  4  1  1  0  0  0
 10  9  1  0  0  0  0
 11 18  1  6  0  0  0
 11 14  1  0  0  0  0
 13  9  1  0  0  0  0
 14 12  2  0  0  0  0
 14 13  1  0  0  0  0
 15 11  1  0  0  0  0
 15 10  1  0  0  0  0
 16 18  1  0  0  0  0
 17 18  1  0  0  0  0
 20 19  1  0  0  0  0
 20 21  1  0  0  0  0
 22 20  1  0  0  0  0
 23 24  1  1  0  0  0
 25 23  1  0  0  0  0
 25 26  1  0  0  0  0
 27 31  1  0  0  0  0
 28 30  2  0  0  0  0
 28 26  1  0  0  0  0
 29 28  1  0  0  0  0
 31 34  1  1  0  0  0
 31 30  1  0  0  0  0
 32 35  1  6  0  0  0
 32 29  1  0  0  0  0
 32 27  1  0  0  0  0
 33 34  1  0  0  0  0
 35 38  1  6  0  0  0
 36 35  1  0  0  0  0
 37 36  1  0  0  0  0
 40 39  1  6  0  0  0
 40 42  1  0  0  0  0
 40 38  1  0  0  0  0
 42 41  1  0  0  0  0
 43 42  2  0  0  0  0
 45 47  1  0  0  0  0
 45 44  1  0  0  0  0
 46 47  1  0  0  0  0
M  END
>  <MODEL>
6

>  <REMARK>
 VINA RESULT:      -5.6      2.589      3.849
  Name = 
  18 active torsions:
  status: ('A' for Active; 'I' for Inactive)
    1  A    between atoms: C_3  and  N_18
    2  A    between atoms: O_5  and  C_9
    3  A    between atoms: O_5  and  C_32
    4  A    between atoms: C_6  and  C_9
    5  A    between atoms: C_10  and  C_29
    6  A    between atoms: O_11  and  C_32
    7  A    between atoms: C_14  and  C_34
    8  A    between atoms: N_15  and  C_25
    9  A    between atoms: N_15  and  C_34
   10  A    between atoms: N_18  and  C_28
   11  A    between atoms: C_19  and  C_20
   12  A    between atoms: C_19  and  C_25
   13  A    between atoms: C_19  and  C_45
   14  A    between atoms: C_20  and  N_23
   15  A    between atoms: C_21  and  N_46
   16  A    between atoms: N_23  and  N_40
   17  A    between atoms: C_32  and  C_42
   18  A    between atoms: C_39  and  O_44
                            x       y       z     vdW  Elec       q    Type
                         _______ _______ _______ _____ _____    ______ ____

>  <TORSDO>
F 18

$$$$
=
 OpenBabel11042415213D

 47 49  0  0  1  0  0  0  0  0999 V2000
  189.6740  173.7940  144.8340 C   0  0  1  0  0  3  0  0  0  0  0  0
  191.9450  174.7000  144.4940 C   0  0  0  0  0  3  0  0  0  0  0  0
  193.0830  175.5530  143.9730 C   0  0  2  0  0  3  0  0  0  0  0  0
  190.5150  176.9540  142.9880 C   0  0  0  0  0  0  0  0  0  0  0  0
  190.0870  175.5120  142.9860 C   0  0  0  0  0  2  0  0  0  0  0  0
  192.8400  176.2180  142.6240 C   0  0  0  0  0  2  0  0  0  0  0  0
  191.7950  177.2780  142.7770 C   0  0  0  0  0  3  0  0  0  0  0  0
  190.6400  174.7150  144.1370 C   0  0  0  0  0  0  0  0  0  0  0  0
  189.5110  178.0480  143.1910 C   0  0  2  0  0  3  0  0  0  0  0  0
  188.5050  177.6640  144.2910 C   0  0  0  0  0  2  0  0  0  0  0  0
  186.5200  177.7530  142.7340 C   0  0  1  0  0  3  0  0  0  0  0  0
  187.4370  177.0120  140.6120 N   0  0  0  0  0  2  0  0  0  0  0  0
  188.8720  178.4820  141.8590 C   0  0  0  0  0  2  0  0  0  0  0  0
  187.5590  177.7900  141.6260 C   0  0  0  0  0  0  0  0  0  0  0  0
  187.1320  178.2840  144.0460 C   0  0  0  0  0  2  0  0  0  0  0  0
  184.8620  178.0870  141.0500 C   0  0  0  0  0  1  0  0  0  0  0  0
  184.2260  178.1550  143.2730 C   0  0  0  0  0  1  0  0  0  0  0  0
  185.3140  178.5170  142.3690 N   0  0  0  0  0  0  0  0  0  0  0  0
  194.3030  174.7530  143.9130 N   0  0  0  0  0  2  0  0  0  0  0  0
  194.5540  174.0690  145.1850 C   0  0  0  0  0  3  0  0  0  0  0  0
  195.4430  174.8860  146.1130 C   0  0  0  0  0  1  0  0  0  0  0  0
  195.1100  172.6690  144.9780 C   0  0  0  0  0  1  0  0  0  0  0  0
  189.8820  172.3290  144.4400 C   0  0  1  0  0  3  0  0  0  0  0  0
  189.3160  171.4660  145.3850 O   0  0  0  0  0  1  0  0  0  0  0  0
  189.2980  172.0750  143.1330 N   0  0  0  0  0  2  0  0  0  0  0  0
  190.2920  171.3660  142.3430 C   0  0  0  0  0  2  0  0  0  0  0  0
  192.3730  173.0740  139.0040 C   0  0  0  0  0  2  0  0  0  0  0  0
  190.9400  172.3050  141.3790 C   0  0  0  0  0  0  0  0  0  0  0  0
  192.3770  172.7010  141.5670 C   0  0  0  0  0  2  0  0  0  0  0  0
  190.2730  172.7630  140.3130 C   0  0  0  0  0  3  0  0  0  0  0  0
  190.9900  173.6540  139.3380 C   0  0  2  0  0  3  0  0  0  0  0  0
  193.1450  172.5600  140.2460 C   0  0  2  0  0  3  0  0  0  0  0  0
  188.9040  173.7640  138.6040 C   0  0  0  0  0  1  0  0  0  0  0  0
  190.2320  173.7970  138.1720 O   0  0  0  0  0  0  0  0  0  0  0  0
  194.5310  173.1920  140.3590 C   0  0  1  0  0  3  0  0  0  0  0  0
  195.4820  172.3580  139.7630 O   0  0  0  0  0  0  0  0  0  0  0  0
  195.6660  171.3160  140.6760 C   0  0  0  0  0  1  0  0  0  0  0  0
  194.5560  174.4480  139.7320 O   0  0  0  0  0  0  0  0  0  0  0  0
  195.7890  175.0150  137.9030 O   0  0  0  0  0  1  0  0  0  0  0  0
  195.8540  174.5870  139.2300 C   0  0  1  0  0  3  0  0  0  0  0  0
  197.8320  175.8140  139.7690 O   0  0  0  0  0  0  0  0  0  0  0  0
  196.6190  175.5860  140.0380 C   0  0  0  0  0  0  0  0  0  0  0  0
  195.9940  176.2940  141.0610 O   0  0  0  0  0  1  0  0  0  0  0  0
  189.6750  173.9940  146.3470 C   0  0  0  0  0  2  0  0  0  0  0  0
  189.3130  175.3650  146.6730 N   0  0  0  0  0  2  0  0  0  0  0  0
  190.8830  176.8870  147.0090 O   0  0  0  0  0  1  0  0  0  0  0  0
  190.2640  175.8310  147.5900 N   0  0  0  0  0  2  0  0  0  0  0  0
  1 44  1  1  0  0  0
  3 19  1  6  0  0  0
  3  2  1  0  0  0  0
  5  4  1  0  0  0  0
  5  8  1  0  0  0  0
  6  7  1  0  0  0  0
  6  3  1  0  0  0  0
  7  4  2  0  0  0  0
  8  2  2  0  0  0  0
  8  1  1  0  0  0  0
  9  4  1  6  0  0  0
  9 10  1  0  0  0  0
 11 18  1  6  0  0  0
 11 15  1  0  0  0  0
 12 14  2  0  0  0  0
 13  9  1  0  0  0  0
 14 13  1  0  0  0  0
 14 11  1  0  0  0  0
 15 10  1  0  0  0  0
 16 18  1  0  0  0  0
 18 17  1  0  0  0  0
 19 20  1  0  0  0  0
 20 21  1  0  0  0  0
 22 20  1  0  0  0  0
 23  1  1  0  0  0  0
 23 24  1  1  0  0  0
 25 23  1  0  0  0  0
 26 25  1  0  0  0  0
 27 31  1  0  0  0  0
 27 32  1  0  0  0  0
 28 29  1  0  0  0  0
 28 26  1  0  0  0  0
 30 28  2  0  0  0  0
 31 34  1  6  0  0  0
 31 30  1  0  0  0  0
 32 35  1  1  0  0  0
 32 29  1  0  0  0  0
 34 33  1  0  0  0  0
 35 38  1  6  0  0  0
 36 35  1  0  0  0  0
 36 37  1  0  0  0  0
 40 39  1  6  0  0  0
 40 38  1  0  0  0  0
 40 42  1  0  0  0  0
 41 42  2  0  0  0  0
 42 43  1  0  0  0  0
 44 45  1  0  0  0  0
 45 47  1  0  0  0  0
 46 47  1  0  0  0  0
M  END
>  <MODEL>
7

>  <REMARK>
 VINA RESULT:      -5.6      3.049      7.528
  Name = 
  18 active torsions:
  status: ('A' for Active; 'I' for Inactive)
    1  A    between atoms: C_3  and  N_18
    2  A    between atoms: O_5  and  C_9
    3  A    between atoms: O_5  and  C_32
    4  A    between atoms: C_6  and  C_9
    5  A    between atoms: C_10  and  C_29
    6  A    between atoms: O_11  and  C_32
    7  A    between atoms: C_14  and  C_34
    8  A    between atoms: N_15  and  C_25
    9  A    between atoms: N_15  and  C_34
   10  A    between atoms: N_18  and  C_28
   11  A    between atoms: C_19  and  C_20
   12  A    between atoms: C_19  and  C_25
   13  A    between atoms: C_19  and  C_45
   14  A    between atoms: C_20  and  N_23
   15  A    between atoms: C_21  and  N_46
   16  A    between atoms: N_23  and  N_40
   17  A    between atoms: C_32  and  C_42
   18  A    between atoms: C_39  and  O_44
                            x       y       z     vdW  Elec       q    Type
                         _______ _______ _______ _____ _____    ______ ____

>  <TORSDO>
F 18

$$$$
=
 OpenBabel11042415213D

 47 49  0  0  1  0  0  0  0  0999 V2000
  192.0090  172.7510  142.2140 C   0  0  1  0  0  3  0  0  0  0  0  0
  194.1380  173.5720  141.2720 C   0  0  0  0  0  3  0  0  0  0  0  0
  195.5230  174.1780  141.1780 C   0  0  2  0  0  3  0  0  0  0  0  0
  195.0320  173.7630  144.1970 C   0  0  0  0  0  0  0  0  0  0  0  0
  193.6380  174.0390  143.7040 C   0  0  0  0  0  2  0  0  0  0  0  0
  195.9120  175.1040  142.3240 C   0  0  0  0  0  2  0  0  0  0  0  0
  196.0870  174.2970  143.5720 C   0  0  0  0  0  3  0  0  0  0  0  0
  193.3420  173.4360  142.3570 C   0  0  0  0  0  0  0  0  0  0  0  0
  195.2590  172.9160  145.4120 C   0  0  2  0  0  3  0  0  0  0  0  0
  196.7110  172.4080  145.4570 C   0  0  0  0  0  2  0  0  0  0  0  0
  196.0380  169.9780  145.3490 C   0  0  1  0  0  3  0  0  0  0  0  0
  194.0450  170.0090  143.9620 N   0  0  0  0  0  2  0  0  0  0  0  0
  194.1890  171.8150  145.5410 C   0  0  0  0  0  2  0  0  0  0  0  0
  194.6680  170.5120  144.9670 C   0  0  0  0  0  0  0  0  0  0  0  0
  196.8170  171.0480  146.1400 C   0  0  0  0  0  2  0  0  0  0  0  0
  197.2250  168.4380  146.7330 C   0  0  0  0  0  1  0  0  0  0  0  0
  195.0220  168.9270  147.2400 C   0  0  0  0  0  1  0  0  0  0  0  0
  195.9340  168.7260  146.1180 N   0  0  0  0  0  0  0  0  0  0  0  0
  195.6580  174.8870  139.9080 N   0  0  0  0  0  2  0  0  0  0  0  0
  196.8290  174.4200  139.1610 C   0  0  0  0  0  3  0  0  0  0  0  0
  196.4950  174.0910  137.7120 C   0  0  0  0  0  1  0  0  0  0  0  0
  197.5140  173.2510  139.8500 C   0  0  0  0  0  1  0  0  0  0  0  0
  190.8360  173.7150  142.4110 C   0  0  1  0  0  3  0  0  0  0  0  0
  190.3700  174.2020  141.1840 O   0  0  0  0  0  1  0  0  0  0  0  0
  189.7540  173.0490  143.1170 N   0  0  0  0  0  2  0  0  0  0  0  0
  190.1060  173.0280  144.5280 C   0  0  0  0  0  2  0  0  0  0  0  0
  189.7710  176.5020  147.0210 C   0  0  0  0  0  2  0  0  0  0  0  0
  190.1360  174.4200  145.0660 C   0  0  0  0  0  0  0  0  0  0  0  0
  188.9590  175.3310  144.8580 C   0  0  0  0  0  2  0  0  0  0  0  0
  191.1780  174.8580  145.7820 C   0  0  0  0  0  3  0  0  0  0  0  0
  191.1320  176.2470  146.3550 C   0  0  2  0  0  3  0  0  0  0  0  0
  188.5670  176.0050  146.1800 C   0  0  2  0  0  3  0  0  0  0  0  0
  193.3020  176.6570  146.5130 C   0  0  0  0  0  1  0  0  0  0  0  0
  192.1620  176.4160  147.2840 O   0  0  0  0  0  0  0  0  0  0  0  0
  187.5440  177.1130  145.9370 C   0  0  1  0  0  3  0  0  0  0  0  0
  187.4050  177.8910  147.0900 O   0  0  0  0  0  0  0  0  0  0  0  0
  186.1740  177.5130  147.6310 C   0  0  0  0  0  1  0  0  0  0  0  0
  187.9440  177.9310  144.8680 O   0  0  0  0  0  0  0  0  0  0  0  0
  186.0710  179.1100  144.3310 O   0  0  0  0  0  1  0  0  0  0  0  0
  186.8390  177.9900  144.0110 C   0  0  1  0  0  3  0  0  0  0  0  0
  186.4450  178.3110  141.6770 O   0  0  0  0  0  0  0  0  0  0  0  0
  187.2900  178.0830  142.5880 C   0  0  0  0  0  0  0  0  0  0  0  0
  188.6380  177.9590  142.2650 O   0  0  0  0  0  1  0  0  0  0  0  0
  191.9010  171.9650  140.9090 C   0  0  0  0  0  2  0  0  0  0  0  0
  192.1220  170.5480  141.1560 N   0  0  0  0  0  2  0  0  0  0  0  0
  190.8100  168.8160  141.5690 O   0  0  0  0  0  1  0  0  0  0  0  0
  191.0480  170.0990  141.9340 N   0  0  0  0  0  2  0  0  0  0  0  0
  1 44  1  6  0  0  0
  1  8  1  0  0  0  0
  1 23  1  0  0  0  0
  2  8  2  0  0  0  0
  3 19  1  6  0  0  0
  3  2  1  0  0  0  0
  3  6  1  0  0  0  0
  5  4  1  0  0  0  0
  6  7  1  0  0  0  0
  7  4  2  0  0  0  0
  8  5  1  0  0  0  0
  9  4  1  6  0  0  0
  9 10  1  0  0  0  0
  9 13  1  0  0  0  0
 10 15  1  0  0  0  0
 11 18  1  1  0  0  0
 11 15  1  0  0  0  0
 12 14  2  0  0  0  0
 14 11  1  0  0  0  0
 14 13  1  0  0  0  0
 18 16  1  0  0  0  0
 18 17  1  0  0  0  0
 20 22  1  0  0  0  0
 20 19  1  0  0  0  0
 21 20  1  0  0  0  0
 23 24  1  6  0  0  0
 23 25  1  0  0  0  0
 25 26  1  0  0  0  0
 26 28  1  0  0  0  0
 28 30  2  0  0  0  0
 29 28  1  0  0  0  0
 29 32  1  0  0  0  0
 30 31  1  0  0  0  0
 31 27  1  0  0  0  0
 31 34  1  1  0  0  0
 32 35  1  6  0  0  0
 32 27  1  0  0  0  0
 33 34  1  0  0  0  0
 35 38  1  6  0  0  0
 35 36  1  0  0  0  0
 36 37  1  0  0  0  0
 40 39  1  1  0  0  0
 40 38  1  0  0  0  0
 41 42  2  0  0  0  0
 42 40  1  0  0  0  0
 43 42  1  0  0  0  0
 44 45  1  0  0  0  0
 45 47  1  0  0  0  0
 46 47  1  0  0  0  0
M  END
>  <MODEL>
8

>  <REMARK>
 VINA RESULT:      -5.5      2.757      5.964
  Name = 
  18 active torsions:
  status: ('A' for Active; 'I' for Inactive)
    1  A    between atoms: C_3  and  N_18
    2  A    between atoms: O_5  and  C_9
    3  A    between atoms: O_5  and  C_32
    4  A    between atoms: C_6  and  C_9
    5  A    between atoms: C_10  and  C_29
    6  A    between atoms: O_11  and  C_32
    7  A    between atoms: C_14  and  C_34
    8  A    between atoms: N_15  and  C_25
    9  A    between atoms: N_15  and  C_34
   10  A    between atoms: N_18  and  C_28
   11  A    between atoms: C_19  and  C_20
   12  A    between atoms: C_19  and  C_25
   13  A    between atoms: C_19  and  C_45
   14  A    between atoms: C_20  and  N_23
   15  A    between atoms: C_21  and  N_46
   16  A    between atoms: N_23  and  N_40
   17  A    between atoms: C_32  and  C_42
   18  A    between atoms: C_39  and  O_44
                            x       y       z     vdW  Elec       q    Type
                         _______ _______ _______ _____ _____    ______ ____

>  <TORSDO>
F 18

$$$$
=
 OpenBabel11042415213D

 47 49  0  0  1  0  0  0  0  0999 V2000
  190.8890  175.7460  144.9430 C   0  0  1  0  0  3  0  0  0  0  0  0
  191.1320  174.3720  142.9060 C   0  0  0  0  0  3  0  0  0  0  0  0
  190.7840  173.5810  141.6620 C   0  0  2  0  0  3  0  0  0  0  0  0
  188.1760  175.0360  142.4460 C   0  0  0  0  0  0  0  0  0  0  0  0
  188.8060  174.8090  143.7920 C   0  0  0  0  0  2  0  0  0  0  0  0
  189.3590  173.0420  141.6060 C   0  0  0  0  0  2  0  0  0  0  0  0
  188.4060  174.1840  141.4410 C   0  0  0  0  0  3  0  0  0  0  0  0
  190.3030  174.9680  143.7940 C   0  0  0  0  0  0  0  0  0  0  0  0
  187.2560  176.1970  142.2190 C   0  0  2  0  0  3  0  0  0  0  0  0
  188.0340  177.5240  142.2650 C   0  0  0  0  0  2  0  0  0  0  0  0
  186.7340  178.4070  144.2390 C   0  0  1  0  0  3  0  0  0  0  0  0
  186.2450  176.4090  145.5290 N   0  0  0  0  0  2  0  0  0  0  0  0
  186.0310  176.1370  143.1510 C   0  0  0  0  0  2  0  0  0  0  0  0
  186.2320  176.9800  144.3780 C   0  0  0  0  0  0  0  0  0  0  0  0
  187.1720  178.6700  142.7840 C   0  0  0  0  0  2  0  0  0  0  0  0
  184.4130  178.9600  144.1580 C   0  0  0  0  0  1  0  0  0  0  0  0
  185.5830  179.3300  146.1200 C   0  0  0  0  0  1  0  0  0  0  0  0
  185.7150  179.3810  144.6670 N   0  0  0  0  0  0  0  0  0  0  0  0
  191.7320  172.4820  141.5040 N   0  0  0  0  0  2  0  0  0  0  0  0
  192.2840  172.4470  140.1470 C   0  0  0  0  0  3  0  0  0  0  0  0
  193.7860  172.1980  140.1420 C   0  0  0  0  0  1  0  0  0  0  0  0
  191.9280  173.6960  139.3570 C   0  0  0  0  0  1  0  0  0  0  0  0
  192.2370  176.3790  144.5880 C   0  0  1  0  0  3  0  0  0  0  0  0
  192.0890  177.7310  144.2580 O   0  0  0  0  0  1  0  0  0  0  0  0
  193.1610  176.2450  145.7010 N   0  0  0  0  0  2  0  0  0  0  0  0
  194.3760  176.9610  145.3460 C   0  0  0  0  0  2  0  0  0  0  0  0
  196.2120  174.0560  142.7800 C   0  0  0  0  0  2  0  0  0  0  0  0
  195.3380  176.0330  144.6820 C   0  0  0  0  0  0  0  0  0  0  0  0
  195.5200  174.6370  145.2080 C   0  0  0  0  0  2  0  0  0  0  0  0
  196.0090  176.4070  143.5850 C   0  0  0  0  0  3  0  0  0  0  0  0
  196.9170  175.4140  142.9180 C   0  0  2  0  0  3  0  0  0  0  0  0
  195.4500  173.6220  144.0590 C   0  0  2  0  0  3  0  0  0  0  0  0
  196.2870  176.7700  141.2860 C   0  0  0  0  0  1  0  0  0  0  0  0
  197.3020  175.8860  141.6590 O   0  0  0  0  0  0  0  0  0  0  0  0
  195.8800  172.2360  144.5380 C   0  0  1  0  0  3  0  0  0  0  0  0
  196.5500  172.3440  145.7600 O   0  0  0  0  0  0  0  0  0  0  0  0
  196.8330  171.0270  146.1310 C   0  0  0  0  0  1  0  0  0  0  0  0
  194.7640  171.3970  144.6900 O   0  0  0  0  0  0  0  0  0  0  0  0
  195.6620  170.4430  142.8270 O   0  0  0  0  0  1  0  0  0  0  0  0
  194.4840  170.9150  143.4060 C   0  0  1  0  0  3  0  0  0  0  0  0
  193.1490  169.3320  144.5970 O   0  0  0  0  0  1  0  0  0  0  0  0
  193.4830  169.8060  143.4750 C   0  0  0  0  0  0  0  0  0  0  0  0
  192.8890  169.3180  142.3140 O   0  0  0  0  0  0  0  0  0  0  0  0
  189.9020  176.7620  145.5150 C   0  0  0  0  0  2  0  0  0  0  0  0
  189.9420  176.7380  146.9690 N   0  0  0  0  0  2  0  0  0  0  0  0
  191.0610  175.2920  148.2130 O   0  0  0  0  0  1  0  0  0  0  0  0
  190.0200  175.3930  147.3520 N   0  0  0  0  0  2  0  0  0  0  0  0
  1 44  1  6  0  0  0
  2  8  2  0  0  0  0
  3 19  1  1  0  0  0
  3  2  1  0  0  0  0
  4  5  1  0  0  0  0
  5  8  1  0  0  0  0
  6  3  1  0  0  0  0
  7  6  1  0  0  0  0
  7  4  2  0  0  0  0
  8  1  1  0  0  0  0
  9 10  1  0  0  0  0
  9  4  1  1  0  0  0
  9 13  1  0  0  0  0
 10 15  1  0  0  0  0
 11 14  1  0  0  0  0
 11 18  1  6  0  0  0
 13 14  1  0  0  0  0
 14 12  2  0  0  0  0
 15 11  1  0  0  0  0
 16 18  1  0  0  0  0
 18 17  1  0  0  0  0
 20 19  1  0  0  0  0
 21 20  1  0  0  0  0
 22 20  1  0  0  0  0
 23 24  1  1  0  0  0
 23  1  1  0  0  0  0
 23 25  1  0  0  0  0
 26 25  1  0  0  0  0
 27 31  1  0  0  0  0
 27 32  1  0  0  0  0
 28 29  1  0  0  0  0
 28 26  1  0  0  0  0
 30 28  2  0  0  0  0
 31 34  1  6  0  0  0
 31 30  1  0  0  0  0
 32 35  1  1  0  0  0
 32 29  1  0  0  0  0
 33 34  1  0  0  0  0
 35 38  1  1  0  0  0
 35 36  1  0  0  0  0
 36 37  1  0  0  0  0
 40 39  1  1  0  0  0
 40 42  1  0  0  0  0
 40 38  1  0  0  0  0
 42 41  1  0  0  0  0
 43 42  2  0  0  0  0
 44 45  1  0  0  0  0
 45 47  1  0  0  0  0
 47 46  1  0  0  0  0
M  END
>  <MODEL>
9

>  <REMARK>
 VINA RESULT:      -5.5      3.072      8.052
  Name = 
  18 active torsions:
  status: ('A' for Active; 'I' for Inactive)
    1  A    between atoms: C_3  and  N_18
    2  A    between atoms: O_5  and  C_9
    3  A    between atoms: O_5  and  C_32
    4  A    between atoms: C_6  and  C_9
    5  A    between atoms: C_10  and  C_29
    6  A    between atoms: O_11  and  C_32
    7  A    between atoms: C_14  and  C_34
    8  A    between atoms: N_15  and  C_25
    9  A    between atoms: N_15  and  C_34
   10  A    between atoms: N_18  and  C_28
   11  A    between atoms: C_19  and  C_20
   12  A    between atoms: C_19  and  C_25
   13  A    between atoms: C_19  and  C_45
   14  A    between atoms: C_20  and  N_23
   15  A    between atoms: C_21  and  N_46
   16  A    between atoms: N_23  and  N_40
   17  A    between atoms: C_32  and  C_42
   18  A    between atoms: C_39  and  O_44
                            x       y       z     vdW  Elec       q    Type
                         _______ _______ _______ _____ _____    ______ ____

>  <TORSDO>
F 18

$$$$
