=
 OpenBabel11042418303D

 30 32  0  0  1  0  0  0  0  0999 V2000
  191.1070  175.4880  144.2940 C   0  0  1  0  0  3  0  0  0  0  0  0
  195.9620  175.0680  144.8030 N   0  0  0  0  0  0  0  0  0  0  0  0
  192.5800  175.8090  142.4360 O   0  0  0  0  0  0  0  0  0  0  0  0
  192.4630  175.5380  143.6620 C   0  0  0  0  0  0  0  0  0  0  0  0
  196.8830  175.3980  142.8410 C   0  0  0  0  0  0  0  0  0  0  0  0
  193.6140  175.2900  144.4750 N   0  0  0  0  0  2  0  0  0  0  0  0
  195.4160  175.5440  142.6100 C   0  0  0  0  0  2  0  0  0  0  0  0
  194.9690  175.2940  144.0130 C   0  0  0  0  0  0  0  0  0  0  0  0
  197.1510  175.1330  144.0750 N   0  0  0  0  0  0  0  0  0  0  0  0
  197.6210  175.5250  140.5650 N   0  0  0  0  0  2  0  0  0  0  0  0
  197.9230  175.5320  141.8200 C   0  0  0  0  0  3  0  0  0  0  0  0
  188.8010  173.1840  142.6730 C   0  0  0  0  0  0  0  0  0  0  0  0
  189.6210  172.3210  143.2250 O   0  0  0  0  0  0  0  0  0  0  0  0
  187.4200  172.7260  141.6980 Cl  0  0  0  0  0  0  0  0  0  0  0  0
  189.1690  174.4910  142.9560 C   0  0  0  0  0  3  0  0  0  0  0  0
  190.2940  174.3540  143.7470 C   0  0  0  0  0  0  0  0  0  0  0  0
  191.6010  172.4040  144.5980 N   0  0  0  0  0  1  0  0  0  0  0  0
  190.5310  173.0010  143.8730 C   0  0  0  0  0  0  0  0  0  0  0  0
  191.2110  175.3970  145.7430 N   0  0  0  0  0  2  0  0  0  0  0  0
  187.4810  177.2790  145.9500 C   0  0  0  0  0  0  0  0  0  0  0  0
  188.8970  175.3620  146.5320 C   0  0  1  0  0  3  0  0  0  0  0  0
  188.4890  177.5710  144.8700 C   0  0  0  0  0  2  0  0  0  0  0  0
  187.6880  176.2240  146.7380 C   0  0  0  0  0  3  0  0  0  0  0  0
  190.1510  176.2180  146.3060 C   0  0  2  0  0  3  0  0  0  0  0  0
  189.9190  177.4550  145.4130 C   0  0  0  0  0  2  0  0  0  0  0  0
  189.0750  174.5360  147.6260 F   0  0  0  0  0  0  0  0  0  0  0  0
  184.1860  179.0180  145.7540 N   0  0  0  0  0  1  0  0  0  0  0  0
  185.2670  178.1790  145.3640 C   0  0  0  0  0  0  0  0  0  0  0  0
  185.1900  177.4900  144.1180 N   0  0  0  0  0  1  0  0  0  0  0  0
  186.2960  178.0670  146.1510 N   0  0  0  0  0  0  0  0  0  0  0  0
  1  4  1  6  0  0  0
  1 19  1  0  0  0  0
  3  4  2  0  0  0  0
  4  6  1  0  0  0  0
  5  9  2  0  0  0  0
  7  5  1  0  0  0  0
  7  8  1  0  0  0  0
  8  6  1  0  0  0  0
  8  2  2  0  0  0  0
  9  2  1  0  0  0  0
 10 11  2  0  0  0  0
 11  5  1  0  0  0  0
 12 15  2  0  0  0  0
 12 13  1  0  0  0  0
 13 18  1  0  0  0  0
 14 12  1  0  0  0  0
 15 16  1  0  0  0  0
 16 18  2  0  0  0  0
 16  1  1  0  0  0  0
 18 17  1  0  0  0  0
 20 30  1  0  0  0  0
 20 23  2  0  0  0  0
 21 23  1  0  0  0  0
 21 26  1  1  0  0  0
 22 25  1  0  0  0  0
 22 20  1  0  0  0  0
 24 19  1  6  0  0  0
 24 21  1  0  0  0  0
 25 24  1  0  0  0  0
 28 27  1  0  0  0  0
 28 30  2  0  0  0  0
 29 28  1  0  0  0  0
M  END
>  <MODEL>
1

>  <REMARK>
 VINA RESULT:      -6.8      0.000      0.000
  Name = 
  6 active torsions:
  status: ('A' for Active; 'I' for Inactive)
    1  A    between atoms: C_3  and  N_24
    2  A    between atoms: C_8  and  C_25
    3  A    between atoms: C_12  and  C_25
    4  A    between atoms: C_13  and  C_21
    5  A    between atoms: C_25  and  N_27
    6  A    between atoms: C_26  and  N_27
                            x       y       z     vdW  Elec       q    Type
                         _______ _______ _______ _____ _____    ______ ____

>  <TORSDO>
F 6

$$$$
=
 OpenBabel11042418303D

 30 32  0  0  1  0  0  0  0  0999 V2000
  191.9970  175.0560  144.7940 C   0  0  1  0  0  3  0  0  0  0  0  0
  196.4800  173.3080  145.7170 N   0  0  0  0  0  0  0  0  0  0  0  0
  192.4200  172.7020  144.8590 O   0  0  0  0  0  0  0  0  0  0  0  0
  192.8880  173.8680  144.9740 C   0  0  0  0  0  0  0  0  0  0  0  0
  196.3700  171.1180  145.7200 C   0  0  0  0  0  0  0  0  0  0  0  0
  194.2740  174.0790  145.2610 N   0  0  0  0  0  2  0  0  0  0  0  0
  194.9790  171.5760  145.4310 C   0  0  0  0  0  2  0  0  0  0  0  0
  195.2430  173.0460  145.4670 C   0  0  0  0  0  0  0  0  0  0  0  0
  197.1800  172.1100  145.8730 N   0  0  0  0  0  0  0  0  0  0  0  0
  196.8370  169.1270  146.9680 N   0  0  0  0  0  2  0  0  0  0  0  0
  196.8020  169.7240  145.8240 C   0  0  0  0  0  3  0  0  0  0  0  0
  191.2760  176.6940  147.9640 C   0  0  0  0  0  0  0  0  0  0  0  0
  190.2260  175.9090  147.8790 O   0  0  0  0  0  0  0  0  0  0  0  0
  191.5550  177.8020  149.2900 Cl  0  0  0  0  0  0  0  0  0  0  0  0
  192.1210  176.5340  146.8770 C   0  0  0  0  0  3  0  0  0  0  0  0
  191.4990  175.5660  146.1110 C   0  0  0  0  0  0  0  0  0  0  0  0
  189.3770  174.2680  146.3310 N   0  0  0  0  0  1  0  0  0  0  0  0
  190.3360  175.2240  146.7710 C   0  0  0  0  0  0  0  0  0  0  0  0
  192.6780  176.1100  144.0560 N   0  0  0  0  0  2  0  0  0  0  0  0
  188.9980  176.9410  142.2520 C   0  0  0  0  0  0  0  0  0  0  0  0
  190.8990  177.7220  143.5900 C   0  0  1  0  0  3  0  0  0  0  0  0
  189.4360  175.5490  142.6200 C   0  0  0  0  0  2  0  0  0  0  0  0
  189.7060  177.9700  142.7180 C   0  0  0  0  0  3  0  0  0  0  0  0
  191.7630  176.5830  143.0300 C   0  0  2  0  0  3  0  0  0  0  0  0
  190.9540  175.3950  142.4670 C   0  0  0  0  0  2  0  0  0  0  0  0
  191.6490  178.8780  143.6980 F   0  0  0  0  0  0  0  0  0  0  0  0
  185.5960  177.5890  140.8630 N   0  0  0  0  0  1  0  0  0  0  0  0
  186.6010  177.3100  141.8300 C   0  0  0  0  0  0  0  0  0  0  0  0
  186.2190  177.1410  143.1930 N   0  0  0  0  0  1  0  0  0  0  0  0
  187.8390  177.2120  141.4450 N   0  0  0  0  0  0  0  0  0  0  0  0
  1 19  1  1  0  0  0
  1  4  1  0  0  0  0
  1 16  1  0  0  0  0
  2  9  1  0  0  0  0
  3  4  2  0  0  0  0
  4  6  1  0  0  0  0
  5 11  1  0  0  0  0
  5  9  2  0  0  0  0
  6  8  1  0  0  0  0
  7  8  1  0  0  0  0
  7  5  1  0  0  0  0
  8  2  2  0  0  0  0
 11 10  2  0  0  0  0
 12 14  1  0  0  0  0
 13 12  1  0  0  0  0
 15 12  2  0  0  0  0
 16 18  2  0  0  0  0
 16 15  1  0  0  0  0
 17 18  1  0  0  0  0
 18 13  1  0  0  0  0
 20 22  1  0  0  0  0
 20 23  2  0  0  0  0
 21 26  1  6  0  0  0
 23 21  1  0  0  0  0
 24 21  1  0  0  0  0
 24 19  1  1  0  0  0
 25 22  1  0  0  0  0
 25 24  1  0  0  0  0
 27 28  1  0  0  0  0
 28 29  1  0  0  0  0
 30 28  2  0  0  0  0
 30 20  1  0  0  0  0
M  END
>  <MODEL>
2

>  <REMARK>
 VINA RESULT:      -6.8      3.729      4.787
  Name = 
  6 active torsions:
  status: ('A' for Active; 'I' for Inactive)
    1  A    between atoms: C_3  and  N_24
    2  A    between atoms: C_8  and  C_25
    3  A    between atoms: C_12  and  C_25
    4  A    between atoms: C_13  and  C_21
    5  A    between atoms: C_25  and  N_27
    6  A    between atoms: C_26  and  N_27
                            x       y       z     vdW  Elec       q    Type
                         _______ _______ _______ _____ _____    ______ ____

>  <TORSDO>
F 6

$$$$
=
 OpenBabel11042418303D

 30 32  0  0  1  0  0  0  0  0999 V2000
  190.2430  175.7320  143.0360 C   0  0  1  0  0  3  0  0  0  0  0  0
  187.4750  176.3300  147.0350 N   0  0  0  0  0  0  0  0  0  0  0  0
  188.0860  176.7600  142.9080 O   0  0  0  0  0  0  0  0  0  0  0  0
  188.9660  176.2280  143.6390 C   0  0  0  0  0  0  0  0  0  0  0  0
  185.6270  177.3470  146.4370 C   0  0  0  0  0  0  0  0  0  0  0  0
  188.7590  176.0740  145.0460 N   0  0  0  0  0  2  0  0  0  0  0  0
  186.4120  177.1970  145.1770 C   0  0  0  0  0  2  0  0  0  0  0  0
  187.5980  176.5050  145.7630 C   0  0  0  0  0  0  0  0  0  0  0  0
  186.2490  176.8520  147.4530 N   0  0  0  0  0  0  0  0  0  0  0  0
  183.9140  178.8420  145.6810 N   0  0  0  0  0  2  0  0  0  0  0  0
  184.3090  177.9720  146.5500 C   0  0  0  0  0  3  0  0  0  0  0  0
  193.1970  175.9590  145.1520 C   0  0  0  0  0  0  0  0  0  0  0  0
  192.9910  177.2360  144.9250 O   0  0  0  0  0  0  0  0  0  0  0  0
  194.5170  175.3450  146.1240 Cl  0  0  0  0  0  0  0  0  0  0  0  0
  192.2440  175.1700  144.5250 C   0  0  0  0  0  3  0  0  0  0  0  0
  191.4200  176.0830  143.8930 C   0  0  0  0  0  0  0  0  0  0  0  0
  191.4000  178.5720  143.7030 N   0  0  0  0  0  1  0  0  0  0  0  0
  191.9310  177.3350  144.1660 C   0  0  0  0  0  0  0  0  0  0  0  0
  190.1840  174.2960  142.8010 N   0  0  0  0  0  2  0  0  0  0  0  0
  189.5750  172.1960  139.2360 C   0  0  0  0  0  0  0  0  0  0  0  0
  188.6350  173.1680  141.2820 C   0  0  1  0  0  3  0  0  0  0  0  0
  190.9070  172.2580  139.9350 C   0  0  0  0  0  2  0  0  0  0  0  0
  188.4980  172.6360  139.8880 C   0  0  0  0  0  3  0  0  0  0  0  0
  189.8500  174.0990  141.4000 C   0  0  2  0  0  3  0  0  0  0  0  0
  191.0960  173.6110  140.6310 C   0  0  0  0  0  2  0  0  0  0  0  0
  187.4820  173.8430  141.6410 F   0  0  0  0  0  0  0  0  0  0  0  0
  189.3270  171.5610  135.5680 N   0  0  0  0  0  1  0  0  0  0  0  0
  189.5350  172.2820  136.7770 C   0  0  0  0  0  0  0  0  0  0  0  0
  189.8730  173.6650  136.7060 N   0  0  0  0  0  1  0  0  0  0  0  0
  189.4070  171.6610  137.9120 N   0  0  0  0  0  0  0  0  0  0  0  0
  1 19  1  1  0  0  0
  1  4  1  0  0  0  0
  1 16  1  0  0  0  0
  2  9  1  0  0  0  0
  3  4  2  0  0  0  0
  4  6  1  0  0  0  0
  5 11  1  0  0  0  0
  5  9  2  0  0  0  0
  6  8  1  0  0  0  0
  7  8  1  0  0  0  0
  7  5  1  0  0  0  0
  8  2  2  0  0  0  0
 10 11  2  0  0  0  0
 12 14  1  0  0  0  0
 13 12  1  0  0  0  0
 15 12  2  0  0  0  0
 16 18  2  0  0  0  0
 16 15  1  0  0  0  0
 17 18  1  0  0  0  0
 18 13  1  0  0  0  0
 20 23  2  0  0  0  0
 20 22  1  0  0  0  0
 21 24  1  0  0  0  0
 21 26  1  6  0  0  0
 22 25  1  0  0  0  0
 23 21  1  0  0  0  0
 24 19  1  1  0  0  0
 25 24  1  0  0  0  0
 27 28  1  0  0  0  0
 28 30  2  0  0  0  0
 29 28  1  0  0  0  0
 30 20  1  0  0  0  0
M  END
>  <MODEL>
3

>  <REMARK>
 VINA RESULT:      -6.7      4.059      8.358
  Name = 
  6 active torsions:
  status: ('A' for Active; 'I' for Inactive)
    1  A    between atoms: C_3  and  N_24
    2  A    between atoms: C_8  and  C_25
    3  A    between atoms: C_12  and  C_25
    4  A    between atoms: C_13  and  C_21
    5  A    between atoms: C_25  and  N_27
    6  A    between atoms: C_26  and  N_27
                            x       y       z     vdW  Elec       q    Type
                         _______ _______ _______ _____ _____    ______ ____

>  <TORSDO>
F 6

$$$$
=
 OpenBabel11042418303D

 30 32  0  0  1  0  0  0  0  0999 V2000
  190.1390  174.9080  143.7760 C   0  0  1  0  0  3  0  0  0  0  0  0
  187.1330  176.6030  147.2540 N   0  0  0  0  0  0  0  0  0  0  0  0
  188.1110  176.0460  143.2150 O   0  0  0  0  0  0  0  0  0  0  0  0
  188.8730  175.6250  144.1270 C   0  0  0  0  0  0  0  0  0  0  0  0
  185.4470  177.6020  146.2700 C   0  0  0  0  0  0  0  0  0  0  0  0
  188.5400  175.8080  145.5070 N   0  0  0  0  0  2  0  0  0  0  0  0
  186.3120  177.1120  145.1570 C   0  0  0  0  0  2  0  0  0  0  0  0
  187.3740  176.4790  145.9940 C   0  0  0  0  0  0  0  0  0  0  0  0
  185.9350  177.3010  147.4260 N   0  0  0  0  0  0  0  0  0  0  0  0
  183.9340  178.9760  145.0210 N   0  0  0  0  0  2  0  0  0  0  0  0
  184.1920  178.3370  146.1120 C   0  0  0  0  0  3  0  0  0  0  0  0
  193.1410  176.1030  145.4540 C   0  0  0  0  0  0  0  0  0  0  0  0
  192.9320  177.1080  144.6350 O   0  0  0  0  0  0  0  0  0  0  0  0
  194.4820  176.0260  146.5770 Cl  0  0  0  0  0  0  0  0  0  0  0  0
  192.1720  175.1200  145.3120 C   0  0  0  0  0  3  0  0  0  0  0  0
  191.3360  175.6180  144.3300 C   0  0  0  0  0  0  0  0  0  0  0  0
  191.3170  177.6960  142.9460 N   0  0  0  0  0  1  0  0  0  0  0  0
  191.8560  176.8370  143.9450 C   0  0  0  0  0  0  0  0  0  0  0  0
  190.0990  173.5270  144.2360 N   0  0  0  0  0  2  0  0  0  0  0  0
  189.7580  172.4900  140.1980 C   0  0  0  0  0  0  0  0  0  0  0  0
  191.1680  173.2580  142.0530 C   0  0  1  0  0  3  0  0  0  0  0  0
  188.5870  172.9340  141.0340 C   0  0  0  0  0  2  0  0  0  0  0  0
  190.9840  172.6470  140.6960 C   0  0  0  0  0  3  0  0  0  0  0  0
  190.1640  172.6760  143.0590 C   0  0  2  0  0  3  0  0  0  0  0  0
  188.7450  172.4700  142.4870 C   0  0  0  0  0  2  0  0  0  0  0  0
  192.4610  173.0420  142.4930 F   0  0  0  0  0  0  0  0  0  0  0  0
  189.3550  171.8180  136.5500 N   0  0  0  0  0  1  0  0  0  0  0  0
  189.4790  172.5660  137.7540 C   0  0  0  0  0  0  0  0  0  0  0  0
  189.4430  173.9900  137.6880 N   0  0  0  0  0  1  0  0  0  0  0  0
  189.6160  171.9320  138.8810 N   0  0  0  0  0  0  0  0  0  0  0  0
  1  4  1  1  0  0  0
  1 19  1  0  0  0  0
  1 16  1  0  0  0  0
  2  9  1  0  0  0  0
  3  4  2  0  0  0  0
  4  6  1  0  0  0  0
  5  9  2  0  0  0  0
  6  8  1  0  0  0  0
  7  8  1  0  0  0  0
  7  5  1  0  0  0  0
  8  2  2  0  0  0  0
 10 11  2  0  0  0  0
 11  5  1  0  0  0  0
 12 14  1  0  0  0  0
 13 12  1  0  0  0  0
 15 12  2  0  0  0  0
 16 15  1  0  0  0  0
 17 18  1  0  0  0  0
 18 16  2  0  0  0  0
 18 13  1  0  0  0  0
 20 23  2  0  0  0  0
 20 22  1  0  0  0  0
 21 26  1  1  0  0  0
 21 24  1  0  0  0  0
 22 25  1  0  0  0  0
 23 21  1  0  0  0  0
 24 19  1  1  0  0  0
 25 24  1  0  0  0  0
 27 28  1  0  0  0  0
 28 30  2  0  0  0  0
 29 28  1  0  0  0  0
 30 20  1  0  0  0  0
M  END
>  <MODEL>
4

>  <REMARK>
 VINA RESULT:      -6.7      3.686      8.130
  Name = 
  6 active torsions:
  status: ('A' for Active; 'I' for Inactive)
    1  A    between atoms: C_3  and  N_24
    2  A    between atoms: C_8  and  C_25
    3  A    between atoms: C_12  and  C_25
    4  A    between atoms: C_13  and  C_21
    5  A    between atoms: C_25  and  N_27
    6  A    between atoms: C_26  and  N_27
                            x       y       z     vdW  Elec       q    Type
                         _______ _______ _______ _____ _____    ______ ____

>  <TORSDO>
F 6

$$$$
=
 OpenBabel11042418303D

 30 32  0  0  1  0  0  0  0  0999 V2000
  188.4680  176.2950  143.8740 C   0  0  1  0  0  3  0  0  0  0  0  0
  191.1200  173.7430  140.6400 N   0  0  0  0  0  0  0  0  0  0  0  0
  187.4400  174.7170  142.4000 O   0  0  0  0  0  0  0  0  0  0  0  0
  188.5060  175.2700  142.7850 C   0  0  0  0  0  0  0  0  0  0  0  0
  189.7650  172.4040  139.5550 C   0  0  0  0  0  0  0  0  0  0  0  0
  189.7630  174.9450  142.1830 N   0  0  0  0  0  2  0  0  0  0  0  0
  188.8930  173.1460  140.5120 C   0  0  0  0  0  2  0  0  0  0  0  0
  189.9570  173.9830  141.1420 C   0  0  0  0  0  0  0  0  0  0  0  0
  191.0010  172.7620  139.6540 N   0  0  0  0  0  0  0  0  0  0  0  0
  189.9640  170.2820  138.4600 N   0  0  0  0  0  2  0  0  0  0  0  0
  189.3130  171.3880  138.6040 C   0  0  0  0  0  3  0  0  0  0  0  0
  185.7520  178.7170  143.7450 C   0  0  0  0  0  0  0  0  0  0  0  0
  186.3870  179.0400  142.6420 O   0  0  0  0  0  0  0  0  0  0  0  0
  184.3080  179.5290  144.3090 Cl  0  0  0  0  0  0  0  0  0  0  0  0
  186.3710  177.6610  144.3980 C   0  0  0  0  0  3  0  0  0  0  0  0
  187.4480  177.3540  143.5880 C   0  0  0  0  0  0  0  0  0  0  0  0
  188.3460  178.2900  141.4550 N   0  0  0  0  0  1  0  0  0  0  0  0
  187.4130  178.2380  142.5290 C   0  0  0  0  0  0  0  0  0  0  0  0
  188.2180  175.6720  145.1660 N   0  0  0  0  0  2  0  0  0  0  0  0
  192.3420  175.1490  145.6230 C   0  0  0  0  0  0  0  0  0  0  0  0
  190.4430  176.6730  145.3310 C   0  0  1  0  0  3  0  0  0  0  0  0
  191.4300  174.0690  145.1040 C   0  0  0  0  0  2  0  0  0  0  0  0
  191.8590  176.3870  145.7300 C   0  0  0  0  0  3  0  0  0  0  0  0
  189.4910  175.5920  145.8630 C   0  0  2  0  0  3  0  0  0  0  0  0
  190.0490  174.1560  145.7650 C   0  0  0  0  0  2  0  0  0  0  0  0
  190.0640  177.9150  145.8060 F   0  0  0  0  0  0  0  0  0  0  0  0
  196.0330  174.6190  145.7610 N   0  0  0  0  0  1  0  0  0  0  0  0
  194.7500  174.8670  145.1990 C   0  0  0  0  0  0  0  0  0  0  0  0
  194.6390  175.0530  143.7890 N   0  0  0  0  0  1  0  0  0  0  0  0
  193.7130  174.9120  145.9830 N   0  0  0  0  0  0  0  0  0  0  0  0
  1  4  1  6  0  0  0
  1 19  1  0  0  0  0
  2  8  2  0  0  0  0
  3  4  2  0  0  0  0
  5  9  2  0  0  0  0
  5  7  1  0  0  0  0
  6  4  1  0  0  0  0
  7  8  1  0  0  0  0
  8  6  1  0  0  0  0
  9  2  1  0  0  0  0
 10 11  2  0  0  0  0
 11  5  1  0  0  0  0
 12 14  1  0  0  0  0
 12 15  2  0  0  0  0
 13 12  1  0  0  0  0
 16  1  1  0  0  0  0
 16 15  1  0  0  0  0
 17 18  1  0  0  0  0
 18 13  1  0  0  0  0
 18 16  2  0  0  0  0
 20 23  2  0  0  0  0
 20 30  1  0  0  0  0
 21 23  1  0  0  0  0
 21 26  1  1  0  0  0
 21 24  1  0  0  0  0
 22 20  1  0  0  0  0
 22 25  1  0  0  0  0
 24 19  1  6  0  0  0
 25 24  1  0  0  0  0
 28 27  1  0  0  0  0
 28 30  2  0  0  0  0
 29 28  1  0  0  0  0
M  END
>  <MODEL>
5

>  <REMARK>
 VINA RESULT:      -6.6      3.409      6.709
  Name = 
  6 active torsions:
  status: ('A' for Active; 'I' for Inactive)
    1  A    between atoms: C_3  and  N_24
    2  A    between atoms: C_8  and  C_25
    3  A    between atoms: C_12  and  C_25
    4  A    between atoms: C_13  and  C_21
    5  A    between atoms: C_25  and  N_27
    6  A    between atoms: C_26  and  N_27
                            x       y       z     vdW  Elec       q    Type
                         _______ _______ _______ _____ _____    ______ ____

>  <TORSDO>
F 6

$$$$
=
 OpenBabel11042418303D

 30 32  0  0  1  0  0  0  0  0999 V2000
  190.7510  175.6560  143.3280 C   0  0  1  0  0  3  0  0  0  0  0  0
  188.1920  173.2000  139.9480 N   0  0  0  0  0  0  0  0  0  0  0  0
  191.8120  174.7590  141.3810 O   0  0  0  0  0  0  0  0  0  0  0  0
  190.7410  174.9160  142.0270 C   0  0  0  0  0  0  0  0  0  0  0  0
  189.5680  172.6170  138.3430 C   0  0  0  0  0  0  0  0  0  0  0  0
  189.5040  174.3800  141.5450 N   0  0  0  0  0  2  0  0  0  0  0  0
  190.4120  173.3520  139.3300 C   0  0  0  0  0  2  0  0  0  0  0  0
  189.3370  173.6600  140.3200 C   0  0  0  0  0  0  0  0  0  0  0  0
  188.3360  172.5510  138.7190 N   0  0  0  0  0  0  0  0  0  0  0  0
  189.6910  170.8340  136.7480 N   0  0  0  0  0  2  0  0  0  0  0  0
  190.0410  172.0280  137.0900 C   0  0  0  0  0  3  0  0  0  0  0  0
  193.6500  174.9720  145.4210 C   0  0  0  0  0  0  0  0  0  0  0  0
  192.9320  173.9030  145.6830 O   0  0  0  0  0  0  0  0  0  0  0  0
  195.2150  175.2900  146.1370 Cl  0  0  0  0  0  0  0  0  0  0  0  0
  193.0090  175.8060  144.5170 C   0  0  0  0  0  3  0  0  0  0  0  0
  191.8280  175.1460  144.2350 C   0  0  0  0  0  0  0  0  0  0  0  0
  190.7970  173.0090  145.0130 N   0  0  0  0  0  1  0  0  0  0  0  0
  191.8300  173.9880  144.9850 C   0  0  0  0  0  0  0  0  0  0  0  0
  190.8950  177.0890  143.1090 N   0  0  0  0  0  2  0  0  0  0  0  0
  187.0420  177.4060  144.7060 C   0  0  0  0  0  0  0  0  0  0  0  0
  189.4490  177.1140  145.0810 C   0  0  1  0  0  3  0  0  0  0  0  0
  187.3100  176.9780  143.2870 C   0  0  0  0  0  2  0  0  0  0  0  0
  188.0710  177.4700  145.5520 C   0  0  0  0  0  3  0  0  0  0  0  0
  189.7390  177.7370  143.7080 C   0  0  2  0  0  3  0  0  0  0  0  0
  188.5490  177.6890  142.7280 C   0  0  0  0  0  2  0  0  0  0  0  0
  190.3840  177.5410  146.0050 F   0  0  0  0  0  0  0  0  0  0  0  0
  183.7510  178.9270  145.5870 N   0  0  0  0  0  1  0  0  0  0  0  0
  185.0480  178.8160  145.0140 C   0  0  0  0  0  0  0  0  0  0  0  0
  185.5660  179.9110  144.2630 N   0  0  0  0  0  1  0  0  0  0  0  0
  185.7280  177.7220  145.1950 N   0  0  0  0  0  0  0  0  0  0  0  0
  1  4  1  6  0  0  0
  1 16  1  0  0  0  0
  2  8  2  0  0  0  0
  3  4  2  0  0  0  0
  5  9  2  0  0  0  0
  5  7  1  0  0  0  0
  6  4  1  0  0  0  0
  7  8  1  0  0  0  0
  8  6  1  0  0  0  0
  9  2  1  0  0  0  0
 10 11  2  0  0  0  0
 11  5  1  0  0  0  0
 12 13  1  0  0  0  0
 12 14  1  0  0  0  0
 15 12  2  0  0  0  0
 16 15  1  0  0  0  0
 16 18  2  0  0  0  0
 18 17  1  0  0  0  0
 18 13  1  0  0  0  0
 19  1  1  0  0  0  0
 20 30  1  0  0  0  0
 20 23  2  0  0  0  0
 21 23  1  0  0  0  0
 21 26  1  1  0  0  0
 22 20  1  0  0  0  0
 24 19  1  6  0  0  0
 24 21  1  0  0  0  0
 25 22  1  0  0  0  0
 25 24  1  0  0  0  0
 28 30  2  0  0  0  0
 28 27  1  0  0  0  0
 29 28  1  0  0  0  0
M  END
>  <MODEL>
6

>  <REMARK>
 VINA RESULT:      -6.6      3.659      5.277
  Name = 
  6 active torsions:
  status: ('A' for Active; 'I' for Inactive)
    1  A    between atoms: C_3  and  N_24
    2  A    between atoms: C_8  and  C_25
    3  A    between atoms: C_12  and  C_25
    4  A    between atoms: C_13  and  C_21
    5  A    between atoms: C_25  and  N_27
    6  A    between atoms: C_26  and  N_27
                            x       y       z     vdW  Elec       q    Type
                         _______ _______ _______ _____ _____    ______ ____

>  <TORSDO>
F 6

$$$$
=
 OpenBabel11042418303D

 30 32  0  0  1  0  0  0  0  0999 V2000
  191.4590  175.0950  144.8120 C   0  0  1  0  0  3  0  0  0  0  0  0
  188.2010  172.8350  141.9330 N   0  0  0  0  0  0  0  0  0  0  0  0
  191.4830  175.3960  142.4390 O   0  0  0  0  0  0  0  0  0  0  0  0
  190.9340  174.8460  143.4330 C   0  0  0  0  0  0  0  0  0  0  0  0
  188.5830  173.4460  139.8630 C   0  0  0  0  0  0  0  0  0  0  0  0
  189.8180  173.9670  143.2640 N   0  0  0  0  0  2  0  0  0  0  0  0
  189.6070  174.1650  140.6750 C   0  0  0  0  0  2  0  0  0  0  0  0
  189.2040  173.6410  142.0140 C   0  0  0  0  0  0  0  0  0  0  0  0
  187.8160  172.7130  140.5970 N   0  0  0  0  0  0  0  0  0  0  0  0
  187.8430  174.5450  137.8660 N   0  0  0  0  0  2  0  0  0  0  0  0
  188.4340  173.5340  138.4100 C   0  0  0  0  0  3  0  0  0  0  0  0
  194.8500  173.9710  145.5130 C   0  0  0  0  0  0  0  0  0  0  0  0
  194.2840  172.8150  145.2560 O   0  0  0  0  0  0  0  0  0  0  0  0
  196.5340  174.1520  145.9530 Cl  0  0  0  0  0  0  0  0  0  0  0  0
  193.9470  175.0170  145.3950 C   0  0  0  0  0  3  0  0  0  0  0  0
  192.7660  174.3980  145.0300 C   0  0  0  0  0  0  0  0  0  0  0  0
  192.0920  172.0260  144.6380 N   0  0  0  0  0  1  0  0  0  0  0  0
  193.0300  173.0450  144.9670 C   0  0  0  0  0  0  0  0  0  0  0  0
  191.5840  176.5220  145.0710 N   0  0  0  0  0  2  0  0  0  0  0  0
  187.4830  176.5680  145.8890 C   0  0  0  0  0  0  0  0  0  0  0  0
  189.7340  175.8110  146.5030 C   0  0  1  0  0  3  0  0  0  0  0  0
  188.0500  176.8260  144.5180 C   0  0  0  0  0  2  0  0  0  0  0  0
  188.2960  176.0860  146.8280 C   0  0  0  0  0  3  0  0  0  0  0  0
  190.3440  176.9620  145.6890 C   0  0  2  0  0  3  0  0  0  0  0  0
  189.4020  177.5420  144.6130 C   0  0  0  0  0  2  0  0  0  0  0  0
  190.4500  175.6220  147.6700 F   0  0  0  0  0  0  0  0  0  0  0  0
  184.0650  177.9120  146.5490 N   0  0  0  0  0  1  0  0  0  0  0  0
  185.4390  177.9080  146.1770 C   0  0  0  0  0  0  0  0  0  0  0  0
  186.0470  179.1320  145.7720 N   0  0  0  0  0  1  0  0  0  0  0  0
  186.1020  176.7900  146.2220 N   0  0  0  0  0  0  0  0  0  0  0  0
  1  4  1  6  0  0  0
  1 16  1  0  0  0  0
  1 19  1  0  0  0  0
  2  8  2  0  0  0  0
  3  4  2  0  0  0  0
  5  9  2  0  0  0  0
  5  7  1  0  0  0  0
  6  4  1  0  0  0  0
  7  8  1  0  0  0  0
  8  6  1  0  0  0  0
  9  2  1  0  0  0  0
 10 11  2  0  0  0  0
 11  5  1  0  0  0  0
 12 14  1  0  0  0  0
 13 12  1  0  0  0  0
 15 12  2  0  0  0  0
 16 15  1  0  0  0  0
 17 18  1  0  0  0  0
 18 16  2  0  0  0  0
 18 13  1  0  0  0  0
 20 30  1  0  0  0  0
 20 23  2  0  0  0  0
 21 23  1  0  0  0  0
 21 26  1  1  0  0  0
 22 25  1  0  0  0  0
 22 20  1  0  0  0  0
 24 19  1  6  0  0  0
 24 21  1  0  0  0  0
 25 24  1  0  0  0  0
 28 30  2  0  0  0  0
 28 27  1  0  0  0  0
 29 28  1  0  0  0  0
M  END
>  <MODEL>
7

>  <REMARK>
 VINA RESULT:      -6.6      3.255      5.198
  Name = 
  6 active torsions:
  status: ('A' for Active; 'I' for Inactive)
    1  A    between atoms: C_3  and  N_24
    2  A    between atoms: C_8  and  C_25
    3  A    between atoms: C_12  and  C_25
    4  A    between atoms: C_13  and  C_21
    5  A    between atoms: C_25  and  N_27
    6  A    between atoms: C_26  and  N_27
                            x       y       z     vdW  Elec       q    Type
                         _______ _______ _______ _____ _____    ______ ____

>  <TORSDO>
F 6

$$$$
=
 OpenBabel11042418303D

 30 32  0  0  1  0  0  0  0  0999 V2000
  188.9130  177.2240  144.4980 C   0  0  1  0  0  3  0  0  0  0  0  0
  187.7160  173.1930  141.9840 N   0  0  0  0  0  0  0  0  0  0  0  0
  189.5290  176.9670  142.2010 O   0  0  0  0  0  0  0  0  0  0  0  0
  188.9500  176.4710  143.2060 C   0  0  0  0  0  0  0  0  0  0  0  0
  188.4450  173.4300  139.9310 C   0  0  0  0  0  0  0  0  0  0  0  0
  188.3350  175.1810  143.1380 N   0  0  0  0  0  2  0  0  0  0  0  0
  188.8460  174.6840  140.6320 C   0  0  0  0  0  2  0  0  0  0  0  0
  188.2830  174.3500  141.9740 C   0  0  0  0  0  0  0  0  0  0  0  0
  187.8170  172.6210  140.7150 N   0  0  0  0  0  0  0  0  0  0  0  0
  189.5870  173.7880  137.8550 N   0  0  0  0  0  2  0  0  0  0  0  0
  188.7120  173.1170  138.5260 C   0  0  0  0  0  3  0  0  0  0  0  0
  185.6700  178.1040  145.8990 C   0  0  0  0  0  0  0  0  0  0  0  0
  185.5130  178.5600  144.6780 O   0  0  0  0  0  0  0  0  0  0  0  0
  184.4460  178.2220  147.1450 Cl  0  0  0  0  0  0  0  0  0  0  0  0
  186.9190  177.5270  146.0700 C   0  0  0  0  0  3  0  0  0  0  0  0
  187.5200  177.6610  144.8330 C   0  0  0  0  0  0  0  0  0  0  0  0
  186.8210  178.6660  142.6560 N   0  0  0  0  0  1  0  0  0  0  0  0
  186.6130  178.3090  144.0190 C   0  0  0  0  0  0  0  0  0  0  0  0
  189.4790  176.4300  145.5800 N   0  0  0  0  0  2  0  0  0  0  0  0
  193.4160  175.0580  145.9070 C   0  0  0  0  0  0  0  0  0  0  0  0
  191.0270  174.5420  145.7050 C   0  0  1  0  0  3  0  0  0  0  0  0
  192.9820  176.4250  146.3670 C   0  0  0  0  0  2  0  0  0  0  0  0
  192.4750  174.1690  145.5920 C   0  0  0  0  0  3  0  0  0  0  0  0
  190.7720  175.9410  145.1280 C   0  0  2  0  0  3  0  0  0  0  0  0
  191.8670  176.9740  145.4690 C   0  0  0  0  0  2  0  0  0  0  0  0
  190.2500  173.6060  145.0470 F   0  0  0  0  0  0  0  0  0  0  0  0
  196.9940  174.4900  145.0130 N   0  0  0  0  0  1  0  0  0  0  0  0
  195.6670  174.9940  144.9140 C   0  0  0  0  0  0  0  0  0  0  0  0
  195.3320  175.8430  143.8190 N   0  0  0  0  0  1  0  0  0  0  0  0
  194.7950  174.6620  145.8200 N   0  0  0  0  0  0  0  0  0  0  0  0
  1  4  1  6  0  0  0
  1 16  1  0  0  0  0
  1 19  1  0  0  0  0
  3  4  2  0  0  0  0
  5  7  1  0  0  0  0
  5  9  2  0  0  0  0
  6  4  1  0  0  0  0
  7  8  1  0  0  0  0
  8  2  2  0  0  0  0
  8  6  1  0  0  0  0
  9  2  1  0  0  0  0
 10 11  2  0  0  0  0
 11  5  1  0  0  0  0
 12 15  2  0  0  0  0
 12 14  1  0  0  0  0
 13 12  1  0  0  0  0
 16 15  1  0  0  0  0
 17 18  1  0  0  0  0
 18 13  1  0  0  0  0
 18 16  2  0  0  0  0
 20 22  1  0  0  0  0
 21 26  1  6  0  0  0
 23 21  1  0  0  0  0
 23 20  2  0  0  0  0
 24 25  1  0  0  0  0
 24 19  1  1  0  0  0
 24 21  1  0  0  0  0
 25 22  1  0  0  0  0
 28 27  1  0  0  0  0
 28 30  2  0  0  0  0
 29 28  1  0  0  0  0
 30 20  1  0  0  0  0
M  END
>  <MODEL>
8

>  <REMARK>
 VINA RESULT:      -6.5      3.424      7.160
  Name = 
  6 active torsions:
  status: ('A' for Active; 'I' for Inactive)
    1  A    between atoms: C_3  and  N_24
    2  A    between atoms: C_8  and  C_25
    3  A    between atoms: C_12  and  C_25
    4  A    between atoms: C_13  and  C_21
    5  A    between atoms: C_25  and  N_27
    6  A    between atoms: C_26  and  N_27
                            x       y       z     vdW  Elec       q    Type
                         _______ _______ _______ _____ _____    ______ ____

>  <TORSDO>
F 6

$$$$
=
 OpenBabel11042418303D

 30 32  0  0  1  0  0  0  0  0999 V2000
  190.4360  176.0840  144.0970 C   0  0  1  0  0  3  0  0  0  0  0  0
  195.3110  176.3950  144.4690 N   0  0  0  0  0  0  0  0  0  0  0  0
  191.8520  175.6600  142.2160 O   0  0  0  0  0  0  0  0  0  0  0  0
  191.7730  175.9670  143.4370 C   0  0  0  0  0  0  0  0  0  0  0  0
  196.1760  175.8810  142.5210 C   0  0  0  0  0  0  0  0  0  0  0  0
  192.9510  176.2250  144.2080 N   0  0  0  0  0  2  0  0  0  0  0  0
  194.7010  175.7690  142.3320 C   0  0  0  0  0  2  0  0  0  0  0  0
  194.2930  176.1440  143.7190 C   0  0  0  0  0  0  0  0  0  0  0  0
  196.4810  176.2320  143.7240 N   0  0  0  0  0  0  0  0  0  0  0  0
  197.3090  174.4660  140.9550 N   0  0  0  0  0  2  0  0  0  0  0  0
  197.1880  175.6330  141.4930 C   0  0  0  0  0  3  0  0  0  0  0  0
  190.9130  176.6340  147.6640 C   0  0  0  0  0  0  0  0  0  0  0  0
  190.4390  175.4100  147.6920 O   0  0  0  0  0  0  0  0  0  0  0  0
  191.3560  177.5390  149.0960 Cl  0  0  0  0  0  0  0  0  0  0  0  0
  191.0130  177.1120  146.3660 C   0  0  0  0  0  3  0  0  0  0  0  0
  190.5630  176.0610  145.5900 C   0  0  0  0  0  0  0  0  0  0  0  0
  189.6910  173.7750  146.0880 N   0  0  0  0  0  1  0  0  0  0  0  0
  190.2170  175.0450  146.4570 C   0  0  0  0  0  0  0  0  0  0  0  0
  189.7410  177.2850  143.6560 N   0  0  0  0  0  2  0  0  0  0  0  0
  185.6940  177.8580  142.7690 C   0  0  0  0  0  0  0  0  0  0  0  0
  187.8720  176.9380  142.1180 C   0  0  1  0  0  3  0  0  0  0  0  0
  186.4610  178.7440  143.7150 C   0  0  0  0  0  2  0  0  0  0  0  0
  186.3780  176.9980  142.0140 C   0  0  0  0  0  3  0  0  0  0  0  0
  188.3240  176.9650  143.5850 C   0  0  2  0  0  3  0  0  0  0  0  0
  187.5240  177.9410  144.4740 C   0  0  0  0  0  2  0  0  0  0  0  0
  188.3390  175.7930  141.4980 F   0  0  0  0  0  0  0  0  0  0  0  0
  182.1600  178.2500  141.6390 N   0  0  0  0  0  1  0  0  0  0  0  0
  183.5810  178.2640  141.5750 C   0  0  0  0  0  0  0  0  0  0  0  0
  184.2120  178.6660  140.3610 N   0  0  0  0  0  1  0  0  0  0  0  0
  184.2650  177.9160  142.6240 N   0  0  0  0  0  0  0  0  0  0  0  0
  1  4  1  6  0  0  0
  1 16  1  0  0  0  0
  3  4  2  0  0  0  0
  4  6  1  0  0  0  0
  5  9  2  0  0  0  0
  7  5  1  0  0  0  0
  7  8  1  0  0  0  0
  8  6  1  0  0  0  0
  8  2  2  0  0  0  0
  9  2  1  0  0  0  0
 10 11  2  0  0  0  0
 11  5  1  0  0  0  0
 12 13  1  0  0  0  0
 12 14  1  0  0  0  0
 15 12  2  0  0  0  0
 16 15  1  0  0  0  0
 16 18  2  0  0  0  0
 17 18  1  0  0  0  0
 18 13  1  0  0  0  0
 19  1  1  0  0  0  0
 20 22  1  0  0  0  0
 21 26  1  1  0  0  0
 21 24  1  0  0  0  0
 22 25  1  0  0  0  0
 23 21  1  0  0  0  0
 23 20  2  0  0  0  0
 24 19  1  6  0  0  0
 24 25  1  0  0  0  0
 28 27  1  0  0  0  0
 28 30  2  0  0  0  0
 29 28  1  0  0  0  0
 30 20  1  0  0  0  0
M  END
>  <MODEL>
9

>  <REMARK>
 VINA RESULT:      -6.5      3.086      3.795
  Name = 
  6 active torsions:
  status: ('A' for Active; 'I' for Inactive)
    1  A    between atoms: C_3  and  N_24
    2  A    between atoms: C_8  and  C_25
    3  A    between atoms: C_12  and  C_25
    4  A    between atoms: C_13  and  C_21
    5  A    between atoms: C_25  and  N_27
    6  A    between atoms: C_26  and  N_27
                            x       y       z     vdW  Elec       q    Type
                         _______ _______ _______ _____ _____    ______ ____

>  <TORSDO>
F 6

$$$$
