=
 OpenBabel11042415073D

 53 56  0  0  1  0  0  0  0  0999 V2000
  194.7200  175.4610  144.7660 C   0  0  1  0  0  3  0  0  0  0  0  0
  190.1620  174.2130  145.4400 C   0  0  0  0  0  0  0  0  0  0  0  0
  189.9920  172.8130  144.9360 C   0  0  0  0  0  1  0  0  0  0  0  0
  189.1140  174.9730  145.5000 N   0  0  0  0  0  0  0  0  0  0  0  0
  190.3910  176.7760  147.1990 S   0  0  0  0  0  0  0  0  0  0  0  0
  191.4540  174.6000  146.1100 C   0  0  1  0  0  3  0  0  0  0  0  0
  192.7240  174.0900  145.4760 C   0  0  0  0  0  2  0  0  0  0  0  0
  193.0620  176.2590  146.5520 C   0  0  0  0  0  2  0  0  0  0  0  0
  193.8130  175.0590  145.9490 C   0  0  2  0  0  3  0  0  0  0  0  0
  191.6400  176.0760  146.1050 C   0  0  2  0  0  3  0  0  0  0  0  0
  189.0700  176.3530  145.9870 C   0  0  1  0  0  3  0  0  0  0  0  0
  189.1140  177.3370  144.8210 C   0  0  0  0  0  2  0  0  0  0  0  0
  188.1550  176.9470  143.7920 N   0  0  0  0  0  2  0  0  0  0  0  0
  188.9110  178.1840  141.8390 C   0  0  0  0  0  1  0  0  0  0  0  0
  187.9090  178.1280  142.9780 C   0  0  1  0  0  3  0  0  0  0  0  0
  186.4650  178.1290  142.4710 C   0  0  1  0  0  3  0  0  0  0  0  0
  185.5720  177.8600  140.4630 C   0  0  0  0  0  1  0  0  0  0  0  0
  186.3180  177.1960  141.4390 O   0  0  0  0  0  0  0  0  0  0  0  0
  185.5340  177.8240  143.5530 N   0  0  0  0  0  2  0  0  0  0  0  0
  185.3620  179.0420  144.3350 C   0  0  0  0  0  2  0  0  0  0  0  0
  184.9880  178.6970  145.7650 C   0  0  1  0  0  3  0  0  0  0  0  0
  183.6110  178.8300  145.9280 O   0  0  0  0  0  1  0  0  0  0  0  0
  185.3930  177.2700  146.0910 C   0  0  0  0  0  1  0  0  0  0  0  0
  196.1020  174.9770  144.9370 N   0  0  0  0  0  2  0  0  0  0  0  0
  196.1530  173.7380  145.7150 C   0  0  2  0  0  3  0  0  0  0  0  0
  197.1820  173.7990  146.6630 O   0  0  0  0  0  1  0  0  0  0  0  0
  196.3890  172.5650  144.7920 C   0  0  0  0  0  2  0  0  0  0  0  0
  195.3410  171.6570  144.9330 O   0  0  0  0  0  0  0  0  0  0  0  0
  195.8620  170.4170  144.5490 C   0  0  1  0  0  3  0  0  0  0  0  0
  197.4730  169.9540  142.8760 O   0  0  0  0  0  0  0  0  0  0  0  0
  196.4330  170.5340  143.1690 C   0  0  0  0  0  3  0  0  0  0  0  0
  196.9550  170.0000  145.5260 C   0  0  0  0  0  2  0  0  0  0  0  0
  196.6100  168.6610  146.1660 C   0  0  0  0  0  3  0  0  0  0  0  0
  197.3010  168.5550  147.5110 C   0  0  0  0  0  2  0  0  0  0  0  0
  195.8320  168.9200  147.4410 C   0  0  0  0  0  2  0  0  0  0  0  0
  194.1600  175.0660  143.3840 C   0  0  0  0  0  2  0  0  0  0  0  0
  194.8950  175.6970  142.2120 C   0  0  0  0  0  2  0  0  0  0  0  0
  195.6350  174.6140  141.4500 C   0  0  0  0  0  2  0  0  0  0  0  0
  195.5450  174.8710  139.9630 C   0  0  0  0  0  2  0  0  0  0  0  0
  194.1610  175.1230  139.6100 N   0  0  0  0  0  2  0  0  0  0  0  0
  193.7520  174.0690  138.6980 C   0  0  0  0  0  2  0  0  0  0  0  0
  192.4660  174.3310  138.2310 O   0  0  0  0  0  0  0  0  0  0  0  0
  192.1120  173.1950  137.5000 C   0  0  0  0  0  2  0  0  0  0  0  0
  191.2830  171.1220  138.6320 O   0  0  0  0  0  1  0  0  0  0  0  0
  190.1610  173.2470  139.1940 C   0  0  1  0  0  3  0  0  0  0  0  0
  189.4330  173.7440  136.9760 O   0  0  0  0  0  1  0  0  0  0  0  0
  191.0130  172.4330  138.2330 C   0  0  1  0  0  0  0  0  0  0  0  0
  189.5540  172.7030  137.8980 C   0  0  1  0  0  3  0  0  0  0  0  0
  189.7340  172.4630  140.2690 O   0  0  0  0  0  0  0  0  0  0  0  0
  189.8360  173.2940  141.3870 C   0  0  1  0  0  3  0  0  0  0  0  0
  190.8160  174.2600  141.1690 O   0  0  0  0  0  1  0  0  0  0  0  0
  187.5240  173.0010  141.9580 O   0  0  0  0  0  1  0  0  0  0  0  0
  188.4980  173.9600  141.6710 C   0  0  0  0  0  2  0  0  0  0  0  0
  1 36  1  6  0  0  0
  1 24  1  0  0  0  0
  2  4  2  0  0  0  0
  2  6  1  0  0  0  0
  3  2  1  0  0  0  0
  4 11  1  0  0  0  0
  6  7  1  6  0  0  0
  7  9  1  0  0  0  0
  9  1  1  6  0  0  0
  9  8  1  0  0  0  0
 10  6  1  0  0  0  0
 10  8  1  1  0  0  0
 10  5  1  0  0  0  0
 11 12  1  6  0  0  0
 11  5  1  0  0  0  0
 13 12  1  0  0  0  0
 15 14  1  6  0  0  0
 15 13  1  0  0  0  0
 16 18  1  6  0  0  0
 16 15  1  0  0  0  0
 16 19  1  0  0  0  0
 17 18  1  0  0  0  0
 19 20  1  0  0  0  0
 20 21  1  0  0  0  0
 21 22  1  0  0  0  0
 21 23  1  6  0  0  0
 24 25  1  0  0  0  0
 25 26  1  1  0  0  0
 27 28  1  0  0  0  0
 27 25  1  0  0  0  0
 29 31  1  6  0  0  0
 29 28  1  0  0  0  0
 29 32  1  0  0  0  0
 30 31  2  0  0  0  0
 32 33  1  0  0  0  0
 33 35  1  0  0  0  0
 33 34  1  0  0  0  0
 35 34  1  0  0  0  0
 37 36  1  0  0  0  0
 38 37  1  0  0  0  0
 39 38  1  0  0  0  0
 40 39  1  0  0  0  0
 41 40  1  0  0  0  0
 42 41  1  0  0  0  0
 43 42  1  0  0  0  0
 43 47  1  0  0  0  0
 45 49  1  1  0  0  0
 47 44  1  1  0  0  0
 47 45  1  0  0  0  0
 48 46  1  6  0  0  0
 48 47  1  0  0  0  0
 48 45  1  0  0  0  0
 49 50  1  0  0  0  0
 50 51  1  6  0  0  0
 50 53  1  0  0  0  0
 53 52  1  0  0  0  0
M  END
>  <MODEL>
1

>  <REMARK>
 VINA RESULT:      -5.3      0.000      0.000
  Name = 
  29 active torsions:
  status: ('A' for Active; 'I' for Inactive)
    1  A    between atoms: C_3  and  N_46
    2  A    between atoms: C_3  and  C_53
    3  A    between atoms: C_4  and  C_18
    4  A    between atoms: C_4  and  N_32
    5  A    between atoms: C_5  and  C_20
    6  A    between atoms: C_5  and  C_38
    7  A    between atoms: C_8  and  O_19
    8  A    between atoms: C_9  and  C_10
    9  A    between atoms: C_10  and  C_29
   10  A    between atoms: C_13  and  O_19
   11  A    between atoms: C_13  and  C_36
   12  A    between atoms: O_15  and  C_29
   13  A    between atoms: O_15  and  C_51
   14  A    between atoms: C_16  and  C_20
   15  A    between atoms: C_16  and  C_23
   16  A    between atoms: C_21  and  O_34
   17  A    between atoms: C_21  and  N_45
   18  A    between atoms: C_23  and  C_43
   19  A    between atoms: C_23  and  N_50
   20  A    between atoms: C_25  and  N_32
   21  A    between atoms: C_25  and  O_47
   22  A    between atoms: C_25  and  C_49
   23  A    between atoms: C_26  and  O_34
   24  A    between atoms: C_26  and  C_40
   25  A    between atoms: C_29  and  C_41
   26  A    between atoms: C_30  and  N_50
   27  A    between atoms: C_30  and  C_51
   28  A    between atoms: C_38  and  N_45
   29  A    between atoms: N_46  and  C_49
                            x       y       z     vdW  Elec       q    Type
                         _______ _______ _______ _____ _____    ______ ____

>  <TORSDO>
F 29

$$$$
=
 OpenBabel11042415073D

 53 56  0  0  1  0  0  0  0  0999 V2000
  189.3910  176.4730  142.3840 C   0  0  1  0  0  3  0  0  0  0  0  0
  190.4890  171.8950  141.5920 C   0  0  0  0  0  0  0  0  0  0  0  0
  191.0620  171.3370  142.8580 C   0  0  0  0  0  1  0  0  0  0  0  0
  190.7970  171.3180  140.4740 N   0  0  0  0  0  0  0  0  0  0  0  0
  188.6920  172.5580  139.1330 S   0  0  0  0  0  0  0  0  0  0  0  0
  189.3770  172.9080  141.6740 C   0  0  1  0  0  3  0  0  0  0  0  0
  189.5120  173.9770  142.7300 C   0  0  0  0  0  2  0  0  0  0  0  0
  188.3210  174.8010  140.7600 C   0  0  0  0  0  2  0  0  0  0  0  0
  188.6400  175.1330  142.2290 C   0  0  2  0  0  3  0  0  0  0  0  0
  189.2680  173.6880  140.4120 C   0  0  2  0  0  3  0  0  0  0  0  0
  190.3190  171.6940  139.1420 C   0  0  1  0  0  3  0  0  0  0  0  0
  191.3560  172.5510  138.4210 C   0  0  0  0  0  2  0  0  0  0  0  0
  192.5610  172.6790  139.2320 N   0  0  0  0  0  2  0  0  0  0  0  0
  193.0380  174.4500  140.8310 C   0  0  0  0  0  1  0  0  0  0  0  0
  192.8280  174.1040  139.3670 C   0  0  1  0  0  3  0  0  0  0  0  0
  194.0310  174.5000  138.5070 C   0  0  1  0  0  3  0  0  0  0  0  0
  193.4990  174.4810  136.3580 C   0  0  0  0  0  1  0  0  0  0  0  0
  193.6200  175.3310  137.4590 O   0  0  0  0  0  0  0  0  0  0  0  0
  195.0430  175.1780  139.3110 N   0  0  0  0  0  2  0  0  0  0  0  0
  196.3310  174.9550  138.6650 C   0  0  0  0  0  2  0  0  0  0  0  0
  197.3180  174.3650  139.6570 C   0  0  1  0  0  3  0  0  0  0  0  0
  196.9190  174.6860  140.9520 O   0  0  0  0  0  1  0  0  0  0  0  0
  197.3780  172.8550  139.5120 C   0  0  0  0  0  1  0  0  0  0  0  0
  188.5900  177.4780  143.1060 N   0  0  0  0  0  2  0  0  0  0  0  0
  187.2570  177.6350  142.5200 C   0  0  2  0  0  3  0  0  0  0  0  0
  187.3490  178.1770  141.2320 O   0  0  0  0  0  1  0  0  0  0  0  0
  186.4210  178.5460  143.3900 C   0  0  0  0  0  2  0  0  0  0  0  0
  185.3770  177.8100  143.9480 O   0  0  0  0  0  0  0  0  0  0  0  0
  185.6100  177.8130  145.3280 C   0  0  1  0  0  3  0  0  0  0  0  0
  183.7420  179.1180  145.9760 O   0  0  0  0  0  0  0  0  0  0  0  0
  184.3100  178.0340  146.0420 C   0  0  0  0  0  3  0  0  0  0  0  0
  186.2070  176.4740  145.7460 C   0  0  0  0  0  2  0  0  0  0  0  0
  187.0800  176.6480  146.9830 C   0  0  0  0  0  3  0  0  0  0  0  0
  188.3670  175.8670  146.8010 C   0  0  0  0  0  2  0  0  0  0  0  0
  188.3520  177.3670  146.5790 C   0  0  0  0  0  2  0  0  0  0  0  0
  190.7980  176.3360  143.0010 C   0  0  0  0  0  2  0  0  0  0  0  0
  191.1460  177.4250  144.0030 C   0  0  0  0  0  2  0  0  0  0  0  0
  191.9180  176.8120  145.1560 C   0  0  0  0  0  2  0  0  0  0  0  0
  193.4030  177.0020  144.9460 C   0  0  0  0  0  2  0  0  0  0  0  0
  194.0230  175.7050  144.7530 N   0  0  0  0  0  2  0  0  0  0  0  0
  195.1520  175.8990  143.8590 C   0  0  0  0  0  2  0  0  0  0  0  0
  196.2170  175.1030  144.2760 O   0  0  0  0  0  0  0  0  0  0  0  0
  195.6750  173.8230  144.4130 C   0  0  0  0  0  2  0  0  0  0  0  0
  197.0770  173.3840  146.4400 O   0  0  0  0  0  1  0  0  0  0  0  0
  196.4110  171.4370  145.0780 C   0  0  1  0  0  3  0  0  0  0  0  0
  197.4590  172.1670  143.0620 O   0  0  0  0  0  1  0  0  0  0  0  0
  196.6410  172.9350  145.1920 C   0  0  1  0  0  0  0  0  0  0  0  0
  197.6480  172.0760  144.4420 C   0  0  1  0  0  3  0  0  0  0  0  0
  196.7820  170.7850  146.2570 O   0  0  0  0  0  0  0  0  0  0  0  0
  196.0670  169.5850  146.2480 C   0  0  1  0  0  3  0  0  0  0  0  0
  195.9090  169.1200  147.5520 O   0  0  0  0  0  1  0  0  0  0  0  0
  194.0100  168.5780  145.5340 O   0  0  0  0  0  1  0  0  0  0  0  0
  194.7070  169.7860  145.5960 C   0  0  0  0  0  2  0  0  0  0  0  0
  1 36  1  1  0  0  0
  1 24  1  0  0  0  0
  2  6  1  0  0  0  0
  2  3  1  0  0  0  0
  4  2  2  0  0  0  0
  5 11  1  0  0  0  0
  5 10  1  0  0  0  0
  6  7  1  1  0  0  0
  8  9  1  0  0  0  0
  9  1  1  6  0  0  0
  9  7  1  0  0  0  0
 10  8  1  1  0  0  0
 10  6  1  0  0  0  0
 11 12  1  1  0  0  0
 11  4  1  0  0  0  0
 12 13  1  0  0  0  0
 13 15  1  0  0  0  0
 15 14  1  1  0  0  0
 16 18  1  6  0  0  0
 16 19  1  0  0  0  0
 16 15  1  0  0  0  0
 17 18  1  0  0  0  0
 20 19  1  0  0  0  0
 20 21  1  0  0  0  0
 21 23  1  1  0  0  0
 21 22  1  0  0  0  0
 25 26  1  6  0  0  0
 25 24  1  0  0  0  0
 25 27  1  0  0  0  0
 27 28  1  0  0  0  0
 28 29  1  0  0  0  0
 29 32  1  1  0  0  0
 29 31  1  0  0  0  0
 30 31  2  0  0  0  0
 32 33  1  0  0  0  0
 34 33  1  0  0  0  0
 35 34  1  0  0  0  0
 35 33  1  0  0  0  0
 36 37  1  0  0  0  0
 37 38  1  0  0  0  0
 39 38  1  0  0  0  0
 40 39  1  0  0  0  0
 41 42  1  0  0  0  0
 41 40  1  0  0  0  0
 42 43  1  0  0  0  0
 43 47  1  0  0  0  0
 45 47  1  0  0  0  0
 45 49  1  1  0  0  0
 47 44  1  1  0  0  0
 48 46  1  6  0  0  0
 48 45  1  0  0  0  0
 48 47  1  0  0  0  0
 50 49  1  0  0  0  0
 50 51  1  1  0  0  0
 52 53  1  0  0  0  0
 53 50  1  0  0  0  0
M  END
>  <MODEL>
2

>  <REMARK>
 VINA RESULT:      -5.2      2.590      9.508
  Name = 
  29 active torsions:
  status: ('A' for Active; 'I' for Inactive)
    1  A    between atoms: C_3  and  N_46
    2  A    between atoms: C_3  and  C_53
    3  A    between atoms: C_4  and  C_18
    4  A    between atoms: C_4  and  N_32
    5  A    between atoms: C_5  and  C_20
    6  A    between atoms: C_5  and  C_38
    7  A    between atoms: C_8  and  O_19
    8  A    between atoms: C_9  and  C_10
    9  A    between atoms: C_10  and  C_29
   10  A    between atoms: C_13  and  O_19
   11  A    between atoms: C_13  and  C_36
   12  A    between atoms: O_15  and  C_29
   13  A    between atoms: O_15  and  C_51
   14  A    between atoms: C_16  and  C_20
   15  A    between atoms: C_16  and  C_23
   16  A    between atoms: C_21  and  O_34
   17  A    between atoms: C_21  and  N_45
   18  A    between atoms: C_23  and  C_43
   19  A    between atoms: C_23  and  N_50
   20  A    between atoms: C_25  and  N_32
   21  A    between atoms: C_25  and  O_47
   22  A    between atoms: C_25  and  C_49
   23  A    between atoms: C_26  and  O_34
   24  A    between atoms: C_26  and  C_40
   25  A    between atoms: C_29  and  C_41
   26  A    between atoms: C_30  and  N_50
   27  A    between atoms: C_30  and  C_51
   28  A    between atoms: C_38  and  N_45
   29  A    between atoms: N_46  and  C_49
                            x       y       z     vdW  Elec       q    Type
                         _______ _______ _______ _____ _____    ______ ____

>  <TORSDO>
F 29

$$$$
=
 OpenBabel11042415073D

 53 56  0  0  1  0  0  0  0  0999 V2000
  192.3740  175.5880  145.3170 C   0  0  1  0  0  3  0  0  0  0  0  0
  196.4780  174.9020  142.9770 C   0  0  0  0  0  0  0  0  0  0  0  0
  196.4190  175.6970  141.7090 C   0  0  0  0  0  1  0  0  0  0  0  0
  197.2760  173.8820  143.0240 N   0  0  0  0  0  0  0  0  0  0  0  0
  197.1590  173.7880  145.8070 S   0  0  0  0  0  0  0  0  0  0  0  0
  195.8370  175.4580  144.2220 C   0  0  1  0  0  3  0  0  0  0  0  0
  194.4920  176.1190  144.0530 C   0  0  0  0  0  2  0  0  0  0  0  0
  194.7040  175.0520  146.2430 C   0  0  0  0  0  2  0  0  0  0  0  0
  193.8440  176.0430  145.4390 C   0  0  2  0  0  3  0  0  0  0  0  0
  195.5660  174.3810  145.2120 C   0  0  2  0  0  3  0  0  0  0  0  0
  197.4940  173.0030  144.1750 C   0  0  1  0  0  3  0  0  0  0  0  0
  196.6660  171.7280  144.0420 C   0  0  0  0  0  2  0  0  0  0  0  0
  197.5330  170.5860  143.7720 N   0  0  0  0  0  2  0  0  0  0  0  0
  195.9110  168.7880  143.5380 C   0  0  0  0  0  1  0  0  0  0  0  0
  196.8360  169.7470  142.8090 C   0  0  1  0  0  3  0  0  0  0  0  0
  196.0790  170.6160  141.8010 C   0  0  1  0  0  3  0  0  0  0  0  0
  197.8300  171.0040  140.5030 C   0  0  0  0  0  1  0  0  0  0  0  0
  196.5740  170.3970  140.5110 O   0  0  0  0  0  0  0  0  0  0  0  0
  194.6490  170.3310  141.8400 N   0  0  0  0  0  2  0  0  0  0  0  0
  194.2330  170.0010  140.4820 C   0  0  0  0  0  2  0  0  0  0  0  0
  193.0080  169.1060  140.5130 C   0  0  1  0  0  3  0  0  0  0  0  0
  192.1140  169.5780  141.4720 O   0  0  0  0  0  1  0  0  0  0  0  0
  192.3250  169.0920  139.1570 C   0  0  0  0  0  1  0  0  0  0  0  0
  192.1790  174.6290  144.2130 N   0  0  0  0  0  2  0  0  0  0  0  0
  191.4910  173.4170  144.6600 C   0  0  2  0  0  3  0  0  0  0  0  0
  192.3040  172.2940  144.4680 O   0  0  0  0  0  1  0  0  0  0  0  0
  190.2050  173.2450  143.8840 C   0  0  0  0  0  2  0  0  0  0  0  0
  190.4480  172.4360  142.7750 O   0  0  0  0  0  0  0  0  0  0  0  0
  189.7360  173.0180  141.7210 C   0  0  1  0  0  3  0  0  0  0  0  0
  188.5230  175.0520  141.7440 O   0  0  0  0  0  0  0  0  0  0  0  0
  188.7230  173.9700  142.2830 C   0  0  0  0  0  3  0  0  0  0  0  0
  190.6990  173.7680  140.8090 C   0  0  0  0  0  2  0  0  0  0  0  0
  191.8590  172.8650  140.4080 C   0  0  0  0  0  3  0  0  0  0  0  0
  192.6690  173.5430  139.3210 C   0  0  0  0  0  2  0  0  0  0  0  0
  193.1580  173.5640  140.7550 C   0  0  0  0  0  2  0  0  0  0  0  0
  191.7720  175.0500  146.6320 C   0  0  0  0  0  2  0  0  0  0  0  0
  191.5350  176.1160  147.6890 C   0  0  0  0  0  2  0  0  0  0  0  0
  190.5920  177.1660  147.1320 C   0  0  0  0  0  2  0  0  0  0  0  0
  189.2750  176.5300  146.7480 C   0  0  0  0  0  2  0  0  0  0  0  0
  188.1960  177.4420  147.0760 N   0  0  0  0  0  2  0  0  0  0  0  0
  186.9530  176.7050  146.9280 C   0  0  0  0  0  2  0  0  0  0  0  0
  186.8100  176.2960  145.6040 O   0  0  0  0  0  0  0  0  0  0  0  0
  185.6230  176.8900  145.1720 C   0  0  0  0  0  2  0  0  0  0  0  0
  187.2600  178.3480  143.9640 O   0  0  0  0  0  1  0  0  0  0  0  0
  184.8770  178.5830  143.3670 C   0  0  1  0  0  3  0  0  0  0  0  0
  184.1310  179.2110  145.5450 O   0  0  0  0  0  1  0  0  0  0  0  0
  185.9380  178.1460  144.3650 C   0  0  1  0  0  0  0  0  0  0  0  0
  185.1520  179.4230  144.6160 C   0  0  1  0  0  3  0  0  0  0  0  0
  185.4610  179.2000  142.2570 O   0  0  0  0  0  0  0  0  0  0  0  0
  184.9670  178.5030  141.1520 C   0  0  1  0  0  3  0  0  0  0  0  0
  185.6890  177.3240  140.9770 O   0  0  0  0  0  1  0  0  0  0  0  0
  182.8560  178.0410  140.1090 O   0  0  0  0  0  1  0  0  0  0  0  0
  183.4900  178.1900  141.3450 C   0  0  0  0  0  2  0  0  0  0  0  0
  1 36  1  1  0  0  0
  2  4  2  0  0  0  0
  2  6  1  0  0  0  0
  3  2  1  0  0  0  0
  4 11  1  0  0  0  0
  6  7  1  6  0  0  0
  6 10  1  0  0  0  0
  7  9  1  0  0  0  0
  9  1  1  6  0  0  0
  9  8  1  0  0  0  0
 10  5  1  0  0  0  0
 10  8  1  1  0  0  0
 11 12  1  6  0  0  0
 11  5  1  0  0  0  0
 13 12  1  0  0  0  0
 15 14  1  1  0  0  0
 15 13  1  0  0  0  0
 16 18  1  6  0  0  0
 16 19  1  0  0  0  0
 16 15  1  0  0  0  0
 17 18  1  0  0  0  0
 20 21  1  0  0  0  0
 20 19  1  0  0  0  0
 21 23  1  6  0  0  0
 21 22  1  0  0  0  0
 24 25  1  0  0  0  0
 24  1  1  0  0  0  0
 25 26  1  6  0  0  0
 27 25  1  0  0  0  0
 28 27  1  0  0  0  0
 29 32  1  6  0  0  0
 29 31  1  0  0  0  0
 29 28  1  0  0  0  0
 30 31  2  0  0  0  0
 33 35  1  0  0  0  0
 33 32  1  0  0  0  0
 34 33  1  0  0  0  0
 34 35  1  0  0  0  0
 36 37  1  0  0  0  0
 38 37  1  0  0  0  0
 39 40  1  0  0  0  0
 39 38  1  0  0  0  0
 41 40  1  0  0  0  0
 42 41  1  0  0  0  0
 43 42  1  0  0  0  0
 45 49  1  6  0  0  0
 45 47  1  0  0  0  0
 45 48  1  0  0  0  0
 47 44  1  6  0  0  0
 47 48  1  0  0  0  0
 47 43  1  0  0  0  0
 48 46  1  1  0  0  0
 50 51  1  1  0  0  0
 50 53  1  0  0  0  0
 50 49  1  0  0  0  0
 52 53  1  0  0  0  0
M  END
>  <MODEL>
3

>  <REMARK>
 VINA RESULT:      -4.6      2.717      9.037
  Name = 
  29 active torsions:
  status: ('A' for Active; 'I' for Inactive)
    1  A    between atoms: C_3  and  N_46
    2  A    between atoms: C_3  and  C_53
    3  A    between atoms: C_4  and  C_18
    4  A    between atoms: C_4  and  N_32
    5  A    between atoms: C_5  and  C_20
    6  A    between atoms: C_5  and  C_38
    7  A    between atoms: C_8  and  O_19
    8  A    between atoms: C_9  and  C_10
    9  A    between atoms: C_10  and  C_29
   10  A    between atoms: C_13  and  O_19
   11  A    between atoms: C_13  and  C_36
   12  A    between atoms: O_15  and  C_29
   13  A    between atoms: O_15  and  C_51
   14  A    between atoms: C_16  and  C_20
   15  A    between atoms: C_16  and  C_23
   16  A    between atoms: C_21  and  O_34
   17  A    between atoms: C_21  and  N_45
   18  A    between atoms: C_23  and  C_43
   19  A    between atoms: C_23  and  N_50
   20  A    between atoms: C_25  and  N_32
   21  A    between atoms: C_25  and  O_47
   22  A    between atoms: C_25  and  C_49
   23  A    between atoms: C_26  and  O_34
   24  A    between atoms: C_26  and  C_40
   25  A    between atoms: C_29  and  C_41
   26  A    between atoms: C_30  and  N_50
   27  A    between atoms: C_30  and  C_51
   28  A    between atoms: C_38  and  N_45
   29  A    between atoms: N_46  and  C_49
                            x       y       z     vdW  Elec       q    Type
                         _______ _______ _______ _____ _____    ______ ____

>  <TORSDO>
F 29

$$$$
=
 OpenBabel11042415073D

 53 56  0  0  1  0  0  0  0  0999 V2000
  190.6850  171.9500  141.6720 C   0  0  1  0  0  3  0  0  0  0  0  0
  194.5060  169.9550  139.6190 C   0  0  0  0  0  0  0  0  0  0  0  0
  195.3860  169.4260  140.7090 C   0  0  0  0  0  1  0  0  0  0  0  0
  195.0470  170.2300  138.4750 N   0  0  0  0  0  0  0  0  0  0  0  0
  192.5700  170.2740  137.1970 S   0  0  0  0  0  0  0  0  0  0  0  0
  193.0100  169.8870  139.7870 C   0  0  1  0  0  3  0  0  0  0  0  0
  192.4650  170.2400  141.1480 C   0  0  0  0  0  2  0  0  0  0  0  0
  190.9030  170.8460  139.3670 C   0  0  0  0  0  2  0  0  0  0  0  0
  191.0140  170.6590  140.8910 C   0  0  2  0  0  3  0  0  0  0  0  0
  192.3260  170.8530  138.8850 C   0  0  2  0  0  3  0  0  0  0  0  0
  194.3540  170.7260  137.2840 C   0  0  1  0  0  3  0  0  0  0  0  0
  194.5030  172.2410  137.1670 C   0  0  0  0  0  2  0  0  0  0  0  0
  195.8540  172.6480  137.5390 N   0  0  0  0  0  2  0  0  0  0  0  0
  194.4410  174.0110  138.9760 C   0  0  0  0  0  1  0  0  0  0  0  0
  195.7380  173.9460  138.1880 C   0  0  1  0  0  3  0  0  0  0  0  0
  196.9590  174.2050  139.0730 C   0  0  1  0  0  3  0  0  0  0  0  0
  197.6150  175.4470  137.3610 C   0  0  0  0  0  1  0  0  0  0  0  0
  197.5300  175.4420  138.7540 O   0  0  0  0  0  0  0  0  0  0  0  0
  196.5930  174.1760  140.4850 N   0  0  0  0  0  2  0  0  0  0  0  0
  197.1350  175.3810  141.1010 C   0  0  0  0  0  2  0  0  0  0  0  0
  196.6950  175.4710  142.5510 C   0  0  1  0  0  3  0  0  0  0  0  0
  197.4450  174.5820  143.3180 O   0  0  0  0  0  1  0  0  0  0  0  0
  196.8960  176.8800  143.0800 C   0  0  0  0  0  1  0  0  0  0  0  0
  191.8980  172.6110  142.1890 N   0  0  0  0  0  2  0  0  0  0  0  0
  191.8000  172.8830  143.6240 C   0  0  2  0  0  3  0  0  0  0  0  0
  190.7620  172.1340  144.1930 O   0  0  0  0  0  1  0  0  0  0  0  0
  191.5390  174.3550  143.8480 C   0  0  0  0  0  2  0  0  0  0  0  0
  191.0810  174.5420  145.1510 O   0  0  0  0  0  0  0  0  0  0  0  0
  191.5970  175.7770  145.5570 C   0  0  1  0  0  3  0  0  0  0  0  0
  190.0710  177.5080  145.0200 O   0  0  0  0  0  0  0  0  0  0  0  0
  190.4600  176.7050  145.8620 C   0  0  0  0  0  3  0  0  0  0  0  0
  192.4540  175.5860  146.8040 C   0  0  0  0  0  2  0  0  0  0  0  0
  193.7480  176.3800  146.6830 C   0  0  0  0  0  3  0  0  0  0  0  0
  194.8210  175.5000  146.0720 C   0  0  0  0  0  2  0  0  0  0  0  0
  194.0950  176.5180  145.2140 C   0  0  0  0  0  2  0  0  0  0  0  0
  189.8000  172.9450  140.8930 C   0  0  0  0  0  2  0  0  0  0  0  0
  188.3390  172.9360  141.3120 C   0  0  0  0  0  2  0  0  0  0  0  0
  188.0580  174.1630  142.1610 C   0  0  0  0  0  2  0  0  0  0  0  0
  188.6940  175.3840  141.5350 C   0  0  0  0  0  2  0  0  0  0  0  0
  187.7240  176.0310  140.6720 N   0  0  0  0  0  2  0  0  0  0  0  0
  187.7870  177.4550  140.9500 C   0  0  0  0  0  2  0  0  0  0  0  0
  186.4950  177.9650  141.0560 O   0  0  0  0  0  0  0  0  0  0  0  0
  186.4530  178.5780  142.3100 C   0  0  0  0  0  2  0  0  0  0  0  0
  185.9000  176.5350  143.6470 O   0  0  0  0  0  1  0  0  0  0  0  0
  184.7610  178.6360  144.2620 C   0  0  1  0  0  3  0  0  0  0  0  0
  183.7020  178.9780  142.1500 O   0  0  0  0  0  1  0  0  0  0  0  0
  185.5090  177.8090  143.2290 C   0  0  1  0  0  0  0  0  0  0  0  0
  184.0060  177.9950  143.0950 C   0  0  1  0  0  3  0  0  0  0  0  0
  184.5310  177.8940  145.4240 O   0  0  0  0  0  0  0  0  0  0  0  0
  185.1150  178.6380  146.4510 C   0  0  1  0  0  3  0  0  0  0  0  0
  184.3430  178.5350  147.6060 O   0  0  0  0  0  1  0  0  0  0  0  0
  186.9620  178.5630  147.9810 O   0  0  0  0  0  1  0  0  0  0  0  0
  186.5300  178.1460  146.7200 C   0  0  0  0  0  2  0  0  0  0  0  0
  1 36  1  6  0  0  0
  1 24  1  0  0  0  0
  2  6  1  0  0  0  0
  2  3  1  0  0  0  0
  4  2  2  0  0  0  0
  5 11  1  0  0  0  0
  5 10  1  0  0  0  0
  6  7  1  1  0  0  0
  8  9  1  0  0  0  0
  9  7  1  0  0  0  0
  9  1  1  1  0  0  0
 10  8  1  1  0  0  0
 10  6  1  0  0  0  0
 11 12  1  1  0  0  0
 11  4  1  0  0  0  0
 12 13  1  0  0  0  0
 13 15  1  0  0  0  0
 15 14  1  1  0  0  0
 15 16  1  0  0  0  0
 16 18  1  6  0  0  0
 16 19  1  0  0  0  0
 17 18  1  0  0  0  0
 19 20  1  0  0  0  0
 20 21  1  0  0  0  0
 21 23  1  1  0  0  0
 21 22  1  0  0  0  0
 24 25  1  0  0  0  0
 25 27  1  0  0  0  0
 25 26  1  6  0  0  0
 27 28  1  0  0  0  0
 28 29  1  0  0  0  0
 29 31  1  1  0  0  0
 29 32  1  0  0  0  0
 30 31  2  0  0  0  0
 33 32  1  0  0  0  0
 34 33  1  0  0  0  0
 35 34  1  0  0  0  0
 35 33  1  0  0  0  0
 36 37  1  0  0  0  0
 37 38  1  0  0  0  0
 39 38  1  0  0  0  0
 40 41  1  0  0  0  0
 40 39  1  0  0  0  0
 41 42  1  0  0  0  0
 42 43  1  0  0  0  0
 43 47  1  0  0  0  0
 45 49  1  1  0  0  0
 47 44  1  1  0  0  0
 47 45  1  0  0  0  0
 48 46  1  6  0  0  0
 48 47  1  0  0  0  0
 48 45  1  0  0  0  0
 49 50  1  0  0  0  0
 50 53  1  0  0  0  0
 50 51  1  1  0  0  0
 53 52  1  0  0  0  0
M  END
>  <MODEL>
4

>  <REMARK>
 VINA RESULT:      -4.6      3.631      9.103
  Name = 
  29 active torsions:
  status: ('A' for Active; 'I' for Inactive)
    1  A    between atoms: C_3  and  N_46
    2  A    between atoms: C_3  and  C_53
    3  A    between atoms: C_4  and  C_18
    4  A    between atoms: C_4  and  N_32
    5  A    between atoms: C_5  and  C_20
    6  A    between atoms: C_5  and  C_38
    7  A    between atoms: C_8  and  O_19
    8  A    between atoms: C_9  and  C_10
    9  A    between atoms: C_10  and  C_29
   10  A    between atoms: C_13  and  O_19
   11  A    between atoms: C_13  and  C_36
   12  A    between atoms: O_15  and  C_29
   13  A    between atoms: O_15  and  C_51
   14  A    between atoms: C_16  and  C_20
   15  A    between atoms: C_16  and  C_23
   16  A    between atoms: C_21  and  O_34
   17  A    between atoms: C_21  and  N_45
   18  A    between atoms: C_23  and  C_43
   19  A    between atoms: C_23  and  N_50
   20  A    between atoms: C_25  and  N_32
   21  A    between atoms: C_25  and  O_47
   22  A    between atoms: C_25  and  C_49
   23  A    between atoms: C_26  and  O_34
   24  A    between atoms: C_26  and  C_40
   25  A    between atoms: C_29  and  C_41
   26  A    between atoms: C_30  and  N_50
   27  A    between atoms: C_30  and  C_51
   28  A    between atoms: C_38  and  N_45
   29  A    between atoms: N_46  and  C_49
                            x       y       z     vdW  Elec       q    Type
                         _______ _______ _______ _____ _____    ______ ____

>  <TORSDO>
F 29

$$$$
=
 OpenBabel11042415073D

 53 56  0  0  1  0  0  0  0  0999 V2000
  193.3140  176.3100  145.0450 C   0  0  1  0  0  3  0  0  0  0  0  0
  197.1920  174.6730  142.7940 C   0  0  0  0  0  0  0  0  0  0  0  0
  197.5950  175.6950  141.7760 C   0  0  0  0  0  1  0  0  0  0  0  0
  197.5640  173.4460  142.6100 N   0  0  0  0  0  0  0  0  0  0  0  0
  197.0370  172.7790  145.2640 S   0  0  0  0  0  0  0  0  0  0  0  0
  196.6240  175.1340  144.1110 C   0  0  1  0  0  3  0  0  0  0  0  0
  195.6360  176.2730  144.0600 C   0  0  0  0  0  2  0  0  0  0  0  0
  195.1520  174.7420  145.9040 C   0  0  0  0  0  2  0  0  0  0  0  0
  194.8180  176.1380  145.3480 C   0  0  2  0  0  3  0  0  0  0  0  0
  195.8550  174.0460  144.7730 C   0  0  2  0  0  3  0  0  0  0  0  0
  197.2960  172.3150  143.5010 C   0  0  1  0  0  3  0  0  0  0  0  0
  196.0970  171.5110  143.0030 C   0  0  0  0  0  2  0  0  0  0  0  0
  196.5420  170.4040  142.1640 N   0  0  0  0  0  2  0  0  0  0  0  0
  194.4030  171.1040  141.2420 C   0  0  0  0  0  1  0  0  0  0  0  0
  195.7410  170.4500  140.9490 C   0  0  1  0  0  3  0  0  0  0  0  0
  196.5030  171.1780  139.8400 C   0  0  1  0  0  3  0  0  0  0  0  0
  195.9470  169.9850  138.0600 C   0  0  0  0  0  1  0  0  0  0  0  0
  197.0130  170.2550  138.9200 O   0  0  0  0  0  0  0  0  0  0  0  0
  195.6390  172.1350  139.1570 N   0  0  0  0  0  2  0  0  0  0  0  0
  196.3340  173.4170  139.1430 C   0  0  0  0  0  2  0  0  0  0  0  0
  195.3420  174.5470  138.9370 C   0  0  1  0  0  3  0  0  0  0  0  0
  195.6430  175.2160  137.7530 O   0  0  0  0  0  1  0  0  0  0  0  0
  193.9260  174.0040  138.8560 C   0  0  0  0  0  1  0  0  0  0  0  0
  193.0240  176.2240  143.6020 N   0  0  0  0  0  2  0  0  0  0  0  0
  192.4850  174.9140  143.2320 C   0  0  2  0  0  3  0  0  0  0  0  0
  193.3390  174.2710  142.3270 O   0  0  0  0  0  1  0  0  0  0  0  0
  191.1210  175.0830  142.6030 C   0  0  0  0  0  2  0  0  0  0  0  0
  190.9350  174.0860  141.6460 O   0  0  0  0  0  0  0  0  0  0  0  0
  190.4720  172.9700  142.3510 C   0  0  1  0  0  3  0  0  0  0  0  0
  188.1730  173.1460  141.8080 O   0  0  0  0  0  0  0  0  0  0  0  0
  189.0250  173.1720  142.6890 C   0  0  0  0  0  3  0  0  0  0  0  0
  190.6310  171.7220  141.4900 C   0  0  0  0  0  2  0  0  0  0  0  0
  190.9570  172.1090  140.0530 C   0  0  0  0  0  3  0  0  0  0  0  0
  191.2480  170.8570  139.2500 C   0  0  0  0  0  2  0  0  0  0  0  0
  189.8930  171.5290  139.1430 C   0  0  0  0  0  2  0  0  0  0  0  0
  192.3990  175.3660  145.8520 C   0  0  0  0  0  2  0  0  0  0  0  0
  192.2960  175.7120  147.3290 C   0  0  0  0  0  2  0  0  0  0  0  0
  191.0370  176.5270  147.5610 C   0  0  0  0  0  2  0  0  0  0  0  0
  190.0810  176.3470  146.4040 C   0  0  0  0  0  2  0  0  0  0  0  0
  188.7270  176.5800  146.8690 N   0  0  0  0  0  2  0  0  0  0  0  0
  187.8330  176.2160  145.7840 C   0  0  0  0  0  2  0  0  0  0  0  0
  188.1350  176.9780  144.6570 O   0  0  0  0  0  0  0  0  0  0  0  0
  187.5390  176.2980  143.5940 C   0  0  0  0  0  2  0  0  0  0  0  0
  185.4370  176.7750  142.3210 O   0  0  0  0  0  1  0  0  0  0  0  0
  186.6570  178.7040  143.2610 C   0  0  1  0  0  3  0  0  0  0  0  0
  188.6890  178.3230  142.0680 O   0  0  0  0  0  1  0  0  0  0  0  0
  186.6590  177.2550  142.7970 C   0  0  1  0  0  0  0  0  0  0  0  0
  187.3000  178.3230  141.9250 C   0  0  1  0  0  3  0  0  0  0  0  0
  185.4170  179.3020  143.0230 O   0  0  0  0  0  0  0  0  0  0  0  0
  184.9100  179.6020  144.2890 C   0  0  1  0  0  3  0  0  0  0  0  0
  183.8230  178.7770  144.5700 O   0  0  0  0  0  1  0  0  0  0  0  0
  185.4190  179.1490  146.5890 O   0  0  0  0  0  1  0  0  0  0  0  0
  185.9910  179.4220  145.3450 C   0  0  0  0  0  2  0  0  0  0  0  0
  1 36  1  1  0  0  0
  2  6  1  0  0  0  0
  3  2  1  0  0  0  0
  4  2  2  0  0  0  0
  4 11  1  0  0  0  0
  6  7  1  6  0  0  0
  6 10  1  0  0  0  0
  7  9  1  0  0  0  0
  9  1  1  6  0  0  0
  9  8  1  0  0  0  0
 10  5  1  0  0  0  0
 10  8  1  1  0  0  0
 11 12  1  6  0  0  0
 11  5  1  0  0  0  0
 13 12  1  0  0  0  0
 15 14  1  1  0  0  0
 15 13  1  0  0  0  0
 16 18  1  6  0  0  0
 16 15  1  0  0  0  0
 17 18  1  0  0  0  0
 19 16  1  0  0  0  0
 20 19  1  0  0  0  0
 21 23  1  6  0  0  0
 21 20  1  0  0  0  0
 22 21  1  0  0  0  0
 24  1  1  0  0  0  0
 25 26  1  6  0  0  0
 25 24  1  0  0  0  0
 27 25  1  0  0  0  0
 28 29  1  0  0  0  0
 28 27  1  0  0  0  0
 29 32  1  6  0  0  0
 29 31  1  0  0  0  0
 30 31  2  0  0  0  0
 33 32  1  0  0  0  0
 34 33  1  0  0  0  0
 35 34  1  0  0  0  0
 35 33  1  0  0  0  0
 36 37  1  0  0  0  0
 37 38  1  0  0  0  0
 39 40  1  0  0  0  0
 39 38  1  0  0  0  0
 41 40  1  0  0  0  0
 42 41  1  0  0  0  0
 43 42  1  0  0  0  0
 45 49  1  6  0  0  0
 47 44  1  6  0  0  0
 47 45  1  0  0  0  0
 47 43  1  0  0  0  0
 48 46  1  1  0  0  0
 48 47  1  0  0  0  0
 48 45  1  0  0  0  0
 49 50  1  0  0  0  0
 50 51  1  1  0  0  0
 50 53  1  0  0  0  0
 53 52  1  0  0  0  0
M  END
>  <MODEL>
5

>  <REMARK>
 VINA RESULT:      -4.5      2.813      8.747
  Name = 
  29 active torsions:
  status: ('A' for Active; 'I' for Inactive)
    1  A    between atoms: C_3  and  N_46
    2  A    between atoms: C_3  and  C_53
    3  A    between atoms: C_4  and  C_18
    4  A    between atoms: C_4  and  N_32
    5  A    between atoms: C_5  and  C_20
    6  A    between atoms: C_5  and  C_38
    7  A    between atoms: C_8  and  O_19
    8  A    between atoms: C_9  and  C_10
    9  A    between atoms: C_10  and  C_29
   10  A    between atoms: C_13  and  O_19
   11  A    between atoms: C_13  and  C_36
   12  A    between atoms: O_15  and  C_29
   13  A    between atoms: O_15  and  C_51
   14  A    between atoms: C_16  and  C_20
   15  A    between atoms: C_16  and  C_23
   16  A    between atoms: C_21  and  O_34
   17  A    between atoms: C_21  and  N_45
   18  A    between atoms: C_23  and  C_43
   19  A    between atoms: C_23  and  N_50
   20  A    between atoms: C_25  and  N_32
   21  A    between atoms: C_25  and  O_47
   22  A    between atoms: C_25  and  C_49
   23  A    between atoms: C_26  and  O_34
   24  A    between atoms: C_26  and  C_40
   25  A    between atoms: C_29  and  C_41
   26  A    between atoms: C_30  and  N_50
   27  A    between atoms: C_30  and  C_51
   28  A    between atoms: C_38  and  N_45
   29  A    between atoms: N_46  and  C_49
                            x       y       z     vdW  Elec       q    Type
                         _______ _______ _______ _____ _____    ______ ____

>  <TORSDO>
F 29

$$$$
=
 OpenBabel11042415073D

 53 56  0  0  1  0  0  0  0  0999 V2000
  190.0110  174.6550  145.8280 C   0  0  1  0  0  3  0  0  0  0  0  0
  193.9470  175.1990  143.1830 C   0  0  0  0  0  0  0  0  0  0  0  0
  193.5170  175.5240  141.7850 C   0  0  0  0  0  1  0  0  0  0  0  0
  195.1180  174.6740  143.3570 N   0  0  0  0  0  0  0  0  0  0  0  0
  195.1020  175.2830  146.0760 S   0  0  0  0  0  0  0  0  0  0  0  0
  193.1450  175.7370  144.3400 C   0  0  1  0  0  3  0  0  0  0  0  0
  191.6440  175.6850  144.2040 C   0  0  0  0  0  2  0  0  0  0  0  0
  192.3480  175.4380  146.5330 C   0  0  0  0  0  2  0  0  0  0  0  0
  191.1210  175.7110  145.6440 C   0  0  2  0  0  3  0  0  0  0  0  0
  193.4020  174.9540  145.5790 C   0  0  2  0  0  3  0  0  0  0  0  0
  195.7270  174.3150  144.6390 C   0  0  1  0  0  3  0  0  0  0  0  0
  195.5570  172.8240  144.9160 C   0  0  0  0  0  2  0  0  0  0  0  0
  196.0270  172.0400  143.7790 N   0  0  0  0  0  2  0  0  0  0  0  0
  194.1300  170.8980  144.7860 C   0  0  0  0  0  1  0  0  0  0  0  0
  195.2580  170.8040  143.7740 C   0  0  1  0  0  3  0  0  0  0  0  0
  194.7400  170.5100  142.3650 C   0  0  1  0  0  3  0  0  0  0  0  0
  194.0340  172.0360  140.9250 C   0  0  0  0  0  1  0  0  0  0  0  0
  195.1940  171.4860  141.4710 O   0  0  0  0  0  0  0  0  0  0  0  0
  195.1690  169.1880  141.9180 N   0  0  0  0  0  2  0  0  0  0  0  0
  196.4110  169.3620  141.1750 C   0  0  0  0  0  2  0  0  0  0  0  0
  196.3480  168.5980  139.8650 C   0  0  1  0  0  3  0  0  0  0  0  0
  195.6600  169.3560  138.9200 O   0  0  0  0  0  1  0  0  0  0  0  0
  197.7470  168.3090  139.3500 C   0  0  0  0  0  1  0  0  0  0  0  0
  188.8000  175.2230  146.4490 N   0  0  0  0  0  2  0  0  0  0  0  0
  188.5490  176.5930  145.9980 C   0  0  2  0  0  3  0  0  0  0  0  0
  188.5510  177.4750  147.0860 O   0  0  0  0  0  1  0  0  0  0  0  0
  187.2100  176.6620  145.2980 C   0  0  0  0  0  2  0  0  0  0  0  0
  187.3660  176.2400  143.9780 O   0  0  0  0  0  0  0  0  0  0  0  0
  187.0980  177.3650  143.1900 C   0  0  1  0  0  3  0  0  0  0  0  0
  188.7780  178.4120  141.8910 O   0  0  0  0  0  0  0  0  0  0  0  0
  188.0850  177.4170  142.0630 C   0  0  0  0  0  3  0  0  0  0  0  0
  185.6820  177.2700  142.6330 C   0  0  0  0  0  2  0  0  0  0  0  0
  185.0160  178.6400  142.6450 C   0  0  0  0  0  3  0  0  0  0  0  0
  184.2390  178.8080  143.9350 C   0  0  0  0  0  2  0  0  0  0  0  0
  185.6030  179.4520  143.7820 C   0  0  0  0  0  2  0  0  0  0  0  0
  189.6620  173.8810  144.5390 C   0  0  0  0  0  2  0  0  0  0  0  0
  190.0230  172.4050  144.5830 C   0  0  0  0  0  2  0  0  0  0  0  0
  190.9580  172.0880  143.4310 C   0  0  0  0  0  2  0  0  0  0  0  0
  190.2470  171.2370  142.4030 C   0  0  0  0  0  2  0  0  0  0  0  0
  191.1250  170.1560  141.9970 N   0  0  0  0  0  2  0  0  0  0  0  0
  190.7370  169.7730  140.6510 C   0  0  0  0  0  2  0  0  0  0  0  0
  191.0640  170.7970  139.7640 O   0  0  0  0  0  0  0  0  0  0  0  0
  189.9910  170.8540  138.8720 C   0  0  0  0  0  2  0  0  0  0  0  0
  189.6290  173.3300  138.8340 O   0  0  0  0  0  1  0  0  0  0  0  0
  191.1370  172.3790  137.1280 C   0  0  1  0  0  3  0  0  0  0  0  0
  189.5140  170.9410  136.1300 O   0  0  0  0  0  1  0  0  0  0  0  0
  190.0090  172.1870  138.1300 C   0  0  1  0  0  0  0  0  0  0  0  0
  189.6930  172.2270  136.6420 C   0  0  1  0  0  3  0  0  0  0  0  0
  191.5110  173.7230  137.0510 O   0  0  0  0  0  0  0  0  0  0  0  0
  192.9080  173.7120  137.0720 C   0  0  1  0  0  3  0  0  0  0  0  0
  193.4000  173.9490  135.7900 O   0  0  0  0  0  1  0  0  0  0  0  0
  194.6240  175.3140  137.5660 O   0  0  0  0  0  1  0  0  0  0  0  0
  193.4280  174.7670  138.0370 C   0  0  0  0  0  2  0  0  0  0  0  0
  1 36  1  6  0  0  0
  1 24  1  0  0  0  0
  2  4  2  0  0  0  0
  2  6  1  0  0  0  0
  3  2  1  0  0  0  0
  4 11  1  0  0  0  0
  6  7  1  6  0  0  0
  6 10  1  0  0  0  0
  7  9  1  0  0  0  0
  9  1  1  6  0  0  0
  9  8  1  0  0  0  0
 10  5  1  0  0  0  0
 10  8  1  1  0  0  0
 11 12  1  1  0  0  0
 11  5  1  0  0  0  0
 13 12  1  0  0  0  0
 15 13  1  0  0  0  0
 15 14  1  1  0  0  0
 16 18  1  6  0  0  0
 16 15  1  0  0  0  0
 17 18  1  0  0  0  0
 19 16  1  0  0  0  0
 20 19  1  0  0  0  0
 21 23  1  6  0  0  0
 21 20  1  0  0  0  0
 22 21  1  0  0  0  0
 25 24  1  0  0  0  0
 25 26  1  1  0  0  0
 27 25  1  0  0  0  0
 28 27  1  0  0  0  0
 29 31  1  6  0  0  0
 29 28  1  0  0  0  0
 30 31  2  0  0  0  0
 32 33  1  0  0  0  0
 32 29  1  0  0  0  0
 33 35  1  0  0  0  0
 33 34  1  0  0  0  0
 35 34  1  0  0  0  0
 36 37  1  0  0  0  0
 38 37  1  0  0  0  0
 39 38  1  0  0  0  0
 40 39  1  0  0  0  0
 41 40  1  0  0  0  0
 42 41  1  0  0  0  0
 43 42  1  0  0  0  0
 45 49  1  1  0  0  0
 45 47  1  0  0  0  0
 47 44  1  1  0  0  0
 47 43  1  0  0  0  0
 48 46  1  6  0  0  0
 48 45  1  0  0  0  0
 48 47  1  0  0  0  0
 49 50  1  0  0  0  0
 50 51  1  6  0  0  0
 50 53  1  0  0  0  0
 52 53  1  0  0  0  0
M  END
>  <MODEL>
6

>  <REMARK>
 VINA RESULT:      -4.5      2.533      9.040
  Name = 
  29 active torsions:
  status: ('A' for Active; 'I' for Inactive)
    1  A    between atoms: C_3  and  N_46
    2  A    between atoms: C_3  and  C_53
    3  A    between atoms: C_4  and  C_18
    4  A    between atoms: C_4  and  N_32
    5  A    between atoms: C_5  and  C_20
    6  A    between atoms: C_5  and  C_38
    7  A    between atoms: C_8  and  O_19
    8  A    between atoms: C_9  and  C_10
    9  A    between atoms: C_10  and  C_29
   10  A    between atoms: C_13  and  O_19
   11  A    between atoms: C_13  and  C_36
   12  A    between atoms: O_15  and  C_29
   13  A    between atoms: O_15  and  C_51
   14  A    between atoms: C_16  and  C_20
   15  A    between atoms: C_16  and  C_23
   16  A    between atoms: C_21  and  O_34
   17  A    between atoms: C_21  and  N_45
   18  A    between atoms: C_23  and  C_43
   19  A    between atoms: C_23  and  N_50
   20  A    between atoms: C_25  and  N_32
   21  A    between atoms: C_25  and  O_47
   22  A    between atoms: C_25  and  C_49
   23  A    between atoms: C_26  and  O_34
   24  A    between atoms: C_26  and  C_40
   25  A    between atoms: C_29  and  C_41
   26  A    between atoms: C_30  and  N_50
   27  A    between atoms: C_30  and  C_51
   28  A    between atoms: C_38  and  N_45
   29  A    between atoms: N_46  and  C_49
                            x       y       z     vdW  Elec       q    Type
                         _______ _______ _______ _____ _____    ______ ____

>  <TORSDO>
F 29

$$$$
=
 OpenBabel11042415073D

 53 56  0  0  1  0  0  0  0  0999 V2000
  191.6880  172.8560  142.7430 C   0  0  1  0  0  3  0  0  0  0  0  0
  193.7260  169.4030  140.1530 C   0  0  0  0  0  0  0  0  0  0  0  0
  195.1490  169.2760  140.6010 C   0  0  0  0  0  1  0  0  0  0  0  0
  193.4200  168.9970  138.9610 N   0  0  0  0  0  0  0  0  0  0  0  0
  190.7000  168.9450  139.5640 S   0  0  0  0  0  0  0  0  0  0  0  0
  192.6630  169.7280  141.1700 C   0  0  1  0  0  3  0  0  0  0  0  0
  193.0080  170.7770  142.1970 C   0  0  0  0  0  2  0  0  0  0  0  0
  190.6220  170.7880  141.6650 C   0  0  0  0  0  2  0  0  0  0  0  0
  191.6560  171.3150  142.6760 C   0  0  2  0  0  3  0  0  0  0  0  0
  191.4460  170.2800  140.5160 C   0  0  2  0  0  3  0  0  0  0  0  0
  192.0870  169.0110  138.3550 C   0  0  1  0  0  3  0  0  0  0  0  0
  191.9200  170.2310  137.4520 C   0  0  0  0  0  2  0  0  0  0  0  0
  190.5210  170.3910  137.0700 N   0  0  0  0  0  2  0  0  0  0  0  0
  190.0920  171.3960  134.8970 C   0  0  0  0  0  1  0  0  0  0  0  0
  190.4230  171.6560  136.3570 C   0  0  1  0  0  3  0  0  0  0  0  0
  189.3870  172.5620  137.0260 C   0  0  1  0  0  3  0  0  0  0  0  0
  188.2220  173.0410  138.8470 C   0  0  0  0  0  1  0  0  0  0  0  0
  189.1090  172.1020  138.3180 O   0  0  0  0  0  0  0  0  0  0  0  0
  189.8590  173.9410  137.0790 N   0  0  0  0  0  2  0  0  0  0  0  0
  191.3120  173.8990  137.1970 C   0  0  0  0  0  2  0  0  0  0  0  0
  191.9400  174.9410  136.2900 C   0  0  1  0  0  3  0  0  0  0  0  0
  192.9580  174.3510  135.5440 O   0  0  0  0  0  1  0  0  0  0  0  0
  190.9010  175.5200  135.3460 C   0  0  0  0  0  1  0  0  0  0  0  0
  193.0490  173.3930  142.5620 N   0  0  0  0  0  2  0  0  0  0  0  0
  193.0300  174.7790  142.0910 C   0  0  2  0  0  3  0  0  0  0  0  0
  193.8120  174.9140  140.9370 O   0  0  0  0  0  1  0  0  0  0  0  0
  193.5650  175.6920  143.1700 C   0  0  0  0  0  2  0  0  0  0  0  0
  193.8260  174.9390  144.3140 O   0  0  0  0  0  0  0  0  0  0  0  0
  194.7280  175.6980  145.0670 C   0  0  1  0  0  3  0  0  0  0  0  0
  193.1260  175.6100  146.8090 O   0  0  0  0  0  0  0  0  0  0  0  0
  194.0200  176.2500  146.2670 C   0  0  0  0  0  3  0  0  0  0  0  0
  195.8880  174.8150  145.5140 C   0  0  0  0  0  2  0  0  0  0  0  0
  195.6040  173.3570  145.1730 C   0  0  0  0  0  3  0  0  0  0  0  0
  196.8130  172.7610  144.4790 C   0  0  0  0  0  2  0  0  0  0  0  0
  196.5680  172.4830  145.9490 C   0  0  0  0  0  2  0  0  0  0  0  0
  190.6880  173.5460  141.7910 C   0  0  0  0  0  2  0  0  0  0  0  0
  189.4440  174.0840  142.4790 C   0  0  0  0  0  2  0  0  0  0  0  0
  189.8440  175.2030  143.4220 C   0  0  0  0  0  2  0  0  0  0  0  0
  189.3340  174.9160  144.8160 C   0  0  0  0  0  2  0  0  0  0  0  0
  189.8710  175.9060  145.7300 N   0  0  0  0  0  2  0  0  0  0  0  0
  188.7610  176.4050  146.5220 C   0  0  0  0  0  2  0  0  0  0  0  0
  188.3500  177.6380  146.0210 O   0  0  0  0  0  0  0  0  0  0  0  0
  187.1290  177.8910  146.6500 C   0  0  0  0  0  2  0  0  0  0  0  0
  186.0950  179.5420  145.0780 O   0  0  0  0  0  1  0  0  0  0  0  0
  185.7030  177.1470  144.6280 C   0  0  1  0  0  3  0  0  0  0  0  0
  184.6270  176.6720  146.7040 O   0  0  0  0  0  1  0  0  0  0  0  0
  186.0760  178.2500  145.6070 C   0  0  1  0  0  0  0  0  0  0  0  0
  184.6950  177.6170  145.6790 C   0  0  1  0  0  3  0  0  0  0  0  0
  185.3570  177.6820  143.3840 O   0  0  0  0  0  0  0  0  0  0  0  0
  186.4440  177.4000  142.5530 C   0  0  1  0  0  3  0  0  0  0  0  0
  186.6000  176.0200  142.4340 O   0  0  0  0  0  1  0  0  0  0  0  0
  186.5510  177.1100  140.1740 O   0  0  0  0  0  1  0  0  0  0  0  0
  186.2330  178.0230  141.1810 C   0  0  0  0  0  2  0  0  0  0  0  0
  1 36  1  6  0  0  0
  2  3  1  0  0  0  0
  2  6  1  0  0  0  0
  4  2  2  0  0  0  0
  5 10  1  0  0  0  0
  6  7  1  1  0  0  0
  7  9  1  0  0  0  0
  8  9  1  0  0  0  0
  9  1  1  6  0  0  0
 10  6  1  0  0  0  0
 10  8  1  1  0  0  0
 11 12  1  1  0  0  0
 11  4  1  0  0  0  0
 11  5  1  0  0  0  0
 13 12  1  0  0  0  0
 15 14  1  6  0  0  0
 15 16  1  0  0  0  0
 15 13  1  0  0  0  0
 16 19  1  1  0  0  0
 16 18  1  0  0  0  0
 18 17  1  0  0  0  0
 19 20  1  0  0  0  0
 21 23  1  6  0  0  0
 21 20  1  0  0  0  0
 22 21  1  0  0  0  0
 24  1  1  0  0  0  0
 25 26  1  6  0  0  0
 25 24  1  0  0  0  0
 25 27  1  0  0  0  0
 27 28  1  0  0  0  0
 28 29  1  0  0  0  0
 29 32  1  1  0  0  0
 29 31  1  0  0  0  0
 31 30  2  0  0  0  0
 33 32  1  0  0  0  0
 33 35  1  0  0  0  0
 34 33  1  0  0  0  0
 34 35  1  0  0  0  0
 36 37  1  0  0  0  0
 37 38  1  0  0  0  0
 38 39  1  0  0  0  0
 39 40  1  0  0  0  0
 40 41  1  0  0  0  0
 42 41  1  0  0  0  0
 42 43  1  0  0  0  0
 45 49  1  6  0  0  0
 45 47  1  0  0  0  0
 45 48  1  0  0  0  0
 47 44  1  6  0  0  0
 47 48  1  0  0  0  0
 47 43  1  0  0  0  0
 48 46  1  1  0  0  0
 50 51  1  6  0  0  0
 50 49  1  0  0  0  0
 52 53  1  0  0  0  0
 53 50  1  0  0  0  0
M  END
>  <MODEL>
7

>  <REMARK>
 VINA RESULT:      -4.4      3.119      8.154
  Name = 
  29 active torsions:
  status: ('A' for Active; 'I' for Inactive)
    1  A    between atoms: C_3  and  N_46
    2  A    between atoms: C_3  and  C_53
    3  A    between atoms: C_4  and  C_18
    4  A    between atoms: C_4  and  N_32
    5  A    between atoms: C_5  and  C_20
    6  A    between atoms: C_5  and  C_38
    7  A    between atoms: C_8  and  O_19
    8  A    between atoms: C_9  and  C_10
    9  A    between atoms: C_10  and  C_29
   10  A    between atoms: C_13  and  O_19
   11  A    between atoms: C_13  and  C_36
   12  A    between atoms: O_15  and  C_29
   13  A    between atoms: O_15  and  C_51
   14  A    between atoms: C_16  and  C_20
   15  A    between atoms: C_16  and  C_23
   16  A    between atoms: C_21  and  O_34
   17  A    between atoms: C_21  and  N_45
   18  A    between atoms: C_23  and  C_43
   19  A    between atoms: C_23  and  N_50
   20  A    between atoms: C_25  and  N_32
   21  A    between atoms: C_25  and  O_47
   22  A    between atoms: C_25  and  C_49
   23  A    between atoms: C_26  and  O_34
   24  A    between atoms: C_26  and  C_40
   25  A    between atoms: C_29  and  C_41
   26  A    between atoms: C_30  and  N_50
   27  A    between atoms: C_30  and  C_51
   28  A    between atoms: C_38  and  N_45
   29  A    between atoms: N_46  and  C_49
                            x       y       z     vdW  Elec       q    Type
                         _______ _______ _______ _____ _____    ______ ____

>  <TORSDO>
F 29

$$$$
=
 OpenBabel11042415073D

 53 56  0  0  1  0  0  0  0  0999 V2000
  190.8660  176.5020  145.3560 C   0  0  1  0  0  3  0  0  0  0  0  0
  190.1370  172.5790  142.7350 C   0  0  0  0  0  0  0  0  0  0  0  0
  188.9320  171.8800  143.2840 C   0  0  0  0  0  1  0  0  0  0  0  0
  190.9990  171.8800  142.0670 N   0  0  0  0  0  0  0  0  0  0  0  0
  192.1570  174.1650  140.9680 S   0  0  0  0  0  0  0  0  0  0  0  0
  190.1730  174.0850  142.7310 C   0  0  1  0  0  3  0  0  0  0  0  0
  189.6560  174.7780  143.9670 C   0  0  0  0  0  2  0  0  0  0  0  0
  191.4430  176.0590  142.8970 C   0  0  0  0  0  2  0  0  0  0  0  0
  190.3260  176.1550  143.9520 C   0  0  2  0  0  3  0  0  0  0  0  0
  191.5690  174.5880  142.6180 C   0  0  2  0  0  3  0  0  0  0  0  0
  192.2180  172.3830  141.4300 C   0  0  1  0  0  3  0  0  0  0  0  0
  193.4330  172.1280  142.3190 C   0  0  0  0  0  2  0  0  0  0  0  0
  194.1330  170.9230  141.8870 N   0  0  0  0  0  2  0  0  0  0  0  0
  196.5310  170.9040  141.4840 C   0  0  0  0  0  1  0  0  0  0  0  0
  195.1750  171.3490  140.9650 C   0  0  1  0  0  3  0  0  0  0  0  0
  194.8930  170.8080  139.5620 C   0  0  1  0  0  3  0  0  0  0  0  0
  193.9780  169.2010  138.3450 C   0  0  0  0  0  1  0  0  0  0  0  0
  193.9830  169.7470  139.6290 O   0  0  0  0  0  0  0  0  0  0  0  0
  194.3690  171.8580  138.6950 N   0  0  0  0  0  2  0  0  0  0  0  0
  195.4140  172.8640  138.5500 C   0  0  0  0  0  2  0  0  0  0  0  0
  195.9550  172.8550  137.1320 C   0  0  1  0  0  3  0  0  0  0  0  0
  196.0500  174.1640  136.6640 O   0  0  0  0  0  1  0  0  0  0  0  0
  197.3300  172.2110  137.0910 C   0  0  0  0  0  1  0  0  0  0  0  0
  192.3140  176.7800  145.3420 N   0  0  0  0  0  2  0  0  0  0  0  0
  193.0370  175.9510  146.3080 C   0  0  2  0  0  3  0  0  0  0  0  0
  193.6900  176.7560  147.2500 O   0  0  0  0  0  1  0  0  0  0  0  0
  194.0530  175.0950  145.5870 C   0  0  0  0  0  2  0  0  0  0  0  0
  195.3100  175.3080  146.1530 O   0  0  0  0  0  0  0  0  0  0  0  0
  196.2330  174.9790  145.1550 C   0  0  1  0  0  3  0  0  0  0  0  0
  196.5170  172.8330  146.1160 O   0  0  0  0  0  0  0  0  0  0  0  0
  197.0550  173.8130  145.6160 C   0  0  0  0  0  3  0  0  0  0  0  0
  195.4890  174.6120  143.8750 C   0  0  0  0  0  2  0  0  0  0  0  0
  196.3560  174.9060  142.6570 C   0  0  0  0  0  3  0  0  0  0  0  0
  195.5350  175.6570  141.6280 C   0  0  0  0  0  2  0  0  0  0  0  0
  196.5040  176.4070  142.5200 C   0  0  0  0  0  2  0  0  0  0  0  0
  190.0910  177.6310  146.0660 C   0  0  0  0  0  2  0  0  0  0  0  0
  188.9050  177.1510  146.8860 C   0  0  0  0  0  2  0  0  0  0  0  0
  188.3930  178.2980  147.7380 C   0  0  0  0  0  2  0  0  0  0  0  0
  186.9000  178.1720  147.9370 C   0  0  0  0  0  2  0  0  0  0  0  0
  186.4820  176.8390  147.5490 N   0  0  0  0  0  2  0  0  0  0  0  0
  185.1680  176.9610  146.9440 C   0  0  0  0  0  2  0  0  0  0  0  0
  185.2340  176.5760  145.6060 O   0  0  0  0  0  0  0  0  0  0  0  0
  184.7490  177.6740  144.8930 C   0  0  0  0  0  2  0  0  0  0  0  0
  187.1170  177.6540  144.0830 O   0  0  0  0  0  1  0  0  0  0  0  0
  185.4610  178.8680  142.7150 C   0  0  1  0  0  3  0  0  0  0  0  0
  184.8150  180.4160  144.4130 O   0  0  0  0  0  1  0  0  0  0  0  0
  185.8710  178.2820  144.0570 C   0  0  1  0  0  0  0  0  0  0  0  0
  185.9260  179.7870  143.8470 C   0  0  1  0  0  3  0  0  0  0  0  0
  186.4890  178.7330  141.7780 O   0  0  0  0  0  0  0  0  0  0  0  0
  185.8840  178.1640  140.6550 C   0  0  1  0  0  3  0  0  0  0  0  0
  186.2560  176.8250  140.5460 O   0  0  0  0  0  1  0  0  0  0  0  0
  183.7520  177.5150  139.7650 O   0  0  0  0  0  1  0  0  0  0  0  0
  184.3700  178.2800  140.7570 C   0  0  0  0  0  2  0  0  0  0  0  0
  1 36  1  6  0  0  0
  2  3  1  0  0  0  0
  4  2  2  0  0  0  0
  5 11  1  0  0  0  0
  5 10  1  0  0  0  0
  6  2  1  0  0  0  0
  6  7  1  1  0  0  0
  8  9  1  0  0  0  0
  9  7  1  0  0  0  0
  9  1  1  1  0  0  0
 10  6  1  0  0  0  0
 10  8  1  6  0  0  0
 11  4  1  0  0  0  0
 11 12  1  1  0  0  0
 13 12  1  0  0  0  0
 15 14  1  1  0  0  0
 15 13  1  0  0  0  0
 16 19  1  6  0  0  0
 16 18  1  0  0  0  0
 16 15  1  0  0  0  0
 17 18  1  0  0  0  0
 20 19  1  0  0  0  0
 21 23  1  1  0  0  0
 21 20  1  0  0  0  0
 22 21  1  0  0  0  0
 24  1  1  0  0  0  0
 24 25  1  0  0  0  0
 25 26  1  1  0  0  0
 27 28  1  0  0  0  0
 27 25  1  0  0  0  0
 29 32  1  6  0  0  0
 29 31  1  0  0  0  0
 29 28  1  0  0  0  0
 31 30  2  0  0  0  0
 33 32  1  0  0  0  0
 34 35  1  0  0  0  0
 34 33  1  0  0  0  0
 35 33  1  0  0  0  0
 36 37  1  0  0  0  0
 37 38  1  0  0  0  0
 38 39  1  0  0  0  0
 40 39  1  0  0  0  0
 41 40  1  0  0  0  0
 42 41  1  0  0  0  0
 43 42  1  0  0  0  0
 45 49  1  6  0  0  0
 45 48  1  0  0  0  0
 45 47  1  0  0  0  0
 47 44  1  1  0  0  0
 47 43  1  0  0  0  0
 48 47  1  0  0  0  0
 48 46  1  1  0  0  0
 50 51  1  1  0  0  0
 50 53  1  0  0  0  0
 50 49  1  0  0  0  0
 52 53  1  0  0  0  0
M  END
>  <MODEL>
8

>  <REMARK>
 VINA RESULT:      -4.3      3.137      8.611
  Name = 
  29 active torsions:
  status: ('A' for Active; 'I' for Inactive)
    1  A    between atoms: C_3  and  N_46
    2  A    between atoms: C_3  and  C_53
    3  A    between atoms: C_4  and  C_18
    4  A    between atoms: C_4  and  N_32
    5  A    between atoms: C_5  and  C_20
    6  A    between atoms: C_5  and  C_38
    7  A    between atoms: C_8  and  O_19
    8  A    between atoms: C_9  and  C_10
    9  A    between atoms: C_10  and  C_29
   10  A    between atoms: C_13  and  O_19
   11  A    between atoms: C_13  and  C_36
   12  A    between atoms: O_15  and  C_29
   13  A    between atoms: O_15  and  C_51
   14  A    between atoms: C_16  and  C_20
   15  A    between atoms: C_16  and  C_23
   16  A    between atoms: C_21  and  O_34
   17  A    between atoms: C_21  and  N_45
   18  A    between atoms: C_23  and  C_43
   19  A    between atoms: C_23  and  N_50
   20  A    between atoms: C_25  and  N_32
   21  A    between atoms: C_25  and  O_47
   22  A    between atoms: C_25  and  C_49
   23  A    between atoms: C_26  and  O_34
   24  A    between atoms: C_26  and  C_40
   25  A    between atoms: C_29  and  C_41
   26  A    between atoms: C_30  and  N_50
   27  A    between atoms: C_30  and  C_51
   28  A    between atoms: C_38  and  N_45
   29  A    between atoms: N_46  and  C_49
                            x       y       z     vdW  Elec       q    Type
                         _______ _______ _______ _____ _____    ______ ____

>  <TORSDO>
F 29

$$$$
=
 OpenBabel11042415073D

 53 56  0  0  1  0  0  0  0  0999 V2000
  195.0290  172.7930  143.5010 C   0  0  1  0  0  3  0  0  0  0  0  0
  190.9600  171.6410  141.2880 C   0  0  0  0  0  0  0  0  0  0  0  0
  191.3160  170.9560  140.0050 C   0  0  0  0  0  1  0  0  0  0  0  0
  189.8000  172.2120  141.3760 N   0  0  0  0  0  0  0  0  0  0  0  0
  189.9560  172.3340  144.1560 S   0  0  0  0  0  0  0  0  0  0  0  0
  191.8180  171.4110  142.5050 C   0  0  1  0  0  3  0  0  0  0  0  0
  193.3110  171.4010  142.2870 C   0  0  0  0  0  2  0  0  0  0  0  0
  192.7290  172.2590  144.5010 C   0  0  0  0  0  2  0  0  0  0  0  0
  193.9080  171.7430  143.6560 C   0  0  2  0  0  3  0  0  0  0  0  0
  191.6280  172.4950  143.5070 C   0  0  2  0  0  3  0  0  0  0  0  0
  189.2600  172.9030  142.5490 C   0  0  1  0  0  3  0  0  0  0  0  0
  189.4490  174.4130  142.4170 C   0  0  0  0  0  2  0  0  0  0  0  0
  188.3830  175.1200  143.1180 N   0  0  0  0  0  2  0  0  0  0  0  0
  187.6960  175.9240  140.9280 C   0  0  0  0  0  1  0  0  0  0  0  0
  188.0900  176.3160  142.3410 C   0  0  1  0  0  3  0  0  0  0  0  0
  187.0020  177.1410  143.0310 C   0  0  1  0  0  3  0  0  0  0  0  0
  186.0190  179.0380  142.4500 C   0  0  0  0  0  1  0  0  0  0  0  0
  186.1440  177.6990  142.0770 O   0  0  0  0  0  0  0  0  0  0  0  0
  186.2400  176.3200  143.9650 N   0  0  0  0  0  2  0  0  0  0  0  0
  185.9020  177.1600  145.1080 C   0  0  0  0  0  2  0  0  0  0  0  0
  186.7720  176.7990  146.2980 C   0  0  1  0  0  3  0  0  0  0  0  0
  187.9810  177.4870  146.2120 O   0  0  0  0  0  1  0  0  0  0  0  0
  186.0780  177.1690  147.5960 C   0  0  0  0  0  1  0  0  0  0  0  0
  195.3550  173.4490  144.7800 N   0  0  0  0  0  2  0  0  0  0  0  0
  195.1920  174.9020  144.7040 C   0  0  2  0  0  3  0  0  0  0  0  0
  196.4320  175.5250  144.5140 O   0  0  0  0  0  1  0  0  0  0  0  0
  194.5620  175.4130  145.9800 C   0  0  0  0  0  2  0  0  0  0  0  0
  193.5940  176.3640  145.6600 O   0  0  0  0  0  0  0  0  0  0  0  0
  192.3630  175.7310  145.8650 C   0  0  1  0  0  3  0  0  0  0  0  0
  190.8590  175.9850  147.6770 O   0  0  0  0  0  0  0  0  0  0  0  0
  192.0170  175.7980  147.3220 C   0  0  0  0  0  3  0  0  0  0  0  0
  191.2870  176.4340  145.0460 C   0  0  0  0  0  2  0  0  0  0  0  0
  191.8950  177.5780  144.2440 C   0  0  0  0  0  3  0  0  0  0  0  0
  191.6560  177.3360  142.7670 C   0  0  0  0  0  2  0  0  0  0  0  0
  190.7800  178.3120  143.5270 C   0  0  0  0  0  2  0  0  0  0  0  0
  196.3010  172.2550  142.8130 C   0  0  0  0  0  2  0  0  0  0  0  0
  196.8040  173.1220  141.6710 C   0  0  0  0  0  2  0  0  0  0  0  0
  196.9600  172.2650  140.4280 C   0  0  0  0  0  2  0  0  0  0  0  0
  197.5490  173.0840  139.3020 C   0  0  0  0  0  2  0  0  0  0  0  0
  196.4780  173.7800  138.6140 N   0  0  0  0  0  2  0  0  0  0  0  0
  197.0970  174.7450  137.7230 C   0  0  0  0  0  2  0  0  0  0  0  0
  196.3030  174.9100  136.5910 O   0  0  0  0  0  0  0  0  0  0  0  0
  195.0080  175.0810  137.0840 C   0  0  0  0  0  2  0  0  0  0  0  0
  194.3940  173.6390  135.1320 O   0  0  0  0  0  1  0  0  0  0  0  0
  192.5490  174.5290  136.5080 C   0  0  1  0  0  3  0  0  0  0  0  0
  193.0560  176.8340  136.1510 O   0  0  0  0  0  1  0  0  0  0  0  0
  193.9940  174.6200  136.0410 C   0  0  1  0  0  0  0  0  0  0  0  0
  192.9670  175.6020  135.4990 C   0  0  1  0  0  3  0  0  0  0  0  0
  191.8730  173.5050  135.8400 O   0  0  0  0  0  0  0  0  0  0  0  0
  190.9450  173.0200  136.7640 C   0  0  1  0  0  3  0  0  0  0  0  0
  190.9400  173.8310  137.8970 O   0  0  0  0  0  1  0  0  0  0  0  0
  189.1240  174.2690  135.8240 O   0  0  0  0  0  1  0  0  0  0  0  0
  189.5560  172.9800  136.1430 C   0  0  0  0  0  2  0  0  0  0  0  0
  1 36  1  1  0  0  0
  1 24  1  0  0  0  0
  2  4  2  0  0  0  0
  2  6  1  0  0  0  0
  3  2  1  0  0  0  0
  4 11  1  0  0  0  0
  6  7  1  6  0  0  0
  6 10  1  0  0  0  0
  7  9  1  0  0  0  0
  9  1  1  6  0  0  0
  9  8  1  0  0  0  0
 10  5  1  0  0  0  0
 10  8  1  1  0  0  0
 11 12  1  6  0  0  0
 11  5  1  0  0  0  0
 12 13  1  0  0  0  0
 15 14  1  6  0  0  0
 15 16  1  0  0  0  0
 15 13  1  0  0  0  0
 16 18  1  6  0  0  0
 16 19  1  0  0  0  0
 18 17  1  0  0  0  0
 19 20  1  0  0  0  0
 20 21  1  0  0  0  0
 21 23  1  1  0  0  0
 22 21  1  0  0  0  0
 25 26  1  1  0  0  0
 25 24  1  0  0  0  0
 25 27  1  0  0  0  0
 28 29  1  0  0  0  0
 28 27  1  0  0  0  0
 29 32  1  6  0  0  0
 29 31  1  0  0  0  0
 31 30  2  0  0  0  0
 33 32  1  0  0  0  0
 34 35  1  0  0  0  0
 34 33  1  0  0  0  0
 35 33  1  0  0  0  0
 37 36  1  0  0  0  0
 38 37  1  0  0  0  0
 39 38  1  0  0  0  0
 40 39  1  0  0  0  0
 41 40  1  0  0  0  0
 42 43  1  0  0  0  0
 42 41  1  0  0  0  0
 45 49  1  6  0  0  0
 47 44  1  6  0  0  0
 47 45  1  0  0  0  0
 47 43  1  0  0  0  0
 48 47  1  0  0  0  0
 48 46  1  1  0  0  0
 48 45  1  0  0  0  0
 49 50  1  0  0  0  0
 50 51  1  1  0  0  0
 52 53  1  0  0  0  0
 53 50  1  0  0  0  0
M  END
>  <MODEL>
9

>  <REMARK>
 VINA RESULT:      -4.2      2.751      5.046
  Name = 
  29 active torsions:
  status: ('A' for Active; 'I' for Inactive)
    1  A    between atoms: C_3  and  N_46
    2  A    between atoms: C_3  and  C_53
    3  A    between atoms: C_4  and  C_18
    4  A    between atoms: C_4  and  N_32
    5  A    between atoms: C_5  and  C_20
    6  A    between atoms: C_5  and  C_38
    7  A    between atoms: C_8  and  O_19
    8  A    between atoms: C_9  and  C_10
    9  A    between atoms: C_10  and  C_29
   10  A    between atoms: C_13  and  O_19
   11  A    between atoms: C_13  and  C_36
   12  A    between atoms: O_15  and  C_29
   13  A    between atoms: O_15  and  C_51
   14  A    between atoms: C_16  and  C_20
   15  A    between atoms: C_16  and  C_23
   16  A    between atoms: C_21  and  O_34
   17  A    between atoms: C_21  and  N_45
   18  A    between atoms: C_23  and  C_43
   19  A    between atoms: C_23  and  N_50
   20  A    between atoms: C_25  and  N_32
   21  A    between atoms: C_25  and  O_47
   22  A    between atoms: C_25  and  C_49
   23  A    between atoms: C_26  and  O_34
   24  A    between atoms: C_26  and  C_40
   25  A    between atoms: C_29  and  C_41
   26  A    between atoms: C_30  and  N_50
   27  A    between atoms: C_30  and  C_51
   28  A    between atoms: C_38  and  N_45
   29  A    between atoms: N_46  and  C_49
                            x       y       z     vdW  Elec       q    Type
                         _______ _______ _______ _____ _____    ______ ____

>  <TORSDO>
F 29

$$$$
