=
 OpenBabel11042415143D

 45 51  0  0  1  0  0  0  0  0999 V2000
  192.7600  176.0730  143.5700 C   0  0  0  0  0  0  0  0  0  0  0  0
  193.3550  175.0160  141.7800 C   0  0  0  0  0  0  0  0  0  0  0  0
  193.9270  174.3130  142.7030 N   0  0  0  0  0  0  0  0  0  0  0  0
  193.6110  174.9220  143.9890 C   0  0  1  0  0  3  0  0  0  0  0  0
  192.6250  176.1240  142.2880 N   0  0  0  0  0  0  0  0  0  0  0  0
  193.8190  174.0280  137.6560 N   0  0  0  0  0  0  0  0  0  0  0  0
  194.7070  174.8480  138.2720 C   0  0  0  0  0  3  0  0  0  0  0  0
  192.7510  173.5150  138.3190 C   0  0  0  0  0  3  0  0  0  0  0  0
  194.5400  175.1730  139.6160 C   0  0  0  0  0  3  0  0  0  0  0  0
  193.4510  174.6650  140.3390 C   0  0  0  0  0  0  0  0  0  0  0  0
  192.5180  173.8280  139.6680 C   0  0  0  0  0  0  0  0  0  0  0  0
  190.7400  172.1200  139.4950 C   0  0  0  0  0  2  0  0  0  0  0  0
  191.3370  173.2090  140.3720 C   0  0  0  0  0  3  0  0  0  0  0  0
  191.5570  171.7390  140.7040 C   0  0  0  0  0  2  0  0  0  0  0  0
  191.3200  178.1520  143.8240 C   0  0  0  0  0  1  0  0  0  0  0  0
  192.1470  177.0730  144.5110 C   0  0  1  0  0  3  0  0  0  0  0  0
  191.4280  176.4310  145.6650 C   0  0  0  0  0  0  0  0  0  0  0  0
  190.1200  175.8430  145.5590 N   0  0  0  0  0  2  0  0  0  0  0  0
  191.9800  176.4650  146.7940 O   0  0  0  0  0  0  0  0  0  0  0  0
  189.6910  174.0400  143.9170 C   0  0  0  0  0  3  0  0  0  0  0  0
  189.4640  175.3370  144.3900 C   0  0  0  0  0  0  0  0  0  0  0  0
  188.0810  174.3810  142.1460 C   0  0  0  0  0  3  0  0  0  0  0  0
  189.0070  173.5630  142.7960 C   0  0  0  0  0  3  0  0  0  0  0  0
  188.5190  176.1420  143.7460 C   0  0  0  0  0  3  0  0  0  0  0  0
  187.8290  175.6730  142.6180 C   0  0  0  0  0  0  0  0  0  0  0  0
  186.8780  176.4940  141.9330 N   0  0  0  0  0  2  0  0  0  0  0  0
  184.1570  178.8840  142.4190 O   0  0  0  0  0  1  0  0  0  0  0  0
  186.2050  177.6300  142.5470 C   0  0  1  0  0  0  0  0  0  0  0  0
  186.8280  178.8750  142.4190 O   0  0  0  0  0  1  0  0  0  0  0  0
  184.6870  177.5930  142.4910 C   0  0  1  0  0  3  0  0  0  0  0  0
  185.4360  177.3150  143.8170 C   0  0  2  0  0  3  0  0  0  0  0  0
  186.4320  178.2690  146.3340 O   0  0  0  0  0  1  0  0  0  0  0  0
  183.8110  178.7800  145.6770 O   0  0  0  0  0  1  0  0  0  0  0  0
  185.7880  180.0120  144.5050 O   0  0  0  0  0  0  0  0  0  0  0  0
  185.3840  178.6680  145.0680 P   0  0  0  0  0  0  0  0  0  0  0  0
  194.8820  175.4280  144.6560 C   0  0  0  0  0  2  0  0  0  0  0  0
  196.0500  174.4880  144.3780 C   0  0  1  0  0  3  0  0  0  0  0  0
  197.1670  175.2190  143.7500 N   0  0  0  0  0  0  0  0  0  0  0  0
  197.5700  174.6110  142.4970 C   0  0  0  0  0  2  0  0  0  0  0  0
  196.6480  176.6940  141.9980 O   0  0  0  0  0  0  0  0  0  0  0  0
  196.7300  176.5650  143.3950 C   0  0  0  0  0  2  0  0  0  0  0  0
  197.5060  175.7180  141.4850 C   0  0  0  0  0  2  0  0  0  0  0  0
  195.7730  172.4140  145.6640 N   0  0  0  0  0  2  0  0  0  0  0  0
  197.1940  172.5290  145.3110 C   0  0  0  0  0  2  0  0  0  0  0  0
  196.4380  173.7270  145.6540 C   0  0  1  0  0  3  0  0  0  0  0  0
  1  4  1  0  0  0  0
  1 16  1  0  0  0  0
  2  5  1  0  0  0  0
  2  3  2  0  0  0  0
  3  4  1  0  0  0  0
  4 36  1  6  0  0  0
  5  1  2  0  0  0  0
  6  7  2  0  0  0  0
  6  8  1  0  0  0  0
  7  9  1  0  0  0  0
  8 11  2  0  0  0  0
  9 10  2  0  0  0  0
 10  2  1  0  0  0  0
 11 10  1  0  0  0  0
 11 13  1  0  0  0  0
 12 13  1  0  0  0  0
 12 14  1  0  0  0  0
 13 14  1  0  0  0  0
 16 15  1  6  0  0  0
 16 17  1  0  0  0  0
 17 19  2  0  0  0  0
 18 17  1  0  0  0  0
 20 21  1  0  0  0  0
 21 18  1  0  0  0  0
 22 25  2  0  0  0  0
 22 23  1  0  0  0  0
 23 20  2  0  0  0  0
 24 21  2  0  0  0  0
 25 24  1  0  0  0  0
 26 28  1  0  0  0  0
 26 25  1  0  0  0  0
 28 29  1  6  0  0  0
 28 31  1  0  0  0  0
 30 27  1  1  0  0  0
 30 28  1  0  0  0  0
 30 31  1  0  0  0  0
 31 35  1  1  0  0  0
 34 35  2  0  0  0  0
 35 33  1  0  0  0  0
 35 32  1  0  0  0  0
 37 36  1  1  0  0  0
 38 37  1  0  0  0  0
 39 38  1  0  0  0  0
 40 41  1  0  0  0  0
 41 38  1  0  0  0  0
 42 40  1  0  0  0  0
 42 39  1  0  0  0  0
 44 45  1  0  0  0  0
 44 43  1  0  0  0  0
 45 37  1  6  0  0  0
 45 43  1  0  0  0  0
M  END
>  <MODEL>
1

>  <REMARK>
 VINA RESULT:      -7.1      0.000      0.000
  Name = 
  12 active torsions:
  status: ('A' for Active; 'I' for Inactive)
    1  A    between atoms: C_6  and  C_44
    2  A    between atoms: N_7  and  C_41
    3  A    between atoms: C_9  and  C_24
    4  A    between atoms: C_14  and  N_16
    5  A    between atoms: N_16  and  C_39
    6  A    between atoms: C_18  and  N_43
    7  A    between atoms: C_19  and  C_24
    8  A    between atoms: C_22  and  C_26
    9  A    between atoms: C_31  and  C_41
   10  A    between atoms: C_32  and  C_35
   11  A    between atoms: C_35  and  C_41
   12  A    between atoms: P_36  and  C_38
                            x       y       z     vdW  Elec       q    Type
                         _______ _______ _______ _____ _____    ______ ____

>  <TORSDO>
F 12

$$$$
=
 OpenBabel11042415143D

 45 51  0  0  1  0  0  0  0  0999 V2000
  188.0960  174.9410  142.1340 C   0  0  0  0  0  0  0  0  0  0  0  0
  186.8500  176.6390  142.6290 C   0  0  0  0  0  0  0  0  0  0  0  0
  188.0380  177.1330  142.7700 N   0  0  0  0  0  0  0  0  0  0  0  0
  188.9980  176.0810  142.4660 C   0  0  1  0  0  3  0  0  0  0  0  0
  186.8530  175.2730  142.2400 N   0  0  0  0  0  0  0  0  0  0  0  0
  183.2410  178.8650  143.0930 N   0  0  0  0  0  0  0  0  0  0  0  0
  183.5990  178.3780  141.8790 C   0  0  0  0  0  3  0  0  0  0  0  0
  184.0210  178.6790  144.1880 C   0  0  0  0  0  3  0  0  0  0  0  0
  184.7850  177.6630  141.7360 C   0  0  0  0  0  3  0  0  0  0  0  0
  185.6210  177.4480  142.8410 C   0  0  0  0  0  0  0  0  0  0  0  0
  185.2400  177.9870  144.0990 C   0  0  0  0  0  0  0  0  0  0  0  0
  185.2520  178.2200  146.5600 C   0  0  0  0  0  2  0  0  0  0  0  0
  186.0580  177.7770  145.3500 C   0  0  0  0  0  3  0  0  0  0  0  0
  185.4410  176.7480  146.2880 C   0  0  0  0  0  2  0  0  0  0  0  0
  187.6090  172.4470  142.1540 C   0  0  0  0  0  1  0  0  0  0  0  0
  188.5590  173.5650  141.7450 C   0  0  1  0  0  3  0  0  0  0  0  0
  188.9840  173.4740  140.3050 C   0  0  0  0  0  0  0  0  0  0  0  0
  190.3580  173.4000  139.8850 N   0  0  0  0  0  2  0  0  0  0  0  0
  188.0900  173.5250  139.4230 O   0  0  0  0  0  0  0  0  0  0  0  0
  191.5380  171.6810  141.2200 C   0  0  0  0  0  3  0  0  0  0  0  0
  191.4940  172.9510  140.6340 C   0  0  0  0  0  0  0  0  0  0  0  0
  193.7840  172.1020  142.0120 C   0  0  0  0  0  3  0  0  0  0  0  0
  192.6760  171.2580  141.9120 C   0  0  0  0  0  3  0  0  0  0  0  0
  192.6150  173.7820  140.7210 C   0  0  0  0  0  3  0  0  0  0  0  0
  193.7610  173.3660  141.4160 C   0  0  0  0  0  0  0  0  0  0  0  0
  194.9070  174.2150  141.5340 N   0  0  0  0  0  2  0  0  0  0  0  0
  196.3850  176.6780  143.7930 O   0  0  0  0  0  1  0  0  0  0  0  0
  195.4130  174.7120  142.8060 C   0  0  1  0  0  0  0  0  0  0  0  0
  196.5180  174.0480  143.3470 O   0  0  0  0  0  1  0  0  0  0  0  0
  195.3370  176.2190  142.9900 C   0  0  1  0  0  3  0  0  0  0  0  0
  194.3610  175.2810  143.7410 C   0  0  2  0  0  3  0  0  0  0  0  0
  193.6120  173.8950  146.1400 O   0  0  0  0  0  1  0  0  0  0  0  0
  194.4180  176.5180  146.3320 O   0  0  0  0  0  1  0  0  0  0  0  0
  196.1050  174.5940  145.8280 O   0  0  0  0  0  0  0  0  0  0  0  0
  194.6920  175.0490  145.5390 P   0  0  0  0  0  0  0  0  0  0  0  0
  189.8210  175.7510  143.7030 C   0  0  0  0  0  2  0  0  0  0  0  0
  190.0280  176.9930  144.5630 C   0  0  1  0  0  3  0  0  0  0  0  0
  189.5860  176.7450  145.9490 N   0  0  0  0  0  0  0  0  0  0  0  0
  188.9090  175.4690  146.0760 C   0  0  0  0  0  2  0  0  0  0  0  0
  190.9070  175.3190  147.2680 O   0  0  0  0  0  0  0  0  0  0  0  0
  190.7520  176.6430  146.8210 C   0  0  0  0  0  2  0  0  0  0  0  0
  189.6380  174.7440  147.1700 C   0  0  0  0  0  2  0  0  0  0  0  0
  191.8080  177.7070  143.0300 N   0  0  0  0  0  2  0  0  0  0  0  0
  191.5010  178.8430  143.9090 C   0  0  0  0  0  2  0  0  0  0  0  0
  191.4770  177.4880  144.4470 C   0  0  1  0  0  3  0  0  0  0  0  0
  1  5  2  0  0  0  0
  1  4  1  0  0  0  0
  2  3  2  0  0  0  0
  2 10  1  0  0  0  0
  4  3  1  0  0  0  0
  4 36  1  1  0  0  0
  5  2  1  0  0  0  0
  6  8  1  0  0  0  0
  7  6  2  0  0  0  0
  9  7  1  0  0  0  0
  9 10  2  0  0  0  0
 10 11  1  0  0  0  0
 11  8  2  0  0  0  0
 11 13  1  0  0  0  0
 13 14  1  0  0  0  0
 13 12  1  0  0  0  0
 14 12  1  0  0  0  0
 16  1  1  0  0  0  0
 16 15  1  6  0  0  0
 17 16  1  0  0  0  0
 18 17  1  0  0  0  0
 18 21  1  0  0  0  0
 19 17  2  0  0  0  0
 20 23  1  0  0  0  0
 21 24  1  0  0  0  0
 21 20  2  0  0  0  0
 23 22  2  0  0  0  0
 24 25  2  0  0  0  0
 25 26  1  0  0  0  0
 25 22  1  0  0  0  0
 26 28  1  0  0  0  0
 28 30  1  0  0  0  0
 28 29  1  1  0  0  0
 28 31  1  0  0  0  0
 30 31  1  0  0  0  0
 30 27  1  1  0  0  0
 31 35  1  1  0  0  0
 35 34  2  0  0  0  0
 35 32  1  0  0  0  0
 35 33  1  0  0  0  0
 37 36  1  6  0  0  0
 37 38  1  0  0  0  0
 38 39  1  0  0  0  0
 38 41  1  0  0  0  0
 39 42  1  0  0  0  0
 41 40  1  0  0  0  0
 42 40  1  0  0  0  0
 43 44  1  0  0  0  0
 43 45  1  0  0  0  0
 44 45  1  0  0  0  0
 45 37  1  6  0  0  0
M  END
>  <MODEL>
2

>  <REMARK>
 VINA RESULT:      -7.0      3.327      8.495
  Name = 
  12 active torsions:
  status: ('A' for Active; 'I' for Inactive)
    1  A    between atoms: C_6  and  C_44
    2  A    between atoms: N_7  and  C_41
    3  A    between atoms: C_9  and  C_24
    4  A    between atoms: C_14  and  N_16
    5  A    between atoms: N_16  and  C_39
    6  A    between atoms: C_18  and  N_43
    7  A    between atoms: C_19  and  C_24
    8  A    between atoms: C_22  and  C_26
    9  A    between atoms: C_31  and  C_41
   10  A    between atoms: C_32  and  C_35
   11  A    between atoms: C_35  and  C_41
   12  A    between atoms: P_36  and  C_38
                            x       y       z     vdW  Elec       q    Type
                         _______ _______ _______ _____ _____    ______ ____

>  <TORSDO>
F 12

$$$$
=
 OpenBabel11042415143D

 45 51  0  0  1  0  0  0  0  0999 V2000
  188.6590  174.9440  142.3430 C   0  0  0  0  0  0  0  0  0  0  0  0
  187.7850  176.5170  143.5430 C   0  0  0  0  0  0  0  0  0  0  0  0
  188.9530  177.0060  143.2770 N   0  0  0  0  0  0  0  0  0  0  0  0
  189.6690  176.0340  142.4620 C   0  0  1  0  0  3  0  0  0  0  0  0
  187.5730  175.2300  142.9790 N   0  0  0  0  0  0  0  0  0  0  0  0
  185.0290  178.7210  145.9390 N   0  0  0  0  0  0  0  0  0  0  0  0
  186.2260  178.3330  146.4460 C   0  0  0  0  0  3  0  0  0  0  0  0
  184.6620  178.4060  144.6700 C   0  0  0  0  0  3  0  0  0  0  0  0
  187.1140  177.6040  145.6590 C   0  0  0  0  0  3  0  0  0  0  0  0
  186.7750  177.2580  144.3430 C   0  0  0  0  0  0  0  0  0  0  0  0
  185.5060  177.6520  143.8390 C   0  0  0  0  0  0  0  0  0  0  0  0
  183.9310  178.2860  142.0420 C   0  0  0  0  0  2  0  0  0  0  0  0
  185.0690  177.3540  142.4260 C   0  0  0  0  0  3  0  0  0  0  0  0
  185.3110  178.5220  141.4790 C   0  0  0  0  0  2  0  0  0  0  0  0
  187.7630  172.6300  141.7950 C   0  0  0  0  0  1  0  0  0  0  0  0
  188.8700  173.6560  141.5960 C   0  0  1  0  0  3  0  0  0  0  0  0
  189.2190  173.8660  140.1480 C   0  0  0  0  0  0  0  0  0  0  0  0
  190.5700  173.9340  139.6590 N   0  0  0  0  0  2  0  0  0  0  0  0
  188.2770  174.0520  139.3370 O   0  0  0  0  0  0  0  0  0  0  0  0
  191.8500  172.0520  140.6340 C   0  0  0  0  0  3  0  0  0  0  0  0
  191.7580  173.3940  140.2490 C   0  0  0  0  0  0  0  0  0  0  0  0
  194.1450  172.3830  141.3200 C   0  0  0  0  0  3  0  0  0  0  0  0
  193.0360  171.5470  141.1720 C   0  0  0  0  0  3  0  0  0  0  0  0
  192.8800  174.2190  140.3810 C   0  0  0  0  0  3  0  0  0  0  0  0
  194.0740  173.7220  140.9230 C   0  0  0  0  0  0  0  0  0  0  0  0
  195.2220  174.5600  141.0870 N   0  0  0  0  0  2  0  0  0  0  0  0
  196.6350  176.7070  143.6850 O   0  0  0  0  0  1  0  0  0  0  0  0
  195.8250  174.8570  142.3790 C   0  0  1  0  0  0  0  0  0  0  0  0
  197.0780  174.2920  142.6340 O   0  0  0  0  0  1  0  0  0  0  0  0
  195.5620  176.2550  142.9120 C   0  0  1  0  0  3  0  0  0  0  0  0
  194.8440  175.0290  143.5240 C   0  0  2  0  0  3  0  0  0  0  0  0
  194.7740  172.9740  145.5280 O   0  0  0  0  0  1  0  0  0  0  0  0
  194.9330  175.5980  146.3370 O   0  0  0  0  0  1  0  0  0  0  0  0
  196.9590  174.3700  145.2460 O   0  0  0  0  0  0  0  0  0  0  0  0
  195.4530  174.4830  145.1770 P   0  0  0  0  0  0  0  0  0  0  0  0
  190.8960  175.5290  143.2070 C   0  0  0  0  0  2  0  0  0  0  0  0
  190.6490  175.5150  144.7120 C   0  0  1  0  0  3  0  0  0  0  0  0
  190.9150  174.1760  145.2700 N   0  0  0  0  0  0  0  0  0  0  0  0
  189.6880  173.4750  145.5940 C   0  0  0  0  0  2  0  0  0  0  0  0
  190.6960  172.3370  143.8260 O   0  0  0  0  0  0  0  0  0  0  0  0
  191.5690  173.3490  144.2610 C   0  0  0  0  0  2  0  0  0  0  0  0
  189.7800  172.1650  144.8670 C   0  0  0  0  0  2  0  0  0  0  0  0
  190.5580  177.3520  146.3390 N   0  0  0  0  0  2  0  0  0  0  0  0
  191.5510  176.3830  146.8220 C   0  0  0  0  0  2  0  0  0  0  0  0
  191.4350  176.6450  145.3920 C   0  0  1  0  0  3  0  0  0  0  0  0
  1  4  1  0  0  0  0
  1  5  2  0  0  0  0
  2 10  1  0  0  0  0
  3  2  2  0  0  0  0
  4 36  1  1  0  0  0
  4  3  1  0  0  0  0
  5  2  1  0  0  0  0
  6  7  1  0  0  0  0
  8  6  2  0  0  0  0
  9  7  2  0  0  0  0
 10  9  1  0  0  0  0
 11 10  2  0  0  0  0
 11  8  1  0  0  0  0
 12 13  1  0  0  0  0
 13 11  1  0  0  0  0
 14 12  1  0  0  0  0
 14 13  1  0  0  0  0
 16 15  1  6  0  0  0
 16  1  1  0  0  0  0
 17 16  1  0  0  0  0
 18 17  1  0  0  0  0
 18 21  1  0  0  0  0
 19 17  2  0  0  0  0
 20 23  1  0  0  0  0
 21 24  1  0  0  0  0
 21 20  2  0  0  0  0
 23 22  2  0  0  0  0
 24 25  2  0  0  0  0
 25 26  1  0  0  0  0
 25 22  1  0  0  0  0
 26 28  1  0  0  0  0
 28 29  1  1  0  0  0
 28 30  1  0  0  0  0
 28 31  1  0  0  0  0
 30 31  1  0  0  0  0
 30 27  1  1  0  0  0
 31 35  1  1  0  0  0
 35 34  2  0  0  0  0
 35 32  1  0  0  0  0
 35 33  1  0  0  0  0
 37 36  1  6  0  0  0
 37 38  1  0  0  0  0
 38 39  1  0  0  0  0
 40 41  1  0  0  0  0
 40 42  1  0  0  0  0
 41 38  1  0  0  0  0
 42 39  1  0  0  0  0
 43 44  1  0  0  0  0
 45 37  1  6  0  0  0
 45 43  1  0  0  0  0
 45 44  1  0  0  0  0
M  END
>  <MODEL>
3

>  <REMARK>
 VINA RESULT:      -6.9      3.598      8.370
  Name = 
  12 active torsions:
  status: ('A' for Active; 'I' for Inactive)
    1  A    between atoms: C_6  and  C_44
    2  A    between atoms: N_7  and  C_41
    3  A    between atoms: C_9  and  C_24
    4  A    between atoms: C_14  and  N_16
    5  A    between atoms: N_16  and  C_39
    6  A    between atoms: C_18  and  N_43
    7  A    between atoms: C_19  and  C_24
    8  A    between atoms: C_22  and  C_26
    9  A    between atoms: C_31  and  C_41
   10  A    between atoms: C_32  and  C_35
   11  A    between atoms: C_35  and  C_41
   12  A    between atoms: P_36  and  C_38
                            x       y       z     vdW  Elec       q    Type
                         _______ _______ _______ _____ _____    ______ ____

>  <TORSDO>
F 12

$$$$
=
 OpenBabel11042415143D

 45 51  0  0  1  0  0  0  0  0999 V2000
  189.5010  176.2070  143.8210 C   0  0  0  0  0  0  0  0  0  0  0  0
  187.4550  176.5940  143.2360 C   0  0  0  0  0  0  0  0  0  0  0  0
  187.5690  175.3320  142.9760 N   0  0  0  0  0  0  0  0  0  0  0  0
  188.9240  174.9250  143.3240 C   0  0  1  0  0  3  0  0  0  0  0  0
  188.6440  177.1700  143.7590 N   0  0  0  0  0  0  0  0  0  0  0  0
  183.7840  178.6250  142.4640 N   0  0  0  0  0  0  0  0  0  0  0  0
  184.5020  178.0880  141.4460 C   0  0  0  0  0  3  0  0  0  0  0  0
  184.2160  178.5530  143.7490 C   0  0  0  0  0  3  0  0  0  0  0  0
  185.7040  177.4370  141.7080 C   0  0  0  0  0  3  0  0  0  0  0  0
  186.1870  177.3400  143.0200 C   0  0  0  0  0  0  0  0  0  0  0  0
  185.4330  177.9310  144.0700 C   0  0  0  0  0  0  0  0  0  0  0  0
  184.6540  178.1090  146.4090 C   0  0  0  0  0  2  0  0  0  0  0  0
  185.8560  177.8470  145.5160 C   0  0  0  0  0  3  0  0  0  0  0  0
  185.1790  176.7030  146.2590 C   0  0  0  0  0  2  0  0  0  0  0  0
  191.5660  177.6870  143.8950 C   0  0  0  0  0  1  0  0  0  0  0  0
  190.9100  176.3800  144.3170 C   0  0  1  0  0  3  0  0  0  0  0  0
  191.0540  176.1010  145.7880 C   0  0  0  0  0  0  0  0  0  0  0  0
  192.0720  175.2490  146.3400 N   0  0  0  0  0  2  0  0  0  0  0  0
  190.1990  176.5950  146.5670 O   0  0  0  0  0  0  0  0  0  0  0  0
  194.5360  175.4600  146.2270 C   0  0  0  0  0  3  0  0  0  0  0  0
  193.3390  174.8940  145.7730 C   0  0  0  0  0  0  0  0  0  0  0  0
  195.7920  174.0920  144.6790 C   0  0  0  0  0  3  0  0  0  0  0  0
  195.7590  175.0650  145.6800 C   0  0  0  0  0  3  0  0  0  0  0  0
  193.3830  173.9050  144.7860 C   0  0  0  0  0  3  0  0  0  0  0  0
  194.6060  173.5050  144.2280 C   0  0  0  0  0  0  0  0  0  0  0  0
  194.6650  172.5120  143.1990 N   0  0  0  0  0  2  0  0  0  0  0  0
  194.8930  172.0930  139.5770 O   0  0  0  0  0  1  0  0  0  0  0  0
  195.1950  172.7630  141.8670 C   0  0  1  0  0  0  0  0  0  0  0  0
  196.5380  172.4410  141.6520 O   0  0  0  0  0  1  0  0  0  0  0  0
  194.2210  172.5210  140.7250 C   0  0  1  0  0  3  0  0  0  0  0  0
  194.5980  173.9610  141.1510 C   0  0  2  0  0  3  0  0  0  0  0  0
  196.2090  176.3050  140.7640 O   0  0  0  0  0  1  0  0  0  0  0  0
  194.9160  175.2230  138.5910 O   0  0  0  0  0  0  0  0  0  0  0  0
  196.9840  174.0640  139.6790 O   0  0  0  0  0  1  0  0  0  0  0  0
  195.7440  174.8590  140.0200 P   0  0  0  0  0  0  0  0  0  0  0  0
  189.6690  174.4660  142.0790 C   0  0  0  0  0  2  0  0  0  0  0  0
  189.7320  172.9440  142.0150 C   0  0  1  0  0  3  0  0  0  0  0  0
  189.4750  172.4700  140.6420 N   0  0  0  0  0  0  0  0  0  0  0  0
  188.1530  172.8500  140.1820 C   0  0  0  0  0  2  0  0  0  0  0  0
  189.7030  174.0260  138.8980 O   0  0  0  0  0  0  0  0  0  0  0  0
  190.3990  173.1230  139.7200 C   0  0  0  0  0  2  0  0  0  0  0  0
  188.3810  173.5770  138.8890 C   0  0  0  0  0  2  0  0  0  0  0  0
  190.7780  171.7110  143.8630 N   0  0  0  0  0  2  0  0  0  0  0  0
  191.0730  170.9820  142.6230 C   0  0  0  0  0  2  0  0  0  0  0  0
  191.0530  172.4400  142.6140 C   0  0  1  0  0  3  0  0  0  0  0  0
  1 16  1  0  0  0  0
  2  5  1  0  0  0  0
  3  2  2  0  0  0  0
  3  4  1  0  0  0  0
  4 36  1  6  0  0  0
  4  1  1  0  0  0  0
  5  1  2  0  0  0  0
  6  8  1  0  0  0  0
  7  9  1  0  0  0  0
  7  6  2  0  0  0  0
  8 11  2  0  0  0  0
  9 10  2  0  0  0  0
 10  2  1  0  0  0  0
 10 11  1  0  0  0  0
 11 13  1  0  0  0  0
 13 14  1  0  0  0  0
 13 12  1  0  0  0  0
 14 12  1  0  0  0  0
 16 15  1  1  0  0  0
 16 17  1  0  0  0  0
 17 18  1  0  0  0  0
 17 19  2  0  0  0  0
 21 20  1  0  0  0  0
 21 18  1  0  0  0  0
 22 23  1  0  0  0  0
 23 20  2  0  0  0  0
 24 21  2  0  0  0  0
 25 22  2  0  0  0  0
 25 24  1  0  0  0  0
 26 25  1  0  0  0  0
 28 29  1  6  0  0  0
 28 26  1  0  0  0  0
 30 27  1  6  0  0  0
 30 31  1  0  0  0  0
 30 28  1  0  0  0  0
 31 35  1  6  0  0  0
 31 28  1  0  0  0  0
 33 35  2  0  0  0  0
 34 35  1  0  0  0  0
 35 32  1  0  0  0  0
 37 36  1  6  0  0  0
 38 37  1  0  0  0  0
 39 38  1  0  0  0  0
 40 41  1  0  0  0  0
 41 38  1  0  0  0  0
 42 40  1  0  0  0  0
 42 39  1  0  0  0  0
 44 43  1  0  0  0  0
 45 37  1  6  0  0  0
 45 44  1  0  0  0  0
 45 43  1  0  0  0  0
M  END
>  <MODEL>
4

>  <REMARK>
 VINA RESULT:      -6.9      3.392      8.545
  Name = 
  12 active torsions:
  status: ('A' for Active; 'I' for Inactive)
    1  A    between atoms: C_6  and  C_44
    2  A    between atoms: N_7  and  C_41
    3  A    between atoms: C_9  and  C_24
    4  A    between atoms: C_14  and  N_16
    5  A    between atoms: N_16  and  C_39
    6  A    between atoms: C_18  and  N_43
    7  A    between atoms: C_19  and  C_24
    8  A    between atoms: C_22  and  C_26
    9  A    between atoms: C_31  and  C_41
   10  A    between atoms: C_32  and  C_35
   11  A    between atoms: C_35  and  C_41
   12  A    between atoms: P_36  and  C_38
                            x       y       z     vdW  Elec       q    Type
                         _______ _______ _______ _____ _____    ______ ____

>  <TORSDO>
F 12

$$$$
=
 OpenBabel11042415143D

 45 51  0  0  1  0  0  0  0  0999 V2000
  192.9210  175.0730  144.3110 C   0  0  0  0  0  0  0  0  0  0  0  0
  192.4710  173.2040  143.3190 C   0  0  0  0  0  0  0  0  0  0  0  0
  193.0480  172.7950  144.4020 N   0  0  0  0  0  0  0  0  0  0  0  0
  193.4170  173.9690  145.1820 C   0  0  1  0  0  3  0  0  0  0  0  0
  192.3820  174.6190  143.2300 N   0  0  0  0  0  0  0  0  0  0  0  0
  191.0530  170.3690  140.4640 N   0  0  0  0  0  0  0  0  0  0  0  0
  192.2690  170.2130  141.0450 C   0  0  0  0  0  3  0  0  0  0  0  0
  190.2620  171.4340  140.7530 C   0  0  0  0  0  3  0  0  0  0  0  0
  192.7270  171.1500  141.9680 C   0  0  0  0  0  3  0  0  0  0  0  0
  191.9420  172.2650  142.2950 C   0  0  0  0  0  0  0  0  0  0  0  0
  190.6830  172.4240  141.6560 C   0  0  0  0  0  0  0  0  0  0  0  0
  188.3210  173.1510  141.7000 C   0  0  0  0  0  2  0  0  0  0  0  0
  189.7560  173.5720  141.9700 C   0  0  0  0  0  3  0  0  0  0  0  0
  188.8090  173.2630  143.1230 C   0  0  0  0  0  2  0  0  0  0  0  0
  191.9530  177.4040  144.0160 C   0  0  0  0  0  1  0  0  0  0  0  0
  193.0460  176.5370  144.6260 C   0  0  1  0  0  3  0  0  0  0  0  0
  193.2570  176.8070  146.0910 C   0  0  0  0  0  0  0  0  0  0  0  0
  192.1830  176.9420  147.0380 N   0  0  0  0  0  2  0  0  0  0  0  0
  194.4360  176.9820  146.4930 O   0  0  0  0  0  0  0  0  0  0  0  0
  190.5840  175.0570  146.8970 C   0  0  0  0  0  3  0  0  0  0  0  0
  190.8480  176.4310  146.9470 C   0  0  0  0  0  0  0  0  0  0  0  0
  188.2060  175.4950  146.8580 C   0  0  0  0  0  3  0  0  0  0  0  0
  189.2690  174.5890  146.8470 C   0  0  0  0  0  3  0  0  0  0  0  0
  189.7780  177.3300  146.9780 C   0  0  0  0  0  3  0  0  0  0  0  0
  188.4540  176.8690  146.9260 C   0  0  0  0  0  0  0  0  0  0  0  0
  187.3490  177.7790  146.9320 N   0  0  0  0  0  2  0  0  0  0  0  0
  184.6240  179.2730  145.0100 O   0  0  0  0  0  1  0  0  0  0  0  0
  186.3470  177.8360  145.8770 C   0  0  1  0  0  0  0  0  0  0  0  0
  185.3450  176.8630  145.9050 O   0  0  0  0  0  1  0  0  0  0  0  0
  185.9570  179.2350  145.4290 C   0  0  1  0  0  3  0  0  0  0  0  0
  186.8510  178.3410  144.5370 C   0  0  2  0  0  3  0  0  0  0  0  0
  186.4350  175.9670  142.9770 O   0  0  0  0  0  1  0  0  0  0  0  0
  186.6230  178.3820  141.6740 O   0  0  0  0  0  0  0  0  0  0  0  0
  184.5260  177.7400  143.0860 O   0  0  0  0  0  1  0  0  0  0  0  0
  186.0320  177.6080  143.0570 P   0  0  0  0  0  0  0  0  0  0  0  0
  194.9310  174.0520  145.3190 C   0  0  0  0  0  2  0  0  0  0  0  0
  195.5980  172.8280  144.7020 C   0  0  1  0  0  3  0  0  0  0  0  0
  196.4940  173.2250  143.5990 N   0  0  0  0  0  0  0  0  0  0  0  0
  195.9450  172.8660  142.3060 C   0  0  0  0  0  2  0  0  0  0  0  0
  195.9690  175.1940  142.4320 O   0  0  0  0  0  0  0  0  0  0  0  0
  196.6150  174.6780  143.5690 C   0  0  0  0  0  2  0  0  0  0  0  0
  195.9380  174.1420  141.5140 C   0  0  0  0  0  2  0  0  0  0  0  0
  195.7240  170.6240  145.7770 N   0  0  0  0  0  2  0  0  0  0  0  0
  197.0370  170.8990  145.1800 C   0  0  0  0  0  2  0  0  0  0  0  0
  196.2800  171.9860  145.7900 C   0  0  1  0  0  3  0  0  0  0  0  0
  1 16  1  0  0  0  0
  1  4  1  0  0  0  0
  2  3  2  0  0  0  0
  3  4  1  0  0  0  0
  4 36  1  6  0  0  0
  5  2  1  0  0  0  0
  5  1  2  0  0  0  0
  6  8  2  0  0  0  0
  6  7  1  0  0  0  0
  7  9  2  0  0  0  0
  8 11  1  0  0  0  0
  9 10  1  0  0  0  0
 10  2  1  0  0  0  0
 11 13  1  0  0  0  0
 11 10  2  0  0  0  0
 12 13  1  0  0  0  0
 12 14  1  0  0  0  0
 13 14  1  0  0  0  0
 16 15  1  1  0  0  0
 16 17  1  0  0  0  0
 17 19  2  0  0  0  0
 17 18  1  0  0  0  0
 20 21  1  0  0  0  0
 21 24  2  0  0  0  0
 21 18  1  0  0  0  0
 22 25  2  0  0  0  0
 23 22  1  0  0  0  0
 23 20  2  0  0  0  0
 25 26  1  0  0  0  0
 25 24  1  0  0  0  0
 28 29  1  6  0  0  0
 28 26  1  0  0  0  0
 30 27  1  6  0  0  0
 30 28  1  0  0  0  0
 31 35  1  6  0  0  0
 31 30  1  0  0  0  0
 31 28  1  0  0  0  0
 32 35  1  0  0  0  0
 33 35  2  0  0  0  0
 35 34  1  0  0  0  0
 37 36  1  1  0  0  0
 38 37  1  0  0  0  0
 39 38  1  0  0  0  0
 40 41  1  0  0  0  0
 41 38  1  0  0  0  0
 42 39  1  0  0  0  0
 42 40  1  0  0  0  0
 43 45  1  0  0  0  0
 44 43  1  0  0  0  0
 44 45  1  0  0  0  0
 45 37  1  6  0  0  0
M  END
>  <MODEL>
5

>  <REMARK>
 VINA RESULT:      -6.8      2.281      3.214
  Name = 
  12 active torsions:
  status: ('A' for Active; 'I' for Inactive)
    1  A    between atoms: C_6  and  C_44
    2  A    between atoms: N_7  and  C_41
    3  A    between atoms: C_9  and  C_24
    4  A    between atoms: C_14  and  N_16
    5  A    between atoms: N_16  and  C_39
    6  A    between atoms: C_18  and  N_43
    7  A    between atoms: C_19  and  C_24
    8  A    between atoms: C_22  and  C_26
    9  A    between atoms: C_31  and  C_41
   10  A    between atoms: C_32  and  C_35
   11  A    between atoms: C_35  and  C_41
   12  A    between atoms: P_36  and  C_38
                            x       y       z     vdW  Elec       q    Type
                         _______ _______ _______ _____ _____    ______ ____

>  <TORSDO>
F 12

$$$$
=
 OpenBabel11042415143D

 45 51  0  0  1  0  0  0  0  0999 V2000
  190.9400  174.7580  142.5340 C   0  0  0  0  0  0  0  0  0  0  0  0
  193.0310  175.1960  142.1950 C   0  0  0  0  0  0  0  0  0  0  0  0
  192.6960  174.6300  141.0810 N   0  0  0  0  0  0  0  0  0  0  0  0
  191.2870  174.2710  141.1680 C   0  0  1  0  0  3  0  0  0  0  0  0
  191.9600  175.2850  143.1240 N   0  0  0  0  0  0  0  0  0  0  0  0
  196.9460  176.7930  142.7650 N   0  0  0  0  0  0  0  0  0  0  0  0
  196.3950  176.7440  141.5270 C   0  0  0  0  0  3  0  0  0  0  0  0
  196.2840  176.3210  143.8530 C   0  0  0  0  0  3  0  0  0  0  0  0
  195.1210  176.2100  141.3500 C   0  0  0  0  0  3  0  0  0  0  0  0
  194.4020  175.7120  142.4460 C   0  0  0  0  0  0  0  0  0  0  0  0
  195.0070  175.7490  143.7320 C   0  0  0  0  0  0  0  0  0  0  0  0
  195.2690  175.2690  146.1420 C   0  0  0  0  0  2  0  0  0  0  0  0
  194.2970  175.2680  144.9730 C   0  0  0  0  0  3  0  0  0  0  0  0
  194.2110  176.3400  146.0520 C   0  0  0  0  0  2  0  0  0  0  0  0
  188.4390  174.4810  142.1760 C   0  0  0  0  0  1  0  0  0  0  0  0
  189.5830  174.6390  143.1690 C   0  0  1  0  0  3  0  0  0  0  0  0
  189.5390  173.6220  144.2770 C   0  0  0  0  0  0  0  0  0  0  0  0
  189.7960  173.9390  145.6560 N   0  0  0  0  0  2  0  0  0  0  0  0
  189.3250  172.4230  143.9670 O   0  0  0  0  0  0  0  0  0  0  0  0
  190.8040  175.9050  146.7730 C   0  0  0  0  0  3  0  0  0  0  0  0
  189.6810  175.2050  146.3150 C   0  0  0  0  0  0  0  0  0  0  0  0
  189.3910  177.7210  147.5190 C   0  0  0  0  0  3  0  0  0  0  0  0
  190.6610  177.1560  147.3780 C   0  0  0  0  0  3  0  0  0  0  0  0
  188.4160  175.7880  146.4410 C   0  0  0  0  0  3  0  0  0  0  0  0
  188.2640  177.0420  147.0500 C   0  0  0  0  0  0  0  0  0  0  0  0
  186.9720  177.6390  147.2080 N   0  0  0  0  0  2  0  0  0  0  0  0
  184.0470  178.9670  145.4660 O   0  0  0  0  0  1  0  0  0  0  0  0
  185.9800  177.7070  146.1450 C   0  0  1  0  0  0  0  0  0  0  0  0
  185.1530  176.5920  145.9830 O   0  0  0  0  0  1  0  0  0  0  0  0
  185.3660  179.0780  145.9160 C   0  0  1  0  0  3  0  0  0  0  0  0
  186.4000  178.5000  144.9200 C   0  0  2  0  0  3  0  0  0  0  0  0
  185.9890  176.2300  143.2110 O   0  0  0  0  0  1  0  0  0  0  0  0
  186.5510  178.6630  142.0570 O   0  0  0  0  0  0  0  0  0  0  0  0
  184.2410  178.1640  143.1600 O   0  0  0  0  0  1  0  0  0  0  0  0
  185.7210  177.8970  143.3160 P   0  0  0  0  0  0  0  0  0  0  0  0
  191.1270  172.7590  141.0970 C   0  0  0  0  0  2  0  0  0  0  0  0
  190.3570  172.3540  139.8450 C   0  0  1  0  0  3  0  0  0  0  0  0
  190.0880  173.5320  138.9980 N   0  0  0  0  0  0  0  0  0  0  0  0
  190.8250  173.4760  137.7500 C   0  0  0  0  0  2  0  0  0  0  0  0
  188.5610  173.2700  137.2320 O   0  0  0  0  0  0  0  0  0  0  0  0
  188.6820  173.5390  138.6070 C   0  0  0  0  0  2  0  0  0  0  0  0
  189.7890  173.6310  136.6750 C   0  0  0  0  0  2  0  0  0  0  0  0
  190.9240  169.9660  139.8840 N   0  0  0  0  0  2  0  0  0  0  0  0
  190.1190  170.2090  138.6790 C   0  0  0  0  0  2  0  0  0  0  0  0
  191.0810  171.2130  139.1180 C   0  0  1  0  0  3  0  0  0  0  0  0
  1  5  2  0  0  0  0
  1 16  1  0  0  0  0
  2 10  1  0  0  0  0
  2  5  1  0  0  0  0
  3  4  1  0  0  0  0
  3  2  2  0  0  0  0
  4 36  1  1  0  0  0
  4  1  1  0  0  0  0
  6  8  1  0  0  0  0
  7  6  2  0  0  0  0
  9  7  1  0  0  0  0
  9 10  2  0  0  0  0
 10 11  1  0  0  0  0
 11  8  2  0  0  0  0
 11 13  1  0  0  0  0
 13 14  1  0  0  0  0
 13 12  1  0  0  0  0
 14 12  1  0  0  0  0
 16 15  1  6  0  0  0
 16 17  1  0  0  0  0
 17 18  1  0  0  0  0
 18 21  1  0  0  0  0
 19 17  2  0  0  0  0
 20 23  1  0  0  0  0
 21 24  1  0  0  0  0
 21 20  2  0  0  0  0
 23 22  2  0  0  0  0
 24 25  2  0  0  0  0
 25 26  1  0  0  0  0
 25 22  1  0  0  0  0
 28 29  1  6  0  0  0
 28 26  1  0  0  0  0
 30 27  1  6  0  0  0
 30 28  1  0  0  0  0
 31 35  1  6  0  0  0
 31 30  1  0  0  0  0
 31 28  1  0  0  0  0
 32 35  1  0  0  0  0
 33 35  2  0  0  0  0
 34 35  1  0  0  0  0
 37 36  1  1  0  0  0
 38 37  1  0  0  0  0
 39 38  1  0  0  0  0
 40 41  1  0  0  0  0
 41 38  1  0  0  0  0
 42 40  1  0  0  0  0
 42 39  1  0  0  0  0
 44 45  1  0  0  0  0
 44 43  1  0  0  0  0
 45 37  1  1  0  0  0
 45 43  1  0  0  0  0
M  END
>  <MODEL>
6

>  <REMARK>
 VINA RESULT:      -6.8      2.669      5.673
  Name = 
  12 active torsions:
  status: ('A' for Active; 'I' for Inactive)
    1  A    between atoms: C_6  and  C_44
    2  A    between atoms: N_7  and  C_41
    3  A    between atoms: C_9  and  C_24
    4  A    between atoms: C_14  and  N_16
    5  A    between atoms: N_16  and  C_39
    6  A    between atoms: C_18  and  N_43
    7  A    between atoms: C_19  and  C_24
    8  A    between atoms: C_22  and  C_26
    9  A    between atoms: C_31  and  C_41
   10  A    between atoms: C_32  and  C_35
   11  A    between atoms: C_35  and  C_41
   12  A    between atoms: P_36  and  C_38
                            x       y       z     vdW  Elec       q    Type
                         _______ _______ _______ _____ _____    ______ ____

>  <TORSDO>
F 12

$$$$
=
 OpenBabel11042415143D

 45 51  0  0  1  0  0  0  0  0999 V2000
  191.1580  174.3550  142.4050 C   0  0  0  0  0  0  0  0  0  0  0  0
  193.2670  174.7260  142.1030 C   0  0  0  0  0  0  0  0  0  0  0  0
  192.9900  173.9490  141.1070 N   0  0  0  0  0  0  0  0  0  0  0  0
  191.5760  173.6080  141.1850 C   0  0  1  0  0  3  0  0  0  0  0  0
  192.1460  174.9940  142.9350 N   0  0  0  0  0  0  0  0  0  0  0  0
  197.1130  176.4930  142.6370 N   0  0  0  0  0  0  0  0  0  0  0  0
  196.3630  176.7910  141.5470 C   0  0  0  0  0  3  0  0  0  0  0  0
  196.6780  175.6140  143.5760 C   0  0  0  0  0  3  0  0  0  0  0  0
  195.1130  176.2000  141.3770 C   0  0  0  0  0  3  0  0  0  0  0  0
  194.6260  175.2870  142.3220 C   0  0  0  0  0  0  0  0  0  0  0  0
  195.4380  174.9680  143.4440 C   0  0  0  0  0  0  0  0  0  0  0  0
  195.8730  174.1920  145.7510 C   0  0  0  0  0  2  0  0  0  0  0  0
  194.9830  174.0240  144.5290 C   0  0  0  0  0  3  0  0  0  0  0  0
  194.4730  174.7540  145.7660 C   0  0  0  0  0  2  0  0  0  0  0  0
  188.6620  174.2680  141.9290 C   0  0  0  0  0  1  0  0  0  0  0  0
  189.7660  174.3580  142.9750 C   0  0  1  0  0  3  0  0  0  0  0  0
  189.5890  173.3760  144.0990 C   0  0  0  0  0  0  0  0  0  0  0  0
  189.8180  173.7000  145.4820 N   0  0  0  0  0  2  0  0  0  0  0  0
  189.2810  172.1930  143.8040 O   0  0  0  0  0  0  0  0  0  0  0  0
  190.9630  175.6610  146.4680 C   0  0  0  0  0  3  0  0  0  0  0  0
  189.7900  174.9870  146.1100 C   0  0  0  0  0  0  0  0  0  0  0  0
  189.6650  177.5420  147.2590 C   0  0  0  0  0  3  0  0  0  0  0  0
  190.9030  176.9310  147.0450 C   0  0  0  0  0  3  0  0  0  0  0  0
  188.5560  175.6140  146.3080 C   0  0  0  0  0  3  0  0  0  0  0  0
  188.4860  176.8880  146.8900 C   0  0  0  0  0  0  0  0  0  0  0  0
  187.2290  177.5320  147.1210 N   0  0  0  0  0  2  0  0  0  0  0  0
  184.2680  178.9760  145.5400 O   0  0  0  0  0  1  0  0  0  0  0  0
  186.1800  177.6370  146.1160 C   0  0  1  0  0  0  0  0  0  0  0  0
  185.2980  176.5580  146.0110 O   0  0  0  0  0  1  0  0  0  0  0  0
  185.6140  179.0320  145.9120 C   0  0  1  0  0  3  0  0  0  0  0  0
  186.5630  178.4050  144.8630 C   0  0  2  0  0  3  0  0  0  0  0  0
  186.4470  178.6680  142.0070 O   0  0  0  0  0  0  0  0  0  0  0  0
  184.1140  178.1780  143.3800 O   0  0  0  0  0  1  0  0  0  0  0  0
  185.9390  176.3400  143.0680 O   0  0  0  0  0  1  0  0  0  0  0  0
  185.7660  177.8240  143.3050 P   0  0  0  0  0  0  0  0  0  0  0  0
  191.4100  172.1120  141.4060 C   0  0  0  0  0  2  0  0  0  0  0  0
  191.2440  171.3820  140.0780 C   0  0  1  0  0  3  0  0  0  0  0  0
  191.3540  169.9240  140.2690 N   0  0  0  0  0  0  0  0  0  0  0  0
  192.7350  169.4820  140.2560 C   0  0  0  0  0  2  0  0  0  0  0  0
  191.9160  169.1510  142.4140 O   0  0  0  0  0  0  0  0  0  0  0  0
  190.8540  169.5670  141.5920 C   0  0  0  0  0  2  0  0  0  0  0  0
  192.9160  168.7230  141.5380 C   0  0  0  0  0  2  0  0  0  0  0  0
  190.2650  172.3400  138.0400 N   0  0  0  0  0  2  0  0  0  0  0  0
  189.7000  170.9950  138.2110 C   0  0  0  0  0  2  0  0  0  0  0  0
  189.9500  171.8270  139.3820 C   0  0  1  0  0  3  0  0  0  0  0  0
  1  5  2  0  0  0  0
  1 16  1  0  0  0  0
  2 10  1  0  0  0  0
  2  5  1  0  0  0  0
  3  4  1  0  0  0  0
  3  2  2  0  0  0  0
  4 36  1  1  0  0  0
  4  1  1  0  0  0  0
  6  8  1  0  0  0  0
  7  6  2  0  0  0  0
  9  7  1  0  0  0  0
  9 10  2  0  0  0  0
 10 11  1  0  0  0  0
 11  8  2  0  0  0  0
 11 13  1  0  0  0  0
 12 14  1  0  0  0  0
 13 12  1  0  0  0  0
 13 14  1  0  0  0  0
 16 15  1  6  0  0  0
 16 17  1  0  0  0  0
 17 18  1  0  0  0  0
 18 21  1  0  0  0  0
 19 17  2  0  0  0  0
 20 23  1  0  0  0  0
 21 24  1  0  0  0  0
 21 20  2  0  0  0  0
 23 22  2  0  0  0  0
 24 25  2  0  0  0  0
 25 26  1  0  0  0  0
 25 22  1  0  0  0  0
 28 29  1  6  0  0  0
 28 26  1  0  0  0  0
 30 27  1  6  0  0  0
 30 28  1  0  0  0  0
 31 35  1  6  0  0  0
 31 30  1  0  0  0  0
 31 28  1  0  0  0  0
 32 35  2  0  0  0  0
 34 35  1  0  0  0  0
 35 33  1  0  0  0  0
 37 38  1  0  0  0  0
 37 36  1  1  0  0  0
 38 41  1  0  0  0  0
 39 38  1  0  0  0  0
 39 42  1  0  0  0  0
 41 40  1  0  0  0  0
 42 40  1  0  0  0  0
 43 44  1  0  0  0  0
 43 45  1  0  0  0  0
 44 45  1  0  0  0  0
 45 37  1  1  0  0  0
M  END
>  <MODEL>
7

>  <REMARK>
 VINA RESULT:      -6.7      2.660      5.548
  Name = 
  12 active torsions:
  status: ('A' for Active; 'I' for Inactive)
    1  A    between atoms: C_6  and  C_44
    2  A    between atoms: N_7  and  C_41
    3  A    between atoms: C_9  and  C_24
    4  A    between atoms: C_14  and  N_16
    5  A    between atoms: N_16  and  C_39
    6  A    between atoms: C_18  and  N_43
    7  A    between atoms: C_19  and  C_24
    8  A    between atoms: C_22  and  C_26
    9  A    between atoms: C_31  and  C_41
   10  A    between atoms: C_32  and  C_35
   11  A    between atoms: C_35  and  C_41
   12  A    between atoms: P_36  and  C_38
                            x       y       z     vdW  Elec       q    Type
                         _______ _______ _______ _____ _____    ______ ____

>  <TORSDO>
F 12

$$$$
=
 OpenBabel11042415143D

 45 51  0  0  1  0  0  0  0  0999 V2000
  190.9950  173.8550  141.6300 C   0  0  0  0  0  0  0  0  0  0  0  0
  191.5380  173.1420  139.6610 C   0  0  0  0  0  0  0  0  0  0  0  0
  192.5500  172.7570  140.3690 N   0  0  0  0  0  0  0  0  0  0  0  0
  192.3200  173.1810  141.7440 C   0  0  1  0  0  3  0  0  0  0  0  0
  190.5540  173.8340  140.4170 N   0  0  0  0  0  0  0  0  0  0  0  0
  191.3980  172.4000  135.4630 N   0  0  0  0  0  0  0  0  0  0  0  0
  192.0890  173.4600  135.9530 C   0  0  0  0  0  3  0  0  0  0  0  0
  190.7170  171.5590  136.2830 C   0  0  0  0  0  3  0  0  0  0  0  0
  192.1190  173.7000  137.3240 C   0  0  0  0  0  3  0  0  0  0  0  0
  191.4290  172.8560  138.2070 C   0  0  0  0  0  0  0  0  0  0  0  0
  190.6910  171.7660  137.6710 C   0  0  0  0  0  0  0  0  0  0  0  0
  189.8150  169.4590  137.8170 C   0  0  0  0  0  2  0  0  0  0  0  0
  189.9470  170.7870  138.5450 C   0  0  0  0  0  3  0  0  0  0  0  0
  190.8030  169.5930  138.9480 C   0  0  0  0  0  2  0  0  0  0  0  0
  189.2420  175.5520  142.3430 C   0  0  0  0  0  1  0  0  0  0  0  0
  190.2600  174.5030  142.7700 C   0  0  1  0  0  3  0  0  0  0  0  0
  189.7000  173.5080  143.7490 C   0  0  0  0  0  0  0  0  0  0  0  0
  189.6740  173.7210  145.1710 N   0  0  0  0  0  2  0  0  0  0  0  0
  189.2880  172.4090  143.3000 O   0  0  0  0  0  0  0  0  0  0  0  0
  190.9090  175.5450  146.3020 C   0  0  0  0  0  3  0  0  0  0  0  0
  189.7060  174.9620  145.8860 C   0  0  0  0  0  0  0  0  0  0  0  0
  189.7020  177.4360  147.2060 C   0  0  0  0  0  3  0  0  0  0  0  0
  190.9090  176.7750  146.9640 C   0  0  0  0  0  3  0  0  0  0  0  0
  188.5050  175.6400  146.1140 C   0  0  0  0  0  3  0  0  0  0  0  0
  188.4950  176.8750  146.7810 C   0  0  0  0  0  0  0  0  0  0  0  0
  187.2710  177.5690  147.0430 N   0  0  0  0  0  2  0  0  0  0  0  0
  184.3130  179.0860  145.5280 O   0  0  0  0  0  1  0  0  0  0  0  0
  186.1880  177.6840  146.0770 C   0  0  1  0  0  0  0  0  0  0  0  0
  185.2570  176.6430  146.0460 O   0  0  0  0  0  1  0  0  0  0  0  0
  185.6740  179.0950  145.8440 C   0  0  1  0  0  3  0  0  0  0  0  0
  186.5510  178.3900  144.7820 C   0  0  2  0  0  3  0  0  0  0  0  0
  185.9440  176.1290  143.1210 O   0  0  0  0  0  1  0  0  0  0  0  0
  186.3060  178.5810  141.9280 O   0  0  0  0  0  0  0  0  0  0  0  0
  184.1770  178.0350  143.3310 O   0  0  0  0  0  1  0  0  0  0  0  0
  185.6680  177.7900  143.2790 P   0  0  0  0  0  0  0  0  0  0  0  0
  193.3820  174.1860  142.1670 C   0  0  0  0  0  2  0  0  0  0  0  0
  194.2090  173.6440  143.3270 C   0  0  1  0  0  3  0  0  0  0  0  0
  194.9960  174.7240  143.9530 N   0  0  0  0  0  0  0  0  0  0  0  0
  196.4170  174.5580  143.7200 C   0  0  0  0  0  2  0  0  0  0  0  0
  195.7400  176.4670  142.5660 O   0  0  0  0  0  0  0  0  0  0  0  0
  194.6560  175.9990  143.3290 C   0  0  0  0  0  2  0  0  0  0  0  0
  196.8700  175.8530  143.1100 C   0  0  0  0  0  2  0  0  0  0  0  0
  193.8920  171.5440  144.5580 N   0  0  0  0  0  2  0  0  0  0  0  0
  194.0350  172.6180  145.5490 C   0  0  0  0  0  2  0  0  0  0  0  0
  193.3140  172.8730  144.3070 C   0  0  1  0  0  3  0  0  0  0  0  0
  1  4  1  0  0  0  0
  1 16  1  0  0  0  0
  2  3  2  0  0  0  0
  2  5  1  0  0  0  0
  3  4  1  0  0  0  0
  4 36  1  6  0  0  0
  5  1  2  0  0  0  0
  6  7  2  0  0  0  0
  6  8  1  0  0  0  0
  7  9  1  0  0  0  0
  8 11  2  0  0  0  0
  9 10  2  0  0  0  0
 10  2  1  0  0  0  0
 11 10  1  0  0  0  0
 11 13  1  0  0  0  0
 12 13  1  0  0  0  0
 12 14  1  0  0  0  0
 13 14  1  0  0  0  0
 16 15  1  6  0  0  0
 16 17  1  0  0  0  0
 17 18  1  0  0  0  0
 18 21  1  0  0  0  0
 19 17  2  0  0  0  0
 20 23  1  0  0  0  0
 21 24  1  0  0  0  0
 21 20  2  0  0  0  0
 23 22  2  0  0  0  0
 24 25  2  0  0  0  0
 25 26  1  0  0  0  0
 25 22  1  0  0  0  0
 28 29  1  6  0  0  0
 28 26  1  0  0  0  0
 30 27  1  6  0  0  0
 30 28  1  0  0  0  0
 31 35  1  6  0  0  0
 31 30  1  0  0  0  0
 31 28  1  0  0  0  0
 32 35  1  0  0  0  0
 33 35  2  0  0  0  0
 35 34  1  0  0  0  0
 37 36  1  6  0  0  0
 37 38  1  0  0  0  0
 39 38  1  0  0  0  0
 40 42  1  0  0  0  0
 40 41  1  0  0  0  0
 41 38  1  0  0  0  0
 42 39  1  0  0  0  0
 43 44  1  0  0  0  0
 45 37  1  6  0  0  0
 45 43  1  0  0  0  0
 45 44  1  0  0  0  0
M  END
>  <MODEL>
8

>  <REMARK>
 VINA RESULT:      -6.7      2.277      3.482
  Name = 
  12 active torsions:
  status: ('A' for Active; 'I' for Inactive)
    1  A    between atoms: C_6  and  C_44
    2  A    between atoms: N_7  and  C_41
    3  A    between atoms: C_9  and  C_24
    4  A    between atoms: C_14  and  N_16
    5  A    between atoms: N_16  and  C_39
    6  A    between atoms: C_18  and  N_43
    7  A    between atoms: C_19  and  C_24
    8  A    between atoms: C_22  and  C_26
    9  A    between atoms: C_31  and  C_41
   10  A    between atoms: C_32  and  C_35
   11  A    between atoms: C_35  and  C_41
   12  A    between atoms: P_36  and  C_38
                            x       y       z     vdW  Elec       q    Type
                         _______ _______ _______ _____ _____    ______ ____

>  <TORSDO>
F 12

$$$$
=
 OpenBabel11042415143D

 45 51  0  0  1  0  0  0  0  0999 V2000
  192.2810  175.6920  143.6170 C   0  0  0  0  0  0  0  0  0  0  0  0
  191.1600  174.1750  142.5580 C   0  0  0  0  0  0  0  0  0  0  0  0
  192.1340  173.4840  143.0550 N   0  0  0  0  0  0  0  0  0  0  0  0
  192.9900  174.3940  143.8050 C   0  0  1  0  0  3  0  0  0  0  0  0
  191.2260  175.5560  142.8860 N   0  0  0  0  0  0  0  0  0  0  0  0
  187.9340  172.5220  140.3090 N   0  0  0  0  0  0  0  0  0  0  0  0
  187.7150  173.0550  141.5370 C   0  0  0  0  0  3  0  0  0  0  0  0
  189.1780  172.4780  139.7670 C   0  0  0  0  0  3  0  0  0  0  0  0
  188.7780  173.5820  142.2680 C   0  0  0  0  0  3  0  0  0  0  0  0
  190.0790  173.5570  141.7470 C   0  0  0  0  0  0  0  0  0  0  0  0
  190.2900  172.9720  140.4690 C   0  0  0  0  0  0  0  0  0  0  0  0
  191.5260  172.2950  138.4380 C   0  0  0  0  0  2  0  0  0  0  0  0
  191.6480  172.9310  139.8130 C   0  0  0  0  0  3  0  0  0  0  0  0
  191.7170  173.7860  138.5550 C   0  0  0  0  0  2  0  0  0  0  0  0
  191.7700  178.1600  143.9400 C   0  0  0  0  0  1  0  0  0  0  0  0
  192.7360  177.0080  144.1830 C   0  0  1  0  0  3  0  0  0  0  0  0
  193.1800  176.9100  145.6160 C   0  0  0  0  0  0  0  0  0  0  0  0
  192.2720  176.7920  146.7240 N   0  0  0  0  0  2  0  0  0  0  0  0
  194.4120  176.9960  145.8570 O   0  0  0  0  0  0  0  0  0  0  0  0
  190.6370  174.9330  146.6550 C   0  0  0  0  0  3  0  0  0  0  0  0
  190.9260  176.3010  146.7230 C   0  0  0  0  0  0  0  0  0  0  0  0
  188.2710  175.4040  146.8110 C   0  0  0  0  0  3  0  0  0  0  0  0
  189.3150  174.4840  146.6940 C   0  0  0  0  0  3  0  0  0  0  0  0
  189.8750  177.2140  146.8620 C   0  0  0  0  0  3  0  0  0  0  0  0
  188.5440  176.7720  146.8990 C   0  0  0  0  0  0  0  0  0  0  0  0
  187.4570  177.6950  147.0160 N   0  0  0  0  0  2  0  0  0  0  0  0
  184.2040  178.8200  145.7900 O   0  0  0  0  0  1  0  0  0  0  0  0
  186.3140  177.7130  146.1150 C   0  0  1  0  0  0  0  0  0  0  0  0
  185.5670  176.5350  146.0210 O   0  0  0  0  0  1  0  0  0  0  0  0
  185.5620  179.0310  146.0460 C   0  0  1  0  0  3  0  0  0  0  0  0
  186.4780  178.5840  144.8820 C   0  0  2  0  0  3  0  0  0  0  0  0
  185.7750  176.3000  143.2920 O   0  0  0  0  0  1  0  0  0  0  0  0
  186.3700  178.6620  142.0140 O   0  0  0  0  0  0  0  0  0  0  0  0
  184.1480  178.3370  143.3400 O   0  0  0  0  0  1  0  0  0  0  0  0
  185.6170  177.9820  143.3670 P   0  0  0  0  0  0  0  0  0  0  0  0
  194.3720  174.4570  143.1700 C   0  0  0  0  0  2  0  0  0  0  0  0
  195.3650  173.6020  143.9490 C   0  0  1  0  0  3  0  0  0  0  0  0
  195.8970  172.5200  143.0990 N   0  0  0  0  0  0  0  0  0  0  0  0
  195.1440  171.2920  143.2580 C   0  0  0  0  0  2  0  0  0  0  0  0
  194.7680  172.0650  141.0900 O   0  0  0  0  0  0  0  0  0  0  0  0
  195.7400  172.8820  141.6940 C   0  0  0  0  0  2  0  0  0  0  0  0
  194.7230  170.9060  141.8690 C   0  0  0  0  0  2  0  0  0  0  0  0
  196.5700  174.1570  146.0150 N   0  0  0  0  0  2  0  0  0  0  0  0
  197.5580  173.6630  145.0470 C   0  0  0  0  0  2  0  0  0  0  0  0
  196.4460  174.4860  144.5860 C   0  0  1  0  0  3  0  0  0  0  0  0
  1  4  1  0  0  0  0
  1 16  1  0  0  0  0
  2  5  1  0  0  0  0
  2  3  2  0  0  0  0
  3  4  1  0  0  0  0
  4 36  1  6  0  0  0
  5  1  2  0  0  0  0
  6  7  1  0  0  0  0
  7  9  2  0  0  0  0
  8  6  2  0  0  0  0
  8 11  1  0  0  0  0
 10  9  1  0  0  0  0
 10  2  1  0  0  0  0
 11 10  2  0  0  0  0
 12 14  1  0  0  0  0
 12 13  1  0  0  0  0
 13 11  1  0  0  0  0
 14 13  1  0  0  0  0
 16 15  1  1  0  0  0
 16 17  1  0  0  0  0
 17 19  2  0  0  0  0
 17 18  1  0  0  0  0
 20 23  2  0  0  0  0
 20 21  1  0  0  0  0
 21 18  1  0  0  0  0
 21 24  2  0  0  0  0
 22 25  2  0  0  0  0
 23 22  1  0  0  0  0
 24 25  1  0  0  0  0
 25 26  1  0  0  0  0
 28 29  1  6  0  0  0
 28 26  1  0  0  0  0
 30 27  1  6  0  0  0
 30 28  1  0  0  0  0
 31 35  1  6  0  0  0
 31 30  1  0  0  0  0
 31 28  1  0  0  0  0
 32 35  1  0  0  0  0
 33 35  2  0  0  0  0
 34 35  1  0  0  0  0
 37 36  1  6  0  0  0
 38 39  1  0  0  0  0
 38 37  1  0  0  0  0
 40 41  1  0  0  0  0
 40 42  1  0  0  0  0
 41 38  1  0  0  0  0
 42 39  1  0  0  0  0
 44 43  1  0  0  0  0
 45 37  1  6  0  0  0
 45 44  1  0  0  0  0
 45 43  1  0  0  0  0
M  END
>  <MODEL>
9

>  <REMARK>
 VINA RESULT:      -6.6      2.278      3.548
  Name = 
  12 active torsions:
  status: ('A' for Active; 'I' for Inactive)
    1  A    between atoms: C_6  and  C_44
    2  A    between atoms: N_7  and  C_41
    3  A    between atoms: C_9  and  C_24
    4  A    between atoms: C_14  and  N_16
    5  A    between atoms: N_16  and  C_39
    6  A    between atoms: C_18  and  N_43
    7  A    between atoms: C_19  and  C_24
    8  A    between atoms: C_22  and  C_26
    9  A    between atoms: C_31  and  C_41
   10  A    between atoms: C_32  and  C_35
   11  A    between atoms: C_35  and  C_41
   12  A    between atoms: P_36  and  C_38
                            x       y       z     vdW  Elec       q    Type
                         _______ _______ _______ _____ _____    ______ ____

>  <TORSDO>
F 12

$$$$
