=
 OpenBabel11042419063D

 57 61  0  0  1  0  0  0  0  0999 V2000
  186.2760  176.0530  143.2270 C   0  0  0  0  0  2  0  0  0  0  0  0
  190.4050  177.5760  148.1300 C   0  0  0  0  0  3  0  0  0  0  0  0
  191.6210  172.9580  142.4870 C   0  0  0  0  0  3  0  0  0  0  0  0
  189.5280  176.3970  146.1910 C   0  0  0  0  0  3  0  0  0  0  0  0
  189.9910  170.9310  138.3430 C   0  0  0  0  0  3  0  0  0  0  0  0
  192.4690  176.6030  148.3070 N   0  0  0  0  0  0  0  0  0  0  0  0
  190.2810  172.4560  140.4580 C   0  0  0  0  0  0  0  0  0  0  0  0
  192.4700  175.1490  146.4060 C   0  0  0  0  0  3  0  0  0  0  0  0
  190.6680  174.7580  144.7220 C   0  0  0  0  0  3  0  0  0  0  0  0
  188.7540  174.1950  139.5430 C   0  0  0  0  0  2  0  0  0  0  0  0
  190.9640  171.8850  141.6660 C   0  0  2  0  0  3  0  0  0  0  0  0
  192.9290  173.7270  144.4540 C   0  0  0  0  0  2  0  0  0  0  0  0
  192.3000  172.6570  143.5990 C   0  0  0  0  0  3  0  0  0  0  0  0
  189.5720  175.5080  145.1200 C   0  0  0  0  0  0  0  0  0  0  0  0
  187.3660  176.2240  144.2400 C   0  0  0  0  0  3  0  0  0  0  0  0
  186.7980  176.2950  141.8490 C   0  0  0  0  0  0  0  0  0  0  0  0
  191.6080  177.5060  148.8220 C   0  0  0  0  0  0  0  0  0  0  0  0
  189.6880  173.7260  140.5200 O   0  0  0  0  0  0  0  0  0  0  0  0
  189.9280  171.1310  142.4950 C   0  0  0  0  0  1  0  0  0  0  0  0
  187.4550  175.3450  141.2610 N   0  0  0  0  0  0  0  0  0  0  0  0
  190.5250  176.6530  147.1100 C   0  0  0  0  0  0  0  0  0  0  0  0
  188.1350  175.5130  139.9900 C   0  0  0  0  0  2  0  0  0  0  0  0
  191.9570  174.5640  145.2440 C   0  0  0  0  0  0  0  0  0  0  0  0
  188.4150  175.3920  144.2340 C   0  0  0  0  0  3  0  0  0  0  0  0
  191.8410  176.0550  147.2500 C   0  0  0  0  0  0  0  0  0  0  0  0
  190.1580  171.6960  139.3970 C   0  0  0  0  0  0  0  0  0  0  0  0
  193.4880  171.3340  135.8120 C   0  0  2  0  0  3  0  0  0  0  0  0
  190.9590  170.9430  137.1970 C   0  0  2  0  0  3  0  0  0  0  0  0
  192.2030  170.1490  137.5290 C   0  0  0  0  0  0  0  0  0  0  0  0
  192.9580  172.9230  136.5240 S   0  0  0  0  0  0  0  0  0  0  0  0
  193.3830  170.3370  136.8150 O   0  0  0  0  0  0  0  0  0  0  0  0
  192.1660  169.2470  138.4120 O   0  0  0  0  0  0  0  0  0  0  0  0
  191.2110  172.3930  136.7250 C   0  0  1  0  0  3  0  0  0  0  0  0
  189.4740  173.8090  135.8120 O   0  0  0  0  0  1  0  0  0  0  0  0
  189.6040  171.6340  135.1120 O   0  0  0  0  0  1  0  0  0  0  0  0
  190.3380  172.7520  135.5240 C   0  0  0  0  0  3  0  0  0  0  0  0
  194.9220  171.4200  135.2660 C   0  0  1  0  0  3  0  0  0  0  0  0
  195.2190  172.7060  134.8110 O   0  0  0  0  0  1  0  0  0  0  0  0
  196.9270  171.9670  136.4840 O   0  0  0  0  0  1  0  0  0  0  0  0
  195.9890  170.9550  136.2590 C   0  0  2  0  0  3  0  0  0  0  0  0
  197.1440  169.5230  134.5130 N   0  0  0  0  0  1  0  0  0  0  0  0
  196.8330  168.7450  136.6850 O   0  0  0  0  0  0  0  0  0  0  0  0
  196.6690  169.6800  135.8510 C   0  0  0  0  0  0  0  0  0  0  0  0
  191.9250  178.3390  150.0110 C   0  0  0  0  0  2  0  0  0  0  0  0
  191.9410  177.1640  152.1900 C   0  0  0  0  0  1  0  0  0  0  0  0
  191.0750  177.9160  151.1970 C   0  0  0  0  0  2  0  0  0  0  0  0
  186.7320  177.6920  141.2960 C   0  0  0  0  0  2  0  0  0  0  0  0
  186.2200  178.5810  142.2530 O   0  0  0  0  0  0  0  0  0  0  0  0
  182.8000  179.1780  143.2810 O   0  0  0  0  0  0  0  0  0  0  0  0
  184.2000  179.2780  143.4720 C   0  0  2  0  0  3  0  0  0  0  0  0
  184.8410  178.3260  142.4630 C   0  0  1  0  0  3  0  0  0  0  0  0
  182.4330  178.6650  142.0480 C   0  0  0  0  0  0  0  0  0  0  0  0
  181.1920  178.4620  141.7500 N   0  0  0  0  0  2  0  0  0  0  0  0
  183.7650  178.1560  140.9810 S   0  0  0  0  0  0  0  0  0  0  0  0
  183.6930  178.3940  145.6330 O   0  0  0  0  0  1  0  0  0  0  0  0
  185.8380  179.1620  145.3500 O   0  0  0  0  0  0  0  0  0  0  0  0
  184.5710  178.8670  144.8620 C   0  0  0  0  0  0  0  0  0  0  0  0
  1 15  1  0  0  0  0
  2 17  1  0  0  0  0
  3 13  2  0  0  0  0
  4 21  1  0  0  0  0
  5 26  2  0  0  0  0
  6 17  2  0  0  0  0
  7 18  1  0  0  0  0
  7 11  1  0  0  0  0
  8 25  2  0  0  0  0
  9 14  1  0  0  0  0
  9 23  2  0  0  0  0
 10 22  1  0  0  0  0
 10 18  1  0  0  0  0
 11  3  1  0  0  0  0
 11 19  1  1  0  0  0
 12 23  1  0  0  0  0
 13 12  1  0  0  0  0
 14  4  2  0  0  0  0
 16  1  1  0  0  0  0
 17 44  1  0  0  0  0
 20 16  2  0  0  0  0
 21 25  1  0  0  0  0
 21  2  2  0  0  0  0
 22 20  1  0  0  0  0
 23  8  1  0  0  0  0
 24 15  2  0  0  0  0
 24 14  1  0  0  0  0
 25  6  1  0  0  0  0
 26  7  2  0  0  0  0
 27 37  1  1  0  0  0
 27 30  1  0  0  0  0
 27 31  1  0  0  0  0
 28 29  1  0  0  0  0
 28  5  1  1  0  0  0
 29 32  2  0  0  0  0
 30 33  1  0  0  0  0
 31 29  1  0  0  0  0
 33 36  1  6  0  0  0
 33 28  1  0  0  0  0
 35 36  1  0  0  0  0
 36 34  1  0  0  0  0
 37 38  1  1  0  0  0
 37 40  1  0  0  0  0
 40 39  1  6  0  0  0
 41 43  1  0  0  0  0
 43 40  1  0  0  0  0
 43 42  2  0  0  0  0
 44 46  1  0  0  0  0
 46 45  1  0  0  0  0
 47 16  1  0  0  0  0
 47 48  1  0  0  0  0
 49 50  1  0  0  0  0
 50 57  1  1  0  0  0
 51 48  1  6  0  0  0
 51 50  1  0  0  0  0
 52 49  1  0  0  0  0
 53 52  2  0  0  0  0
 54 52  1  0  0  0  0
 54 51  1  0  0  0  0
 57 56  2  0  0  0  0
 57 55  1  0  0  0  0
M  END
>  <MODEL>
1

>  <REMARK>
 VINA RESULT:      -5.9      0.000      0.000
  Name = 
  11 active torsions:
  status: ('A' for Active; 'I' for Inactive)
    1  A    between atoms: C_4  and  C_22
    2  A    between atoms: C_5  and  C_51
    3  A    between atoms: C_12  and  C_16
    4  A    between atoms: C_17  and  C_39
    5  A    between atoms: C_17  and  C_46
    6  A    between atoms: C_22  and  C_56
    7  A    between atoms: C_27  and  O_36
    8  A    between atoms: C_30  and  C_54
    9  A    between atoms: C_31  and  C_56
   10  A    between atoms: C_35  and  C_40
   11  A    between atoms: O_36  and  C_40
                            x       y       z     vdW  Elec       q    Type
                         _______ _______ _______ _____ _____    ______ ____

>  <TORSDO>
F 11

$$$$
=
 OpenBabel11042419063D

 57 61  0  0  1  0  0  0  0  0999 V2000
  196.0000  170.9230  145.3650 C   0  0  0  0  0  2  0  0  0  0  0  0
  195.8540  168.9040  139.0950 C   0  0  0  0  0  3  0  0  0  0  0  0
  190.6090  172.6050  142.7590 C   0  0  0  0  0  3  0  0  0  0  0  0
  195.0430  169.8030  141.2050 C   0  0  0  0  0  3  0  0  0  0  0  0
  189.1770  174.7940  146.8950 C   0  0  0  0  0  3  0  0  0  0  0  0
  194.0190  169.2360  137.7700 N   0  0  0  0  0  0  0  0  0  0  0  0
  190.5970  173.6320  145.0200 C   0  0  0  0  0  0  0  0  0  0  0  0
  192.5400  170.3560  139.2830 C   0  0  0  0  0  3  0  0  0  0  0  0
  192.8940  170.9430  141.6830 C   0  0  0  0  0  3  0  0  0  0  0  0
  192.7410  174.4030  146.0210 C   0  0  0  0  0  2  0  0  0  0  0  0
  189.9110  172.6770  144.0880 C   0  0  2  0  0  3  0  0  0  0  0  0
  190.8580  171.7120  140.4550 C   0  0  0  0  0  2  0  0  0  0  0  0
  190.1460  171.8240  141.7780 C   0  0  0  0  0  3  0  0  0  0  0  0
  194.1280  170.4280  142.0490 C   0  0  0  0  0  0  0  0  0  0  0  0
  195.7300  170.5500  143.9400 C   0  0  0  0  0  3  0  0  0  0  0  0
  195.7880  172.3870  145.5740 C   0  0  0  0  0  0  0  0  0  0  0  0
  195.2820  168.7670  137.8370 C   0  0  0  0  0  0  0  0  0  0  0  0
  191.9920  173.7800  144.9740 O   0  0  0  0  0  0  0  0  0  0  0  0
  189.8710  171.3010  144.7500 C   0  0  0  0  0  1  0  0  0  0  0  0
  194.5770  172.8210  145.7200 N   0  0  0  0  0  0  0  0  0  0  0  0
  194.8800  169.5030  139.8680 C   0  0  0  0  0  0  0  0  0  0  0  0
  194.2350  174.2310  145.7790 C   0  0  0  0  0  2  0  0  0  0  0  0
  192.1520  170.9420  140.4920 C   0  0  0  0  0  0  0  0  0  0  0  0
  194.4950  170.6850  143.4410 C   0  0  0  0  0  3  0  0  0  0  0  0
  193.7310  169.6990  139.0000 C   0  0  0  0  0  0  0  0  0  0  0  0
  189.8780  174.2250  145.9420 C   0  0  0  0  0  0  0  0  0  0  0  0
  186.6510  178.1630  145.8620 C   0  0  2  0  0  3  0  0  0  0  0  0
  188.5740  176.1570  146.7260 C   0  0  2  0  0  3  0  0  0  0  0  0
  187.1430  176.1830  147.2180 C   0  0  0  0  0  0  0  0  0  0  0  0
  187.3090  177.3110  144.3950 S   0  0  0  0  0  0  0  0  0  0  0  0
  186.2660  177.1840  146.8130 O   0  0  0  0  0  0  0  0  0  0  0  0
  186.7470  175.3370  148.0670 O   0  0  0  0  0  0  0  0  0  0  0  0
  188.7790  176.6570  145.2780 C   0  0  1  0  0  3  0  0  0  0  0  0
  190.9830  177.0270  144.3490 O   0  0  0  0  0  1  0  0  0  0  0  0
  190.5210  177.8310  146.4400 O   0  0  0  0  0  1  0  0  0  0  0  0
  189.9960  177.5740  145.1690 C   0  0  0  0  0  3  0  0  0  0  0  0
  185.4680  179.0730  145.4930 C   0  0  1  0  0  3  0  0  0  0  0  0
  185.3280  180.1230  146.4010 O   0  0  0  0  0  1  0  0  0  0  0  0
  185.2980  180.9960  144.0530 O   0  0  0  0  0  1  0  0  0  0  0  0
  185.5320  179.6180  144.0650 C   0  0  2  0  0  3  0  0  0  0  0  0
  185.0600  178.5720  141.8030 N   0  0  0  0  0  1  0  0  0  0  0  0
  183.4330  178.6090  143.4670 O   0  0  0  0  0  0  0  0  0  0  0  0
  184.6080  178.9130  143.1150 C   0  0  0  0  0  0  0  0  0  0  0  0
  195.9840  168.1660  136.6730 C   0  0  0  0  0  2  0  0  0  0  0  0
  197.2010  170.1620  135.8550 C   0  0  0  0  0  1  0  0  0  0  0  0
  196.0930  169.1740  135.5410 C   0  0  0  0  0  2  0  0  0  0  0  0
  196.9600  173.3110  145.3850 C   0  0  0  0  0  2  0  0  0  0  0  0
  196.5630  174.4890  144.7340 O   0  0  0  0  0  0  0  0  0  0  0  0
  196.7560  175.2820  141.2070 O   0  0  0  0  0  0  0  0  0  0  0  0
  196.3680  175.5780  142.5370 C   0  0  2  0  0  3  0  0  0  0  0  0
  196.5370  174.2830  143.3320 C   0  0  1  0  0  3  0  0  0  0  0  0
  197.5540  174.1570  141.0880 C   0  0  0  0  0  0  0  0  0  0  0  0
  197.9410  173.7300  139.9320 N   0  0  0  0  0  2  0  0  0  0  0  0
  197.8700  173.2550  142.5910 S   0  0  0  0  0  0  0  0  0  0  0  0
  194.5280  176.7300  143.5360 O   0  0  0  0  0  1  0  0  0  0  0  0
  194.0320  175.4960  141.6650 O   0  0  0  0  0  0  0  0  0  0  0  0
  194.9370  176.0150  142.5820 C   0  0  0  0  0  0  0  0  0  0  0  0
  1 16  1  0  0  0  0
  2 21  1  0  0  0  0
  3 11  1  0  0  0  0
  4 14  1  0  0  0  0
  6 17  1  0  0  0  0
  6 25  2  0  0  0  0
  7 26  2  0  0  0  0
  8 23  2  0  0  0  0
  9 14  2  0  0  0  0
 11 19  1  1  0  0  0
 11  7  1  0  0  0  0
 12 23  1  0  0  0  0
 12 13  1  0  0  0  0
 13  3  2  0  0  0  0
 14 24  1  0  0  0  0
 15  1  1  0  0  0  0
 16 20  2  0  0  0  0
 17  2  2  0  0  0  0
 18  7  1  0  0  0  0
 18 10  1  0  0  0  0
 20 22  1  0  0  0  0
 21  4  2  0  0  0  0
 22 10  1  0  0  0  0
 23  9  1  0  0  0  0
 24 15  2  0  0  0  0
 25  8  1  0  0  0  0
 25 21  1  0  0  0  0
 26  5  2  0  0  0  0
 27 37  1  6  0  0  0
 27 31  1  0  0  0  0
 28  5  1  6  0  0  0
 28 29  1  0  0  0  0
 29 32  2  0  0  0  0
 30 33  1  0  0  0  0
 30 27  1  0  0  0  0
 31 29  1  0  0  0  0
 33 36  1  1  0  0  0
 33 28  1  0  0  0  0
 34 36  1  0  0  0  0
 36 35  1  0  0  0  0
 37 38  1  1  0  0  0
 40 39  1  1  0  0  0
 40 37  1  0  0  0  0
 41 43  1  0  0  0  0
 43 42  2  0  0  0  0
 43 40  1  0  0  0  0
 44 17  1  0  0  0  0
 46 45  1  0  0  0  0
 46 44  1  0  0  0  0
 47 16  1  0  0  0  0
 48 47  1  0  0  0  0
 49 50  1  0  0  0  0
 50 57  1  6  0  0  0
 50 51  1  0  0  0  0
 51 48  1  1  0  0  0
 52 49  1  0  0  0  0
 52 54  1  0  0  0  0
 53 52  2  0  0  0  0
 54 51  1  0  0  0  0
 56 57  2  0  0  0  0
 57 55  1  0  0  0  0
M  END
>  <MODEL>
2

>  <REMARK>
 VINA RESULT:      -5.6      3.955     11.992
  Name = 
  11 active torsions:
  status: ('A' for Active; 'I' for Inactive)
    1  A    between atoms: C_4  and  C_22
    2  A    between atoms: C_5  and  C_51
    3  A    between atoms: C_12  and  C_16
    4  A    between atoms: C_17  and  C_39
    5  A    between atoms: C_17  and  C_46
    6  A    between atoms: C_22  and  C_56
    7  A    between atoms: C_27  and  O_36
    8  A    between atoms: C_30  and  C_54
    9  A    between atoms: C_31  and  C_56
   10  A    between atoms: C_35  and  C_40
   11  A    between atoms: O_36  and  C_40
                            x       y       z     vdW  Elec       q    Type
                         _______ _______ _______ _____ _____    ______ ____

>  <TORSDO>
F 11

$$$$
=
 OpenBabel11042419063D

 57 61  0  0  1  0  0  0  0  0999 V2000
  193.9380  173.6270  143.6290 C   0  0  0  0  0  2  0  0  0  0  0  0
  194.8680  169.9040  138.2730 C   0  0  0  0  0  3  0  0  0  0  0  0
  188.6960  173.4380  140.2870 C   0  0  0  0  0  3  0  0  0  0  0  0
  193.6770  171.2000  139.9520 C   0  0  0  0  0  3  0  0  0  0  0  0
  186.4460  176.4080  143.4590 C   0  0  0  0  0  3  0  0  0  0  0  0
  193.1750  169.4880  136.7920 N   0  0  0  0  0  0  0  0  0  0  0  0
  188.2490  175.0480  142.1240 C   0  0  0  0  0  0  0  0  0  0  0  0
  191.3650  170.6940  137.7930 C   0  0  0  0  0  3  0  0  0  0  0  0
  191.3300  172.0010  139.9200 C   0  0  0  0  0  3  0  0  0  0  0  0
  190.1060  176.4650  142.9810 C   0  0  0  0  0  2  0  0  0  0  0  0
  187.8420  173.7530  141.4830 C   0  0  2  0  0  3  0  0  0  0  0  0
  189.3590  171.9850  138.3850 C   0  0  0  0  0  2  0  0  0  0  0  0
  188.4850  172.3340  139.5610 C   0  0  0  0  0  3  0  0  0  0  0  0
  192.5790  171.8560  140.5050 C   0  0  0  0  0  0  0  0  0  0  0  0
  193.9030  172.8170  142.3700 C   0  0  0  0  0  3  0  0  0  0  0  0
  193.4700  175.0210  143.3700 C   0  0  0  0  0  0  0  0  0  0  0  0
  194.4800  169.3060  137.0810 C   0  0  0  0  0  0  0  0  0  0  0  0
  189.5970  175.4380  142.1260 O   0  0  0  0  0  0  0  0  0  0  0  0
  187.9450  172.6440  142.5260 C   0  0  0  0  0  1  0  0  0  0  0  0
  192.1950  175.2420  143.2960 N   0  0  0  0  0  0  0  0  0  0  0  0
  193.7250  170.5040  138.7620 C   0  0  0  0  0  0  0  0  0  0  0  0
  191.6260  176.5180  142.9020 C   0  0  0  0  0  2  0  0  0  0  0  0
  190.7460  171.5180  138.7390 C   0  0  0  0  0  0  0  0  0  0  0  0
  192.7310  172.5660  141.7740 C   0  0  0  0  0  3  0  0  0  0  0  0
  192.6720  170.2220  137.8020 C   0  0  0  0  0  0  0  0  0  0  0  0
  187.3390  175.7330  142.7720 C   0  0  0  0  0  0  0  0  0  0  0  0
  183.3300  178.9060  141.7710 C   0  0  2  0  0  3  0  0  0  0  0  0
  185.6570  177.5250  142.8450 C   0  0  2  0  0  3  0  0  0  0  0  0
  184.4440  177.8600  143.6860 C   0  0  0  0  0  0  0  0  0  0  0  0
  183.6240  177.4020  140.7900 S   0  0  0  0  0  0  0  0  0  0  0  0
  183.3690  178.5580  143.1460 O   0  0  0  0  0  0  0  0  0  0  0  0
  184.4250  177.5760  144.9170 O   0  0  0  0  0  0  0  0  0  0  0  0
  185.3600  177.2170  141.3600 C   0  0  1  0  0  3  0  0  0  0  0  0
  186.8460  177.0230  139.4600 O   0  0  0  0  0  1  0  0  0  0  0  0
  187.4320  178.4150  141.1790 O   0  0  0  0  0  1  0  0  0  0  0  0
  186.3660  177.8990  140.4340 C   0  0  0  0  0  3  0  0  0  0  0  0
  181.9880  179.5570  141.4020 C   0  0  1  0  0  3  0  0  0  0  0  0
  182.0420  180.1620  140.1460 O   0  0  0  0  0  1  0  0  0  0  0  0
  180.2810  178.3590  140.1960 O   0  0  0  0  0  1  0  0  0  0  0  0
  180.7980  178.5980  141.4730 C   0  0  2  0  0  3  0  0  0  0  0  0
  178.3580  179.0820  141.9660 N   0  0  0  0  0  1  0  0  0  0  0  0
  179.9950  179.4120  143.5870 O   0  0  0  0  0  0  0  0  0  0  0  0
  179.7160  179.0560  142.4070 C   0  0  0  0  0  0  0  0  0  0  0  0
  195.4030  168.5410  136.2040 C   0  0  0  0  0  2  0  0  0  0  0  0
  197.1120  169.1390  134.5140 C   0  0  0  0  0  1  0  0  0  0  0  0
  195.6570  169.2980  134.9110 C   0  0  0  0  0  2  0  0  0  0  0  0
  194.4910  176.0570  142.9860 C   0  0  0  0  0  2  0  0  0  0  0  0
  194.4420  176.3150  141.6080 O   0  0  0  0  0  0  0  0  0  0  0  0
  197.4820  174.4360  141.0280 O   0  0  0  0  0  0  0  0  0  0  0  0
  196.5230  175.0330  141.8830 C   0  0  2  0  0  3  0  0  0  0  0  0
  195.6690  175.9440  141.0020 C   0  0  1  0  0  3  0  0  0  0  0  0
  197.1350  174.4570  139.6880 C   0  0  0  0  0  0  0  0  0  0  0  0
  197.9340  174.0000  138.7820 N   0  0  0  0  0  2  0  0  0  0  0  0
  195.6140  175.2910  139.2830 S   0  0  0  0  0  0  0  0  0  0  0  0
  197.4710  177.0560  142.7300 O   0  0  0  0  0  0  0  0  0  0  0  0
  197.6710  175.2160  144.0910 O   0  0  0  0  0  1  0  0  0  0  0  0
  197.1990  175.8440  142.9450 C   0  0  0  0  0  0  0  0  0  0  0  0
  2 21  1  0  0  0  0
  3 11  1  0  0  0  0
  4 14  1  0  0  0  0
  6 17  1  0  0  0  0
  6 25  2  0  0  0  0
  7 18  1  0  0  0  0
  7 26  2  0  0  0  0
  8 25  1  0  0  0  0
  8 23  2  0  0  0  0
  9 14  2  0  0  0  0
 11  7  1  0  0  0  0
 11 19  1  1  0  0  0
 12 23  1  0  0  0  0
 12 13  1  0  0  0  0
 13  3  2  0  0  0  0
 14 24  1  0  0  0  0
 15  1  1  0  0  0  0
 16  1  1  0  0  0  0
 17  2  2  0  0  0  0
 18 10  1  0  0  0  0
 20 16  2  0  0  0  0
 21  4  2  0  0  0  0
 22 10  1  0  0  0  0
 22 20  1  0  0  0  0
 23  9  1  0  0  0  0
 24 15  2  0  0  0  0
 25 21  1  0  0  0  0
 26  5  2  0  0  0  0
 27 37  1  6  0  0  0
 27 31  1  0  0  0  0
 28  5  1  1  0  0  0
 28 29  1  0  0  0  0
 29 32  2  0  0  0  0
 30 33  1  0  0  0  0
 30 27  1  0  0  0  0
 31 29  1  0  0  0  0
 33 36  1  6  0  0  0
 33 28  1  0  0  0  0
 34 36  1  0  0  0  0
 36 35  1  0  0  0  0
 37 38  1  6  0  0  0
 37 40  1  0  0  0  0
 40 39  1  6  0  0  0
 40 43  1  0  0  0  0
 41 43  1  0  0  0  0
 43 42  2  0  0  0  0
 44 17  1  0  0  0  0
 45 46  1  0  0  0  0
 46 44  1  0  0  0  0
 47 16  1  0  0  0  0
 48 47  1  0  0  0  0
 49 50  1  0  0  0  0
 50 57  1  1  0  0  0
 51 48  1  1  0  0  0
 51 50  1  0  0  0  0
 52 49  1  0  0  0  0
 53 52  2  0  0  0  0
 54 52  1  0  0  0  0
 54 51  1  0  0  0  0
 55 57  2  0  0  0  0
 57 56  1  0  0  0  0
M  END
>  <MODEL>
3

>  <REMARK>
 VINA RESULT:      -3.3      3.888     12.117
  Name = 
  11 active torsions:
  status: ('A' for Active; 'I' for Inactive)
    1  A    between atoms: C_4  and  C_22
    2  A    between atoms: C_5  and  C_51
    3  A    between atoms: C_12  and  C_16
    4  A    between atoms: C_17  and  C_39
    5  A    between atoms: C_17  and  C_46
    6  A    between atoms: C_22  and  C_56
    7  A    between atoms: C_27  and  O_36
    8  A    between atoms: C_30  and  C_54
    9  A    between atoms: C_31  and  C_56
   10  A    between atoms: C_35  and  C_40
   11  A    between atoms: O_36  and  C_40
                            x       y       z     vdW  Elec       q    Type
                         _______ _______ _______ _____ _____    ______ ____

>  <TORSDO>
F 11

$$$$
