=
 OpenBabel11042419033D

 43 47  0  0  1  0  0  0  0  0999 V2000
  189.0780  173.7770  139.3910 C   0  0  0  0  0  2  0  0  0  0  0  0
  188.9490  174.6730  142.3190 C   0  0  0  0  0  2  0  0  0  0  0  0
  190.1660  173.9090  141.7750 C   0  0  2  0  0  3  0  0  0  0  0  0
  187.3830  176.3980  141.2880 N   0  0  0  0  0  0  0  0  0  0  0  0
  186.0910  177.4310  139.6900 O   0  0  0  0  0  0  0  0  0  0  0  0
  189.7960  173.1050  140.5410 C   0  0  0  0  0  0  0  0  0  0  0  0
  188.2500  174.9190  139.8950 C   0  0  0  0  0  0  0  0  0  0  0  0
  187.4360  175.6720  139.1920 O   0  0  0  0  0  0  0  0  0  0  0  0
  190.1130  171.9320  140.4470 O   0  0  0  0  0  0  0  0  0  0  0  0
  188.2360  175.3600  141.1990 C   0  0  0  0  0  0  0  0  0  0  0  0
  186.9270  176.5510  140.0280 C   0  0  0  0  0  0  0  0  0  0  0  0
  186.4570  176.6750  144.8490 C   0  0  0  0  0  2  0  0  0  0  0  0
  186.1680  176.3170  143.4060 C   0  0  0  0  0  2  0  0  0  0  0  0
  185.1990  177.1990  145.5430 C   0  0  2  0  0  3  0  0  0  0  0  0
  184.9550  178.7060  145.3570 C   0  0  2  0  0  3  0  0  0  0  0  0
  183.8270  179.0890  146.0800 O   0  0  0  0  0  1  0  0  0  0  0  0
  187.0080  177.1720  142.4710 C   0  0  2  0  0  3  0  0  0  0  0  0
  186.2900  178.4540  142.0550 C   0  0  0  0  0  2  0  0  0  0  0  0
  184.7410  179.0700  143.8980 C   0  0  0  0  0  2  0  0  0  0  0  0
  186.0620  179.3900  143.2280 C   0  0  0  0  0  2  0  0  0  0  0  0
  186.2490  177.2810  147.5760 C   0  0  0  0  0  1  0  0  0  0  0  0
  185.1270  176.7870  146.8920 O   0  0  0  0  0  0  0  0  0  0  0  0
  190.6750  173.0840  142.7820 O   0  0  0  0  0  0  0  0  0  0  0  0
  192.0670  173.2340  142.7240 C   0  0  0  0  0  2  0  0  0  0  0  0
  192.7570  172.3520  143.7620 C   0  0  0  0  0  2  0  0  0  0  0  0
  192.6930  172.9470  145.0250 O   0  0  0  0  0  0  0  0  0  0  0  0
  193.9450  173.5390  145.2060 C   0  0  0  0  0  2  0  0  0  0  0  0
  193.8150  175.0390  145.4670 C   0  0  2  0  0  3  0  0  0  0  0  0
  195.0490  175.5730  145.8550 O   0  0  0  0  0  0  0  0  0  0  0  0
  195.9040  175.3130  144.7820 C   0  0  0  0  0  2  0  0  0  0  0  0
  197.1790  176.4870  142.8920 C   0  0  2  0  0  3  0  0  0  0  0  0
  197.9160  175.1520  142.8190 C   0  0  0  0  0  1  0  0  0  0  0  0
  196.0680  176.5690  143.9440 C   0  0  1  0  0  3  0  0  0  0  0  0
  195.7310  176.2780  142.5010 C   0  0  0  0  0  2  0  0  0  0  0  0
  192.7830  175.3120  146.5510 C   0  0  0  0  0  2  0  0  0  0  0  0
  191.9660  176.4690  146.1940 N   0  0  0  0  0  0  0  0  0  0  0  0
  191.8810  177.3230  142.6900 O   0  0  0  0  0  1  0  0  0  0  0  0
  190.3660  177.2220  144.5100 C   0  0  0  0  0  2  0  0  0  0  0  0
  191.5370  176.3050  144.8080 C   0  0  1  0  0  3  0  0  0  0  0  0
  191.7530  177.6060  144.0500 C   0  0  1  0  0  3  0  0  0  0  0  0
  190.7910  176.5270  147.0780 C   0  0  0  0  0  2  0  0  0  0  0  0
  190.4390  175.1790  147.7180 C   0  0  0  0  0  2  0  0  0  0  0  0
  189.1050  174.7030  147.1910 C   0  0  0  0  0  1  0  0  0  0  0  0
  1  7  1  0  0  0  0
  1  6  1  0  0  0  0
  3  2  1  0  0  0  0
  3 23  1  1  0  0  0
  5 11  2  0  0  0  0
  6  3  1  0  0  0  0
  7 10  2  0  0  0  0
  8  7  1  0  0  0  0
  8 11  1  0  0  0  0
  9  6  2  0  0  0  0
 10  4  1  0  0  0  0
 10  2  1  0  0  0  0
 11  4  1  0  0  0  0
 12 14  1  0  0  0  0
 13 12  1  0  0  0  0
 14 22  1  1  0  0  0
 15 14  1  0  0  0  0
 15 16  1  1  0  0  0
 17  4  1  6  0  0  0
 17 13  1  0  0  0  0
 18 17  1  0  0  0  0
 18 20  1  0  0  0  0
 19 15  1  0  0  0  0
 20 19  1  0  0  0  0
 22 21  1  0  0  0  0
 24 23  1  0  0  0  0
 24 25  1  0  0  0  0
 25 26  1  0  0  0  0
 26 27  1  0  0  0  0
 28 27  1  1  0  0  0
 28 29  1  0  0  0  0
 28 35  1  0  0  0  0
 30 29  1  0  0  0  0
 31 32  1  1  0  0  0
 31 33  1  0  0  0  0
 33 30  1  1  0  0  0
 34 31  1  0  0  0  0
 34 33  1  0  0  0  0
 36 35  1  0  0  0  0
 36 41  1  0  0  0  0
 38 39  1  0  0  0  0
 39 36  1  1  0  0  0
 40 37  1  6  0  0  0
 40 38  1  0  0  0  0
 40 39  1  0  0  0  0
 41 42  1  0  0  0  0
 43 42  1  0  0  0  0
M  END
>  <MODEL>
1

>  <REMARK>
 VINA RESULT:      -6.9      0.000      0.000
  Name = 
  16 active torsions:
  status: ('A' for Active; 'I' for Inactive)
    1  A    between atoms: C_7  and  O_39
    2  A    between atoms: N_9  and  C_20
    3  A    between atoms: C_11  and  C_24
    4  A    between atoms: C_11  and  O_30
    5  A    between atoms: C_13  and  O_42
    6  A    between atoms: C_15  and  C_17
    7  A    between atoms: C_15  and  N_33
    8  A    between atoms: C_16  and  C_18
    9  A    between atoms: C_16  and  O_21
   10  A    between atoms: O_21  and  C_22
   11  A    between atoms: C_22  and  C_26
   12  A    between atoms: C_22  and  C_43
   13  A    between atoms: C_24  and  O_39
   14  A    between atoms: C_26  and  N_33
   15  A    between atoms: O_30  and  C_43
   16  A    between atoms: C_32  and  N_33
                            x       y       z     vdW  Elec       q    Type
                         _______ _______ _______ _____ _____    ______ ____

>  <TORSDO>
F 16

$$$$
=
 OpenBabel11042419033D

 43 47  0  0  1  0  0  0  0  0999 V2000
  195.1040  174.4930  146.1240 C   0  0  0  0  0  2  0  0  0  0  0  0
  192.7090  174.8820  144.2510 C   0  0  0  0  0  2  0  0  0  0  0  0
  193.6840  176.0330  144.5440 C   0  0  2  0  0  3  0  0  0  0  0  0
  193.0230  172.3660  144.0060 N   0  0  0  0  0  0  0  0  0  0  0  0
  193.8520  170.2620  144.4240 O   0  0  0  0  0  0  0  0  0  0  0  0
  194.4090  175.8100  145.8610 C   0  0  0  0  0  0  0  0  0  0  0  0
  194.4230  173.3900  145.3740 C   0  0  0  0  0  0  0  0  0  0  0  0
  194.7040  172.1090  145.4310 O   0  0  0  0  0  0  0  0  0  0  0  0
  194.4760  176.7010  146.6900 O   0  0  0  0  0  0  0  0  0  0  0  0
  193.3850  173.5700  144.4890 C   0  0  0  0  0  0  0  0  0  0  0  0
  193.8690  171.5070  144.6110 C   0  0  0  0  0  0  0  0  0  0  0  0
  191.6900  171.9650  140.5890 C   0  0  0  0  0  2  0  0  0  0  0  0
  192.1590  172.8000  141.7620 C   0  0  0  0  0  2  0  0  0  0  0  0
  190.5510  172.6620  139.8450 C   0  0  2  0  0  3  0  0  0  0  0  0
  189.1540  172.3880  140.4270 C   0  0  2  0  0  3  0  0  0  0  0  0
  188.1890  173.0130  139.6400 O   0  0  0  0  0  1  0  0  0  0  0  0
  191.9500  172.0440  143.0650 C   0  0  2  0  0  3  0  0  0  0  0  0
  190.5910  172.3400  143.6950 C   0  0  0  0  0  2  0  0  0  0  0  0
  189.0230  172.9010  141.8510 C   0  0  0  0  0  2  0  0  0  0  0  0
  189.4420  171.8340  142.8430 C   0  0  0  0  0  2  0  0  0  0  0  0
  190.9990  173.6550  137.8300 C   0  0  0  0  0  1  0  0  0  0  0  0
  190.6210  172.4530  138.4490 O   0  0  0  0  0  0  0  0  0  0  0  0
  192.9770  177.2400  144.5540 O   0  0  0  0  0  0  0  0  0  0  0  0
  191.7500  176.9620  143.9370 C   0  0  0  0  0  2  0  0  0  0  0  0
  191.1610  178.2190  143.2990 C   0  0  0  0  0  2  0  0  0  0  0  0
  189.8370  178.3970  143.7080 O   0  0  0  0  0  0  0  0  0  0  0  0
  189.0950  177.5220  142.9110 C   0  0  0  0  0  2  0  0  0  0  0  0
  187.9230  176.9230  143.6880 C   0  0  2  0  0  3  0  0  0  0  0  0
  188.2750  175.6740  144.2100 O   0  0  0  0  0  0  0  0  0  0  0  0
  188.6370  175.9300  145.5340 C   0  0  0  0  0  2  0  0  0  0  0  0
  190.5020  175.1230  147.0990 C   0  0  2  0  0  3  0  0  0  0  0  0
  190.6150  176.6110  147.4200 C   0  0  0  0  0  1  0  0  0  0  0  0
  189.4110  174.7480  146.0910 C   0  0  1  0  0  3  0  0  0  0  0  0
  189.1570  174.6120  147.5740 C   0  0  0  0  0  2  0  0  0  0  0  0
  186.7030  176.7710  142.7930 C   0  0  0  0  0  2  0  0  0  0  0  0
  185.5740  177.5190  143.3410 N   0  0  0  0  0  0  0  0  0  0  0  0
  185.6040  177.6200  146.9480 O   0  0  0  0  0  1  0  0  0  0  0  0
  184.9310  179.0200  145.1580 C   0  0  0  0  0  2  0  0  0  0  0  0
  185.9760  178.0480  144.6410 C   0  0  1  0  0  3  0  0  0  0  0  0
  184.9770  177.6110  145.7020 C   0  0  1  0  0  3  0  0  0  0  0  0
  185.2340  178.6260  142.4330 C   0  0  0  0  0  2  0  0  0  0  0  0
  185.2610  178.2310  140.9510 C   0  0  0  0  0  2  0  0  0  0  0  0
  183.8510  178.2220  140.4060 C   0  0  0  0  0  1  0  0  0  0  0  0
  2 10  1  0  0  0  0
  2  3  1  0  0  0  0
  3 23  1  1  0  0  0
  3  6  1  0  0  0  0
  4 10  1  0  0  0  0
  4 11  1  0  0  0  0
  5 11  2  0  0  0  0
  6  1  1  0  0  0  0
  6  9  2  0  0  0  0
  7  8  1  0  0  0  0
  7  1  1  0  0  0  0
 10  7  2  0  0  0  0
 11  8  1  0  0  0  0
 12 13  1  0  0  0  0
 14 22  1  6  0  0  0
 14 15  1  0  0  0  0
 14 12  1  0  0  0  0
 15 16  1  6  0  0  0
 15 19  1  0  0  0  0
 17 13  1  6  0  0  0
 17 18  1  0  0  0  0
 17  4  1  0  0  0  0
 19 20  1  0  0  0  0
 20 18  1  0  0  0  0
 21 22  1  0  0  0  0
 24 23  1  0  0  0  0
 25 26  1  0  0  0  0
 25 24  1  0  0  0  0
 27 28  1  0  0  0  0
 27 26  1  0  0  0  0
 28 35  1  6  0  0  0
 28 29  1  0  0  0  0
 29 30  1  0  0  0  0
 31 32  1  1  0  0  0
 31 34  1  0  0  0  0
 33 30  1  1  0  0  0
 33 31  1  0  0  0  0
 33 34  1  0  0  0  0
 35 36  1  0  0  0  0
 38 40  1  0  0  0  0
 39 36  1  6  0  0  0
 39 38  1  0  0  0  0
 39 40  1  0  0  0  0
 40 37  1  1  0  0  0
 41 36  1  0  0  0  0
 42 41  1  0  0  0  0
 43 42  1  0  0  0  0
M  END
>  <MODEL>
2

>  <REMARK>
 VINA RESULT:      -6.8      2.207      7.930
  Name = 
  16 active torsions:
  status: ('A' for Active; 'I' for Inactive)
    1  A    between atoms: C_7  and  O_39
    2  A    between atoms: N_9  and  C_20
    3  A    between atoms: C_11  and  C_24
    4  A    between atoms: C_11  and  O_30
    5  A    between atoms: C_13  and  O_42
    6  A    between atoms: C_15  and  C_17
    7  A    between atoms: C_15  and  N_33
    8  A    between atoms: C_16  and  C_18
    9  A    between atoms: C_16  and  O_21
   10  A    between atoms: O_21  and  C_22
   11  A    between atoms: C_22  and  C_26
   12  A    between atoms: C_22  and  C_43
   13  A    between atoms: C_24  and  O_39
   14  A    between atoms: C_26  and  N_33
   15  A    between atoms: O_30  and  C_43
   16  A    between atoms: C_32  and  N_33
                            x       y       z     vdW  Elec       q    Type
                         _______ _______ _______ _____ _____    ______ ____

>  <TORSDO>
F 16

$$$$
=
 OpenBabel11042419033D

 43 47  0  0  1  0  0  0  0  0999 V2000
  194.7960  173.6330  145.6220 C   0  0  0  0  0  2  0  0  0  0  0  0
  192.5900  174.4440  143.6540 C   0  0  0  0  0  2  0  0  0  0  0  0
  193.7930  175.3610  143.9200 C   0  0  2  0  0  3  0  0  0  0  0  0
  192.3320  171.9110  143.5470 N   0  0  0  0  0  0  0  0  0  0  0  0
  192.6550  169.7020  144.0970 O   0  0  0  0  0  0  0  0  0  0  0  0
  194.4210  175.0560  145.2690 C   0  0  0  0  0  0  0  0  0  0  0  0
  193.8980  172.6700  144.9070 C   0  0  0  0  0  0  0  0  0  0  0  0
  193.8810  171.3640  145.0370 O   0  0  0  0  0  0  0  0  0  0  0  0
  194.6710  175.9550  146.0540 O   0  0  0  0  0  0  0  0  0  0  0  0
  192.9460  173.0280  143.9800 C   0  0  0  0  0  0  0  0  0  0  0  0
  192.9490  170.9200  144.2210 C   0  0  0  0  0  0  0  0  0  0  0  0
  191.0180  171.4250  140.1330 C   0  0  0  0  0  2  0  0  0  0  0  0
  191.6900  172.2470  141.2130 C   0  0  0  0  0  2  0  0  0  0  0  0
  190.1590  172.3110  139.2300 C   0  0  2  0  0  3  0  0  0  0  0  0
  188.7310  172.5480  139.7500 C   0  0  2  0  0  3  0  0  0  0  0  0
  188.0170  173.3080  138.8260 O   0  0  0  0  0  1  0  0  0  0  0  0
  191.2340  171.7860  142.5890 C   0  0  2  0  0  3  0  0  0  0  0  0
  190.0120  172.5580  143.0830 C   0  0  0  0  0  2  0  0  0  0  0  0
  188.7280  173.2790  141.0820 C   0  0  0  0  0  2  0  0  0  0  0  0
  188.7840  172.2930  142.2320 C   0  0  0  0  0  2  0  0  0  0  0  0
  191.3310  172.4380  137.2660 C   0  0  0  0  0  1  0  0  0  0  0  0
  190.1950  171.8880  137.8820 O   0  0  0  0  0  0  0  0  0  0  0  0
  193.3770  176.6940  143.8460 O   0  0  0  0  0  0  0  0  0  0  0  0
  192.2720  176.6960  142.9840 C   0  0  0  0  0  2  0  0  0  0  0  0
  191.4560  177.9770  143.1430 C   0  0  0  0  0  2  0  0  0  0  0  0
  190.6500  177.9020  144.2820 O   0  0  0  0  0  0  0  0  0  0  0  0
  189.3700  177.6220  143.7980 C   0  0  0  0  0  2  0  0  0  0  0  0
  188.6640  176.5830  144.6690 C   0  0  2  0  0  3  0  0  0  0  0  0
  189.4850  175.4650  144.8530 O   0  0  0  0  0  0  0  0  0  0  0  0
  189.5730  175.3110  146.2370 C   0  0  0  0  0  2  0  0  0  0  0  0
  191.4670  176.5260  147.4670 C   0  0  2  0  0  3  0  0  0  0  0  0
  190.3670  177.5430  147.7610 C   0  0  0  0  0  1  0  0  0  0  0  0
  191.0320  175.3010  146.6590 C   0  0  1  0  0  3  0  0  0  0  0  0
  191.1380  175.2220  148.1630 C   0  0  0  0  0  2  0  0  0  0  0  0
  187.3520  176.1480  144.0330 C   0  0  0  0  0  2  0  0  0  0  0  0
  186.3500  177.2040  144.1640 N   0  0  0  0  0  0  0  0  0  0  0  0
  185.3030  178.3980  140.9240 O   0  0  0  0  0  1  0  0  0  0  0  0
  184.3810  178.1770  143.0960 C   0  0  0  0  0  2  0  0  0  0  0  0
  185.5270  177.1920  142.9580 C   0  0  1  0  0  3  0  0  0  0  0  0
  185.5960  178.5510  142.2790 C   0  0  1  0  0  3  0  0  0  0  0  0
  185.5140  176.9390  145.3450 C   0  0  0  0  0  2  0  0  0  0  0  0
  186.0120  177.6350  146.6160 C   0  0  0  0  0  2  0  0  0  0  0  0
  184.9030  178.4810  147.1970 C   0  0  0  0  0  1  0  0  0  0  0  0
  2  3  1  0  0  0  0
  2 10  1  0  0  0  0
  3 23  1  1  0  0  0
  3  6  1  0  0  0  0
  4 10  1  0  0  0  0
  4 11  1  0  0  0  0
  5 11  2  0  0  0  0
  6  1  1  0  0  0  0
  6  9  2  0  0  0  0
  7  8  1  0  0  0  0
  7  1  1  0  0  0  0
 10  7  2  0  0  0  0
 11  8  1  0  0  0  0
 12 13  1  0  0  0  0
 14 22  1  6  0  0  0
 14 15  1  0  0  0  0
 14 12  1  0  0  0  0
 15 16  1  6  0  0  0
 15 19  1  0  0  0  0
 17 13  1  6  0  0  0
 17 18  1  0  0  0  0
 17  4  1  0  0  0  0
 19 20  1  0  0  0  0
 20 18  1  0  0  0  0
 21 22  1  0  0  0  0
 24 25  1  0  0  0  0
 24 23  1  0  0  0  0
 25 26  1  0  0  0  0
 27 26  1  0  0  0  0
 28 27  1  6  0  0  0
 28 29  1  0  0  0  0
 29 30  1  0  0  0  0
 31 32  1  1  0  0  0
 31 34  1  0  0  0  0
 33 30  1  1  0  0  0
 33 31  1  0  0  0  0
 33 34  1  0  0  0  0
 35 36  1  0  0  0  0
 35 28  1  0  0  0  0
 36 41  1  0  0  0  0
 39 38  1  0  0  0  0
 39 36  1  1  0  0  0
 40 37  1  6  0  0  0
 40 39  1  0  0  0  0
 40 38  1  0  0  0  0
 41 42  1  0  0  0  0
 42 43  1  0  0  0  0
M  END
>  <MODEL>
3

>  <REMARK>
 VINA RESULT:      -6.6      2.338      7.423
  Name = 
  16 active torsions:
  status: ('A' for Active; 'I' for Inactive)
    1  A    between atoms: C_7  and  O_39
    2  A    between atoms: N_9  and  C_20
    3  A    between atoms: C_11  and  C_24
    4  A    between atoms: C_11  and  O_30
    5  A    between atoms: C_13  and  O_42
    6  A    between atoms: C_15  and  C_17
    7  A    between atoms: C_15  and  N_33
    8  A    between atoms: C_16  and  C_18
    9  A    between atoms: C_16  and  O_21
   10  A    between atoms: O_21  and  C_22
   11  A    between atoms: C_22  and  C_26
   12  A    between atoms: C_22  and  C_43
   13  A    between atoms: C_24  and  O_39
   14  A    between atoms: C_26  and  N_33
   15  A    between atoms: O_30  and  C_43
   16  A    between atoms: C_32  and  N_33
                            x       y       z     vdW  Elec       q    Type
                         _______ _______ _______ _____ _____    ______ ____

>  <TORSDO>
F 16

$$$$
=
 OpenBabel11042419033D

 43 47  0  0  1  0  0  0  0  0999 V2000
  190.4600  172.8060  138.3020 C   0  0  0  0  0  2  0  0  0  0  0  0
  190.9490  173.5810  141.2270 C   0  0  0  0  0  2  0  0  0  0  0  0
  190.0200  172.4140  140.8590 C   0  0  2  0  0  3  0  0  0  0  0  0
  193.1000  174.4750  140.1950 N   0  0  0  0  0  0  0  0  0  0  0  0
  194.6010  175.0750  138.5590 O   0  0  0  0  0  0  0  0  0  0  0  0
  189.4950  172.5630  139.4410 C   0  0  0  0  0  0  0  0  0  0  0  0
  191.6750  173.5290  138.7980 C   0  0  0  0  0  0  0  0  0  0  0  0
  192.6760  173.9730  138.0760 O   0  0  0  0  0  0  0  0  0  0  0  0
  188.3050  172.4410  139.2050 O   0  0  0  0  0  0  0  0  0  0  0  0
  191.9230  173.8260  140.1190 C   0  0  0  0  0  0  0  0  0  0  0  0
  193.5220  174.5320  138.9160 C   0  0  0  0  0  0  0  0  0  0  0  0
  195.8400  174.5240  142.6670 C   0  0  0  0  0  2  0  0  0  0  0  0
  194.5830  173.9350  142.0610 C   0  0  0  0  0  2  0  0  0  0  0  0
  195.8550  174.3320  144.1830 C   0  0  2  0  0  3  0  0  0  0  0  0
  195.1210  175.4320  144.9680 C   0  0  2  0  0  3  0  0  0  0  0  0
  195.2520  175.1970  146.3350 O   0  0  0  0  0  1  0  0  0  0  0  0
  193.7670  175.0210  141.3770 C   0  0  2  0  0  3  0  0  0  0  0  0
  192.7410  175.6540  142.3160 C   0  0  0  0  0  2  0  0  0  0  0  0
  193.6420  175.4830  144.6250 C   0  0  0  0  0  2  0  0  0  0  0  0
  193.3970  176.4130  143.4540 C   0  0  0  0  0  2  0  0  0  0  0  0
  197.2680  172.7030  144.9550 C   0  0  0  0  0  1  0  0  0  0  0  0
  197.1550  174.0740  144.6730 O   0  0  0  0  0  0  0  0  0  0  0  0
  188.9730  172.3540  141.7830 O   0  0  0  0  0  0  0  0  0  0  0  0
  189.0300  173.5580  142.4960 C   0  0  0  0  0  2  0  0  0  0  0  0
  187.8570  174.4670  142.1330 C   0  0  0  0  0  2  0  0  0  0  0  0
  188.2890  175.7900  142.0070 O   0  0  0  0  0  0  0  0  0  0  0  0
  188.9080  176.0820  143.2250 C   0  0  0  0  0  2  0  0  0  0  0  0
  188.2740  177.3040  143.8890 C   0  0  2  0  0  3  0  0  0  0  0  0
  189.1090  177.7950  144.8990 O   0  0  0  0  0  0  0  0  0  0  0  0
  189.8970  176.7050  145.2720 C   0  0  0  0  0  2  0  0  0  0  0  0
  189.7030  175.1630  147.3120 C   0  0  2  0  0  3  0  0  0  0  0  0
  189.5400  174.0850  146.2430 C   0  0  0  0  0  1  0  0  0  0  0  0
  189.9210  176.5850  146.7860 C   0  0  1  0  0  3  0  0  0  0  0  0
  191.0980  175.7460  147.2230 C   0  0  0  0  0  2  0  0  0  0  0  0
  186.9170  176.9530  144.4810 C   0  0  0  0  0  2  0  0  0  0  0  0
  185.8980  177.8830  144.0000 N   0  0  0  0  0  0  0  0  0  0  0  0
  185.4770  177.6480  140.4250 O   0  0  0  0  0  1  0  0  0  0  0  0
  184.1510  178.1710  142.3180 C   0  0  0  0  0  2  0  0  0  0  0  0
  185.3290  177.3320  142.7740 C   0  0  1  0  0  3  0  0  0  0  0  0
  185.4910  178.3320  141.6400 C   0  0  1  0  0  3  0  0  0  0  0  0
  184.8470  178.0250  145.0200 C   0  0  0  0  0  2  0  0  0  0  0  0
  185.2800  177.5570  146.4140 C   0  0  0  0  0  2  0  0  0  0  0  0
  185.4620  178.7560  147.3160 C   0  0  0  0  0  1  0  0  0  0  0  0
  1  7  1  0  0  0  0
  1  6  1  0  0  0  0
  3  2  1  0  0  0  0
  3 23  1  1  0  0  0
  5 11  2  0  0  0  0
  6  3  1  0  0  0  0
  7 10  2  0  0  0  0
  8  7  1  0  0  0  0
  8 11  1  0  0  0  0
  9  6  2  0  0  0  0
 10  4  1  0  0  0  0
 10  2  1  0  0  0  0
 11  4  1  0  0  0  0
 12 14  1  0  0  0  0
 13 12  1  0  0  0  0
 14 22  1  1  0  0  0
 14 15  1  0  0  0  0
 15 16  1  1  0  0  0
 17  4  1  6  0  0  0
 17 13  1  0  0  0  0
 17 18  1  0  0  0  0
 18 20  1  0  0  0  0
 19 15  1  0  0  0  0
 20 19  1  0  0  0  0
 22 21  1  0  0  0  0
 23 24  1  0  0  0  0
 25 24  1  0  0  0  0
 26 25  1  0  0  0  0
 26 27  1  0  0  0  0
 28 27  1  1  0  0  0
 28 35  1  0  0  0  0
 28 29  1  0  0  0  0
 29 30  1  0  0  0  0
 31 32  1  6  0  0  0
 33 30  1  6  0  0  0
 33 34  1  0  0  0  0
 33 31  1  0  0  0  0
 34 31  1  0  0  0  0
 36 35  1  0  0  0  0
 36 41  1  0  0  0  0
 38 39  1  0  0  0  0
 39 36  1  1  0  0  0
 40 37  1  6  0  0  0
 40 38  1  0  0  0  0
 40 39  1  0  0  0  0
 41 42  1  0  0  0  0
 42 43  1  0  0  0  0
M  END
>  <MODEL>
4

>  <REMARK>
 VINA RESULT:      -6.5      2.345      7.196
  Name = 
  16 active torsions:
  status: ('A' for Active; 'I' for Inactive)
    1  A    between atoms: C_7  and  O_39
    2  A    between atoms: N_9  and  C_20
    3  A    between atoms: C_11  and  C_24
    4  A    between atoms: C_11  and  O_30
    5  A    between atoms: C_13  and  O_42
    6  A    between atoms: C_15  and  C_17
    7  A    between atoms: C_15  and  N_33
    8  A    between atoms: C_16  and  C_18
    9  A    between atoms: C_16  and  O_21
   10  A    between atoms: O_21  and  C_22
   11  A    between atoms: C_22  and  C_26
   12  A    between atoms: C_22  and  C_43
   13  A    between atoms: C_24  and  O_39
   14  A    between atoms: C_26  and  N_33
   15  A    between atoms: O_30  and  C_43
   16  A    between atoms: C_32  and  N_33
                            x       y       z     vdW  Elec       q    Type
                         _______ _______ _______ _____ _____    ______ ____

>  <TORSDO>
F 16

$$$$
=
 OpenBabel11042419033D

 43 47  0  0  1  0  0  0  0  0999 V2000
  192.6200  174.9370  146.8950 C   0  0  0  0  0  2  0  0  0  0  0  0
  191.9920  176.8870  144.6150 C   0  0  0  0  0  2  0  0  0  0  0  0
  193.2700  176.0350  144.6020 C   0  0  2  0  0  3  0  0  0  0  0  0
  189.6250  176.4480  145.4490 N   0  0  0  0  0  0  0  0  0  0  0  0
  187.9470  175.6610  146.8110 O   0  0  0  0  0  0  0  0  0  0  0  0
  193.6490  175.6020  146.0090 C   0  0  0  0  0  0  0  0  0  0  0  0
  191.2440  175.4070  146.5330 C   0  0  0  0  0  0  0  0  0  0  0  0
  190.1220  175.1030  147.1430 O   0  0  0  0  0  0  0  0  0  0  0  0
  194.7900  175.7420  146.4140 O   0  0  0  0  0  0  0  0  0  0  0  0
  190.9540  176.2360  145.4730 C   0  0  0  0  0  0  0  0  0  0  0  0
  189.1630  175.7240  146.4890 C   0  0  0  0  0  0  0  0  0  0  0  0
  186.6960  178.5330  144.6190 C   0  0  0  0  0  2  0  0  0  0  0  0
  187.3720  177.2030  144.8810 C   0  0  0  0  0  2  0  0  0  0  0  0
  185.6030  178.3890  143.5600 C   0  0  2  0  0  3  0  0  0  0  0  0
  186.1050  178.5100  142.1110 C   0  0  2  0  0  3  0  0  0  0  0  0
  185.0260  178.4300  141.2340 O   0  0  0  0  0  1  0  0  0  0  0  0
  188.8500  177.2830  144.5330 C   0  0  2  0  0  3  0  0  0  0  0  0
  189.1270  176.8770  143.0870 C   0  0  0  0  0  2  0  0  0  0  0  0
  187.0940  177.4110  141.7610 C   0  0  0  0  0  2  0  0  0  0  0  0
  188.5100  177.8420  142.0920 C   0  0  0  0  0  2  0  0  0  0  0  0
  184.0340  178.9460  145.1320 C   0  0  0  0  0  1  0  0  0  0  0  0
  184.4890  179.2140  143.8310 O   0  0  0  0  0  0  0  0  0  0  0  0
  194.3010  176.7660  144.0030 O   0  0  0  0  0  0  0  0  0  0  0  0
  194.9250  175.8790  143.1160 C   0  0  0  0  0  2  0  0  0  0  0  0
  194.2870  175.9500  141.7300 C   0  0  0  0  0  2  0  0  0  0  0  0
  194.1650  174.6690  141.1850 O   0  0  0  0  0  0  0  0  0  0  0  0
  192.8100  174.3530  141.3130 C   0  0  0  0  0  2  0  0  0  0  0  0
  192.6160  173.0630  142.1100 C   0  0  2  0  0  3  0  0  0  0  0  0
  193.7430  172.2430  141.9880 O   0  0  0  0  0  0  0  0  0  0  0  0
  193.7470  171.4670  143.1480 C   0  0  0  0  0  2  0  0  0  0  0  0
  194.2970  171.6690  145.6450 C   0  0  2  0  0  3  0  0  0  0  0  0
  194.6490  170.1920  145.4920 C   0  0  0  0  0  1  0  0  0  0  0  0
  193.8290  172.3710  144.3670 C   0  0  1  0  0  3  0  0  0  0  0  0
  195.2630  172.4990  144.8240 C   0  0  0  0  0  2  0  0  0  0  0  0
  191.3870  172.3090  141.6250 C   0  0  0  0  0  2  0  0  0  0  0  0
  190.2840  173.2370  141.3850 N   0  0  0  0  0  0  0  0  0  0  0  0
  189.4130  172.8190  137.9090 O   0  0  0  0  0  1  0  0  0  0  0  0
  188.4310  173.7190  139.8690 C   0  0  0  0  0  2  0  0  0  0  0  0
  189.4870  172.7110  140.2800 C   0  0  1  0  0  3  0  0  0  0  0  0
  189.6900  173.5760  139.0460 C   0  0  1  0  0  3  0  0  0  0  0  0
  189.4560  173.3340  142.5980 C   0  0  0  0  0  2  0  0  0  0  0  0
  189.4210  172.0420  143.4210 C   0  0  0  0  0  2  0  0  0  0  0  0
  189.7770  172.3480  144.8570 C   0  0  0  0  0  1  0  0  0  0  0  0
  2 10  1  0  0  0  0
  3 23  1  1  0  0  0
  3  2  1  0  0  0  0
  3  6  1  0  0  0  0
  4 10  1  0  0  0  0
  4 11  1  0  0  0  0
  6  9  2  0  0  0  0
  6  1  1  0  0  0  0
  7  1  1  0  0  0  0
  7  8  1  0  0  0  0
 10  7  2  0  0  0  0
 11  5  2  0  0  0  0
 11  8  1  0  0  0  0
 12 13  1  0  0  0  0
 14 22  1  1  0  0  0
 14 12  1  0  0  0  0
 15 16  1  6  0  0  0
 15 14  1  0  0  0  0
 17 18  1  6  0  0  0
 17 13  1  0  0  0  0
 17  4  1  0  0  0  0
 19 20  1  0  0  0  0
 19 15  1  0  0  0  0
 20 18  1  0  0  0  0
 22 21  1  0  0  0  0
 24 23  1  0  0  0  0
 25 24  1  0  0  0  0
 26 27  1  0  0  0  0
 26 25  1  0  0  0  0
 28 27  1  6  0  0  0
 29 28  1  0  0  0  0
 29 30  1  0  0  0  0
 31 32  1  6  0  0  0
 33 30  1  6  0  0  0
 33 34  1  0  0  0  0
 33 31  1  0  0  0  0
 34 31  1  0  0  0  0
 35 28  1  0  0  0  0
 36 35  1  0  0  0  0
 36 41  1  0  0  0  0
 38 39  1  0  0  0  0
 39 36  1  1  0  0  0
 40 37  1  6  0  0  0
 40 38  1  0  0  0  0
 40 39  1  0  0  0  0
 41 42  1  0  0  0  0
 42 43  1  0  0  0  0
M  END
>  <MODEL>
5

>  <REMARK>
 VINA RESULT:      -6.5      2.013      5.368
  Name = 
  16 active torsions:
  status: ('A' for Active; 'I' for Inactive)
    1  A    between atoms: C_7  and  O_39
    2  A    between atoms: N_9  and  C_20
    3  A    between atoms: C_11  and  C_24
    4  A    between atoms: C_11  and  O_30
    5  A    between atoms: C_13  and  O_42
    6  A    between atoms: C_15  and  C_17
    7  A    between atoms: C_15  and  N_33
    8  A    between atoms: C_16  and  C_18
    9  A    between atoms: C_16  and  O_21
   10  A    between atoms: O_21  and  C_22
   11  A    between atoms: C_22  and  C_26
   12  A    between atoms: C_22  and  C_43
   13  A    between atoms: C_24  and  O_39
   14  A    between atoms: C_26  and  N_33
   15  A    between atoms: O_30  and  C_43
   16  A    between atoms: C_32  and  N_33
                            x       y       z     vdW  Elec       q    Type
                         _______ _______ _______ _____ _____    ______ ____

>  <TORSDO>
F 16

$$$$
=
 OpenBabel11042419033D

 43 47  0  0  1  0  0  0  0  0999 V2000
  196.8350  173.3800  143.9740 C   0  0  0  0  0  2  0  0  0  0  0  0
  193.8020  173.7280  144.2460 C   0  0  0  0  0  2  0  0  0  0  0  0
  194.7770  174.7420  144.8640 C   0  0  2  0  0  3  0  0  0  0  0  0
  193.8710  172.3380  142.1120 N   0  0  0  0  0  0  0  0  0  0  0  0
  194.7530  171.0450  140.4270 O   0  0  0  0  0  0  0  0  0  0  0  0
  196.1400  174.1130  145.0990 C   0  0  0  0  0  0  0  0  0  0  0  0
  195.8250  172.8010  143.0310 C   0  0  0  0  0  0  0  0  0  0  0  0
  196.0650  172.0370  141.9920 O   0  0  0  0  0  0  0  0  0  0  0  0
  196.7010  174.2330  146.1750 O   0  0  0  0  0  0  0  0  0  0  0  0
  194.4660  173.0050  143.1180 C   0  0  0  0  0  0  0  0  0  0  0  0
  194.8970  171.7690  141.4480 C   0  0  0  0  0  0  0  0  0  0  0  0
  190.8240  173.3790  140.3090 C   0  0  0  0  0  2  0  0  0  0  0  0
  191.9020  173.5720  141.3550 C   0  0  0  0  0  2  0  0  0  0  0  0
  189.4870  173.9400  140.7950 C   0  0  2  0  0  3  0  0  0  0  0  0
  188.6570  172.9570  141.6380 C   0  0  2  0  0  3  0  0  0  0  0  0
  187.4380  173.5420  141.9710 O   0  0  0  0  0  1  0  0  0  0  0  0
  192.4440  172.2260  141.8100 C   0  0  2  0  0  3  0  0  0  0  0  0
  191.6900  171.6760  143.0200 C   0  0  0  0  0  2  0  0  0  0  0  0
  189.3730  172.5670  142.9200 C   0  0  0  0  0  2  0  0  0  0  0  0
  190.2450  171.3480  142.6950 C   0  0  0  0  0  2  0  0  0  0  0  0
  188.5750  173.5870  138.7240 C   0  0  0  0  0  1  0  0  0  0  0  0
  188.7480  174.5330  139.7470 O   0  0  0  0  0  0  0  0  0  0  0  0
  194.2330  175.2320  146.0550 O   0  0  0  0  0  0  0  0  0  0  0  0
  192.9780  174.6210  146.1750 C   0  0  0  0  0  2  0  0  0  0  0  0
  192.0200  175.4920  146.9850 C   0  0  0  0  0  2  0  0  0  0  0  0
  190.6960  175.2120  146.6370 O   0  0  0  0  0  0  0  0  0  0  0  0
  189.9660  176.3140  147.0870 C   0  0  0  0  0  2  0  0  0  0  0  0
  188.6890  176.5050  146.2690 C   0  0  2  0  0  3  0  0  0  0  0  0
  187.5750  176.0850  147.0030 O   0  0  0  0  0  0  0  0  0  0  0  0
  186.4990  176.7780  146.4460 C   0  0  0  0  0  2  0  0  0  0  0  0
  185.5700  179.1390  146.0700 C   0  0  2  0  0  3  0  0  0  0  0  0
  184.4460  178.3790  145.3710 C   0  0  0  0  0  1  0  0  0  0  0  0
  186.6760  178.2690  146.6760 C   0  0  1  0  0  3  0  0  0  0  0  0
  185.5590  178.7970  147.5460 C   0  0  0  0  0  2  0  0  0  0  0  0
  188.7610  175.7210  144.9670 C   0  0  0  0  0  2  0  0  0  0  0  0
  189.0090  176.6230  143.8440 N   0  0  0  0  0  0  0  0  0  0  0  0
  186.7980  176.9390  141.0110 O   0  0  0  0  0  1  0  0  0  0  0  0
  187.6820  178.3320  142.7120 C   0  0  0  0  0  2  0  0  0  0  0  0
  187.7300  176.8950  143.1950 C   0  0  1  0  0  3  0  0  0  0  0  0
  187.9610  177.2200  141.7280 C   0  0  1  0  0  3  0  0  0  0  0  0
  189.5930  177.8770  144.3460 C   0  0  0  0  0  2  0  0  0  0  0  0
  190.9830  178.1780  143.7730 C   0  0  0  0  0  2  0  0  0  0  0  0
  191.6680  176.8820  143.4060 C   0  0  0  0  0  1  0  0  0  0  0  0
  1  6  1  0  0  0  0
  2  3  1  0  0  0  0
  3  6  1  0  0  0  0
  3 23  1  1  0  0  0
  4 10  1  0  0  0  0
  5 11  2  0  0  0  0
  6  9  2  0  0  0  0
  7 10  2  0  0  0  0
  7  1  1  0  0  0  0
  8  7  1  0  0  0  0
 10  2  1  0  0  0  0
 11  8  1  0  0  0  0
 11  4  1  0  0  0  0
 12 14  1  0  0  0  0
 12 13  1  0  0  0  0
 14 22  1  6  0  0  0
 14 15  1  0  0  0  0
 15 16  1  1  0  0  0
 15 19  1  0  0  0  0
 17 13  1  1  0  0  0
 17  4  1  0  0  0  0
 17 18  1  0  0  0  0
 20 19  1  0  0  0  0
 20 18  1  0  0  0  0
 21 22  1  0  0  0  0
 23 24  1  0  0  0  0
 24 25  1  0  0  0  0
 26 25  1  0  0  0  0
 26 27  1  0  0  0  0
 28 35  1  6  0  0  0
 28 29  1  0  0  0  0
 28 27  1  0  0  0  0
 30 29  1  0  0  0  0
 31 32  1  6  0  0  0
 31 33  1  0  0  0  0
 31 34  1  0  0  0  0
 33 30  1  6  0  0  0
 33 34  1  0  0  0  0
 36 41  1  0  0  0  0
 36 35  1  0  0  0  0
 38 39  1  0  0  0  0
 39 36  1  1  0  0  0
 40 37  1  6  0  0  0
 40 38  1  0  0  0  0
 40 39  1  0  0  0  0
 42 41  1  0  0  0  0
 43 42  1  0  0  0  0
M  END
>  <MODEL>
6

>  <REMARK>
 VINA RESULT:      -6.3      2.220      7.647
  Name = 
  16 active torsions:
  status: ('A' for Active; 'I' for Inactive)
    1  A    between atoms: C_7  and  O_39
    2  A    between atoms: N_9  and  C_20
    3  A    between atoms: C_11  and  C_24
    4  A    between atoms: C_11  and  O_30
    5  A    between atoms: C_13  and  O_42
    6  A    between atoms: C_15  and  C_17
    7  A    between atoms: C_15  and  N_33
    8  A    between atoms: C_16  and  C_18
    9  A    between atoms: C_16  and  O_21
   10  A    between atoms: O_21  and  C_22
   11  A    between atoms: C_22  and  C_26
   12  A    between atoms: C_22  and  C_43
   13  A    between atoms: C_24  and  O_39
   14  A    between atoms: C_26  and  N_33
   15  A    between atoms: O_30  and  C_43
   16  A    between atoms: C_32  and  N_33
                            x       y       z     vdW  Elec       q    Type
                         _______ _______ _______ _____ _____    ______ ____

>  <TORSDO>
F 16

$$$$
=
 OpenBabel11042419033D

 43 47  0  0  1  0  0  0  0  0999 V2000
  187.0860  176.4230  146.1960 C   0  0  0  0  0  2  0  0  0  0  0  0
  189.2730  177.2490  144.2130 C   0  0  0  0  0  2  0  0  0  0  0  0
  187.8880  177.9140  144.1920 C   0  0  2  0  0  3  0  0  0  0  0  0
  190.7370  176.3570  146.0980 N   0  0  0  0  0  0  0  0  0  0  0  0
  191.2830  175.3150  148.0740 O   0  0  0  0  0  0  0  0  0  0  0  0
  186.8420  177.0130  144.8250 C   0  0  0  0  0  0  0  0  0  0  0  0
  188.5560  176.2510  146.4310 C   0  0  0  0  0  0  0  0  0  0  0  0
  189.1270  175.6960  147.4740 O   0  0  0  0  0  0  0  0  0  0  0  0
  185.7840  176.7970  144.2590 O   0  0  0  0  0  0  0  0  0  0  0  0
  189.5410  176.6750  145.5680 C   0  0  0  0  0  0  0  0  0  0  0  0
  190.4260  175.7660  147.2690 C   0  0  0  0  0  0  0  0  0  0  0  0
  193.2350  176.0320  143.4010 C   0  0  0  0  0  2  0  0  0  0  0  0
  192.3940  175.4770  144.5320 C   0  0  0  0  0  2  0  0  0  0  0  0
  194.5960  175.3380  143.3440 C   0  0  2  0  0  3  0  0  0  0  0  0
  195.6620  175.9580  144.2620 C   0  0  2  0  0  3  0  0  0  0  0  0
  196.8750  175.2960  144.0850 O   0  0  0  0  0  1  0  0  0  0  0  0
  192.0700  176.5720  145.5360 C   0  0  2  0  0  3  0  0  0  0  0  0
  193.1060  176.6570  146.6550 C   0  0  0  0  0  2  0  0  0  0  0  0
  195.2710  175.8650  145.7270 C   0  0  0  0  0  2  0  0  0  0  0  0
  194.4690  177.0830  146.1440 C   0  0  0  0  0  2  0  0  0  0  0  0
  194.8940  176.3680  141.3200 C   0  0  0  0  0  1  0  0  0  0  0  0
  195.0450  175.1580  142.0160 O   0  0  0  0  0  0  0  0  0  0  0  0
  187.5520  178.2290  142.8710 O   0  0  0  0  0  0  0  0  0  0  0  0
  188.5040  177.5770  142.0750 C   0  0  0  0  0  2  0  0  0  0  0  0
  187.8630  176.4510  141.2660 C   0  0  0  0  0  2  0  0  0  0  0  0
  188.7830  175.4200  141.0560 O   0  0  0  0  0  0  0  0  0  0  0  0
  188.2430  174.6660  140.0120 C   0  0  0  0  0  2  0  0  0  0  0  0
  188.6340  173.1930  140.1330 C   0  0  2  0  0  3  0  0  0  0  0  0
  188.2230  172.6820  141.3690 O   0  0  0  0  0  0  0  0  0  0  0  0
  189.3310  171.9820  141.8510 C   0  0  0  0  0  2  0  0  0  0  0  0
  190.6460  172.0640  144.0510 C   0  0  2  0  0  3  0  0  0  0  0  0
  191.8320  172.2720  143.1120 C   0  0  0  0  0  1  0  0  0  0  0  0
  189.2820  171.9300  143.3680 C   0  0  1  0  0  3  0  0  0  0  0  0
  189.7160  173.2550  143.9480 C   0  0  0  0  0  2  0  0  0  0  0  0
  190.1380  173.0210  139.9890 C   0  0  0  0  0  2  0  0  0  0  0  0
  190.4570  172.3900  138.7110 N   0  0  0  0  0  0  0  0  0  0  0  0
  189.9540  174.8630  136.1330 O   0  0  0  0  0  1  0  0  0  0  0  0
  191.1650  172.8460  136.4180 C   0  0  0  0  0  2  0  0  0  0  0  0
  190.8850  173.4360  137.7880 C   0  0  1  0  0  3  0  0  0  0  0  0
  189.8670  173.5780  136.6670 C   0  0  1  0  0  3  0  0  0  0  0  0
  191.5450  171.4170  138.9050 C   0  0  0  0  0  2  0  0  0  0  0  0
  191.0960  169.9590  138.7520 C   0  0  0  0  0  2  0  0  0  0  0  0
  189.7080  169.9180  138.1580 C   0  0  0  0  0  1  0  0  0  0  0  0
  1  7  1  0  0  0  0
  2 10  1  0  0  0  0
  3 23  1  6  0  0  0
  3  2  1  0  0  0  0
  3  6  1  0  0  0  0
  4 11  1  0  0  0  0
  6  1  1  0  0  0  0
  7  8  1  0  0  0  0
  9  6  2  0  0  0  0
 10  4  1  0  0  0  0
 10  7  2  0  0  0  0
 11  8  1  0  0  0  0
 11  5  2  0  0  0  0
 12 13  1  0  0  0  0
 14 22  1  6  0  0  0
 14 12  1  0  0  0  0
 14 15  1  0  0  0  0
 15 16  1  1  0  0  0
 15 19  1  0  0  0  0
 17 13  1  6  0  0  0
 17  4  1  0  0  0  0
 17 18  1  0  0  0  0
 19 20  1  0  0  0  0
 20 18  1  0  0  0  0
 21 22  1  0  0  0  0
 24 23  1  0  0  0  0
 25 24  1  0  0  0  0
 26 25  1  0  0  0  0
 27 28  1  0  0  0  0
 27 26  1  0  0  0  0
 28 35  1  1  0  0  0
 28 29  1  0  0  0  0
 29 30  1  0  0  0  0
 31 32  1  6  0  0  0
 33 30  1  6  0  0  0
 33 34  1  0  0  0  0
 33 31  1  0  0  0  0
 34 31  1  0  0  0  0
 36 41  1  0  0  0  0
 36 35  1  0  0  0  0
 38 40  1  0  0  0  0
 38 39  1  0  0  0  0
 39 36  1  1  0  0  0
 40 37  1  6  0  0  0
 40 39  1  0  0  0  0
 42 41  1  0  0  0  0
 43 42  1  0  0  0  0
M  END
>  <MODEL>
7

>  <REMARK>
 VINA RESULT:      -6.3      2.487      8.251
  Name = 
  16 active torsions:
  status: ('A' for Active; 'I' for Inactive)
    1  A    between atoms: C_7  and  O_39
    2  A    between atoms: N_9  and  C_20
    3  A    between atoms: C_11  and  C_24
    4  A    between atoms: C_11  and  O_30
    5  A    between atoms: C_13  and  O_42
    6  A    between atoms: C_15  and  C_17
    7  A    between atoms: C_15  and  N_33
    8  A    between atoms: C_16  and  C_18
    9  A    between atoms: C_16  and  O_21
   10  A    between atoms: O_21  and  C_22
   11  A    between atoms: C_22  and  C_26
   12  A    between atoms: C_22  and  C_43
   13  A    between atoms: C_24  and  O_39
   14  A    between atoms: C_26  and  N_33
   15  A    between atoms: O_30  and  C_43
   16  A    between atoms: C_32  and  N_33
                            x       y       z     vdW  Elec       q    Type
                         _______ _______ _______ _____ _____    ______ ____

>  <TORSDO>
F 16

$$$$
=
 OpenBabel11042419033D

 43 47  0  0  1  0  0  0  0  0999 V2000
  190.4580  175.9770  147.3060 C   0  0  0  0  0  2  0  0  0  0  0  0
  191.7810  174.0980  145.2770 C   0  0  0  0  0  2  0  0  0  0  0  0
  190.2520  174.2230  145.3660 C   0  0  2  0  0  3  0  0  0  0  0  0
  193.6760  175.7720  145.5900 N   0  0  0  0  0  0  0  0  0  0  0  0
  194.8470  177.5360  146.4880 O   0  0  0  0  0  0  0  0  0  0  0  0
  189.8250  174.7280  146.7330 C   0  0  0  0  0  0  0  0  0  0  0  0
  191.8500  176.1410  146.7760 C   0  0  0  0  0  0  0  0  0  0  0  0
  192.7180  177.0640  147.1190 O   0  0  0  0  0  0  0  0  0  0  0  0
  188.9430  174.1620  147.3560 O   0  0  0  0  0  0  0  0  0  0  0  0
  192.4240  175.3330  145.8220 C   0  0  0  0  0  0  0  0  0  0  0  0
  193.8010  176.8390  146.4050 C   0  0  0  0  0  0  0  0  0  0  0  0
  195.1290  175.2640  142.2360 C   0  0  0  0  0  2  0  0  0  0  0  0
  194.0860  175.0090  143.3050 C   0  0  0  0  0  2  0  0  0  0  0  0
  195.3790  174.0030  141.4080 C   0  0  2  0  0  3  0  0  0  0  0  0
  196.4220  173.0470  142.0100 C   0  0  2  0  0  3  0  0  0  0  0  0
  196.6210  171.9700  141.1490 O   0  0  0  0  0  1  0  0  0  0  0  0
  194.6850  175.2180  144.6880 C   0  0  2  0  0  3  0  0  0  0  0  0
  195.2620  173.9290  145.2700 C   0  0  0  0  0  2  0  0  0  0  0  0
  195.9850  172.5100  143.3620 C   0  0  0  0  0  2  0  0  0  0  0  0
  196.4530  173.4250  144.4770 C   0  0  0  0  0  2  0  0  0  0  0  0
  196.5980  175.3030  139.9700 C   0  0  0  0  0  1  0  0  0  0  0  0
  195.6180  174.3000  140.0480 O   0  0  0  0  0  0  0  0  0  0  0  0
  189.6750  172.9810  145.0820 O   0  0  0  0  0  0  0  0  0  0  0  0
  190.5500  172.3550  144.1850 C   0  0  0  0  0  2  0  0  0  0  0  0
  189.7810  171.6720  143.0560 C   0  0  0  0  0  2  0  0  0  0  0  0
  188.5570  172.3120  142.8450 O   0  0  0  0  0  0  0  0  0  0  0  0
  188.5270  172.5870  141.4760 C   0  0  0  0  0  2  0  0  0  0  0  0
  188.6460  174.0880  141.2110 C   0  0  2  0  0  3  0  0  0  0  0  0
  189.9830  174.4370  140.9930 O   0  0  0  0  0  0  0  0  0  0  0  0
  190.4230  173.5630  139.9980 C   0  0  0  0  0  2  0  0  0  0  0  0
  192.4030  171.9340  139.9470 C   0  0  2  0  0  3  0  0  0  0  0  0
  191.3070  170.9090  139.6650 C   0  0  0  0  0  1  0  0  0  0  0  0
  191.9270  173.3810  140.1050 C   0  0  1  0  0  3  0  0  0  0  0  0
  192.4880  172.9030  138.7860 C   0  0  0  0  0  2  0  0  0  0  0  0
  188.0990  174.8880  142.3830 C   0  0  0  0  0  2  0  0  0  0  0  0
  188.1830  176.3200  142.1030 N   0  0  0  0  0  0  0  0  0  0  0  0
  185.4640  177.6810  140.1610 O   0  0  0  0  0  1  0  0  0  0  0  0
  186.8040  178.3340  142.0040 C   0  0  0  0  0  2  0  0  0  0  0  0
  186.8260  176.8200  141.9060 C   0  0  1  0  0  3  0  0  0  0  0  0
  186.7710  177.6700  140.6460 C   0  0  1  0  0  3  0  0  0  0  0  0
  188.8080  177.0040  143.2460 C   0  0  0  0  0  2  0  0  0  0  0  0
  190.3350  177.0940  143.1450 C   0  0  0  0  0  2  0  0  0  0  0  0
  190.8230  178.2960  143.9200 C   0  0  0  0  0  1  0  0  0  0  0  0
  2  3  1  0  0  0  0
  2 10  1  0  0  0  0
  3 23  1  1  0  0  0
  3  6  1  0  0  0  0
  4 10  1  0  0  0  0
  4 11  1  0  0  0  0
  6  1  1  0  0  0  0
  6  9  2  0  0  0  0
  7  8  1  0  0  0  0
  7  1  1  0  0  0  0
 10  7  2  0  0  0  0
 11  5  2  0  0  0  0
 11  8  1  0  0  0  0
 12 13  1  0  0  0  0
 14 22  1  6  0  0  0
 14 15  1  0  0  0  0
 14 12  1  0  0  0  0
 15 16  1  6  0  0  0
 15 19  1  0  0  0  0
 17 13  1  6  0  0  0
 17 18  1  0  0  0  0
 17  4  1  0  0  0  0
 19 20  1  0  0  0  0
 20 18  1  0  0  0  0
 21 22  1  0  0  0  0
 24 23  1  0  0  0  0
 25 24  1  0  0  0  0
 26 25  1  0  0  0  0
 27 26  1  0  0  0  0
 28 27  1  1  0  0  0
 28 35  1  0  0  0  0
 29 28  1  0  0  0  0
 30 29  1  0  0  0  0
 31 32  1  6  0  0  0
 31 33  1  0  0  0  0
 33 30  1  6  0  0  0
 34 31  1  0  0  0  0
 34 33  1  0  0  0  0
 36 35  1  0  0  0  0
 36 41  1  0  0  0  0
 39 38  1  0  0  0  0
 39 36  1  6  0  0  0
 40 37  1  1  0  0  0
 40 39  1  0  0  0  0
 40 38  1  0  0  0  0
 42 41  1  0  0  0  0
 42 43  1  0  0  0  0
M  END
>  <MODEL>
8

>  <REMARK>
 VINA RESULT:      -6.3      2.386      8.203
  Name = 
  16 active torsions:
  status: ('A' for Active; 'I' for Inactive)
    1  A    between atoms: C_7  and  O_39
    2  A    between atoms: N_9  and  C_20
    3  A    between atoms: C_11  and  C_24
    4  A    between atoms: C_11  and  O_30
    5  A    between atoms: C_13  and  O_42
    6  A    between atoms: C_15  and  C_17
    7  A    between atoms: C_15  and  N_33
    8  A    between atoms: C_16  and  C_18
    9  A    between atoms: C_16  and  O_21
   10  A    between atoms: O_21  and  C_22
   11  A    between atoms: C_22  and  C_26
   12  A    between atoms: C_22  and  C_43
   13  A    between atoms: C_24  and  O_39
   14  A    between atoms: C_26  and  N_33
   15  A    between atoms: O_30  and  C_43
   16  A    between atoms: C_32  and  N_33
                            x       y       z     vdW  Elec       q    Type
                         _______ _______ _______ _____ _____    ______ ____

>  <TORSDO>
F 16

$$$$
=
 OpenBabel11042419033D

 43 47  0  0  1  0  0  0  0  0999 V2000
  194.6130  173.6700  145.7570 C   0  0  0  0  0  2  0  0  0  0  0  0
  192.6040  174.7800  143.7250 C   0  0  0  0  0  2  0  0  0  0  0  0
  193.8680  175.5670  144.1060 C   0  0  2  0  0  3  0  0  0  0  0  0
  192.1270  172.2910  143.4630 N   0  0  0  0  0  0  0  0  0  0  0  0
  192.2190  170.0360  143.9050 O   0  0  0  0  0  0  0  0  0  0  0  0
  194.3880  175.1370  145.4660 C   0  0  0  0  0  0  0  0  0  0  0  0
  193.6740  172.8310  144.9440 C   0  0  0  0  0  0  0  0  0  0  0  0
  193.5340  171.5280  145.0000 O   0  0  0  0  0  0  0  0  0  0  0  0
  194.6720  175.9670  146.3120 O   0  0  0  0  0  0  0  0  0  0  0  0
  192.8130  173.3230  143.9890 C   0  0  0  0  0  0  0  0  0  0  0  0
  192.6130  171.2140  144.1120 C   0  0  0  0  0  0  0  0  0  0  0  0
  190.9790  172.1730  139.9580 C   0  0  0  0  0  2  0  0  0  0  0  0
  191.6390  172.8580  141.1370 C   0  0  0  0  0  2  0  0  0  0  0  0
  190.2280  173.1840  139.0910 C   0  0  2  0  0  3  0  0  0  0  0  0
  188.7910  173.4720  139.5560 C   0  0  2  0  0  3  0  0  0  0  0  0
  188.1780  174.3500  138.6650 O   0  0  0  0  0  1  0  0  0  0  0  0
  191.0790  172.3170  142.4430 C   0  0  2  0  0  3  0  0  0  0  0  0
  189.8810  173.1250  142.9390 C   0  0  0  0  0  2  0  0  0  0  0  0
  188.7580  174.0910  140.9440 C   0  0  0  0  0  2  0  0  0  0  0  0
  188.6890  173.0130  142.0070 C   0  0  0  0  0  2  0  0  0  0  0  0
  190.0070  171.5120  137.5420 C   0  0  0  0  0  1  0  0  0  0  0  0
  190.3140  172.8710  137.7160 O   0  0  0  0  0  0  0  0  0  0  0  0
  193.5780  176.9350  144.0840 O   0  0  0  0  0  0  0  0  0  0  0  0
  192.2370  177.0420  144.4770 C   0  0  0  0  0  2  0  0  0  0  0  0
  191.6450  178.3830  144.0470 C   0  0  0  0  0  2  0  0  0  0  0  0
  190.2490  178.3270  144.0670 O   0  0  0  0  0  0  0  0  0  0  0  0
  189.9320  177.0900  143.5010 C   0  0  0  0  0  2  0  0  0  0  0  0
  188.4190  176.8920  143.4130 C   0  0  2  0  0  3  0  0  0  0  0  0
  187.7680  178.1310  143.4060 O   0  0  0  0  0  0  0  0  0  0  0  0
  186.9110  178.0770  142.3050 C   0  0  0  0  0  2  0  0  0  0  0  0
  184.5550  178.7250  141.5260 C   0  0  2  0  0  3  0  0  0  0  0  0
  184.9460  177.9110  140.2950 C   0  0  0  0  0  1  0  0  0  0  0  0
  185.6140  178.7970  142.6310 C   0  0  1  0  0  3  0  0  0  0  0  0
  184.4790  177.8050  142.7270 C   0  0  0  0  0  2  0  0  0  0  0  0
  187.9140  176.0620  144.5830 C   0  0  0  0  0  2  0  0  0  0  0  0
  187.6910  176.9120  145.7500 N   0  0  0  0  0  0  0  0  0  0  0  0
  184.5820  178.7090  146.1040 O   0  0  0  0  0  1  0  0  0  0  0  0
  185.9450  177.2830  147.4180 C   0  0  0  0  0  2  0  0  0  0  0  0
  186.2500  177.0240  145.9540 C   0  0  1  0  0  3  0  0  0  0  0  0
  185.9080  178.4270  146.4320 C   0  0  1  0  0  3  0  0  0  0  0  0
  188.3170  176.2960  146.9300 C   0  0  0  0  0  2  0  0  0  0  0  0
  189.4120  175.2800  146.5820 C   0  0  0  0  0  2  0  0  0  0  0  0
  190.6270  175.5310  147.4440 C   0  0  0  0  0  1  0  0  0  0  0  0
  2 10  1  0  0  0  0
  2  3  1  0  0  0  0
  3 23  1  1  0  0  0
  3  6  1  0  0  0  0
  4 10  1  0  0  0  0
  4 11  1  0  0  0  0
  5 11  2  0  0  0  0
  6  1  1  0  0  0  0
  6  9  2  0  0  0  0
  7  8  1  0  0  0  0
  7  1  1  0  0  0  0
 10  7  2  0  0  0  0
 11  8  1  0  0  0  0
 12 13  1  0  0  0  0
 14 22  1  6  0  0  0
 14 15  1  0  0  0  0
 14 12  1  0  0  0  0
 15 16  1  6  0  0  0
 15 19  1  0  0  0  0
 17 13  1  6  0  0  0
 17 18  1  0  0  0  0
 17  4  1  0  0  0  0
 19 20  1  0  0  0  0
 20 18  1  0  0  0  0
 21 22  1  0  0  0  0
 23 24  1  0  0  0  0
 25 26  1  0  0  0  0
 25 24  1  0  0  0  0
 27 26  1  0  0  0  0
 28 27  1  1  0  0  0
 28 35  1  0  0  0  0
 29 28  1  0  0  0  0
 30 29  1  0  0  0  0
 31 32  1  6  0  0  0
 31 33  1  0  0  0  0
 31 34  1  0  0  0  0
 33 30  1  6  0  0  0
 33 34  1  0  0  0  0
 35 36  1  0  0  0  0
 36 41  1  0  0  0  0
 39 36  1  1  0  0  0
 39 40  1  0  0  0  0
 39 38  1  0  0  0  0
 40 37  1  6  0  0  0
 40 38  1  0  0  0  0
 42 41  1  0  0  0  0
 42 43  1  0  0  0  0
M  END
>  <MODEL>
9

>  <REMARK>
 VINA RESULT:      -6.3      2.055      7.813
  Name = 
  16 active torsions:
  status: ('A' for Active; 'I' for Inactive)
    1  A    between atoms: C_7  and  O_39
    2  A    between atoms: N_9  and  C_20
    3  A    between atoms: C_11  and  C_24
    4  A    between atoms: C_11  and  O_30
    5  A    between atoms: C_13  and  O_42
    6  A    between atoms: C_15  and  C_17
    7  A    between atoms: C_15  and  N_33
    8  A    between atoms: C_16  and  C_18
    9  A    between atoms: C_16  and  O_21
   10  A    between atoms: O_21  and  C_22
   11  A    between atoms: C_22  and  C_26
   12  A    between atoms: C_22  and  C_43
   13  A    between atoms: C_24  and  O_39
   14  A    between atoms: C_26  and  N_33
   15  A    between atoms: O_30  and  C_43
   16  A    between atoms: C_32  and  N_33
                            x       y       z     vdW  Elec       q    Type
                         _______ _______ _______ _____ _____    ______ ____

>  <TORSDO>
F 16

$$$$
