=
 OpenBabel11042416293D

 69 76  0  0  1  0  0  0  0  0999 V2000
  193.1760  174.9150  144.6490 C   0  0  0  0  0  3  0  0  0  0  0  0
  188.4600  176.3940  145.3580 C   0  0  0  0  0  0  0  0  0  0  0  0
  194.3170  174.9430  143.9490 C   0  0  0  0  0  0  0  0  0  0  0  0
  189.2590  175.9980  143.0840 N   0  0  0  0  0  0  0  0  0  0  0  0
  189.4880  176.0300  144.5060 C   0  0  0  0  0  0  0  0  0  0  0  0
  187.1560  176.5080  144.7700 C   0  0  0  0  0  0  0  0  0  0  0  0
  190.8040  175.4670  144.9230 C   0  0  0  0  0  0  0  0  0  0  0  0
  191.9220  175.5290  144.1580 C   0  0  0  0  0  0  0  0  0  0  0  0
  194.3870  175.6530  142.6200 C   0  0  0  0  0  2  0  0  0  0  0  0
  190.9900  176.9740  147.2190 C   0  0  0  0  0  2  0  0  0  0  0  0
  189.5750  176.8970  147.5140 N   0  0  0  0  0  0  0  0  0  0  0  0
  191.9910  176.3140  142.8720 C   0  0  0  0  0  2  0  0  0  0  0  0
  186.9670  176.4100  143.3460 N   0  0  0  0  0  0  0  0  0  0  0  0
  193.0240  175.7050  141.9290 C   0  0  0  0  0  2  0  0  0  0  0  0
  188.5150  176.6450  146.7930 C   0  0  0  0  0  0  0  0  0  0  0  0
  187.3490  176.7650  147.4780 N   0  0  0  0  0  0  0  0  0  0  0  0
  191.5450  175.5660  147.2130 C   0  0  0  0  0  2  0  0  0  0  0  0
  188.1110  176.1850  142.5250 C   0  0  0  0  0  0  0  0  0  0  0  0
  186.1390  176.7660  146.8860 C   0  0  0  0  0  3  0  0  0  0  0  0
  190.8900  174.8640  146.1750 O   0  0  0  0  0  0  0  0  0  0  0  0
  186.0550  176.6690  145.5490 N   0  0  0  0  0  0  0  0  0  0  0  0
  196.1370  173.2130  143.9220 N   0  0  0  0  0  2  0  0  0  0  0  0
  196.0390  174.8490  145.5770 O   0  0  0  0  0  0  0  0  0  0  0  0
  195.5350  174.3550  144.5320 C   0  0  0  0  0  0  0  0  0  0  0  0
  197.2050  172.5320  144.5270 N   0  0  0  0  0  2  0  0  0  0  0  0
  197.2160  171.1040  144.6280 C   0  0  0  0  0  0  0  0  0  0  0  0
  196.6500  168.2410  144.4760 C   0  0  0  0  0  3  0  0  0  0  0  0
  197.3940  168.8860  143.5710 C   0  0  0  0  0  3  0  0  0  0  0  0
  196.8410  170.3380  146.2210 S   0  0  0  0  0  0  0  0  0  0  0  0
  197.5170  170.3540  143.5620 C   0  0  0  0  0  3  0  0  0  0  0  0
  195.8450  168.9760  145.5070 C   0  0  1  0  0  3  0  0  0  0  0  0
  194.5420  169.4810  144.8940 C   0  0  0  0  0  2  0  0  0  0  0  0
  193.5550  168.3410  144.6810 C   0  0  0  0  0  2  0  0  0  0  0  0
  192.4190  168.7650  143.7580 C   0  0  1  0  0  3  0  0  0  0  0  0
  191.2370  170.7830  142.7280 C   0  0  1  0  0  3  0  0  0  0  0  0
  193.3950  172.2800  141.7980 O   0  0  0  0  0  0  0  0  0  0  0  0
  191.9220  172.0110  141.6470 S   0  0  0  0  0  0  0  0  0  0  0  0
  191.3670  168.4150  141.5340 C   0  0  0  0  0  2  0  0  0  0  0  0
  190.8660  169.8690  141.5330 C   0  0  2  0  0  3  0  0  0  0  0  0
  191.0910  173.2540  141.5140 O   0  0  0  0  0  0  0  0  0  0  0  0
  193.7440  168.6990  141.7390 O   0  0  0  0  0  1  0  0  0  0  0  0
  192.3560  170.2830  143.6530 C   0  0  0  0  0  2  0  0  0  0  0  0
  191.5320  170.7440  140.4750 C   0  0  0  0  0  2  0  0  0  0  0  0
  192.6140  168.1660  142.3710 C   0  0  1  0  0  3  0  0  0  0  0  0
  185.6450  176.6280  142.7480 C   0  0  0  0  0  2  0  0  0  0  0  0
  185.1980  178.0920  142.8330 C   0  0  1  0  0  3  0  0  0  0  0  0
  185.6460  180.0170  144.1460 C   0  0  0  0  0  2  0  0  0  0  0  0
  184.1210  178.2500  143.7180 O   0  0  0  0  0  0  0  0  0  0  0  0
  184.1960  179.5800  144.1580 C   0  0  0  0  0  2  0  0  0  0  0  0
  186.3210  179.0130  143.2590 C   0  0  0  0  0  2  0  0  0  0  0  0
  188.0220  176.2100  141.0320 C   0  0  0  0  0  2  0  0  0  0  0  0
  188.1960  174.8100  140.4690 C   0  0  0  0  0  2  0  0  0  0  0  0
  188.1060  174.8610  139.0190 N   0  0  0  0  0  2  0  0  0  0  0  0
  188.9990  173.8350  138.5020 C   0  0  1  0  0  3  0  0  0  0  0  0
  188.5540  172.4680  139.0000 C   0  0  0  0  0  1  0  0  0  0  0  0
  189.0620  173.9180  137.0010 C   0  0  0  0  0  0  0  0  0  0  0  0
  188.5970  174.9010  136.4470 O   0  0  0  0  0  0  0  0  0  0  0  0
  189.6090  172.7880  136.1690 C   0  0  0  0  0  2  0  0  0  0  0  0
  191.1390  172.7540  136.1240 C   0  0  1  0  0  3  0  0  0  0  0  0
  191.6360  171.7740  135.0670 C   0  0  0  0  0  2  0  0  0  0  0  0
  190.8260  170.4850  135.0830 C   0  0  0  0  0  2  0  0  0  0  0  0
  190.4010  169.4640  137.3110 O   0  0  0  0  0  1  0  0  0  0  0  0
  191.2490  169.6290  136.2230 C   0  0  0  0  0  0  0  0  0  0  0  0
  192.3700  169.0570  136.2100 O   0  0  0  0  0  0  0  0  0  0  0  0
  191.6520  174.0340  135.8750 O   0  0  0  0  0  0  0  0  0  0  0  0
  194.2610  173.3070  136.4990 O   0  0  0  0  0  0  0  0  0  0  0  0
  192.4280  173.7510  138.5120 O   0  0  0  0  0  1  0  0  0  0  0  0
  192.9320  174.2460  136.9740 P   0  0  0  0  0  0  0  0  0  0  0  0
  193.3340  175.7060  137.0360 O   0  0  0  0  0  1  0  0  0  0  0  0
  2 15  1  0  0  0  0
  3 24  1  0  0  0  0
  3  1  2  0  0  0  0
  4  5  1  0  0  0  0
  5  7  1  0  0  0  0
  5  2  2  0  0  0  0
  6  2  1  0  0  0  0
  6 21  2  0  0  0  0
  7 20  1  0  0  0  0
  8  1  1  0  0  0  0
  8  7  2  0  0  0  0
  9  3  1  0  0  0  0
 10 11  1  0  0  0  0
 12  8  1  0  0  0  0
 13  6  1  0  0  0  0
 14  9  1  0  0  0  0
 14 12  1  0  0  0  0
 15 16  1  0  0  0  0
 15 11  2  0  0  0  0
 17 10  1  0  0  0  0
 18  4  2  0  0  0  0
 18 13  1  0  0  0  0
 19 16  2  0  0  0  0
 20 17  1  0  0  0  0
 21 19  1  0  0  0  0
 22 25  1  0  0  0  0
 22 24  1  0  0  0  0
 24 23  2  0  0  0  0
 25 26  1  0  0  0  0
 26 29  1  0  0  0  0
 27 31  1  0  0  0  0
 28 27  2  0  0  0  0
 30 28  1  0  0  0  0
 30 26  2  0  0  0  0
 31 32  1  6  0  0  0
 31 29  1  0  0  0  0
 33 32  1  0  0  0  0
 34 33  1  1  0  0  0
 35 42  1  1  0  0  0
 37 36  2  0  0  0  0
 37 35  1  0  0  0  0
 38 44  1  0  0  0  0
 39 43  1  6  0  0  0
 39 38  1  0  0  0  0
 39 35  1  0  0  0  0
 40 37  2  0  0  0  0
 42 34  1  0  0  0  0
 43 37  1  0  0  0  0
 44 41  1  6  0  0  0
 44 34  1  0  0  0  0
 45 13  1  0  0  0  0
 46 45  1  1  0  0  0
 46 50  1  0  0  0  0
 46 48  1  0  0  0  0
 47 49  1  0  0  0  0
 48 49  1  0  0  0  0
 50 47  1  0  0  0  0
 51 18  1  0  0  0  0
 52 51  1  0  0  0  0
 53 52  1  0  0  0  0
 54 55  1  6  0  0  0
 54 53  1  0  0  0  0
 56 54  1  0  0  0  0
 57 56  2  0  0  0  0
 58 56  1  0  0  0  0
 59 60  1  6  0  0  0
 59 58  1  0  0  0  0
 60 61  1  0  0  0  0
 61 63  1  0  0  0  0
 63 62  1  0  0  0  0
 64 63  2  0  0  0  0
 65 59  1  0  0  0  0
 65 68  1  0  0  0  0
 66 68  2  0  0  0  0
 68 69  1  0  0  0  0
 68 67  1  0  0  0  0
M  END
>  <MODEL>
1

>  <REMARK>
 VINA RESULT:      -6.1      0.000      0.000
  Name = 
  20 active torsions:
  status: ('A' for Active; 'I' for Inactive)
    1  A    between atoms: N_2  and  C_38
    2  A    between atoms: N_2  and  C_66
    3  A    between atoms: C_3  and  C_43
    4  A    between atoms: C_4  and  N_20
    5  A    between atoms: C_6  and  C_63
    6  A    between atoms: C_14  and  C_60
    7  A    between atoms: C_19  and  C_43
    8  A    between atoms: C_19  and  C_67
    9  A    between atoms: N_20  and  N_39
   10  A    between atoms: C_22  and  C_48
   11  A    between atoms: C_22  and  C_64
   12  A    between atoms: C_31  and  C_38
   13  A    between atoms: C_31  and  C_65
   14  A    between atoms: N_33  and  C_60
   15  A    between atoms: C_42  and  C_57
   16  A    between atoms: C_42  and  C_66
   17  A    between atoms: O_45  and  P_52
   18  A    between atoms: O_45  and  C_55
   19  A    between atoms: C_55  and  C_64
   20  A    between atoms: C_55  and  C_65
                            x       y       z     vdW  Elec       q    Type
                         _______ _______ _______ _____ _____    ______ ____

>  <TORSDO>
F 20

$$$$
=
 OpenBabel11042416293D

 69 76  0  0  1  0  0  0  0  0999 V2000
  190.9300  175.2190  142.4510 C   0  0  0  0  0  3  0  0  0  0  0  0
  195.2740  173.3260  144.0230 C   0  0  0  0  0  0  0  0  0  0  0  0
  189.6180  175.0950  142.2170 C   0  0  0  0  0  0  0  0  0  0  0  0
  193.7330  171.9020  142.7720 N   0  0  0  0  0  0  0  0  0  0  0  0
  194.0650  173.1710  143.3670 C   0  0  0  0  0  0  0  0  0  0  0  0
  196.2190  172.2550  143.8770 C   0  0  0  0  0  0  0  0  0  0  0  0
  193.1120  174.2680  143.0330 C   0  0  0  0  0  0  0  0  0  0  0  0
  191.7900  174.0680  142.8030 C   0  0  0  0  0  0  0  0  0  0  0  0
  188.9360  173.7560  142.3450 C   0  0  0  0  0  2  0  0  0  0  0  0
  193.5970  175.7110  145.3260 C   0  0  0  0  0  2  0  0  0  0  0  0
  195.0110  175.4010  145.3530 N   0  0  0  0  0  0  0  0  0  0  0  0
  191.1160  172.7360  143.0180 C   0  0  0  0  0  2  0  0  0  0  0  0
  195.8590  171.0250  143.2220 N   0  0  0  0  0  0  0  0  0  0  0  0
  189.9040  172.5980  142.1010 C   0  0  0  0  0  2  0  0  0  0  0  0
  195.7370  174.4540  144.8210 C   0  0  0  0  0  0  0  0  0  0  0  0
  197.0440  174.5010  145.1860 N   0  0  0  0  0  0  0  0  0  0  0  0
  193.3010  176.4480  144.0390 C   0  0  0  0  0  2  0  0  0  0  0  0
  194.5360  170.8940  142.7070 C   0  0  0  0  0  0  0  0  0  0  0  0
  197.9190  173.5070  144.9360 C   0  0  0  0  0  3  0  0  0  0  0  0
  193.6060  175.5680  142.9750 O   0  0  0  0  0  0  0  0  0  0  0  0
  197.4970  172.3920  144.3170 N   0  0  0  0  0  0  0  0  0  0  0  0
  187.6300  176.1920  141.1420 N   0  0  0  0  0  2  0  0  0  0  0  0
  189.1950  177.4250  142.3500 O   0  0  0  0  0  0  0  0  0  0  0  0
  188.8210  176.2990  141.9240 C   0  0  0  0  0  0  0  0  0  0  0  0
  186.9270  177.3290  140.7130 N   0  0  0  0  0  2  0  0  0  0  0  0
  185.6170  177.6250  141.2090 C   0  0  0  0  0  0  0  0  0  0  0  0
  183.2130  178.8560  142.3230 C   0  0  0  0  0  3  0  0  0  0  0  0
  183.4770  178.8290  141.0130 C   0  0  0  0  0  3  0  0  0  0  0  0
  185.1180  176.9560  142.8120 S   0  0  0  0  0  0  0  0  0  0  0  0
  184.7740  178.3700  140.4850 C   0  0  0  0  0  3  0  0  0  0  0  0
  184.2420  178.4740  143.3470 C   0  0  1  0  0  3  0  0  0  0  0  0
  185.2030  179.6360  143.5840 C   0  0  0  0  0  2  0  0  0  0  0  0
  185.6730  179.6730  145.0320 C   0  0  0  0  0  2  0  0  0  0  0  0
  185.9950  178.2730  145.5400 C   0  0  1  0  0  3  0  0  0  0  0  0
  187.7600  176.4250  145.5270 C   0  0  1  0  0  3  0  0  0  0  0  0
  190.0740  177.8580  146.1260 O   0  0  0  0  0  0  0  0  0  0  0  0
  189.4210  176.5020  146.1450 S   0  0  0  0  0  0  0  0  0  0  0  0
  186.0730  176.8030  147.5420 C   0  0  0  0  0  2  0  0  0  0  0  0
  187.2150  175.9890  146.9110 C   0  0  2  0  0  3  0  0  0  0  0  0
  190.3140  175.3940  145.6640 O   0  0  0  0  0  0  0  0  0  0  0  0
  187.0050  179.0170  147.6040 O   0  0  0  0  0  1  0  0  0  0  0  0
  187.3640  177.8280  145.0440 C   0  0  0  0  0  2  0  0  0  0  0  0
  188.5480  176.1380  147.6390 C   0  0  0  0  0  2  0  0  0  0  0  0
  185.9710  178.2440  147.0620 C   0  0  1  0  0  3  0  0  0  0  0  0
  196.8010  169.9010  143.1680 C   0  0  0  0  0  2  0  0  0  0  0  0
  196.7440  169.0280  144.4270 C   0  0  1  0  0  3  0  0  0  0  0  0
  196.1570  169.2400  146.7150 C   0  0  0  0  0  2  0  0  0  0  0  0
  197.9400  169.1000  145.1560 O   0  0  0  0  0  0  0  0  0  0  0  0
  197.5850  168.7950  146.4780 C   0  0  0  0  0  2  0  0  0  0  0  0
  195.5930  169.4010  145.3350 C   0  0  0  0  0  2  0  0  0  0  0  0
  194.0400  169.6020  142.1390 C   0  0  0  0  0  2  0  0  0  0  0  0
  192.5720  169.4070  142.4730 C   0  0  0  0  0  2  0  0  0  0  0  0
  191.7670  169.7340  141.3070 N   0  0  0  0  0  2  0  0  0  0  0  0
  192.5450  169.3620  140.1350 C   0  0  1  0  0  3  0  0  0  0  0  0
  191.9000  168.1680  139.4480 C   0  0  0  0  0  1  0  0  0  0  0  0
  192.6990  170.5480  139.2230 C   0  0  0  0  0  0  0  0  0  0  0  0
  193.7480  170.6890  138.6150 O   0  0  0  0  0  0  0  0  0  0  0  0
  191.6270  171.5980  139.1050 C   0  0  0  0  0  2  0  0  0  0  0  0
  192.0340  172.7850  138.2270 C   0  0  1  0  0  3  0  0  0  0  0  0
  190.8110  173.5000  137.6670 C   0  0  0  0  0  2  0  0  0  0  0  0
  189.9220  174.0340  138.7820 C   0  0  0  0  0  2  0  0  0  0  0  0
  187.6340  174.6300  138.0110 O   0  0  0  0  0  0  0  0  0  0  0  0
  188.5020  173.6750  138.5230 C   0  0  0  0  0  0  0  0  0  0  0  0
  188.0830  172.5130  138.7690 O   0  0  0  0  0  1  0  0  0  0  0  0
  192.8290  173.6830  138.9520 O   0  0  0  0  0  0  0  0  0  0  0  0
  194.0940  173.2810  136.5100 O   0  0  0  0  0  0  0  0  0  0  0  0
  195.4560  174.4610  138.5980 O   0  0  0  0  0  1  0  0  0  0  0  0
  193.9490  174.3190  137.8420 P   0  0  0  0  0  0  0  0  0  0  0  0
  193.5040  175.6900  137.3740 O   0  0  0  0  0  1  0  0  0  0  0  0
  1  8  1  0  0  0  0
  2 15  1  0  0  0  0
  3  9  1  0  0  0  0
  3  1  2  0  0  0  0
  4  5  1  0  0  0  0
  5  2  2  0  0  0  0
  6  2  1  0  0  0  0
  6 21  2  0  0  0  0
  7  5  1  0  0  0  0
  8 12  1  0  0  0  0
  8  7  2  0  0  0  0
 10 11  1  0  0  0  0
 13  6  1  0  0  0  0
 14  9  1  0  0  0  0
 14 12  1  0  0  0  0
 15 16  1  0  0  0  0
 15 11  2  0  0  0  0
 17 10  1  0  0  0  0
 18  4  2  0  0  0  0
 18 13  1  0  0  0  0
 19 16  2  0  0  0  0
 20  7  1  0  0  0  0
 20 17  1  0  0  0  0
 21 19  1  0  0  0  0
 22 24  1  0  0  0  0
 24  3  1  0  0  0  0
 24 23  2  0  0  0  0
 25 22  1  0  0  0  0
 25 26  1  0  0  0  0
 26 29  1  0  0  0  0
 27 31  1  0  0  0  0
 28 27  2  0  0  0  0
 29 31  1  0  0  0  0
 30 28  1  0  0  0  0
 30 26  2  0  0  0  0
 31 32  1  6  0  0  0
 32 33  1  0  0  0  0
 34 33  1  1  0  0  0
 34 44  1  0  0  0  0
 35 42  1  1  0  0  0
 35 37  1  0  0  0  0
 35 39  1  0  0  0  0
 36 37  2  0  0  0  0
 37 43  1  0  0  0  0
 39 38  1  1  0  0  0
 39 43  1  0  0  0  0
 40 37  2  0  0  0  0
 42 34  1  0  0  0  0
 44 38  1  0  0  0  0
 44 41  1  1  0  0  0
 45 13  1  0  0  0  0
 46 45  1  6  0  0  0
 46 48  1  0  0  0  0
 46 50  1  0  0  0  0
 48 49  1  0  0  0  0
 49 47  1  0  0  0  0
 50 47  1  0  0  0  0
 51 52  1  0  0  0  0
 51 18  1  0  0  0  0
 53 52  1  0  0  0  0
 54 55  1  6  0  0  0
 54 53  1  0  0  0  0
 56 54  1  0  0  0  0
 57 56  2  0  0  0  0
 58 56  1  0  0  0  0
 59 60  1  1  0  0  0
 59 65  1  0  0  0  0
 59 58  1  0  0  0  0
 60 61  1  0  0  0  0
 62 63  2  0  0  0  0
 63 64  1  0  0  0  0
 63 61  1  0  0  0  0
 66 68  2  0  0  0  0
 68 67  1  0  0  0  0
 68 65  1  0  0  0  0
 69 68  1  0  0  0  0
M  END
>  <MODEL>
2

>  <REMARK>
 VINA RESULT:      -5.8      2.723      9.471
  Name = 
  20 active torsions:
  status: ('A' for Active; 'I' for Inactive)
    1  A    between atoms: N_2  and  C_38
    2  A    between atoms: N_2  and  C_66
    3  A    between atoms: C_3  and  C_43
    4  A    between atoms: C_4  and  N_20
    5  A    between atoms: C_6  and  C_63
    6  A    between atoms: C_14  and  C_60
    7  A    between atoms: C_19  and  C_43
    8  A    between atoms: C_19  and  C_67
    9  A    between atoms: N_20  and  N_39
   10  A    between atoms: C_22  and  C_48
   11  A    between atoms: C_22  and  C_64
   12  A    between atoms: C_31  and  C_38
   13  A    between atoms: C_31  and  C_65
   14  A    between atoms: N_33  and  C_60
   15  A    between atoms: C_42  and  C_57
   16  A    between atoms: C_42  and  C_66
   17  A    between atoms: O_45  and  P_52
   18  A    between atoms: O_45  and  C_55
   19  A    between atoms: C_55  and  C_64
   20  A    between atoms: C_55  and  C_65
                            x       y       z     vdW  Elec       q    Type
                         _______ _______ _______ _____ _____    ______ ____

>  <TORSDO>
F 20

$$$$
=
 OpenBabel11042416293D

 69 76  0  0  1  0  0  0  0  0999 V2000
  191.0670  175.1440  142.6290 C   0  0  0  0  0  3  0  0  0  0  0  0
  195.3390  173.1990  144.3260 C   0  0  0  0  0  0  0  0  0  0  0  0
  189.7680  175.0280  142.3270 C   0  0  0  0  0  0  0  0  0  0  0  0
  193.8660  171.8240  142.9440 N   0  0  0  0  0  0  0  0  0  0  0  0
  194.1640  173.0680  143.6070 C   0  0  0  0  0  0  0  0  0  0  0  0
  196.2950  172.1380  144.1810 C   0  0  0  0  0  0  0  0  0  0  0  0
  193.2230  174.1760  143.2740 C   0  0  0  0  0  0  0  0  0  0  0  0
  191.9140  173.9820  142.9730 C   0  0  0  0  0  0  0  0  0  0  0  0
  189.0860  173.6820  142.3660 C   0  0  0  0  0  2  0  0  0  0  0  0
  193.5900  175.5220  145.6470 C   0  0  0  0  0  2  0  0  0  0  0  0
  195.0030  175.2150  145.7280 N   0  0  0  0  0  0  0  0  0  0  0  0
  191.2360  172.6410  143.0990 C   0  0  0  0  0  2  0  0  0  0  0  0
  195.9720  170.9350  143.4580 N   0  0  0  0  0  0  0  0  0  0  0  0
  190.0710  172.5380  142.1200 C   0  0  0  0  0  2  0  0  0  0  0  0
  195.7580  174.2930  145.1920 C   0  0  0  0  0  0  0  0  0  0  0  0
  197.0460  174.3290  145.6210 N   0  0  0  0  0  0  0  0  0  0  0  0
  193.3530  176.3120  144.3790 C   0  0  0  0  0  2  0  0  0  0  0  0
  194.6760  170.8220  142.8760 C   0  0  0  0  0  0  0  0  0  0  0  0
  197.9360  173.3480  145.3710 C   0  0  0  0  0  3  0  0  0  0  0  0
  193.7130  175.4790  143.2950 O   0  0  0  0  0  0  0  0  0  0  0  0
  197.5500  172.2600  144.6870 N   0  0  0  0  0  0  0  0  0  0  0  0
  187.8380  176.1670  141.1910 N   0  0  0  0  0  2  0  0  0  0  0  0
  189.3190  177.3460  142.5500 O   0  0  0  0  0  0  0  0  0  0  0  0
  188.9800  176.2400  142.0480 C   0  0  0  0  0  0  0  0  0  0  0  0
  187.1530  177.3200  140.7780 N   0  0  0  0  0  2  0  0  0  0  0  0
  185.8160  177.5870  141.2130 C   0  0  0  0  0  0  0  0  0  0  0  0
  183.3370  178.7640  142.2180 C   0  0  0  0  0  3  0  0  0  0  0  0
  183.6620  178.7480  140.9210 C   0  0  0  0  0  3  0  0  0  0  0  0
  185.2570  176.9020  142.7890 S   0  0  0  0  0  0  0  0  0  0  0  0
  184.9920  178.3180  140.4530 C   0  0  0  0  0  3  0  0  0  0  0  0
  184.3250  178.3990  143.2870 C   0  0  1  0  0  3  0  0  0  0  0  0
  185.2490  179.5790  143.5720 C   0  0  0  0  0  2  0  0  0  0  0  0
  185.6100  179.6510  145.0500 C   0  0  0  0  0  2  0  0  0  0  0  0
  185.9330  178.2680  145.6020 C   0  0  1  0  0  3  0  0  0  0  0  0
  187.6860  176.4090  145.6260 C   0  0  1  0  0  3  0  0  0  0  0  0
  190.0180  177.8480  146.1310 O   0  0  0  0  0  0  0  0  0  0  0  0
  189.3590  176.4980  146.2110 S   0  0  0  0  0  0  0  0  0  0  0  0
  186.0380  176.8710  147.6550 C   0  0  0  0  0  2  0  0  0  0  0  0
  187.1630  176.0270  147.0340 C   0  0  2  0  0  3  0  0  0  0  0  0
  190.2370  175.3680  145.7560 O   0  0  0  0  0  0  0  0  0  0  0  0
  186.9830  179.0790  147.6200 O   0  0  0  0  0  1  0  0  0  0  0  0
  187.2900  177.7960  145.0990 C   0  0  0  0  0  2  0  0  0  0  0  0
  188.5100  176.1940  147.7330 C   0  0  0  0  0  2  0  0  0  0  0  0
  185.9350  178.2940  147.1250 C   0  0  1  0  0  3  0  0  0  0  0  0
  196.9210  169.8170  143.4020 C   0  0  0  0  0  2  0  0  0  0  0  0
  196.8650  168.9380  144.6570 C   0  0  1  0  0  3  0  0  0  0  0  0
  195.9300  169.0030  146.8360 C   0  0  0  0  0  2  0  0  0  0  0  0
  197.9070  169.2440  145.5450 O   0  0  0  0  0  0  0  0  0  0  0  0
  197.4380  168.8600  146.8100 C   0  0  0  0  0  2  0  0  0  0  0  0
  195.5460  169.0600  145.3880 C   0  0  0  0  0  2  0  0  0  0  0  0
  194.2140  169.5540  142.2300 C   0  0  0  0  0  2  0  0  0  0  0  0
  192.8280  169.7370  141.6380 C   0  0  0  0  0  2  0  0  0  0  0  0
  192.7370  168.9970  140.3900 N   0  0  0  0  0  2  0  0  0  0  0  0
  193.2600  169.8630  139.3440 C   0  0  1  0  0  3  0  0  0  0  0  0
  194.1060  169.0470  138.3770 C   0  0  0  0  0  1  0  0  0  0  0  0
  192.1300  170.5870  138.6640 C   0  0  0  0  0  0  0  0  0  0  0  0
  191.0290  170.0630  138.6380 O   0  0  0  0  0  0  0  0  0  0  0  0
  192.3450  171.8960  137.9520 C   0  0  0  0  0  2  0  0  0  0  0  0
  191.5830  173.0630  138.5860 C   0  0  1  0  0  3  0  0  0  0  0  0
  192.5110  173.9380  139.4200 C   0  0  0  0  0  2  0  0  0  0  0  0
  193.9200  173.3650  139.4650 C   0  0  0  0  0  2  0  0  0  0  0  0
  196.1780  174.0080  140.2880 O   0  0  0  0  0  1  0  0  0  0  0  0
  194.8680  174.3750  140.0050 C   0  0  0  0  0  0  0  0  0  0  0  0
  194.4900  175.5580  140.2120 O   0  0  0  0  0  0  0  0  0  0  0  0
  190.9520  173.8320  137.5990 O   0  0  0  0  0  0  0  0  0  0  0  0
  188.2720  174.4840  137.2520 O   0  0  0  0  0  1  0  0  0  0  0  0
  188.9850  172.3720  138.8760 O   0  0  0  0  0  1  0  0  0  0  0  0
  189.3740  173.2130  137.4600 P   0  0  0  0  0  0  0  0  0  0  0  0
  189.2850  172.2620  136.2840 O   0  0  0  0  0  0  0  0  0  0  0  0
  1  8  1  0  0  0  0
  2 15  1  0  0  0  0
  3  9  1  0  0  0  0
  3  1  2  0  0  0  0
  4  5  1  0  0  0  0
  5  2  2  0  0  0  0
  6  2  1  0  0  0  0
  6 21  2  0  0  0  0
  7 20  1  0  0  0  0
  7  5  1  0  0  0  0
  8 12  1  0  0  0  0
  8  7  2  0  0  0  0
 10 11  1  0  0  0  0
 13  6  1  0  0  0  0
 14  9  1  0  0  0  0
 14 12  1  0  0  0  0
 15 16  1  0  0  0  0
 15 11  2  0  0  0  0
 17 10  1  0  0  0  0
 18  4  2  0  0  0  0
 18 13  1  0  0  0  0
 19 16  2  0  0  0  0
 20 17  1  0  0  0  0
 21 19  1  0  0  0  0
 22 24  1  0  0  0  0
 24  3  1  0  0  0  0
 24 23  2  0  0  0  0
 25 22  1  0  0  0  0
 25 26  1  0  0  0  0
 26 29  1  0  0  0  0
 27 31  1  0  0  0  0
 28 27  2  0  0  0  0
 29 31  1  0  0  0  0
 30 28  1  0  0  0  0
 30 26  2  0  0  0  0
 31 32  1  6  0  0  0
 32 33  1  0  0  0  0
 34 33  1  6  0  0  0
 34 44  1  0  0  0  0
 35 42  1  1  0  0  0
 35 37  1  0  0  0  0
 35 39  1  0  0  0  0
 36 37  2  0  0  0  0
 37 43  1  0  0  0  0
 39 38  1  1  0  0  0
 39 43  1  0  0  0  0
 40 37  2  0  0  0  0
 42 34  1  0  0  0  0
 44 41  1  6  0  0  0
 44 38  1  0  0  0  0
 45 13  1  0  0  0  0
 46 45  1  6  0  0  0
 46 50  1  0  0  0  0
 46 48  1  0  0  0  0
 48 49  1  0  0  0  0
 49 47  1  0  0  0  0
 50 47  1  0  0  0  0
 51 18  1  0  0  0  0
 52 51  1  0  0  0  0
 53 52  1  0  0  0  0
 54 55  1  6  0  0  0
 54 53  1  0  0  0  0
 56 54  1  0  0  0  0
 57 56  2  0  0  0  0
 58 56  1  0  0  0  0
 59 58  1  6  0  0  0
 59 60  1  0  0  0  0
 60 61  1  0  0  0  0
 61 63  1  0  0  0  0
 63 64  2  0  0  0  0
 63 62  1  0  0  0  0
 65 59  1  0  0  0  0
 66 68  1  0  0  0  0
 68 65  1  0  0  0  0
 68 67  1  0  0  0  0
 69 68  2  0  0  0  0
M  END
>  <MODEL>
3

>  <REMARK>
 VINA RESULT:      -5.8      2.864      9.590
  Name = 
  20 active torsions:
  status: ('A' for Active; 'I' for Inactive)
    1  A    between atoms: N_2  and  C_38
    2  A    between atoms: N_2  and  C_66
    3  A    between atoms: C_3  and  C_43
    4  A    between atoms: C_4  and  N_20
    5  A    between atoms: C_6  and  C_63
    6  A    between atoms: C_14  and  C_60
    7  A    between atoms: C_19  and  C_43
    8  A    between atoms: C_19  and  C_67
    9  A    between atoms: N_20  and  N_39
   10  A    between atoms: C_22  and  C_48
   11  A    between atoms: C_22  and  C_64
   12  A    between atoms: C_31  and  C_38
   13  A    between atoms: C_31  and  C_65
   14  A    between atoms: N_33  and  C_60
   15  A    between atoms: C_42  and  C_57
   16  A    between atoms: C_42  and  C_66
   17  A    between atoms: O_45  and  P_52
   18  A    between atoms: O_45  and  C_55
   19  A    between atoms: C_55  and  C_64
   20  A    between atoms: C_55  and  C_65
                            x       y       z     vdW  Elec       q    Type
                         _______ _______ _______ _____ _____    ______ ____

>  <TORSDO>
F 20

$$$$
=
 OpenBabel11042416293D

 69 76  0  0  1  0  0  0  0  0999 V2000
  188.5940  174.3270  140.1790 C   0  0  0  0  0  3  0  0  0  0  0  0
  190.8990  171.2740  136.9700 C   0  0  0  0  0  0  0  0  0  0  0  0
  188.6040  175.0880  141.2800 C   0  0  0  0  0  0  0  0  0  0  0  0
  191.3850  171.0870  139.3570 N   0  0  0  0  0  0  0  0  0  0  0  0
  190.6860  171.7140  138.2650 C   0  0  0  0  0  0  0  0  0  0  0  0
  191.6540  170.0620  136.8260 C   0  0  1  0  0  3  0  0  0  0  0  0
  189.6310  172.6790  138.6910 C   0  0  0  0  0  0  0  0  0  0  0  0
  189.7060  173.4160  139.8280 C   0  0  0  0  0  0  0  0  0  0  0  0
  189.7910  175.0810  142.2100 C   0  0  0  0  0  2  0  0  0  0  0  0
  189.7710  174.2090  136.4080 C   0  0  0  0  0  2  0  0  0  0  0  0
  189.9900  173.0770  135.5320 N   0  0  0  0  0  0  0  0  0  0  0  0
  190.9370  173.4550  140.6980 C   0  0  0  0  0  2  0  0  0  0  0  0
  192.2870  169.4380  137.9580 N   0  0  0  0  0  0  0  0  0  0  0  0
  190.5590  173.7600  142.1440 C   0  0  0  0  0  2  0  0  0  0  0  0
  190.4280  171.8610  135.7220 C   0  0  0  0  0  0  0  0  0  0  0  0
  190.5560  171.1430  134.5760 N   0  0  0  0  0  2  0  0  0  0  0  0
  188.4340  174.0220  137.0910 C   0  0  0  0  0  2  0  0  0  0  0  0
  192.1400  170.0480  139.2380 C   0  0  0  0  0  0  0  0  0  0  0  0
  191.1910  169.9560  134.5130 C   0  0  0  0  0  3  0  0  0  0  0  0
  188.5220  172.8430  137.8660 O   0  0  0  0  0  0  0  0  0  0  0  0
  191.7540  169.4460  135.6200 N   0  0  0  0  0  0  0  0  0  0  0  0
  186.7190  175.8910  142.7340 N   0  0  0  0  0  2  0  0  0  0  0  0
  187.1830  176.8890  140.6800 O   0  0  0  0  0  0  0  0  0  0  0  0
  187.4820  176.0080  141.5310 C   0  0  0  0  0  0  0  0  0  0  0  0
  185.5530  176.6440  142.9420 N   0  0  0  0  0  2  0  0  0  0  0  0
  185.4300  177.5340  144.0560 C   0  0  0  0  0  0  0  0  0  0  0  0
  185.8580  179.4380  146.2310 C   0  0  0  0  0  3  0  0  0  0  0  0
  185.5090  179.8110  144.9950 C   0  0  0  0  0  3  0  0  0  0  0  0
  185.1890  176.8390  145.7060 S   0  0  0  0  0  0  0  0  0  0  0  0
  185.4770  178.8580  143.8710 C   0  0  0  0  0  3  0  0  0  0  0  0
  186.2960  178.0370  146.5420 C   0  0  1  0  0  3  0  0  0  0  0  0
  187.7550  177.8420  146.1430 C   0  0  0  0  0  2  0  0  0  0  0  0
  188.0770  176.3680  145.9340 C   0  0  0  0  0  2  0  0  0  0  0  0
  189.3380  175.9700  146.6910 C   0  0  1  0  0  3  0  0  0  0  0  0
  191.5330  174.6730  146.5120 C   0  0  1  0  0  3  0  0  0  0  0  0
  192.5250  175.5900  144.0750 O   0  0  0  0  0  0  0  0  0  0  0  0
  192.8810  174.9650  145.3970 S   0  0  0  0  0  0  0  0  0  0  0  0
  191.2290  176.7990  148.0720 C   0  0  0  0  0  2  0  0  0  0  0  0
  192.1190  175.6580  147.5550 C   0  0  2  0  0  3  0  0  0  0  0  0
  193.8520  173.8250  145.2860 O   0  0  0  0  0  0  0  0  0  0  0  0
  190.6080  177.9170  146.0380 O   0  0  0  0  0  1  0  0  0  0  0  0
  190.2340  175.1050  145.8150 C   0  0  0  0  0  2  0  0  0  0  0  0
  193.2690  176.1300  146.6700 C   0  0  0  0  0  2  0  0  0  0  0  0
  190.1020  177.2100  147.1350 C   0  0  1  0  0  3  0  0  0  0  0  0
  193.1390  168.2550  137.7830 C   0  0  0  0  0  2  0  0  0  0  0  0
  194.4640  168.5860  137.0880 C   0  0  1  0  0  3  0  0  0  0  0  0
  195.4280  170.3620  135.8440 C   0  0  0  0  0  2  0  0  0  0  0  0
  194.4450  168.2040  135.7380 O   0  0  0  0  0  0  0  0  0  0  0  0
  195.3760  169.0410  135.1050 C   0  0  0  0  0  2  0  0  0  0  0  0
  194.8100  170.0570  137.1760 C   0  0  0  0  0  2  0  0  0  0  0  0
  192.8800  169.5430  140.4370 C   0  0  0  0  0  2  0  0  0  0  0  0
  193.8340  170.6040  140.9560 C   0  0  0  0  0  2  0  0  0  0  0  0
  195.1990  170.2220  140.6320 N   0  0  0  0  0  2  0  0  0  0  0  0
  196.0740  171.1870  141.2800 C   0  0  1  0  0  3  0  0  0  0  0  0
  196.7470  170.5430  142.4830 C   0  0  0  0  0  1  0  0  0  0  0  0
  197.0600  171.7360  140.2840 C   0  0  0  0  0  0  0  0  0  0  0  0
  197.1980  171.1610  139.2170 O   0  0  0  0  0  0  0  0  0  0  0  0
  197.9290  172.9230  140.6050 C   0  0  0  0  0  2  0  0  0  0  0  0
  197.3460  174.2510  140.1150 C   0  0  1  0  0  3  0  0  0  0  0  0
  197.9410  174.6510  138.7700 C   0  0  0  0  0  2  0  0  0  0  0  0
  196.8940  175.2920  137.8700 C   0  0  0  0  0  2  0  0  0  0  0  0
  197.8050  174.2860  135.7850 O   0  0  0  0  0  0  0  0  0  0  0  0
  196.7220  174.4870  136.6310 C   0  0  0  0  0  0  0  0  0  0  0  0
  195.6010  173.9930  136.3430 O   0  0  0  0  0  1  0  0  0  0  0  0
  195.9500  174.1710  140.0200 O   0  0  0  0  0  0  0  0  0  0  0  0
  193.6560  175.3020  141.1080 O   0  0  0  0  0  0  0  0  0  0  0  0
  196.0330  176.7000  141.1290 O   0  0  0  0  0  1  0  0  0  0  0  0
  195.3380  175.1620  141.2590 P   0  0  0  0  0  0  0  0  0  0  0  0
  195.6830  174.5810  142.6150 O   0  0  0  0  0  1  0  0  0  0  0  0
  1  3  2  0  0  0  0
  2  5  2  0  0  0  0
  3 24  1  0  0  0  0
  3  9  1  0  0  0  0
  5  7  1  0  0  0  0
  5  4  1  0  0  0  0
  6 21  1  1  0  0  0
  6  2  1  0  0  0  0
  6 13  1  0  0  0  0
  7  8  2  0  0  0  0
  8  1  1  0  0  0  0
  8 12  1  0  0  0  0
 10 17  1  0  0  0  0
 11 15  2  0  0  0  0
 11 10  1  0  0  0  0
 12 14  1  0  0  0  0
 13 18  1  0  0  0  0
 14  9  1  0  0  0  0
 15  2  1  0  0  0  0
 16 15  1  0  0  0  0
 17 20  1  0  0  0  0
 18  4  2  0  0  0  0
 18 51  1  0  0  0  0
 19 16  1  0  0  0  0
 19 21  2  0  0  0  0
 20  7  1  0  0  0  0
 22 25  1  0  0  0  0
 23 24  2  0  0  0  0
 24 22  1  0  0  0  0
 25 26  1  0  0  0  0
 26 29  1  0  0  0  0
 27 31  1  0  0  0  0
 28 27  2  0  0  0  0
 29 31  1  0  0  0  0
 30 26  2  0  0  0  0
 30 28  1  0  0  0  0
 31 32  1  6  0  0  0
 33 32  1  0  0  0  0
 34 33  1  6  0  0  0
 34 44  1  0  0  0  0
 35 42  1  6  0  0  0
 35 39  1  0  0  0  0
 36 37  2  0  0  0  0
 37 35  1  0  0  0  0
 37 43  1  0  0  0  0
 39 43  1  6  0  0  0
 39 38  1  0  0  0  0
 40 37  2  0  0  0  0
 42 34  1  0  0  0  0
 44 41  1  6  0  0  0
 44 38  1  0  0  0  0
 45 13  1  0  0  0  0
 46 50  1  0  0  0  0
 46 45  1  6  0  0  0
 47 50  1  0  0  0  0
 48 46  1  0  0  0  0
 49 48  1  0  0  0  0
 49 47  1  0  0  0  0
 51 52  1  0  0  0  0
 53 52  1  0  0  0  0
 53 54  1  0  0  0  0
 54 55  1  1  0  0  0
 56 58  1  0  0  0  0
 56 54  1  0  0  0  0
 57 56  2  0  0  0  0
 59 60  1  6  0  0  0
 59 58  1  0  0  0  0
 61 60  1  0  0  0  0
 62 63  2  0  0  0  0
 63 61  1  0  0  0  0
 64 63  1  0  0  0  0
 65 59  1  0  0  0  0
 65 68  1  0  0  0  0
 66 68  2  0  0  0  0
 67 68  1  0  0  0  0
 68 69  1  0  0  0  0
M  END
>  <MODEL>
4

>  <REMARK>
 VINA RESULT:      -5.5      3.362     10.098
  Name = 
  20 active torsions:
  status: ('A' for Active; 'I' for Inactive)
    1  A    between atoms: N_2  and  C_38
    2  A    between atoms: N_2  and  C_66
    3  A    between atoms: C_3  and  C_43
    4  A    between atoms: C_4  and  N_20
    5  A    between atoms: C_6  and  C_63
    6  A    between atoms: C_14  and  C_60
    7  A    between atoms: C_19  and  C_43
    8  A    between atoms: C_19  and  C_67
    9  A    between atoms: N_20  and  N_39
   10  A    between atoms: C_22  and  C_48
   11  A    between atoms: C_22  and  C_64
   12  A    between atoms: C_31  and  C_38
   13  A    between atoms: C_31  and  C_65
   14  A    between atoms: N_33  and  C_60
   15  A    between atoms: C_42  and  C_57
   16  A    between atoms: C_42  and  C_66
   17  A    between atoms: O_45  and  P_52
   18  A    between atoms: O_45  and  C_55
   19  A    between atoms: C_55  and  C_64
   20  A    between atoms: C_55  and  C_65
                            x       y       z     vdW  Elec       q    Type
                         _______ _______ _______ _____ _____    ______ ____

>  <TORSDO>
F 20

$$$$
=
 OpenBabel11042416293D

 69 76  0  0  1  0  0  0  0  0999 V2000
  193.1690  174.9360  144.8190 C   0  0  0  0  0  3  0  0  0  0  0  0
  188.4330  176.4200  145.3630 C   0  0  0  0  0  0  0  0  0  0  0  0
  194.3370  174.9720  144.1670 C   0  0  0  0  0  0  0  0  0  0  0  0
  189.3210  176.0590  143.1160 N   0  0  0  0  0  0  0  0  0  0  0  0
  189.4930  176.0670  144.5470 C   0  0  0  0  0  0  0  0  0  0  0  0
  187.1540  176.5480  144.7260 C   0  0  0  0  0  0  0  0  0  0  0  0
  190.7900  175.4920  145.0070 C   0  0  0  0  0  0  0  0  0  0  0  0
  191.9380  175.5630  144.2880 C   0  0  0  0  0  0  0  0  0  0  0  0
  194.4630  175.7030  142.8530 C   0  0  0  0  0  2  0  0  0  0  0  0
  190.8880  176.9600  147.3340 C   0  0  0  0  0  2  0  0  0  0  0  0
  189.4620  176.8830  147.5710 N   0  0  0  0  0  0  0  0  0  0  0  0
  192.0600  176.3680  143.0200 C   0  0  0  0  0  2  0  0  0  0  0  0
  187.0220  176.4740  143.2940 N   0  0  0  0  0  0  0  0  0  0  0  0
  193.1290  175.7720  142.1090 C   0  0  0  0  0  2  0  0  0  0  0  0
  188.4320  176.6470  146.8030 C   0  0  0  0  0  0  0  0  0  0  0  0
  187.2390  176.7600  147.4430 N   0  0  0  0  0  0  0  0  0  0  0  0
  191.4390  175.5510  147.3260 C   0  0  0  0  0  2  0  0  0  0  0  0
  188.1970  176.2590  142.5160 C   0  0  0  0  0  0  0  0  0  0  0  0
  186.0540  176.7750  146.8030 C   0  0  0  0  0  3  0  0  0  0  0  0
  190.8240  174.8680  146.2520 O   0  0  0  0  0  0  0  0  0  0  0  0
  186.0230  176.7000  145.4620 N   0  0  0  0  0  0  0  0  0  0  0  0
  196.3400  173.4610  144.0410 N   0  0  0  0  0  2  0  0  0  0  0  0
  195.8280  174.6440  145.9820 O   0  0  0  0  0  0  0  0  0  0  0  0
  195.5290  174.3700  144.7880 C   0  0  0  0  0  0  0  0  0  0  0  0
  197.3930  172.7510  144.6400 N   0  0  0  0  0  2  0  0  0  0  0  0
  197.3890  171.3210  144.6960 C   0  0  0  0  0  0  0  0  0  0  0  0
  196.8870  168.4660  144.3310 C   0  0  0  0  0  3  0  0  0  0  0  0
  197.8090  169.1370  143.6340 C   0  0  0  0  0  3  0  0  0  0  0  0
  196.6760  170.5050  146.1410 S   0  0  0  0  0  0  0  0  0  0  0  0
  197.9220  170.6060  143.6980 C   0  0  0  0  0  3  0  0  0  0  0  0
  195.8690  169.1680  145.1820 C   0  0  1  0  0  3  0  0  0  0  0  0
  194.7310  169.6950  144.3130 C   0  0  0  0  0  2  0  0  0  0  0  0
  194.4780  168.7790  143.1230 C   0  0  0  0  0  2  0  0  0  0  0  0
  193.4500  169.3840  142.1750 C   0  0  1  0  0  3  0  0  0  0  0  0
  191.0960  170.3690  142.0340 C   0  0  1  0  0  3  0  0  0  0  0  0
  191.1110  172.1580  144.1700 O   0  0  0  0  0  0  0  0  0  0  0  0
  190.4690  171.8120  142.8540 S   0  0  0  0  0  0  0  0  0  0  0  0
  193.0680  171.0890  140.4090 C   0  0  0  0  0  2  0  0  0  0  0  0
  191.5940  171.2100  140.8310 C   0  0  2  0  0  3  0  0  0  0  0  0
  188.9710  171.9180  142.8640 O   0  0  0  0  0  0  0  0  0  0  0  0
  194.2240  171.6570  142.4370 O   0  0  0  0  0  1  0  0  0  0  0  0
  192.1760  169.7430  142.9280 C   0  0  0  0  0  2  0  0  0  0  0  0
  191.2430  172.5600  141.4500 C   0  0  0  0  0  2  0  0  0  0  0  0
  194.0160  170.6300  141.5080 C   0  0  1  0  0  3  0  0  0  0  0  0
  185.7260  176.7070  142.6470 C   0  0  0  0  0  2  0  0  0  0  0  0
  185.2410  178.1520  142.8110 C   0  0  1  0  0  3  0  0  0  0  0  0
  185.6060  180.0000  144.2520 C   0  0  0  0  0  2  0  0  0  0  0  0
  184.1370  178.2290  143.6730 O   0  0  0  0  0  0  0  0  0  0  0  0
  184.1680  179.5300  144.1970 C   0  0  0  0  0  2  0  0  0  0  0  0
  186.3290  179.0700  143.3240 C   0  0  0  0  0  2  0  0  0  0  0  0
  188.1680  176.3080  141.0210 C   0  0  0  0  0  2  0  0  0  0  0  0
  187.6780  174.9860  140.4580 C   0  0  0  0  0  2  0  0  0  0  0  0
  187.8970  174.9650  139.0210 N   0  0  0  0  0  2  0  0  0  0  0  0
  188.7900  173.8500  138.7440 C   0  0  1  0  0  3  0  0  0  0  0  0
  188.2410  172.5820  139.3790 C   0  0  0  0  0  1  0  0  0  0  0  0
  189.0000  173.7160  137.2600 C   0  0  0  0  0  0  0  0  0  0  0  0
  188.5400  174.5730  136.5220 O   0  0  0  0  0  0  0  0  0  0  0  0
  189.6900  172.5180  136.6640 C   0  0  0  0  0  2  0  0  0  0  0  0
  191.1460  172.7860  136.2780 C   0  0  1  0  0  3  0  0  0  0  0  0
  191.5210  174.2430  136.5230 C   0  0  0  0  0  2  0  0  0  0  0  0
  192.1380  174.8730  135.2830 C   0  0  0  0  0  2  0  0  0  0  0  0
  193.0760  177.0590  136.0100 O   0  0  0  0  0  1  0  0  0  0  0  0
  192.0640  176.3560  135.3690 C   0  0  0  0  0  0  0  0  0  0  0  0
  191.0890  176.9750  134.8700 O   0  0  0  0  0  0  0  0  0  0  0  0
  192.0090  171.9400  136.9880 O   0  0  0  0  0  0  0  0  0  0  0  0
  194.1020  171.0010  135.4190 O   0  0  0  0  0  1  0  0  0  0  0  0
  191.5020  170.8060  134.5200 O   0  0  0  0  0  0  0  0  0  0  0  0
  192.4950  170.7370  135.8890 P   0  0  0  0  0  0  0  0  0  0  0  0
  192.3660  169.3660  136.5210 O   0  0  0  0  0  1  0  0  0  0  0  0
  2 15  1  0  0  0  0
  3 24  1  0  0  0  0
  3  1  2  0  0  0  0
  4  5  1  0  0  0  0
  5  7  1  0  0  0  0
  5  2  2  0  0  0  0
  6  2  1  0  0  0  0
  6 21  2  0  0  0  0
  7 20  1  0  0  0  0
  8  1  1  0  0  0  0
  8  7  2  0  0  0  0
  9  3  1  0  0  0  0
 10 11  1  0  0  0  0
 12  8  1  0  0  0  0
 13  6  1  0  0  0  0
 14  9  1  0  0  0  0
 14 12  1  0  0  0  0
 15 16  1  0  0  0  0
 15 11  2  0  0  0  0
 17 10  1  0  0  0  0
 18  4  2  0  0  0  0
 18 13  1  0  0  0  0
 19 16  2  0  0  0  0
 20 17  1  0  0  0  0
 21 19  1  0  0  0  0
 22 25  1  0  0  0  0
 22 24  1  0  0  0  0
 24 23  2  0  0  0  0
 25 26  1  0  0  0  0
 26 29  1  0  0  0  0
 27 31  1  0  0  0  0
 28 30  1  0  0  0  0
 28 27  2  0  0  0  0
 30 26  2  0  0  0  0
 31 32  1  6  0  0  0
 31 29  1  0  0  0  0
 33 32  1  0  0  0  0
 34 42  1  0  0  0  0
 34 33  1  1  0  0  0
 35 37  1  0  0  0  0
 35 42  1  1  0  0  0
 37 40  2  0  0  0  0
 37 36  2  0  0  0  0
 38 44  1  0  0  0  0
 39 38  1  1  0  0  0
 39 43  1  0  0  0  0
 39 35  1  0  0  0  0
 43 37  1  0  0  0  0
 44 34  1  0  0  0  0
 44 41  1  1  0  0  0
 45 13  1  0  0  0  0
 46 45  1  1  0  0  0
 46 50  1  0  0  0  0
 46 48  1  0  0  0  0
 48 49  1  0  0  0  0
 49 47  1  0  0  0  0
 50 47  1  0  0  0  0
 51 18  1  0  0  0  0
 52 51  1  0  0  0  0
 53 52  1  0  0  0  0
 54 53  1  0  0  0  0
 54 55  1  6  0  0  0
 56 54  1  0  0  0  0
 57 56  2  0  0  0  0
 58 56  1  0  0  0  0
 59 60  1  1  0  0  0
 59 58  1  0  0  0  0
 59 65  1  0  0  0  0
 61 63  1  0  0  0  0
 61 60  1  0  0  0  0
 63 62  1  0  0  0  0
 64 63  2  0  0  0  0
 66 68  1  0  0  0  0
 67 68  2  0  0  0  0
 68 69  1  0  0  0  0
 68 65  1  0  0  0  0
M  END
>  <MODEL>
5

>  <REMARK>
 VINA RESULT:      -5.5      1.293      2.326
  Name = 
  20 active torsions:
  status: ('A' for Active; 'I' for Inactive)
    1  A    between atoms: N_2  and  C_38
    2  A    between atoms: N_2  and  C_66
    3  A    between atoms: C_3  and  C_43
    4  A    between atoms: C_4  and  N_20
    5  A    between atoms: C_6  and  C_63
    6  A    between atoms: C_14  and  C_60
    7  A    between atoms: C_19  and  C_43
    8  A    between atoms: C_19  and  C_67
    9  A    between atoms: N_20  and  N_39
   10  A    between atoms: C_22  and  C_48
   11  A    between atoms: C_22  and  C_64
   12  A    between atoms: C_31  and  C_38
   13  A    between atoms: C_31  and  C_65
   14  A    between atoms: N_33  and  C_60
   15  A    between atoms: C_42  and  C_57
   16  A    between atoms: C_42  and  C_66
   17  A    between atoms: O_45  and  P_52
   18  A    between atoms: O_45  and  C_55
   19  A    between atoms: C_55  and  C_64
   20  A    between atoms: C_55  and  C_65
                            x       y       z     vdW  Elec       q    Type
                         _______ _______ _______ _____ _____    ______ ____

>  <TORSDO>
F 20

$$$$
=
 OpenBabel11042416293D

 69 76  0  0  1  0  0  0  0  0999 V2000
  188.6050  174.6740  139.5800 C   0  0  0  0  0  3  0  0  0  0  0  0
  186.8580  177.6200  143.2130 C   0  0  0  0  0  0  0  0  0  0  0  0
  188.9660  173.4680  139.1260 C   0  0  0  0  0  0  0  0  0  0  0  0
  188.3810  175.7960  143.7820 N   0  0  0  0  0  0  0  0  0  0  0  0
  187.6310  176.5460  142.8060 C   0  0  0  0  0  0  0  0  0  0  0  0
  187.0290  178.0500  144.5720 C   0  0  1  0  0  3  0  0  0  0  0  0
  187.9330  176.1790  141.3930 C   0  0  0  0  0  0  0  0  0  0  0  0
  188.2990  174.9320  141.0050 C   0  0  0  0  0  0  0  0  0  0  0  0
  189.0380  172.2840  140.0580 C   0  0  0  0  0  2  0  0  0  0  0  0
  185.4690  176.9270  140.4210 C   0  0  0  0  0  2  0  0  0  0  0  0
  185.3490  178.0730  141.2990 N   0  0  0  0  0  0  0  0  0  0  0  0
  188.2840  173.7480  141.9380 C   0  0  0  0  0  2  0  0  0  0  0  0
  187.8370  177.2980  145.4960 N   0  0  0  0  0  0  0  0  0  0  0  0
  189.3140  172.7110  141.5010 C   0  0  0  0  0  2  0  0  0  0  0  0
  185.9090  178.4040  142.4320 C   0  0  0  0  0  0  0  0  0  0  0  0
  185.4270  179.5580  142.9600 N   0  0  0  0  0  2  0  0  0  0  0  0
  186.6940  177.1240  139.5560 C   0  0  0  0  0  2  0  0  0  0  0  0
  188.4780  176.1140  145.0280 C   0  0  0  0  0  0  0  0  0  0  0  0
  185.7000  179.9680  144.2140 C   0  0  0  0  0  3  0  0  0  0  0  0
  187.8120  177.1680  140.4210 O   0  0  0  0  0  0  0  0  0  0  0  0
  186.4650  179.2040  145.0100 N   0  0  0  0  0  0  0  0  0  0  0  0
  189.8580  172.1000  137.2170 N   0  0  0  0  0  0  0  0  0  0  0  0
  188.8410  174.1660  136.8630 O   0  0  0  0  0  0  0  0  0  0  0  0
  189.2020  173.2810  137.6840 C   0  0  0  0  0  0  0  0  0  0  0  0
  190.2370  171.9520  135.8730 N   0  0  0  0  0  0  0  0  0  0  0  0
  191.1810  170.9540  135.4720 C   0  0  0  0  0  0  0  0  0  0  0  0
  193.2780  168.9250  135.3230 C   0  0  0  0  0  3  0  0  0  0  0  0
  191.9920  168.6280  135.5340 C   0  0  0  0  0  3  0  0  0  0  0  0
  192.6300  171.4560  134.5170 S   0  0  0  0  0  0  0  0  0  0  0  0
  190.9800  169.6690  135.7880 C   0  0  0  0  0  3  0  0  0  0  0  0
  193.7880  170.3350  135.3900 C   0  0  1  0  0  3  0  0  0  0  0  0
  193.9990  170.7490  136.8430 C   0  0  0  0  0  2  0  0  0  0  0  0
  195.4270  171.2200  137.0790 C   0  0  0  0  0  2  0  0  0  0  0  0
  195.6510  171.5770  138.5440 C   0  0  1  0  0  3  0  0  0  0  0  0
  194.4680  172.1490  140.7350 C   0  0  1  0  0  3  0  0  0  0  0  0
  192.5350  170.1460  140.8660 O   0  0  0  0  0  0  0  0  0  0  0  0
  193.3410  171.1380  141.6600 S   0  0  0  0  0  0  0  0  0  0  0  0
  196.8290  170.9400  140.6360 C   0  0  0  0  0  2  0  0  0  0  0  0
  195.6900  171.5460  141.4730 C   0  0  2  0  0  3  0  0  0  0  0  0
  192.5410  171.8820  142.6900 O   0  0  0  0  0  0  0  0  0  0  0  0
  195.6730  169.2920  139.3250 O   0  0  0  0  0  1  0  0  0  0  0  0
  194.3190  171.7940  139.2490 C   0  0  0  0  0  2  0  0  0  0  0  0
  194.8850  170.5100  142.2520 C   0  0  0  0  0  2  0  0  0  0  0  0
  196.4250  170.4700  139.2460 C   0  0  1  0  0  3  0  0  0  0  0  0
  187.9240  177.6920  146.9070 C   0  0  0  0  0  2  0  0  0  0  0  0
  186.5700  177.6110  147.6220 C   0  0  1  0  0  3  0  0  0  0  0  0
  184.2690  177.4650  147.0650 C   0  0  0  0  0  2  0  0  0  0  0  0
  186.0150  178.8840  147.8170 O   0  0  0  0  0  0  0  0  0  0  0  0
  184.6310  178.6750  147.9010 C   0  0  0  0  0  2  0  0  0  0  0  0
  185.5740  176.7520  146.8730 C   0  0  0  0  0  2  0  0  0  0  0  0
  189.2190  175.2040  145.9570 C   0  0  0  0  0  2  0  0  0  0  0  0
  190.5480  174.7960  145.3480 C   0  0  0  0  0  2  0  0  0  0  0  0
  191.6270  175.4720  146.0510 N   0  0  0  0  0  2  0  0  0  0  0  0
  192.6750  175.7280  145.0750 C   0  0  1  0  0  3  0  0  0  0  0  0
  192.5790  177.1650  144.5840 C   0  0  0  0  0  1  0  0  0  0  0  0
  194.0190  175.4020  145.6660 C   0  0  0  0  0  0  0  0  0  0  0  0
  194.5040  176.1700  146.4820 O   0  0  0  0  0  0  0  0  0  0  0  0
  194.8090  174.2000  145.2190 C   0  0  0  0  0  2  0  0  0  0  0  0
  196.1250  174.5640  144.5260 C   0  0  1  0  0  3  0  0  0  0  0  0
  197.2760  173.7130  145.0500 C   0  0  0  0  0  2  0  0  0  0  0  0
  196.8040  172.7470  146.1280 C   0  0  0  0  0  2  0  0  0  0  0  0
  197.9270  171.0380  144.7110 O   0  0  0  0  0  0  0  0  0  0  0  0
  196.9630  171.3430  145.6630 C   0  0  0  0  0  0  0  0  0  0  0  0
  196.2270  170.4320  146.1250 O   0  0  0  0  0  1  0  0  0  0  0  0
  196.0070  174.4140  143.1370 O   0  0  0  0  0  0  0  0  0  0  0  0
  196.4930  177.0900  143.7070 O   0  0  0  0  0  1  0  0  0  0  0  0
  194.5890  176.3960  141.8370 O   0  0  0  0  0  1  0  0  0  0  0  0
  196.0950  175.9830  142.4880 P   0  0  0  0  0  0  0  0  0  0  0  0
  197.1360  176.0380  141.3880 O   0  0  0  0  0  0  0  0  0  0  0  0
  1  8  1  0  0  0  0
  3  1  2  0  0  0  0
  3  9  1  0  0  0  0
  4 18  2  0  0  0  0
  5  2  2  0  0  0  0
  5  4  1  0  0  0  0
  6  2  1  6  0  0  0
  6 21  1  0  0  0  0
  6 13  1  0  0  0  0
  7  5  1  0  0  0  0
  8  7  2  0  0  0  0
  8 12  1  0  0  0  0
  9 14  1  0  0  0  0
 10 11  1  0  0  0  0
 11 15  2  0  0  0  0
 13 45  1  0  0  0  0
 14 12  1  0  0  0  0
 15 16  1  0  0  0  0
 15  2  1  0  0  0  0
 16 19  1  0  0  0  0
 17 20  1  0  0  0  0
 17 10  1  0  0  0  0
 18 13  1  0  0  0  0
 18 51  1  0  0  0  0
 19 21  2  0  0  0  0
 20  7  1  0  0  0  0
 22 24  1  0  0  0  0
 23 24  2  0  0  0  0
 24  3  1  0  0  0  0
 25 22  2  0  0  0  0
 26 30  2  0  0  0  0
 26 25  1  0  0  0  0
 27 31  1  0  0  0  0
 27 28  2  0  0  0  0
 28 30  1  0  0  0  0
 29 31  1  0  0  0  0
 29 26  1  0  0  0  0
 31 32  1  1  0  0  0
 32 33  1  0  0  0  0
 34 33  1  6  0  0  0
 34 44  1  0  0  0  0
 34 42  1  0  0  0  0
 35 42  1  6  0  0  0
 35 39  1  0  0  0  0
 35 37  1  0  0  0  0
 36 37  2  0  0  0  0
 37 43  1  0  0  0  0
 37 40  2  0  0  0  0
 39 38  1  6  0  0  0
 39 43  1  0  0  0  0
 44 41  1  1  0  0  0
 44 38  1  0  0  0  0
 46 45  1  6  0  0  0
 46 48  1  0  0  0  0
 47 49  1  0  0  0  0
 48 49  1  0  0  0  0
 50 47  1  0  0  0  0
 50 46  1  0  0  0  0
 52 51  1  0  0  0  0
 52 53  1  0  0  0  0
 54 55  1  1  0  0  0
 54 56  1  0  0  0  0
 54 53  1  0  0  0  0
 56 57  2  0  0  0  0
 58 56  1  0  0  0  0
 59 60  1  1  0  0  0
 59 58  1  0  0  0  0
 60 61  1  0  0  0  0
 62 63  2  0  0  0  0
 63 64  1  0  0  0  0
 63 61  1  0  0  0  0
 65 59  1  0  0  0  0
 67 68  1  0  0  0  0
 68 65  1  0  0  0  0
 68 66  1  0  0  0  0
 69 68  2  0  0  0  0
M  END
>  <MODEL>
6

>  <REMARK>
 VINA RESULT:      -5.2      2.812      7.411
  Name = 
  20 active torsions:
  status: ('A' for Active; 'I' for Inactive)
    1  A    between atoms: N_2  and  C_38
    2  A    between atoms: N_2  and  C_66
    3  A    between atoms: C_3  and  C_43
    4  A    between atoms: C_4  and  N_20
    5  A    between atoms: C_6  and  C_63
    6  A    between atoms: C_14  and  C_60
    7  A    between atoms: C_19  and  C_43
    8  A    between atoms: C_19  and  C_67
    9  A    between atoms: N_20  and  N_39
   10  A    between atoms: C_22  and  C_48
   11  A    between atoms: C_22  and  C_64
   12  A    between atoms: C_31  and  C_38
   13  A    between atoms: C_31  and  C_65
   14  A    between atoms: N_33  and  C_60
   15  A    between atoms: C_42  and  C_57
   16  A    between atoms: C_42  and  C_66
   17  A    between atoms: O_45  and  P_52
   18  A    between atoms: O_45  and  C_55
   19  A    between atoms: C_55  and  C_64
   20  A    between atoms: C_55  and  C_65
                            x       y       z     vdW  Elec       q    Type
                         _______ _______ _______ _____ _____    ______ ____

>  <TORSDO>
F 20

$$$$
=
 OpenBabel11042416293D

 69 76  0  0  1  0  0  0  0  0999 V2000
  191.2150  171.2440  140.5670 C   0  0  0  0  0  3  0  0  0  0  0  0
  188.6210  175.3720  141.6430 C   0  0  0  0  0  0  0  0  0  0  0  0
  191.6080  170.0000  140.8660 C   0  0  0  0  0  0  0  0  0  0  0  0
  189.7290  174.1530  143.4470 N   0  0  0  0  0  0  0  0  0  0  0  0
  189.3970  174.3020  142.0530 C   0  0  0  0  0  0  0  0  0  0  0  0
  188.3750  176.3920  142.6230 C   0  0  1  0  0  3  0  0  0  0  0  0
  190.1120  173.3520  141.1520 C   0  0  0  0  0  0  0  0  0  0  0  0
  190.4850  172.1030  141.5260 C   0  0  0  0  0  0  0  0  0  0  0  0
  191.2810  169.3900  142.2060 C   0  0  0  0  0  2  0  0  0  0  0  0
  188.1630  173.3560  139.2090 C   0  0  0  0  0  2  0  0  0  0  0  0
  187.8550  174.7620  139.3660 N   0  0  0  0  0  0  0  0  0  0  0  0
  190.0750  171.4850  142.8390 C   0  0  0  0  0  2  0  0  0  0  0  0
  188.7780  176.2230  143.9940 N   0  0  0  0  0  0  0  0  0  0  0  0
  191.1070  170.4550  143.2890 C   0  0  0  0  0  2  0  0  0  0  0  0
  188.0420  175.6240  140.3300 C   0  0  0  0  0  0  0  0  0  0  0  0
  187.5060  176.8460  140.0780 N   0  0  0  0  0  2  0  0  0  0  0  0
  189.6140  173.2350  138.7990 C   0  0  0  0  0  2  0  0  0  0  0  0
  189.4420  175.0160  144.3620 C   0  0  0  0  0  0  0  0  0  0  0  0
  187.3890  177.8100  141.0120 C   0  0  0  0  0  3  0  0  0  0  0  0
  190.3910  173.7670  139.8530 O   0  0  0  0  0  0  0  0  0  0  0  0
  187.7920  177.5670  142.2700 N   0  0  0  0  0  0  0  0  0  0  0  0
  191.7200  169.0850  138.5290 N   0  0  0  0  0  2  0  0  0  0  0  0
  193.3500  168.5770  140.1130 O   0  0  0  0  0  0  0  0  0  0  0  0
  192.2840  169.1900  139.8370 C   0  0  0  0  0  0  0  0  0  0  0  0
  192.2460  168.2070  137.5690 N   0  0  0  0  0  2  0  0  0  0  0  0
  192.9320  168.6930  136.4110 C   0  0  0  0  0  0  0  0  0  0  0  0
  194.6920  170.0500  134.5130 C   0  0  0  0  0  3  0  0  0  0  0  0
  194.9790  168.8600  135.0490 C   0  0  0  0  0  3  0  0  0  0  0  0
  192.0850  169.8560  135.3180 S   0  0  0  0  0  0  0  0  0  0  0  0
  194.1750  168.2770  136.1380 C   0  0  0  0  0  3  0  0  0  0  0  0
  193.5640  170.8980  135.0240 C   0  0  1  0  0  3  0  0  0  0  0  0
  193.9970  171.6440  136.2830 C   0  0  0  0  0  2  0  0  0  0  0  0
  195.5130  171.7590  136.3610 C   0  0  0  0  0  2  0  0  0  0  0  0
  195.9330  173.1320  136.8710 C   0  0  1  0  0  3  0  0  0  0  0  0
  195.2600  175.0610  138.4070 C   0  0  1  0  0  3  0  0  0  0  0  0
  194.5820  173.7020  140.7440 O   0  0  0  0  0  0  0  0  0  0  0  0
  195.0220  175.0200  140.1650 S   0  0  0  0  0  0  0  0  0  0  0  0
  197.7870  174.4530  137.8650 C   0  0  0  0  0  2  0  0  0  0  0  0
  196.7710  175.3660  138.5700 C   0  0  2  0  0  3  0  0  0  0  0  0
  194.2800  176.2020  140.7180 O   0  0  0  0  0  0  0  0  0  0  0  0
  197.2130  172.2890  138.7370 O   0  0  0  0  0  1  0  0  0  0  0  0
  194.8970  173.6790  137.8440 C   0  0  0  0  0  2  0  0  0  0  0  0
  196.7770  175.2300  140.0910 C   0  0  0  0  0  2  0  0  0  0  0  0
  197.2860  173.0480  137.5630 C   0  0  1  0  0  3  0  0  0  0  0  0
  188.4330  177.2280  145.0060 C   0  0  0  0  0  2  0  0  0  0  0  0
  187.1900  176.8420  145.8150 C   0  0  1  0  0  3  0  0  0  0  0  0
  184.8660  177.3190  145.8470 C   0  0  0  0  0  2  0  0  0  0  0  0
  186.9660  177.7370  146.8720 O   0  0  0  0  0  0  0  0  0  0  0  0
  185.5890  177.6620  147.1330 C   0  0  0  0  0  2  0  0  0  0  0  0
  185.9440  176.7720  144.9590 C   0  0  0  0  0  2  0  0  0  0  0  0
  189.7670  174.7030  145.7880 C   0  0  0  0  0  2  0  0  0  0  0  0
  191.0120  175.4560  146.2230 C   0  0  0  0  0  2  0  0  0  0  0  0
  192.1120  174.5180  146.3780 N   0  0  0  0  0  2  0  0  0  0  0  0
  193.2480  175.0750  145.6580 C   0  0  1  0  0  3  0  0  0  0  0  0
  193.5240  176.4880  146.1500 C   0  0  0  0  0  1  0  0  0  0  0  0
  194.4390  174.1650  145.7960 C   0  0  0  0  0  0  0  0  0  0  0  0
  195.5130  174.6490  146.1130 O   0  0  0  0  0  0  0  0  0  0  0  0
  194.3520  172.6960  145.4780 C   0  0  0  0  0  2  0  0  0  0  0  0
  195.3770  172.2400  144.4360 C   0  0  1  0  0  3  0  0  0  0  0  0
  194.9470  170.9360  143.7760 C   0  0  0  0  0  2  0  0  0  0  0  0
  196.0830  169.9220  143.7630 C   0  0  0  0  0  2  0  0  0  0  0  0
  196.0060  170.2690  141.3010 O   0  0  0  0  0  0  0  0  0  0  0  0
  196.3340  169.4510  142.3740 C   0  0  0  0  0  0  0  0  0  0  0  0
  196.8370  168.3160  142.1680 O   0  0  0  0  0  1  0  0  0  0  0  0
  195.5670  173.2330  143.4650 O   0  0  0  0  0  0  0  0  0  0  0  0
  197.4990  175.2300  143.4050 O   0  0  0  0  0  1  0  0  0  0  0  0
  197.9160  172.8580  142.0610 O   0  0  0  0  0  0  0  0  0  0  0  0
  197.2360  173.5560  143.4450 P   0  0  0  0  0  0  0  0  0  0  0  0
  197.9000  172.9630  144.6700 O   0  0  0  0  0  1  0  0  0  0  0  0
  1  3  2  0  0  0  0
  1  8  1  0  0  0  0
  2  5  2  0  0  0  0
  3  9  1  0  0  0  0
  4 18  2  0  0  0  0
  5  4  1  0  0  0  0
  6  2  1  6  0  0  0
  6 13  1  0  0  0  0
  7  8  2  0  0  0  0
  7  5  1  0  0  0  0
  8 12  1  0  0  0  0
  9 14  1  0  0  0  0
 10 11  1  0  0  0  0
 11 15  2  0  0  0  0
 12 14  1  0  0  0  0
 13 18  1  0  0  0  0
 13 45  1  0  0  0  0
 15  2  1  0  0  0  0
 16 15  1  0  0  0  0
 16 19  1  0  0  0  0
 17 10  1  0  0  0  0
 17 20  1  0  0  0  0
 18 51  1  0  0  0  0
 19 21  2  0  0  0  0
 20  7  1  0  0  0  0
 21  6  1  0  0  0  0
 22 24  1  0  0  0  0
 24 23  2  0  0  0  0
 24  3  1  0  0  0  0
 25 22  1  0  0  0  0
 26 25  1  0  0  0  0
 27 31  1  0  0  0  0
 27 28  2  0  0  0  0
 28 30  1  0  0  0  0
 29 26  1  0  0  0  0
 30 26  2  0  0  0  0
 31 29  1  0  0  0  0
 31 32  1  1  0  0  0
 32 33  1  0  0  0  0
 34 33  1  1  0  0  0
 34 44  1  0  0  0  0
 34 42  1  0  0  0  0
 35 42  1  1  0  0  0
 35 39  1  0  0  0  0
 35 37  1  0  0  0  0
 37 40  2  0  0  0  0
 37 36  2  0  0  0  0
 39 38  1  6  0  0  0
 39 43  1  0  0  0  0
 43 37  1  0  0  0  0
 44 38  1  0  0  0  0
 44 41  1  1  0  0  0
 46 45  1  6  0  0  0
 46 48  1  0  0  0  0
 47 49  1  0  0  0  0
 48 49  1  0  0  0  0
 50 46  1  0  0  0  0
 50 47  1  0  0  0  0
 51 52  1  0  0  0  0
 52 53  1  0  0  0  0
 54 56  1  0  0  0  0
 54 55  1  1  0  0  0
 54 53  1  0  0  0  0
 56 57  2  0  0  0  0
 58 56  1  0  0  0  0
 59 60  1  6  0  0  0
 59 58  1  0  0  0  0
 61 60  1  0  0  0  0
 62 63  2  0  0  0  0
 63 61  1  0  0  0  0
 64 63  1  0  0  0  0
 65 59  1  0  0  0  0
 66 68  1  0  0  0  0
 67 68  2  0  0  0  0
 68 65  1  0  0  0  0
 68 69  1  0  0  0  0
M  END
>  <MODEL>
7

>  <REMARK>
 VINA RESULT:      -5.2      3.164      7.439
  Name = 
  20 active torsions:
  status: ('A' for Active; 'I' for Inactive)
    1  A    between atoms: N_2  and  C_38
    2  A    between atoms: N_2  and  C_66
    3  A    between atoms: C_3  and  C_43
    4  A    between atoms: C_4  and  N_20
    5  A    between atoms: C_6  and  C_63
    6  A    between atoms: C_14  and  C_60
    7  A    between atoms: C_19  and  C_43
    8  A    between atoms: C_19  and  C_67
    9  A    between atoms: N_20  and  N_39
   10  A    between atoms: C_22  and  C_48
   11  A    between atoms: C_22  and  C_64
   12  A    between atoms: C_31  and  C_38
   13  A    between atoms: C_31  and  C_65
   14  A    between atoms: N_33  and  C_60
   15  A    between atoms: C_42  and  C_57
   16  A    between atoms: C_42  and  C_66
   17  A    between atoms: O_45  and  P_52
   18  A    between atoms: O_45  and  C_55
   19  A    between atoms: C_55  and  C_64
   20  A    between atoms: C_55  and  C_65
                            x       y       z     vdW  Elec       q    Type
                         _______ _______ _______ _____ _____    ______ ____

>  <TORSDO>
F 20

$$$$
=
 OpenBabel11042416293D

 69 76  0  0  1  0  0  0  0  0999 V2000
  190.9680  174.9570  142.3600 C   0  0  0  0  0  3  0  0  0  0  0  0
  195.2970  172.9230  143.7910 C   0  0  0  0  0  0  0  0  0  0  0  0
  189.6570  174.8580  142.1090 C   0  0  0  0  0  0  0  0  0  0  0  0
  193.7590  171.6150  142.4160 N   0  0  0  0  0  0  0  0  0  0  0  0
  194.0920  172.8290  143.1180 C   0  0  0  0  0  0  0  0  0  0  0  0
  196.2400  171.8660  143.5610 C   0  0  0  0  0  0  0  0  0  0  0  0
  193.1440  173.9530  142.8720 C   0  0  0  0  0  0  0  0  0  0  0  0
  191.8230  173.7770  142.6190 C   0  0  0  0  0  0  0  0  0  0  0  0
  188.9700  173.5150  142.1200 C   0  0  0  0  0  2  0  0  0  0  0  0
  193.6190  175.1950  145.2820 C   0  0  0  0  0  2  0  0  0  0  0  0
  195.0330  174.8800  145.2900 N   0  0  0  0  0  0  0  0  0  0  0  0
  191.1430  172.4350  142.7160 C   0  0  0  0  0  2  0  0  0  0  0  0
  195.8800  170.6960  142.8020 N   0  0  0  0  0  0  0  0  0  0  0  0
  189.9370  172.3790  141.7840 C   0  0  0  0  0  2  0  0  0  0  0  0
  195.7590  173.9780  144.6840 C   0  0  0  0  0  0  0  0  0  0  0  0
  197.0640  173.9900  145.0590 N   0  0  0  0  0  0  0  0  0  0  0  0
  193.3340  176.0400  144.0600 C   0  0  0  0  0  2  0  0  0  0  0  0
  194.5600  170.6140  142.2700 C   0  0  0  0  0  0  0  0  0  0  0  0
  197.9370  173.0180  144.7310 C   0  0  0  0  0  3  0  0  0  0  0  0
  193.6420  175.2520  142.9270 O   0  0  0  0  0  0  0  0  0  0  0  0
  197.5150  171.9610  144.0180 N   0  0  0  0  0  0  0  0  0  0  0  0
  187.7790  176.0920  140.9870 N   0  0  0  0  0  2  0  0  0  0  0  0
  189.1530  177.1320  142.5540 O   0  0  0  0  0  0  0  0  0  0  0  0
  188.8650  176.0850  141.9150 C   0  0  0  0  0  0  0  0  0  0  0  0
  187.0980  177.2760  140.6600 N   0  0  0  0  0  2  0  0  0  0  0  0
  185.7690  177.5240  141.1290 C   0  0  0  0  0  0  0  0  0  0  0  0
  183.3020  178.6650  142.2020 C   0  0  0  0  0  3  0  0  0  0  0  0
  183.5950  178.6600  140.8970 C   0  0  0  0  0  3  0  0  0  0  0  0
  185.2580  176.8230  142.7140 S   0  0  0  0  0  0  0  0  0  0  0  0
  184.9180  178.2480  140.3940 C   0  0  0  0  0  3  0  0  0  0  0  0
  184.3200  178.3070  143.2440 C   0  0  1  0  0  3  0  0  0  0  0  0
  185.2370  179.4960  143.5130 C   0  0  0  0  0  2  0  0  0  0  0  0
  185.5510  179.6240  144.9980 C   0  0  0  0  0  2  0  0  0  0  0  0
  185.9220  178.2740  145.5980 C   0  0  1  0  0  3  0  0  0  0  0  0
  187.6750  176.4140  145.5770 C   0  0  1  0  0  3  0  0  0  0  0  0
  190.0390  177.8740  145.8040 O   0  0  0  0  0  0  0  0  0  0  0  0
  189.3910  176.5320  146.0140 S   0  0  0  0  0  0  0  0  0  0  0  0
  186.2020  176.9930  147.7090 C   0  0  0  0  0  2  0  0  0  0  0  0
  187.2730  176.1130  147.0430 C   0  0  2  0  0  3  0  0  0  0  0  0
  190.2300  175.3760  145.5510 O   0  0  0  0  0  0  0  0  0  0  0  0
  187.1370  179.1940  147.4720 O   0  0  0  0  0  1  0  0  0  0  0  0
  187.2340  177.7710  145.0090 C   0  0  0  0  0  2  0  0  0  0  0  0
  188.6730  176.3150  147.6170 C   0  0  0  0  0  2  0  0  0  0  0  0
  186.0520  178.3850  147.1110 C   0  0  1  0  0  3  0  0  0  0  0  0
  196.8190  169.5780  142.6580 C   0  0  0  0  0  2  0  0  0  0  0  0
  197.5960  169.6320  141.3380 C   0  0  1  0  0  3  0  0  0  0  0  0
  197.3190  170.4860  139.1420 C   0  0  0  0  0  2  0  0  0  0  0  0
  197.2780  168.5460  140.5090 O   0  0  0  0  0  0  0  0  0  0  0  0
  197.5410  168.9890  139.2040 C   0  0  0  0  0  2  0  0  0  0  0  0
  197.3520  170.9180  140.5780 C   0  0  0  0  0  2  0  0  0  0  0  0
  194.0640  169.3760  141.5920 C   0  0  0  0  0  2  0  0  0  0  0  0
  192.5500  169.4050  141.4810 C   0  0  0  0  0  2  0  0  0  0  0  0
  192.1740  169.9030  140.1670 N   0  0  0  0  0  2  0  0  0  0  0  0
  192.3280  168.7960  139.2340 C   0  0  1  0  0  3  0  0  0  0  0  0
  190.9680  168.1810  138.9390 C   0  0  0  0  0  1  0  0  0  0  0  0
  193.0380  169.2660  137.9940 C   0  0  0  0  0  0  0  0  0  0  0  0
  194.2570  169.2130  137.9600 O   0  0  0  0  0  0  0  0  0  0  0  0
  192.2900  169.8690  136.8340 C   0  0  0  0  0  2  0  0  0  0  0  0
  192.2420  171.3980  136.8740 C   0  0  1  0  0  3  0  0  0  0  0  0
  193.4210  172.0050  136.1220 C   0  0  0  0  0  2  0  0  0  0  0  0
  193.0280  173.3040  135.4320 C   0  0  0  0  0  2  0  0  0  0  0  0
  192.8410  175.3620  136.8180 O   0  0  0  0  0  1  0  0  0  0  0  0
  193.6460  174.4630  136.1310 C   0  0  0  0  0  0  0  0  0  0  0  0
  194.8930  174.6350  136.0980 O   0  0  0  0  0  0  0  0  0  0  0  0
  191.0350  171.8670  136.3370 O   0  0  0  0  0  0  0  0  0  0  0  0
  191.2060  173.2980  138.7140 O   0  0  0  0  0  1  0  0  0  0  0  0
  189.3910  171.2360  138.4660 O   0  0  0  0  0  1  0  0  0  0  0  0
  190.1560  172.5040  137.6460 P   0  0  0  0  0  0  0  0  0  0  0  0
  189.1030  173.4730  137.1500 O   0  0  0  0  0  0  0  0  0  0  0  0
  1  8  1  0  0  0  0
  2 15  1  0  0  0  0
  3  9  1  0  0  0  0
  3  1  2  0  0  0  0
  4  5  1  0  0  0  0
  5  2  2  0  0  0  0
  6  2  1  0  0  0  0
  6 21  2  0  0  0  0
  7 20  1  0  0  0  0
  7  5  1  0  0  0  0
  8 12  1  0  0  0  0
  8  7  2  0  0  0  0
 10 11  1  0  0  0  0
 13  6  1  0  0  0  0
 14  9  1  0  0  0  0
 14 12  1  0  0  0  0
 15 16  1  0  0  0  0
 15 11  2  0  0  0  0
 17 10  1  0  0  0  0
 18  4  2  0  0  0  0
 18 13  1  0  0  0  0
 19 16  2  0  0  0  0
 20 17  1  0  0  0  0
 21 19  1  0  0  0  0
 22 24  1  0  0  0  0
 24  3  1  0  0  0  0
 24 23  2  0  0  0  0
 25 22  1  0  0  0  0
 25 26  1  0  0  0  0
 26 29  1  0  0  0  0
 27 31  1  0  0  0  0
 28 27  2  0  0  0  0
 29 31  1  0  0  0  0
 30 28  1  0  0  0  0
 30 26  2  0  0  0  0
 31 32  1  6  0  0  0
 32 33  1  0  0  0  0
 34 33  1  6  0  0  0
 34 44  1  0  0  0  0
 35 42  1  1  0  0  0
 35 37  1  0  0  0  0
 35 39  1  0  0  0  0
 36 37  2  0  0  0  0
 37 43  1  0  0  0  0
 39 43  1  1  0  0  0
 39 38  1  0  0  0  0
 40 37  2  0  0  0  0
 42 34  1  0  0  0  0
 44 41  1  6  0  0  0
 44 38  1  0  0  0  0
 45 13  1  0  0  0  0
 46 45  1  1  0  0  0
 47 49  1  0  0  0  0
 47 50  1  0  0  0  0
 48 46  1  0  0  0  0
 49 48  1  0  0  0  0
 50 46  1  0  0  0  0
 51 18  1  0  0  0  0
 52 51  1  0  0  0  0
 53 52  1  0  0  0  0
 54 55  1  6  0  0  0
 54 53  1  0  0  0  0
 56 54  1  0  0  0  0
 57 56  2  0  0  0  0
 58 59  1  0  0  0  0
 58 56  1  0  0  0  0
 59 60  1  6  0  0  0
 61 60  1  0  0  0  0
 61 63  1  0  0  0  0
 63 62  1  0  0  0  0
 64 63  2  0  0  0  0
 65 59  1  0  0  0  0
 65 68  1  0  0  0  0
 68 67  1  0  0  0  0
 68 66  1  0  0  0  0
 69 68  2  0  0  0  0
M  END
>  <MODEL>
8

>  <REMARK>
 VINA RESULT:      -5.0      2.849      9.569
  Name = 
  20 active torsions:
  status: ('A' for Active; 'I' for Inactive)
    1  A    between atoms: N_2  and  C_38
    2  A    between atoms: N_2  and  C_66
    3  A    between atoms: C_3  and  C_43
    4  A    between atoms: C_4  and  N_20
    5  A    between atoms: C_6  and  C_63
    6  A    between atoms: C_14  and  C_60
    7  A    between atoms: C_19  and  C_43
    8  A    between atoms: C_19  and  C_67
    9  A    between atoms: N_20  and  N_39
   10  A    between atoms: C_22  and  C_48
   11  A    between atoms: C_22  and  C_64
   12  A    between atoms: C_31  and  C_38
   13  A    between atoms: C_31  and  C_65
   14  A    between atoms: N_33  and  C_60
   15  A    between atoms: C_42  and  C_57
   16  A    between atoms: C_42  and  C_66
   17  A    between atoms: O_45  and  P_52
   18  A    between atoms: O_45  and  C_55
   19  A    between atoms: C_55  and  C_64
   20  A    between atoms: C_55  and  C_65
                            x       y       z     vdW  Elec       q    Type
                         _______ _______ _______ _____ _____    ______ ____

>  <TORSDO>
F 20

$$$$
=
 OpenBabel11042416293D

 69 76  0  0  1  0  0  0  0  0999 V2000
  184.0440  178.2450  142.2850 C   0  0  0  0  0  3  0  0  0  0  0  0
  180.3780  177.3430  139.0190 C   0  0  0  0  0  0  0  0  0  0  0  0
  185.3230  178.5340  142.5570 C   0  0  0  0  0  0  0  0  0  0  0  0
  182.6170  176.4740  138.5720 N   0  0  0  0  0  0  0  0  0  0  0  0
  181.7010  177.2130  139.4030 C   0  0  0  0  0  0  0  0  0  0  0  0
  179.9550  176.5380  137.9090 C   0  0  0  0  0  0  0  0  0  0  0  0
  182.2650  177.6110  140.7250 C   0  0  0  0  0  0  0  0  0  0  0  0
  183.5770  177.8860  140.9280 C   0  0  0  0  0  0  0  0  0  0  0  0
  186.3590  178.5460  141.4600 C   0  0  0  0  0  2  0  0  0  0  0  0
  180.6480  179.8190  141.0180 C   0  0  0  0  0  2  0  0  0  0  0  0
  179.4910  179.1880  140.4180 N   0  0  0  0  0  0  0  0  0  0  0  0
  184.5780  177.9720  139.8030 C   0  0  0  0  0  2  0  0  0  0  0  0
  180.9000  175.7680  137.1420 N   0  0  0  0  0  0  0  0  0  0  0  0
  185.9750  177.6200  140.3040 C   0  0  0  0  0  2  0  0  0  0  0  0
  179.3350  178.1680  139.6160 C   0  0  0  0  0  0  0  0  0  0  0  0
  178.0490  177.9740  139.2270 N   0  0  0  0  0  0  0  0  0  0  0  0
  181.0360  179.0210  142.2430 C   0  0  0  0  0  2  0  0  0  0  0  0
  182.2750  175.8130  137.5180 C   0  0  0  0  0  0  0  0  0  0  0  0
  177.6930  177.1280  138.2410 C   0  0  0  0  0  3  0  0  0  0  0  0
  181.3890  177.7250  141.8020 O   0  0  0  0  0  0  0  0  0  0  0  0
  178.6420  176.4460  137.5780 N   0  0  0  0  0  0  0  0  0  0  0  0
  186.5450  178.0910  144.7060 N   0  0  0  0  0  0  0  0  0  0  0  0
  185.2610  180.0130  144.4090 O   0  0  0  0  0  0  0  0  0  0  0  0
  185.6980  178.9350  143.9230 C   0  0  0  0  0  0  0  0  0  0  0  0
  186.8020  178.3600  146.0600 N   0  0  0  0  0  0  0  0  0  0  0  0
  187.8850  177.7290  146.7510 C   0  0  0  0  0  0  0  0  0  0  0  0
  190.4550  176.6300  147.6040 C   0  0  0  0  0  3  0  0  0  0  0  0
  190.0540  177.8680  147.9110 C   0  0  0  0  0  3  0  0  0  0  0  0
  187.9200  175.9250  146.8580 S   0  0  0  0  0  0  0  0  0  0  0  0
  188.8430  178.4670  147.3220 C   0  0  0  0  0  3  0  0  0  0  0  0
  189.7290  175.7900  146.5950 C   0  0  1  0  0  3  0  0  0  0  0  0
  190.1330  176.1990  145.1820 C   0  0  0  0  0  2  0  0  0  0  0  0
  191.0010  175.1330  144.5270 C   0  0  0  0  0  2  0  0  0  0  0  0
  192.4070  175.1340  145.1160 C   0  0  1  0  0  3  0  0  0  0  0  0
  194.6920  173.9940  145.0120 C   0  0  1  0  0  3  0  0  0  0  0  0
  195.1600  173.9350  142.2650 O   0  0  0  0  0  0  0  0  0  0  0  0
  195.7980  173.8990  143.6280 S   0  0  0  0  0  0  0  0  0  0  0  0
  194.3730  176.5410  145.6870 C   0  0  0  0  0  2  0  0  0  0  0  0
  195.3070  175.3390  145.4730 C   0  0  2  0  0  3  0  0  0  0  0  0
  196.8750  172.8620  143.7650 O   0  0  0  0  0  0  0  0  0  0  0  0
  193.3010  176.7360  143.5460 O   0  0  0  0  0  1  0  0  0  0  0  0
  193.2550  174.0460  144.4720 C   0  0  0  0  0  2  0  0  0  0  0  0
  196.2320  175.4890  144.2690 C   0  0  0  0  0  2  0  0  0  0  0  0
  193.0680  176.4880  144.9040 C   0  0  1  0  0  3  0  0  0  0  0  0
  180.4720  175.0280  135.9490 C   0  0  0  0  0  2  0  0  0  0  0  0
  180.2290  173.5420  136.2380 C   0  0  1  0  0  3  0  0  0  0  0  0
  179.8330  171.5370  135.0350 C   0  0  0  0  0  2  0  0  0  0  0  0
  178.8600  173.2580  136.3470 O   0  0  0  0  0  0  0  0  0  0  0  0
  178.7370  171.9000  136.0160 C   0  0  0  0  0  2  0  0  0  0  0  0
  180.8340  172.6440  135.1810 C   0  0  0  0  0  2  0  0  0  0  0  0
  183.3360  175.1560  136.6930 C   0  0  0  0  0  2  0  0  0  0  0  0
  184.3370  176.1860  136.2030 C   0  0  0  0  0  2  0  0  0  0  0  0
  185.5800  176.0380  136.9420 N   0  0  0  0  0  2  0  0  0  0  0  0
  186.6230  175.7550  135.9670 C   0  0  1  0  0  3  0  0  0  0  0  0
  186.8900  176.9940  135.1270 C   0  0  0  0  0  1  0  0  0  0  0  0
  187.8550  175.2470  136.6660 C   0  0  0  0  0  0  0  0  0  0  0  0
  188.9180  175.2610  136.0670 O   0  0  0  0  0  0  0  0  0  0  0  0
  187.7910  174.6530  138.0480 C   0  0  0  0  0  2  0  0  0  0  0  0
  189.0120  173.7970  138.3980 C   0  0  1  0  0  3  0  0  0  0  0  0
  188.9120  173.2500  139.8160 C   0  0  0  0  0  2  0  0  0  0  0  0
  189.7000  174.1070  140.7970 C   0  0  0  0  0  2  0  0  0  0  0  0
  188.8300  176.1820  141.8580 O   0  0  0  0  0  0  0  0  0  0  0  0
  188.7750  174.8000  141.7320 C   0  0  0  0  0  0  0  0  0  0  0  0
  187.9460  174.1410  142.4130 O   0  0  0  0  0  1  0  0  0  0  0  0
  189.1530  172.7450  137.4830 O   0  0  0  0  0  0  0  0  0  0  0  0
  191.3730  171.2770  138.2860 O   0  0  0  0  0  1  0  0  0  0  0  0
  191.6260  173.9580  137.6880 O   0  0  0  0  0  1  0  0  0  0  0  0
  190.8260  172.5250  137.2760 P   0  0  0  0  0  0  0  0  0  0  0  0
  191.1370  172.1870  135.8330 O   0  0  0  0  0  0  0  0  0  0  0  0
  1  3  2  0  0  0  0
  2  5  2  0  0  0  0
  2 15  1  0  0  0  0
  3 24  1  0  0  0  0
  4  5  1  0  0  0  0
  5  7  1  0  0  0  0
  6  2  1  0  0  0  0
  7  8  2  0  0  0  0
  7 20  1  0  0  0  0
  8  1  1  0  0  0  0
  9  3  1  0  0  0  0
 10 17  1  0  0  0  0
 11 10  1  0  0  0  0
 12 14  1  0  0  0  0
 12  8  1  0  0  0  0
 13 18  1  0  0  0  0
 13  6  1  0  0  0  0
 14  9  1  0  0  0  0
 15 11  2  0  0  0  0
 16 15  1  0  0  0  0
 18  4  2  0  0  0  0
 19 16  2  0  0  0  0
 20 17  1  0  0  0  0
 21  6  2  0  0  0  0
 21 19  1  0  0  0  0
 22 25  2  0  0  0  0
 24 23  2  0  0  0  0
 24 22  1  0  0  0  0
 25 26  1  0  0  0  0
 26 29  1  0  0  0  0
 26 30  2  0  0  0  0
 27 28  2  0  0  0  0
 30 28  1  0  0  0  0
 31 32  1  6  0  0  0
 31 29  1  0  0  0  0
 31 27  1  0  0  0  0
 33 32  1  0  0  0  0
 34 33  1  6  0  0  0
 35 42  1  6  0  0  0
 35 39  1  0  0  0  0
 36 37  2  0  0  0  0
 37 40  2  0  0  0  0
 37 43  1  0  0  0  0
 37 35  1  0  0  0  0
 39 43  1  6  0  0  0
 39 38  1  0  0  0  0
 42 34  1  0  0  0  0
 44 41  1  6  0  0  0
 44 34  1  0  0  0  0
 44 38  1  0  0  0  0
 45 13  1  0  0  0  0
 46 45  1  6  0  0  0
 46 48  1  0  0  0  0
 47 50  1  0  0  0  0
 47 49  1  0  0  0  0
 49 48  1  0  0  0  0
 50 46  1  0  0  0  0
 51 18  1  0  0  0  0
 52 51  1  0  0  0  0
 52 53  1  0  0  0  0
 54 55  1  1  0  0  0
 54 56  1  0  0  0  0
 54 53  1  0  0  0  0
 56 58  1  0  0  0  0
 57 56  2  0  0  0  0
 59 58  1  6  0  0  0
 59 60  1  0  0  0  0
 60 61  1  0  0  0  0
 61 63  1  0  0  0  0
 63 62  2  0  0  0  0
 63 64  1  0  0  0  0
 65 59  1  0  0  0  0
 68 65  1  0  0  0  0
 68 67  1  0  0  0  0
 68 66  1  0  0  0  0
 69 68  2  0  0  0  0
M  END
>  <MODEL>
9

>  <REMARK>
 VINA RESULT:      -4.8      4.748      8.831
  Name = 
  20 active torsions:
  status: ('A' for Active; 'I' for Inactive)
    1  A    between atoms: N_2  and  C_38
    2  A    between atoms: N_2  and  C_66
    3  A    between atoms: C_3  and  C_43
    4  A    between atoms: C_4  and  N_20
    5  A    between atoms: C_6  and  C_63
    6  A    between atoms: C_14  and  C_60
    7  A    between atoms: C_19  and  C_43
    8  A    between atoms: C_19  and  C_67
    9  A    between atoms: N_20  and  N_39
   10  A    between atoms: C_22  and  C_48
   11  A    between atoms: C_22  and  C_64
   12  A    between atoms: C_31  and  C_38
   13  A    between atoms: C_31  and  C_65
   14  A    between atoms: N_33  and  C_60
   15  A    between atoms: C_42  and  C_57
   16  A    between atoms: C_42  and  C_66
   17  A    between atoms: O_45  and  P_52
   18  A    between atoms: O_45  and  C_55
   19  A    between atoms: C_55  and  C_64
   20  A    between atoms: C_55  and  C_65
                            x       y       z     vdW  Elec       q    Type
                         _______ _______ _______ _____ _____    ______ ____

>  <TORSDO>
F 20

$$$$
