=
 OpenBabel11042418443D

 44 48  0  0  1  0  0  0  0  0999 V2000
  187.6180  176.1530  146.9840 N   0  0  0  0  0  0  0  0  0  0  0  0
  184.5700  178.0430  146.5270 C   0  0  0  0  0  3  0  0  0  0  0  0
  184.7680  179.3240  144.4940 C   0  0  0  0  0  3  0  0  0  0  0  0
  186.5700  177.9270  145.1700 C   0  0  0  0  0  0  0  0  0  0  0  0
  187.8530  177.4020  144.9580 C   0  0  0  0  0  0  0  0  0  0  0  0
  186.0120  178.8110  144.2950 N   0  0  0  0  0  0  0  0  0  0  0  0
  185.8480  177.5290  146.3070 C   0  0  0  0  0  0  0  0  0  0  0  0
  188.3880  176.5020  145.9130 C   0  0  0  0  0  0  0  0  0  0  0  0
  184.0240  178.9490  145.6160 C   0  0  0  0  0  3  0  0  0  0  0  0
  186.3950  176.6460  147.1770 N   0  0  0  0  0  0  0  0  0  0  0  0
  192.8280  175.1150  145.8900 C   0  0  0  0  0  0  0  0  0  0  0  0
  192.2100  176.2340  146.2540 C   0  0  0  0  0  3  0  0  0  0  0  0
  189.8020  174.5210  145.3010 C   0  0  0  0  0  3  0  0  0  0  0  0
  190.7940  176.5960  146.2230 C   0  0  0  0  0  3  0  0  0  0  0  0
  192.1970  173.9790  145.3690 O   0  0  0  0  0  0  0  0  0  0  0  0
  189.7410  175.8980  145.8040 C   0  0  0  0  0  0  0  0  0  0  0  0
  190.8470  173.7210  145.1200 C   0  0  0  0  0  3  0  0  0  0  0  0
  196.4200  174.2010  145.9630 N   0  0  0  0  0  0  0  0  0  0  0  0
  197.3670  173.1840  145.7420 N   0  0  0  0  0  2  0  0  0  0  0  0
  194.6290  172.6620  145.3590 C   0  0  0  0  0  2  0  0  0  0  0  0
  195.6830  171.8790  144.5850 C   0  0  0  0  0  2  0  0  0  0  0  0
  195.1460  174.0170  145.7750 C   0  0  0  0  0  0  0  0  0  0  0  0
  196.9590  171.8260  145.4070 C   0  0  0  0  0  2  0  0  0  0  0  0
  194.2510  175.1030  146.0530 N   0  0  0  0  0  2  0  0  0  0  0  0
  188.6120  177.7950  143.7250 C   0  0  0  0  0  2  0  0  0  0  0  0
  188.7490  176.6400  142.8510 N   0  0  0  0  0  2  0  0  0  0  0  0
  187.2780  177.4640  141.2380 O   0  0  0  0  0  0  0  0  0  0  0  0
  188.0300  176.5280  141.6220 C   0  0  0  0  0  0  0  0  0  0  0  0
  188.1410  175.3460  140.8220 N   0  0  0  0  0  2  0  0  0  0  0  0
  188.1470  173.1000  141.8010 C   0  0  0  0  0  1  0  0  0  0  0  0
  188.9760  174.1940  141.1540 C   0  0  1  0  0  3  0  0  0  0  0  0
  189.7000  173.6510  139.9260 C   0  0  0  0  0  2  0  0  0  0  0  0
  191.4770  172.0030  140.4200 C   0  0  0  0  0  1  0  0  0  0  0  0
  191.1870  173.4710  140.1860 C   0  0  2  0  0  3  0  0  0  0  0  0
  191.5840  174.2290  141.3610 N   0  0  0  0  0  2  0  0  0  0  0  0
  192.8930  173.8400  141.6710 N   0  0  0  0  0  2  0  0  0  0  0  0
  193.4690  174.8980  142.3850 N   0  0  0  0  0  2  0  0  0  0  0  0
  197.8660  174.9950  141.7120 O   0  0  0  0  0  0  0  0  0  0  0  0
  194.8580  175.1950  142.2550 C   0  0  0  0  0  0  0  0  0  0  0  0
  197.7510  175.6580  142.9350 C   0  0  0  0  0  2  0  0  0  0  0  0
  195.3440  176.2040  142.9190 N   0  0  0  0  0  0  0  0  0  0  0  0
  195.6470  174.3960  141.4160 O   0  0  0  0  0  0  0  0  0  0  0  0
  196.6970  176.7450  142.8080 C   0  0  0  0  0  2  0  0  0  0  0  0
  196.9470  173.9450  141.7800 C   0  0  0  0  0  2  0  0  0  0  0  0
  1 10  1  0  0  0  0
  3  9  1  0  0  0  0
  4  7  1  0  0  0  0
  5  4  2  0  0  0  0
  5  8  1  0  0  0  0
  6  3  2  0  0  0  0
  6  4  1  0  0  0  0
  7  2  1  0  0  0  0
  7 10  2  0  0  0  0
  8  1  2  0  0  0  0
  9  2  2  0  0  0  0
 11 24  1  0  0  0  0
 11 12  2  0  0  0  0
 13 16  1  0  0  0  0
 14 12  1  0  0  0  0
 15 11  1  0  0  0  0
 16  8  1  0  0  0  0
 16 14  2  0  0  0  0
 17 13  2  0  0  0  0
 17 15  1  0  0  0  0
 19 18  1  0  0  0  0
 20 22  1  0  0  0  0
 21 20  1  0  0  0  0
 21 23  1  0  0  0  0
 22 18  2  0  0  0  0
 22 24  1  0  0  0  0
 23 19  1  0  0  0  0
 25  5  1  0  0  0  0
 26 25  1  0  0  0  0
 27 28  2  0  0  0  0
 28 26  1  0  0  0  0
 29 31  1  0  0  0  0
 29 28  1  0  0  0  0
 31 30  1  6  0  0  0
 32 34  1  0  0  0  0
 32 31  1  0  0  0  0
 34 33  1  1  0  0  0
 34 35  1  0  0  0  0
 35 36  1  0  0  0  0
 36 37  1  0  0  0  0
 38 44  1  0  0  0  0
 38 40  1  0  0  0  0
 39 37  1  0  0  0  0
 39 41  2  0  0  0  0
 42 44  1  0  0  0  0
 42 39  1  0  0  0  0
 43 41  1  0  0  0  0
 43 40  1  0  0  0  0
M  END
>  <MODEL>
1

>  <REMARK>
 VINA RESULT:      -8.2      0.000      0.000
  Name = 
  10 active torsions:
  status: ('A' for Active; 'I' for Inactive)
    1  A    between atoms: C_2  and  N_40
    2  A    between atoms: N_7  and  N_25
    3  A    between atoms: N_8  and  C_39
    4  A    between atoms: C_9  and  N_28
    5  A    between atoms: C_9  and  C_42
    6  A    between atoms: C_23  and  C_39
    7  A    between atoms: N_25  and  N_38
    8  A    between atoms: C_33  and  C_35
    9  A    between atoms: N_38  and  C_41
   10  A    between atoms: C_41  and  C_42
                            x       y       z     vdW  Elec       q    Type
                         _______ _______ _______ _____ _____    ______ ____

>  <TORSDO>
F 10

$$$$
=
 OpenBabel11042418443D

 44 48  0  0  1  0  0  0  0  0999 V2000
  194.8300  175.2680  146.0280 N   0  0  0  0  0  0  0  0  0  0  0  0
  197.1260  172.5160  145.5510 C   0  0  0  0  0  3  0  0  0  0  0  0
  195.8670  170.5920  144.8270 C   0  0  0  0  0  3  0  0  0  0  0  0
  194.7280  172.6350  145.2550 C   0  0  0  0  0  0  0  0  0  0  0  0
  193.5440  173.3840  145.3050 C   0  0  0  0  0  0  0  0  0  0  0  0
  194.7220  171.3260  144.8780 N   0  0  0  0  0  0  0  0  0  0  0  0
  195.9420  173.2520  145.5990 C   0  0  0  0  0  0  0  0  0  0  0  0
  193.6100  174.7370  145.7240 C   0  0  0  0  0  0  0  0  0  0  0  0
  197.0910  171.1750  145.1640 C   0  0  0  0  0  3  0  0  0  0  0  0
  195.9540  174.5550  145.9690 N   0  0  0  0  0  0  0  0  0  0  0  0
  189.9070  177.3830  146.6860 C   0  0  0  0  0  0  0  0  0  0  0  0
  190.6390  176.5250  147.3890 C   0  0  0  0  0  3  0  0  0  0  0  0
  192.0670  176.3910  144.6360 C   0  0  0  0  0  3  0  0  0  0  0  0
  191.7970  175.7200  147.0060 C   0  0  0  0  0  3  0  0  0  0  0  0
  190.1180  177.7080  145.3410 O   0  0  0  0  0  0  0  0  0  0  0  0
  192.4210  175.6210  145.8340 C   0  0  0  0  0  0  0  0  0  0  0  0
  191.0900  177.2690  144.4400 C   0  0  0  0  0  3  0  0  0  0  0  0
  186.5750  178.4940  147.8730 N   0  0  0  0  0  0  0  0  0  0  0  0
  185.1860  178.4430  147.6570 N   0  0  0  0  0  2  0  0  0  0  0  0
  186.9310  177.1010  145.9050 C   0  0  0  0  0  2  0  0  0  0  0  0
  185.5040  176.6060  146.1070 C   0  0  0  0  0  2  0  0  0  0  0  0
  187.4220  177.8700  147.1070 C   0  0  0  0  0  0  0  0  0  0  0  0
  184.6230  177.7840  146.4850 C   0  0  0  0  0  2  0  0  0  0  0  0
  188.8220  178.0030  147.3870 N   0  0  0  0  0  2  0  0  0  0  0  0
  192.2500  172.7420  144.9020 C   0  0  0  0  0  2  0  0  0  0  0  0
  192.0340  172.9370  143.4770 N   0  0  0  0  0  2  0  0  0  0  0  0
  191.9160  170.6560  143.0010 O   0  0  0  0  0  0  0  0  0  0  0  0
  191.8960  171.8400  142.5720 C   0  0  0  0  0  0  0  0  0  0  0  0
  191.7520  172.0730  141.1670 N   0  0  0  0  0  2  0  0  0  0  0  0
  192.4240  173.3760  139.2040 C   0  0  0  0  0  1  0  0  0  0  0  0
  191.7130  173.3950  140.5440 C   0  0  1  0  0  3  0  0  0  0  0  0
  190.2810  173.8950  140.3740 C   0  0  0  0  0  2  0  0  0  0  0  0
  188.6340  172.8750  138.8380 C   0  0  0  0  0  1  0  0  0  0  0  0
  189.3040  172.7450  140.1890 C   0  0  2  0  0  3  0  0  0  0  0  0
  188.2900  172.7800  141.2310 N   0  0  0  0  0  2  0  0  0  0  0  0
  188.6240  173.8390  142.0850 N   0  0  0  0  0  2  0  0  0  0  0  0
  187.4180  174.4250  142.4900 N   0  0  0  0  0  2  0  0  0  0  0  0
  187.4640  178.7900  141.6340 O   0  0  0  0  0  0  0  0  0  0  0  0
  187.1550  175.8030  142.2340 C   0  0  0  0  0  0  0  0  0  0  0  0
  186.5190  178.7120  142.6590 C   0  0  0  0  0  2  0  0  0  0  0  0
  186.0100  176.2970  142.6080 N   0  0  0  0  0  0  0  0  0  0  0  0
  188.1310  176.5720  141.5870 O   0  0  0  0  0  0  0  0  0  0  0  0
  185.5050  177.6360  142.3110 C   0  0  0  0  0  2  0  0  0  0  0  0
  188.4700  177.8920  141.9970 C   0  0  0  0  0  2  0  0  0  0  0  0
  2  7  1  0  0  0  0
  3  6  2  0  0  0  0
  3  9  1  0  0  0  0
  4  5  2  0  0  0  0
  4  7  1  0  0  0  0
  5  8  1  0  0  0  0
  6  4  1  0  0  0  0
  7 10  2  0  0  0  0
  8 16  1  0  0  0  0
  8  1  2  0  0  0  0
  9  2  2  0  0  0  0
 10  1  1  0  0  0  0
 11 24  1  0  0  0  0
 11 12  2  0  0  0  0
 13 16  1  0  0  0  0
 14 12  1  0  0  0  0
 15 11  1  0  0  0  0
 16 14  2  0  0  0  0
 17 13  2  0  0  0  0
 17 15  1  0  0  0  0
 19 18  1  0  0  0  0
 20 21  1  0  0  0  0
 20 22  1  0  0  0  0
 21 23  1  0  0  0  0
 22 24  1  0  0  0  0
 22 18  2  0  0  0  0
 23 19  1  0  0  0  0
 25  5  1  0  0  0  0
 26 25  1  0  0  0  0
 28 27  2  0  0  0  0
 28 26  1  0  0  0  0
 29 28  1  0  0  0  0
 31 30  1  6  0  0  0
 31 29  1  0  0  0  0
 32 31  1  0  0  0  0
 34 33  1  6  0  0  0
 34 32  1  0  0  0  0
 34 35  1  0  0  0  0
 35 36  1  0  0  0  0
 36 37  1  0  0  0  0
 38 44  1  0  0  0  0
 38 40  1  0  0  0  0
 39 37  1  0  0  0  0
 39 41  2  0  0  0  0
 42 44  1  0  0  0  0
 42 39  1  0  0  0  0
 43 41  1  0  0  0  0
 43 40  1  0  0  0  0
M  END
>  <MODEL>
2

>  <REMARK>
 VINA RESULT:      -8.1      2.533      8.356
  Name = 
  10 active torsions:
  status: ('A' for Active; 'I' for Inactive)
    1  A    between atoms: C_2  and  N_40
    2  A    between atoms: N_7  and  N_25
    3  A    between atoms: N_8  and  C_39
    4  A    between atoms: C_9  and  N_28
    5  A    between atoms: C_9  and  C_42
    6  A    between atoms: C_23  and  C_39
    7  A    between atoms: N_25  and  N_38
    8  A    between atoms: C_33  and  C_35
    9  A    between atoms: N_38  and  C_41
   10  A    between atoms: C_41  and  C_42
                            x       y       z     vdW  Elec       q    Type
                         _______ _______ _______ _____ _____    ______ ____

>  <TORSDO>
F 10

$$$$
=
 OpenBabel11042418443D

 44 48  0  0  1  0  0  0  0  0999 V2000
  193.7000  175.5400  146.0700 N   0  0  0  0  0  0  0  0  0  0  0  0
  196.6970  175.5940  144.0470 C   0  0  0  0  0  3  0  0  0  0  0  0
  196.0860  176.2180  141.8000 C   0  0  0  0  0  3  0  0  0  0  0  0
  194.3960  176.0650  143.4670 C   0  0  0  0  0  0  0  0  0  0  0  0
  193.0520  176.1690  143.8540 C   0  0  0  0  0  0  0  0  0  0  0  0
  194.7840  176.3160  142.1840 N   0  0  0  0  0  0  0  0  0  0  0  0
  195.3570  175.6980  144.4220 C   0  0  0  0  0  0  0  0  0  0  0  0
  192.7060  175.8760  145.1980 C   0  0  0  0  0  0  0  0  0  0  0  0
  197.0670  175.8540  142.7260 C   0  0  0  0  0  3  0  0  0  0  0  0
  194.9770  175.4530  145.6990 N   0  0  0  0  0  0  0  0  0  0  0  0
  188.3680  176.6670  146.6780 C   0  0  0  0  0  0  0  0  0  0  0  0
  189.3630  177.4480  146.2700 C   0  0  0  0  0  3  0  0  0  0  0  0
  190.6760  174.6460  146.0110 C   0  0  0  0  0  3  0  0  0  0  0  0
  190.7140  177.1160  145.8210 C   0  0  0  0  0  3  0  0  0  0  0  0
  188.4230  175.2700  146.7640 O   0  0  0  0  0  0  0  0  0  0  0  0
  191.3160  175.9330  145.7180 C   0  0  0  0  0  0  0  0  0  0  0  0
  189.4520  174.3790  146.4550 C   0  0  0  0  0  3  0  0  0  0  0  0
  185.0930  178.4030  146.7140 N   0  0  0  0  0  0  0  0  0  0  0  0
  184.0560  178.9490  145.9360 N   0  0  0  0  0  2  0  0  0  0  0  0
  186.3020  177.8060  144.6840 C   0  0  0  0  0  2  0  0  0  0  0  0
  184.9510  177.8330  143.9780 C   0  0  0  0  0  2  0  0  0  0  0  0
  186.1390  177.8410  146.1840 C   0  0  0  0  0  0  0  0  0  0  0  0
  184.1550  179.0240  144.4830 C   0  0  0  0  0  2  0  0  0  0  0  0
  187.1590  177.3370  147.0570 N   0  0  0  0  0  2  0  0  0  0  0  0
  192.0270  176.5980  142.8460 C   0  0  0  0  0  2  0  0  0  0  0  0
  191.2000  175.4580  142.4800 N   0  0  0  0  0  2  0  0  0  0  0  0
  189.1990  176.6520  142.5830 O   0  0  0  0  0  0  0  0  0  0  0  0
  189.7780  175.5500  142.3870 C   0  0  0  0  0  0  0  0  0  0  0  0
  188.9940  174.3910  142.0890 N   0  0  0  0  0  2  0  0  0  0  0  0
  189.0720  172.0800  142.9020 C   0  0  0  0  0  1  0  0  0  0  0  0
  189.5420  173.0590  141.8420 C   0  0  1  0  0  3  0  0  0  0  0  0
  189.1740  172.5470  140.4530 C   0  0  0  0  0  2  0  0  0  0  0  0
  189.6030  173.6340  138.2730 C   0  0  0  0  0  1  0  0  0  0  0  0
  190.2430  172.8910  139.4270 C   0  0  2  0  0  3  0  0  0  0  0  0
  190.8640  171.6750  138.9270 N   0  0  0  0  0  2  0  0  0  0  0  0
  192.1570  171.6320  139.4630 N   0  0  0  0  0  2  0  0  0  0  0  0
  192.1410  170.6650  140.4760 N   0  0  0  0  0  2  0  0  0  0  0  0
  193.7390  172.3740  144.2600 O   0  0  0  0  0  0  0  0  0  0  0  0
  192.5180  171.0010  141.8100 C   0  0  0  0  0  0  0  0  0  0  0  0
  193.9600  171.0090  144.4500 C   0  0  0  0  0  2  0  0  0  0  0  0
  192.4630  170.0740  142.7230 N   0  0  0  0  0  0  0  0  0  0  0  0
  192.9260  172.3110  142.0910 O   0  0  0  0  0  0  0  0  0  0  0  0
  192.6720  170.2580  144.1580 C   0  0  0  0  0  2  0  0  0  0  0  0
  194.0460  172.6090  142.9180 C   0  0  0  0  0  2  0  0  0  0  0  0
  2  7  1  0  0  0  0
  3  6  2  0  0  0  0
  3  9  1  0  0  0  0
  4  5  2  0  0  0  0
  4  7  1  0  0  0  0
  5  8  1  0  0  0  0
  6  4  1  0  0  0  0
  7 10  2  0  0  0  0
  8 16  1  0  0  0  0
  8  1  2  0  0  0  0
  9  2  2  0  0  0  0
 10  1  1  0  0  0  0
 11 15  1  0  0  0  0
 11 24  1  0  0  0  0
 12 11  2  0  0  0  0
 13 17  2  0  0  0  0
 14 12  1  0  0  0  0
 16 14  2  0  0  0  0
 16 13  1  0  0  0  0
 17 15  1  0  0  0  0
 19 18  1  0  0  0  0
 20 22  1  0  0  0  0
 21 23  1  0  0  0  0
 21 20  1  0  0  0  0
 22 18  2  0  0  0  0
 22 24  1  0  0  0  0
 23 19  1  0  0  0  0
 25  5  1  0  0  0  0
 26 25  1  0  0  0  0
 28 26  1  0  0  0  0
 28 27  2  0  0  0  0
 29 28  1  0  0  0  0
 31 29  1  0  0  0  0
 31 30  1  1  0  0  0
 32 31  1  0  0  0  0
 34 33  1  6  0  0  0
 34 32  1  0  0  0  0
 35 34  1  0  0  0  0
 35 36  1  0  0  0  0
 36 37  1  0  0  0  0
 37 39  1  0  0  0  0
 38 40  1  0  0  0  0
 39 42  1  0  0  0  0
 39 41  2  0  0  0  0
 41 43  1  0  0  0  0
 42 44  1  0  0  0  0
 43 40  1  0  0  0  0
 44 38  1  0  0  0  0
M  END
>  <MODEL>
3

>  <REMARK>
 VINA RESULT:      -7.8      2.091      7.174
  Name = 
  10 active torsions:
  status: ('A' for Active; 'I' for Inactive)
    1  A    between atoms: C_2  and  N_40
    2  A    between atoms: N_7  and  N_25
    3  A    between atoms: N_8  and  C_39
    4  A    between atoms: C_9  and  N_28
    5  A    between atoms: C_9  and  C_42
    6  A    between atoms: C_23  and  C_39
    7  A    between atoms: N_25  and  N_38
    8  A    between atoms: C_33  and  C_35
    9  A    between atoms: N_38  and  C_41
   10  A    between atoms: C_41  and  C_42
                            x       y       z     vdW  Elec       q    Type
                         _______ _______ _______ _____ _____    ______ ____

>  <TORSDO>
F 10

$$$$
=
 OpenBabel11042418443D

 44 48  0  0  1  0  0  0  0  0999 V2000
  187.7070  176.0880  146.8300 N   0  0  0  0  0  0  0  0  0  0  0  0
  184.6990  178.0700  146.5150 C   0  0  0  0  0  3  0  0  0  0  0  0
  184.8650  179.3900  144.5040 C   0  0  0  0  0  3  0  0  0  0  0  0
  186.6490  177.9290  145.0900 C   0  0  0  0  0  0  0  0  0  0  0  0
  187.9090  177.3750  144.8240 C   0  0  0  0  0  0  0  0  0  0  0  0
  186.0880  178.8470  144.2530 N   0  0  0  0  0  0  0  0  0  0  0  0
  185.9540  177.5260  146.2420 C   0  0  0  0  0  0  0  0  0  0  0  0
  188.4500  176.4400  145.7410 C   0  0  0  0  0  0  0  0  0  0  0  0
  184.1490  179.0100  145.6430 C   0  0  0  0  0  3  0  0  0  0  0  0
  186.5060  176.6100  147.0740 N   0  0  0  0  0  0  0  0  0  0  0  0
  192.8540  174.9660  145.4800 C   0  0  0  0  0  0  0  0  0  0  0  0
  192.2830  176.1210  145.8030 C   0  0  0  0  0  3  0  0  0  0  0  0
  189.7840  174.3900  145.1760 C   0  0  0  0  0  3  0  0  0  0  0  0
  190.8740  176.5080  145.8550 C   0  0  0  0  0  3  0  0  0  0  0  0
  192.1680  173.8070  145.0990 O   0  0  0  0  0  0  0  0  0  0  0  0
  189.7820  175.8020  145.5740 C   0  0  0  0  0  0  0  0  0  0  0  0
  190.8000  173.5580  144.9770 C   0  0  0  0  0  3  0  0  0  0  0  0
  196.4740  175.1600  144.7030 N   0  0  0  0  0  0  0  0  0  0  0  0
  197.4400  175.3880  143.7060 N   0  0  0  0  0  2  0  0  0  0  0  0
  194.7030  175.4670  143.0570 C   0  0  0  0  0  2  0  0  0  0  0  0
  195.7150  176.2730  142.2500 C   0  0  0  0  0  2  0  0  0  0  0  0
  195.1970  175.2110  144.4600 C   0  0  0  0  0  0  0  0  0  0  0  0
  197.0620  175.5740  142.3100 C   0  0  0  0  0  2  0  0  0  0  0  0
  194.2860  174.9370  145.5330 N   0  0  0  0  0  2  0  0  0  0  0  0
  188.6390  177.7740  143.5750 C   0  0  0  0  0  2  0  0  0  0  0  0
  188.6530  176.6570  142.6430 N   0  0  0  0  0  2  0  0  0  0  0  0
  187.2160  177.6810  141.1170 O   0  0  0  0  0  0  0  0  0  0  0  0
  187.8940  176.6680  141.4330 C   0  0  0  0  0  0  0  0  0  0  0  0
  187.8820  175.5220  140.5740 N   0  0  0  0  0  2  0  0  0  0  0  0
  187.9030  173.4280  141.8470 C   0  0  0  0  0  1  0  0  0  0  0  0
  188.6240  174.2880  140.8260 C   0  0  1  0  0  3  0  0  0  0  0  0
  188.8550  173.4990  139.5410 C   0  0  0  0  0  2  0  0  0  0  0  0
  190.3230  171.6150  138.9010 C   0  0  0  0  0  1  0  0  0  0  0  0
  190.2990  173.0370  139.4180 C   0  0  2  0  0  3  0  0  0  0  0  0
  190.9490  173.0840  140.7180 N   0  0  0  0  0  2  0  0  0  0  0  0
  192.0490  172.2190  140.6520 N   0  0  0  0  0  2  0  0  0  0  0  0
  192.0260  171.4480  141.8200 N   0  0  0  0  0  2  0  0  0  0  0  0
  195.9070  171.7940  143.9680 O   0  0  0  0  0  0  0  0  0  0  0  0
  193.1240  171.4710  142.7300 C   0  0  0  0  0  0  0  0  0  0  0  0
  195.4260  170.5720  144.4440 C   0  0  0  0  0  2  0  0  0  0  0  0
  193.0460  170.7570  143.8160 N   0  0  0  0  0  0  0  0  0  0  0  0
  194.2400  172.2620  142.4270 O   0  0  0  0  0  0  0  0  0  0  0  0
  193.9980  170.7590  144.9250 C   0  0  0  0  0  2  0  0  0  0  0  0
  195.5780  171.8100  142.6110 C   0  0  0  0  0  2  0  0  0  0  0  0
  1 10  1  0  0  0  0
  3  9  1  0  0  0  0
  4  7  1  0  0  0  0
  5  4  2  0  0  0  0
  5  8  1  0  0  0  0
  6  3  2  0  0  0  0
  6  4  1  0  0  0  0
  7  2  1  0  0  0  0
  7 10  2  0  0  0  0
  8  1  2  0  0  0  0
  9  2  2  0  0  0  0
 11 24  1  0  0  0  0
 11 12  2  0  0  0  0
 12 14  1  0  0  0  0
 13 16  1  0  0  0  0
 15 11  1  0  0  0  0
 16  8  1  0  0  0  0
 16 14  2  0  0  0  0
 17 15  1  0  0  0  0
 17 13  2  0  0  0  0
 19 18  1  0  0  0  0
 20 22  1  0  0  0  0
 21 23  1  0  0  0  0
 21 20  1  0  0  0  0
 22 18  2  0  0  0  0
 22 24  1  0  0  0  0
 23 19  1  0  0  0  0
 25  5  1  0  0  0  0
 26 25  1  0  0  0  0
 27 28  2  0  0  0  0
 28 26  1  0  0  0  0
 29 31  1  0  0  0  0
 29 28  1  0  0  0  0
 31 30  1  1  0  0  0
 32 31  1  0  0  0  0
 34 33  1  1  0  0  0
 34 32  1  0  0  0  0
 34 35  1  0  0  0  0
 36 35  1  0  0  0  0
 36 37  1  0  0  0  0
 37 39  1  0  0  0  0
 38 40  1  0  0  0  0
 39 41  2  0  0  0  0
 40 43  1  0  0  0  0
 41 43  1  0  0  0  0
 42 44  1  0  0  0  0
 42 39  1  0  0  0  0
 44 38  1  0  0  0  0
M  END
>  <MODEL>
4

>  <REMARK>
 VINA RESULT:      -7.7      1.418      2.492
  Name = 
  10 active torsions:
  status: ('A' for Active; 'I' for Inactive)
    1  A    between atoms: C_2  and  N_40
    2  A    between atoms: N_7  and  N_25
    3  A    between atoms: N_8  and  C_39
    4  A    between atoms: C_9  and  N_28
    5  A    between atoms: C_9  and  C_42
    6  A    between atoms: C_23  and  C_39
    7  A    between atoms: N_25  and  N_38
    8  A    between atoms: C_33  and  C_35
    9  A    between atoms: N_38  and  C_41
   10  A    between atoms: C_41  and  C_42
                            x       y       z     vdW  Elec       q    Type
                         _______ _______ _______ _____ _____    ______ ____

>  <TORSDO>
F 10

$$$$
=
 OpenBabel11042418443D

 44 48  0  0  1  0  0  0  0  0999 V2000
  194.0670  175.9580  146.2140 N   0  0  0  0  0  0  0  0  0  0  0  0
  196.8120  173.6360  145.8300 C   0  0  0  0  0  3  0  0  0  0  0  0
  195.9840  171.6560  144.7300 C   0  0  0  0  0  3  0  0  0  0  0  0
  194.4900  173.4510  145.1770 C   0  0  0  0  0  0  0  0  0  0  0  0
  193.2070  174.0140  145.1160 C   0  0  0  0  0  0  0  0  0  0  0  0
  194.7420  172.2100  144.6750 N   0  0  0  0  0  0  0  0  0  0  0  0
  195.5320  174.1860  145.7660 C   0  0  0  0  0  0  0  0  0  0  0  0
  193.0010  175.3020  145.6730 C   0  0  0  0  0  0  0  0  0  0  0  0
  197.0430  172.3600  145.3100 C   0  0  0  0  0  3  0  0  0  0  0  0
  195.2870  175.4230  146.2610 N   0  0  0  0  0  0  0  0  0  0  0  0
  188.7910  177.1880  146.2710 C   0  0  0  0  0  0  0  0  0  0  0  0
  189.4960  176.2730  146.9270 C   0  0  0  0  0  3  0  0  0  0  0  0
  191.4580  176.9850  144.6290 C   0  0  0  0  0  3  0  0  0  0  0  0
  190.8270  175.7250  146.6670 C   0  0  0  0  0  3  0  0  0  0  0  0
  189.2150  177.8560  145.1160 O   0  0  0  0  0  0  0  0  0  0  0  0
  191.6840  175.9900  145.6840 C   0  0  0  0  0  0  0  0  0  0  0  0
  190.4090  177.7660  144.3990 C   0  0  0  0  0  3  0  0  0  0  0  0
  185.2420  178.1470  146.7500 N   0  0  0  0  0  0  0  0  0  0  0  0
  184.0710  178.6240  146.1330 N   0  0  0  0  0  2  0  0  0  0  0  0
  186.4210  178.2860  144.6220 C   0  0  0  0  0  2  0  0  0  0  0  0
  185.0510  178.1870  143.9590 C   0  0  0  0  0  2  0  0  0  0  0  0
  186.3460  177.9490  146.0910 C   0  0  0  0  0  0  0  0  0  0  0  0
  184.0650  179.0410  144.7360 C   0  0  0  0  0  2  0  0  0  0  0  0
  187.4980  177.4880  146.8100 N   0  0  0  0  0  2  0  0  0  0  0  0
  192.0990  173.2500  144.4550 C   0  0  0  0  0  2  0  0  0  0  0  0
  192.1910  173.4130  143.0120 N   0  0  0  0  0  2  0  0  0  0  0  0
  192.0710  171.1260  142.5670 O   0  0  0  0  0  0  0  0  0  0  0  0
  192.1930  172.2980  142.1200 C   0  0  0  0  0  0  0  0  0  0  0  0
  192.3520  172.4960  140.7110 N   0  0  0  0  0  2  0  0  0  0  0  0
  193.9210  174.3150  140.2270 C   0  0  0  0  0  1  0  0  0  0  0  0
  192.5020  173.8000  140.0680 C   0  0  1  0  0  3  0  0  0  0  0  0
  192.1240  173.7460  138.5910 C   0  0  0  0  0  2  0  0  0  0  0  0
  191.7070  171.6140  137.4110 C   0  0  0  0  0  1  0  0  0  0  0  0
  191.0940  172.6610  138.3150 C   0  0  2  0  0  3  0  0  0  0  0  0
  189.9290  173.2350  137.6620 N   0  0  0  0  0  2  0  0  0  0  0  0
  188.8150  172.8730  138.4300 N   0  0  0  0  0  2  0  0  0  0  0  0
  188.2080  174.0640  138.8460 N   0  0  0  0  0  2  0  0  0  0  0  0
  188.9200  174.7230  143.1870 O   0  0  0  0  0  0  0  0  0  0  0  0
  188.3760  174.5420  140.1790 C   0  0  0  0  0  0  0  0  0  0  0  0
  187.7640  175.4750  142.9720 C   0  0  0  0  0  2  0  0  0  0  0  0
  187.8130  175.6680  140.5120 N   0  0  0  0  0  0  0  0  0  0  0  0
  189.1420  173.7890  141.0780 O   0  0  0  0  0  0  0  0  0  0  0  0
  187.9840  176.3830  141.7750 C   0  0  0  0  0  2  0  0  0  0  0  0
  188.7470  173.5640  142.4270 C   0  0  0  0  0  2  0  0  0  0  0  0
  1 10  1  0  0  0  0
  3  9  1  0  0  0  0
  4  7  1  0  0  0  0
  5  4  2  0  0  0  0
  5  8  1  0  0  0  0
  6  3  2  0  0  0  0
  6  4  1  0  0  0  0
  7  2  1  0  0  0  0
  7 10  2  0  0  0  0
  8 16  1  0  0  0  0
  8  1  2  0  0  0  0
  9  2  2  0  0  0  0
 11 24  1  0  0  0  0
 11 12  2  0  0  0  0
 13 16  1  0  0  0  0
 14 12  1  0  0  0  0
 15 11  1  0  0  0  0
 16 14  2  0  0  0  0
 17 13  2  0  0  0  0
 17 15  1  0  0  0  0
 19 18  1  0  0  0  0
 20 22  1  0  0  0  0
 21 20  1  0  0  0  0
 21 23  1  0  0  0  0
 22 18  2  0  0  0  0
 22 24  1  0  0  0  0
 23 19  1  0  0  0  0
 25  5  1  0  0  0  0
 26 25  1  0  0  0  0
 28 27  2  0  0  0  0
 28 26  1  0  0  0  0
 29 28  1  0  0  0  0
 31 30  1  6  0  0  0
 31 29  1  0  0  0  0
 32 31  1  0  0  0  0
 34 33  1  6  0  0  0
 34 32  1  0  0  0  0
 35 34  1  0  0  0  0
 35 36  1  0  0  0  0
 36 37  1  0  0  0  0
 37 39  1  0  0  0  0
 39 41  2  0  0  0  0
 39 42  1  0  0  0  0
 40 38  1  0  0  0  0
 41 43  1  0  0  0  0
 42 44  1  0  0  0  0
 43 40  1  0  0  0  0
 44 38  1  0  0  0  0
M  END
>  <MODEL>
5

>  <REMARK>
 VINA RESULT:      -7.5      2.332      8.159
  Name = 
  10 active torsions:
  status: ('A' for Active; 'I' for Inactive)
    1  A    between atoms: C_2  and  N_40
    2  A    between atoms: N_7  and  N_25
    3  A    between atoms: N_8  and  C_39
    4  A    between atoms: C_9  and  N_28
    5  A    between atoms: C_9  and  C_42
    6  A    between atoms: C_23  and  C_39
    7  A    between atoms: N_25  and  N_38
    8  A    between atoms: C_33  and  C_35
    9  A    between atoms: N_38  and  C_41
   10  A    between atoms: C_41  and  C_42
                            x       y       z     vdW  Elec       q    Type
                         _______ _______ _______ _____ _____    ______ ____

>  <TORSDO>
F 10

$$$$
=
 OpenBabel11042418443D

 44 48  0  0  1  0  0  0  0  0999 V2000
  194.0030  176.7430  144.7840 N   0  0  0  0  0  0  0  0  0  0  0  0
  197.1710  175.7900  143.3250 C   0  0  0  0  0  3  0  0  0  0  0  0
  197.2890  173.3820  143.2710 C   0  0  0  0  0  3  0  0  0  0  0  0
  195.3500  174.4340  144.1610 C   0  0  0  0  0  0  0  0  0  0  0  0
  194.0770  174.3520  144.7430 C   0  0  0  0  0  0  0  0  0  0  0  0
  196.0530  173.3120  143.8360 N   0  0  0  0  0  0  0  0  0  0  0  0
  195.9060  175.6980  143.9060 C   0  0  0  0  0  0  0  0  0  0  0  0
  193.4020  175.5540  145.0760 C   0  0  0  0  0  0  0  0  0  0  0  0
  197.8710  174.6240  143.0050 C   0  0  0  0  0  3  0  0  0  0  0  0
  195.2090  176.8160  144.2210 N   0  0  0  0  0  0  0  0  0  0  0  0
  188.9710  175.5950  146.4900 C   0  0  0  0  0  0  0  0  0  0  0  0
  189.5630  175.6090  145.3000 C   0  0  0  0  0  3  0  0  0  0  0  0
  192.0330  175.5390  147.1800 C   0  0  0  0  0  3  0  0  0  0  0  0
  190.9790  175.6010  144.9380 C   0  0  0  0  0  3  0  0  0  0  0  0
  189.6370  175.5650  147.7210 O   0  0  0  0  0  0  0  0  0  0  0  0
  192.0610  175.5920  145.7130 C   0  0  0  0  0  0  0  0  0  0  0  0
  191.0020  175.5300  148.0170 C   0  0  0  0  0  3  0  0  0  0  0  0
  185.4010  176.5930  146.4120 N   0  0  0  0  0  0  0  0  0  0  0  0
  184.4920  177.6660  146.4020 N   0  0  0  0  0  2  0  0  0  0  0  0
  187.2590  178.1660  146.5260 C   0  0  0  0  0  2  0  0  0  0  0  0
  186.3130  179.1900  145.9080 C   0  0  0  0  0  2  0  0  0  0  0  0
  186.6890  176.7710  146.4420 C   0  0  0  0  0  0  0  0  0  0  0  0
  184.9440  179.0450  146.5500 C   0  0  0  0  0  2  0  0  0  0  0  0
  187.5380  175.6160  146.4780 N   0  0  0  0  0  2  0  0  0  0  0  0
  193.4630  173.0050  144.9820 C   0  0  0  0  0  2  0  0  0  0  0  0
  192.7520  172.5770  143.7870 N   0  0  0  0  0  2  0  0  0  0  0  0
  190.7350  172.2110  144.9000 O   0  0  0  0  0  0  0  0  0  0  0  0
  191.3840  172.1690  143.8210 C   0  0  0  0  0  0  0  0  0  0  0  0
  190.7400  171.6900  142.6360 N   0  0  0  0  0  2  0  0  0  0  0  0
  191.0650  170.2580  140.6740 C   0  0  0  0  0  1  0  0  0  0  0  0
  191.3790  171.5920  141.3250 C   0  0  1  0  0  3  0  0  0  0  0  0
  190.9620  172.7380  140.4080 C   0  0  0  0  0  2  0  0  0  0  0  0
  189.6300  172.9990  138.3410 C   0  0  0  0  0  1  0  0  0  0  0  0
  189.6110  172.4740  139.7600 C   0  0  2  0  0  3  0  0  0  0  0  0
  188.5610  173.1470  140.5060 N   0  0  0  0  0  2  0  0  0  0  0  0
  189.0330  174.4330  140.8010 N   0  0  0  0  0  2  0  0  0  0  0  0
  188.3260  174.8740  141.9250 N   0  0  0  0  0  2  0  0  0  0  0  0
  185.6660  178.2690  140.8340 O   0  0  0  0  0  0  0  0  0  0  0  0
  187.3360  175.8940  141.8090 C   0  0  0  0  0  0  0  0  0  0  0  0
  185.8390  178.4730  142.2040 C   0  0  0  0  0  2  0  0  0  0  0  0
  186.6870  176.2550  142.8780 N   0  0  0  0  0  0  0  0  0  0  0  0
  187.0950  176.4670  140.5530 O   0  0  0  0  0  0  0  0  0  0  0  0
  185.5510  177.1730  142.9350 C   0  0  0  0  0  2  0  0  0  0  0  0
  186.9190  177.8670  140.3650 C   0  0  0  0  0  2  0  0  0  0  0  0
  1  8  1  0  0  0  0
  2  7  1  0  0  0  0
  3  6  2  0  0  0  0
  4  5  1  0  0  0  0
  5 25  1  0  0  0  0
  5  8  2  0  0  0  0
  6  4  1  0  0  0  0
  7  4  2  0  0  0  0
  7 10  1  0  0  0  0
  8 16  1  0  0  0  0
  9  3  1  0  0  0  0
  9  2  2  0  0  0  0
 10  1  2  0  0  0  0
 11 15  1  0  0  0  0
 12 11  2  0  0  0  0
 13 17  2  0  0  0  0
 14 12  1  0  0  0  0
 14 16  2  0  0  0  0
 15 17  1  0  0  0  0
 16 13  1  0  0  0  0
 18 22  2  0  0  0  0
 19 18  1  0  0  0  0
 19 23  1  0  0  0  0
 21 20  1  0  0  0  0
 21 23  1  0  0  0  0
 22 24  1  0  0  0  0
 22 20  1  0  0  0  0
 24 11  1  0  0  0  0
 26 28  1  0  0  0  0
 26 25  1  0  0  0  0
 28 27  2  0  0  0  0
 29 28  1  0  0  0  0
 31 30  1  6  0  0  0
 31 29  1  0  0  0  0
 32 31  1  0  0  0  0
 34 33  1  6  0  0  0
 34 32  1  0  0  0  0
 34 35  1  0  0  0  0
 35 36  1  0  0  0  0
 36 37  1  0  0  0  0
 38 40  1  0  0  0  0
 39 37  1  0  0  0  0
 39 41  2  0  0  0  0
 40 43  1  0  0  0  0
 41 43  1  0  0  0  0
 42 39  1  0  0  0  0
 44 42  1  0  0  0  0
 44 38  1  0  0  0  0
M  END
>  <MODEL>
6

>  <REMARK>
 VINA RESULT:      -7.5      2.363      8.411
  Name = 
  10 active torsions:
  status: ('A' for Active; 'I' for Inactive)
    1  A    between atoms: C_2  and  N_40
    2  A    between atoms: N_7  and  N_25
    3  A    between atoms: N_8  and  C_39
    4  A    between atoms: C_9  and  N_28
    5  A    between atoms: C_9  and  C_42
    6  A    between atoms: C_23  and  C_39
    7  A    between atoms: N_25  and  N_38
    8  A    between atoms: C_33  and  C_35
    9  A    between atoms: N_38  and  C_41
   10  A    between atoms: C_41  and  C_42
                            x       y       z     vdW  Elec       q    Type
                         _______ _______ _______ _____ _____    ______ ____

>  <TORSDO>
F 10

$$$$
=
 OpenBabel11042418443D

 44 48  0  0  1  0  0  0  0  0999 V2000
  188.0810  176.2380  146.7780 N   0  0  0  0  0  0  0  0  0  0  0  0
  184.8650  177.8860  146.6610 C   0  0  0  0  0  3  0  0  0  0  0  0
  184.6780  179.0380  144.5510 C   0  0  0  0  0  3  0  0  0  0  0  0
  186.6580  177.8120  145.0380 C   0  0  0  0  0  0  0  0  0  0  0  0
  187.9340  177.3620  144.6720 C   0  0  0  0  0  0  0  0  0  0  0  0
  185.9180  178.5960  144.2040 N   0  0  0  0  0  0  0  0  0  0  0  0
  186.1350  177.4440  146.2880 C   0  0  0  0  0  0  0  0  0  0  0  0
  188.6640  176.5650  145.5890 C   0  0  0  0  0  0  0  0  0  0  0  0
  184.1290  178.6900  145.7880 C   0  0  0  0  0  3  0  0  0  0  0  0
  186.8640  176.6600  147.1180 N   0  0  0  0  0  0  0  0  0  0  0  0
  193.1490  175.4930  144.9730 C   0  0  0  0  0  0  0  0  0  0  0  0
  192.5010  176.6020  145.3160 C   0  0  0  0  0  3  0  0  0  0  0  0
  190.1310  174.6280  144.9600 C   0  0  0  0  0  3  0  0  0  0  0  0
  191.0720  176.8600  145.4830 C   0  0  0  0  0  3  0  0  0  0  0  0
  192.5440  174.2630  144.6850 O   0  0  0  0  0  0  0  0  0  0  0  0
  190.0300  176.0470  145.3200 C   0  0  0  0  0  0  0  0  0  0  0  0
  191.2000  173.8860  144.6920 C   0  0  0  0  0  3  0  0  0  0  0  0
  196.6580  175.8960  143.8490 N   0  0  0  0  0  0  0  0  0  0  0  0
  197.5160  176.0680  142.7470 N   0  0  0  0  0  2  0  0  0  0  0  0
  194.7420  175.8170  142.3460 C   0  0  0  0  0  2  0  0  0  0  0  0
  195.6020  176.5900  141.3530 C   0  0  0  0  0  2  0  0  0  0  0  0
  195.3680  175.8010  143.7190 C   0  0  0  0  0  0  0  0  0  0  0  0
  197.0120  176.0260  141.3790 C   0  0  0  0  0  2  0  0  0  0  0  0
  194.5760  175.5980  144.8970 N   0  0  0  0  0  2  0  0  0  0  0  0
  188.4820  177.7210  143.3220 C   0  0  0  0  0  2  0  0  0  0  0  0
  188.5620  176.5250  142.4970 N   0  0  0  0  0  2  0  0  0  0  0  0
  187.0290  177.2960  140.9170 O   0  0  0  0  0  0  0  0  0  0  0  0
  187.7850  176.3670  141.3090 C   0  0  0  0  0  0  0  0  0  0  0  0
  187.8430  175.1480  140.5610 N   0  0  0  0  0  2  0  0  0  0  0  0
  188.0490  173.2020  142.0350 C   0  0  0  0  0  1  0  0  0  0  0  0
  188.6780  174.0000  140.9080 C   0  0  1  0  0  3  0  0  0  0  0  0
  188.9280  173.1010  139.7010 C   0  0  0  0  0  2  0  0  0  0  0  0
  189.3110  173.9120  137.3970 C   0  0  0  0  0  1  0  0  0  0  0  0
  189.9520  173.7060  138.7530 C   0  0  2  0  0  3  0  0  0  0  0  0
  191.0910  172.8140  138.6140 N   0  0  0  0  0  2  0  0  0  0  0  0
  191.9600  173.0980  139.6760 N   0  0  0  0  0  2  0  0  0  0  0  0
  192.7720  174.1600  139.2590 N   0  0  0  0  0  2  0  0  0  0  0  0
  196.7470  172.6400  137.9640 O   0  0  0  0  0  0  0  0  0  0  0  0
  194.0640  173.9160  138.7070 C   0  0  0  0  0  0  0  0  0  0  0  0
  197.0430  173.9640  138.2930 C   0  0  0  0  0  2  0  0  0  0  0  0
  194.7730  174.9330  138.3100 N   0  0  0  0  0  0  0  0  0  0  0  0
  194.5220  172.5950  138.6080 O   0  0  0  0  0  0  0  0  0  0  0  0
  196.0480  174.8770  137.5980 C   0  0  0  0  0  2  0  0  0  0  0  0
  195.8510  172.2120  138.9450 C   0  0  0  0  0  2  0  0  0  0  0  0
  1 10  1  0  0  0  0
  3  9  1  0  0  0  0
  4  7  1  0  0  0  0
  5  4  2  0  0  0  0
  5  8  1  0  0  0  0
  6  3  2  0  0  0  0
  6  4  1  0  0  0  0
  7  2  1  0  0  0  0
  7 10  2  0  0  0  0
  8  1  2  0  0  0  0
  9  2  2  0  0  0  0
 11 12  2  0  0  0  0
 12 14  1  0  0  0  0
 13 16  1  0  0  0  0
 15 17  1  0  0  0  0
 15 11  1  0  0  0  0
 16 14  2  0  0  0  0
 16  8  1  0  0  0  0
 17 13  2  0  0  0  0
 19 18  1  0  0  0  0
 20 22  1  0  0  0  0
 21 23  1  0  0  0  0
 21 20  1  0  0  0  0
 22 18  2  0  0  0  0
 22 24  1  0  0  0  0
 23 19  1  0  0  0  0
 24 11  1  0  0  0  0
 25  5  1  0  0  0  0
 26 25  1  0  0  0  0
 27 28  2  0  0  0  0
 28 26  1  0  0  0  0
 29 31  1  0  0  0  0
 29 28  1  0  0  0  0
 31 30  1  1  0  0  0
 32 31  1  0  0  0  0
 34 33  1  6  0  0  0
 34 32  1  0  0  0  0
 35 34  1  0  0  0  0
 35 36  1  0  0  0  0
 37 36  1  0  0  0  0
 38 40  1  0  0  0  0
 38 44  1  0  0  0  0
 39 37  1  0  0  0  0
 41 39  2  0  0  0  0
 42 39  1  0  0  0  0
 42 44  1  0  0  0  0
 43 40  1  0  0  0  0
 43 41  1  0  0  0  0
M  END
>  <MODEL>
7

>  <REMARK>
 VINA RESULT:      -7.5      1.895      2.671
  Name = 
  10 active torsions:
  status: ('A' for Active; 'I' for Inactive)
    1  A    between atoms: C_2  and  N_40
    2  A    between atoms: N_7  and  N_25
    3  A    between atoms: N_8  and  C_39
    4  A    between atoms: C_9  and  N_28
    5  A    between atoms: C_9  and  C_42
    6  A    between atoms: C_23  and  C_39
    7  A    between atoms: N_25  and  N_38
    8  A    between atoms: C_33  and  C_35
    9  A    between atoms: N_38  and  C_41
   10  A    between atoms: C_41  and  C_42
                            x       y       z     vdW  Elec       q    Type
                         _______ _______ _______ _____ _____    ______ ____

>  <TORSDO>
F 10

$$$$
=
 OpenBabel11042418443D

 44 48  0  0  1  0  0  0  0  0999 V2000
  192.6500  169.5550  144.2550 N   0  0  0  0  0  0  0  0  0  0  0  0
  195.6640  168.4360  145.9100 C   0  0  0  0  0  3  0  0  0  0  0  0
  197.3660  170.1160  145.6070 C   0  0  0  0  0  3  0  0  0  0  0  0
  195.2080  170.4620  144.6700 C   0  0  0  0  0  0  0  0  0  0  0  0
  194.3080  171.2500  143.9370 C   0  0  0  0  0  0  0  0  0  0  0  0
  196.4870  170.8750  144.8980 N   0  0  0  0  0  0  0  0  0  0  0  0
  194.7780  169.2260  145.1780 C   0  0  0  0  0  0  0  0  0  0  0  0
  192.9970  170.7590  143.7160 C   0  0  0  0  0  0  0  0  0  0  0  0
  196.9690  168.8810  146.1270 C   0  0  0  0  0  3  0  0  0  0  0  0
  193.5060  168.8140  144.9590 N   0  0  0  0  0  0  0  0  0  0  0  0
  189.5720  173.2880  141.8420 C   0  0  0  0  0  0  0  0  0  0  0  0
  189.9180  172.9780  143.0880 C   0  0  0  0  0  3  0  0  0  0  0  0
  192.1200  171.4920  141.4810 C   0  0  0  0  0  3  0  0  0  0  0  0
  191.0190  172.1620  143.5970 C   0  0  0  0  0  3  0  0  0  0  0  0
  190.2440  172.8650  140.6900 O   0  0  0  0  0  0  0  0  0  0  0  0
  191.9660  171.4960  142.9400 C   0  0  0  0  0  0  0  0  0  0  0  0
  191.3840  172.0730  140.5400 C   0  0  0  0  0  3  0  0  0  0  0  0
  187.1710  176.1130  141.8020 N   0  0  0  0  0  0  0  0  0  0  0  0
  186.9650  177.4710  142.1070 N   0  0  0  0  0  2  0  0  0  0  0  0
  189.4420  176.2610  142.6720 C   0  0  0  0  0  2  0  0  0  0  0  0
  189.3560  177.7580  142.3950 C   0  0  0  0  0  2  0  0  0  0  0  0
  188.3050  175.5150  142.0190 C   0  0  0  0  0  0  0  0  0  0  0  0
  187.9790  178.2550  142.8010 C   0  0  0  0  0  2  0  0  0  0  0  0
  188.4130  174.1200  141.7020 N   0  0  0  0  0  2  0  0  0  0  0  0
  194.7520  172.5880  143.4250 C   0  0  0  0  0  2  0  0  0  0  0  0
  194.3200  173.6280  144.3450 N   0  0  0  0  0  2  0  0  0  0  0  0
  193.2690  174.9000  142.6950 O   0  0  0  0  0  0  0  0  0  0  0  0
  193.5940  174.7780  143.9060 C   0  0  0  0  0  0  0  0  0  0  0  0
  193.2450  175.8120  144.8320 N   0  0  0  0  0  2  0  0  0  0  0  0
  194.1900  177.1050  146.6880 C   0  0  0  0  0  1  0  0  0  0  0  0
  193.5620  175.7910  146.2590 C   0  0  1  0  0  3  0  0  0  0  0  0
  192.3280  175.4960  147.1060 C   0  0  0  0  0  2  0  0  0  0  0  0
  190.5700  177.1710  147.5730 C   0  0  0  0  0  1  0  0  0  0  0  0
  191.0900  176.1830  146.5510 C   0  0  2  0  0  3  0  0  0  0  0  0
  190.0580  175.1980  146.2700 N   0  0  0  0  0  2  0  0  0  0  0  0
  188.9310  175.5690  147.0150 N   0  0  0  0  0  2  0  0  0  0  0  0
  187.8650  175.6670  146.1130 N   0  0  0  0  0  2  0  0  0  0  0  0
  185.1890  179.0340  147.2510 O   0  0  0  0  0  0  0  0  0  0  0  0
  186.9210  176.7320  146.2120 C   0  0  0  0  0  0  0  0  0  0  0  0
  184.3270  178.2240  146.5100 C   0  0  0  0  0  2  0  0  0  0  0  0
  185.9610  176.7950  145.3350 N   0  0  0  0  0  0  0  0  0  0  0  0
  187.0630  177.6700  147.2420 O   0  0  0  0  0  0  0  0  0  0  0  0
  184.9910  177.8790  145.1880 C   0  0  0  0  0  2  0  0  0  0  0  0
  185.9610  178.1490  148.0060 C   0  0  0  0  0  2  0  0  0  0  0  0
  1 10  1  0  0  0  0
  2  9  2  0  0  0  0
  3  9  1  0  0  0  0
  4  6  1  0  0  0  0
  4  7  1  0  0  0  0
  5  4  2  0  0  0  0
  6  3  2  0  0  0  0
  7  2  1  0  0  0  0
  8  5  1  0  0  0  0
  8  1  2  0  0  0  0
 10  7  2  0  0  0  0
 11 12  2  0  0  0  0
 12 14  1  0  0  0  0
 13 16  1  0  0  0  0
 15 11  1  0  0  0  0
 16 14  2  0  0  0  0
 16  8  1  0  0  0  0
 17 15  1  0  0  0  0
 17 13  2  0  0  0  0
 18 22  2  0  0  0  0
 18 19  1  0  0  0  0
 19 23  1  0  0  0  0
 21 20  1  0  0  0  0
 21 23  1  0  0  0  0
 22 20  1  0  0  0  0
 24 11  1  0  0  0  0
 24 22  1  0  0  0  0
 25  5  1  0  0  0  0
 25 26  1  0  0  0  0
 27 28  2  0  0  0  0
 28 26  1  0  0  0  0
 28 29  1  0  0  0  0
 29 31  1  0  0  0  0
 31 30  1  1  0  0  0
 31 32  1  0  0  0  0
 34 32  1  0  0  0  0
 34 33  1  1  0  0  0
 35 34  1  0  0  0  0
 35 36  1  0  0  0  0
 37 39  1  0  0  0  0
 37 36  1  0  0  0  0
 38 44  1  0  0  0  0
 39 42  1  0  0  0  0
 40 38  1  0  0  0  0
 41 39  2  0  0  0  0
 42 44  1  0  0  0  0
 43 41  1  0  0  0  0
 43 40  1  0  0  0  0
M  END
>  <MODEL>
8

>  <REMARK>
 VINA RESULT:      -7.4      2.662      9.559
  Name = 
  10 active torsions:
  status: ('A' for Active; 'I' for Inactive)
    1  A    between atoms: C_2  and  N_40
    2  A    between atoms: N_7  and  N_25
    3  A    between atoms: N_8  and  C_39
    4  A    between atoms: C_9  and  N_28
    5  A    between atoms: C_9  and  C_42
    6  A    between atoms: C_23  and  C_39
    7  A    between atoms: N_25  and  N_38
    8  A    between atoms: C_33  and  C_35
    9  A    between atoms: N_38  and  C_41
   10  A    between atoms: C_41  and  C_42
                            x       y       z     vdW  Elec       q    Type
                         _______ _______ _______ _____ _____    ______ ____

>  <TORSDO>
F 10

$$$$
=
 OpenBabel11042418443D

 44 48  0  0  1  0  0  0  0  0999 V2000
  193.6790  175.4350  146.2250 N   0  0  0  0  0  0  0  0  0  0  0  0
  196.7150  175.4210  144.2620 C   0  0  0  0  0  3  0  0  0  0  0  0
  196.1730  176.1190  142.0180 C   0  0  0  0  0  3  0  0  0  0  0  0
  194.4460  175.9930  143.6490 C   0  0  0  0  0  0  0  0  0  0  0  0
  193.1000  176.1390  144.0130 C   0  0  0  0  0  0  0  0  0  0  0  0
  194.8680  176.2580  142.3800 N   0  0  0  0  0  0  0  0  0  0  0  0
  195.3730  175.5670  144.6130 C   0  0  0  0  0  0  0  0  0  0  0  0
  192.7160  175.8290  145.3420 C   0  0  0  0  0  0  0  0  0  0  0  0
  197.1210  175.6970  142.9550 C   0  0  0  0  0  3  0  0  0  0  0  0
  194.9590  175.3080  145.8770 N   0  0  0  0  0  0  0  0  0  0  0  0
  188.3800  176.7490  146.7520 C   0  0  0  0  0  0  0  0  0  0  0  0
  189.4080  177.5010  146.3710 C   0  0  0  0  0  3  0  0  0  0  0  0
  190.6300  174.6590  146.1030 C   0  0  0  0  0  3  0  0  0  0  0  0
  190.7560  177.1290  145.9440 C   0  0  0  0  0  3  0  0  0  0  0  0
  188.3860  175.3510  146.8220 O   0  0  0  0  0  0  0  0  0  0  0  0
  191.3190  175.9270  145.8370 C   0  0  0  0  0  0  0  0  0  0  0  0
  189.3900  174.4290  146.5210 C   0  0  0  0  0  3  0  0  0  0  0  0
  185.1270  178.5270  146.7550 N   0  0  0  0  0  0  0  0  0  0  0  0
  184.0790  179.0400  145.9680 N   0  0  0  0  0  2  0  0  0  0  0  0
  186.2840  177.7970  144.7390 C   0  0  0  0  0  2  0  0  0  0  0  0
  184.9180  177.8000  144.0610 C   0  0  0  0  0  2  0  0  0  0  0  0
  186.1540  177.9210  146.2370 C   0  0  0  0  0  0  0  0  0  0  0  0
  184.1480  179.0290  144.5120 C   0  0  0  0  0  2  0  0  0  0  0  0
  187.1880  177.4560  147.1160 N   0  0  0  0  0  2  0  0  0  0  0  0
  192.1120  176.6300  142.9970 C   0  0  0  0  0  2  0  0  0  0  0  0
  191.2410  175.5350  142.5980 N   0  0  0  0  0  2  0  0  0  0  0  0
  189.2830  176.7890  142.7860 O   0  0  0  0  0  0  0  0  0  0  0  0
  189.8210  175.6780  142.5340 C   0  0  0  0  0  0  0  0  0  0  0  0
  188.9940  174.5580  142.2010 N   0  0  0  0  0  2  0  0  0  0  0  0
  189.1000  172.2350  142.9730 C   0  0  0  0  0  1  0  0  0  0  0  0
  189.4930  173.2210  141.8880 C   0  0  1  0  0  3  0  0  0  0  0  0
  188.9950  172.7370  140.5300 C   0  0  0  0  0  2  0  0  0  0  0  0
  190.5330  171.0280  139.6210 C   0  0  0  0  0  1  0  0  0  0  0  0
  190.1450  172.4900  139.5660 C   0  0  2  0  0  3  0  0  0  0  0  0
  191.2910  173.3030  139.9380 N   0  0  0  0  0  2  0  0  0  0  0  0
  192.2910  173.0510  138.9910 N   0  0  0  0  0  2  0  0  0  0  0  0
  193.1160  174.1820  138.9650 N   0  0  0  0  0  2  0  0  0  0  0  0
  197.3560  172.9800  138.3590 O   0  0  0  0  0  0  0  0  0  0  0  0
  194.5100  174.0610  138.6880 C   0  0  0  0  0  0  0  0  0  0  0  0
  197.5000  174.2240  138.9770 C   0  0  0  0  0  2  0  0  0  0  0  0
  195.2330  175.1440  138.6500 N   0  0  0  0  0  0  0  0  0  0  0  0
  195.0500  172.7880  138.4620 O   0  0  0  0  0  0  0  0  0  0  0  0
  196.6350  175.2370  138.2480 C   0  0  0  0  0  2  0  0  0  0  0  0
  196.2900  172.3660  139.0190 C   0  0  0  0  0  2  0  0  0  0  0  0
  2  7  1  0  0  0  0
  3  6  2  0  0  0  0
  3  9  1  0  0  0  0
  4  5  2  0  0  0  0
  4  7  1  0  0  0  0
  5  8  1  0  0  0  0
  6  4  1  0  0  0  0
  7 10  2  0  0  0  0
  8 16  1  0  0  0  0
  8  1  2  0  0  0  0
  9  2  2  0  0  0  0
 10  1  1  0  0  0  0
 11 15  1  0  0  0  0
 11 24  1  0  0  0  0
 12 11  2  0  0  0  0
 13 17  2  0  0  0  0
 14 12  1  0  0  0  0
 16 14  2  0  0  0  0
 16 13  1  0  0  0  0
 17 15  1  0  0  0  0
 19 18  1  0  0  0  0
 20 22  1  0  0  0  0
 21 23  1  0  0  0  0
 21 20  1  0  0  0  0
 22 18  2  0  0  0  0
 22 24  1  0  0  0  0
 23 19  1  0  0  0  0
 25  5  1  0  0  0  0
 26 25  1  0  0  0  0
 28 26  1  0  0  0  0
 28 27  2  0  0  0  0
 29 28  1  0  0  0  0
 31 29  1  0  0  0  0
 31 30  1  1  0  0  0
 32 31  1  0  0  0  0
 34 33  1  1  0  0  0
 34 35  1  0  0  0  0
 34 32  1  0  0  0  0
 36 35  1  0  0  0  0
 37 36  1  0  0  0  0
 38 40  1  0  0  0  0
 38 44  1  0  0  0  0
 39 37  1  0  0  0  0
 41 39  2  0  0  0  0
 42 39  1  0  0  0  0
 42 44  1  0  0  0  0
 43 41  1  0  0  0  0
 43 40  1  0  0  0  0
M  END
>  <MODEL>
9

>  <REMARK>
 VINA RESULT:      -7.4      2.167      6.961
  Name = 
  10 active torsions:
  status: ('A' for Active; 'I' for Inactive)
    1  A    between atoms: C_2  and  N_40
    2  A    between atoms: N_7  and  N_25
    3  A    between atoms: N_8  and  C_39
    4  A    between atoms: C_9  and  N_28
    5  A    between atoms: C_9  and  C_42
    6  A    between atoms: C_23  and  C_39
    7  A    between atoms: N_25  and  N_38
    8  A    between atoms: C_33  and  C_35
    9  A    between atoms: N_38  and  C_41
   10  A    between atoms: C_41  and  C_42
                            x       y       z     vdW  Elec       q    Type
                         _______ _______ _______ _____ _____    ______ ____

>  <TORSDO>
F 10

$$$$
