=
 OpenBabel11042419393D

 70 76  0  0  1  0  0  0  0  0999 V2000
  193.5000  174.9130  144.7190 C   0  0  0  0  0  2  0  0  0  0  0  0
  195.2710  173.7680  143.3670 C   0  0  0  0  0  0  0  0  0  0  0  0
  194.5840  176.0990  142.7440 C   0  0  0  0  0  2  0  0  0  0  0  0
  194.4190  174.9030  143.5760 N   0  0  0  0  0  0  0  0  0  0  0  0
  192.5620  177.1420  143.9060 C   0  0  2  0  0  3  0  0  0  0  0  0
  195.2300  172.6660  144.2780 N   0  0  0  0  0  2  0  0  0  0  0  0
  193.2430  176.8090  142.5680 C   0  0  0  0  0  2  0  0  0  0  0  0
  193.1330  176.3440  145.0990 C   0  0  1  0  0  3  0  0  0  0  0  0
  196.0700  173.7470  142.3910 O   0  0  0  0  0  0  0  0  0  0  0  0
  195.8330  169.0870  142.8830 C   0  0  1  0  0  3  0  0  0  0  0  0
  195.4820  170.4940  143.1920 C   0  0  2  0  0  0  0  0  0  0  0  0
  194.8610  168.5080  141.8450 C   0  0  0  0  0  2  0  0  0  0  0  0
  194.2570  170.4710  145.2560 O   0  0  0  0  0  1  0  0  0  0  0  0
  196.3690  170.5720  141.0010 C   0  0  0  0  0  2  0  0  0  0  0  0
  195.6090  168.1890  140.5530 C   0  0  0  0  0  2  0  0  0  0  0  0
  196.1180  171.5140  144.1560 C   0  0  2  0  0  3  0  0  0  0  0  0
  196.6840  170.1610  142.3750 N   0  0  2  0  0  0  0  0  0  0  0  0
  196.4300  169.3800  140.0470 C   0  0  0  0  0  2  0  0  0  0  0  0
  195.5330  170.2730  144.7170 C   0  0  2  0  0  3  0  0  0  0  0  0
  191.0590  176.9530  143.7580 C   0  0  0  0  0  2  0  0  0  0  0  0
  190.7830  176.0780  142.6310 N   0  0  0  0  0  2  0  0  0  0  0  0
  186.3280  176.4340  142.5570 O   0  0  0  0  0  1  0  0  0  0  0  0
  189.3720  175.7390  142.6870 C   0  0  2  0  0  3  0  0  0  0  0  0
  188.0340  176.6780  140.9240 N   0  0  0  0  0  0  0  0  0  0  0  0
  188.8500  175.5210  141.2740 C   0  0  0  0  0  2  0  0  0  0  0  0
  188.5920  176.9240  143.2180 C   0  0  1  0  0  3  0  0  0  0  0  0
  187.4820  177.1480  142.2000 C   0  0  0  0  0  0  0  0  0  0  0  0
  187.1860  178.5080  142.1190 O   0  0  0  0  0  1  0  0  0  0  0  0
  186.9960  176.2470  139.9920 C   0  0  0  0  0  2  0  0  0  0  0  0
  186.5070  177.3540  139.2940 O   0  0  0  0  0  0  0  0  0  0  0  0
  185.8380  176.8070  138.1960 C   0  0  0  0  0  2  0  0  0  0  0  0
  186.2530  175.7500  136.0950 O   0  0  0  0  0  1  0  0  0  0  0  0
  186.8130  176.0030  137.3480 C   0  0  0  0  0  2  0  0  0  0  0  0
  188.0880  176.6890  144.6410 C   0  0  0  0  0  2  0  0  0  0  0  0
  187.9070  178.0030  145.3900 C   0  0  0  0  0  2  0  0  0  0  0  0
  186.4410  178.4130  145.4070 C   0  0  0  0  0  2  0  0  0  0  0  0
  185.5460  177.2200  145.6920 C   0  0  0  0  0  2  0  0  0  0  0  0
  184.2860  177.6810  146.4060 C   0  0  0  0  0  2  0  0  0  0  0  0
  184.6600  178.6050  147.5470 C   0  0  0  0  0  1  0  0  0  0  0  0
  192.2520  176.3490  146.2200 O   0  0  0  0  0  0  0  0  0  0  0  0
  191.1680  174.3010  145.5680 C   0  0  0  0  0  3  0  0  0  0  0  0
  190.1130  173.3890  145.6700 C   0  0  0  0  0  0  0  0  0  0  0  0
  191.1780  175.4640  146.3450 C   0  0  0  0  0  0  0  0  0  0  0  0
  189.0640  174.8020  147.3430 C   0  0  0  0  0  3  0  0  0  0  0  0
  190.1210  175.7120  147.2360 C   0  0  0  0  0  3  0  0  0  0  0  0
  189.0570  173.6470  146.5610 C   0  0  0  0  0  3  0  0  0  0  0  0
  191.0880  171.9690  143.9340 C   0  0  0  0  0  3  0  0  0  0  0  0
  190.1450  172.1750  144.8430 C   0  0  0  0  0  3  0  0  0  0  0  0
  191.0860  170.7370  143.1000 C   0  0  0  0  0  2  0  0  0  0  0  0
  191.5210  169.9870  140.7430 C   0  0  0  0  0  2  0  0  0  0  0  0
  190.4950  171.4910  138.9360 C   0  0  0  0  0  2  0  0  0  0  0  0
  189.7290  171.5000  141.2700 O   0  0  0  0  0  0  0  0  0  0  0  0
  189.8720  172.2780  140.1040 C   0  0  2  0  0  3  0  0  0  0  0  0
  191.0300  171.1300  141.6370 C   0  0  1  0  0  3  0  0  0  0  0  0
  188.5290  172.8280  139.6850 C   0  0  0  0  0  1  0  0  0  0  0  0
  190.9040  170.0670  139.3360 C   0  0  1  0  0  3  0  0  0  0  0  0
  191.8320  169.4930  138.3160 C   0  0  0  0  0  0  0  0  0  0  0  0
  193.2370  169.7470  138.4010 N   0  0  0  0  0  2  0  0  0  0  0  0
  191.3650  168.8210  137.3580 O   0  0  0  0  0  0  0  0  0  0  0  0
  194.0890  169.3920  137.4090 O   0  0  0  0  0  0  0  0  0  0  0  0
  194.3550  170.5790  136.7240 C   0  0  0  0  0  2  0  0  0  0  0  0
  194.1930  171.7790  137.6550 C   0  0  0  0  0  2  0  0  0  0  0  0
  195.2380  172.9160  135.6500 C   0  0  0  0  0  1  0  0  0  0  0  0
  194.7950  173.0700  137.0940 C   0  0  1  0  0  3  0  0  0  0  0  0
  193.6710  174.4890  137.2740 S   0  0  0  0  0  0  0  0  0  0  0  0
  194.4730  175.0340  138.8060 C   0  0  1  0  0  3  0  0  0  0  0  0
  193.6120  174.8260  139.8680 F   0  0  0  0  0  0  0  0  0  0  0  0
  195.7480  174.2440  139.0380 C   0  0  0  0  0  2  0  0  0  0  0  0
  197.9410  175.5850  137.5640 O   0  0  0  0  0  0  0  0  0  0  0  0
  197.2320  175.3620  138.9270 P   0  0  0  0  0  0  0  0  0  0  0  0
  1  8  1  0  0  0  0
  2  4  1  0  0  0  0
  2  6  1  0  0  0  0
  3  4  1  0  0  0  0
  4  1  1  0  0  0  0
  5 20  1  6  0  0  0
  5  8  1  0  0  0  0
  7  3  1  0  0  0  0
  7  5  1  0  0  0  0
  8 40  1  1  0  0  0
  9  2  2  0  0  0  0
 10 12  1  6  0  0  0
 10 11  1  0  0  0  0
 11 16  1  0  0  0  0
 11 19  1  0  0  0  0
 14 17  1  0  0  0  0
 15 12  1  0  0  0  0
 16  6  1  0  0  0  0
 16 19  1  0  0  0  0
 17 10  1  0  0  0  0
 17 11  1  0  0  0  0
 18 15  1  0  0  0  0
 18 14  1  0  0  0  0
 19 13  1  0  0  0  0
 21 23  1  0  0  0  0
 21 20  1  0  0  0  0
 23 26  1  0  0  0  0
 24 25  1  0  0  0  0
 24 27  1  0  0  0  0
 25 23  1  0  0  0  0
 26 34  1  0  0  0  0
 27 22  1  0  0  0  0
 27 26  1  0  0  0  0
 28 27  1  0  0  0  0
 29 24  1  0  0  0  0
 30 29  1  0  0  0  0
 31 30  1  0  0  0  0
 32 33  1  0  0  0  0
 33 31  1  0  0  0  0
 34 35  1  0  0  0  0
 35 36  1  0  0  0  0
 36 37  1  0  0  0  0
 37 38  1  0  0  0  0
 38 39  1  0  0  0  0
 40 43  1  0  0  0  0
 41 42  2  0  0  0  0
 41 43  1  0  0  0  0
 42 46  1  0  0  0  0
 43 45  2  0  0  0  0
 45 44  1  0  0  0  0
 46 44  2  0  0  0  0
 47 48  2  0  0  0  0
 48 42  1  0  0  0  0
 49 47  1  0  0  0  0
 50 54  1  0  0  0  0
 51 56  1  0  0  0  0
 51 53  1  0  0  0  0
 52 54  1  0  0  0  0
 53 52  1  0  0  0  0
 54 49  1  0  0  0  0
 55 53  1  0  0  0  0
 56 50  1  0  0  0  0
 57 58  1  0  0  0  0
 57 56  1  0  0  0  0
 59 57  2  0  0  0  0
 60 58  1  0  0  0  0
 61 60  1  0  0  0  0
 61 62  1  0  0  0  0
 63 64  1  0  0  0  0
 64 65  1  0  0  0  0
 64 62  1  0  0  0  0
 65 66  1  0  0  0  0
 66 68  1  0  0  0  0
 66 67  1  0  0  0  0
 69 70  2  0  0  0  0
 70 68  1  0  0  0  0
M  END
>  <MODEL>
1

>  <REMARK>
 VINA RESULT:      -5.0      0.000      0.000
  Name = 
  27 active torsions:
  status: ('A' for Active; 'I' for Inactive)
    1  A    between atoms: C_5  and  N_32
    2  A    between atoms: C_5  and  O_36
    3  A    between atoms: C_9  and  C_16
    4  A    between atoms: C_10  and  C_11
    5  A    between atoms: C_10  and  S_64
    6  A    between atoms: C_11  and  P_55
    7  A    between atoms: C_14  and  C_23
    8  A    between atoms: C_15  and  C_23
    9  A    between atoms: C_15  and  C_57
   10  A    between atoms: C_16  and  O_36
   11  A    between atoms: C_18  and  C_19
   12  A    between atoms: C_19  and  C_41
   13  A    between atoms: C_20  and  C_65
   14  A    between atoms: N_25  and  O_62
   15  A    between atoms: C_29  and  C_63
   16  A    between atoms: C_30  and  N_31
   17  A    between atoms: N_31  and  C_54
   18  A    between atoms: O_33  and  C_39
   19  A    between atoms: O_33  and  C_58
   20  A    between atoms: C_42  and  C_43
   21  A    between atoms: C_42  and  C_57
   22  A    between atoms: C_45  and  C_54
   23  A    between atoms: N_46  and  C_56
   24  A    between atoms: C_52  and  C_60
   25  A    between atoms: C_52  and  C_61
   26  A    between atoms: C_60  and  S_64
   27  A    between atoms: C_61  and  O_62
                            x       y       z     vdW  Elec       q    Type
                         _______ _______ _______ _____ _____    ______ ____

>  <TORSDO>
F 27

$$$$
=
 OpenBabel11042419393D

 70 76  0  0  1  0  0  0  0  0999 V2000
  188.3940  174.8480  140.0640 C   0  0  0  0  0  2  0  0  0  0  0  0
  188.0660  174.5630  137.5970 C   0  0  0  0  0  0  0  0  0  0  0  0
  187.1140  176.5940  138.7230 C   0  0  0  0  0  2  0  0  0  0  0  0
  187.8130  175.3060  138.7970 N   0  0  0  0  0  0  0  0  0  0  0  0
  187.1610  176.7250  141.2740 C   0  0  2  0  0  3  0  0  0  0  0  0
  188.8890  173.3950  137.6400 N   0  0  0  0  0  2  0  0  0  0  0  0
  186.3090  176.8320  139.9990 C   0  0  0  0  0  2  0  0  0  0  0  0
  188.5090  176.0050  141.0510 C   0  0  1  0  0  3  0  0  0  0  0  0
  187.5770  174.9480  136.5000 O   0  0  0  0  0  0  0  0  0  0  0  0
  191.4260  171.0930  135.8000 C   0  0  1  0  0  3  0  0  0  0  0  0
  190.5260  171.8390  136.7120 C   0  0  2  0  0  0  0  0  0  0  0  0
  192.5960  170.4820  136.5840 C   0  0  0  0  0  2  0  0  0  0  0  0
  191.0850  174.1640  136.4950 O   0  0  0  0  0  1  0  0  0  0  0  0
  190.1510  169.5650  137.2400 C   0  0  0  0  0  2  0  0  0  0  0  0
  192.5150  168.9580  136.5340 C   0  0  0  0  0  2  0  0  0  0  0  0
  189.2350  172.6350  136.4420 C   0  0  2  0  0  3  0  0  0  0  0  0
  190.1190  170.5270  136.1320 N   0  0  2  0  0  0  0  0  0  0  0  0
  191.1380  168.4330  136.9530 C   0  0  0  0  0  2  0  0  0  0  0  0
  190.4970  173.0920  135.8130 C   0  0  2  0  0  3  0  0  0  0  0  0
  186.3350  176.0680  142.3700 C   0  0  0  0  0  2  0  0  0  0  0  0
  186.7790  176.5430  143.6700 N   0  0  0  0  0  2  0  0  0  0  0  0
  183.7280  179.1430  145.6490 O   0  0  0  0  0  1  0  0  0  0  0  0
  185.5960  176.9740  144.3950 C   0  0  2  0  0  3  0  0  0  0  0  0
  184.4120  178.8140  143.3990 N   0  0  0  0  0  0  0  0  0  0  0  0
  184.5090  177.3590  143.4020 C   0  0  0  0  0  2  0  0  0  0  0  0
  185.9080  178.2480  145.1520 C   0  0  1  0  0  3  0  0  0  0  0  0
  184.8060  179.2190  144.7540 C   0  0  0  0  0  0  0  0  0  0  0  0
  185.3080  180.5200  144.7340 O   0  0  0  0  0  1  0  0  0  0  0  0
  183.0340  179.1840  143.0840 C   0  0  0  0  0  2  0  0  0  0  0  0
  182.7030  178.7050  141.8130 O   0  0  0  0  0  0  0  0  0  0  0  0
  181.3140  178.5520  141.8500 C   0  0  0  0  0  2  0  0  0  0  0  0
  179.2870  179.5290  141.0510 O   0  0  0  0  0  1  0  0  0  0  0  0
  180.6670  179.4870  140.8410 C   0  0  0  0  0  2  0  0  0  0  0  0
  186.0100  178.0110  146.6570 C   0  0  0  0  0  2  0  0  0  0  0  0
  187.4500  177.7580  147.0840 C   0  0  0  0  0  2  0  0  0  0  0  0
  187.7840  176.2750  146.9900 C   0  0  0  0  0  2  0  0  0  0  0  0
  189.1200  176.0620  146.2990 C   0  0  0  0  0  2  0  0  0  0  0  0
  189.7770  177.4040  146.0240 C   0  0  0  0  0  2  0  0  0  0  0  0
  190.5150  177.3450  144.7020 C   0  0  0  0  0  1  0  0  0  0  0  0
  189.0880  175.5580  142.2750 O   0  0  0  0  0  0  0  0  0  0  0  0
  190.7790  173.9640  142.9040 C   0  0  0  0  0  3  0  0  0  0  0  0
  191.1950  172.6500  143.1380 C   0  0  0  0  0  0  0  0  0  0  0  0
  189.4690  174.2310  142.4940 C   0  0  0  0  0  0  0  0  0  0  0  0
  188.9770  171.8530  142.5550 C   0  0  0  0  0  3  0  0  0  0  0  0
  188.5670  173.1690  142.3210 C   0  0  0  0  0  3  0  0  0  0  0  0
  190.2870  171.5930  142.9580 C   0  0  0  0  0  3  0  0  0  0  0  0
  192.9230  172.4400  144.8560 C   0  0  0  0  0  3  0  0  0  0  0  0
  192.5770  172.4130  143.5760 C   0  0  0  0  0  3  0  0  0  0  0  0
  194.3340  172.2110  145.2690 C   0  0  0  0  0  2  0  0  0  0  0  0
  195.6320  173.5320  143.5730 C   0  0  0  0  0  2  0  0  0  0  0  0
  196.1470  175.9480  144.2650 C   0  0  0  0  0  2  0  0  0  0  0  0
  194.3670  174.6130  145.3060 O   0  0  0  0  0  0  0  0  0  0  0  0
  195.2960  175.6510  145.5140 C   0  0  2  0  0  3  0  0  0  0  0  0
  195.1330  173.4750  145.0200 C   0  0  1  0  0  3  0  0  0  0  0  0
  194.5750  176.9070  145.9460 C   0  0  0  0  0  1  0  0  0  0  0  0
  195.8530  174.9820  143.1090 C   0  0  1  0  0  3  0  0  0  0  0  0
  196.9420  175.0540  142.0890 C   0  0  0  0  0  0  0  0  0  0  0  0
  196.8260  175.9450  140.9770 N   0  0  0  0  0  2  0  0  0  0  0  0
  197.9410  174.2930  142.1920 O   0  0  0  0  0  0  0  0  0  0  0  0
  197.7030  175.9190  139.9450 O   0  0  0  0  0  0  0  0  0  0  0  0
  197.3780  174.7650  139.2280 C   0  0  0  0  0  2  0  0  0  0  0  0
  196.0080  174.9170  138.5700 C   0  0  0  0  0  2  0  0  0  0  0  0
  195.7130  174.9290  136.0560 C   0  0  0  0  0  1  0  0  0  0  0  0
  195.8440  174.0730  137.3030 C   0  0  1  0  0  3  0  0  0  0  0  0
  197.1820  172.8560  137.1090 S   0  0  0  0  0  0  0  0  0  0  0  0
  196.0930  171.4700  137.5350 C   0  0  1  0  0  3  0  0  0  0  0  0
  196.3010  170.4370  136.6390 F   0  0  0  0  0  0  0  0  0  0  0  0
  196.3960  170.9790  138.9380 C   0  0  0  0  0  2  0  0  0  0  0  0
  195.7380  168.3080  140.0390 O   0  0  0  0  0  0  0  0  0  0  0  0
  195.2080  169.6310  139.4240 P   0  0  0  0  0  0  0  0  0  0  0  0
  1  8  1  0  0  0  0
  2  6  1  0  0  0  0
  2  4  1  0  0  0  0
  3  4  1  0  0  0  0
  3  7  1  0  0  0  0
  4  1  1  0  0  0  0
  5 20  1  1  0  0  0
  7  5  1  0  0  0  0
  8  5  1  0  0  0  0
  8 40  1  1  0  0  0
  9  2  2  0  0  0  0
 10 17  1  0  0  0  0
 10 12  1  1  0  0  0
 10 11  1  0  0  0  0
 15 12  1  0  0  0  0
 15 18  1  0  0  0  0
 16 11  1  0  0  0  0
 16  6  1  0  0  0  0
 17 11  1  0  0  0  0
 17 14  1  0  0  0  0
 18 14  1  0  0  0  0
 19 16  1  0  0  0  0
 19 13  1  0  0  0  0
 19 11  1  0  0  0  0
 20 21  1  0  0  0  0
 21 23  1  0  0  0  0
 23 26  1  0  0  0  0
 24 25  1  0  0  0  0
 24 27  1  0  0  0  0
 25 23  1  0  0  0  0
 26 34  1  0  0  0  0
 27 26  1  0  0  0  0
 27 22  1  0  0  0  0
 28 27  1  0  0  0  0
 29 24  1  0  0  0  0
 30 31  1  0  0  0  0
 30 29  1  0  0  0  0
 33 32  1  0  0  0  0
 33 31  1  0  0  0  0
 34 35  1  0  0  0  0
 36 35  1  0  0  0  0
 37 36  1  0  0  0  0
 38 37  1  0  0  0  0
 39 38  1  0  0  0  0
 40 43  1  0  0  0  0
 41 42  1  0  0  0  0
 42 48  1  0  0  0  0
 43 41  2  0  0  0  0
 44 46  1  0  0  0  0
 45 43  1  0  0  0  0
 45 44  2  0  0  0  0
 46 42  2  0  0  0  0
 47 49  1  0  0  0  0
 48 47  2  0  0  0  0
 50 54  1  0  0  0  0
 51 53  1  0  0  0  0
 52 53  1  0  0  0  0
 53 55  1  0  0  0  0
 54 49  1  0  0  0  0
 54 52  1  0  0  0  0
 56 50  1  0  0  0  0
 56 51  1  0  0  0  0
 57 59  2  0  0  0  0
 57 56  1  0  0  0  0
 58 57  1  0  0  0  0
 60 58  1  0  0  0  0
 61 60  1  0  0  0  0
 62 61  1  0  0  0  0
 63 64  1  0  0  0  0
 64 62  1  0  0  0  0
 65 64  1  0  0  0  0
 65 66  1  0  0  0  0
 66 68  1  0  0  0  0
 67 66  1  0  0  0  0
 68 70  1  0  0  0  0
 70 69  2  0  0  0  0
M  END
>  <MODEL>
2

>  <REMARK>
 VINA RESULT:      -4.9      2.965      6.491
  Name = 
  27 active torsions:
  status: ('A' for Active; 'I' for Inactive)
    1  A    between atoms: C_5  and  N_32
    2  A    between atoms: C_5  and  O_36
    3  A    between atoms: C_9  and  C_16
    4  A    between atoms: C_10  and  C_11
    5  A    between atoms: C_10  and  S_64
    6  A    between atoms: C_11  and  P_55
    7  A    between atoms: C_14  and  C_23
    8  A    between atoms: C_15  and  C_23
    9  A    between atoms: C_15  and  C_57
   10  A    between atoms: C_16  and  O_36
   11  A    between atoms: C_18  and  C_19
   12  A    between atoms: C_19  and  C_41
   13  A    between atoms: C_20  and  C_65
   14  A    between atoms: N_25  and  O_62
   15  A    between atoms: C_29  and  C_63
   16  A    between atoms: C_30  and  N_31
   17  A    between atoms: N_31  and  C_54
   18  A    between atoms: O_33  and  C_39
   19  A    between atoms: O_33  and  C_58
   20  A    between atoms: C_42  and  C_43
   21  A    between atoms: C_42  and  C_57
   22  A    between atoms: C_45  and  C_54
   23  A    between atoms: N_46  and  C_56
   24  A    between atoms: C_52  and  C_60
   25  A    between atoms: C_52  and  C_61
   26  A    between atoms: C_60  and  S_64
   27  A    between atoms: C_61  and  O_62
                            x       y       z     vdW  Elec       q    Type
                         _______ _______ _______ _____ _____    ______ ____

>  <TORSDO>
F 27

$$$$
=
 OpenBabel11042419393D

 70 76  0  0  1  0  0  0  0  0999 V2000
  193.3400  175.4600  144.3640 C   0  0  0  0  0  2  0  0  0  0  0  0
  195.1060  174.3420  142.9830 C   0  0  0  0  0  0  0  0  0  0  0  0
  194.0860  176.4790  142.1520 C   0  0  0  0  0  2  0  0  0  0  0  0
  194.1450  175.3950  143.1390 N   0  0  0  0  0  0  0  0  0  0  0  0
  192.0670  177.4430  143.3870 C   0  0  2  0  0  3  0  0  0  0  0  0
  195.2830  173.3760  144.0220 N   0  0  0  0  0  2  0  0  0  0  0  0
  192.6570  177.0090  142.0360 C   0  0  0  0  0  2  0  0  0  0  0  0
  192.8380  176.8800  144.6010 C   0  0  1  0  0  3  0  0  0  0  0  0
  195.8080  174.2760  141.9370 O   0  0  0  0  0  0  0  0  0  0  0  0
  197.1210  170.4290  145.7710 C   0  0  1  0  0  3  0  0  0  0  0  0
  196.2120  171.4680  145.2290 C   0  0  2  0  0  0  0  0  0  0  0  0
  196.5820  169.8890  147.1030 C   0  0  0  0  0  2  0  0  0  0  0  0
  197.1770  173.5950  145.7790 O   0  0  0  0  0  1  0  0  0  0  0  0
  195.0270  169.4400  144.9530 C   0  0  0  0  0  2  0  0  0  0  0  0
  196.2090  168.4150  146.9550 C   0  0  0  0  0  2  0  0  0  0  0  0
  196.2900  172.3210  143.9480 C   0  0  2  0  0  3  0  0  0  0  0  0
  196.2870  170.1110  144.6130 N   0  0  2  0  0  0  0  0  0  0  0  0
  195.2850  168.1670  145.7580 C   0  0  0  0  0  2  0  0  0  0  0  0
  197.3550  172.4680  144.9680 C   0  0  2  0  0  3  0  0  0  0  0  0
  190.5910  177.0740  143.4250 C   0  0  0  0  0  2  0  0  0  0  0  0
  190.3580  175.9000  142.6010 N   0  0  0  0  0  2  0  0  0  0  0  0
  185.9610  176.4830  142.0400 O   0  0  0  0  0  1  0  0  0  0  0  0
  188.9250  175.6600  142.5920 C   0  0  2  0  0  3  0  0  0  0  0  0
  187.8060  176.2840  140.5580 N   0  0  0  0  0  0  0  0  0  0  0  0
  188.5030  175.1820  141.2110 C   0  0  0  0  0  2  0  0  0  0  0  0
  188.1950  176.9720  142.7960 C   0  0  1  0  0  3  0  0  0  0  0  0
  187.1900  177.0410  141.6550 C   0  0  0  0  0  0  0  0  0  0  0  0
  187.0030  178.3690  141.2720 O   0  0  0  0  0  1  0  0  0  0  0  0
  186.8160  175.7270  139.6400 C   0  0  0  0  0  2  0  0  0  0  0  0
  187.3760  175.6130  138.3650 O   0  0  0  0  0  0  0  0  0  0  0  0
  186.6680  176.5340  137.5890 C   0  0  0  0  0  2  0  0  0  0  0  0
  185.4500  175.9840  135.6100 O   0  0  0  0  0  1  0  0  0  0  0  0
  186.7400  176.1350  136.1230 C   0  0  0  0  0  2  0  0  0  0  0  0
  187.5640  177.0680  144.1830 C   0  0  0  0  0  2  0  0  0  0  0  0
  186.9370  178.4370  144.4150 C   0  0  0  0  0  2  0  0  0  0  0  0
  185.4560  178.3010  144.7390 C   0  0  0  0  0  2  0  0  0  0  0  0
  185.2440  177.4170  145.9560 C   0  0  0  0  0  2  0  0  0  0  0  0
  185.1640  178.2750  147.2070 C   0  0  0  0  0  2  0  0  0  0  0  0
  186.3170  177.9350  148.1300 C   0  0  0  0  0  1  0  0  0  0  0  0
  192.0700  176.9410  145.8010 O   0  0  0  0  0  0  0  0  0  0  0  0
  191.0510  174.7790  145.5190 C   0  0  0  0  0  3  0  0  0  0  0  0
  190.0200  173.8690  145.7740 C   0  0  0  0  0  0  0  0  0  0  0  0
  191.0190  176.0620  146.0750 C   0  0  0  0  0  0  0  0  0  0  0  0
  188.9120  175.5280  147.1580 C   0  0  0  0  0  3  0  0  0  0  0  0
  189.9440  176.4340  146.8980 C   0  0  0  0  0  3  0  0  0  0  0  0
  188.9460  174.2520  146.5960 C   0  0  0  0  0  3  0  0  0  0  0  0
  191.0240  172.2070  144.2890 C   0  0  0  0  0  3  0  0  0  0  0  0
  190.0960  172.5290  145.1790 C   0  0  0  0  0  3  0  0  0  0  0  0
  191.0670  170.8450  143.6910 C   0  0  0  0  0  2  0  0  0  0  0  0
  191.8320  172.3870  141.8630 C   0  0  0  0  0  2  0  0  0  0  0  0
  193.2770  171.2740  140.0590 C   0  0  0  0  0  2  0  0  0  0  0  0
  192.9380  170.2960  142.2870 O   0  0  0  0  0  0  0  0  0  0  0  0
  193.1900  170.0080  140.9320 C   0  0  2  0  0  3  0  0  0  0  0  0
  191.6880  170.9300  142.3110 C   0  0  1  0  0  3  0  0  0  0  0  0
  194.4700  169.2150  140.8040 C   0  0  0  0  0  1  0  0  0  0  0  0
  192.9770  172.5550  140.8490 C   0  0  1  0  0  3  0  0  0  0  0  0
  192.6940  173.6830  139.9120 C   0  0  0  0  0  0  0  0  0  0  0  0
  193.6310  174.0130  138.8830 N   0  0  0  0  0  2  0  0  0  0  0  0
  191.6470  174.3680  140.0610 O   0  0  0  0  0  0  0  0  0  0  0  0
  193.4980  175.1270  138.1240 O   0  0  0  0  0  0  0  0  0  0  0  0
  193.9370  174.7490  136.8530 C   0  0  0  0  0  2  0  0  0  0  0  0
  195.2860  175.3960  136.5430 C   0  0  0  0  0  2  0  0  0  0  0  0
  196.5120  174.4440  134.5440 C   0  0  0  0  0  1  0  0  0  0  0  0
  196.3400  174.4000  136.0520 C   0  0  1  0  0  3  0  0  0  0  0  0
  197.9400  174.6210  136.8880 S   0  0  0  0  0  0  0  0  0  0  0  0
  197.7790  173.0540  137.7860 C   0  0  1  0  0  3  0  0  0  0  0  0
  197.5620  173.3190  139.1260 F   0  0  0  0  0  0  0  0  0  0  0  0
  196.6090  172.2570  137.2410 C   0  0  0  0  0  2  0  0  0  0  0  0
  196.1960  169.6480  135.8970 O   0  0  0  0  0  0  0  0  0  0  0  0
  197.1870  170.5990  136.6230 P   0  0  0  0  0  0  0  0  0  0  0  0
  1  8  1  0  0  0  0
  2  4  1  0  0  0  0
  2  6  1  0  0  0  0
  3  4  1  0  0  0  0
  4  1  1  0  0  0  0
  5 20  1  1  0  0  0
  5  8  1  0  0  0  0
  7  3  1  0  0  0  0
  7  5  1  0  0  0  0
  8 40  1  1  0  0  0
  9  2  2  0  0  0  0
 10 12  1  1  0  0  0
 11 10  1  0  0  0  0
 14 18  1  0  0  0  0
 15 12  1  0  0  0  0
 16  6  1  0  0  0  0
 16 19  1  0  0  0  0
 16 11  1  0  0  0  0
 17 14  1  0  0  0  0
 17 11  1  0  0  0  0
 17 10  1  0  0  0  0
 18 15  1  0  0  0  0
 19 11  1  0  0  0  0
 19 13  1  0  0  0  0
 21 20  1  0  0  0  0
 23 21  1  0  0  0  0
 23 26  1  0  0  0  0
 24 25  1  0  0  0  0
 24 27  1  0  0  0  0
 25 23  1  0  0  0  0
 26 34  1  0  0  0  0
 27 22  1  0  0  0  0
 27 26  1  0  0  0  0
 28 27  1  0  0  0  0
 29 24  1  0  0  0  0
 30 29  1  0  0  0  0
 31 30  1  0  0  0  0
 32 33  1  0  0  0  0
 33 31  1  0  0  0  0
 34 35  1  0  0  0  0
 35 36  1  0  0  0  0
 36 37  1  0  0  0  0
 37 38  1  0  0  0  0
 38 39  1  0  0  0  0
 40 43  1  0  0  0  0
 41 42  2  0  0  0  0
 41 43  1  0  0  0  0
 42 46  1  0  0  0  0
 43 45  2  0  0  0  0
 45 44  1  0  0  0  0
 46 44  2  0  0  0  0
 47 48  2  0  0  0  0
 48 42  1  0  0  0  0
 49 47  1  0  0  0  0
 50 54  1  0  0  0  0
 51 56  1  0  0  0  0
 51 53  1  0  0  0  0
 52 54  1  0  0  0  0
 53 52  1  0  0  0  0
 54 49  1  0  0  0  0
 55 53  1  0  0  0  0
 56 50  1  0  0  0  0
 57 59  2  0  0  0  0
 57 56  1  0  0  0  0
 58 57  1  0  0  0  0
 60 58  1  0  0  0  0
 61 60  1  0  0  0  0
 62 61  1  0  0  0  0
 63 64  1  0  0  0  0
 64 62  1  0  0  0  0
 64 65  1  0  0  0  0
 65 66  1  0  0  0  0
 66 67  1  0  0  0  0
 68 66  1  0  0  0  0
 69 70  2  0  0  0  0
 70 68  1  0  0  0  0
M  END
>  <MODEL>
3

>  <REMARK>
 VINA RESULT:      -4.7      2.044      2.934
  Name = 
  27 active torsions:
  status: ('A' for Active; 'I' for Inactive)
    1  A    between atoms: C_5  and  N_32
    2  A    between atoms: C_5  and  O_36
    3  A    between atoms: C_9  and  C_16
    4  A    between atoms: C_10  and  C_11
    5  A    between atoms: C_10  and  S_64
    6  A    between atoms: C_11  and  P_55
    7  A    between atoms: C_14  and  C_23
    8  A    between atoms: C_15  and  C_23
    9  A    between atoms: C_15  and  C_57
   10  A    between atoms: C_16  and  O_36
   11  A    between atoms: C_18  and  C_19
   12  A    between atoms: C_19  and  C_41
   13  A    between atoms: C_20  and  C_65
   14  A    between atoms: N_25  and  O_62
   15  A    between atoms: C_29  and  C_63
   16  A    between atoms: C_30  and  N_31
   17  A    between atoms: N_31  and  C_54
   18  A    between atoms: O_33  and  C_39
   19  A    between atoms: O_33  and  C_58
   20  A    between atoms: C_42  and  C_43
   21  A    between atoms: C_42  and  C_57
   22  A    between atoms: C_45  and  C_54
   23  A    between atoms: N_46  and  C_56
   24  A    between atoms: C_52  and  C_60
   25  A    between atoms: C_52  and  C_61
   26  A    between atoms: C_60  and  S_64
   27  A    between atoms: C_61  and  O_62
                            x       y       z     vdW  Elec       q    Type
                         _______ _______ _______ _____ _____    ______ ____

>  <TORSDO>
F 27

$$$$
=
 OpenBabel11042419393D

 70 76  0  0  1  0  0  0  0  0999 V2000
  193.2180  174.5750  142.6010 C   0  0  0  0  0  2  0  0  0  0  0  0
  193.5480  174.7990  140.1270 C   0  0  0  0  0  0  0  0  0  0  0  0
  191.2510  174.3000  141.0080 C   0  0  0  0  0  2  0  0  0  0  0  0
  192.6850  174.5070  141.2360 N   0  0  0  0  0  0  0  0  0  0  0  0
  190.9730  173.7490  143.4870 C   0  0  2  0  0  3  0  0  0  0  0  0
  194.9100  175.1650  140.3590 N   0  0  0  0  0  2  0  0  0  0  0  0
  190.6880  173.3230  142.0380 C   0  0  0  0  0  2  0  0  0  0  0  0
  192.0930  174.8060  143.6050 C   0  0  1  0  0  3  0  0  0  0  0  0
  193.1020  174.7480  138.9490 O   0  0  0  0  0  0  0  0  0  0  0  0
  197.2030  174.0330  137.4300 C   0  0  1  0  0  3  0  0  0  0  0  0
  196.1750  174.2730  138.4720 C   0  0  2  0  0  0  0  0  0  0  0  0
  197.1490  172.5760  136.9500 C   0  0  0  0  0  2  0  0  0  0  0  0
  197.2960  174.1770  140.5920 O   0  0  0  0  0  1  0  0  0  0  0  0
  194.9440  174.0400  136.4660 C   0  0  0  0  0  2  0  0  0  0  0  0
  196.7310  172.5260  135.4820 C   0  0  0  0  0  2  0  0  0  0  0  0
  195.8170  175.5360  139.2770 C   0  0  2  0  0  3  0  0  0  0  0  0
  196.0170  174.8200  137.0930 N   0  0  2  0  0  0  0  0  0  0  0  0
  195.4480  173.3210  135.2160 C   0  0  0  0  0  2  0  0  0  0  0  0
  197.1700  174.9520  139.4330 C   0  0  2  0  0  3  0  0  0  0  0  0
  191.2630  172.5110  144.3210 C   0  0  0  0  0  2  0  0  0  0  0  0
  190.9200  171.3190  143.5650 N   0  0  0  0  0  2  0  0  0  0  0  0
  195.0160  169.6670  142.8720 O   0  0  0  0  0  1  0  0  0  0  0  0
  192.0770  170.4410  143.6000 C   0  0  2  0  0  3  0  0  0  0  0  0
  194.1660  171.5370  144.0640 N   0  0  0  0  0  0  0  0  0  0  0  0
  193.0220  170.8970  144.7020 C   0  0  0  0  0  2  0  0  0  0  0  0
  192.8650  170.5970  142.3160 C   0  0  1  0  0  3  0  0  0  0  0  0
  194.2940  170.8660  142.7650 C   0  0  0  0  0  0  0  0  0  0  0  0
  194.9230  171.7120  141.8510 O   0  0  0  0  0  1  0  0  0  0  0  0
  195.3390  171.3410  144.9120 C   0  0  0  0  0  2  0  0  0  0  0  0
  195.5760  172.5010  145.6540 O   0  0  0  0  0  0  0  0  0  0  0  0
  196.9530  172.4850  145.8950 C   0  0  0  0  0  2  0  0  0  0  0  0
  197.7400  171.0250  144.1770 O   0  0  0  0  0  1  0  0  0  0  0  0
  197.7040  172.3610  144.5780 C   0  0  0  0  0  2  0  0  0  0  0  0
  192.7220  169.3800  141.4040 C   0  0  0  0  0  2  0  0  0  0  0  0
  191.3800  169.3820  140.6810 C   0  0  0  0  0  2  0  0  0  0  0  0
  191.5750  169.6110  139.1890 C   0  0  0  0  0  2  0  0  0  0  0  0
  190.4980  168.9040  138.3850 C   0  0  0  0  0  2  0  0  0  0  0  0
  190.4060  169.5170  136.9980 C   0  0  0  0  0  2  0  0  0  0  0  0
  191.3880  170.6650  136.8850 C   0  0  0  0  0  1  0  0  0  0  0  0
  192.6190  174.8860  144.9280 O   0  0  0  0  0  0  0  0  0  0  0  0
  190.6520  175.9210  145.8540 C   0  0  0  0  0  3  0  0  0  0  0  0
  190.0180  176.6740  146.8470 C   0  0  0  0  0  0  0  0  0  0  0  0
  192.0210  175.6470  145.9370 C   0  0  0  0  0  0  0  0  0  0  0  0
  192.1310  176.8830  148.0250 C   0  0  0  0  0  3  0  0  0  0  0  0
  192.7600  176.1300  147.0290 C   0  0  0  0  0  3  0  0  0  0  0  0
  190.7660  177.1580  147.9340 C   0  0  0  0  0  3  0  0  0  0  0  0
  188.1000  177.9300  145.9960 C   0  0  0  0  0  3  0  0  0  0  0  0
  188.5770  176.9320  146.7270 C   0  0  0  0  0  3  0  0  0  0  0  0
  186.6350  178.1750  145.9050 C   0  0  0  0  0  2  0  0  0  0  0  0
  184.7860  178.3990  144.2220 C   0  0  0  0  0  2  0  0  0  0  0  0
  185.3820  177.5850  141.8630 C   0  0  0  0  0  2  0  0  0  0  0  0
  187.0790  178.1590  143.5440 O   0  0  0  0  0  0  0  0  0  0  0  0
  186.7970  177.3520  142.4240 C   0  0  2  0  0  3  0  0  0  0  0  0
  186.1520  177.7780  144.5240 C   0  0  1  0  0  3  0  0  0  0  0  0
  187.8200  177.6030  141.3400 C   0  0  0  0  0  1  0  0  0  0  0  0
  184.5680  178.5740  142.7090 C   0  0  1  0  0  3  0  0  0  0  0  0
  183.1180  178.4730  142.3660 C   0  0  0  0  0  0  0  0  0  0  0  0
  182.7180  178.0460  141.0610 N   0  0  0  0  0  2  0  0  0  0  0  0
  182.2520  178.8080  143.2180 O   0  0  0  0  0  0  0  0  0  0  0  0
  181.4270  178.1030  140.6540 O   0  0  0  0  0  0  0  0  0  0  0  0
  181.1260  179.4670  140.6080 C   0  0  0  0  0  2  0  0  0  0  0  0
  179.6710  179.7050  141.0070 C   0  0  0  0  0  2  0  0  0  0  0  0
  177.9090  178.1040  141.8660 C   0  0  0  0  0  1  0  0  0  0  0  0
  178.7490  178.5290  140.6750 C   0  0  1  0  0  3  0  0  0  0  0  0
  177.6940  178.8660  139.2320 S   0  0  0  0  0  0  0  0  0  0  0  0
  178.6390  177.7360  138.1750 C   0  0  1  0  0  3  0  0  0  0  0  0
  179.0020  176.6230  138.9090 F   0  0  0  0  0  0  0  0  0  0  0  0
  177.7950  177.2980  136.9920 C   0  0  0  0  0  2  0  0  0  0  0  0
  178.4690  174.4130  136.9370 O   0  0  0  0  0  0  0  0  0  0  0  0
  178.5260  175.7790  136.2020 P   0  0  0  0  0  0  0  0  0  0  0  0
  1  8  1  0  0  0  0
  2  6  1  0  0  0  0
  2  4  1  0  0  0  0
  3  4  1  0  0  0  0
  3  7  1  0  0  0  0
  4  1  1  0  0  0  0
  5  8  1  0  0  0  0
  5 20  1  1  0  0  0
  7  5  1  0  0  0  0
  8 40  1  1  0  0  0
  9  2  2  0  0  0  0
 10 12  1  6  0  0  0
 10 11  1  0  0  0  0
 11 16  1  0  0  0  0
 11 19  1  0  0  0  0
 14 17  1  0  0  0  0
 15 12  1  0  0  0  0
 16 19  1  0  0  0  0
 16  6  1  0  0  0  0
 17 10  1  0  0  0  0
 17 11  1  0  0  0  0
 18 15  1  0  0  0  0
 18 14  1  0  0  0  0
 19 13  1  0  0  0  0
 21 23  1  0  0  0  0
 21 20  1  0  0  0  0
 23 25  1  0  0  0  0
 24 25  1  0  0  0  0
 24 29  1  0  0  0  0
 26 27  1  0  0  0  0
 26 23  1  0  0  0  0
 27 22  1  0  0  0  0
 27 24  1  0  0  0  0
 28 27  1  0  0  0  0
 29 30  1  0  0  0  0
 30 31  1  0  0  0  0
 32 33  1  0  0  0  0
 33 31  1  0  0  0  0
 34 26  1  0  0  0  0
 35 34  1  0  0  0  0
 36 35  1  0  0  0  0
 37 36  1  0  0  0  0
 38 37  1  0  0  0  0
 39 38  1  0  0  0  0
 40 43  1  0  0  0  0
 41 43  2  0  0  0  0
 41 42  1  0  0  0  0
 42 46  2  0  0  0  0
 43 45  1  0  0  0  0
 45 44  2  0  0  0  0
 46 44  1  0  0  0  0
 47 48  2  0  0  0  0
 48 42  1  0  0  0  0
 49 47  1  0  0  0  0
 50 54  1  0  0  0  0
 51 53  1  0  0  0  0
 51 56  1  0  0  0  0
 52 54  1  0  0  0  0
 53 52  1  0  0  0  0
 54 49  1  0  0  0  0
 55 53  1  0  0  0  0
 56 50  1  0  0  0  0
 57 56  1  0  0  0  0
 57 59  2  0  0  0  0
 58 57  1  0  0  0  0
 60 58  1  0  0  0  0
 61 60  1  0  0  0  0
 61 62  1  0  0  0  0
 64 62  1  0  0  0  0
 64 63  1  0  0  0  0
 65 64  1  0  0  0  0
 66 67  1  0  0  0  0
 66 65  1  0  0  0  0
 68 66  1  0  0  0  0
 70 69  2  0  0  0  0
 70 68  1  0  0  0  0
M  END
>  <MODEL>
4

>  <REMARK>
 VINA RESULT:      -4.7      4.793     10.374
  Name = 
  27 active torsions:
  status: ('A' for Active; 'I' for Inactive)
    1  A    between atoms: C_5  and  N_32
    2  A    between atoms: C_5  and  O_36
    3  A    between atoms: C_9  and  C_16
    4  A    between atoms: C_10  and  C_11
    5  A    between atoms: C_10  and  S_64
    6  A    between atoms: C_11  and  P_55
    7  A    between atoms: C_14  and  C_23
    8  A    between atoms: C_15  and  C_23
    9  A    between atoms: C_15  and  C_57
   10  A    between atoms: C_16  and  O_36
   11  A    between atoms: C_18  and  C_19
   12  A    between atoms: C_19  and  C_41
   13  A    between atoms: C_20  and  C_65
   14  A    between atoms: N_25  and  O_62
   15  A    between atoms: C_29  and  C_63
   16  A    between atoms: C_30  and  N_31
   17  A    between atoms: N_31  and  C_54
   18  A    between atoms: O_33  and  C_39
   19  A    between atoms: O_33  and  C_58
   20  A    between atoms: C_42  and  C_43
   21  A    between atoms: C_42  and  C_57
   22  A    between atoms: C_45  and  C_54
   23  A    between atoms: N_46  and  C_56
   24  A    between atoms: C_52  and  C_60
   25  A    between atoms: C_52  and  C_61
   26  A    between atoms: C_60  and  S_64
   27  A    between atoms: C_61  and  O_62
                            x       y       z     vdW  Elec       q    Type
                         _______ _______ _______ _____ _____    ______ ____

>  <TORSDO>
F 27

$$$$
=
 OpenBabel11042419393D

 70 76  0  0  1  0  0  0  0  0999 V2000
  193.0070  175.5290  144.4120 C   0  0  0  0  0  2  0  0  0  0  0  0
  194.7230  174.4800  142.9180 C   0  0  0  0  0  0  0  0  0  0  0  0
  193.8420  176.7590  142.3440 C   0  0  0  0  0  2  0  0  0  0  0  0
  193.8230  175.5630  143.1930 N   0  0  0  0  0  0  0  0  0  0  0  0
  191.8660  177.6870  143.6720 C   0  0  2  0  0  3  0  0  0  0  0  0
  194.8280  173.3880  143.8340 N   0  0  0  0  0  2  0  0  0  0  0  0
  192.4490  177.3840  142.2820 C   0  0  0  0  0  2  0  0  0  0  0  0
  192.5860  176.9380  144.8150 C   0  0  1  0  0  3  0  0  0  0  0  0
  195.4340  174.4980  141.8760 O   0  0  0  0  0  0  0  0  0  0  0  0
  196.8040  170.4140  145.3740 C   0  0  1  0  0  3  0  0  0  0  0  0
  195.8610  171.4750  144.9440 C   0  0  2  0  0  0  0  0  0  0  0  0
  196.4570  169.9300  146.7890 C   0  0  0  0  0  2  0  0  0  0  0  0
  196.9770  173.5740  145.2720 O   0  0  0  0  0  1  0  0  0  0  0  0
  194.5740  169.4910  144.9180 C   0  0  0  0  0  2  0  0  0  0  0  0
  196.0120  168.4700  146.7460 C   0  0  0  0  0  2  0  0  0  0  0  0
  195.7720  172.2900  143.6410 C   0  0  2  0  0  3  0  0  0  0  0  0
  195.7900  170.1010  144.3680 N   0  0  2  0  0  0  0  0  0  0  0  0
  194.9060  168.2300  145.7140 C   0  0  0  0  0  2  0  0  0  0  0  0
  196.9870  172.4200  144.4800 C   0  0  2  0  0  3  0  0  0  0  0  0
  190.3710  177.4060  143.6550 C   0  0  0  0  0  2  0  0  0  0  0  0
  190.0630  176.4510  142.6040 N   0  0  0  0  0  2  0  0  0  0  0  0
  185.7070  177.1260  141.8600 O   0  0  0  0  0  1  0  0  0  0  0  0
  188.6220  176.2720  142.5960 C   0  0  2  0  0  3  0  0  0  0  0  0
  187.5670  176.6380  140.4670 N   0  0  0  0  0  0  0  0  0  0  0  0
  188.2030  175.6150  141.2890 C   0  0  0  0  0  2  0  0  0  0  0  0
  187.9470  177.6280  142.5900 C   0  0  1  0  0  3  0  0  0  0  0  0
  186.9660  177.5710  141.4270 C   0  0  0  0  0  0  0  0  0  0  0  0
  186.8440  178.8350  140.8520 O   0  0  0  0  0  1  0  0  0  0  0  0
  186.5700  175.9930  139.6160 C   0  0  0  0  0  2  0  0  0  0  0  0
  187.1780  175.5520  138.4380 O   0  0  0  0  0  0  0  0  0  0  0  0
  186.5100  176.2400  137.4220 C   0  0  0  0  0  2  0  0  0  0  0  0
  186.5660  176.5250  135.0520 O   0  0  0  0  0  1  0  0  0  0  0  0
  187.3660  176.2600  136.1650 C   0  0  0  0  0  2  0  0  0  0  0  0
  187.2960  177.9510  143.9330 C   0  0  0  0  0  2  0  0  0  0  0  0
  187.1100  176.6960  144.7760 C   0  0  0  0  0  2  0  0  0  0  0  0
  185.7350  176.6900  145.4320 C   0  0  0  0  0  2  0  0  0  0  0  0
  185.2090  178.1040  145.6040 C   0  0  0  0  0  2  0  0  0  0  0  0
  185.5780  178.6260  146.9830 C   0  0  0  0  0  2  0  0  0  0  0  0
  186.0090  177.4710  147.8630 C   0  0  0  0  0  1  0  0  0  0  0  0
  191.8060  176.9010  146.0080 O   0  0  0  0  0  0  0  0  0  0  0  0
  190.9060  174.7200  145.5340 C   0  0  0  0  0  3  0  0  0  0  0  0
  189.9680  173.7080  145.7600 C   0  0  0  0  0  0  0  0  0  0  0  0
  190.8480  175.9150  146.2580 C   0  0  0  0  0  0  0  0  0  0  0  0
  188.9030  175.0850  147.4530 C   0  0  0  0  0  3  0  0  0  0  0  0
  189.8430  176.0940  147.2210 C   0  0  0  0  0  3  0  0  0  0  0  0
  188.9620  173.8970  146.7230 C   0  0  0  0  0  3  0  0  0  0  0  0
  191.0980  172.2140  144.1870 C   0  0  0  0  0  3  0  0  0  0  0  0
  190.0680  172.4640  144.9840 C   0  0  0  0  0  3  0  0  0  0  0  0
  191.1640  170.9520  143.4020 C   0  0  0  0  0  2  0  0  0  0  0  0
  191.7460  170.1950  141.0800 C   0  0  0  0  0  2  0  0  0  0  0  0
  190.5470  171.4720  139.2060 C   0  0  0  0  0  2  0  0  0  0  0  0
  189.7450  171.4480  141.5280 O   0  0  0  0  0  0  0  0  0  0  0  0
  189.7950  172.1990  140.3370 C   0  0  2  0  0  3  0  0  0  0  0  0
  191.0790  171.2840  141.9250 C   0  0  1  0  0  3  0  0  0  0  0  0
  188.3940  172.5330  139.8810 C   0  0  0  0  0  1  0  0  0  0  0  0
  191.1510  170.1370  139.6620 C   0  0  1  0  0  3  0  0  0  0  0  0
  192.1700  169.6700  138.6760 C   0  0  0  0  0  0  0  0  0  0  0  0
  192.5890  170.5320  137.6150 N   0  0  0  0  0  2  0  0  0  0  0  0
  192.6260  168.4980  138.7600 O   0  0  0  0  0  0  0  0  0  0  0  0
  193.3790  170.0920  136.6050 O   0  0  0  0  0  0  0  0  0  0  0  0
  194.6350  169.9100  137.1870 C   0  0  0  0  0  2  0  0  0  0  0  0
  195.6470  170.8820  136.5830 C   0  0  0  0  0  2  0  0  0  0  0  0
  197.9340  171.8000  137.1590 C   0  0  0  0  0  1  0  0  0  0  0  0
  196.5050  171.5970  137.6300 C   0  0  1  0  0  3  0  0  0  0  0  0
  195.7730  173.1750  138.1610 S   0  0  0  0  0  0  0  0  0  0  0  0
  196.3100  174.0250  136.6520 C   0  0  1  0  0  3  0  0  0  0  0  0
  195.4970  173.6420  135.6010 F   0  0  0  0  0  0  0  0  0  0  0  0
  196.2100  175.5290  136.8350 C   0  0  0  0  0  2  0  0  0  0  0  0
  195.9410  177.4180  134.5690 O   0  0  0  0  0  0  0  0  0  0  0  0
  196.8470  176.4090  135.3240 P   0  0  0  0  0  0  0  0  0  0  0  0
  1  8  1  0  0  0  0
  2  4  1  0  0  0  0
  2  6  1  0  0  0  0
  3  4  1  0  0  0  0
  4  1  1  0  0  0  0
  5 20  1  6  0  0  0
  5  8  1  0  0  0  0
  7  3  1  0  0  0  0
  7  5  1  0  0  0  0
  8 40  1  1  0  0  0
  9  2  2  0  0  0  0
 10 12  1  1  0  0  0
 11 10  1  0  0  0  0
 14 18  1  0  0  0  0
 15 12  1  0  0  0  0
 16  6  1  0  0  0  0
 16 19  1  0  0  0  0
 16 11  1  0  0  0  0
 17 14  1  0  0  0  0
 17 11  1  0  0  0  0
 17 10  1  0  0  0  0
 18 15  1  0  0  0  0
 19 11  1  0  0  0  0
 19 13  1  0  0  0  0
 21 20  1  0  0  0  0
 23 21  1  0  0  0  0
 24 25  1  0  0  0  0
 24 27  1  0  0  0  0
 25 23  1  0  0  0  0
 26 23  1  0  0  0  0
 26 34  1  0  0  0  0
 27 22  1  0  0  0  0
 27 26  1  0  0  0  0
 28 27  1  0  0  0  0
 29 24  1  0  0  0  0
 30 29  1  0  0  0  0
 31 30  1  0  0  0  0
 32 33  1  0  0  0  0
 33 31  1  0  0  0  0
 34 35  1  0  0  0  0
 35 36  1  0  0  0  0
 36 37  1  0  0  0  0
 37 38  1  0  0  0  0
 38 39  1  0  0  0  0
 40 43  1  0  0  0  0
 41 42  2  0  0  0  0
 41 43  1  0  0  0  0
 42 46  1  0  0  0  0
 43 45  2  0  0  0  0
 45 44  1  0  0  0  0
 46 44  2  0  0  0  0
 47 48  2  0  0  0  0
 48 42  1  0  0  0  0
 49 47  1  0  0  0  0
 50 54  1  0  0  0  0
 51 56  1  0  0  0  0
 51 53  1  0  0  0  0
 52 54  1  0  0  0  0
 53 52  1  0  0  0  0
 54 49  1  0  0  0  0
 55 53  1  0  0  0  0
 56 50  1  0  0  0  0
 57 59  2  0  0  0  0
 57 56  1  0  0  0  0
 58 57  1  0  0  0  0
 60 61  1  0  0  0  0
 60 58  1  0  0  0  0
 62 61  1  0  0  0  0
 62 64  1  0  0  0  0
 63 64  1  0  0  0  0
 64 65  1  0  0  0  0
 66 68  1  0  0  0  0
 66 65  1  0  0  0  0
 67 66  1  0  0  0  0
 69 70  2  0  0  0  0
 70 68  1  0  0  0  0
M  END
>  <MODEL>
5

>  <REMARK>
 VINA RESULT:      -4.4      1.722      2.125
  Name = 
  27 active torsions:
  status: ('A' for Active; 'I' for Inactive)
    1  A    between atoms: C_5  and  N_32
    2  A    between atoms: C_5  and  O_36
    3  A    between atoms: C_9  and  C_16
    4  A    between atoms: C_10  and  C_11
    5  A    between atoms: C_10  and  S_64
    6  A    between atoms: C_11  and  P_55
    7  A    between atoms: C_14  and  C_23
    8  A    between atoms: C_15  and  C_23
    9  A    between atoms: C_15  and  C_57
   10  A    between atoms: C_16  and  O_36
   11  A    between atoms: C_18  and  C_19
   12  A    between atoms: C_19  and  C_41
   13  A    between atoms: C_20  and  C_65
   14  A    between atoms: N_25  and  O_62
   15  A    between atoms: C_29  and  C_63
   16  A    between atoms: C_30  and  N_31
   17  A    between atoms: N_31  and  C_54
   18  A    between atoms: O_33  and  C_39
   19  A    between atoms: O_33  and  C_58
   20  A    between atoms: C_42  and  C_43
   21  A    between atoms: C_42  and  C_57
   22  A    between atoms: C_45  and  C_54
   23  A    between atoms: N_46  and  C_56
   24  A    between atoms: C_52  and  C_60
   25  A    between atoms: C_52  and  C_61
   26  A    between atoms: C_60  and  S_64
   27  A    between atoms: C_61  and  O_62
                            x       y       z     vdW  Elec       q    Type
                         _______ _______ _______ _____ _____    ______ ____

>  <TORSDO>
F 27

$$$$
=
 OpenBabel11042419393D

 70 76  0  0  1  0  0  0  0  0999 V2000
  192.1930  171.1650  140.0200 C   0  0  0  0  0  2  0  0  0  0  0  0
  189.9040  172.1810  140.0910 C   0  0  0  0  0  0  0  0  0  0  0  0
  190.6880  171.0970  137.9670 C   0  0  0  0  0  2  0  0  0  0  0  0
  190.9430  171.5310  139.3450 N   0  0  0  0  0  0  0  0  0  0  0  0
  193.1270  170.3560  137.7880 C   0  0  2  0  0  3  0  0  0  0  0  0
  190.0880  172.4560  141.4820 N   0  0  0  0  0  2  0  0  0  0  0  0
  191.9770  171.1530  137.1500 C   0  0  0  0  0  2  0  0  0  0  0  0
  192.8910  170.0290  139.2790 C   0  0  1  0  0  3  0  0  0  0  0  0
  188.8220  172.4970  139.5250 O   0  0  0  0  0  0  0  0  0  0  0  0
  188.7700  175.5660  143.4080 C   0  0  1  0  0  3  0  0  0  0  0  0
  189.3580  174.5510  142.5010 C   0  0  2  0  0  0  0  0  0  0  0  0
  189.4610  176.9230  143.2110 C   0  0  0  0  0  2  0  0  0  0  0  0
  190.9060  173.2620  143.8060 O   0  0  0  0  0  1  0  0  0  0  0  0
  188.1250  175.9770  141.0740 C   0  0  0  0  0  2  0  0  0  0  0  0
  188.4640  177.9380  142.6540 C   0  0  0  0  0  2  0  0  0  0  0  0
  189.0430  173.0550  142.3070 C   0  0  2  0  0  3  0  0  0  0  0  0
  187.9980  175.1120  142.2530 N   0  0  2  0  0  0  0  0  0  0  0  0
  187.7380  177.4170  141.4090 C   0  0  0  0  0  2  0  0  0  0  0  0
  189.5410  173.5130  143.6260 C   0  0  2  0  0  3  0  0  0  0  0  0
  194.4330  171.1040  137.5650 C   0  0  0  0  0  2  0  0  0  0  0  0
  194.8140  171.7980  138.7840 N   0  0  0  0  0  2  0  0  0  0  0  0
  196.3620  175.2690  136.4290 O   0  0  0  0  0  1  0  0  0  0  0  0
  195.1960  173.1480  138.4070 C   0  0  2  0  0  3  0  0  0  0  0  0
  194.4900  173.8250  136.2100 N   0  0  0  0  0  0  0  0  0  0  0  0
  194.0700  173.7850  137.6060 C   0  0  0  0  0  2  0  0  0  0  0  0
  196.3730  173.0890  137.4540 C   0  0  1  0  0  3  0  0  0  0  0  0
  195.9530  173.9370  136.2620 C   0  0  0  0  0  0  0  0  0  0  0  0
  196.5120  173.4180  135.0950 O   0  0  0  0  0  1  0  0  0  0  0  0
  193.8630  174.9790  135.5710 C   0  0  0  0  0  2  0  0  0  0  0  0
  192.4830  174.9370  135.7860 O   0  0  0  0  0  0  0  0  0  0  0  0
  191.9410  174.6880  134.5230 C   0  0  0  0  0  2  0  0  0  0  0  0
  189.8840  173.5150  134.8310 O   0  0  0  0  0  1  0  0  0  0  0  0
  191.2350  173.3410  134.5220 C   0  0  0  0  0  2  0  0  0  0  0  0
  197.6700  173.5510  138.1150 C   0  0  0  0  0  2  0  0  0  0  0  0
  197.8520  172.9140  139.4880 C   0  0  0  0  0  2  0  0  0  0  0  0
  197.2920  173.8190  140.5770 C   0  0  0  0  0  2  0  0  0  0  0  0
  197.8660  173.4550  141.9350 C   0  0  0  0  0  2  0  0  0  0  0  0
  197.9360  174.6930  142.8120 C   0  0  0  0  0  2  0  0  0  0  0  0
  197.2820  175.8580  142.0980 C   0  0  0  0  0  1  0  0  0  0  0  0
  194.0970  169.6680  139.9470 O   0  0  0  0  0  0  0  0  0  0  0  0
  194.2110  171.4580  141.5520 C   0  0  0  0  0  3  0  0  0  0  0  0
  194.5120  171.9390  142.8300 C   0  0  0  0  0  0  0  0  0  0  0  0
  194.4140  170.1120  141.2340 C   0  0  0  0  0  0  0  0  0  0  0  0
  195.2210  169.7120  143.4900 C   0  0  0  0  0  3  0  0  0  0  0  0
  194.9200  169.2380  142.2090 C   0  0  0  0  0  3  0  0  0  0  0  0
  195.0220  171.0580  143.7990 C   0  0  0  0  0  3  0  0  0  0  0  0
  193.9540  174.2290  142.1810 C   0  0  0  0  0  3  0  0  0  0  0  0
  194.2760  173.3580  143.1270 C   0  0  0  0  0  3  0  0  0  0  0  0
  193.7350  175.6640  142.5090 C   0  0  0  0  0  2  0  0  0  0  0  0
  192.6560  175.8880  144.7650 C   0  0  0  0  0  2  0  0  0  0  0  0
  194.2750  175.7170  146.7480 C   0  0  0  0  0  2  0  0  0  0  0  0
  194.8210  174.8800  144.5030 O   0  0  0  0  0  0  0  0  0  0  0  0
  195.3560  175.4150  145.6920 C   0  0  2  0  0  3  0  0  0  0  0  0
  193.9770  175.8740  143.9910 C   0  0  1  0  0  3  0  0  0  0  0  0
  196.3760  174.4620  146.2710 C   0  0  0  0  0  1  0  0  0  0  0  0
  192.8550  175.4550  146.2280 C   0  0  1  0  0  3  0  0  0  0  0  0
  191.8520  176.1130  147.1170 C   0  0  0  0  0  0  0  0  0  0  0  0
  190.4760  175.7320  147.0530 N   0  0  0  0  0  2  0  0  0  0  0  0
  192.2200  177.0370  147.8930 O   0  0  0  0  0  0  0  0  0  0  0  0
  189.5120  176.4170  147.7140 O   0  0  0  0  0  0  0  0  0  0  0  0
  189.2390  177.5220  146.9040 C   0  0  0  0  0  2  0  0  0  0  0  0
  187.8790  177.3630  146.2270 C   0  0  0  0  0  2  0  0  0  0  0  0
  186.6690  178.4310  148.1760 C   0  0  0  0  0  1  0  0  0  0  0  0
  186.7160  177.2560  147.2160 C   0  0  1  0  0  3  0  0  0  0  0  0
  185.1150  177.0470  146.3780 S   0  0  0  0  0  0  0  0  0  0  0  0
  185.1280  178.7490  145.7530 C   0  0  1  0  0  3  0  0  0  0  0  0
  186.3130  178.9760  145.0770 F   0  0  0  0  0  0  0  0  0  0  0  0
  183.9650  178.9660  144.8020 C   0  0  0  0  0  2  0  0  0  0  0  0
  184.9240  176.9430  142.8610 O   0  0  0  0  0  0  0  0  0  0  0  0
  184.4140  178.3910  143.0890 P   0  0  0  0  0  0  0  0  0  0  0  0
  2  6  1  0  0  0  0
  3  4  1  0  0  0  0
  4  1  1  0  0  0  0
  4  2  1  0  0  0  0
  5 20  1  1  0  0  0
  5  8  1  0  0  0  0
  6 16  1  0  0  0  0
  7  5  1  0  0  0  0
  7  3  1  0  0  0  0
  8 40  1  1  0  0  0
  8  1  1  0  0  0  0
  9  2  2  0  0  0  0
 10 12  1  6  0  0  0
 11 10  1  0  0  0  0
 11 19  1  0  0  0  0
 14 18  1  0  0  0  0
 14 17  1  0  0  0  0
 15 12  1  0  0  0  0
 16 11  1  0  0  0  0
 16 19  1  0  0  0  0
 17 11  1  0  0  0  0
 17 10  1  0  0  0  0
 18 15  1  0  0  0  0
 19 13  1  0  0  0  0
 20 21  1  0  0  0  0
 23 21  1  0  0  0  0
 24 27  1  0  0  0  0
 24 25  1  0  0  0  0
 25 23  1  0  0  0  0
 26 34  1  0  0  0  0
 26 23  1  0  0  0  0
 27 22  1  0  0  0  0
 27 26  1  0  0  0  0
 28 27  1  0  0  0  0
 29 30  1  0  0  0  0
 29 24  1  0  0  0  0
 31 30  1  0  0  0  0
 33 31  1  0  0  0  0
 33 32  1  0  0  0  0
 34 35  1  0  0  0  0
 35 36  1  0  0  0  0
 36 37  1  0  0  0  0
 37 38  1  0  0  0  0
 39 38  1  0  0  0  0
 40 43  1  0  0  0  0
 41 42  1  0  0  0  0
 42 48  1  0  0  0  0
 42 46  2  0  0  0  0
 43 41  2  0  0  0  0
 43 45  1  0  0  0  0
 44 46  1  0  0  0  0
 45 44  2  0  0  0  0
 47 49  1  0  0  0  0
 47 48  2  0  0  0  0
 49 54  1  0  0  0  0
 50 56  1  0  0  0  0
 52 53  1  0  0  0  0
 53 55  1  0  0  0  0
 53 51  1  0  0  0  0
 54 52  1  0  0  0  0
 54 50  1  0  0  0  0
 56 51  1  0  0  0  0
 56 57  1  0  0  0  0
 57 59  2  0  0  0  0
 58 57  1  0  0  0  0
 58 60  1  0  0  0  0
 61 60  1  0  0  0  0
 62 61  1  0  0  0  0
 62 64  1  0  0  0  0
 64 63  1  0  0  0  0
 65 64  1  0  0  0  0
 66 65  1  0  0  0  0
 67 66  1  0  0  0  0
 68 66  1  0  0  0  0
 69 70  2  0  0  0  0
 70 68  1  0  0  0  0
M  END
>  <MODEL>
6

>  <REMARK>
 VINA RESULT:      -3.9      3.433      9.880
  Name = 
  27 active torsions:
  status: ('A' for Active; 'I' for Inactive)
    1  A    between atoms: C_5  and  N_32
    2  A    between atoms: C_5  and  O_36
    3  A    between atoms: C_9  and  C_16
    4  A    between atoms: C_10  and  C_11
    5  A    between atoms: C_10  and  S_64
    6  A    between atoms: C_11  and  P_55
    7  A    between atoms: C_14  and  C_23
    8  A    between atoms: C_15  and  C_23
    9  A    between atoms: C_15  and  C_57
   10  A    between atoms: C_16  and  O_36
   11  A    between atoms: C_18  and  C_19
   12  A    between atoms: C_19  and  C_41
   13  A    between atoms: C_20  and  C_65
   14  A    between atoms: N_25  and  O_62
   15  A    between atoms: C_29  and  C_63
   16  A    between atoms: C_30  and  N_31
   17  A    between atoms: N_31  and  C_54
   18  A    between atoms: O_33  and  C_39
   19  A    between atoms: O_33  and  C_58
   20  A    between atoms: C_42  and  C_43
   21  A    between atoms: C_42  and  C_57
   22  A    between atoms: C_45  and  C_54
   23  A    between atoms: N_46  and  C_56
   24  A    between atoms: C_52  and  C_60
   25  A    between atoms: C_52  and  C_61
   26  A    between atoms: C_60  and  S_64
   27  A    between atoms: C_61  and  O_62
                            x       y       z     vdW  Elec       q    Type
                         _______ _______ _______ _____ _____    ______ ____

>  <TORSDO>
F 27

$$$$
=
 OpenBabel11042419393D

 70 76  0  0  1  0  0  0  0  0999 V2000
  191.8820  176.3620  144.5340 C   0  0  0  0  0  2  0  0  0  0  0  0
  193.7710  176.0290  142.9230 C   0  0  0  0  0  0  0  0  0  0  0  0
  192.3170  178.0610  142.6890 C   0  0  0  0  0  2  0  0  0  0  0  0
  192.6290  176.7880  143.3470 N   0  0  0  0  0  0  0  0  0  0  0  0
  190.2030  178.2360  144.1140 C   0  0  2  0  0  3  0  0  0  0  0  0
  194.1780  174.8770  143.6650 N   0  0  0  0  0  2  0  0  0  0  0  0
  190.8090  178.3060  142.7020 C   0  0  0  0  0  2  0  0  0  0  0  0
  191.1210  177.5370  145.1400 C   0  0  1  0  0  3  0  0  0  0  0  0
  194.4260  176.3870  141.9060 O   0  0  0  0  0  0  0  0  0  0  0  0
  196.8290  172.2380  144.7260 C   0  0  1  0  0  3  0  0  0  0  0  0
  195.6530  173.0980  144.4530 C   0  0  2  0  0  0  0  0  0  0  0  0
  196.6080  171.4190  146.0070 C   0  0  0  0  0  2  0  0  0  0  0  0
  196.2050  175.3020  145.2250 O   0  0  0  0  0  1  0  0  0  0  0  0
  194.9040  170.9030  143.9880 C   0  0  0  0  0  2  0  0  0  0  0  0
  196.5430  169.9320  145.6680 C   0  0  0  0  0  2  0  0  0  0  0  0
  195.3680  174.1030  143.3210 C   0  0  2  0  0  3  0  0  0  0  0  0
  195.9310  171.8870  143.6270 N   0  0  2  0  0  0  0  0  0  0  0  0
  195.5380  169.6320  144.5510 C   0  0  0  0  0  2  0  0  0  0  0  0
  196.5070  174.3620  144.2330 C   0  0  2  0  0  3  0  0  0  0  0  0
  188.8320  177.5830  144.0340 C   0  0  0  0  0  2  0  0  0  0  0  0
  188.8350  176.5600  143.0020 N   0  0  0  0  0  2  0  0  0  0  0  0
  184.8600  177.2720  141.0860 O   0  0  0  0  0  1  0  0  0  0  0  0
  187.4600  176.3790  142.5730 C   0  0  2  0  0  3  0  0  0  0  0  0
  187.0480  176.8730  140.2550 N   0  0  0  0  0  0  0  0  0  0  0  0
  187.4430  175.8020  141.1640 C   0  0  0  0  0  2  0  0  0  0  0  0
  186.7890  177.7320  142.4520 C   0  0  1  0  0  3  0  0  0  0  0  0
  186.1810  177.7440  141.0570 C   0  0  0  0  0  0  0  0  0  0  0  0
  186.2050  179.0410  140.5450 O   0  0  0  0  0  1  0  0  0  0  0  0
  186.3480  176.2790  139.1200 C   0  0  0  0  0  2  0  0  0  0  0  0
  186.6960  176.9600  137.9500 O   0  0  0  0  0  0  0  0  0  0  0  0
  187.1350  175.9590  137.0810 C   0  0  0  0  0  2  0  0  0  0  0  0
  188.0160  177.5560  135.5400 O   0  0  0  0  0  1  0  0  0  0  0  0
  187.1330  176.4800  135.6520 C   0  0  0  0  0  2  0  0  0  0  0  0
  185.7760  177.9710  143.5710 C   0  0  0  0  0  2  0  0  0  0  0  0
  185.5050  179.4580  143.7660 C   0  0  0  0  0  2  0  0  0  0  0  0
  185.2970  179.7760  145.2400 C   0  0  0  0  0  2  0  0  0  0  0  0
  184.7640  178.5660  145.9880 C   0  0  0  0  0  2  0  0  0  0  0  0
  185.6160  178.3070  147.2190 C   0  0  0  0  0  2  0  0  0  0  0  0
  185.9410  176.8300  147.3090 C   0  0  0  0  0  1  0  0  0  0  0  0
  190.4090  177.1210  146.3020 O   0  0  0  0  0  0  0  0  0  0  0  0
  190.2190  174.8590  145.5000 C   0  0  0  0  0  3  0  0  0  0  0  0
  189.7460  173.5500  145.6320 C   0  0  0  0  0  0  0  0  0  0  0  0
  189.9140  175.8240  146.4660 C   0  0  0  0  0  0  0  0  0  0  0  0
  188.6570  174.1620  147.7140 C   0  0  0  0  0  3  0  0  0  0  0  0
  189.1310  175.4700  147.5760 C   0  0  0  0  0  3  0  0  0  0  0  0
  188.9600  173.2050  146.7440 C   0  0  0  0  0  3  0  0  0  0  0  0
  190.6250  172.9220  143.4380 C   0  0  0  0  0  3  0  0  0  0  0  0
  190.0960  172.5640  144.6000 C   0  0  0  0  0  3  0  0  0  0  0  0
  190.9550  171.9020  142.4060 C   0  0  0  0  0  2  0  0  0  0  0  0
  192.3890  173.0000  140.6620 C   0  0  0  0  0  2  0  0  0  0  0  0
  191.2540  173.3050  138.3810 C   0  0  0  0  0  2  0  0  0  0  0  0
  190.4550  171.7050  140.0650 O   0  0  0  0  0  0  0  0  0  0  0  0
  190.0690  172.5360  138.9950 C   0  0  2  0  0  3  0  0  0  0  0  0
  190.9710  172.5650  141.0430 C   0  0  1  0  0  3  0  0  0  0  0  0
  189.3890  171.7150  137.9250 C   0  0  0  0  0  1  0  0  0  0  0  0
  192.5690  173.0610  139.1350 C   0  0  1  0  0  3  0  0  0  0  0  0
  193.5770  174.0980  138.7600 C   0  0  0  0  0  0  0  0  0  0  0  0
  194.8020  174.2040  139.4890 N   0  0  0  0  0  2  0  0  0  0  0  0
  193.3210  174.9050  137.8260 O   0  0  0  0  0  0  0  0  0  0  0  0
  195.6630  175.2320  139.2960 O   0  0  0  0  0  0  0  0  0  0  0  0
  196.7560  174.6640  138.6360 C   0  0  0  0  0  2  0  0  0  0  0  0
  196.6310  173.1410  138.6150 C   0  0  0  0  0  2  0  0  0  0  0  0
  197.7880  173.4820  136.3900 C   0  0  0  0  0  1  0  0  0  0  0  0
  197.0120  172.5180  137.2700 C   0  0  1  0  0  3  0  0  0  0  0  0
  197.9190  170.9540  137.4660 S   0  0  0  0  0  0  0  0  0  0  0  0
  196.5060  169.9680  136.9010 C   0  0  1  0  0  3  0  0  0  0  0  0
  196.8350  169.3400  135.7140 F   0  0  0  0  0  0  0  0  0  0  0  0
  196.1530  168.9180  137.9380 C   0  0  0  0  0  2  0  0  0  0  0  0
  195.2590  169.5640  140.6890 O   0  0  0  0  0  0  0  0  0  0  0  0
  194.9390  169.6070  139.1700 P   0  0  0  0  0  0  0  0  0  0  0  0
  1  8  1  0  0  0  0
  2  4  1  0  0  0  0
  2  6  1  0  0  0  0
  3  7  1  0  0  0  0
  3  4  1  0  0  0  0
  4  1  1  0  0  0  0
  5 20  1  6  0  0  0
  5  8  1  0  0  0  0
  7  5  1  0  0  0  0
  8 40  1  1  0  0  0
  9  2  2  0  0  0  0
 10 12  1  1  0  0  0
 11 10  1  0  0  0  0
 14 18  1  0  0  0  0
 15 12  1  0  0  0  0
 16  6  1  0  0  0  0
 16 19  1  0  0  0  0
 16 11  1  0  0  0  0
 17 14  1  0  0  0  0
 17 11  1  0  0  0  0
 17 10  1  0  0  0  0
 18 15  1  0  0  0  0
 19 11  1  0  0  0  0
 19 13  1  0  0  0  0
 21 20  1  0  0  0  0
 23 21  1  0  0  0  0
 24 27  1  0  0  0  0
 24 25  1  0  0  0  0
 25 23  1  0  0  0  0
 26 23  1  0  0  0  0
 26 34  1  0  0  0  0
 27 22  1  0  0  0  0
 27 26  1  0  0  0  0
 28 27  1  0  0  0  0
 29 24  1  0  0  0  0
 30 29  1  0  0  0  0
 31 30  1  0  0  0  0
 32 33  1  0  0  0  0
 33 31  1  0  0  0  0
 34 35  1  0  0  0  0
 35 36  1  0  0  0  0
 36 37  1  0  0  0  0
 37 38  1  0  0  0  0
 38 39  1  0  0  0  0
 40 43  1  0  0  0  0
 41 42  2  0  0  0  0
 41 43  1  0  0  0  0
 42 46  1  0  0  0  0
 43 45  2  0  0  0  0
 45 44  1  0  0  0  0
 46 44  2  0  0  0  0
 47 48  2  0  0  0  0
 48 42  1  0  0  0  0
 49 47  1  0  0  0  0
 50 54  1  0  0  0  0
 51 53  1  0  0  0  0
 51 56  1  0  0  0  0
 52 54  1  0  0  0  0
 53 52  1  0  0  0  0
 54 49  1  0  0  0  0
 55 53  1  0  0  0  0
 56 50  1  0  0  0  0
 57 56  1  0  0  0  0
 57 58  1  0  0  0  0
 59 57  2  0  0  0  0
 60 58  1  0  0  0  0
 61 60  1  0  0  0  0
 62 61  1  0  0  0  0
 63 64  1  0  0  0  0
 64 65  1  0  0  0  0
 64 62  1  0  0  0  0
 66 65  1  0  0  0  0
 66 68  1  0  0  0  0
 67 66  1  0  0  0  0
 68 70  1  0  0  0  0
 70 69  2  0  0  0  0
M  END
>  <MODEL>
7

>  <REMARK>
 VINA RESULT:      -3.7      2.368      3.356
  Name = 
  27 active torsions:
  status: ('A' for Active; 'I' for Inactive)
    1  A    between atoms: C_5  and  N_32
    2  A    between atoms: C_5  and  O_36
    3  A    between atoms: C_9  and  C_16
    4  A    between atoms: C_10  and  C_11
    5  A    between atoms: C_10  and  S_64
    6  A    between atoms: C_11  and  P_55
    7  A    between atoms: C_14  and  C_23
    8  A    between atoms: C_15  and  C_23
    9  A    between atoms: C_15  and  C_57
   10  A    between atoms: C_16  and  O_36
   11  A    between atoms: C_18  and  C_19
   12  A    between atoms: C_19  and  C_41
   13  A    between atoms: C_20  and  C_65
   14  A    between atoms: N_25  and  O_62
   15  A    between atoms: C_29  and  C_63
   16  A    between atoms: C_30  and  N_31
   17  A    between atoms: N_31  and  C_54
   18  A    between atoms: O_33  and  C_39
   19  A    between atoms: O_33  and  C_58
   20  A    between atoms: C_42  and  C_43
   21  A    between atoms: C_42  and  C_57
   22  A    between atoms: C_45  and  C_54
   23  A    between atoms: N_46  and  C_56
   24  A    between atoms: C_52  and  C_60
   25  A    between atoms: C_52  and  C_61
   26  A    between atoms: C_60  and  S_64
   27  A    between atoms: C_61  and  O_62
                            x       y       z     vdW  Elec       q    Type
                         _______ _______ _______ _____ _____    ______ ____

>  <TORSDO>
F 27

$$$$
=
 OpenBabel11042419393D

 70 76  0  0  1  0  0  0  0  0999 V2000
  190.5740  174.8420  141.7510 C   0  0  0  0  0  2  0  0  0  0  0  0
  192.6120  174.3260  143.1150 C   0  0  0  0  0  0  0  0  0  0  0  0
  190.8210  175.7780  144.1060 C   0  0  0  0  0  2  0  0  0  0  0  0
  191.3650  175.0230  142.9730 N   0  0  0  0  0  0  0  0  0  0  0  0
  188.9070  176.5720  142.6100 C   0  0  2  0  0  3  0  0  0  0  0  0
  193.0650  173.4550  142.0760 N   0  0  0  0  0  2  0  0  0  0  0  0
  190.0100  176.9720  143.6030 C   0  0  0  0  0  2  0  0  0  0  0  0
  189.1060  175.1620  142.0100 C   0  0  1  0  0  3  0  0  0  0  0  0
  193.3000  174.4680  144.1620 O   0  0  0  0  0  0  0  0  0  0  0  0
  196.7060  173.1800  143.4150 C   0  0  1  0  0  3  0  0  0  0  0  0
  195.2690  173.4060  143.1260 C   0  0  2  0  0  0  0  0  0  0  0  0
  197.2170  174.2160  144.4280 C   0  0  0  0  0  2  0  0  0  0  0  0
  195.1530  174.5940  141.0440 O   0  0  0  0  0  1  0  0  0  0  0  0
  195.3040  172.5520  145.3310 C   0  0  0  0  0  2  0  0  0  0  0  0
  197.6200  173.5180  145.7250 C   0  0  0  0  0  2  0  0  0  0  0  0
  194.2910  172.6700  142.1910 C   0  0  2  0  0  3  0  0  0  0  0  0
  195.7160  172.2500  143.9550 N   0  0  2  0  0  0  0  0  0  0  0  0
  196.5120  172.6080  146.2650 C   0  0  0  0  0  2  0  0  0  0  0  0
  195.4680  173.3480  141.5990 C   0  0  2  0  0  3  0  0  0  0  0  0
  188.7970  177.6410  141.5340 C   0  0  0  0  0  2  0  0  0  0  0  0
  187.8190  178.6390  141.9340 N   0  0  0  0  0  2  0  0  0  0  0  0
  184.0520  177.8220  144.1990 O   0  0  0  0  0  1  0  0  0  0  0  0
  186.7730  177.9460  142.6660 C   0  0  2  0  0  3  0  0  0  0  0  0
  184.5320  178.4600  141.9620 N   0  0  0  0  0  0  0  0  0  0  0  0
  185.6550  177.5650  141.7070 C   0  0  0  0  0  2  0  0  0  0  0  0
  186.1360  178.9000  143.6550 C   0  0  1  0  0  3  0  0  0  0  0  0
  184.6410  178.8020  143.3860 C   0  0  0  0  0  0  0  0  0  0  0  0
  184.0380  180.0360  143.6270 O   0  0  0  0  0  1  0  0  0  0  0  0
  183.2950  177.7500  141.6520 C   0  0  0  0  0  2  0  0  0  0  0  0
  182.5950  178.4450  140.6620 O   0  0  0  0  0  0  0  0  0  0  0  0
  181.4340  178.8890  141.3020 C   0  0  0  0  0  2  0  0  0  0  0  0
  179.0990  179.1690  140.8880 O   0  0  0  0  0  1  0  0  0  0  0  0
  180.2100  178.3960  140.5450 C   0  0  0  0  0  2  0  0  0  0  0  0
  186.5270  178.5780  145.0970 C   0  0  0  0  0  2  0  0  0  0  0  0
  186.5570  177.0750  145.3410 C   0  0  0  0  0  2  0  0  0  0  0  0
  186.1280  176.7550  146.7670 C   0  0  0  0  0  2  0  0  0  0  0  0
  185.4950  177.9670  147.4290 C   0  0  0  0  0  2  0  0  0  0  0  0
  186.2360  178.2970  148.7130 C   0  0  0  0  0  2  0  0  0  0  0  0
  187.1700  179.4660  148.4740 C   0  0  0  0  0  1  0  0  0  0  0  0
  188.3390  174.9700  140.8240 O   0  0  0  0  0  0  0  0  0  0  0  0
  189.5010  174.2610  138.8390 C   0  0  0  0  0  3  0  0  0  0  0  0
  189.8150  173.2860  137.8870 C   0  0  0  0  0  0  0  0  0  0  0  0
  188.6240  173.9720  139.8890 C   0  0  0  0  0  0  0  0  0  0  0  0
  188.3710  171.7100  139.0390 C   0  0  0  0  0  3  0  0  0  0  0  0
  188.0600  172.6900  139.9870 C   0  0  0  0  0  3  0  0  0  0  0  0
  189.2420  172.0070  137.9900 C   0  0  0  0  0  3  0  0  0  0  0  0
  190.6940  173.0380  135.6190 C   0  0  0  0  0  3  0  0  0  0  0  0
  190.7470  173.6290  136.8040 C   0  0  0  0  0  3  0  0  0  0  0  0
  191.6610  173.3960  134.5460 C   0  0  0  0  0  2  0  0  0  0  0  0
  193.9830  172.4400  134.5140 C   0  0  0  0  0  2  0  0  0  0  0  0
  195.7390  173.8560  135.7370 C   0  0  0  0  0  2  0  0  0  0  0  0
  193.5880  174.7650  134.9760 O   0  0  0  0  0  0  0  0  0  0  0  0
  194.6060  174.8780  135.9430 C   0  0  2  0  0  3  0  0  0  0  0  0
  193.0520  173.4810  135.1430 C   0  0  1  0  0  3  0  0  0  0  0  0
  195.1770  176.2770  135.9260 C   0  0  0  0  0  1  0  0  0  0  0  0
  195.4540  172.8860  134.5820 C   0  0  1  0  0  3  0  0  0  0  0  0
  196.3630  171.7040  134.6670 C   0  0  0  0  0  0  0  0  0  0  0  0
  195.8280  170.4040  134.9310 N   0  0  0  0  0  2  0  0  0  0  0  0
  197.6080  171.8660  134.5490 O   0  0  0  0  0  0  0  0  0  0  0  0
  196.6260  169.3400  135.1850 O   0  0  0  0  0  0  0  0  0  0  0  0
  196.3190  168.9660  136.4960 C   0  0  0  0  0  2  0  0  0  0  0  0
  197.2840  169.6290  137.4780 C   0  0  0  0  0  2  0  0  0  0  0  0
  197.6640  170.4800  139.8310 C   0  0  0  0  0  1  0  0  0  0  0  0
  196.6520  169.9330  138.8390 C   0  0  1  0  0  3  0  0  0  0  0  0
  195.2210  171.0470  138.7010 S   0  0  0  0  0  0  0  0  0  0  0  0
  194.0680  169.7690  139.2720 C   0  0  1  0  0  3  0  0  0  0  0  0
  194.2020  169.6150  140.6400 F   0  0  0  0  0  0  0  0  0  0  0  0
  192.6400  170.1730  138.9540 C   0  0  0  0  0  2  0  0  0  0  0  0
  190.0910  168.6740  139.1450 O   0  0  0  0  0  0  0  0  0  0  0  0
  191.4400  169.0430  139.8190 P   0  0  0  0  0  0  0  0  0  0  0  0
  1  8  1  0  0  0  0
  1  4  1  0  0  0  0
  2  9  2  0  0  0  0
  4  2  1  0  0  0  0
  4  3  1  0  0  0  0
  5 20  1  6  0  0  0
  5  7  1  0  0  0  0
  6 16  1  0  0  0  0
  6  2  1  0  0  0  0
  7  3  1  0  0  0  0
  8 40  1  6  0  0  0
  8  5  1  0  0  0  0
 10 17  1  0  0  0  0
 10 12  1  1  0  0  0
 11 10  1  0  0  0  0
 11 17  1  0  0  0  0
 12 15  1  0  0  0  0
 13 19  1  0  0  0  0
 14 18  1  0  0  0  0
 15 18  1  0  0  0  0
 16 11  1  0  0  0  0
 17 14  1  0  0  0  0
 19 16  1  0  0  0  0
 19 11  1  0  0  0  0
 20 21  1  0  0  0  0
 21 23  1  0  0  0  0
 23 26  1  0  0  0  0
 24 27  1  0  0  0  0
 25 24  1  0  0  0  0
 25 23  1  0  0  0  0
 26 34  1  0  0  0  0
 27 28  1  0  0  0  0
 27 26  1  0  0  0  0
 27 22  1  0  0  0  0
 29 24  1  0  0  0  0
 30 31  1  0  0  0  0
 30 29  1  0  0  0  0
 33 32  1  0  0  0  0
 33 31  1  0  0  0  0
 34 35  1  0  0  0  0
 35 36  1  0  0  0  0
 36 37  1  0  0  0  0
 37 38  1  0  0  0  0
 39 38  1  0  0  0  0
 41 43  1  0  0  0  0
 42 46  1  0  0  0  0
 42 41  2  0  0  0  0
 43 45  2  0  0  0  0
 43 40  1  0  0  0  0
 44 45  1  0  0  0  0
 46 44  2  0  0  0  0
 47 48  2  0  0  0  0
 48 42  1  0  0  0  0
 49 54  1  0  0  0  0
 49 47  1  0  0  0  0
 50 56  1  0  0  0  0
 50 54  1  0  0  0  0
 51 53  1  0  0  0  0
 52 54  1  0  0  0  0
 52 53  1  0  0  0  0
 55 53  1  0  0  0  0
 56 57  1  0  0  0  0
 56 51  1  0  0  0  0
 57 58  1  0  0  0  0
 58 60  1  0  0  0  0
 59 57  2  0  0  0  0
 60 61  1  0  0  0  0
 61 62  1  0  0  0  0
 62 64  1  0  0  0  0
 64 63  1  0  0  0  0
 65 64  1  0  0  0  0
 65 66  1  0  0  0  0
 66 67  1  0  0  0  0
 68 66  1  0  0  0  0
 68 70  1  0  0  0  0
 69 70  2  0  0  0  0
M  END
>  <MODEL>
8

>  <REMARK>
 VINA RESULT:      -3.7      3.008      5.691
  Name = 
  27 active torsions:
  status: ('A' for Active; 'I' for Inactive)
    1  A    between atoms: C_5  and  N_32
    2  A    between atoms: C_5  and  O_36
    3  A    between atoms: C_9  and  C_16
    4  A    between atoms: C_10  and  C_11
    5  A    between atoms: C_10  and  S_64
    6  A    between atoms: C_11  and  P_55
    7  A    between atoms: C_14  and  C_23
    8  A    between atoms: C_15  and  C_23
    9  A    between atoms: C_15  and  C_57
   10  A    between atoms: C_16  and  O_36
   11  A    between atoms: C_18  and  C_19
   12  A    between atoms: C_19  and  C_41
   13  A    between atoms: C_20  and  C_65
   14  A    between atoms: N_25  and  O_62
   15  A    between atoms: C_29  and  C_63
   16  A    between atoms: C_30  and  N_31
   17  A    between atoms: N_31  and  C_54
   18  A    between atoms: O_33  and  C_39
   19  A    between atoms: O_33  and  C_58
   20  A    between atoms: C_42  and  C_43
   21  A    between atoms: C_42  and  C_57
   22  A    between atoms: C_45  and  C_54
   23  A    between atoms: N_46  and  C_56
   24  A    between atoms: C_52  and  C_60
   25  A    between atoms: C_52  and  C_61
   26  A    between atoms: C_60  and  S_64
   27  A    between atoms: C_61  and  O_62
                            x       y       z     vdW  Elec       q    Type
                         _______ _______ _______ _____ _____    ______ ____

>  <TORSDO>
F 27

$$$$
=
 OpenBabel11042419393D

 70 76  0  0  1  0  0  0  0  0999 V2000
  192.4280  170.9720  139.5980 C   0  0  0  0  0  2  0  0  0  0  0  0
  192.5570  170.5340  137.1350 C   0  0  0  0  0  0  0  0  0  0  0  0
  192.6220  168.5890  138.7200 C   0  0  0  0  0  2  0  0  0  0  0  0
  192.5880  170.0360  138.4800 N   0  0  0  0  0  0  0  0  0  0  0  0
  192.8210  169.0470  141.2260 C   0  0  2  0  0  3  0  0  0  0  0  0
  192.3560  171.9290  136.8940 N   0  0  0  0  0  2  0  0  0  0  0  0
  193.3790  168.2870  140.0120 C   0  0  0  0  0  2  0  0  0  0  0  0
  191.9230  170.2430  140.8390 C   0  0  1  0  0  3  0  0  0  0  0  0
  192.6890  169.7410  136.1640 O   0  0  0  0  0  0  0  0  0  0  0  0
  191.2600  174.8780  134.6100 C   0  0  1  0  0  3  0  0  0  0  0  0
  191.7470  173.9370  135.6470 C   0  0  2  0  0  0  0  0  0  0  0  0
  190.8640  176.2180  135.2460 C   0  0  0  0  0  2  0  0  0  0  0  0
  189.9270  172.4570  136.1560 O   0  0  0  0  0  1  0  0  0  0  0  0
  193.4630  175.5540  135.4600 C   0  0  0  0  0  2  0  0  0  0  0  0
  191.7880  177.3260  134.7460 C   0  0  0  0  0  2  0  0  0  0  0  0
  192.2490  172.4840  135.5480 C   0  0  2  0  0  3  0  0  0  0  0  0
  192.6890  174.5780  134.6840 N   0  0  2  0  0  0  0  0  0  0  0  0
  193.2690  176.9670  134.9120 C   0  0  0  0  0  2  0  0  0  0  0  0
  190.8520  172.7830  135.1560 C   0  0  2  0  0  3  0  0  0  0  0  0
  193.9760  169.4650  142.1230 C   0  0  0  0  0  2  0  0  0  0  0  0
  194.8870  170.3220  141.3830 N   0  0  0  0  0  2  0  0  0  0  0  0
  197.7510  171.1660  144.7110 O   0  0  0  0  0  1  0  0  0  0  0  0
  196.1130  170.4140  142.1570 C   0  0  2  0  0  3  0  0  0  0  0  0
  195.9320  169.6640  144.4350 N   0  0  0  0  0  0  0  0  0  0  0  0
  196.2190  169.2080  143.0790 C   0  0  0  0  0  2  0  0  0  0  0  0
  196.0340  171.6120  143.0820 C   0  0  1  0  0  3  0  0  0  0  0  0
  196.3740  171.0640  144.4610 C   0  0  0  0  0  0  0  0  0  0  0  0
  195.6670  171.7690  145.4340 O   0  0  0  0  0  1  0  0  0  0  0  0
  196.6760  168.8260  145.3710 C   0  0  0  0  0  2  0  0  0  0  0  0
  195.7810  168.1660  146.2170 O   0  0  0  0  0  0  0  0  0  0  0  0
  196.4070  168.1790  147.4660 C   0  0  0  0  0  2  0  0  0  0  0  0
  194.1570  168.7930  147.9780 O   0  0  0  0  0  1  0  0  0  0  0  0
  195.3780  168.4400  148.5550 C   0  0  0  0  0  2  0  0  0  0  0  0
  196.9450  172.7500  142.6260 C   0  0  0  0  0  2  0  0  0  0  0  0
  197.3000  172.6200  141.1500 C   0  0  0  0  0  2  0  0  0  0  0  0
  197.6890  173.9740  140.5720 C   0  0  0  0  0  2  0  0  0  0  0  0
  196.5340  174.9560  140.6630 C   0  0  0  0  0  2  0  0  0  0  0  0
  196.9430  176.1530  141.5060 C   0  0  0  0  0  2  0  0  0  0  0  0
  195.8410  176.4770  142.4940 C   0  0  0  0  0  1  0  0  0  0  0  0
  191.7550  171.1590  141.9190 O   0  0  0  0  0  0  0  0  0  0  0  0
  191.8590  173.3430  142.9260 C   0  0  0  0  0  3  0  0  0  0  0  0
  192.1240  174.7140  142.8520 C   0  0  0  0  0  0  0  0  0  0  0  0
  192.0250  172.5250  141.8040 C   0  0  0  0  0  0  0  0  0  0  0  0
  192.7360  174.4580  140.5150 C   0  0  0  0  0  3  0  0  0  0  0  0
  192.4670  173.0890  140.5960 C   0  0  0  0  0  3  0  0  0  0  0  0
  192.5620  175.2700  141.6370 C   0  0  0  0  0  3  0  0  0  0  0  0
  190.7470  175.7770  144.5690 C   0  0  0  0  0  3  0  0  0  0  0  0
  191.9450  175.5360  144.0560 C   0  0  0  0  0  3  0  0  0  0  0  0
  190.5950  176.6260  145.7820 C   0  0  0  0  0  2  0  0  0  0  0  0
  188.5950  177.1570  144.3610 C   0  0  0  0  0  2  0  0  0  0  0  0
  186.5680  178.0500  145.6560 C   0  0  0  0  0  2  0  0  0  0  0  0
  188.3950  176.8060  146.7290 O   0  0  0  0  0  0  0  0  0  0  0  0
  187.4070  177.7920  146.9220 C   0  0  2  0  0  3  0  0  0  0  0  0
  189.2450  177.3140  145.7380 C   0  0  1  0  0  3  0  0  0  0  0  0
  186.4970  177.3920  148.0600 C   0  0  0  0  0  1  0  0  0  0  0  0
  187.0610  177.2420  144.4480 C   0  0  1  0  0  3  0  0  0  0  0  0
  186.4870  177.8000  143.1880 C   0  0  0  0  0  0  0  0  0  0  0  0
  186.5100  177.0270  141.9850 N   0  0  0  0  0  2  0  0  0  0  0  0
  186.0230  178.9720  143.1800 O   0  0  0  0  0  0  0  0  0  0  0  0
  186.1580  177.5550  140.7880 O   0  0  0  0  0  0  0  0  0  0  0  0
  187.3490  177.6150  140.0600 C   0  0  0  0  0  2  0  0  0  0  0  0
  187.0650  177.4860  138.5640 C   0  0  0  0  0  2  0  0  0  0  0  0
  185.1740  176.2630  137.4100 C   0  0  0  0  0  1  0  0  0  0  0  0
  186.4810  176.1270  138.1710 C   0  0  1  0  0  3  0  0  0  0  0  0
  187.6660  175.1110  137.2370 S   0  0  0  0  0  0  0  0  0  0  0  0
  187.6510  173.7980  138.4880 C   0  0  1  0  0  3  0  0  0  0  0  0
  187.8300  172.5760  137.8660 F   0  0  0  0  0  0  0  0  0  0  0  0
  188.7730  174.0160  139.4870 C   0  0  0  0  0  2  0  0  0  0  0  0
  188.3470  173.5440  142.3810 O   0  0  0  0  0  0  0  0  0  0  0  0
  188.5380  172.9190  140.9730 P   0  0  0  0  0  0  0  0  0  0  0  0
  1  8  1  0  0  0  0
  2  4  1  0  0  0  0
  3  7  1  0  0  0  0
  4  3  1  0  0  0  0
  4  1  1  0  0  0  0
  5 20  1  6  0  0  0
  6  2  1  0  0  0  0
  7  5  1  0  0  0  0
  8  5  1  0  0  0  0
  8 40  1  1  0  0  0
  9  2  2  0  0  0  0
 10 17  1  0  0  0  0
 10 12  1  1  0  0  0
 10 11  1  0  0  0  0
 15 18  1  0  0  0  0
 15 12  1  0  0  0  0
 16 11  1  0  0  0  0
 16  6  1  0  0  0  0
 17 14  1  0  0  0  0
 17 11  1  0  0  0  0
 18 14  1  0  0  0  0
 19 16  1  0  0  0  0
 19 11  1  0  0  0  0
 19 13  1  0  0  0  0
 21 20  1  0  0  0  0
 21 23  1  0  0  0  0
 23 25  1  0  0  0  0
 23 26  1  0  0  0  0
 24 27  1  0  0  0  0
 24 29  1  0  0  0  0
 25 24  1  0  0  0  0
 26 27  1  0  0  0  0
 27 22  1  0  0  0  0
 27 28  1  0  0  0  0
 29 30  1  0  0  0  0
 30 31  1  0  0  0  0
 31 33  1  0  0  0  0
 32 33  1  0  0  0  0
 34 26  1  0  0  0  0
 35 34  1  0  0  0  0
 36 37  1  0  0  0  0
 36 35  1  0  0  0  0
 37 38  1  0  0  0  0
 38 39  1  0  0  0  0
 42 41  1  0  0  0  0
 42 48  1  0  0  0  0
 43 40  1  0  0  0  0
 43 41  2  0  0  0  0
 44 45  2  0  0  0  0
 44 46  1  0  0  0  0
 45 43  1  0  0  0  0
 46 42  2  0  0  0  0
 47 49  1  0  0  0  0
 48 47  2  0  0  0  0
 50 56  1  0  0  0  0
 50 54  1  0  0  0  0
 51 53  1  0  0  0  0
 52 53  1  0  0  0  0
 53 55  1  0  0  0  0
 54 49  1  0  0  0  0
 54 52  1  0  0  0  0
 56 51  1  0  0  0  0
 57 56  1  0  0  0  0
 58 57  1  0  0  0  0
 59 57  2  0  0  0  0
 60 58  1  0  0  0  0
 61 60  1  0  0  0  0
 62 61  1  0  0  0  0
 63 64  1  0  0  0  0
 64 62  1  0  0  0  0
 65 64  1  0  0  0  0
 65 66  1  0  0  0  0
 66 68  1  0  0  0  0
 67 66  1  0  0  0  0
 68 70  1  0  0  0  0
 70 69  2  0  0  0  0
M  END
>  <MODEL>
9

>  <REMARK>
 VINA RESULT:      -3.5      2.915      9.837
  Name = 
  27 active torsions:
  status: ('A' for Active; 'I' for Inactive)
    1  A    between atoms: C_5  and  N_32
    2  A    between atoms: C_5  and  O_36
    3  A    between atoms: C_9  and  C_16
    4  A    between atoms: C_10  and  C_11
    5  A    between atoms: C_10  and  S_64
    6  A    between atoms: C_11  and  P_55
    7  A    between atoms: C_14  and  C_23
    8  A    between atoms: C_15  and  C_23
    9  A    between atoms: C_15  and  C_57
   10  A    between atoms: C_16  and  O_36
   11  A    between atoms: C_18  and  C_19
   12  A    between atoms: C_19  and  C_41
   13  A    between atoms: C_20  and  C_65
   14  A    between atoms: N_25  and  O_62
   15  A    between atoms: C_29  and  C_63
   16  A    between atoms: C_30  and  N_31
   17  A    between atoms: N_31  and  C_54
   18  A    between atoms: O_33  and  C_39
   19  A    between atoms: O_33  and  C_58
   20  A    between atoms: C_42  and  C_43
   21  A    between atoms: C_42  and  C_57
   22  A    between atoms: C_45  and  C_54
   23  A    between atoms: N_46  and  C_56
   24  A    between atoms: C_52  and  C_60
   25  A    between atoms: C_52  and  C_61
   26  A    between atoms: C_60  and  S_64
   27  A    between atoms: C_61  and  O_62
                            x       y       z     vdW  Elec       q    Type
                         _______ _______ _______ _____ _____    ______ ____

>  <TORSDO>
F 27

$$$$
