=
 OpenBabel11042418153D

 53 58  0  0  1  0  0  0  0  0999 V2000
  188.5620  175.2110  145.6290 C   0  0  0  0  0  3  0  0  0  0  0  0
  190.2010  177.0140  147.1480 C   0  0  0  0  0  2  0  0  0  0  0  0
  190.8790  175.9030  146.3460 C   0  0  1  0  0  3  0  0  0  0  0  0
  189.8770  174.7490  146.1920 C   0  0  2  0  0  3  0  0  0  0  0  0
  188.9510  177.5420  146.4320 C   0  0  0  0  0  2  0  0  0  0  0  0
  188.1050  176.4580  145.7930 C   0  0  0  0  0  0  0  0  0  0  0  0
  186.6110  177.9090  144.5010 C   0  0  0  0  0  3  0  0  0  0  0  0
  186.8050  176.7940  145.1990 C   0  0  0  0  0  3  0  0  0  0  0  0
  185.3110  178.2190  143.9050 C   0  0  0  0  0  0  0  0  0  0  0  0
  185.0020  177.9540  142.6230 N   0  0  0  0  0  0  0  0  0  0  0  0
  184.3080  178.7700  144.5430 O   0  0  0  0  0  0  0  0  0  0  0  0
  183.7270  178.3970  142.5650 C   0  0  0  0  0  0  0  0  0  0  0  0
  183.2980  178.8970  143.7390 N   0  0  0  0  0  0  0  0  0  0  0  0
  182.8970  178.3180  141.3600 C   0  0  0  0  0  0  0  0  0  0  0  0
  183.4150  177.9770  140.2620 O   0  0  0  0  0  0  0  0  0  0  0  0
  181.5000  178.6250  141.4350 N   0  0  0  0  0  2  0  0  0  0  0  0
  180.6050  178.4630  140.2970 C   0  0  0  0  0  2  0  0  0  0  0  0
  179.3350  177.7340  140.7190 C   0  0  2  0  0  3  0  0  0  0  0  0
  178.5280  177.3530  139.4900 C   0  0  0  0  0  1  0  0  0  0  0  0
  178.3760  179.7360  141.5020 O   0  0  0  0  0  0  0  0  0  0  0  0
  178.5560  178.5500  141.7270 C   0  0  0  0  0  0  0  0  0  0  0  0
  178.3550  176.6360  143.1460 O   0  0  0  0  0  1  0  0  0  0  0  0
  177.9870  177.9740  142.9950 C   0  0  1  0  0  3  0  0  0  0  0  0
  178.4100  178.7520  144.1670 C   0  0  0  0  0  0  0  0  0  0  0  0
  178.7420  179.3660  145.0890 N   0  0  0  0  0  0  0  0  0  0  0  0
  191.3960  176.4140  144.9920 C   0  0  0  0  0  2  0  0  0  0  0  0
  193.7690  176.8340  145.4910 N   0  0  0  0  0  2  0  0  0  0  0  0
  195.1200  176.2990  145.3290 C   0  0  0  0  0  2  0  0  0  0  0  0
  192.8420  176.0130  144.7090 C   0  0  2  0  0  3  0  0  0  0  0  0
  194.6070  175.6410  142.9800 C   0  0  1  0  0  3  0  0  0  0  0  0
  195.5630  176.4260  143.8730 C   0  0  0  0  0  2  0  0  0  0  0  0
  193.1710  176.1020  143.2170 C   0  0  0  0  0  2  0  0  0  0  0  0
  194.9710  175.8400  141.5850 N   0  0  0  0  0  2  0  0  0  0  0  0
  195.8380  174.9540  140.8770 C   0  0  0  0  0  0  0  0  0  0  0  0
  196.3480  173.9550  141.4590 O   0  0  0  0  0  0  0  0  0  0  0  0
  195.2290  175.2190  138.5990 O   0  0  0  0  0  0  0  0  0  0  0  0
  196.1400  175.2200  139.4710 C   0  0  0  0  0  3  0  0  0  0  0  0
  190.4280  173.5800  145.3840 C   0  0  0  0  0  2  0  0  0  0  0  0
  192.6950  173.0680  140.8240 C   0  0  0  0  0  3  0  0  0  0  0  0
  190.1090  173.7480  143.9340 C   0  0  0  0  0  3  0  0  0  0  0  0
  190.8820  173.3230  142.9270 C   0  0  0  0  0  0  0  0  0  0  0  0
  190.4090  173.5610  141.5180 C   0  0  1  0  0  3  0  0  0  0  0  0
  192.9810  172.4860  142.1030 N   0  0  0  0  0  0  0  0  0  0  0  0
  191.5310  173.5950  140.5740 N   0  0  0  0  0  0  0  0  0  0  0  0
  192.1610  172.5900  143.1100 C   0  0  0  0  0  0  0  0  0  0  0  0
  188.5310  172.7720  139.9690 C   0  0  1  0  0  3  0  0  0  0  0  0
  189.4280  172.4570  141.1050 C   0  0  2  0  0  3  0  0  0  0  0  0
  188.0440  172.8980  141.3530 N   0  0  0  0  0  2  0  0  0  0  0  0
  188.6840  174.1630  139.3640 C   0  0  2  0  0  3  0  0  0  0  0  0
  187.9810  174.2260  138.0630 C   0  0  0  0  0  2  0  0  0  0  0  0
  189.3760  174.0530  138.1410 O   0  0  0  0  0  0  0  0  0  0  0  0
  192.4860  172.0110  144.3410 O   0  0  0  0  0  0  0  0  0  0  0  0
  193.7970  171.5530  144.6450 C   0  0  0  0  0  1  0  0  0  0  0  0
  1  6  2  0  0  0  0
  1  4  1  0  0  0  0
  3 26  1  6  0  0  0
  3  2  1  0  0  0  0
  4 38  1  6  0  0  0
  4  3  1  0  0  0  0
  5  2  1  0  0  0  0
  6  5  1  0  0  0  0
  7  8  2  0  0  0  0
  8  6  1  0  0  0  0
  9  7  1  0  0  0  0
  9 11  1  0  0  0  0
 10  9  2  0  0  0  0
 12 10  1  0  0  0  0
 12 13  2  0  0  0  0
 13 11  1  0  0  0  0
 14 16  1  0  0  0  0
 14 12  1  0  0  0  0
 15 14  2  0  0  0  0
 17 18  1  0  0  0  0
 17 16  1  0  0  0  0
 18 19  1  6  0  0  0
 18 21  1  0  0  0  0
 20 21  2  0  0  0  0
 21 23  1  0  0  0  0
 23 22  1  1  0  0  0
 23 24  1  0  0  0  0
 24 25  3  0  0  0  0
 28 27  1  0  0  0  0
 29 26  1  6  0  0  0
 29 27  1  0  0  0  0
 30 33  1  6  0  0  0
 30 32  1  0  0  0  0
 30 31  1  0  0  0  0
 31 28  1  0  0  0  0
 32 29  1  0  0  0  0
 34 35  2  0  0  0  0
 34 33  1  0  0  0  0
 36 37  2  0  0  0  0
 37 34  1  0  0  0  0
 39 43  1  0  0  0  0
 40 38  1  0  0  0  0
 41 45  1  0  0  0  0
 41 40  2  0  0  0  0
 42 44  1  6  0  0  0
 42 41  1  0  0  0  0
 43 45  2  0  0  0  0
 44 39  2  0  0  0  0
 45 52  1  0  0  0  0
 46 47  1  0  0  0  0
 46 48  1  1  0  0  0
 47 48  1  1  0  0  0
 47 42  1  0  0  0  0
 49 50  1  6  0  0  0
 49 46  1  0  0  0  0
 50 51  1  0  0  0  0
 51 49  1  0  0  0  0
 52 53  1  0  0  0  0
M  END
>  <MODEL>
1

>  <REMARK>
 VINA RESULT:      -7.6      0.000      0.000
  Name = 
  17 active torsions:
  status: ('A' for Active; 'I' for Inactive)
    1  A    between atoms: C_2  and  C_9
    2  A    between atoms: C_5  and  C_53
    3  A    between atoms: C_7  and  C_47
    4  A    between atoms: C_11  and  C_48
    5  A    between atoms: C_12  and  C_41
    6  A    between atoms: C_13  and  C_19
    7  A    between atoms: C_14  and  C_46
    8  A    between atoms: N_15  and  C_18
    9  A    between atoms: C_16  and  C_40
   10  A    between atoms: C_20  and  C_32
   11  A    between atoms: C_21  and  C_49
   12  A    between atoms: C_21  and  C_51
   13  A    between atoms: O_27  and  C_44
   14  A    between atoms: C_30  and  C_46
   15  A    between atoms: N_31  and  C_51
   16  A    between atoms: C_33  and  C_48
   17  A    between atoms: C_41  and  C_49
                            x       y       z     vdW  Elec       q    Type
                         _______ _______ _______ _____ _____    ______ ____

>  <TORSDO>
F 17

$$$$
=
 OpenBabel11042418153D

 53 58  0  0  1  0  0  0  0  0999 V2000
  191.3800  174.8260  145.2350 C   0  0  0  0  0  3  0  0  0  0  0  0
  193.7090  175.7630  146.6270 C   0  0  0  0  0  2  0  0  0  0  0  0
  193.8930  175.0250  145.3010 C   0  0  1  0  0  3  0  0  0  0  0  0
  192.6870  174.0950  145.1030 C   0  0  2  0  0  3  0  0  0  0  0  0
  192.4310  176.6100  146.6270 C   0  0  0  0  0  2  0  0  0  0  0  0
  191.2410  175.9290  145.9800 C   0  0  0  0  0  0  0  0  0  0  0  0
  188.8070  175.8540  146.2560 C   0  0  0  0  0  3  0  0  0  0  0  0
  189.9150  176.5550  146.0330 C   0  0  0  0  0  3  0  0  0  0  0  0
  187.4950  176.4990  146.3180 C   0  0  0  0  0  0  0  0  0  0  0  0
  186.9030  177.0790  145.2580 N   0  0  0  0  0  0  0  0  0  0  0  0
  186.7490  176.5740  147.3930 O   0  0  0  0  0  0  0  0  0  0  0  0
  185.7430  177.5000  145.8060 C   0  0  0  0  0  0  0  0  0  0  0  0
  185.6440  177.1930  147.1130 N   0  0  0  0  0  0  0  0  0  0  0  0
  184.6970  178.1950  145.0500 C   0  0  0  0  0  0  0  0  0  0  0  0
  183.9690  179.0500  145.6260 O   0  0  0  0  0  0  0  0  0  0  0  0
  184.5070  177.9060  143.6610 N   0  0  0  0  0  2  0  0  0  0  0  0
  183.5570  178.6380  142.8350 C   0  0  0  0  0  2  0  0  0  0  0  0
  183.4920  178.0330  141.4380 C   0  0  2  0  0  3  0  0  0  0  0  0
  184.5600  178.6580  140.5560 C   0  0  0  0  0  1  0  0  0  0  0  0
  181.8400  177.5530  139.8320 O   0  0  0  0  0  0  0  0  0  0  0  0
  182.0940  178.1450  140.8680 C   0  0  0  0  0  0  0  0  0  0  0  0
  180.6180  180.0190  140.7080 O   0  0  0  0  0  1  0  0  0  0  0  0
  180.9980  178.9460  141.5160 C   0  0  1  0  0  3  0  0  0  0  0  0
  179.8350  178.1030  141.8220 C   0  0  0  0  0  0  0  0  0  0  0  0
  178.9180  177.4400  142.0600 N   0  0  0  0  0  0  0  0  0  0  0  0
  194.0770  176.0020  144.1290 C   0  0  0  0  0  2  0  0  0  0  0  0
  196.3460  176.3670  143.2470 N   0  0  0  0  0  2  0  0  0  0  0  0
  197.3900  175.7860  142.4050 C   0  0  0  0  0  2  0  0  0  0  0  0
  195.1370  175.5490  143.1270 C   0  0  2  0  0  3  0  0  0  0  0  0
  195.6840  175.0650  140.7370 C   0  0  1  0  0  3  0  0  0  0  0  0
  196.9760  175.8510  140.9360 C   0  0  0  0  0  2  0  0  0  0  0  0
  194.6070  175.5770  141.6920 C   0  0  0  0  0  2  0  0  0  0  0  0
  195.2360  175.2060  139.3600 N   0  0  0  0  0  2  0  0  0  0  0  0
  194.3900  174.2510  138.7190 C   0  0  0  0  0  0  0  0  0  0  0  0
  194.0120  173.2160  139.3350 O   0  0  0  0  0  0  0  0  0  0  0  0
  193.2860  173.6230  136.7150 O   0  0  0  0  0  0  0  0  0  0  0  0
  193.9750  174.4780  137.3350 C   0  0  0  0  0  3  0  0  0  0  0  0
  192.7390  173.3150  143.7950 C   0  0  0  0  0  2  0  0  0  0  0  0
  190.4480  171.7750  139.4860 C   0  0  0  0  0  3  0  0  0  0  0  0
  191.6260  173.7350  142.8890 C   0  0  0  0  0  3  0  0  0  0  0  0
  191.1140  172.9820  141.9090 C   0  0  0  0  0  0  0  0  0  0  0  0
  189.9840  173.5500  141.0930 C   0  0  1  0  0  3  0  0  0  0  0  0
  191.2240  171.0640  140.4600 N   0  0  0  0  0  0  0  0  0  0  0  0
  189.9150  172.9290  139.7650 N   0  0  0  0  0  0  0  0  0  0  0  0
  191.5590  171.5980  141.6000 C   0  0  0  0  0  0  0  0  0  0  0  0
  187.7990  174.5320  141.9950 C   0  0  1  0  0  3  0  0  0  0  0  0
  188.6530  173.3340  141.8250 C   0  0  2  0  0  3  0  0  0  0  0  0
  188.6570  174.0730  143.1000 N   0  0  0  0  0  2  0  0  0  0  0  0
  188.3600  175.8350  141.4340 C   0  0  2  0  0  3  0  0  0  0  0  0
  187.4150  176.9430  141.6990 C   0  0  0  0  0  2  0  0  0  0  0  0
  187.4840  176.3160  140.4410 O   0  0  0  0  0  0  0  0  0  0  0  0
  192.3240  170.8700  142.5170 O   0  0  0  0  0  0  0  0  0  0  0  0
  192.2840  169.4500  142.5850 C   0  0  0  0  0  1  0  0  0  0  0  0
  1  6  2  0  0  0  0
  3 26  1  6  0  0  0
  3  2  1  0  0  0  0
  4 38  1  6  0  0  0
  4  1  1  0  0  0  0
  4  3  1  0  0  0  0
  5  2  1  0  0  0  0
  6  8  1  0  0  0  0
  6  5  1  0  0  0  0
  7  9  1  0  0  0  0
  8  7  2  0  0  0  0
  9 11  1  0  0  0  0
 10 12  1  0  0  0  0
 10  9  2  0  0  0  0
 12 13  2  0  0  0  0
 13 11  1  0  0  0  0
 14 15  2  0  0  0  0
 14 12  1  0  0  0  0
 16 14  1  0  0  0  0
 17 16  1  0  0  0  0
 18 19  1  6  0  0  0
 18 17  1  0  0  0  0
 20 21  2  0  0  0  0
 21 18  1  0  0  0  0
 21 23  1  0  0  0  0
 23 22  1  6  0  0  0
 23 24  1  0  0  0  0
 24 25  3  0  0  0  0
 28 27  1  0  0  0  0
 29 27  1  0  0  0  0
 29 26  1  1  0  0  0
 30 33  1  6  0  0  0
 30 31  1  0  0  0  0
 30 32  1  0  0  0  0
 31 28  1  0  0  0  0
 32 29  1  0  0  0  0
 34 35  2  0  0  0  0
 34 33  1  0  0  0  0
 36 37  2  0  0  0  0
 37 34  1  0  0  0  0
 39 44  2  0  0  0  0
 39 43  1  0  0  0  0
 40 38  1  0  0  0  0
 41 40  2  0  0  0  0
 42 44  1  6  0  0  0
 42 47  1  0  0  0  0
 42 41  1  0  0  0  0
 43 45  2  0  0  0  0
 45 41  1  0  0  0  0
 45 52  1  0  0  0  0
 46 48  1  1  0  0  0
 47 46  1  0  0  0  0
 47 48  1  1  0  0  0
 49 50  1  1  0  0  0
 49 46  1  0  0  0  0
 51 49  1  0  0  0  0
 51 50  1  0  0  0  0
 52 53  1  0  0  0  0
M  END
>  <MODEL>
2

>  <REMARK>
 VINA RESULT:      -7.3      2.101      3.380
  Name = 
  17 active torsions:
  status: ('A' for Active; 'I' for Inactive)
    1  A    between atoms: C_2  and  C_9
    2  A    between atoms: C_5  and  C_53
    3  A    between atoms: C_7  and  C_47
    4  A    between atoms: C_11  and  C_48
    5  A    between atoms: C_12  and  C_41
    6  A    between atoms: C_13  and  C_19
    7  A    between atoms: C_14  and  C_46
    8  A    between atoms: N_15  and  C_18
    9  A    between atoms: C_16  and  C_40
   10  A    between atoms: C_20  and  C_32
   11  A    between atoms: C_21  and  C_49
   12  A    between atoms: C_21  and  C_51
   13  A    between atoms: O_27  and  C_44
   14  A    between atoms: C_30  and  C_46
   15  A    between atoms: N_31  and  C_51
   16  A    between atoms: C_33  and  C_48
   17  A    between atoms: C_41  and  C_49
                            x       y       z     vdW  Elec       q    Type
                         _______ _______ _______ _____ _____    ______ ____

>  <TORSDO>
F 17

$$$$
=
 OpenBabel11042418153D

 53 58  0  0  1  0  0  0  0  0999 V2000
  189.1070  175.1450  145.1320 C   0  0  0  0  0  3  0  0  0  0  0  0
  190.6490  176.7350  146.9580 C   0  0  0  0  0  2  0  0  0  0  0  0
  191.3560  175.6390  146.1610 C   0  0  1  0  0  3  0  0  0  0  0  0
  190.3180  174.5640  145.8070 C   0  0  2  0  0  3  0  0  0  0  0  0
  189.5250  177.3870  146.1430 C   0  0  0  0  0  2  0  0  0  0  0  0
  188.7030  176.4050  145.3330 C   0  0  0  0  0  0  0  0  0  0  0  0
  186.5690  177.6020  145.2040 C   0  0  0  0  0  3  0  0  0  0  0  0
  187.5050  176.8610  144.6180 C   0  0  0  0  0  3  0  0  0  0  0  0
  185.3870  178.0580  144.4700 C   0  0  0  0  0  0  0  0  0  0  0  0
  185.1480  177.7450  143.1840 N   0  0  0  0  0  0  0  0  0  0  0  0
  184.4330  178.8010  144.9760 O   0  0  0  0  0  0  0  0  0  0  0  0
  183.9670  178.3690  142.9790 C   0  0  0  0  0  0  0  0  0  0  0  0
  183.5250  179.0160  144.0750 N   0  0  0  0  0  0  0  0  0  0  0  0
  183.2370  178.3240  141.7090 C   0  0  0  0  0  0  0  0  0  0  0  0
  183.8680  178.1670  140.6280 O   0  0  0  0  0  0  0  0  0  0  0  0
  181.8120  178.4550  141.7000 N   0  0  0  0  0  2  0  0  0  0  0  0
  181.0240  178.3130  140.4830 C   0  0  0  0  0  2  0  0  0  0  0  0
  179.6650  177.7000  140.7990 C   0  0  2  0  0  3  0  0  0  0  0  0
  178.9190  177.4090  139.5070 C   0  0  0  0  0  1  0  0  0  0  0  0
  178.8440  179.7750  141.5480 O   0  0  0  0  0  0  0  0  0  0  0  0
  178.8910  178.5740  141.7610 C   0  0  0  0  0  0  0  0  0  0  0  0
  178.5240  176.7100  143.2130 O   0  0  0  0  0  1  0  0  0  0  0  0
  178.1720  178.0390  142.9690 C   0  0  1  0  0  3  0  0  0  0  0  0
  178.4430  178.8610  144.1550 C   0  0  0  0  0  0  0  0  0  0  0  0
  178.6550  179.5110  145.0890 N   0  0  0  0  0  0  0  0  0  0  0  0
  192.0590  176.2050  144.9170 C   0  0  0  0  0  2  0  0  0  0  0  0
  194.1960  176.6290  143.7720 N   0  0  0  0  0  2  0  0  0  0  0  0
  195.6480  176.5200  143.9090 C   0  0  0  0  0  2  0  0  0  0  0  0
  193.5660  175.9600  144.9130 C   0  0  2  0  0  3  0  0  0  0  0  0
  195.4090  174.2730  144.9610 C   0  0  1  0  0  3  0  0  0  0  0  0
  196.0740  175.0560  143.8330 C   0  0  0  0  0  2  0  0  0  0  0  0
  193.8950  174.4650  144.9100 C   0  0  0  0  0  2  0  0  0  0  0  0
  195.7370  172.8610  144.8320 N   0  0  0  0  0  2  0  0  0  0  0  0
  196.5750  172.1730  145.7610 C   0  0  0  0  0  0  0  0  0  0  0  0
  197.0890  172.7880  146.7370 O   0  0  0  0  0  0  0  0  0  0  0  0
  197.9380  170.3530  145.0840 O   0  0  0  0  0  0  0  0  0  0  0  0
  196.8410  170.7480  145.5650 C   0  0  0  0  0  3  0  0  0  0  0  0
  190.8960  173.4180  144.9860 C   0  0  0  0  0  2  0  0  0  0  0  0
  192.2440  171.5770  140.4040 C   0  0  0  0  0  3  0  0  0  0  0  0
  190.5070  173.5550  143.5490 C   0  0  0  0  0  3  0  0  0  0  0  0
  190.9300  172.7550  142.5630 C   0  0  0  0  0  0  0  0  0  0  0  0
  190.4330  173.0220  141.1680 C   0  0  1  0  0  3  0  0  0  0  0  0
  192.4200  171.0600  141.7310 N   0  0  0  0  0  0  0  0  0  0  0  0
  191.3620  172.5030  140.1580 N   0  0  0  0  0  0  0  0  0  0  0  0
  191.8280  171.5880  142.7630 C   0  0  0  0  0  0  0  0  0  0  0  0
  188.1950  172.9750  139.9280 C   0  0  1  0  0  3  0  0  0  0  0  0
  189.0560  172.3750  140.9730 C   0  0  2  0  0  3  0  0  0  0  0  0
  187.9970  173.3310  141.3430 N   0  0  0  0  0  2  0  0  0  0  0  0
  188.7800  174.1730  139.1870 C   0  0  2  0  0  3  0  0  0  0  0  0
  187.8940  174.5520  138.0650 C   0  0  0  0  0  2  0  0  0  0  0  0
  189.0620  173.7930  137.8600 O   0  0  0  0  0  0  0  0  0  0  0  0
  192.0350  171.0540  144.0390 O   0  0  0  0  0  0  0  0  0  0  0  0
  193.1250  170.1910  144.3360 C   0  0  0  0  0  1  0  0  0  0  0  0
  1  6  2  0  0  0  0
  1  4  1  0  0  0  0
  3 26  1  6  0  0  0
  3  2  1  0  0  0  0
  4 38  1  6  0  0  0
  4  3  1  0  0  0  0
  5  2  1  0  0  0  0
  6  5  1  0  0  0  0
  8  7  2  0  0  0  0
  8  6  1  0  0  0  0
  9 11  1  0  0  0  0
  9  7  1  0  0  0  0
 10  9  2  0  0  0  0
 12 10  1  0  0  0  0
 12 13  2  0  0  0  0
 13 11  1  0  0  0  0
 14 12  1  0  0  0  0
 15 14  2  0  0  0  0
 16 14  1  0  0  0  0
 17 18  1  0  0  0  0
 17 16  1  0  0  0  0
 18 19  1  6  0  0  0
 18 21  1  0  0  0  0
 20 21  2  0  0  0  0
 21 23  1  0  0  0  0
 23 22  1  1  0  0  0
 23 24  1  0  0  0  0
 24 25  3  0  0  0  0
 27 28  1  0  0  0  0
 27 29  1  0  0  0  0
 29 26  1  6  0  0  0
 30 33  1  6  0  0  0
 31 28  1  0  0  0  0
 31 30  1  0  0  0  0
 32 29  1  0  0  0  0
 32 30  1  0  0  0  0
 33 34  1  0  0  0  0
 34 35  2  0  0  0  0
 36 37  2  0  0  0  0
 37 34  1  0  0  0  0
 39 43  1  0  0  0  0
 40 38  1  0  0  0  0
 41 45  1  0  0  0  0
 41 40  2  0  0  0  0
 42 44  1  6  0  0  0
 42 41  1  0  0  0  0
 43 45  2  0  0  0  0
 44 39  2  0  0  0  0
 45 52  1  0  0  0  0
 46 47  1  0  0  0  0
 46 48  1  1  0  0  0
 47 42  1  0  0  0  0
 47 48  1  1  0  0  0
 49 50  1  6  0  0  0
 49 46  1  0  0  0  0
 51 50  1  0  0  0  0
 51 49  1  0  0  0  0
 52 53  1  0  0  0  0
M  END
>  <MODEL>
3

>  <REMARK>
 VINA RESULT:      -7.2      1.604      2.193
  Name = 
  17 active torsions:
  status: ('A' for Active; 'I' for Inactive)
    1  A    between atoms: C_2  and  C_9
    2  A    between atoms: C_5  and  C_53
    3  A    between atoms: C_7  and  C_47
    4  A    between atoms: C_11  and  C_48
    5  A    between atoms: C_12  and  C_41
    6  A    between atoms: C_13  and  C_19
    7  A    between atoms: C_14  and  C_46
    8  A    between atoms: N_15  and  C_18
    9  A    between atoms: C_16  and  C_40
   10  A    between atoms: C_20  and  C_32
   11  A    between atoms: C_21  and  C_49
   12  A    between atoms: C_21  and  C_51
   13  A    between atoms: O_27  and  C_44
   14  A    between atoms: C_30  and  C_46
   15  A    between atoms: N_31  and  C_51
   16  A    between atoms: C_33  and  C_48
   17  A    between atoms: C_41  and  C_49
                            x       y       z     vdW  Elec       q    Type
                         _______ _______ _______ _____ _____    ______ ____

>  <TORSDO>
F 17

$$$$
=
 OpenBabel11042418153D

 53 58  0  0  1  0  0  0  0  0999 V2000
  189.0860  174.7130  144.7860 C   0  0  0  0  0  3  0  0  0  0  0  0
  190.6880  176.1190  146.7090 C   0  0  0  0  0  2  0  0  0  0  0  0
  191.3470  175.0340  145.8560 C   0  0  1  0  0  3  0  0  0  0  0  0
  190.2600  174.0350  145.4360 C   0  0  2  0  0  3  0  0  0  0  0  0
  189.6060  176.8710  145.9260 C   0  0  0  0  0  2  0  0  0  0  0  0
  188.7440  175.9780  145.0560 C   0  0  0  0  0  0  0  0  0  0  0  0
  186.6570  177.2610  144.9870 C   0  0  0  0  0  3  0  0  0  0  0  0
  187.5760  176.5330  144.3600 C   0  0  0  0  0  3  0  0  0  0  0  0
  185.5060  177.8170  144.2740 C   0  0  0  0  0  0  0  0  0  0  0  0
  185.1780  177.4710  143.0160 N   0  0  0  0  0  0  0  0  0  0  0  0
  184.6670  178.6910  144.7720 O   0  0  0  0  0  0  0  0  0  0  0  0
  184.0700  178.2190  142.8200 C   0  0  0  0  0  0  0  0  0  0  0  0
  183.7540  178.9680  143.8940 N   0  0  0  0  0  0  0  0  0  0  0  0
  183.2870  178.1990  141.5820 C   0  0  0  0  0  0  0  0  0  0  0  0
  183.8660  178.0150  140.4760 O   0  0  0  0  0  0  0  0  0  0  0  0
  181.8690  178.3830  141.6310 N   0  0  0  0  0  2  0  0  0  0  0  0
  181.0260  178.2670  140.4480 C   0  0  0  0  0  2  0  0  0  0  0  0
  179.5750  178.5740  140.7980 C   0  0  2  0  0  3  0  0  0  0  0  0
  179.1130  177.6620  141.9220 C   0  0  0  0  0  1  0  0  0  0  0  0
  178.8000  177.5390  138.8310 O   0  0  0  0  0  0  0  0  0  0  0  0
  178.6990  178.5080  139.5650 C   0  0  0  0  0  0  0  0  0  0  0  0
  177.9690  180.7620  139.8880 O   0  0  0  0  0  1  0  0  0  0  0  0
  177.7050  179.5760  139.1990 C   0  0  1  0  0  3  0  0  0  0  0  0
  177.6980  179.8210  137.7520 C   0  0  0  0  0  0  0  0  0  0  0  0
  177.6920  180.0160  136.6110 N   0  0  0  0  0  0  0  0  0  0  0  0
  192.0890  175.6340  144.6510 C   0  0  0  0  0  2  0  0  0  0  0  0
  194.2830  176.6230  144.1360 N   0  0  0  0  0  2  0  0  0  0  0  0
  195.7170  176.5120  144.4000 C   0  0  0  0  0  2  0  0  0  0  0  0
  193.6050  175.4710  144.7350 C   0  0  2  0  0  3  0  0  0  0  0  0
  195.5830  174.0280  144.2350 C   0  0  1  0  0  3  0  0  0  0  0  0
  196.2840  175.2760  143.7050 C   0  0  0  0  0  2  0  0  0  0  0  0
  194.0710  174.1700  144.0780 C   0  0  0  0  0  2  0  0  0  0  0  0
  196.0530  172.8600  143.5060 N   0  0  0  0  0  2  0  0  0  0  0  0
  196.0340  171.5440  144.0590 C   0  0  0  0  0  0  0  0  0  0  0  0
  195.6200  171.3490  145.2350 O   0  0  0  0  0  0  0  0  0  0  0  0
  195.9500  169.2950  143.3070 O   0  0  0  0  0  0  0  0  0  0  0  0
  196.5120  170.4220  143.2500 C   0  0  0  0  0  3  0  0  0  0  0  0
  190.7880  172.9090  144.5540 C   0  0  0  0  0  2  0  0  0  0  0  0
  192.8340  172.1770  139.9200 C   0  0  0  0  0  3  0  0  0  0  0  0
  190.4680  173.1750  143.1180 C   0  0  0  0  0  3  0  0  0  0  0  0
  191.1370  172.6610  142.0790 C   0  0  0  0  0  0  0  0  0  0  0  0
  190.6790  173.0190  140.6910 C   0  0  1  0  0  3  0  0  0  0  0  0
  193.0480  171.5140  141.1740 N   0  0  0  0  0  0  0  0  0  0  0  0
  191.7690  172.8970  139.7170 N   0  0  0  0  0  0  0  0  0  0  0  0
  192.2810  171.7200  142.2050 C   0  0  0  0  0  0  0  0  0  0  0  0
  188.5090  172.7050  139.3720 C   0  0  1  0  0  3  0  0  0  0  0  0
  189.5180  172.1060  140.2740 C   0  0  2  0  0  3  0  0  0  0  0  0
  188.2520  172.6250  140.8190 N   0  0  0  0  0  2  0  0  0  0  0  0
  188.7400  174.1620  138.9840 C   0  0  2  0  0  3  0  0  0  0  0  0
  187.8570  174.5280  137.8540 C   0  0  0  0  0  2  0  0  0  0  0  0
  189.2140  174.2090  137.6580 O   0  0  0  0  0  0  0  0  0  0  0  0
  192.5320  171.0560  143.4110 O   0  0  0  0  0  0  0  0  0  0  0  0
  192.6350  169.6400  143.4930 C   0  0  0  0  0  1  0  0  0  0  0  0
  1  6  2  0  0  0  0
  1  4  1  0  0  0  0
  3 26  1  6  0  0  0
  3  2  1  0  0  0  0
  4 38  1  6  0  0  0
  4  3  1  0  0  0  0
  5  2  1  0  0  0  0
  6  5  1  0  0  0  0
  8  7  2  0  0  0  0
  8  6  1  0  0  0  0
  9 11  1  0  0  0  0
  9  7  1  0  0  0  0
 10  9  2  0  0  0  0
 12 10  1  0  0  0  0
 12 13  2  0  0  0  0
 13 11  1  0  0  0  0
 14 16  1  0  0  0  0
 14 12  1  0  0  0  0
 15 14  2  0  0  0  0
 17 18  1  0  0  0  0
 17 16  1  0  0  0  0
 18 19  1  1  0  0  0
 20 21  2  0  0  0  0
 21 18  1  0  0  0  0
 23 21  1  0  0  0  0
 23 22  1  1  0  0  0
 24 23  1  0  0  0  0
 25 24  3  0  0  0  0
 27 28  1  0  0  0  0
 27 29  1  0  0  0  0
 29 26  1  6  0  0  0
 30 33  1  6  0  0  0
 31 30  1  0  0  0  0
 31 28  1  0  0  0  0
 32 30  1  0  0  0  0
 32 29  1  0  0  0  0
 33 34  1  0  0  0  0
 34 35  2  0  0  0  0
 37 36  2  0  0  0  0
 37 34  1  0  0  0  0
 39 43  1  0  0  0  0
 40 38  1  0  0  0  0
 41 45  1  0  0  0  0
 41 40  2  0  0  0  0
 42 44  1  6  0  0  0
 42 41  1  0  0  0  0
 43 45  2  0  0  0  0
 44 39  2  0  0  0  0
 45 52  1  0  0  0  0
 46 47  1  0  0  0  0
 46 48  1  1  0  0  0
 47 42  1  0  0  0  0
 47 48  1  1  0  0  0
 49 50  1  6  0  0  0
 49 46  1  0  0  0  0
 51 50  1  0  0  0  0
 51 49  1  0  0  0  0
 52 53  1  0  0  0  0
M  END
>  <MODEL>
4

>  <REMARK>
 VINA RESULT:      -6.8      1.902      2.706
  Name = 
  17 active torsions:
  status: ('A' for Active; 'I' for Inactive)
    1  A    between atoms: C_2  and  C_9
    2  A    between atoms: C_5  and  C_53
    3  A    between atoms: C_7  and  C_47
    4  A    between atoms: C_11  and  C_48
    5  A    between atoms: C_12  and  C_41
    6  A    between atoms: C_13  and  C_19
    7  A    between atoms: C_14  and  C_46
    8  A    between atoms: N_15  and  C_18
    9  A    between atoms: C_16  and  C_40
   10  A    between atoms: C_20  and  C_32
   11  A    between atoms: C_21  and  C_49
   12  A    between atoms: C_21  and  C_51
   13  A    between atoms: O_27  and  C_44
   14  A    between atoms: C_30  and  C_46
   15  A    between atoms: N_31  and  C_51
   16  A    between atoms: C_33  and  C_48
   17  A    between atoms: C_41  and  C_49
                            x       y       z     vdW  Elec       q    Type
                         _______ _______ _______ _____ _____    ______ ____

>  <TORSDO>
F 17

$$$$
=
 OpenBabel11042418153D

 53 58  0  0  1  0  0  0  0  0999 V2000
  189.2540  174.8960  145.0520 C   0  0  0  0  0  3  0  0  0  0  0  0
  191.0810  176.4950  146.5830 C   0  0  0  0  0  2  0  0  0  0  0  0
  191.6400  175.3600  145.7240 C   0  0  1  0  0  3  0  0  0  0  0  0
  190.5380  174.3030  145.5590 C   0  0  2  0  0  3  0  0  0  0  0  0
  189.8630  177.1530  145.9230 C   0  0  0  0  0  2  0  0  0  0  0  0
  188.9100  176.1700  145.2720 C   0  0  0  0  0  0  0  0  0  0  0  0
  187.1470  177.8490  144.9890 C   0  0  0  0  0  3  0  0  0  0  0  0
  187.6300  176.6370  144.7280 C   0  0  0  0  0  3  0  0  0  0  0  0
  185.8740  178.3010  144.4260 C   0  0  0  0  0  0  0  0  0  0  0  0
  185.3660  177.8300  143.2720 N   0  0  0  0  0  0  0  0  0  0  0  0
  185.0870  179.1910  144.9760 O   0  0  0  0  0  0  0  0  0  0  0  0
  184.2090  178.5230  143.1960 C   0  0  0  0  0  0  0  0  0  0  0  0
  184.0340  179.3580  144.2380 N   0  0  0  0  0  0  0  0  0  0  0  0
  183.2410  178.3640  142.1070 C   0  0  0  0  0  0  0  0  0  0  0  0
  183.5670  177.7340  141.0630 O   0  0  0  0  0  0  0  0  0  0  0  0
  181.9280  178.9190  142.2330 N   0  0  0  0  0  2  0  0  0  0  0  0
  180.8900  178.7040  141.2320 C   0  0  0  0  0  2  0  0  0  0  0  0
  179.5100  178.7960  141.8700 C   0  0  2  0  0  3  0  0  0  0  0  0
  178.9200  177.4040  142.0220 C   0  0  0  0  0  1  0  0  0  0  0  0
  177.6960  180.2850  141.6850 O   0  0  0  0  0  0  0  0  0  0  0  0
  178.6230  179.7490  141.0990 C   0  0  0  0  0  0  0  0  0  0  0  0
  177.8880  179.4150  138.8480 O   0  0  0  0  0  1  0  0  0  0  0  0
  178.8270  180.0740  139.6440 C   0  0  1  0  0  3  0  0  0  0  0  0
  178.7620  181.5230  139.4100 C   0  0  0  0  0  0  0  0  0  0  0  0
  178.7130  182.6640  139.2270 N   0  0  0  0  0  0  0  0  0  0  0  0
  192.1630  175.8760  144.3740 C   0  0  0  0  0  2  0  0  0  0  0  0
  194.4180  176.8360  144.6010 N   0  0  0  0  0  2  0  0  0  0  0  0
  195.8440  176.5130  144.5750 C   0  0  0  0  0  2  0  0  0  0  0  0
  193.6620  175.6530  144.1850 C   0  0  2  0  0  3  0  0  0  0  0  0
  195.4970  175.0140  142.6130 C   0  0  1  0  0  3  0  0  0  0  0  0
  196.2860  176.2070  143.1450 C   0  0  0  0  0  2  0  0  0  0  0  0
  193.9990  175.2790  142.7390 C   0  0  0  0  0  2  0  0  0  0  0  0
  195.8470  174.7830  141.2200 N   0  0  0  0  0  2  0  0  0  0  0  0
  196.4450  173.5690  140.7640 C   0  0  0  0  0  0  0  0  0  0  0  0
  196.7160  172.6430  141.5790 O   0  0  0  0  0  0  0  0  0  0  0  0
  195.8810  172.9930  138.5320 O   0  0  0  0  0  0  0  0  0  0  0  0
  196.7510  173.4120  139.3420 C   0  0  0  0  0  3  0  0  0  0  0  0
  190.9650  173.1220  144.6960 C   0  0  0  0  0  2  0  0  0  0  0  0
  192.9220  172.4680  140.0120 C   0  0  0  0  0  3  0  0  0  0  0  0
  190.5910  173.3550  143.2670 C   0  0  0  0  0  3  0  0  0  0  0  0
  191.2600  172.8710  142.2140 C   0  0  0  0  0  0  0  0  0  0  0  0
  190.7420  173.1890  140.8370 C   0  0  1  0  0  3  0  0  0  0  0  0
  193.2100  171.8310  141.2640 N   0  0  0  0  0  0  0  0  0  0  0  0
  191.8100  173.1220  139.8330 N   0  0  0  0  0  0  0  0  0  0  0  0
  192.4600  172.0010  142.3150 C   0  0  0  0  0  0  0  0  0  0  0  0
  188.6160  172.7020  139.4990 C   0  0  1  0  0  3  0  0  0  0  0  0
  189.6270  172.2050  140.4600 C   0  0  2  0  0  3  0  0  0  0  0  0
  188.3300  172.7090  140.9430 N   0  0  0  0  0  2  0  0  0  0  0  0
  188.8000  174.1370  139.0180 C   0  0  2  0  0  3  0  0  0  0  0  0
  187.9040  174.4030  137.8710 C   0  0  0  0  0  2  0  0  0  0  0  0
  189.2690  174.1150  137.6900 O   0  0  0  0  0  0  0  0  0  0  0  0
  192.7840  171.3640  143.5180 O   0  0  0  0  0  0  0  0  0  0  0  0
  193.0570  169.9710  143.5930 C   0  0  0  0  0  1  0  0  0  0  0  0
  1  6  2  0  0  0  0
  1  4  1  0  0  0  0
  3 26  1  6  0  0  0
  3  2  1  0  0  0  0
  4 38  1  6  0  0  0
  4  3  1  0  0  0  0
  5  2  1  0  0  0  0
  6  5  1  0  0  0  0
  8  7  2  0  0  0  0
  8  6  1  0  0  0  0
  9 11  1  0  0  0  0
  9  7  1  0  0  0  0
 10  9  2  0  0  0  0
 12 10  1  0  0  0  0
 12 13  2  0  0  0  0
 13 11  1  0  0  0  0
 14 16  1  0  0  0  0
 14 12  1  0  0  0  0
 15 14  2  0  0  0  0
 17 18  1  0  0  0  0
 17 16  1  0  0  0  0
 18 19  1  6  0  0  0
 21 20  2  0  0  0  0
 21 18  1  0  0  0  0
 23 22  1  6  0  0  0
 23 21  1  0  0  0  0
 24 23  1  0  0  0  0
 25 24  3  0  0  0  0
 28 27  1  0  0  0  0
 29 26  1  6  0  0  0
 29 27  1  0  0  0  0
 30 33  1  6  0  0  0
 30 32  1  0  0  0  0
 30 31  1  0  0  0  0
 31 28  1  0  0  0  0
 32 29  1  0  0  0  0
 34 33  1  0  0  0  0
 34 35  2  0  0  0  0
 36 37  2  0  0  0  0
 37 34  1  0  0  0  0
 39 43  1  0  0  0  0
 40 38  1  0  0  0  0
 41 45  1  0  0  0  0
 41 40  2  0  0  0  0
 42 44  1  6  0  0  0
 42 41  1  0  0  0  0
 43 45  2  0  0  0  0
 44 39  2  0  0  0  0
 45 52  1  0  0  0  0
 46 47  1  0  0  0  0
 46 48  1  1  0  0  0
 47 42  1  0  0  0  0
 47 48  1  1  0  0  0
 49 50  1  6  0  0  0
 49 46  1  0  0  0  0
 51 50  1  0  0  0  0
 51 49  1  0  0  0  0
 52 53  1  0  0  0  0
M  END
>  <MODEL>
5

>  <REMARK>
 VINA RESULT:      -6.7      1.443      1.862
  Name = 
  17 active torsions:
  status: ('A' for Active; 'I' for Inactive)
    1  A    between atoms: C_2  and  C_9
    2  A    between atoms: C_5  and  C_53
    3  A    between atoms: C_7  and  C_47
    4  A    between atoms: C_11  and  C_48
    5  A    between atoms: C_12  and  C_41
    6  A    between atoms: C_13  and  C_19
    7  A    between atoms: C_14  and  C_46
    8  A    between atoms: N_15  and  C_18
    9  A    between atoms: C_16  and  C_40
   10  A    between atoms: C_20  and  C_32
   11  A    between atoms: C_21  and  C_49
   12  A    between atoms: C_21  and  C_51
   13  A    between atoms: O_27  and  C_44
   14  A    between atoms: C_30  and  C_46
   15  A    between atoms: N_31  and  C_51
   16  A    between atoms: C_33  and  C_48
   17  A    between atoms: C_41  and  C_49
                            x       y       z     vdW  Elec       q    Type
                         _______ _______ _______ _____ _____    ______ ____

>  <TORSDO>
F 17

$$$$
=
 OpenBabel11042418153D

 53 58  0  0  1  0  0  0  0  0999 V2000
  190.1610  174.4890  142.2820 C   0  0  0  0  0  3  0  0  0  0  0  0
  190.0760  171.6490  142.6850 C   0  0  0  0  0  2  0  0  0  0  0  0
  191.1930  172.4520  143.3520 C   0  0  1  0  0  3  0  0  0  0  0  0
  191.4300  173.7190  142.5170 C   0  0  2  0  0  3  0  0  0  0  0  0
  188.7690  172.4460  142.6220 C   0  0  0  0  0  2  0  0  0  0  0  0
  188.9560  173.9070  142.2600 C   0  0  0  0  0  0  0  0  0  0  0  0
  187.8910  176.0790  141.8740 C   0  0  0  0  0  3  0  0  0  0  0  0
  187.7880  174.7620  142.0190 C   0  0  0  0  0  3  0  0  0  0  0  0
  186.7150  176.9130  141.6210 C   0  0  0  0  0  0  0  0  0  0  0  0
  185.6740  177.0030  142.4700 N   0  0  0  0  0  0  0  0  0  0  0  0
  186.5460  177.6680  140.5640 O   0  0  0  0  0  0  0  0  0  0  0  0
  184.8800  177.8790  141.8170 C   0  0  0  0  0  0  0  0  0  0  0  0
  185.4100  178.2900  140.6490 N   0  0  0  0  0  0  0  0  0  0  0  0
  183.5930  178.3480  142.3370 C   0  0  0  0  0  0  0  0  0  0  0  0
  183.5160  178.7950  143.5150 O   0  0  0  0  0  0  0  0  0  0  0  0
  182.4280  178.3010  141.5070 N   0  0  0  0  0  2  0  0  0  0  0  0
  181.1460  178.8490  141.9300 C   0  0  0  0  0  2  0  0  0  0  0  0
  180.0000  178.0150  141.3700 C   0  0  2  0  0  3  0  0  0  0  0  0
  180.0300  178.0540  139.8510 C   0  0  0  0  0  1  0  0  0  0  0  0
  178.1210  179.4270  141.4850 O   0  0  0  0  0  0  0  0  0  0  0  0
  178.6780  178.4510  141.9610 C   0  0  0  0  0  0  0  0  0  0  0  0
  178.4380  176.4140  143.1910 O   0  0  0  0  0  1  0  0  0  0  0  0
  178.0090  177.7400  143.1070 C   0  0  1  0  0  3  0  0  0  0  0  0
  178.2550  178.4350  144.3770 C   0  0  0  0  0  0  0  0  0  0  0  0
  178.4500  178.9800  145.3780 N   0  0  0  0  0  0  0  0  0  0  0  0
  190.8630  172.7720  144.8190 C   0  0  0  0  0  2  0  0  0  0  0  0
  191.6920  174.7170  146.0790 N   0  0  0  0  0  2  0  0  0  0  0  0
  191.6300  176.1750  146.1700 C   0  0  0  0  0  2  0  0  0  0  0  0
  190.7100  174.2670  145.0900 C   0  0  2  0  0  3  0  0  0  0  0  0
  189.1730  176.1250  145.7490 C   0  0  1  0  0  3  0  0  0  0  0  0
  190.2640  176.6090  146.6990 C   0  0  0  0  0  2  0  0  0  0  0  0
  189.2900  174.6160  145.5430 C   0  0  0  0  0  2  0  0  0  0  0  0
  187.8670  176.4530  146.3000 N   0  0  0  0  0  2  0  0  0  0  0  0
  187.0610  177.5190  145.7970 C   0  0  0  0  0  0  0  0  0  0  0  0
  187.4740  178.2420  144.8480 O   0  0  0  0  0  0  0  0  0  0  0  0
  184.8850  176.8600  146.4760 O   0  0  0  0  0  0  0  0  0  0  0  0
  185.7520  177.7710  146.4000 C   0  0  0  0  0  3  0  0  0  0  0  0
  192.5110  174.6250  143.0950 C   0  0  0  0  0  2  0  0  0  0  0  0
  197.1680  176.7260  142.7830 C   0  0  0  0  0  3  0  0  0  0  0  0
  193.5640  174.9030  142.0700 C   0  0  0  0  0  3  0  0  0  0  0  0
  194.8120  175.3000  142.3460 C   0  0  0  0  0  0  0  0  0  0  0  0
  195.7560  175.5260  141.1960 C   0  0  1  0  0  3  0  0  0  0  0  0
  196.4490  176.1560  143.8860 N   0  0  0  0  0  0  0  0  0  0  0  0
  196.8230  176.4670  141.5540 N   0  0  0  0  0  0  0  0  0  0  0  0
  195.3430  175.4900  143.7210 C   0  0  0  0  0  0  0  0  0  0  0  0
  196.6330  174.0320  139.3120 C   0  0  1  0  0  3  0  0  0  0  0  0
  196.3770  174.1920  140.7620 C   0  0  2  0  0  3  0  0  0  0  0  0
  195.4260  173.4470  139.9200 N   0  0  0  0  0  2  0  0  0  0  0  0
  196.2280  175.2080  138.4290 C   0  0  2  0  0  3  0  0  0  0  0  0
  196.4550  174.8700  137.0060 C   0  0  0  0  0  2  0  0  0  0  0  0
  197.3640  175.6640  137.7310 O   0  0  0  0  0  0  0  0  0  0  0  0
  194.6720  174.9590  144.8280 O   0  0  0  0  0  0  0  0  0  0  0  0
  195.0090  173.6970  145.3880 C   0  0  0  0  0  1  0  0  0  0  0  0
  1  4  1  0  0  0  0
  2  3  1  0  0  0  0
  3 26  1  1  0  0  0
  4 38  1  1  0  0  0
  4  3  1  0  0  0  0
  5  2  1  0  0  0  0
  6  1  2  0  0  0  0
  6  5  1  0  0  0  0
  7  8  2  0  0  0  0
  8  6  1  0  0  0  0
  9  7  1  0  0  0  0
  9 10  2  0  0  0  0
 11 13  1  0  0  0  0
 11  9  1  0  0  0  0
 12 14  1  0  0  0  0
 12 10  1  0  0  0  0
 13 12  2  0  0  0  0
 14 15  2  0  0  0  0
 16 17  1  0  0  0  0
 16 14  1  0  0  0  0
 18 19  1  6  0  0  0
 18 17  1  0  0  0  0
 18 21  1  0  0  0  0
 20 21  2  0  0  0  0
 21 23  1  0  0  0  0
 23 22  1  1  0  0  0
 23 24  1  0  0  0  0
 24 25  3  0  0  0  0
 27 28  1  0  0  0  0
 28 31  1  0  0  0  0
 29 26  1  1  0  0  0
 29 32  1  0  0  0  0
 29 27  1  0  0  0  0
 30 33  1  1  0  0  0
 30 31  1  0  0  0  0
 32 30  1  0  0  0  0
 34 33  1  0  0  0  0
 34 37  1  0  0  0  0
 35 34  2  0  0  0  0
 37 36  2  0  0  0  0
 39 43  1  0  0  0  0
 40 41  2  0  0  0  0
 40 38  1  0  0  0  0
 41 45  1  0  0  0  0
 42 44  1  1  0  0  0
 42 41  1  0  0  0  0
 44 39  2  0  0  0  0
 45 43  2  0  0  0  0
 45 52  1  0  0  0  0
 46 48  1  6  0  0  0
 46 47  1  0  0  0  0
 47 48  1  6  0  0  0
 47 42  1  0  0  0  0
 49 50  1  6  0  0  0
 49 46  1  0  0  0  0
 50 51  1  0  0  0  0
 51 49  1  0  0  0  0
 52 53  1  0  0  0  0
M  END
>  <MODEL>
6

>  <REMARK>
 VINA RESULT:      -6.4      2.090      5.526
  Name = 
  17 active torsions:
  status: ('A' for Active; 'I' for Inactive)
    1  A    between atoms: C_2  and  C_9
    2  A    between atoms: C_5  and  C_53
    3  A    between atoms: C_7  and  C_47
    4  A    between atoms: C_11  and  C_48
    5  A    between atoms: C_12  and  C_41
    6  A    between atoms: C_13  and  C_19
    7  A    between atoms: C_14  and  C_46
    8  A    between atoms: N_15  and  C_18
    9  A    between atoms: C_16  and  C_40
   10  A    between atoms: C_20  and  C_32
   11  A    between atoms: C_21  and  C_49
   12  A    between atoms: C_21  and  C_51
   13  A    between atoms: O_27  and  C_44
   14  A    between atoms: C_30  and  C_46
   15  A    between atoms: N_31  and  C_51
   16  A    between atoms: C_33  and  C_48
   17  A    between atoms: C_41  and  C_49
                            x       y       z     vdW  Elec       q    Type
                         _______ _______ _______ _____ _____    ______ ____

>  <TORSDO>
F 17

$$$$
=
 OpenBabel11042418153D

 53 58  0  0  1  0  0  0  0  0999 V2000
  190.2370  173.8380  143.9180 C   0  0  0  0  0  3  0  0  0  0  0  0
  191.4080  175.0540  146.2390 C   0  0  0  0  0  2  0  0  0  0  0  0
  192.3220  174.3360  145.2460 C   0  0  1  0  0  3  0  0  0  0  0  0
  191.4890  173.2680  144.5220 C   0  0  2  0  0  3  0  0  0  0  0  0
  190.2360  175.7440  145.5300 C   0  0  0  0  0  2  0  0  0  0  0  0
  189.6250  174.9210  144.4120 C   0  0  0  0  0  0  0  0  0  0  0  0
  188.0030  176.6520  143.7950 C   0  0  0  0  0  3  0  0  0  0  0  0
  188.4070  175.3860  143.7380 C   0  0  0  0  0  3  0  0  0  0  0  0
  186.7920  177.0980  143.1050 C   0  0  0  0  0  0  0  0  0  0  0  0
  185.7250  177.6150  143.7410 N   0  0  0  0  0  0  0  0  0  0  0  0
  186.6130  177.0600  141.8070 O   0  0  0  0  0  0  0  0  0  0  0  0
  184.9040  177.8780  142.7010 C   0  0  0  0  0  0  0  0  0  0  0  0
  185.4440  177.5400  141.5150 N   0  0  0  0  0  0  0  0  0  0  0  0
  183.5790  178.4870  142.8500 C   0  0  0  0  0  0  0  0  0  0  0  0
  183.3180  179.1800  143.8720 O   0  0  0  0  0  0  0  0  0  0  0  0
  182.5890  178.2980  141.8350 N   0  0  0  0  0  2  0  0  0  0  0  0
  181.2930  178.9630  141.8760 C   0  0  0  0  0  2  0  0  0  0  0  0
  180.2050  178.0400  141.3410 C   0  0  2  0  0  3  0  0  0  0  0  0
  180.3330  177.9130  139.8330 C   0  0  0  0  0  1  0  0  0  0  0  0
  178.2870  179.3940  141.1730 O   0  0  0  0  0  0  0  0  0  0  0  0
  178.8370  178.5010  141.7960 C   0  0  0  0  0  0  0  0  0  0  0  0
  178.4510  176.5660  143.1480 O   0  0  0  0  0  1  0  0  0  0  0  0
  178.1160  177.9110  142.9780 C   0  0  1  0  0  3  0  0  0  0  0  0
  178.4060  178.6640  144.2050 C   0  0  0  0  0  0  0  0  0  0  0  0
  178.6350  179.2590  145.1710 N   0  0  0  0  0  0  0  0  0  0  0  0
  192.9860  175.3220  144.2710 C   0  0  0  0  0  2  0  0  0  0  0  0
  195.1360  175.9520  143.2530 N   0  0  0  0  0  2  0  0  0  0  0  0
  196.5460  176.2110  143.5410 C   0  0  0  0  0  2  0  0  0  0  0  0
  194.4970  175.4320  144.4640 C   0  0  2  0  0  3  0  0  0  0  0  0
  196.6140  174.2660  145.0980 C   0  0  1  0  0  3  0  0  0  0  0  0
  197.2620  174.9040  143.8740 C   0  0  0  0  0  2  0  0  0  0  0  0
  195.1140  174.0910  144.8660 C   0  0  0  0  0  2  0  0  0  0  0  0
  197.2320  172.9740  145.3580 N   0  0  0  0  0  2  0  0  0  0  0  0
  196.4750  171.8000  145.6550 C   0  0  0  0  0  0  0  0  0  0  0  0
  195.2150  171.8510  145.7260 O   0  0  0  0  0  0  0  0  0  0  0  0
  196.8290  169.4820  145.2920 O   0  0  0  0  0  0  0  0  0  0  0  0
  197.1760  170.5380  145.8880 C   0  0  0  0  0  3  0  0  0  0  0  0
  192.2860  172.4920  143.4790 C   0  0  0  0  0  2  0  0  0  0  0  0
  194.3410  174.4030  139.1990 C   0  0  0  0  0  3  0  0  0  0  0  0
  191.8680  172.8880  142.0990 C   0  0  0  0  0  3  0  0  0  0  0  0
  192.7110  173.1770  141.1010 C   0  0  0  0  0  0  0  0  0  0  0  0
  192.1270  173.5470  139.7640 C   0  0  1  0  0  3  0  0  0  0  0  0
  194.9210  173.6920  140.3020 N   0  0  0  0  0  0  0  0  0  0  0  0
  193.0580  174.3670  138.9800 N   0  0  0  0  0  0  0  0  0  0  0  0
  194.1910  173.1130  141.2120 C   0  0  0  0  0  0  0  0  0  0  0  0
  190.4960  172.2960  138.2400 C   0  0  1  0  0  3  0  0  0  0  0  0
  191.7800  172.2770  138.9770 C   0  0  2  0  0  3  0  0  0  0  0  0
  190.5840  171.6410  139.5560 N   0  0  0  0  0  2  0  0  0  0  0  0
  189.6700  173.5720  138.3710 C   0  0  2  0  0  3  0  0  0  0  0  0
  188.4850  173.4970  137.4870 C   0  0  0  0  0  2  0  0  0  0  0  0
  189.6360  174.2210  137.1210 O   0  0  0  0  0  0  0  0  0  0  0  0
  194.8010  172.4370  142.2740 O   0  0  0  0  0  0  0  0  0  0  0  0
  195.5420  171.2380  142.0880 C   0  0  0  0  0  1  0  0  0  0  0  0
  1  6  2  0  0  0  0
  1  4  1  0  0  0  0
  3 26  1  6  0  0  0
  3  2  1  0  0  0  0
  4 38  1  6  0  0  0
  4  3  1  0  0  0  0
  5  2  1  0  0  0  0
  6  5  1  0  0  0  0
  8  7  2  0  0  0  0
  8  6  1  0  0  0  0
  9 10  2  0  0  0  0
  9  7  1  0  0  0  0
 11  9  1  0  0  0  0
 12 14  1  0  0  0  0
 12 10  1  0  0  0  0
 13 11  1  0  0  0  0
 13 12  2  0  0  0  0
 14 15  2  0  0  0  0
 16 17  1  0  0  0  0
 16 14  1  0  0  0  0
 18 19  1  6  0  0  0
 18 21  1  0  0  0  0
 18 17  1  0  0  0  0
 20 21  2  0  0  0  0
 21 23  1  0  0  0  0
 23 22  1  1  0  0  0
 23 24  1  0  0  0  0
 24 25  3  0  0  0  0
 27 28  1  0  0  0  0
 27 29  1  0  0  0  0
 28 31  1  0  0  0  0
 29 26  1  6  0  0  0
 29 32  1  0  0  0  0
 30 33  1  6  0  0  0
 31 30  1  0  0  0  0
 32 30  1  0  0  0  0
 33 34  1  0  0  0  0
 34 35  2  0  0  0  0
 34 37  1  0  0  0  0
 36 37  2  0  0  0  0
 39 43  1  0  0  0  0
 40 38  1  0  0  0  0
 41 45  1  0  0  0  0
 41 40  2  0  0  0  0
 42 44  1  6  0  0  0
 42 41  1  0  0  0  0
 43 45  2  0  0  0  0
 44 39  2  0  0  0  0
 45 52  1  0  0  0  0
 46 49  1  0  0  0  0
 46 47  1  0  0  0  0
 46 48  1  1  0  0  0
 47 48  1  1  0  0  0
 47 42  1  0  0  0  0
 49 50  1  6  0  0  0
 51 50  1  0  0  0  0
 51 49  1  0  0  0  0
 53 52  1  0  0  0  0
M  END
>  <MODEL>
7

>  <REMARK>
 VINA RESULT:      -6.0      2.003      3.063
  Name = 
  17 active torsions:
  status: ('A' for Active; 'I' for Inactive)
    1  A    between atoms: C_2  and  C_9
    2  A    between atoms: C_5  and  C_53
    3  A    between atoms: C_7  and  C_47
    4  A    between atoms: C_11  and  C_48
    5  A    between atoms: C_12  and  C_41
    6  A    between atoms: C_13  and  C_19
    7  A    between atoms: C_14  and  C_46
    8  A    between atoms: N_15  and  C_18
    9  A    between atoms: C_16  and  C_40
   10  A    between atoms: C_20  and  C_32
   11  A    between atoms: C_21  and  C_49
   12  A    between atoms: C_21  and  C_51
   13  A    between atoms: O_27  and  C_44
   14  A    between atoms: C_30  and  C_46
   15  A    between atoms: N_31  and  C_51
   16  A    between atoms: C_33  and  C_48
   17  A    between atoms: C_41  and  C_49
                            x       y       z     vdW  Elec       q    Type
                         _______ _______ _______ _____ _____    ______ ____

>  <TORSDO>
F 17

$$$$
=
 OpenBabel11042418153D

 53 58  0  0  1  0  0  0  0  0999 V2000
  190.6640  175.0440  142.5660 C   0  0  0  0  0  3  0  0  0  0  0  0
  191.5120  174.3660  145.2230 C   0  0  0  0  0  2  0  0  0  0  0  0
  192.5720  174.5280  144.1330 C   0  0  1  0  0  3  0  0  0  0  0  0
  191.9100  174.2300  142.7790 C   0  0  2  0  0  3  0  0  0  0  0  0
  190.3450  175.3400  145.0230 C   0  0  0  0  0  2  0  0  0  0  0  0
  189.9130  175.4930  143.5780 C   0  0  0  0  0  0  0  0  0  0  0  0
  188.0790  176.1420  142.0880 C   0  0  0  0  0  3  0  0  0  0  0  0
  188.7170  176.2770  143.2460 C   0  0  0  0  0  3  0  0  0  0  0  0
  186.8810  176.9240  141.7810 C   0  0  0  0  0  0  0  0  0  0  0  0
  185.8260  177.0200  142.6110 N   0  0  0  0  0  0  0  0  0  0  0  0
  186.7030  177.6230  140.6870 O   0  0  0  0  0  0  0  0  0  0  0  0
  185.0140  177.8380  141.9070 C   0  0  0  0  0  0  0  0  0  0  0  0
  185.5470  178.2110  140.7280 N   0  0  0  0  0  0  0  0  0  0  0  0
  183.7040  178.2890  142.3870 C   0  0  0  0  0  0  0  0  0  0  0  0
  183.6040  178.8250  143.5250 O   0  0  0  0  0  0  0  0  0  0  0  0
  182.5460  178.1240  141.5630 N   0  0  0  0  0  2  0  0  0  0  0  0
  181.2390  178.6450  141.9410 C   0  0  0  0  0  2  0  0  0  0  0  0
  180.3680  178.8420  140.7060 C   0  0  2  0  0  3  0  0  0  0  0  0
  180.1470  180.3250  140.4630 C   0  0  0  0  0  1  0  0  0  0  0  0
  178.7810  177.5880  141.9100 O   0  0  0  0  0  0  0  0  0  0  0  0
  179.0850  178.0490  140.8220 C   0  0  0  0  0  0  0  0  0  0  0  0
  177.6910  179.0020  139.1280 O   0  0  0  0  0  1  0  0  0  0  0  0
  178.1590  177.8000  139.6620 C   0  0  1  0  0  3  0  0  0  0  0  0
  178.8190  177.0040  138.6180 C   0  0  0  0  0  0  0  0  0  0  0  0
  179.3380  176.3760  137.7980 N   0  0  0  0  0  0  0  0  0  0  0  0
  193.2190  175.9210  144.1740 C   0  0  0  0  0  2  0  0  0  0  0  0
  195.3080  176.6200  143.0750 N   0  0  0  0  0  2  0  0  0  0  0  0
  196.7580  176.7020  143.2440 C   0  0  0  0  0  2  0  0  0  0  0  0
  194.7460  175.8740  144.2040 C   0  0  2  0  0  3  0  0  0  0  0  0
  196.7910  174.4420  144.2960 C   0  0  1  0  0  3  0  0  0  0  0  0
  197.3730  175.3050  143.1800 C   0  0  0  0  0  2  0  0  0  0  0  0
  195.2660  174.4350  144.2120 C   0  0  0  0  0  2  0  0  0  0  0  0
  197.3030  173.0850  144.1770 N   0  0  0  0  0  2  0  0  0  0  0  0
  197.1830  172.1190  145.2210 C   0  0  0  0  0  0  0  0  0  0  0  0
  196.6340  172.4240  146.3170 O   0  0  0  0  0  0  0  0  0  0  0  0
  196.9750  169.7560  145.1430 O   0  0  0  0  0  0  0  0  0  0  0  0
  197.7120  170.7710  145.0130 C   0  0  0  0  0  3  0  0  0  0  0  0
  192.8630  174.3820  141.5990 C   0  0  0  0  0  2  0  0  0  0  0  0
  192.6880  170.2200  138.6250 C   0  0  0  0  0  3  0  0  0  0  0  0
  192.2110  173.9160  140.3370 C   0  0  0  0  0  3  0  0  0  0  0  0
  192.2030  172.6500  139.9040 C   0  0  0  0  0  0  0  0  0  0  0  0
  191.4890  172.3450  138.6140 C   0  0  1  0  0  3  0  0  0  0  0  0
  193.0230  170.3910  140.0090 N   0  0  0  0  0  0  0  0  0  0  0  0
  192.0210  171.1340  137.9800 N   0  0  0  0  0  0  0  0  0  0  0  0
  192.8170  171.5130  140.6370 C   0  0  0  0  0  0  0  0  0  0  0  0
  189.0730  172.7630  137.8830 C   0  0  1  0  0  3  0  0  0  0  0  0
  189.9890  172.1630  138.8800 C   0  0  2  0  0  3  0  0  0  0  0  0
  189.3650  173.4720  139.1390 N   0  0  0  0  0  2  0  0  0  0  0  0
  189.7370  173.5010  136.7250 C   0  0  2  0  0  3  0  0  0  0  0  0
  188.8410  174.5710  136.2310 C   0  0  0  0  0  2  0  0  0  0  0  0
  188.9500  173.3340  135.5680 O   0  0  0  0  0  0  0  0  0  0  0  0
  193.1660  171.6360  141.9860 O   0  0  0  0  0  0  0  0  0  0  0  0
  194.4110  171.1750  142.4960 C   0  0  0  0  0  1  0  0  0  0  0  0
  1  4  1  0  0  0  0
  1  6  2  0  0  0  0
  3 26  1  6  0  0  0
  3  2  1  0  0  0  0
  4 38  1  6  0  0  0
  4  3  1  0  0  0  0
  5  2  1  0  0  0  0
  6  5  1  0  0  0  0
  7  8  2  0  0  0  0
  8  6  1  0  0  0  0
  9  7  1  0  0  0  0
  9 10  2  0  0  0  0
 11 13  1  0  0  0  0
 11  9  1  0  0  0  0
 12 14  1  0  0  0  0
 12 10  1  0  0  0  0
 13 12  2  0  0  0  0
 14 15  2  0  0  0  0
 16 17  1  0  0  0  0
 16 14  1  0  0  0  0
 18 19  1  1  0  0  0
 18 21  1  0  0  0  0
 18 17  1  0  0  0  0
 21 20  2  0  0  0  0
 23 22  1  6  0  0  0
 23 21  1  0  0  0  0
 24 23  1  0  0  0  0
 25 24  3  0  0  0  0
 27 28  1  0  0  0  0
 27 29  1  0  0  0  0
 29 26  1  6  0  0  0
 29 32  1  0  0  0  0
 30 33  1  6  0  0  0
 31 28  1  0  0  0  0
 31 30  1  0  0  0  0
 32 30  1  0  0  0  0
 33 34  1  0  0  0  0
 34 35  2  0  0  0  0
 37 36  2  0  0  0  0
 37 34  1  0  0  0  0
 39 43  1  0  0  0  0
 40 38  1  0  0  0  0
 41 40  2  0  0  0  0
 41 45  1  0  0  0  0
 42 44  1  1  0  0  0
 42 47  1  0  0  0  0
 42 41  1  0  0  0  0
 43 45  2  0  0  0  0
 44 39  2  0  0  0  0
 45 52  1  0  0  0  0
 46 47  1  0  0  0  0
 46 48  1  1  0  0  0
 47 48  1  1  0  0  0
 49 50  1  1  0  0  0
 49 46  1  0  0  0  0
 51 50  1  0  0  0  0
 51 49  1  0  0  0  0
 52 53  1  0  0  0  0
M  END
>  <MODEL>
8

>  <REMARK>
 VINA RESULT:      -5.9      2.420      3.649
  Name = 
  17 active torsions:
  status: ('A' for Active; 'I' for Inactive)
    1  A    between atoms: C_2  and  C_9
    2  A    between atoms: C_5  and  C_53
    3  A    between atoms: C_7  and  C_47
    4  A    between atoms: C_11  and  C_48
    5  A    between atoms: C_12  and  C_41
    6  A    between atoms: C_13  and  C_19
    7  A    between atoms: C_14  and  C_46
    8  A    between atoms: N_15  and  C_18
    9  A    between atoms: C_16  and  C_40
   10  A    between atoms: C_20  and  C_32
   11  A    between atoms: C_21  and  C_49
   12  A    between atoms: C_21  and  C_51
   13  A    between atoms: O_27  and  C_44
   14  A    between atoms: C_30  and  C_46
   15  A    between atoms: N_31  and  C_51
   16  A    between atoms: C_33  and  C_48
   17  A    between atoms: C_41  and  C_49
                            x       y       z     vdW  Elec       q    Type
                         _______ _______ _______ _____ _____    ______ ____

>  <TORSDO>
F 17

$$$$
=
 OpenBabel11042418153D

 53 58  0  0  1  0  0  0  0  0999 V2000
  189.7730  174.3790  142.1230 C   0  0  0  0  0  3  0  0  0  0  0  0
  190.7240  173.6240  144.7240 C   0  0  0  0  0  2  0  0  0  0  0  0
  191.7450  173.9220  143.6260 C   0  0  1  0  0  3  0  0  0  0  0  0
  191.0780  173.6490  142.2700 C   0  0  2  0  0  3  0  0  0  0  0  0
  189.4850  174.5190  144.5980 C   0  0  0  0  0  2  0  0  0  0  0  0
  189.0120  174.7160  143.1720 C   0  0  0  0  0  0  0  0  0  0  0  0
  187.3400  176.4400  143.6580 C   0  0  0  0  0  3  0  0  0  0  0  0
  187.7560  175.4270  142.9040 C   0  0  0  0  0  3  0  0  0  0  0  0
  186.0900  177.1440  143.3670 C   0  0  0  0  0  0  0  0  0  0  0  0
  185.5540  177.2240  142.1360 N   0  0  0  0  0  0  0  0  0  0  0  0
  185.3530  177.7590  144.2590 O   0  0  0  0  0  0  0  0  0  0  0  0
  184.4350  177.9380  142.3850 C   0  0  0  0  0  0  0  0  0  0  0  0
  184.3070  178.2680  143.6840 N   0  0  0  0  0  0  0  0  0  0  0  0
  183.4560  178.2940  141.3540 C   0  0  0  0  0  0  0  0  0  0  0  0
  183.7950  178.2940  140.1380 O   0  0  0  0  0  0  0  0  0  0  0  0
  182.1170  178.6350  141.7280 N   0  0  0  0  0  2  0  0  0  0  0  0
  181.0740  178.8940  140.7440 C   0  0  0  0  0  2  0  0  0  0  0  0
  179.8590  178.0150  141.0130 C   0  0  2  0  0  3  0  0  0  0  0  0
  179.3240  177.4620  139.7030 C   0  0  0  0  0  1  0  0  0  0  0  0
  178.5800  179.9220  141.5300 O   0  0  0  0  0  0  0  0  0  0  0  0
  178.8230  178.7630  141.8240 C   0  0  0  0  0  0  0  0  0  0  0  0
  178.3640  176.7890  143.0930 O   0  0  0  0  0  1  0  0  0  0  0  0
  178.0710  178.1490  142.9730 C   0  0  1  0  0  3  0  0  0  0  0  0
  178.3680  178.8440  144.2320 C   0  0  0  0  0  0  0  0  0  0  0  0
  178.6040  179.3910  145.2240 N   0  0  0  0  0  0  0  0  0  0  0  0
  192.2910  175.3550  143.7320 C   0  0  0  0  0  2  0  0  0  0  0  0
  194.6330  175.9030  143.2120 N   0  0  0  0  0  2  0  0  0  0  0  0
  195.9530  176.1170  143.8040 C   0  0  0  0  0  2  0  0  0  0  0  0
  193.7250  175.4160  144.2530 C   0  0  2  0  0  3  0  0  0  0  0  0
  195.6080  174.1840  145.3390 C   0  0  1  0  0  3  0  0  0  0  0  0
  196.5320  174.7890  144.2870 C   0  0  0  0  0  2  0  0  0  0  0  0
  194.1920  174.0580  144.7830 C   0  0  0  0  0  2  0  0  0  0  0  0
  196.1080  172.8750  145.7300 N   0  0  0  0  0  2  0  0  0  0  0  0
  196.3990  171.8440  144.7850 C   0  0  0  0  0  0  0  0  0  0  0  0
  196.2060  172.0330  143.5520 O   0  0  0  0  0  0  0  0  0  0  0  0
  196.2670  169.8720  146.0990 O   0  0  0  0  0  0  0  0  0  0  0  0
  196.9130  170.5610  145.2630 C   0  0  0  0  0  3  0  0  0  0  0  0
  191.9920  173.9330  141.0840 C   0  0  0  0  0  2  0  0  0  0  0  0
  190.7950  171.0340  137.0400 C   0  0  0  0  0  3  0  0  0  0  0  0
  191.1970  174.0210  139.8210 C   0  0  0  0  0  3  0  0  0  0  0  0
  190.8990  172.9810  139.0330 C   0  0  0  0  0  0  0  0  0  0  0  0
  190.0770  173.2380  137.7980 C   0  0  1  0  0  3  0  0  0  0  0  0
  191.2230  170.6930  138.3660 N   0  0  0  0  0  0  0  0  0  0  0  0
  190.3090  172.2120  136.7760 N   0  0  0  0  0  0  0  0  0  0  0  0
  191.2900  171.5770  139.3190 C   0  0  0  0  0  0  0  0  0  0  0  0
  187.7740  174.3110  137.4960 C   0  0  1  0  0  3  0  0  0  0  0  0
  188.5870  173.2680  138.1610 C   0  0  2  0  0  3  0  0  0  0  0  0
  188.2690  174.5220  138.8660 N   0  0  0  0  0  2  0  0  0  0  0  0
  188.5250  175.2380  136.5450 C   0  0  2  0  0  3  0  0  0  0  0  0
  187.5620  176.0660  135.7840 C   0  0  0  0  0  2  0  0  0  0  0  0
  188.1600  174.9230  135.2210 O   0  0  0  0  0  0  0  0  0  0  0  0
  191.7210  171.2000  140.5960 O   0  0  0  0  0  0  0  0  0  0  0  0
  191.4720  169.9070  141.1330 C   0  0  0  0  0  1  0  0  0  0  0  0
  1  4  1  0  0  0  0
  1  6  2  0  0  0  0
  3 26  1  6  0  0  0
  3  2  1  0  0  0  0
  4 38  1  6  0  0  0
  4  3  1  0  0  0  0
  5  2  1  0  0  0  0
  6  5  1  0  0  0  0
  8  6  1  0  0  0  0
  8  7  2  0  0  0  0
  9  7  1  0  0  0  0
  9 11  1  0  0  0  0
 10 12  1  0  0  0  0
 10  9  2  0  0  0  0
 12 13  2  0  0  0  0
 13 11  1  0  0  0  0
 14 16  1  0  0  0  0
 14 12  1  0  0  0  0
 15 14  2  0  0  0  0
 17 18  1  0  0  0  0
 17 16  1  0  0  0  0
 18 19  1  6  0  0  0
 18 21  1  0  0  0  0
 20 21  2  0  0  0  0
 21 23  1  0  0  0  0
 23 22  1  1  0  0  0
 23 24  1  0  0  0  0
 24 25  3  0  0  0  0
 27 28  1  0  0  0  0
 27 29  1  0  0  0  0
 28 31  1  0  0  0  0
 29 26  1  6  0  0  0
 29 32  1  0  0  0  0
 30 33  1  6  0  0  0
 31 30  1  0  0  0  0
 32 30  1  0  0  0  0
 34 37  1  0  0  0  0
 34 33  1  0  0  0  0
 35 34  2  0  0  0  0
 37 36  2  0  0  0  0
 39 43  1  0  0  0  0
 40 38  1  0  0  0  0
 41 45  1  0  0  0  0
 41 40  2  0  0  0  0
 42 44  1  6  0  0  0
 42 47  1  0  0  0  0
 42 41  1  0  0  0  0
 43 45  2  0  0  0  0
 44 39  2  0  0  0  0
 45 52  1  0  0  0  0
 46 47  1  0  0  0  0
 46 48  1  1  0  0  0
 47 48  1  1  0  0  0
 49 50  1  1  0  0  0
 49 46  1  0  0  0  0
 51 50  1  0  0  0  0
 51 49  1  0  0  0  0
 52 53  1  0  0  0  0
M  END
>  <MODEL>
9

>  <REMARK>
 VINA RESULT:      -5.9      2.171      3.314
  Name = 
  17 active torsions:
  status: ('A' for Active; 'I' for Inactive)
    1  A    between atoms: C_2  and  C_9
    2  A    between atoms: C_5  and  C_53
    3  A    between atoms: C_7  and  C_47
    4  A    between atoms: C_11  and  C_48
    5  A    between atoms: C_12  and  C_41
    6  A    between atoms: C_13  and  C_19
    7  A    between atoms: C_14  and  C_46
    8  A    between atoms: N_15  and  C_18
    9  A    between atoms: C_16  and  C_40
   10  A    between atoms: C_20  and  C_32
   11  A    between atoms: C_21  and  C_49
   12  A    between atoms: C_21  and  C_51
   13  A    between atoms: O_27  and  C_44
   14  A    between atoms: C_30  and  C_46
   15  A    between atoms: N_31  and  C_51
   16  A    between atoms: C_33  and  C_48
   17  A    between atoms: C_41  and  C_49
                            x       y       z     vdW  Elec       q    Type
                         _______ _______ _______ _____ _____    ______ ____

>  <TORSDO>
F 17

$$$$
