=
 OpenBabel11042418503D

 26 26  0  0  1  0  0  0  0  0999 V2000
  188.6030  176.8010  143.3170 C   0  0  0  0  0  0  0  0  0  0  0  0
  186.7670  178.2820  142.6890 C   0  0  0  0  0  0  0  0  0  0  0  0
  187.7440  177.8670  143.5990 C   0  0  0  0  0  3  0  0  0  0  0  0
  187.5260  176.5520  141.1580 C   0  0  0  0  0  3  0  0  0  0  0  0
  185.7130  178.0250  140.3740 C   0  0  0  0  0  1  0  0  0  0  0  0
  186.6660  177.6160  141.4430 C   0  0  0  0  0  0  0  0  0  0  0  0
  188.4890  176.1320  142.0810 C   0  0  0  0  0  0  0  0  0  0  0  0
  189.3460  175.0350  141.7580 N   0  0  0  0  0  2  0  0  0  0  0  0
  189.1410  174.2770  140.6550 O   0  0  0  0  0  1  0  0  0  0  0  0
  185.9520  179.3570  143.0790 O   0  0  0  0  0  0  0  0  0  0  0  0
  184.9790  179.3110  144.1160 C   0  0  0  0  0  2  0  0  0  0  0  0
  185.5700  179.7610  145.3650 N   0  0  0  0  0  2  0  0  0  0  0  0
  185.0240  178.9240  146.4180 C   0  0  1  0  0  3  0  0  0  0  0  0
  184.7990  177.5460  145.8790 C   0  0  0  0  0  3  0  0  0  0  0  0
  185.4660  176.5030  146.3650 C   0  0  0  0  0  2  0  0  0  0  0  0
  185.9960  178.8950  147.5900 C   0  0  0  0  0  2  0  0  0  0  0  0
  186.2530  180.1930  148.0330 O   0  0  0  0  0  1  0  0  0  0  0  0
  189.6240  176.4460  144.3630 C   0  0  1  0  0  3  0  0  0  0  0  0
  190.9270  177.1870  144.2460 C   0  0  0  0  0  0  0  0  0  0  0  0
  190.9660  178.5050  143.8060 O   0  0  0  0  0  0  0  0  0  0  0  0
  192.0020  176.5960  144.5260 O   0  0  0  0  0  1  0  0  0  0  0  0
  189.0450  176.2660  145.7750 C   0  0  2  0  0  3  0  0  0  0  0  0
  189.5240  177.3080  146.7740 C   0  0  0  0  0  1  0  0  0  0  0  0
  189.7570  174.0060  145.5330 O   0  0  0  0  0  0  0  0  0  0  0  0
  188.9590  174.5590  147.6080 O   0  0  0  0  0  1  0  0  0  0  0  0
  189.2660  174.8810  146.2910 C   0  0  0  0  0  0  0  0  0  0  0  0
  1  3  1  0  0  0  0
  1 18  1  0  0  0  0
  2 10  1  0  0  0  0
  2  3  2  0  0  0  0
  4  6  2  0  0  0  0
  4  7  1  0  0  0  0
  5  6  1  0  0  0  0
  6  2  1  0  0  0  0
  7  1  2  0  0  0  0
  8  7  1  0  0  0  0
  9  8  1  0  0  0  0
 10 11  1  0  0  0  0
 11 12  1  0  0  0  0
 12 13  1  0  0  0  0
 13 14  1  6  0  0  0
 13 16  1  0  0  0  0
 14 15  2  0  0  0  0
 16 17  1  0  0  0  0
 18 19  1  1  0  0  0
 18 22  1  0  0  0  0
 19 21  1  0  0  0  0
 20 19  2  0  0  0  0
 22 26  1  0  0  0  0
 22 23  1  1  0  0  0
 24 26  2  0  0  0  0
 26 25  1  0  0  0  0
M  END
>  <MODEL>
1

>  <REMARK>
 VINA RESULT:      -5.9      0.000      0.000
  Name = 
  11 active torsions:
  status: ('A' for Active; 'I' for Inactive)
    1  A    between atoms: C_1  and  C_21
    2  A    between atoms: C_3  and  O_14
    3  A    between atoms: C_6  and  C_17
    4  A    between atoms: C_6  and  C_21
    5  A    between atoms: C_7  and  CA_24
    6  A    between atoms: C_9  and  C_21
    7  A    between atoms: C_10  and  CA_24
    8  A    between atoms: N_11  and  C_20
    9  A    between atoms: N_11  and  CA_24
   10  A    between atoms: O_14  and  C_20
   11  A    between atoms: N_18  and  C_23
                            x       y       z     vdW  Elec       q    Type
                         _______ _______ _______ _____ _____    ______ ____

>  <TORSDO>
F 11

$$$$
=
 OpenBabel11042418503D

 26 26  0  0  1  0  0  0  0  0999 V2000
  187.0130  177.4920  144.0600 C   0  0  0  0  0  0  0  0  0  0  0  0
  187.3150  176.4260  141.8840 C   0  0  0  0  0  0  0  0  0  0  0  0
  187.5020  176.4480  143.2710 C   0  0  0  0  0  3  0  0  0  0  0  0
  186.0970  178.5230  142.0650 C   0  0  0  0  0  3  0  0  0  0  0  0
  186.2680  177.5160  139.8220 C   0  0  0  0  0  1  0  0  0  0  0  0
  186.5890  177.4800  141.2760 C   0  0  0  0  0  0  0  0  0  0  0  0
  186.3040  178.5460  143.4480 C   0  0  0  0  0  0  0  0  0  0  0  0
  185.7920  179.6330  144.2210 N   0  0  0  0  0  2  0  0  0  0  0  0
  184.4640  179.7800  144.4440 O   0  0  0  0  0  1  0  0  0  0  0  0
  187.8570  175.3340  141.1880 O   0  0  0  0  0  0  0  0  0  0  0  0
  188.3130  174.1270  141.7860 C   0  0  0  0  0  2  0  0  0  0  0  0
  189.7340  173.9580  141.5320 N   0  0  0  0  0  2  0  0  0  0  0  0
  190.2690  173.1660  142.6250 C   0  0  1  0  0  3  0  0  0  0  0  0
  190.1910  173.9630  143.8890 C   0  0  0  0  0  3  0  0  0  0  0  0
  190.2020  173.3650  145.0780 C   0  0  0  0  0  2  0  0  0  0  0  0
  189.4690  171.8760  142.7480 C   0  0  0  0  0  2  0  0  0  0  0  0
  190.1680  170.8190  142.1630 O   0  0  0  0  0  1  0  0  0  0  0  0
  187.2630  177.4090  145.5410 C   0  0  1  0  0  3  0  0  0  0  0  0
  186.0230  177.2730  146.3800 C   0  0  0  0  0  0  0  0  0  0  0  0
  185.8880  177.9650  147.5780 O   0  0  0  0  0  1  0  0  0  0  0  0
  185.1030  176.5010  146.0040 O   0  0  0  0  0  0  0  0  0  0  0  0
  188.4700  176.5420  145.9300 C   0  0  2  0  0  3  0  0  0  0  0  0
  188.2060  175.6080  147.1010 C   0  0  0  0  0  1  0  0  0  0  0  0
  190.4100  177.7070  145.1880 O   0  0  0  0  0  0  0  0  0  0  0  0
  190.0300  177.7870  147.4450 O   0  0  0  0  0  1  0  0  0  0  0  0
  189.6930  177.3680  146.1640 C   0  0  0  0  0  0  0  0  0  0  0  0
  1 18  1  0  0  0  0
  2  3  1  0  0  0  0
  3  1  2  0  0  0  0
  4  7  2  0  0  0  0
  5  6  1  0  0  0  0
  6  2  2  0  0  0  0
  6  4  1  0  0  0  0
  7  1  1  0  0  0  0
  7  8  1  0  0  0  0
  8  9  1  0  0  0  0
 10 11  1  0  0  0  0
 10  2  1  0  0  0  0
 12 11  1  0  0  0  0
 12 13  1  0  0  0  0
 13 16  1  1  0  0  0
 13 14  1  0  0  0  0
 14 15  2  0  0  0  0
 17 16  1  0  0  0  0
 18 22  1  0  0  0  0
 18 19  1  1  0  0  0
 19 20  1  0  0  0  0
 21 19  2  0  0  0  0
 22 26  1  0  0  0  0
 22 23  1  1  0  0  0
 24 26  2  0  0  0  0
 26 25  1  0  0  0  0
M  END
>  <MODEL>
2

>  <REMARK>
 VINA RESULT:      -5.6      2.180      5.583
  Name = 
  11 active torsions:
  status: ('A' for Active; 'I' for Inactive)
    1  A    between atoms: C_1  and  C_21
    2  A    between atoms: C_3  and  O_14
    3  A    between atoms: C_6  and  C_17
    4  A    between atoms: C_6  and  C_21
    5  A    between atoms: C_7  and  CA_24
    6  A    between atoms: C_9  and  C_21
    7  A    between atoms: C_10  and  CA_24
    8  A    between atoms: N_11  and  C_20
    9  A    between atoms: N_11  and  CA_24
   10  A    between atoms: O_14  and  C_20
   11  A    between atoms: N_18  and  C_23
                            x       y       z     vdW  Elec       q    Type
                         _______ _______ _______ _____ _____    ______ ____

>  <TORSDO>
F 11

$$$$
=
 OpenBabel11042418503D

 26 26  0  0  1  0  0  0  0  0999 V2000
  186.5820  176.7610  143.4480 C   0  0  0  0  0  0  0  0  0  0  0  0
  186.8120  177.0060  145.8660 C   0  0  0  0  0  0  0  0  0  0  0  0
  187.2890  176.5470  144.6340 C   0  0  0  0  0  3  0  0  0  0  0  0
  184.8850  177.9420  144.7170 C   0  0  0  0  0  3  0  0  0  0  0  0
  185.0330  178.3210  147.1470 C   0  0  0  0  0  1  0  0  0  0  0  0
  185.5920  177.7250  145.9020 C   0  0  0  0  0  0  0  0  0  0  0  0
  185.3600  177.4650  143.4910 C   0  0  0  0  0  0  0  0  0  0  0  0
  184.6060  177.7010  142.3010 N   0  0  0  0  0  2  0  0  0  0  0  0
  183.3490  178.2020  142.3460 O   0  0  0  0  0  1  0  0  0  0  0  0
  187.5990  176.7260  146.9950 O   0  0  0  0  0  0  0  0  0  0  0  0
  188.4460  175.5920  147.1420 C   0  0  0  0  0  2  0  0  0  0  0  0
  189.8350  176.0170  147.1690 N   0  0  0  0  0  2  0  0  0  0  0  0
  190.6060  174.9900  146.4920 C   0  0  1  0  0  3  0  0  0  0  0  0
  189.6700  174.0780  145.7620 C   0  0  0  0  0  3  0  0  0  0  0  0
  190.1300  173.1360  144.9440 C   0  0  0  0  0  2  0  0  0  0  0  0
  191.5820  175.6500  145.5270 C   0  0  0  0  0  2  0  0  0  0  0  0
  191.1590  176.9450  145.2270 O   0  0  0  0  0  1  0  0  0  0  0  0
  187.1930  176.2350  142.1780 C   0  0  1  0  0  3  0  0  0  0  0  0
  187.4920  177.2830  141.1430 C   0  0  0  0  0  0  0  0  0  0  0  0
  187.0000  177.1730  139.8480 O   0  0  0  0  0  0  0  0  0  0  0  0
  188.2200  178.2630  141.4480 O   0  0  0  0  0  1  0  0  0  0  0  0
  188.2490  175.1400  142.3940 C   0  0  2  0  0  3  0  0  0  0  0  0
  189.6830  175.6400  142.2890 C   0  0  0  0  0  1  0  0  0  0  0  0
  187.4980  172.9220  141.9650 O   0  0  0  0  0  1  0  0  0  0  0  0
  188.3580  174.0260  140.1510 O   0  0  0  0  0  0  0  0  0  0  0  0
  188.0210  173.9660  141.4980 C   0  0  0  0  0  0  0  0  0  0  0  0
  1  7  2  0  0  0  0
  1  3  1  0  0  0  0
  2  6  1  0  0  0  0
  2 10  1  0  0  0  0
  3  2  2  0  0  0  0
  4  6  2  0  0  0  0
  6  5  1  0  0  0  0
  7  4  1  0  0  0  0
  8  9  1  0  0  0  0
  8  7  1  0  0  0  0
 10 11  1  0  0  0  0
 11 12  1  0  0  0  0
 13 16  1  6  0  0  0
 13 12  1  0  0  0  0
 14 13  1  0  0  0  0
 15 14  2  0  0  0  0
 17 16  1  0  0  0  0
 18 19  1  1  0  0  0
 18 22  1  0  0  0  0
 18  1  1  0  0  0  0
 19 21  1  0  0  0  0
 20 19  2  0  0  0  0
 22 23  1  6  0  0  0
 25 26  2  0  0  0  0
 26 24  1  0  0  0  0
 26 22  1  0  0  0  0
M  END
>  <MODEL>
3

>  <REMARK>
 VINA RESULT:      -5.6      2.259      5.311
  Name = 
  11 active torsions:
  status: ('A' for Active; 'I' for Inactive)
    1  A    between atoms: C_1  and  C_21
    2  A    between atoms: C_3  and  O_14
    3  A    between atoms: C_6  and  C_17
    4  A    between atoms: C_6  and  C_21
    5  A    between atoms: C_7  and  CA_24
    6  A    between atoms: C_9  and  C_21
    7  A    between atoms: C_10  and  CA_24
    8  A    between atoms: N_11  and  C_20
    9  A    between atoms: N_11  and  CA_24
   10  A    between atoms: O_14  and  C_20
   11  A    between atoms: N_18  and  C_23
                            x       y       z     vdW  Elec       q    Type
                         _______ _______ _______ _____ _____    ______ ____

>  <TORSDO>
F 11

$$$$
=
 OpenBabel11042418503D

 26 26  0  0  1  0  0  0  0  0999 V2000
  186.8470  177.3000  144.5810 C   0  0  0  0  0  0  0  0  0  0  0  0
  189.2110  177.6320  145.0910 C   0  0  0  0  0  0  0  0  0  0  0  0
  188.1460  177.6250  144.1830 C   0  0  0  0  0  3  0  0  0  0  0  0
  187.6540  177.0020  146.8490 C   0  0  0  0  0  3  0  0  0  0  0  0
  189.9980  177.3770  147.5090 C   0  0  0  0  0  1  0  0  0  0  0  0
  188.9530  177.3250  146.4490 C   0  0  0  0  0  0  0  0  0  0  0  0
  186.5980  176.9800  145.9310 C   0  0  0  0  0  0  0  0  0  0  0  0
  185.2830  176.6390  146.3760 N   0  0  0  0  0  2  0  0  0  0  0  0
  184.3630  177.5900  146.6630 O   0  0  0  0  0  1  0  0  0  0  0  0
  190.4770  177.9640  144.5810 O   0  0  0  0  0  0  0  0  0  0  0  0
  191.3010  177.0970  143.8110 C   0  0  0  0  0  2  0  0  0  0  0  0
  191.6580  175.9300  144.6000 N   0  0  0  0  0  2  0  0  0  0  0  0
  191.3630  174.7630  143.7880 C   0  0  1  0  0  3  0  0  0  0  0  0
  190.0760  174.1570  144.2530 C   0  0  0  0  0  3  0  0  0  0  0  0
  189.8490  173.9420  145.5470 C   0  0  0  0  0  2  0  0  0  0  0  0
  191.2680  175.1800  142.3260 C   0  0  0  0  0  2  0  0  0  0  0  0
  190.4360  174.3030  141.6290 O   0  0  0  0  0  1  0  0  0  0  0  0
  185.7760  177.3340  143.5250 C   0  0  1  0  0  3  0  0  0  0  0  0
  185.0650  178.6520  143.3940 C   0  0  0  0  0  0  0  0  0  0  0  0
  185.7230  179.8500  143.6460 O   0  0  0  0  0  1  0  0  0  0  0  0
  183.8470  178.6700  143.0760 O   0  0  0  0  0  0  0  0  0  0  0  0
  186.1490  176.6070  142.2240 C   0  0  2  0  0  3  0  0  0  0  0  0
  187.2010  175.5230  142.4060 C   0  0  0  0  0  1  0  0  0  0  0  0
  187.7320  177.9610  141.0710 O   0  0  0  0  0  1  0  0  0  0  0  0
  185.6080  178.0000  140.2130 O   0  0  0  0  0  0  0  0  0  0  0  0
  186.5410  177.5640  141.1470 C   0  0  0  0  0  0  0  0  0  0  0  0
  1  7  1  0  0  0  0
  2  6  2  0  0  0  0
  3  1  2  0  0  0  0
  3  2  1  0  0  0  0
  6  4  1  0  0  0  0
  6  5  1  0  0  0  0
  7  8  1  0  0  0  0
  7  4  2  0  0  0  0
  8  9  1  0  0  0  0
 10  2  1  0  0  0  0
 11 10  1  0  0  0  0
 11 12  1  0  0  0  0
 13 16  1  6  0  0  0
 13 14  1  0  0  0  0
 13 12  1  0  0  0  0
 14 15  2  0  0  0  0
 17 16  1  0  0  0  0
 18 19  1  6  0  0  0
 18  1  1  0  0  0  0
 19 20  1  0  0  0  0
 21 19  2  0  0  0  0
 22 23  1  1  0  0  0
 22 18  1  0  0  0  0
 24 26  1  0  0  0  0
 25 26  2  0  0  0  0
 26 22  1  0  0  0  0
M  END
>  <MODEL>
4

>  <REMARK>
 VINA RESULT:      -5.5      2.157      6.385
  Name = 
  11 active torsions:
  status: ('A' for Active; 'I' for Inactive)
    1  A    between atoms: C_1  and  C_21
    2  A    between atoms: C_3  and  O_14
    3  A    between atoms: C_6  and  C_17
    4  A    between atoms: C_6  and  C_21
    5  A    between atoms: C_7  and  CA_24
    6  A    between atoms: C_9  and  C_21
    7  A    between atoms: C_10  and  CA_24
    8  A    between atoms: N_11  and  C_20
    9  A    between atoms: N_11  and  CA_24
   10  A    between atoms: O_14  and  C_20
   11  A    between atoms: N_18  and  C_23
                            x       y       z     vdW  Elec       q    Type
                         _______ _______ _______ _____ _____    ______ ____

>  <TORSDO>
F 11

$$$$
=
 OpenBabel11042418503D

 26 26  0  0  1  0  0  0  0  0999 V2000
  188.7700  175.6950  145.0360 C   0  0  0  0  0  0  0  0  0  0  0  0
  186.6040  176.7980  144.8090 C   0  0  0  0  0  0  0  0  0  0  0  0
  187.7470  176.2210  144.2440 C   0  0  0  0  0  3  0  0  0  0  0  0
  187.4990  176.2950  147.0140 C   0  0  0  0  0  3  0  0  0  0  0  0
  185.2720  177.3450  146.9210 C   0  0  0  0  0  1  0  0  0  0  0  0
  186.4780  176.8230  146.2200 C   0  0  0  0  0  0  0  0  0  0  0  0
  188.6470  175.7350  146.4400 C   0  0  0  0  0  0  0  0  0  0  0  0
  189.6730  175.2100  147.2840 N   0  0  0  0  0  2  0  0  0  0  0  0
  190.6980  175.9820  147.7170 O   0  0  0  0  0  1  0  0  0  0  0  0
  185.6430  177.3060  143.9200 O   0  0  0  0  0  0  0  0  0  0  0  0
  185.4850  178.6780  143.5830 C   0  0  0  0  0  2  0  0  0  0  0  0
  186.1160  178.9470  142.3020 N   0  0  0  0  0  2  0  0  0  0  0  0
  185.7570  177.8530  141.4160 C   0  0  1  0  0  3  0  0  0  0  0  0
  184.7590  178.3430  140.4150 C   0  0  0  0  0  3  0  0  0  0  0  0
  183.4520  178.2400  140.6440 C   0  0  0  0  0  2  0  0  0  0  0  0
  187.0120  177.3390  140.7230 C   0  0  0  0  0  2  0  0  0  0  0  0
  188.1450  177.9400  141.2710 O   0  0  0  0  0  1  0  0  0  0  0  0
  189.9480  175.0880  144.3240 C   0  0  1  0  0  3  0  0  0  0  0  0
  189.7470  173.6680  143.8720 C   0  0  0  0  0  0  0  0  0  0  0  0
  189.0220  173.3770  142.7230 O   0  0  0  0  0  0  0  0  0  0  0  0
  190.2200  172.7270  144.5610 O   0  0  0  0  0  1  0  0  0  0  0  0
  190.6520  176.0410  143.3460 C   0  0  2  0  0  3  0  0  0  0  0  0
  191.6740  175.3580  142.4490 C   0  0  0  0  0  1  0  0  0  0  0  0
  190.7620  178.3600  143.8780 O   0  0  0  0  0  0  0  0  0  0  0  0
  192.3280  177.0480  144.9140 O   0  0  0  0  0  1  0  0  0  0  0  0
  191.2520  177.2140  144.0510 C   0  0  0  0  0  0  0  0  0  0  0  0
  1  7  1  0  0  0  0
  2  6  2  0  0  0  0
  3  2  1  0  0  0  0
  3  1  2  0  0  0  0
  6  5  1  0  0  0  0
  6  4  1  0  0  0  0
  7  4  2  0  0  0  0
  7  8  1  0  0  0  0
  8  9  1  0  0  0  0
 10  2  1  0  0  0  0
 11 10  1  0  0  0  0
 12 11  1  0  0  0  0
 13 14  1  6  0  0  0
 13 12  1  0  0  0  0
 14 15  2  0  0  0  0
 16 17  1  0  0  0  0
 16 13  1  0  0  0  0
 18 19  1  6  0  0  0
 18  1  1  0  0  0  0
 19 21  1  0  0  0  0
 20 19  2  0  0  0  0
 22 23  1  1  0  0  0
 22 26  1  0  0  0  0
 22 18  1  0  0  0  0
 24 26  2  0  0  0  0
 26 25  1  0  0  0  0
M  END
>  <MODEL>
5

>  <REMARK>
 VINA RESULT:      -5.5      2.085      4.810
  Name = 
  11 active torsions:
  status: ('A' for Active; 'I' for Inactive)
    1  A    between atoms: C_1  and  C_21
    2  A    between atoms: C_3  and  O_14
    3  A    between atoms: C_6  and  C_17
    4  A    between atoms: C_6  and  C_21
    5  A    between atoms: C_7  and  CA_24
    6  A    between atoms: C_9  and  C_21
    7  A    between atoms: C_10  and  CA_24
    8  A    between atoms: N_11  and  C_20
    9  A    between atoms: N_11  and  CA_24
   10  A    between atoms: O_14  and  C_20
   11  A    between atoms: N_18  and  C_23
                            x       y       z     vdW  Elec       q    Type
                         _______ _______ _______ _____ _____    ______ ____

>  <TORSDO>
F 11

$$$$
=
 OpenBabel11042418503D

 26 26  0  0  1  0  0  0  0  0999 V2000
  188.4610  176.4590  145.1640 C   0  0  0  0  0  0  0  0  0  0  0  0
  186.6240  178.0600  145.3050 C   0  0  0  0  0  0  0  0  0  0  0  0
  187.6390  177.4270  144.5810 C   0  0  0  0  0  3  0  0  0  0  0  0
  187.2330  176.7190  147.2400 C   0  0  0  0  0  3  0  0  0  0  0  0
  185.3150  178.2450  147.4930 C   0  0  0  0  0  1  0  0  0  0  0  0
  186.4140  177.6890  146.6560 C   0  0  0  0  0  0  0  0  0  0  0  0
  188.2580  176.1030  146.5130 C   0  0  0  0  0  0  0  0  0  0  0  0
  189.0790  175.1200  147.1460 N   0  0  0  0  0  2  0  0  0  0  0  0
  190.2870  175.4370  147.6690 O   0  0  0  0  0  1  0  0  0  0  0  0
  185.8650  179.0250  144.6230 O   0  0  0  0  0  0  0  0  0  0  0  0
  185.6960  179.0850  143.2120 C   0  0  0  0  0  2  0  0  0  0  0  0
  184.4260  178.4820  142.8430 N   0  0  0  0  0  2  0  0  0  0  0  0
  184.6300  177.8080  141.5720 C   0  0  1  0  0  3  0  0  0  0  0  0
  183.6930  178.3850  140.5580 C   0  0  0  0  0  3  0  0  0  0  0  0
  182.4130  178.0230  140.5250 C   0  0  0  0  0  2  0  0  0  0  0  0
  186.0780  177.9890  141.1360 C   0  0  0  0  0  2  0  0  0  0  0  0
  186.2400  177.5620  139.8180 O   0  0  0  0  0  1  0  0  0  0  0  0
  189.5140  175.8340  144.2900 C   0  0  1  0  0  3  0  0  0  0  0  0
  189.0340  175.4170  142.9280 C   0  0  0  0  0  0  0  0  0  0  0  0
  189.0040  176.3180  141.8710 O   0  0  0  0  0  0  0  0  0  0  0  0
  188.6280  174.2390  142.7490 O   0  0  0  0  0  1  0  0  0  0  0  0
  190.8870  176.5190  144.3690 C   0  0  2  0  0  3  0  0  0  0  0  0
  190.8780  177.9710  143.9150 C   0  0  0  0  0  1  0  0  0  0  0  0
  192.5430  176.2530  142.6790 O   0  0  0  0  0  0  0  0  0  0  0  0
  192.2720  174.4520  144.0680 O   0  0  0  0  0  1  0  0  0  0  0  0
  191.9390  175.7360  143.6530 C   0  0  0  0  0  0  0  0  0  0  0  0
  1  7  1  0  0  0  0
  2  6  2  0  0  0  0
  3  1  2  0  0  0  0
  3  2  1  0  0  0  0
  6  4  1  0  0  0  0
  6  5  1  0  0  0  0
  7  8  1  0  0  0  0
  7  4  2  0  0  0  0
  8  9  1  0  0  0  0
 10  2  1  0  0  0  0
 11 10  1  0  0  0  0
 12 11  1  0  0  0  0
 13 14  1  6  0  0  0
 13 12  1  0  0  0  0
 15 14  2  0  0  0  0
 16 13  1  0  0  0  0
 17 16  1  0  0  0  0
 18 19  1  6  0  0  0
 18 22  1  0  0  0  0
 18  1  1  0  0  0  0
 20 19  2  0  0  0  0
 21 19  1  0  0  0  0
 22 23  1  6  0  0  0
 24 26  2  0  0  0  0
 26 25  1  0  0  0  0
 26 22  1  0  0  0  0
M  END
>  <MODEL>
6

>  <REMARK>
 VINA RESULT:      -5.4      2.121      4.703
  Name = 
  11 active torsions:
  status: ('A' for Active; 'I' for Inactive)
    1  A    between atoms: C_1  and  C_21
    2  A    between atoms: C_3  and  O_14
    3  A    between atoms: C_6  and  C_17
    4  A    between atoms: C_6  and  C_21
    5  A    between atoms: C_7  and  CA_24
    6  A    between atoms: C_9  and  C_21
    7  A    between atoms: C_10  and  CA_24
    8  A    between atoms: N_11  and  C_20
    9  A    between atoms: N_11  and  CA_24
   10  A    between atoms: O_14  and  C_20
   11  A    between atoms: N_18  and  C_23
                            x       y       z     vdW  Elec       q    Type
                         _______ _______ _______ _____ _____    ______ ____

>  <TORSDO>
F 11

$$$$
=
 OpenBabel11042418503D

 26 26  0  0  1  0  0  0  0  0999 V2000
  187.4630  177.2730  144.3710 C   0  0  0  0  0  0  0  0  0  0  0  0
  189.7620  177.5510  145.1440 C   0  0  0  0  0  0  0  0  0  0  0  0
  188.8060  177.5690  144.1230 C   0  0  0  0  0  3  0  0  0  0  0  0
  188.0040  176.9560  146.7150 C   0  0  0  0  0  3  0  0  0  0  0  0
  190.2670  177.2770  147.6350 C   0  0  0  0  0  1  0  0  0  0  0  0
  189.3470  177.2490  146.4640 C   0  0  0  0  0  0  0  0  0  0  0  0
  187.0570  176.9590  145.6840 C   0  0  0  0  0  0  0  0  0  0  0  0
  185.6940  176.6480  145.9780 N   0  0  0  0  0  2  0  0  0  0  0  0
  184.8940  177.5190  146.6370 O   0  0  0  0  0  1  0  0  0  0  0  0
  191.0850  177.8540  144.7810 O   0  0  0  0  0  0  0  0  0  0  0  0
  191.7990  177.2450  143.7120 C   0  0  0  0  0  2  0  0  0  0  0  0
  192.5730  176.1220  144.2150 N   0  0  0  0  0  2  0  0  0  0  0  0
  193.4890  176.6500  145.2090 C   0  0  1  0  0  3  0  0  0  0  0  0
  193.4480  175.7770  146.4240 C   0  0  0  0  0  3  0  0  0  0  0  0
  192.5870  174.7670  146.5120 C   0  0  0  0  0  2  0  0  0  0  0  0
  194.8940  176.6970  144.6220 C   0  0  0  0  0  2  0  0  0  0  0  0
  195.6360  175.6020  145.0640 O   0  0  0  0  0  1  0  0  0  0  0  0
  186.5190  177.3330  143.2020 C   0  0  1  0  0  3  0  0  0  0  0  0
  185.4750  178.4110  143.2910 C   0  0  0  0  0  0  0  0  0  0  0  0
  185.8310  179.7360  143.5140 O   0  0  0  0  0  1  0  0  0  0  0  0
  184.2590  178.1050  143.1870 O   0  0  0  0  0  0  0  0  0  0  0  0
  187.1910  177.1190  141.8370 C   0  0  2  0  0  3  0  0  0  0  0  0
  186.4320  177.7390  140.6730 C   0  0  0  0  0  1  0  0  0  0  0  0
  187.0650  174.8060  142.3890 O   0  0  0  0  0  1  0  0  0  0  0  0
  188.1910  175.2840  140.4530 O   0  0  0  0  0  0  0  0  0  0  0  0
  187.4840  175.6760  141.5830 C   0  0  0  0  0  0  0  0  0  0  0  0
  1  7  1  0  0  0  0
  2  6  2  0  0  0  0
  3  1  2  0  0  0  0
  3  2  1  0  0  0  0
  6  4  1  0  0  0  0
  6  5  1  0  0  0  0
  7  8  1  0  0  0  0
  7  4  2  0  0  0  0
  8  9  1  0  0  0  0
 10  2  1  0  0  0  0
 11 12  1  0  0  0  0
 11 10  1  0  0  0  0
 12 13  1  0  0  0  0
 13 16  1  6  0  0  0
 13 14  1  0  0  0  0
 14 15  2  0  0  0  0
 16 17  1  0  0  0  0
 18 19  1  6  0  0  0
 18  1  1  0  0  0  0
 19 20  1  0  0  0  0
 21 19  2  0  0  0  0
 22 23  1  6  0  0  0
 22 18  1  0  0  0  0
 25 26  2  0  0  0  0
 26 22  1  0  0  0  0
 26 24  1  0  0  0  0
M  END
>  <MODEL>
7

>  <REMARK>
 VINA RESULT:      -5.3      2.274      6.613
  Name = 
  11 active torsions:
  status: ('A' for Active; 'I' for Inactive)
    1  A    between atoms: C_1  and  C_21
    2  A    between atoms: C_3  and  O_14
    3  A    between atoms: C_6  and  C_17
    4  A    between atoms: C_6  and  C_21
    5  A    between atoms: C_7  and  CA_24
    6  A    between atoms: C_9  and  C_21
    7  A    between atoms: C_10  and  CA_24
    8  A    between atoms: N_11  and  C_20
    9  A    between atoms: N_11  and  CA_24
   10  A    between atoms: O_14  and  C_20
   11  A    between atoms: N_18  and  C_23
                            x       y       z     vdW  Elec       q    Type
                         _______ _______ _______ _____ _____    ______ ____

>  <TORSDO>
F 11

$$$$
=
 OpenBabel11042418503D

 26 26  0  0  1  0  0  0  0  0999 V2000
  187.4880  177.4130  144.0180 C   0  0  0  0  0  0  0  0  0  0  0  0
  187.5310  176.8980  146.4040 C   0  0  0  0  0  0  0  0  0  0  0  0
  188.0000  176.6950  145.1020 C   0  0  0  0  0  3  0  0  0  0  0  0
  186.0180  178.5960  145.5430 C   0  0  0  0  0  3  0  0  0  0  0  0
  186.0140  178.2220  147.9790 C   0  0  0  0  0  1  0  0  0  0  0  0
  186.5290  177.8750  146.6250 C   0  0  0  0  0  0  0  0  0  0  0  0
  186.4810  178.3740  144.2420 C   0  0  0  0  0  0  0  0  0  0  0  0
  185.9300  179.1270  143.1590 N   0  0  0  0  0  2  0  0  0  0  0  0
  184.7990  178.7350  142.5270 O   0  0  0  0  0  1  0  0  0  0  0  0
  188.1080  176.1140  147.4160 O   0  0  0  0  0  0  0  0  0  0  0  0
  188.8600  174.9250  147.2020 C   0  0  0  0  0  2  0  0  0  0  0  0
  190.2500  175.1510  147.5630 N   0  0  0  0  0  2  0  0  0  0  0  0
  191.0410  174.9210  146.3680 C   0  0  1  0  0  3  0  0  0  0  0  0
  190.2260  174.1400  145.3850 C   0  0  0  0  0  3  0  0  0  0  0  0
  190.7510  173.1100  144.7250 C   0  0  0  0  0  2  0  0  0  0  0  0
  191.4620  176.2610  145.7790 C   0  0  0  0  0  2  0  0  0  0  0  0
  192.5080  176.0810  144.8740 O   0  0  0  0  0  1  0  0  0  0  0  0
  188.0740  177.1230  142.6630 C   0  0  1  0  0  3  0  0  0  0  0  0
  189.5740  177.0320  142.6330 C   0  0  0  0  0  0  0  0  0  0  0  0
  190.3650  178.1520  142.8580 O   0  0  0  0  0  1  0  0  0  0  0  0
  190.1210  175.9280  142.3750 O   0  0  0  0  0  0  0  0  0  0  0  0
  187.2910  176.0810  141.8490 C   0  0  2  0  0  3  0  0  0  0  0  0
  187.7080  174.6440  142.1260 C   0  0  0  0  0  1  0  0  0  0  0  0
  186.9580  177.5100  139.9730 O   0  0  0  0  0  1  0  0  0  0  0  0
  187.7890  175.4330  139.4800 O   0  0  0  0  0  0  0  0  0  0  0  0
  187.3280  176.3810  140.3860 C   0  0  0  0  0  0  0  0  0  0  0  0
  1  7  2  0  0  0  0
  1  3  1  0  0  0  0
  2  6  1  0  0  0  0
  2 10  1  0  0  0  0
  3  2  2  0  0  0  0
  4  6  2  0  0  0  0
  6  5  1  0  0  0  0
  7  4  1  0  0  0  0
  8  7  1  0  0  0  0
  9  8  1  0  0  0  0
 11 10  1  0  0  0  0
 11 12  1  0  0  0  0
 13 14  1  6  0  0  0
 13 12  1  0  0  0  0
 15 14  2  0  0  0  0
 16 13  1  0  0  0  0
 17 16  1  0  0  0  0
 18 19  1  1  0  0  0
 18  1  1  0  0  0  0
 19 20  1  0  0  0  0
 21 19  2  0  0  0  0
 22 23  1  6  0  0  0
 22 18  1  0  0  0  0
 24 26  1  0  0  0  0
 25 26  2  0  0  0  0
 26 22  1  0  0  0  0
M  END
>  <MODEL>
8

>  <REMARK>
 VINA RESULT:      -5.1      2.130      5.607
  Name = 
  11 active torsions:
  status: ('A' for Active; 'I' for Inactive)
    1  A    between atoms: C_1  and  C_21
    2  A    between atoms: C_3  and  O_14
    3  A    between atoms: C_6  and  C_17
    4  A    between atoms: C_6  and  C_21
    5  A    between atoms: C_7  and  CA_24
    6  A    between atoms: C_9  and  C_21
    7  A    between atoms: C_10  and  CA_24
    8  A    between atoms: N_11  and  C_20
    9  A    between atoms: N_11  and  CA_24
   10  A    between atoms: O_14  and  C_20
   11  A    between atoms: N_18  and  C_23
                            x       y       z     vdW  Elec       q    Type
                         _______ _______ _______ _____ _____    ______ ____

>  <TORSDO>
F 11

$$$$
=
 OpenBabel11042418503D

 26 26  0  0  1  0  0  0  0  0999 V2000
  187.7410  176.8850  145.5650 C   0  0  0  0  0  0  0  0  0  0  0  0
  186.7620  176.6770  143.3380 C   0  0  0  0  0  0  0  0  0  0  0  0
  187.7600  176.3650  144.2690 C   0  0  0  0  0  3  0  0  0  0  0  0
  185.6750  178.0400  145.0330 C   0  0  0  0  0  3  0  0  0  0  0  0
  184.5470  177.8550  142.8500 C   0  0  0  0  0  1  0  0  0  0  0  0
  185.6970  177.5210  143.7360 C   0  0  0  0  0  0  0  0  0  0  0  0
  186.6860  177.7380  145.9520 C   0  0  0  0  0  0  0  0  0  0  0  0
  186.6340  178.2920  147.2680 N   0  0  0  0  0  2  0  0  0  0  0  0
  185.7230  179.2360  147.6030 O   0  0  0  0  0  1  0  0  0  0  0  0
  186.8860  176.1070  142.0610 O   0  0  0  0  0  0  0  0  0  0  0  0
  188.0950  176.0240  141.3160 C   0  0  0  0  0  2  0  0  0  0  0  0
  188.2170  174.7020  140.7230 N   0  0  0  0  0  2  0  0  0  0  0  0
  189.2970  174.0250  141.4180 C   0  0  1  0  0  3  0  0  0  0  0  0
  190.1900  175.0480  142.0470 C   0  0  0  0  0  3  0  0  0  0  0  0
  191.3540  174.7000  142.5900 C   0  0  0  0  0  2  0  0  0  0  0  0
  188.7100  173.0960  142.4720 C   0  0  0  0  0  2  0  0  0  0  0  0
  189.2800  171.8270  142.3660 O   0  0  0  0  0  1  0  0  0  0  0  0
  188.8580  176.4760  146.4860 C   0  0  1  0  0  3  0  0  0  0  0  0
  189.0470  174.9910  146.6230 C   0  0  0  0  0  0  0  0  0  0  0  0
  188.7540  174.3370  147.8140 O   0  0  0  0  0  1  0  0  0  0  0  0
  189.5020  174.3330  145.6520 O   0  0  0  0  0  0  0  0  0  0  0  0
  190.1250  177.3350  146.3620 C   0  0  2  0  0  3  0  0  0  0  0  0
  190.5530  177.5960  144.9250 C   0  0  0  0  0  1  0  0  0  0  0  0
  191.2630  176.9390  148.4160 O   0  0  0  0  0  1  0  0  0  0  0  0
  192.2770  176.0660  146.5570 O   0  0  0  0  0  0  0  0  0  0  0  0
  191.2530  176.7790  147.1680 C   0  0  0  0  0  0  0  0  0  0  0  0
  1  7  1  0  0  0  0
  1 18  1  0  0  0  0
  2  6  2  0  0  0  0
  2  3  1  0  0  0  0
  3  1  2  0  0  0  0
  4  7  2  0  0  0  0
  5  6  1  0  0  0  0
  6  4  1  0  0  0  0
  7  8  1  0  0  0  0
  8  9  1  0  0  0  0
 10  2  1  0  0  0  0
 11 10  1  0  0  0  0
 12 11  1  0  0  0  0
 12 13  1  0  0  0  0
 13 14  1  1  0  0  0
 13 16  1  0  0  0  0
 14 15  2  0  0  0  0
 17 16  1  0  0  0  0
 18 19  1  6  0  0  0
 19 20  1  0  0  0  0
 21 19  2  0  0  0  0
 22 23  1  6  0  0  0
 22 18  1  0  0  0  0
 22 26  1  0  0  0  0
 25 26  2  0  0  0  0
 26 24  1  0  0  0  0
M  END
>  <MODEL>
9

>  <REMARK>
 VINA RESULT:      -5.1      1.949      5.412
  Name = 
  11 active torsions:
  status: ('A' for Active; 'I' for Inactive)
    1  A    between atoms: C_1  and  C_21
    2  A    between atoms: C_3  and  O_14
    3  A    between atoms: C_6  and  C_17
    4  A    between atoms: C_6  and  C_21
    5  A    between atoms: C_7  and  CA_24
    6  A    between atoms: C_9  and  C_21
    7  A    between atoms: C_10  and  CA_24
    8  A    between atoms: N_11  and  C_20
    9  A    between atoms: N_11  and  CA_24
   10  A    between atoms: O_14  and  C_20
   11  A    between atoms: N_18  and  C_23
                            x       y       z     vdW  Elec       q    Type
                         _______ _______ _______ _____ _____    ______ ____

>  <TORSDO>
F 11

$$$$
