=
 OpenBabel11042418243D

 28 29  0  0  1  0  0  0  0  0999 V2000
  190.4380  177.8480  142.8060 C   0  0  1  0  0  3  0  0  0  0  0  0
  190.3240  175.4010  142.3370 O   0  0  0  0  0  1  0  0  0  0  0  0
  191.0240  178.6640  143.7780 O   0  0  0  0  0  1  0  0  0  0  0  0
  190.3120  176.4090  143.3040 C   0  0  2  0  0  0  0  0  0  0  0  0
  189.0840  177.3080  143.2920 C   0  0  2  0  0  0  0  0  0  0  0  0
  187.8370  176.9240  142.0290 S   0  0  0  0  0  3  0  0  0  0  0  0
  187.2860  178.2890  141.6400 O   0  0  0  0  0  0  0  0  0  0  0  0
  188.6450  177.6920  144.5740 O   0  0  0  0  0  0  0  0  0  0  0  0
  187.4710  176.9750  144.8340 C   0  0  0  0  0  2  0  0  0  0  0  0
  186.6330  177.7270  145.8520 C   0  0  0  0  0  2  0  0  0  0  0  0
  185.1630  177.6840  145.4630 C   0  0  1  0  0  3  0  0  0  0  0  0
  184.2840  178.1120  146.6270 C   0  0  0  0  0  1  0  0  0  0  0  0
  185.4520  179.9420  144.1940 C   0  0  0  0  0  1  0  0  0  0  0  0
  184.2210  178.0920  143.2910 N   0  0  0  0  0  2  0  0  0  0  0  0
  184.9090  178.5520  144.2680 C   0  0  0  0  0  0  0  0  0  0  0  0
  190.8280  176.0810  144.6400 N   0  0  0  0  0  2  0  0  0  0  0  0
  191.1390  174.6530  144.8250 C   0  0  1  0  0  3  0  0  0  0  0  0
  194.1430  176.1530  144.2210 N   0  0  0  0  0  2  0  0  0  0  0  0
  193.6020  174.3060  142.9240 O   0  0  0  0  0  0  0  0  0  0  0  0
  193.0000  174.8600  146.4850 C   0  0  0  0  0  3  0  0  0  0  0  0
  192.6200  174.3090  145.1250 C   0  0  1  0  0  0  0  0  0  0  0  0
  193.6770  175.9950  146.6650 C   0  0  0  0  0  3  0  0  0  0  0  0
  192.8010  172.9240  145.1540 O   0  0  0  0  0  1  0  0  0  0  0  0
  194.1800  176.7490  145.5160 C   0  0  0  0  0  0  0  0  0  0  0  0
  193.4920  174.8950  144.0320 C   0  0  0  0  0  0  0  0  0  0  0  0
  194.7770  177.8790  145.6920 N   0  0  0  0  0  2  0  0  0  0  0  0
  190.0320  173.8120  145.4830 C   0  0  0  0  0  2  0  0  0  0  0  0
  189.3970  174.4970  146.6810 C   0  0  0  0  0  1  0  0  0  0  0  0
  1  5  1  0  0  0  0
  1  4  1  0  0  0  0
  1  3  1  1  0  0  0
  4  2  1  6  0  0  0
  4 16  1  0  0  0  0
  5  6  1  6  0  0  0
  5  4  1  0  0  0  0
  5  8  1  0  0  0  0
  7  6  2  0  0  0  0
  8  9  1  0  0  0  0
  9 10  1  0  0  0  0
 11 10  1  0  0  0  0
 11 12  1  1  0  0  0
 13 15  1  0  0  0  0
 14 15  2  0  0  0  0
 15 11  1  0  0  0  0
 16 17  1  0  0  0  0
 17 21  1  0  0  0  0
 17 27  1  1  0  0  0
 18 24  1  0  0  0  0
 19 25  2  0  0  0  0
 20 22  2  0  0  0  0
 21 23  1  1  0  0  0
 21 20  1  0  0  0  0
 24 26  2  0  0  0  0
 24 22  1  0  0  0  0
 25 18  1  0  0  0  0
 25 21  1  0  0  0  0
 27 28  1  0  0  0  0
M  END
>  <MODEL>
1

>  <REMARK>
 VINA RESULT:      -6.4      0.000      0.000
  Name = 
  10 active torsions:
  status: ('A' for Active; 'I' for Inactive)
    1  A    between atoms: C_2  and  O_9
    2  A    between atoms: C_2  and  C_24
    3  A    between atoms: C_3  and  C_24
    4  A    between atoms: C_3  and  C_27
    5  A    between atoms: C_5  and  C_20
    6  A    between atoms: O_9  and  C_28
    7  A    between atoms: S_10  and  C_28
    8  A    between atoms: C_12  and  C_20
    9  A    between atoms: N_15  and  C_20
   10  A    between atoms: N_15  and  C_23
                            x       y       z     vdW  Elec       q    Type
                         _______ _______ _______ _____ _____    ______ ____

>  <TORSDO>
F 10

$$$$
=
 OpenBabel11042418243D

 28 29  0  0  1  0  0  0  0  0999 V2000
  190.3650  177.7030  142.7690 C   0  0  1  0  0  3  0  0  0  0  0  0
  190.2890  175.2100  142.7470 O   0  0  0  0  0  1  0  0  0  0  0  0
  190.7770  178.6930  143.6650 O   0  0  0  0  0  1  0  0  0  0  0  0
  190.1190  176.3790  143.4920 C   0  0  2  0  0  0  0  0  0  0  0  0
  188.9340  177.2430  143.0850 C   0  0  2  0  0  0  0  0  0  0  0  0
  187.9350  176.6130  141.7050 S   0  0  0  0  0  3  0  0  0  0  0  0
  187.3630  177.8740  141.0700 O   0  0  0  0  0  0  0  0  0  0  0  0
  188.2710  177.8510  144.1690 O   0  0  0  0  0  0  0  0  0  0  0  0
  187.1940  177.0230  144.5050 C   0  0  0  0  0  2  0  0  0  0  0  0
  186.4080  177.6500  145.6410 C   0  0  0  0  0  2  0  0  0  0  0  0
  184.9520  177.8290  145.2410 C   0  0  1  0  0  3  0  0  0  0  0  0
  184.1360  178.3760  146.4020 C   0  0  0  0  0  1  0  0  0  0  0  0
  184.2000  178.2680  142.7840 C   0  0  0  0  0  1  0  0  0  0  0  0
  185.2960  179.9280  144.1250 N   0  0  0  0  0  2  0  0  0  0  0  0
  184.8400  178.7340  144.0520 C   0  0  0  0  0  0  0  0  0  0  0  0
  190.3700  176.3120  144.9370 N   0  0  0  0  0  2  0  0  0  0  0  0
  190.8670  175.0030  145.3960 C   0  0  1  0  0  3  0  0  0  0  0  0
  193.7660  174.3320  143.7270 N   0  0  0  0  0  2  0  0  0  0  0  0
  192.9570  172.6860  145.1510 O   0  0  0  0  0  0  0  0  0  0  0  0
  192.9900  176.3090  145.6220 C   0  0  0  0  0  3  0  0  0  0  0  0
  192.3670  174.9370  145.7800 C   0  0  1  0  0  0  0  0  0  0  0  0
  193.7200  176.6780  144.5680 C   0  0  0  0  0  3  0  0  0  0  0  0
  192.5090  174.5480  147.1140 O   0  0  0  0  0  1  0  0  0  0  0  0
  194.0400  175.7140  143.5140 C   0  0  0  0  0  0  0  0  0  0  0  0
  193.0560  173.9160  144.8950 C   0  0  0  0  0  0  0  0  0  0  0  0
  194.6910  176.0910  142.4660 N   0  0  0  0  0  2  0  0  0  0  0  0
  189.8590  174.1490  146.1840 C   0  0  0  0  0  2  0  0  0  0  0  0
  188.9970  174.9680  147.1300 C   0  0  0  0  0  1  0  0  0  0  0  0
  1  5  1  0  0  0  0
  1  4  1  0  0  0  0
  1  3  1  1  0  0  0
  4  2  1  6  0  0  0
  4 16  1  0  0  0  0
  5  6  1  6  0  0  0
  5  4  1  0  0  0  0
  5  8  1  0  0  0  0
  7  6  2  0  0  0  0
  8  9  1  0  0  0  0
  9 10  1  0  0  0  0
 11 10  1  0  0  0  0
 11 12  1  1  0  0  0
 13 15  1  0  0  0  0
 15 14  2  0  0  0  0
 15 11  1  0  0  0  0
 16 17  1  0  0  0  0
 17 21  1  0  0  0  0
 17 27  1  1  0  0  0
 18 25  1  0  0  0  0
 20 21  1  0  0  0  0
 21 23  1  1  0  0  0
 22 20  2  0  0  0  0
 24 18  1  0  0  0  0
 24 22  1  0  0  0  0
 25 19  2  0  0  0  0
 25 21  1  0  0  0  0
 26 24  2  0  0  0  0
 27 28  1  0  0  0  0
M  END
>  <MODEL>
2

>  <REMARK>
 VINA RESULT:      -6.0      1.220      1.503
  Name = 
  10 active torsions:
  status: ('A' for Active; 'I' for Inactive)
    1  A    between atoms: C_2  and  O_9
    2  A    between atoms: C_2  and  C_24
    3  A    between atoms: C_3  and  C_24
    4  A    between atoms: C_3  and  C_27
    5  A    between atoms: C_5  and  C_20
    6  A    between atoms: O_9  and  C_28
    7  A    between atoms: S_10  and  C_28
    8  A    between atoms: C_12  and  C_20
    9  A    between atoms: N_15  and  C_20
   10  A    between atoms: N_15  and  C_23
                            x       y       z     vdW  Elec       q    Type
                         _______ _______ _______ _____ _____    ______ ____

>  <TORSDO>
F 10

$$$$
=
 OpenBabel11042418243D

 28 29  0  0  1  0  0  0  0  0999 V2000
  190.1010  177.2630  142.7710 C   0  0  1  0  0  3  0  0  0  0  0  0
  190.5140  174.8330  143.1490 O   0  0  0  0  0  1  0  0  0  0  0  0
  190.5610  178.4630  143.3200 O   0  0  0  0  0  1  0  0  0  0  0  0
  190.3500  176.0950  143.7240 C   0  0  2  0  0  0  0  0  0  0  0  0
  188.9510  176.6850  143.6100 C   0  0  2  0  0  0  0  0  0  0  0  0
  187.7270  175.6540  142.7500 S   0  0  0  0  0  3  0  0  0  0  0  0
  187.1320  176.5930  141.7100 O   0  0  0  0  0  0  0  0  0  0  0  0
  188.5400  177.4060  144.7470 O   0  0  0  0  0  0  0  0  0  0  0  0
  187.4070  176.7580  145.2530 C   0  0  0  0  0  2  0  0  0  0  0  0
  186.5530  177.7520  146.0190 C   0  0  0  0  0  2  0  0  0  0  0  0
  185.1130  177.6980  145.5330 C   0  0  1  0  0  3  0  0  0  0  0  0
  184.1640  178.2170  146.6010 C   0  0  0  0  0  1  0  0  0  0  0  0
  185.4910  179.8730  144.1470 C   0  0  0  0  0  1  0  0  0  0  0  0
  184.3560  177.9520  143.2670 N   0  0  0  0  0  2  0  0  0  0  0  0
  184.9550  178.4830  144.2670 C   0  0  0  0  0  0  0  0  0  0  0  0
  191.0330  176.3610  144.9970 N   0  0  0  0  0  2  0  0  0  0  0  0
  192.1360  175.4300  145.2870 C   0  0  1  0  0  3  0  0  0  0  0  0
  195.3770  175.0260  146.2740 N   0  0  0  0  0  2  0  0  0  0  0  0
  194.4750  177.1580  146.4470 O   0  0  0  0  0  0  0  0  0  0  0  0
  194.0070  174.6810  143.8030 C   0  0  0  0  0  3  0  0  0  0  0  0
  193.5200  175.8030  144.6970 C   0  0  1  0  0  0  0  0  0  0  0  0
  194.8970  173.7620  144.1790 C   0  0  0  0  0  3  0  0  0  0  0  0
  193.4210  176.9610  143.9230 O   0  0  0  0  0  1  0  0  0  0  0  0
  195.5360  173.8430  145.4940 C   0  0  0  0  0  0  0  0  0  0  0  0
  194.4880  176.0560  145.8370 C   0  0  0  0  0  0  0  0  0  0  0  0
  196.3470  172.9170  145.8800 N   0  0  0  0  0  2  0  0  0  0  0  0
  192.0760  174.7360  146.6580 C   0  0  0  0  0  2  0  0  0  0  0  0
  191.2780  175.5180  147.6870 C   0  0  0  0  0  1  0  0  0  0  0  0
  1  3  1  1  0  0  0
  1  5  1  0  0  0  0
  1  4  1  0  0  0  0
  4  2  1  6  0  0  0
  4 16  1  0  0  0  0
  5  6  1  6  0  0  0
  5  4  1  0  0  0  0
  5  8  1  0  0  0  0
  7  6  2  0  0  0  0
  8  9  1  0  0  0  0
  9 10  1  0  0  0  0
 11 10  1  0  0  0  0
 11 12  1  1  0  0  0
 13 15  1  0  0  0  0
 14 15  2  0  0  0  0
 15 11  1  0  0  0  0
 16 17  1  0  0  0  0
 17 27  1  1  0  0  0
 20 22  2  0  0  0  0
 20 21  1  0  0  0  0
 21 23  1  6  0  0  0
 21 17  1  0  0  0  0
 21 25  1  0  0  0  0
 22 24  1  0  0  0  0
 24 26  2  0  0  0  0
 24 18  1  0  0  0  0
 25 18  1  0  0  0  0
 25 19  2  0  0  0  0
 27 28  1  0  0  0  0
M  END
>  <MODEL>
3

>  <REMARK>
 VINA RESULT:      -5.7      1.724      2.203
  Name = 
  10 active torsions:
  status: ('A' for Active; 'I' for Inactive)
    1  A    between atoms: C_2  and  O_9
    2  A    between atoms: C_2  and  C_24
    3  A    between atoms: C_3  and  C_24
    4  A    between atoms: C_3  and  C_27
    5  A    between atoms: C_5  and  C_20
    6  A    between atoms: O_9  and  C_28
    7  A    between atoms: S_10  and  C_28
    8  A    between atoms: C_12  and  C_20
    9  A    between atoms: N_15  and  C_20
   10  A    between atoms: N_15  and  C_23
                            x       y       z     vdW  Elec       q    Type
                         _______ _______ _______ _____ _____    ______ ____

>  <TORSDO>
F 10

$$$$
=
 OpenBabel11042418243D

 28 29  0  0  1  0  0  0  0  0999 V2000
  189.5820  174.6210  143.9870 C   0  0  1  0  0  3  0  0  0  0  0  0
  191.5650  173.7920  145.2520 O   0  0  0  0  0  1  0  0  0  0  0  0
  189.3640  175.3860  142.8380 O   0  0  0  0  0  1  0  0  0  0  0  0
  190.9910  174.8440  144.5340 C   0  0  2  0  0  0  0  0  0  0  0  0
  189.8080  175.5230  145.2090 C   0  0  2  0  0  0  0  0  0  0  0  0
  189.3400  174.8610  146.8340 S   0  0  0  0  0  3  0  0  0  0  0  0
  190.4440  175.3570  147.7580 O   0  0  0  0  0  0  0  0  0  0  0  0
  189.7630  176.9170  145.0150 O   0  0  0  0  0  0  0  0  0  0  0  0
  188.6170  177.3830  145.6700 C   0  0  0  0  0  2  0  0  0  0  0  0
  187.6190  177.8930  144.6470 C   0  0  0  0  0  2  0  0  0  0  0  0
  186.2080  177.4790  145.0320 C   0  0  1  0  0  3  0  0  0  0  0  0
  186.1980  176.7940  146.3890 C   0  0  0  0  0  1  0  0  0  0  0  0
  184.0640  178.6900  145.8870 C   0  0  0  0  0  1  0  0  0  0  0  0
  185.5760  179.6810  144.3100 N   0  0  0  0  0  2  0  0  0  0  0  0
  185.2940  178.6660  145.0390 C   0  0  0  0  0  0  0  0  0  0  0  0
  191.8920  175.7460  143.8050 N   0  0  0  0  0  2  0  0  0  0  0  0
  193.2580  175.7960  144.3540 C   0  0  1  0  0  3  0  0  0  0  0  0
  196.5350  174.9170  144.7110 N   0  0  0  0  0  2  0  0  0  0  0  0
  196.0910  177.0340  143.8670 O   0  0  0  0  0  0  0  0  0  0  0  0
  194.3700  173.8860  143.1790 C   0  0  0  0  0  3  0  0  0  0  0  0
  194.3980  175.3870  143.3870 C   0  0  1  0  0  0  0  0  0  0  0  0
  195.1790  173.0310  143.8060 C   0  0  0  0  0  3  0  0  0  0  0  0
  194.2250  175.9990  142.1440 O   0  0  0  0  0  1  0  0  0  0  0  0
  196.2310  173.5250  144.6960 C   0  0  0  0  0  0  0  0  0  0  0  0
  195.7230  175.8340  143.9740 C   0  0  0  0  0  0  0  0  0  0  0  0
  196.9690  172.6940  145.3520 N   0  0  0  0  0  2  0  0  0  0  0  0
  193.5200  176.9070  145.3840 C   0  0  0  0  0  2  0  0  0  0  0  0
  193.6600  176.3820  146.8030 C   0  0  0  0  0  1  0  0  0  0  0  0
  1  3  1  6  0  0  0
  1  4  1  0  0  0  0
  1  5  1  0  0  0  0
  4  5  1  0  0  0  0
  4  2  1  1  0  0  0
  5  8  1  6  0  0  0
  5  6  1  0  0  0  0
  6  7  2  0  0  0  0
  8  9  1  0  0  0  0
 10 11  1  0  0  0  0
 10  9  1  0  0  0  0
 11 15  1  0  0  0  0
 11 12  1  1  0  0  0
 14 15  2  0  0  0  0
 15 13  1  0  0  0  0
 16 17  1  0  0  0  0
 16  4  1  0  0  0  0
 17 27  1  6  0  0  0
 19 25  2  0  0  0  0
 20 21  1  0  0  0  0
 20 22  2  0  0  0  0
 21 23  1  6  0  0  0
 21 25  1  0  0  0  0
 21 17  1  0  0  0  0
 22 24  1  0  0  0  0
 24 18  1  0  0  0  0
 24 26  2  0  0  0  0
 25 18  1  0  0  0  0
 27 28  1  0  0  0  0
M  END
>  <MODEL>
4

>  <REMARK>
 VINA RESULT:      -5.4      2.300      3.537
  Name = 
  10 active torsions:
  status: ('A' for Active; 'I' for Inactive)
    1  A    between atoms: C_2  and  O_9
    2  A    between atoms: C_2  and  C_24
    3  A    between atoms: C_3  and  C_24
    4  A    between atoms: C_3  and  C_27
    5  A    between atoms: C_5  and  C_20
    6  A    between atoms: O_9  and  C_28
    7  A    between atoms: S_10  and  C_28
    8  A    between atoms: C_12  and  C_20
    9  A    between atoms: N_15  and  C_20
   10  A    between atoms: N_15  and  C_23
                            x       y       z     vdW  Elec       q    Type
                         _______ _______ _______ _____ _____    ______ ____

>  <TORSDO>
F 10

$$$$
=
 OpenBabel11042418243D

 28 29  0  0  1  0  0  0  0  0999 V2000
  188.4470  177.4710  142.0720 C   0  0  1  0  0  3  0  0  0  0  0  0
  187.3830  175.2430  142.4250 O   0  0  0  0  0  1  0  0  0  0  0  0
  189.4390  178.2280  142.7010 O   0  0  0  0  0  1  0  0  0  0  0  0
  187.8940  176.4020  143.0140 C   0  0  2  0  0  0  0  0  0  0  0  0
  187.0890  177.6690  142.7610 C   0  0  2  0  0  0  0  0  0  0  0  0
  185.5980  177.4670  141.7440 S   0  0  0  0  0  3  0  0  0  0  0  0
  185.8960  178.2940  140.5000 O   0  0  0  0  0  0  0  0  0  0  0  0
  187.0330  178.5400  143.8660 O   0  0  0  0  0  0  0  0  0  0  0  0
  185.6790  178.7460  144.1550 C   0  0  0  0  0  2  0  0  0  0  0  0
  185.5480  179.4530  145.4920 C   0  0  0  0  0  2  0  0  0  0  0  0
  185.2570  178.4480  146.5950 C   0  0  1  0  0  3  0  0  0  0  0  0
  184.8020  177.1210  146.0090 C   0  0  0  0  0  1  0  0  0  0  0  0
  187.3300  177.0400  147.3150 C   0  0  0  0  0  1  0  0  0  0  0  0
  186.7660  179.1380  148.3320 N   0  0  0  0  0  2  0  0  0  0  0  0
  186.4660  178.2510  147.4590 C   0  0  0  0  0  0  0  0  0  0  0  0
  188.4680  176.2890  144.3610 N   0  0  0  0  0  2  0  0  0  0  0  0
  189.7790  175.6190  144.3970 C   0  0  1  0  0  3  0  0  0  0  0  0
  192.4050  174.5580  146.3000 N   0  0  0  0  0  2  0  0  0  0  0  0
  190.5370  175.3580  147.4230 O   0  0  0  0  0  0  0  0  0  0  0  0
  192.0760  176.6120  144.3560 C   0  0  0  0  0  3  0  0  0  0  0  0
  190.8800  176.3150  145.2370 C   0  0  1  0  0  0  0  0  0  0  0  0
  193.1800  175.8630  144.3220 C   0  0  0  0  0  3  0  0  0  0  0  0
  190.4080  177.5260  145.7480 O   0  0  0  0  0  1  0  0  0  0  0  0
  193.3320  174.7250  145.2300 C   0  0  0  0  0  0  0  0  0  0  0  0
  191.2610  175.4100  146.3930 C   0  0  0  0  0  0  0  0  0  0  0  0
  194.3710  173.9650  145.1500 N   0  0  0  0  0  2  0  0  0  0  0  0
  189.7410  174.0830  144.3480 C   0  0  0  0  0  2  0  0  0  0  0  0
  190.4060  173.5100  143.1080 C   0  0  0  0  0  1  0  0  0  0  0  0
  1  3  1  1  0  0  0
  1  5  1  0  0  0  0
  1  4  1  0  0  0  0
  4  2  1  6  0  0  0
  4 16  1  0  0  0  0
  5  6  1  6  0  0  0
  5  4  1  0  0  0  0
  5  8  1  0  0  0  0
  7  6  2  0  0  0  0
  8  9  1  0  0  0  0
  9 10  1  0  0  0  0
 10 11  1  0  0  0  0
 11 12  1  6  0  0  0
 11 15  1  0  0  0  0
 13 15  1  0  0  0  0
 15 14  2  0  0  0  0
 16 17  1  0  0  0  0
 17 27  1  1  0  0  0
 17 21  1  0  0  0  0
 18 25  1  0  0  0  0
 20 21  1  0  0  0  0
 21 23  1  1  0  0  0
 21 25  1  0  0  0  0
 22 20  2  0  0  0  0
 22 24  1  0  0  0  0
 24 18  1  0  0  0  0
 25 19  2  0  0  0  0
 26 24  2  0  0  0  0
 28 27  1  0  0  0  0
M  END
>  <MODEL>
5

>  <REMARK>
 VINA RESULT:      -5.3      2.372      3.091
  Name = 
  10 active torsions:
  status: ('A' for Active; 'I' for Inactive)
    1  A    between atoms: C_2  and  O_9
    2  A    between atoms: C_2  and  C_24
    3  A    between atoms: C_3  and  C_24
    4  A    between atoms: C_3  and  C_27
    5  A    between atoms: C_5  and  C_20
    6  A    between atoms: O_9  and  C_28
    7  A    between atoms: S_10  and  C_28
    8  A    between atoms: C_12  and  C_20
    9  A    between atoms: N_15  and  C_20
   10  A    between atoms: N_15  and  C_23
                            x       y       z     vdW  Elec       q    Type
                         _______ _______ _______ _____ _____    ______ ____

>  <TORSDO>
F 10

$$$$
=
 OpenBabel11042418243D

 28 29  0  0  1  0  0  0  0  0999 V2000
  190.9930  177.5320  142.9790 C   0  0  1  0  0  3  0  0  0  0  0  0
  191.9550  175.2330  143.0650 O   0  0  0  0  0  1  0  0  0  0  0  0
  191.2160  178.7460  143.6350 O   0  0  0  0  0  1  0  0  0  0  0  0
  191.5590  176.3630  143.7840 C   0  0  2  0  0  0  0  0  0  0  0  0
  190.0600  176.6300  143.8010 C   0  0  2  0  0  0  0  0  0  0  0  0
  189.0350  175.4390  142.8920 S   0  0  0  0  0  3  0  0  0  0  0  0
  188.3600  176.2860  141.8220 O   0  0  0  0  0  0  0  0  0  0  0  0
  189.5820  177.1250  145.0300 O   0  0  0  0  0  0  0  0  0  0  0  0
  188.5080  176.3110  145.4070 C   0  0  0  0  0  2  0  0  0  0  0  0
  187.5330  177.1150  146.2480 C   0  0  0  0  0  2  0  0  0  0  0  0
  186.1130  176.9250  145.7380 C   0  0  1  0  0  3  0  0  0  0  0  0
  185.1050  177.4900  146.7260 C   0  0  0  0  0  1  0  0  0  0  0  0
  186.2940  179.0050  144.1780 C   0  0  0  0  0  1  0  0  0  0  0  0
  185.5020  176.8730  143.4150 N   0  0  0  0  0  2  0  0  0  0  0  0
  185.9460  177.5680  144.3950 C   0  0  0  0  0  0  0  0  0  0  0  0
  192.2550  176.6510  145.0440 N   0  0  0  0  0  2  0  0  0  0  0  0
  192.9120  175.4770  145.6440 C   0  0  1  0  0  3  0  0  0  0  0  0
  195.1670  173.9670  143.5760 N   0  0  0  0  0  2  0  0  0  0  0  0
  194.9160  173.0730  145.7040 O   0  0  0  0  0  0  0  0  0  0  0  0
  194.9420  176.5800  144.6820 C   0  0  0  0  0  3  0  0  0  0  0  0
  194.4580  175.4340  145.5470 C   0  0  1  0  0  0  0  0  0  0  0  0
  195.2890  176.4510  143.4000 C   0  0  0  0  0  3  0  0  0  0  0  0
  195.0280  175.5790  146.8140 O   0  0  0  0  0  1  0  0  0  0  0  0
  195.3020  175.1320  142.7660 C   0  0  0  0  0  0  0  0  0  0  0  0
  194.8780  174.0960  144.9700 C   0  0  0  0  0  0  0  0  0  0  0  0
  195.5750  175.0190  141.5100 N   0  0  0  0  0  2  0  0  0  0  0  0
  192.2290  174.9020  146.8970 C   0  0  0  0  0  2  0  0  0  0  0  0
  191.4650  175.9460  147.6910 C   0  0  0  0  0  1  0  0  0  0  0  0
  1  3  1  1  0  0  0
  1  4  1  0  0  0  0
  1  5  1  0  0  0  0
  4  2  1  6  0  0  0
  4  5  1  0  0  0  0
  4 16  1  0  0  0  0
  5  6  1  6  0  0  0
  5  8  1  0  0  0  0
  7  6  2  0  0  0  0
  8  9  1  0  0  0  0
  9 10  1  0  0  0  0
 11 10  1  0  0  0  0
 11 12  1  1  0  0  0
 13 15  1  0  0  0  0
 14 15  2  0  0  0  0
 15 11  1  0  0  0  0
 16 17  1  0  0  0  0
 17 27  1  1  0  0  0
 18 25  1  0  0  0  0
 20 21  1  0  0  0  0
 21 17  1  0  0  0  0
 21 23  1  1  0  0  0
 22 20  2  0  0  0  0
 24 22  1  0  0  0  0
 24 18  1  0  0  0  0
 25 21  1  0  0  0  0
 25 19  2  0  0  0  0
 26 24  2  0  0  0  0
 27 28  1  0  0  0  0
M  END
>  <MODEL>
6

>  <REMARK>
 VINA RESULT:      -5.3      1.807      2.350
  Name = 
  10 active torsions:
  status: ('A' for Active; 'I' for Inactive)
    1  A    between atoms: C_2  and  O_9
    2  A    between atoms: C_2  and  C_24
    3  A    between atoms: C_3  and  C_24
    4  A    between atoms: C_3  and  C_27
    5  A    between atoms: C_5  and  C_20
    6  A    between atoms: O_9  and  C_28
    7  A    between atoms: S_10  and  C_28
    8  A    between atoms: C_12  and  C_20
    9  A    between atoms: N_15  and  C_20
   10  A    between atoms: N_15  and  C_23
                            x       y       z     vdW  Elec       q    Type
                         _______ _______ _______ _____ _____    ______ ____

>  <TORSDO>
F 10

$$$$
=
 OpenBabel11042418243D

 28 29  0  0  1  0  0  0  0  0999 V2000
  189.0570  175.3550  147.2690 C   0  0  1  0  0  3  0  0  0  0  0  0
  190.1410  177.6010  147.2290 O   0  0  0  0  0  1  0  0  0  0  0  0
  189.2500  174.1280  146.6270 O   0  0  0  0  0  1  0  0  0  0  0  0
  189.7240  176.4890  146.4920 C   0  0  2  0  0  0  0  0  0  0  0  0
  188.2160  176.3010  146.3990 C   0  0  2  0  0  0  0  0  0  0  0  0
  187.2090  177.5470  147.2520 S   0  0  0  0  0  3  0  0  0  0  0  0
  185.9710  176.7750  147.6870 O   0  0  0  0  0  0  0  0  0  0  0  0
  187.7770  175.8260  145.1470 O   0  0  0  0  0  0  0  0  0  0  0  0
  187.1900  176.9100  144.4840 C   0  0  0  0  0  2  0  0  0  0  0  0
  186.0520  176.4130  143.6110 C   0  0  0  0  0  2  0  0  0  0  0  0
  186.0020  177.1980  142.3090 C   0  0  1  0  0  3  0  0  0  0  0  0
  185.6960  178.6640  142.5750 C   0  0  0  0  0  1  0  0  0  0  0  0
  187.8180  175.7190  141.1640 C   0  0  0  0  0  1  0  0  0  0  0  0
  187.9590  178.1120  141.2560 N   0  0  0  0  0  2  0  0  0  0  0  0
  187.2940  177.0610  141.5630 C   0  0  0  0  0  0  0  0  0  0  0  0
  190.4680  176.1600  145.2700 N   0  0  0  0  0  2  0  0  0  0  0  0
  191.8050  176.7730  145.2020 C   0  0  1  0  0  3  0  0  0  0  0  0
  194.5310  175.3390  143.7340 N   0  0  0  0  0  2  0  0  0  0  0  0
  192.7750  173.9340  144.3100 O   0  0  0  0  0  0  0  0  0  0  0  0
  194.1210  176.7880  146.1500 C   0  0  0  0  0  3  0  0  0  0  0  0
  192.9850  175.8960  145.6940 C   0  0  1  0  0  0  0  0  0  0  0  0
  195.1970  177.0610  145.4100 C   0  0  0  0  0  3  0  0  0  0  0  0
  192.5880  175.1120  146.7790 O   0  0  0  0  0  1  0  0  0  0  0  0
  195.3820  176.4210  144.1060 C   0  0  0  0  0  0  0  0  0  0  0  0
  193.4230  174.9840  144.5640 C   0  0  0  0  0  0  0  0  0  0  0  0
  196.3900  176.7360  143.3650 N   0  0  0  0  0  2  0  0  0  0  0  0
  192.0360  177.7380  144.0270 C   0  0  0  0  0  2  0  0  0  0  0  0
  191.0260  177.5630  142.9070 C   0  0  0  0  0  1  0  0  0  0  0  0
  1  3  1  6  0  0  0
  4  2  1  1  0  0  0
  4  1  1  0  0  0  0
  5  8  1  6  0  0  0
  5  4  1  0  0  0  0
  5  6  1  0  0  0  0
  5  1  1  0  0  0  0
  6  7  2  0  0  0  0
  9  8  1  0  0  0  0
 10  9  1  0  0  0  0
 11 12  1  1  0  0  0
 11 10  1  0  0  0  0
 13 15  1  0  0  0  0
 14 15  2  0  0  0  0
 15 11  1  0  0  0  0
 16  4  1  0  0  0  0
 17 27  1  6  0  0  0
 17 16  1  0  0  0  0
 17 21  1  0  0  0  0
 18 24  1  0  0  0  0
 18 25  1  0  0  0  0
 19 25  2  0  0  0  0
 21 20  1  0  0  0  0
 21 23  1  1  0  0  0
 22 20  2  0  0  0  0
 24 22  1  0  0  0  0
 25 21  1  0  0  0  0
 26 24  2  0  0  0  0
 28 27  1  0  0  0  0
M  END
>  <MODEL>
7

>  <REMARK>
 VINA RESULT:      -5.3      2.433      3.672
  Name = 
  10 active torsions:
  status: ('A' for Active; 'I' for Inactive)
    1  A    between atoms: C_2  and  O_9
    2  A    between atoms: C_2  and  C_24
    3  A    between atoms: C_3  and  C_24
    4  A    between atoms: C_3  and  C_27
    5  A    between atoms: C_5  and  C_20
    6  A    between atoms: O_9  and  C_28
    7  A    between atoms: S_10  and  C_28
    8  A    between atoms: C_12  and  C_20
    9  A    between atoms: N_15  and  C_20
   10  A    between atoms: N_15  and  C_23
                            x       y       z     vdW  Elec       q    Type
                         _______ _______ _______ _____ _____    ______ ____

>  <TORSDO>
F 10

$$$$
=
 OpenBabel11042418243D

 28 29  0  0  1  0  0  0  0  0999 V2000
  190.3420  177.9180  144.6780 C   0  0  1  0  0  3  0  0  0  0  0  0
  189.6890  177.5330  147.0550 O   0  0  0  0  0  1  0  0  0  0  0  0
  189.6880  177.9540  143.4440 O   0  0  0  0  0  1  0  0  0  0  0  0
  189.5080  177.1700  145.7180 C   0  0  2  0  0  0  0  0  0  0  0  0
  190.6950  176.4740  145.0670 C   0  0  2  0  0  0  0  0  0  0  0  0
  192.1460  176.2270  146.1310 S   0  0  0  0  0  3  0  0  0  0  0  0
  193.3180  176.6170  145.2390 O   0  0  0  0  0  0  0  0  0  0  0  0
  190.3360  175.4460  144.1740 O   0  0  0  0  0  0  0  0  0  0  0  0
  190.8940  174.2620  144.6700 C   0  0  0  0  0  2  0  0  0  0  0  0
  191.3860  173.4110  143.5140 C   0  0  0  0  0  2  0  0  0  0  0  0
  190.3550  172.3510  143.1600 C   0  0  1  0  0  3  0  0  0  0  0  0
  189.5660  171.9330  144.3910 C   0  0  0  0  0  1  0  0  0  0  0  0
  189.9570  173.5430  140.8760 C   0  0  0  0  0  1  0  0  0  0  0  0
  188.1680  172.6800  142.2210 N   0  0  0  0  0  2  0  0  0  0  0  0
  189.4310  172.8520  142.0920 C   0  0  0  0  0  0  0  0  0  0  0  0
  188.1920  176.6530  145.3220 N   0  0  0  0  0  2  0  0  0  0  0  0
  187.0640  177.4850  145.7730 C   0  0  1  0  0  3  0  0  0  0  0  0
  186.5240  179.0170  142.7720 N   0  0  0  0  0  2  0  0  0  0  0  0
  185.5540  179.9850  144.6460 O   0  0  0  0  0  0  0  0  0  0  0  0
  185.8990  176.4440  143.8170 C   0  0  0  0  0  3  0  0  0  0  0  0
  185.8650  177.6000  144.7960 C   0  0  1  0  0  0  0  0  0  0  0  0
  186.3670  176.5370  142.5710 C   0  0  0  0  0  3  0  0  0  0  0  0
  184.6590  177.5360  145.4980 O   0  0  0  0  0  1  0  0  0  0  0  0
  186.8090  177.8280  142.0400 C   0  0  0  0  0  0  0  0  0  0  0  0
  185.9450  178.9320  144.0760 C   0  0  0  0  0  0  0  0  0  0  0  0
  187.3210  177.9020  140.8580 N   0  0  0  0  0  2  0  0  0  0  0  0
  186.7910  177.4700  147.2860 C   0  0  0  0  0  2  0  0  0  0  0  0
  186.5940  178.8590  147.8690 C   0  0  0  0  0  1  0  0  0  0  0  0
  1  3  1  6  0  0  0
  1  5  1  0  0  0  0
  1  4  1  0  0  0  0
  4  2  1  1  0  0  0
  5  8  1  6  0  0  0
  5  4  1  0  0  0  0
  5  6  1  0  0  0  0
  7  6  2  0  0  0  0
  8  9  1  0  0  0  0
 10  9  1  0  0  0  0
 11 10  1  0  0  0  0
 11 12  1  1  0  0  0
 13 15  1  0  0  0  0
 15 14  2  0  0  0  0
 15 11  1  0  0  0  0
 16  4  1  0  0  0  0
 16 17  1  0  0  0  0
 17 27  1  1  0  0  0
 18 25  1  0  0  0  0
 20 21  1  0  0  0  0
 21 23  1  1  0  0  0
 21 17  1  0  0  0  0
 22 20  2  0  0  0  0
 24 22  1  0  0  0  0
 24 18  1  0  0  0  0
 25 19  2  0  0  0  0
 25 21  1  0  0  0  0
 26 24  2  0  0  0  0
 27 28  1  0  0  0  0
M  END
>  <MODEL>
8

>  <REMARK>
 VINA RESULT:      -5.3      2.962      6.729
  Name = 
  10 active torsions:
  status: ('A' for Active; 'I' for Inactive)
    1  A    between atoms: C_2  and  O_9
    2  A    between atoms: C_2  and  C_24
    3  A    between atoms: C_3  and  C_24
    4  A    between atoms: C_3  and  C_27
    5  A    between atoms: C_5  and  C_20
    6  A    between atoms: O_9  and  C_28
    7  A    between atoms: S_10  and  C_28
    8  A    between atoms: C_12  and  C_20
    9  A    between atoms: N_15  and  C_20
   10  A    between atoms: N_15  and  C_23
                            x       y       z     vdW  Elec       q    Type
                         _______ _______ _______ _____ _____    ______ ____

>  <TORSDO>
F 10

$$$$
=
 OpenBabel11042418243D

 28 29  0  0  1  0  0  0  0  0999 V2000
  189.4700  174.8640  146.2050 C   0  0  1  0  0  3  0  0  0  0  0  0
  190.6860  176.9640  146.7820 O   0  0  0  0  0  1  0  0  0  0  0  0
  189.6640  173.7930  145.3290 O   0  0  0  0  0  1  0  0  0  0  0  0
  190.2940  176.0770  145.7770 C   0  0  2  0  0  0  0  0  0  0  0  0
  188.8010  176.0440  145.4850 C   0  0  2  0  0  0  0  0  0  0  0  0
  187.7760  177.1610  146.4850 S   0  0  0  0  0  3  0  0  0  0  0  0
  186.4200  176.4680  146.5240 O   0  0  0  0  0  0  0  0  0  0  0  0
  188.4880  175.8900  144.1200 O   0  0  0  0  0  0  0  0  0  0  0  0
  187.9950  177.1210  143.6730 C   0  0  0  0  0  2  0  0  0  0  0  0
  186.7710  176.8930  142.8060 C   0  0  0  0  0  2  0  0  0  0  0  0
  186.2670  178.2130  142.2440 C   0  0  1  0  0  3  0  0  0  0  0  0
  185.8380  178.0540  140.7940 C   0  0  0  0  0  1  0  0  0  0  0  0
  185.3470  179.8110  144.0870 C   0  0  0  0  0  1  0  0  0  0  0  0
  183.9560  178.2590  142.8990 N   0  0  0  0  0  2  0  0  0  0  0  0
  185.1320  178.7370  143.0710 C   0  0  0  0  0  0  0  0  0  0  0  0
  191.1600  175.9560  144.5960 N   0  0  0  0  0  2  0  0  0  0  0  0
  192.5630  175.6430  144.9160 C   0  0  1  0  0  3  0  0  0  0  0  0
  195.6700  174.7700  143.8070 N   0  0  0  0  0  2  0  0  0  0  0  0
  194.1060  175.3820  142.2040 O   0  0  0  0  0  0  0  0  0  0  0  0
  193.6240  173.3990  145.2340 C   0  0  0  0  0  3  0  0  0  0  0  0
  193.1690  174.4090  144.2000 C   0  0  1  0  0  0  0  0  0  0  0  0
  194.8910  173.2530  145.6260 C   0  0  0  0  0  3  0  0  0  0  0  0
  192.2090  173.7970  143.3910 O   0  0  0  0  0  1  0  0  0  0  0  0
  195.9560  174.0310  144.9920 C   0  0  0  0  0  0  0  0  0  0  0  0
  194.3250  174.8630  143.3310 C   0  0  0  0  0  0  0  0  0  0  0  0
  197.1700  173.9360  145.4180 N   0  0  0  0  0  2  0  0  0  0  0  0
  193.4660  176.8550  145.1990 C   0  0  0  0  0  2  0  0  0  0  0  0
  194.1110  176.8090  146.5730 C   0  0  0  0  0  1  0  0  0  0  0  0
  1  3  1  6  0  0  0
  4  1  1  0  0  0  0
  4  2  1  1  0  0  0
  5  8  1  6  0  0  0
  5  4  1  0  0  0  0
  5  1  1  0  0  0  0
  5  6  1  0  0  0  0
  6  7  2  0  0  0  0
  9  8  1  0  0  0  0
 10  9  1  0  0  0  0
 11 12  1  6  0  0  0
 11 10  1  0  0  0  0
 11 15  1  0  0  0  0
 14 15  2  0  0  0  0
 15 13  1  0  0  0  0
 16 17  1  0  0  0  0
 16  4  1  0  0  0  0
 17 27  1  6  0  0  0
 18 24  1  0  0  0  0
 19 25  2  0  0  0  0
 20 22  2  0  0  0  0
 21 23  1  6  0  0  0
 21 17  1  0  0  0  0
 21 20  1  0  0  0  0
 24 26  2  0  0  0  0
 24 22  1  0  0  0  0
 25 18  1  0  0  0  0
 25 21  1  0  0  0  0
 27 28  1  0  0  0  0
M  END
>  <MODEL>
9

>  <REMARK>
 VINA RESULT:      -5.3      2.186      3.320
  Name = 
  10 active torsions:
  status: ('A' for Active; 'I' for Inactive)
    1  A    between atoms: C_2  and  O_9
    2  A    between atoms: C_2  and  C_24
    3  A    between atoms: C_3  and  C_24
    4  A    between atoms: C_3  and  C_27
    5  A    between atoms: C_5  and  C_20
    6  A    between atoms: O_9  and  C_28
    7  A    between atoms: S_10  and  C_28
    8  A    between atoms: C_12  and  C_20
    9  A    between atoms: N_15  and  C_20
   10  A    between atoms: N_15  and  C_23
                            x       y       z     vdW  Elec       q    Type
                         _______ _______ _______ _____ _____    ______ ____

>  <TORSDO>
F 10

$$$$
