=
 OpenBabel11042417003D

 38 44  0  0  1  0  0  0  0  0999 V2000
  193.3550  175.3290  144.9890 O   0  0  0  0  0  0  0  0  0  0  0  0
  189.2660  174.7960  143.7210 C   0  0  0  0  0  2  0  0  0  0  0  0
  189.6270  177.2400  143.2930 C   0  0  0  0  0  0  0  0  0  0  0  0
  191.0090  171.7260  143.6080 O   0  0  0  0  0  0  0  0  0  0  0  0
  189.9550  173.7510  142.8480 C   0  0  1  0  0  3  0  0  0  0  0  0
  191.2070  173.1150  143.4730 C   0  0  1  0  0  3  0  0  0  0  0  0
  190.0360  176.0340  143.7350 N   0  0  0  0  0  0  0  0  0  0  0  0
  189.0370  172.5920  142.6410 C   0  0  2  0  0  3  0  0  0  0  0  0
  192.1600  175.0940  144.6660 C   0  0  0  0  0  0  0  0  0  0  0  0
  191.6300  173.7050  144.8210 C   0  0  0  0  0  2  0  0  0  0  0  0
  191.3080  176.1860  144.1560 C   0  0  0  0  0  0  0  0  0  0  0  0
  189.9550  171.3840  142.7440 C   0  0  1  0  0  3  0  0  0  0  0  0
  190.6380  178.1750  143.4510 C   0  0  0  0  0  3  0  0  0  0  0  0
  191.7190  177.4980  143.9980 C   0  0  0  0  0  3  0  0  0  0  0  0
  185.7410  177.2430  145.5220 C   0  0  1  0  0  3  0  0  0  0  0  0
  187.0130  177.7690  144.9420 C   0  0  0  0  0  0  0  0  0  0  0  0
  184.7460  178.0260  147.4750 N   0  0  0  0  0  0  0  0  0  0  0  0
  184.1990  178.5450  144.0610 N   0  0  0  0  0  0  0  0  0  0  0  0
  186.6320  177.7030  141.2240 C   0  0  0  0  0  0  0  0  0  0  0  0
  184.0170  178.6040  146.4350 N   0  0  0  0  0  2  0  0  0  0  0  0
  184.7740  178.2440  142.7750 C   0  0  0  0  0  3  0  0  0  0  0  0
  187.1540  177.7330  143.4820 C   0  0  0  0  0  0  0  0  0  0  0  0
  187.9370  177.5140  141.3390 C   0  0  0  0  0  3  0  0  0  0  0  0
  186.0410  177.8680  142.5440 C   0  0  0  0  0  0  0  0  0  0  0  0
  185.7070  177.2810  147.0250 C   0  0  0  0  0  3  0  0  0  0  0  0
  187.9160  178.2650  145.6720 O   0  0  0  0  0  0  0  0  0  0  0  0
  185.9100  177.7770  139.9240 C   0  0  0  0  0  1  0  0  0  0  0  0
  188.2700  177.5280  142.7700 C   0  0  0  0  0  0  0  0  0  0  0  0
  184.6220  178.1720  145.2310 C   0  0  0  0  0  0  0  0  0  0  0  0
  190.4760  171.0190  141.4950 O   0  0  0  0  0  0  0  0  0  0  0  0
  190.8490  169.6830  141.6430 C   0  0  0  0  0  1  0  0  0  0  0  0
  188.2900  172.7070  141.3140 C   0  0  0  0  0  2  0  0  0  0  0  0
  188.7450  173.9330  140.5410 C   0  0  0  0  0  2  0  0  0  0  0  0
  188.5760  173.7040  139.0470 C   0  0  0  0  0  2  0  0  0  0  0  0
  189.6440  171.5070  138.0560 C   0  0  0  0  0  1  0  0  0  0  0  0
  191.1350  173.3970  138.9620 C   0  0  0  0  0  2  0  0  0  0  0  0
  189.7710  172.9560  138.4850 C   0  0  0  0  0  0  0  0  0  0  0  0
  190.6400  173.7880  137.5740 C   0  0  0  0  0  2  0  0  0  0  0  0
  2  7  1  0  0  0  0
  3 13  2  0  0  0  0
  3  7  1  0  0  0  0
  5  6  1  0  0  0  0
  5  2  1  1  0  0  0
  6  4  1  0  0  0  0
  6 10  1  1  0  0  0
  7 11  1  0  0  0  0
  8 32  1  6  0  0  0
  8 12  1  0  0  0  0
  8  5  1  0  0  0  0
  9 10  1  0  0  0  0
  9  1  2  0  0  0  0
 11  9  1  0  0  0  0
 12 30  1  6  0  0  0
 12  4  1  0  0  0  0
 13 14  1  0  0  0  0
 14 11  2  0  0  0  0
 15 25  1  1  0  0  0
 16 15  1  0  0  0  0
 16 26  2  0  0  0  0
 18 29  2  0  0  0  0
 19 23  2  0  0  0  0
 19 24  1  0  0  0  0
 20 17  1  0  0  0  0
 21 18  1  0  0  0  0
 22 16  1  0  0  0  0
 23 28  1  0  0  0  0
 24 21  2  0  0  0  0
 24 22  1  0  0  0  0
 25 17  2  0  0  0  0
 27 19  1  0  0  0  0
 28  3  1  0  0  0  0
 28 22  2  0  0  0  0
 29 15  1  0  0  0  0
 29 20  1  0  0  0  0
 30 31  1  0  0  0  0
 33 32  1  0  0  0  0
 34 33  1  0  0  0  0
 35 37  1  0  0  0  0
 37 36  1  0  0  0  0
 37 34  1  0  0  0  0
 38 37  1  0  0  0  0
 38 36  1  0  0  0  0
M  END
>  <MODEL>
1

>  <REMARK>
 VINA RESULT:      -8.4      0.000      0.000
  Name = 
  6 active torsions:
  status: ('A' for Active; 'I' for Inactive)
    1  A    between atoms: C_5  and  C_35
    2  A    between atoms: O_7  and  C_30
    3  A    between atoms: C_16  and  C_19
    4  A    between atoms: C_16  and  C_23
    5  A    between atoms: C_23  and  C_34
    6  A    between atoms: C_25  and  C_34
                            x       y       z     vdW  Elec       q    Type
                         _______ _______ _______ _____ _____    ______ ____

>  <TORSDO>
F 6

$$$$
=
 OpenBabel11042417003D

 38 44  0  0  1  0  0  0  0  0999 V2000
  188.9230  173.1870  139.4540 O   0  0  0  0  0  0  0  0  0  0  0  0
  190.2800  174.7330  143.2470 C   0  0  0  0  0  2  0  0  0  0  0  0
  192.4440  174.3470  142.0390 C   0  0  0  0  0  0  0  0  0  0  0  0
  186.9530  175.7400  142.6160 O   0  0  0  0  0  0  0  0  0  0  0  0
  189.3480  175.8620  142.8150 C   0  0  1  0  0  3  0  0  0  0  0  0
  188.1550  175.4190  141.9540 C   0  0  1  0  0  3  0  0  0  0  0  0
  191.0990  174.2930  142.1230 N   0  0  0  0  0  0  0  0  0  0  0  0
  188.7070  176.4660  144.0210 C   0  0  2  0  0  3  0  0  0  0  0  0
  189.2350  173.6180  140.5960 C   0  0  0  0  0  0  0  0  0  0  0  0
  188.1470  173.9360  141.5710 C   0  0  0  0  0  2  0  0  0  0  0  0
  190.6570  173.7920  140.9530 C   0  0  0  0  0  0  0  0  0  0  0  0
  187.2730  176.7120  143.5800 C   0  0  1  0  0  3  0  0  0  0  0  0
  192.8660  173.8560  140.8140 C   0  0  0  0  0  3  0  0  0  0  0  0
  191.7200  173.5070  140.1130 C   0  0  0  0  0  3  0  0  0  0  0  0
  194.4870  171.8890  145.1790 C   0  0  1  0  0  3  0  0  0  0  0  0
  194.2840  172.5960  143.8780 C   0  0  0  0  0  0  0  0  0  0  0  0
  195.7650  169.9630  145.4590 N   0  0  0  0  0  0  0  0  0  0  0  0
  196.3010  173.3700  146.0310 N   0  0  0  0  0  0  0  0  0  0  0  0
  194.2140  176.2590  144.6230 C   0  0  0  0  0  0  0  0  0  0  0  0
  196.5700  171.0070  145.9160 N   0  0  0  0  0  2  0  0  0  0  0  0
  195.6850  174.6540  145.8110 C   0  0  0  0  0  3  0  0  0  0  0  0
  194.1040  174.0520  143.9240 C   0  0  0  0  0  0  0  0  0  0  0  0
  193.4110  176.2080  143.5720 C   0  0  0  0  0  3  0  0  0  0  0  0
  194.7200  174.9270  144.9190 C   0  0  0  0  0  0  0  0  0  0  0  0
  194.6190  170.3980  145.0350 C   0  0  0  0  0  3  0  0  0  0  0  0
  194.3070  171.9770  142.7790 O   0  0  0  0  0  0  0  0  0  0  0  0
  194.5650  177.5120  145.3470 C   0  0  0  0  0  1  0  0  0  0  0  0
  193.3360  174.8080  143.1290 C   0  0  0  0  0  0  0  0  0  0  0  0
  195.8310  172.1980  145.7260 C   0  0  0  0  0  0  0  0  0  0  0  0
  187.1120  177.9890  143.0240 O   0  0  0  0  0  0  0  0  0  0  0  0
  185.9270  178.4720  143.5790 C   0  0  0  0  0  1  0  0  0  0  0  0
  189.4520  177.7190  144.4760 C   0  0  0  0  0  2  0  0  0  0  0  0
  190.4960  177.3770  145.5250 C   0  0  0  0  0  2  0  0  0  0  0  0
  189.8220  177.0350  146.8450 C   0  0  0  0  0  2  0  0  0  0  0  0
  189.0730  174.5730  147.4160 C   0  0  0  0  0  1  0  0  0  0  0  0
  191.3890  175.4370  148.1270 C   0  0  0  0  0  2  0  0  0  0  0  0
  190.1630  175.6160  147.2630 C   0  0  0  0  0  0  0  0  0  0  0  0
  191.4330  175.0850  146.6440 C   0  0  0  0  0  2  0  0  0  0  0  0
  1  9  2  0  0  0  0
  3  7  1  0  0  0  0
  3 28  1  0  0  0  0
  4 12  1  0  0  0  0
  5  2  1  1  0  0  0
  5  8  1  0  0  0  0
  6 10  1  1  0  0  0
  6  4  1  0  0  0  0
  6  5  1  0  0  0  0
  7  2  1  0  0  0  0
  8 32  1  6  0  0  0
  9 11  1  0  0  0  0
  9 10  1  0  0  0  0
 11  7  1  0  0  0  0
 12 30  1  6  0  0  0
 12  8  1  0  0  0  0
 13  3  2  0  0  0  0
 14 13  1  0  0  0  0
 14 11  2  0  0  0  0
 15 25  1  6  0  0  0
 15 29  1  0  0  0  0
 16 22  1  0  0  0  0
 16 15  1  0  0  0  0
 17 20  1  0  0  0  0
 19 24  1  0  0  0  0
 19 27  1  0  0  0  0
 21 18  1  0  0  0  0
 22 24  1  0  0  0  0
 23 19  2  0  0  0  0
 24 21  2  0  0  0  0
 25 17  2  0  0  0  0
 26 16  2  0  0  0  0
 28 23  1  0  0  0  0
 28 22  2  0  0  0  0
 29 20  1  0  0  0  0
 29 18  2  0  0  0  0
 30 31  1  0  0  0  0
 32 33  1  0  0  0  0
 33 34  1  0  0  0  0
 34 37  1  0  0  0  0
 37 35  1  0  0  0  0
 37 36  1  0  0  0  0
 38 37  1  0  0  0  0
 38 36  1  0  0  0  0
M  END
>  <MODEL>
2

>  <REMARK>
 VINA RESULT:      -7.9      3.443      8.394
  Name = 
  6 active torsions:
  status: ('A' for Active; 'I' for Inactive)
    1  A    between atoms: C_5  and  C_35
    2  A    between atoms: O_7  and  C_30
    3  A    between atoms: C_16  and  C_19
    4  A    between atoms: C_16  and  C_23
    5  A    between atoms: C_23  and  C_34
    6  A    between atoms: C_25  and  C_34
                            x       y       z     vdW  Elec       q    Type
                         _______ _______ _______ _____ _____    ______ ____

>  <TORSDO>
F 6

$$$$
=
 OpenBabel11042417003D

 38 44  0  0  1  0  0  0  0  0999 V2000
  186.4430  177.8930  147.6320 O   0  0  0  0  0  0  0  0  0  0  0  0
  188.8350  176.6090  144.2780 C   0  0  0  0  0  2  0  0  0  0  0  0
  189.2950  174.8100  145.9630 C   0  0  0  0  0  0  0  0  0  0  0  0
  186.2170  178.7210  143.1980 O   0  0  0  0  0  0  0  0  0  0  0  0
  187.4660  176.7060  143.6090 C   0  0  1  0  0  3  0  0  0  0  0  0
  186.5370  177.7800  144.1970 C   0  0  1  0  0  3  0  0  0  0  0  0
  188.7180  175.9670  145.5830 N   0  0  0  0  0  0  0  0  0  0  0  0
  187.6360  177.1270  142.1870 C   0  0  2  0  0  3  0  0  0  0  0  0
  187.1350  177.6040  146.6190 C   0  0  0  0  0  0  0  0  0  0  0  0
  187.0840  178.5080  145.4280 C   0  0  0  0  0  2  0  0  0  0  0  0
  187.9820  176.3960  146.6270 C   0  0  0  0  0  0  0  0  0  0  0  0
  186.4950  178.1070  141.9650 C   0  0  1  0  0  3  0  0  0  0  0  0
  188.9430  174.5070  147.2680 C   0  0  0  0  0  3  0  0  0  0  0  0
  188.0940  175.5190  147.6920 C   0  0  0  0  0  3  0  0  0  0  0  0
  193.3270  175.9870  144.4030 C   0  0  1  0  0  3  0  0  0  0  0  0
  192.3070  175.4140  145.3330 C   0  0  0  0  0  0  0  0  0  0  0  0
  195.3470  176.9360  145.0670 N   0  0  0  0  0  0  0  0  0  0  0  0
  194.3990  173.8240  143.7850 N   0  0  0  0  0  0  0  0  0  0  0  0
  190.8350  172.4260  143.6370 C   0  0  0  0  0  0  0  0  0  0  0  0
  195.6730  175.6560  144.6150 N   0  0  0  0  0  2  0  0  0  0  0  0
  193.2250  173.0620  143.4460 C   0  0  0  0  0  2  0  0  0  0  0  0
  191.5020  174.2910  144.8400 C   0  0  0  0  0  0  0  0  0  0  0  0
  189.8020  172.8290  144.3600 C   0  0  0  0  0  2  0  0  0  0  0  0
  191.9780  173.2920  143.8860 C   0  0  0  0  0  0  0  0  0  0  0  0
  194.0720  177.1590  144.9790 C   0  0  0  0  0  3  0  0  0  0  0  0
  192.1700  175.8480  146.5100 O   0  0  0  0  0  0  0  0  0  0  0  0
  190.8160  171.2330  142.7460 C   0  0  0  0  0  1  0  0  0  0  0  0
  190.2210  174.0160  145.1210 C   0  0  0  0  0  0  0  0  0  0  0  0
  194.4580  175.0400  144.2370 C   0  0  0  0  0  0  0  0  0  0  0  0
  185.3420  177.4650  141.4940 O   0  0  0  0  0  0  0  0  0  0  0  0
  184.8500  178.3060  140.4950 C   0  0  0  0  0  1  0  0  0  0  0  0
  187.6270  175.9230  141.2480 C   0  0  0  0  0  2  0  0  0  0  0  0
  188.7770  174.9820  141.5620 C   0  0  0  0  0  2  0  0  0  0  0  0
  188.5010  173.6040  140.9790 C   0  0  0  0  0  2  0  0  0  0  0  0
  190.8470  173.4810  139.7830 C   0  0  0  0  0  1  0  0  0  0  0  0
  188.6850  173.7140  138.4090 C   0  0  0  0  0  2  0  0  0  0  0  0
  189.3350  173.3790  139.7310 C   0  0  0  0  0  0  0  0  0  0  0  0
  188.8290  172.2620  138.8510 C   0  0  0  0  0  2  0  0  0  0  0  0
  2  7  1  0  0  0  0
  3 13  2  0  0  0  0
  4  6  1  0  0  0  0
  5  6  1  0  0  0  0
  5  2  1  1  0  0  0
  6 10  1  1  0  0  0
  7  3  1  0  0  0  0
  7 11  1  0  0  0  0
  8 32  1  6  0  0  0
  8  5  1  0  0  0  0
  9 11  1  0  0  0  0
  9  1  2  0  0  0  0
 10  9  1  0  0  0  0
 11 14  2  0  0  0  0
 12 30  1  1  0  0  0
 12  8  1  0  0  0  0
 12  4  1  0  0  0  0
 13 14  1  0  0  0  0
 15 25  1  1  0  0  0
 15 16  1  0  0  0  0
 16 26  2  0  0  0  0
 18 29  2  0  0  0  0
 19 24  2  0  0  0  0
 19 23  1  0  0  0  0
 20 17  1  0  0  0  0
 21 18  1  0  0  0  0
 21 24  1  0  0  0  0
 22 28  2  0  0  0  0
 22 16  1  0  0  0  0
 23 28  1  0  0  0  0
 24 22  1  0  0  0  0
 25 17  2  0  0  0  0
 27 19  1  0  0  0  0
 28  3  1  0  0  0  0
 29 15  1  0  0  0  0
 29 20  1  0  0  0  0
 31 30  1  0  0  0  0
 32 33  1  0  0  0  0
 34 33  1  0  0  0  0
 36 38  1  0  0  0  0
 36 37  1  0  0  0  0
 37 35  1  0  0  0  0
 37 34  1  0  0  0  0
 38 37  1  0  0  0  0
M  END
>  <MODEL>
3

>  <REMARK>
 VINA RESULT:      -7.9      2.509      6.767
  Name = 
  6 active torsions:
  status: ('A' for Active; 'I' for Inactive)
    1  A    between atoms: C_5  and  C_35
    2  A    between atoms: O_7  and  C_30
    3  A    between atoms: C_16  and  C_19
    4  A    between atoms: C_16  and  C_23
    5  A    between atoms: C_23  and  C_34
    6  A    between atoms: C_25  and  C_34
                            x       y       z     vdW  Elec       q    Type
                         _______ _______ _______ _____ _____    ______ ____

>  <TORSDO>
F 6

$$$$
=
 OpenBabel11042417003D

 38 44  0  0  1  0  0  0  0  0999 V2000
  191.1560  171.6880  139.3690 O   0  0  0  0  0  0  0  0  0  0  0  0
  191.4950  175.0140  142.0970 C   0  0  0  0  0  2  0  0  0  0  0  0
  189.8970  173.5090  143.3090 C   0  0  0  0  0  0  0  0  0  0  0  0
  194.3250  174.8460  139.9880 O   0  0  0  0  0  0  0  0  0  0  0  0
  192.9650  174.6270  141.9620 C   0  0  1  0  0  3  0  0  0  0  0  0
  193.3520  174.0290  140.5990 C   0  0  1  0  0  3  0  0  0  0  0  0
  190.6680  173.8220  142.2490 N   0  0  0  0  0  0  0  0  0  0  0  0
  193.8130  175.8520  142.0630 C   0  0  2  0  0  3  0  0  0  0  0  0
  191.2890  172.7090  140.0950 C   0  0  0  0  0  0  0  0  0  0  0  0
  192.1850  173.8130  139.6320 C   0  0  0  0  0  2  0  0  0  0  0  0
  190.5580  172.8020  141.3740 C   0  0  0  0  0  0  0  0  0  0  0  0
  194.8860  175.6330  141.0080 C   0  0  1  0  0  3  0  0  0  0  0  0
  189.2720  172.2890  143.1020 C   0  0  0  0  0  3  0  0  0  0  0  0
  189.7020  171.8320  141.8650 C   0  0  0  0  0  3  0  0  0  0  0  0
  187.9310  177.5300  143.5050 C   0  0  1  0  0  3  0  0  0  0  0  0
  188.0640  176.0430  143.5450 C   0  0  0  0  0  0  0  0  0  0  0  0
  186.0240  178.6760  142.8220 N   0  0  0  0  0  0  0  0  0  0  0  0
  187.4060  177.8370  145.9220 N   0  0  0  0  0  0  0  0  0  0  0  0
  190.1200  175.2080  146.5540 C   0  0  0  0  0  0  0  0  0  0  0  0
  186.0010  178.7260  144.2160 N   0  0  0  0  0  2  0  0  0  0  0  0
  188.4730  177.0620  146.5000 C   0  0  0  0  0  3  0  0  0  0  0  0
  188.9340  175.4720  144.5810 C   0  0  0  0  0  0  0  0  0  0  0  0
  190.4510  174.2110  145.7480 C   0  0  0  0  0  3  0  0  0  0  0  0
  189.1410  176.0640  145.9000 C   0  0  0  0  0  0  0  0  0  0  0  0
  187.0560  178.0240  142.3860 C   0  0  0  0  0  3  0  0  0  0  0  0
  187.4240  175.3010  142.7500 O   0  0  0  0  0  0  0  0  0  0  0  0
  190.6510  175.3770  147.9350 C   0  0  0  0  0  1  0  0  0  0  0  0
  189.7030  174.3790  144.4940 C   0  0  0  0  0  0  0  0  0  0  0  0
  187.1330  178.0050  144.6630 C   0  0  0  0  0  0  0  0  0  0  0  0
  196.0080  174.9790  141.5360 O   0  0  0  0  0  0  0  0  0  0  0  0
  197.0990  175.5860  140.9130 C   0  0  0  0  0  1  0  0  0  0  0  0
  194.3490  176.0400  143.4800 C   0  0  0  0  0  2  0  0  0  0  0  0
  193.8110  174.9660  144.4100 C   0  0  0  0  0  2  0  0  0  0  0  0
  194.7960  174.7080  145.5390 C   0  0  0  0  0  2  0  0  0  0  0  0
  195.4010  172.5270  144.1880 C   0  0  0  0  0  1  0  0  0  0  0  0
  196.8830  173.3150  146.1380 C   0  0  0  0  0  2  0  0  0  0  0  0
  195.7980  173.6400  145.1370 C   0  0  0  0  0  0  0  0  0  0  0  0
  197.1940  174.1670  144.9110 C   0  0  0  0  0  2  0  0  0  0  0  0
  1  9  2  0  0  0  0
  2  7  1  0  0  0  0
  3 28  1  0  0  0  0
  4  6  1  0  0  0  0
  4 12  1  0  0  0  0
  5  8  1  0  0  0  0
  5  2  1  6  0  0  0
  6 10  1  6  0  0  0
  6  5  1  0  0  0  0
  7  3  1  0  0  0  0
  8 32  1  1  0  0  0
  9 11  1  0  0  0  0
 10  9  1  0  0  0  0
 11 14  2  0  0  0  0
 11  7  1  0  0  0  0
 12 30  1  1  0  0  0
 12  8  1  0  0  0  0
 13  3  2  0  0  0  0
 14 13  1  0  0  0  0
 15 25  1  6  0  0  0
 15 16  1  0  0  0  0
 15 29  1  0  0  0  0
 16 22  1  0  0  0  0
 17 20  1  0  0  0  0
 18 21  1  0  0  0  0
 19 27  1  0  0  0  0
 20 29  1  0  0  0  0
 22 24  1  0  0  0  0
 23 19  2  0  0  0  0
 24 21  2  0  0  0  0
 24 19  1  0  0  0  0
 25 17  2  0  0  0  0
 26 16  2  0  0  0  0
 28 22  2  0  0  0  0
 28 23  1  0  0  0  0
 29 18  2  0  0  0  0
 31 30  1  0  0  0  0
 32 33  1  0  0  0  0
 33 34  1  0  0  0  0
 35 37  1  0  0  0  0
 37 34  1  0  0  0  0
 37 36  1  0  0  0  0
 38 37  1  0  0  0  0
 38 36  1  0  0  0  0
M  END
>  <MODEL>
4

>  <REMARK>
 VINA RESULT:      -7.6      2.978      5.987
  Name = 
  6 active torsions:
  status: ('A' for Active; 'I' for Inactive)
    1  A    between atoms: C_5  and  C_35
    2  A    between atoms: O_7  and  C_30
    3  A    between atoms: C_16  and  C_19
    4  A    between atoms: C_16  and  C_23
    5  A    between atoms: C_23  and  C_34
    6  A    between atoms: C_25  and  C_34
                            x       y       z     vdW  Elec       q    Type
                         _______ _______ _______ _____ _____    ______ ____

>  <TORSDO>
F 6

$$$$
=
 OpenBabel11042417003D

 38 44  0  0  1  0  0  0  0  0999 V2000
  191.0050  171.8060  139.0390 O   0  0  0  0  0  0  0  0  0  0  0  0
  191.9040  174.0760  142.5960 C   0  0  0  0  0  2  0  0  0  0  0  0
  189.4270  173.7480  142.8020 C   0  0  0  0  0  0  0  0  0  0  0  0
  194.7860  172.3920  141.4390 O   0  0  0  0  0  0  0  0  0  0  0  0
  192.8550  172.8970  142.7840 C   0  0  1  0  0  3  0  0  0  0  0  0
  193.3820  172.2800  141.4770 C   0  0  1  0  0  3  0  0  0  0  0  0
  190.5970  173.6080  142.1490 N   0  0  0  0  0  0  0  0  0  0  0  0
  194.0930  173.3620  143.4770 C   0  0  2  0  0  3  0  0  0  0  0  0
  191.3480  172.4930  140.0380 C   0  0  0  0  0  0  0  0  0  0  0  0
  192.7860  172.8700  140.1960 C   0  0  0  0  0  2  0  0  0  0  0  0
  190.3330  172.9180  141.0210 C   0  0  0  0  0  0  0  0  0  0  0  0
  195.2080  172.6160  142.7610 C   0  0  1  0  0  3  0  0  0  0  0  0
  188.4020  173.1610  142.0770 C   0  0  0  0  0  3  0  0  0  0  0  0
  188.9830  172.6220  140.9390 C   0  0  0  0  0  3  0  0  0  0  0  0
  187.7410  177.8470  143.4550 C   0  0  1  0  0  3  0  0  0  0  0  0
  187.7690  176.3600  143.3130 C   0  0  0  0  0  0  0  0  0  0  0  0
  185.9390  179.2040  142.8800 N   0  0  0  0  0  0  0  0  0  0  0  0
  187.1680  177.8940  145.8790 N   0  0  0  0  0  0  0  0  0  0  0  0
  189.6740  175.0180  146.2360 C   0  0  0  0  0  0  0  0  0  0  0  0
  185.8800  179.0840  144.2690 N   0  0  0  0  0  2  0  0  0  0  0  0
  188.1620  176.9790  146.3790 C   0  0  0  0  0  3  0  0  0  0  0  0
  188.5660  175.6060  144.2870 C   0  0  0  0  0  0  0  0  0  0  0  0
  189.9570  174.1050  145.3200 C   0  0  0  0  0  3  0  0  0  0  0  0
  188.7760  176.0160  145.6740 C   0  0  0  0  0  0  0  0  0  0  0  0
  186.9350  178.5360  142.3880 C   0  0  0  0  0  3  0  0  0  0  0  0
  187.1020  175.7700  142.4200 O   0  0  0  0  0  0  0  0  0  0  0  0
  190.1750  174.9780  147.6380 C   0  0  0  0  0  1  0  0  0  0  0  0
  189.2600  174.4780  144.0810 C   0  0  0  0  0  0  0  0  0  0  0  0
  186.9450  178.2340  144.6460 C   0  0  0  0  0  0  0  0  0  0  0  0
  195.4900  171.3880  143.3740 O   0  0  0  0  0  0  0  0  0  0  0  0
  196.6740  170.9560  142.7760 C   0  0  0  0  0  1  0  0  0  0  0  0
  194.0190  173.0960  144.9790 C   0  0  0  0  0  2  0  0  0  0  0  0
  194.6140  174.2530  145.7640 C   0  0  0  0  0  2  0  0  0  0  0  0
  193.5230  175.2390  146.1520 C   0  0  0  0  0  2  0  0  0  0  0  0
  192.4150  177.0980  144.6470 C   0  0  0  0  0  1  0  0  0  0  0  0
  194.9660  176.7700  144.6600 C   0  0  0  0  0  2  0  0  0  0  0  0
  193.6350  176.5070  145.3250 C   0  0  0  0  0  0  0  0  0  0  0  0
  194.5660  177.5400  145.9140 C   0  0  0  0  0  2  0  0  0  0  0  0
  1  9  2  0  0  0  0
  3 28  1  0  0  0  0
  4  6  1  0  0  0  0
  4 12  1  0  0  0  0
  5  2  1  6  0  0  0
  5  8  1  0  0  0  0
  6 10  1  6  0  0  0
  6  5  1  0  0  0  0
  7  2  1  0  0  0  0
  7  3  1  0  0  0  0
  8 32  1  1  0  0  0
  9 10  1  0  0  0  0
  9 11  1  0  0  0  0
 11  7  1  0  0  0  0
 12 30  1  1  0  0  0
 12  8  1  0  0  0  0
 13  3  2  0  0  0  0
 14 11  2  0  0  0  0
 14 13  1  0  0  0  0
 15 25  1  6  0  0  0
 15 29  1  0  0  0  0
 16 15  1  0  0  0  0
 16 22  1  0  0  0  0
 17 20  1  0  0  0  0
 18 21  1  0  0  0  0
 19 27  1  0  0  0  0
 20 29  1  0  0  0  0
 22 24  1  0  0  0  0
 23 19  2  0  0  0  0
 24 19  1  0  0  0  0
 24 21  2  0  0  0  0
 25 17  2  0  0  0  0
 26 16  2  0  0  0  0
 28 22  2  0  0  0  0
 28 23  1  0  0  0  0
 29 18  2  0  0  0  0
 31 30  1  0  0  0  0
 32 33  1  0  0  0  0
 33 34  1  0  0  0  0
 35 37  1  0  0  0  0
 36 37  1  0  0  0  0
 36 38  1  0  0  0  0
 37 38  1  0  0  0  0
 37 34  1  0  0  0  0
M  END
>  <MODEL>
5

>  <REMARK>
 VINA RESULT:      -7.6      2.609      5.667
  Name = 
  6 active torsions:
  status: ('A' for Active; 'I' for Inactive)
    1  A    between atoms: C_5  and  C_35
    2  A    between atoms: O_7  and  C_30
    3  A    between atoms: C_16  and  C_19
    4  A    between atoms: C_16  and  C_23
    5  A    between atoms: C_23  and  C_34
    6  A    between atoms: C_25  and  C_34
                            x       y       z     vdW  Elec       q    Type
                         _______ _______ _______ _____ _____    ______ ____

>  <TORSDO>
F 6

$$$$
=
 OpenBabel11042417003D

 38 44  0  0  1  0  0  0  0  0999 V2000
  185.8040  176.5310  147.6920 O   0  0  0  0  0  0  0  0  0  0  0  0
  188.9740  177.5800  144.9600 C   0  0  0  0  0  2  0  0  0  0  0  0
  190.0230  175.7260  146.2840 C   0  0  0  0  0  0  0  0  0  0  0  0
  185.8400  178.5580  143.6570 O   0  0  0  0  0  0  0  0  0  0  0  0
  187.8540  177.2790  143.9680 C   0  0  1  0  0  3  0  0  0  0  0  0
  186.4380  177.5850  144.4830 C   0  0  1  0  0  3  0  0  0  0  0  0
  189.0060  176.5690  146.0110 N   0  0  0  0  0  0  0  0  0  0  0  0
  187.9950  178.1660  142.7750 C   0  0  2  0  0  3  0  0  0  0  0  0
  186.6860  176.9170  146.8790 C   0  0  0  0  0  0  0  0  0  0  0  0
  186.3640  178.0380  145.9430 C   0  0  0  0  0  2  0  0  0  0  0  0
  188.0120  176.2700  146.8700 C   0  0  0  0  0  0  0  0  0  0  0  0
  186.5630  178.5630  142.4520 C   0  0  1  0  0  3  0  0  0  0  0  0
  189.6840  174.8960  147.3410 C   0  0  0  0  0  3  0  0  0  0  0  0
  188.3910  175.2390  147.7120 C   0  0  0  0  0  3  0  0  0  0  0  0
  192.0140  172.3740  144.0760 C   0  0  1  0  0  3  0  0  0  0  0  0
  191.1540  173.5750  144.3030 C   0  0  0  0  0  0  0  0  0  0  0  0
  191.6040  170.7270  142.4830 N   0  0  0  0  0  0  0  0  0  0  0  0
  193.7190  173.5060  142.6550 N   0  0  0  0  0  0  0  0  0  0  0  0
  193.4370  176.4160  145.1310 C   0  0  0  0  0  0  0  0  0  0  0  0
  192.6040  171.5300  141.9320 N   0  0  0  0  0  2  0  0  0  0  0  0
  194.0010  174.6500  143.4840 C   0  0  0  0  0  2  0  0  0  0  0  0
  191.8170  174.8020  144.7600 C   0  0  0  0  0  0  0  0  0  0  0  0
  192.3600  176.7600  145.8200 C   0  0  0  0  0  2  0  0  0  0  0  0
  193.1830  175.1800  144.4060 C   0  0  0  0  0  0  0  0  0  0  0  0
  191.2410  171.1560  143.6520 C   0  0  0  0  0  3  0  0  0  0  0  0
  189.9130  173.5520  144.0710 O   0  0  0  0  0  0  0  0  0  0  0  0
  194.6910  177.2180  145.0860 C   0  0  0  0  0  1  0  0  0  0  0  0
  191.3320  175.7350  145.5900 C   0  0  0  0  0  0  0  0  0  0  0  0
  192.8500  172.5640  142.8660 C   0  0  0  0  0  0  0  0  0  0  0  0
  185.9670  177.6720  141.5490 O   0  0  0  0  0  0  0  0  0  0  0  0
  184.7790  178.2950  141.1670 C   0  0  0  0  0  1  0  0  0  0  0  0
  188.7250  177.4540  141.6380 C   0  0  0  0  0  2  0  0  0  0  0  0
  188.9590  175.9920  141.9770 C   0  0  0  0  0  2  0  0  0  0  0  0
  188.1710  175.1010  141.0290 C   0  0  0  0  0  2  0  0  0  0  0  0
  190.5220  173.9930  140.5880 C   0  0  0  0  0  1  0  0  0  0  0  0
  188.3790  172.9600  139.6070 C   0  0  0  0  0  2  0  0  0  0  0  0
  189.0080  173.9100  140.6000 C   0  0  0  0  0  0  0  0  0  0  0  0
  188.4740  172.5830  141.0820 C   0  0  0  0  0  2  0  0  0  0  0  0
  2  7  1  0  0  0  0
  3 13  2  0  0  0  0
  4  6  1  0  0  0  0
  5  6  1  0  0  0  0
  5  2  1  1  0  0  0
  6 10  1  1  0  0  0
  7  3  1  0  0  0  0
  7 11  1  0  0  0  0
  8 32  1  6  0  0  0
  8  5  1  0  0  0  0
  9  1  2  0  0  0  0
 10  9  1  0  0  0  0
 11  9  1  0  0  0  0
 11 14  2  0  0  0  0
 12 30  1  6  0  0  0
 12  8  1  0  0  0  0
 12  4  1  0  0  0  0
 13 14  1  0  0  0  0
 15 25  1  6  0  0  0
 15 16  1  0  0  0  0
 16 22  1  0  0  0  0
 17 25  2  0  0  0  0
 18 29  2  0  0  0  0
 18 21  1  0  0  0  0
 19 23  1  0  0  0  0
 20 17  1  0  0  0  0
 20 29  1  0  0  0  0
 21 24  1  0  0  0  0
 22 28  2  0  0  0  0
 24 22  1  0  0  0  0
 24 19  2  0  0  0  0
 26 16  2  0  0  0  0
 27 19  1  0  0  0  0
 28 23  1  0  0  0  0
 28  3  1  0  0  0  0
 29 15  1  0  0  0  0
 31 30  1  0  0  0  0
 32 33  1  0  0  0  0
 34 33  1  0  0  0  0
 35 37  1  0  0  0  0
 36 37  1  0  0  0  0
 36 38  1  0  0  0  0
 37 34  1  0  0  0  0
 37 38  1  0  0  0  0
M  END
>  <MODEL>
6

>  <REMARK>
 VINA RESULT:      -7.3      2.446      7.001
  Name = 
  6 active torsions:
  status: ('A' for Active; 'I' for Inactive)
    1  A    between atoms: C_5  and  C_35
    2  A    between atoms: O_7  and  C_30
    3  A    between atoms: C_16  and  C_19
    4  A    between atoms: C_16  and  C_23
    5  A    between atoms: C_23  and  C_34
    6  A    between atoms: C_25  and  C_34
                            x       y       z     vdW  Elec       q    Type
                         _______ _______ _______ _____ _____    ______ ____

>  <TORSDO>
F 6

$$$$
=
 OpenBabel11042417003D

 38 44  0  0  1  0  0  0  0  0999 V2000
  188.2540  172.3320  138.9100 O   0  0  0  0  0  0  0  0  0  0  0  0
  190.0070  173.3960  142.7060 C   0  0  0  0  0  2  0  0  0  0  0  0
  191.8840  172.1580  141.5970 C   0  0  0  0  0  0  0  0  0  0  0  0
  187.3420  175.5770  141.9160 O   0  0  0  0  0  0  0  0  0  0  0  0
  189.5940  174.7780  142.2060 C   0  0  1  0  0  3  0  0  0  0  0  0
  188.3430  174.7910  141.3110 C   0  0  1  0  0  3  0  0  0  0  0  0
  190.6210  172.6290  141.6290 N   0  0  0  0  0  0  0  0  0  0  0  0
  189.2050  175.6310  143.3680 C   0  0  2  0  0  3  0  0  0  0  0  0
  188.6800  172.6580  140.0500 C   0  0  0  0  0  0  0  0  0  0  0  0
  187.7740  173.4110  140.9720 C   0  0  0  0  0  2  0  0  0  0  0  0
  190.0490  172.2870  140.4580 C   0  0  0  0  0  0  0  0  0  0  0  0
  187.9880  176.3910  142.8630 C   0  0  1  0  0  3  0  0  0  0  0  0
  192.1150  171.4920  140.4040 C   0  0  0  0  0  3  0  0  0  0  0  0
  190.9410  171.5810  139.6690 C   0  0  0  0  0  3  0  0  0  0  0  0
  195.5050  174.7870  141.8180 C   0  0  1  0  0  3  0  0  0  0  0  0
  194.0800  174.3650  141.9710 C   0  0  0  0  0  0  0  0  0  0  0  0
  196.2110  176.9740  141.4460 N   0  0  0  0  0  0  0  0  0  0  0  0
  196.0350  174.8940  144.2510 N   0  0  0  0  0  0  0  0  0  0  0  0
  194.0110  171.6540  144.5440 C   0  0  0  0  0  0  0  0  0  0  0  0
  196.4400  176.7410  142.8030 N   0  0  0  0  0  2  0  0  0  0  0  0
  195.5350  173.6070  144.6620 C   0  0  0  0  0  3  0  0  0  0  0  0
  193.8070  173.2220  142.8490 C   0  0  0  0  0  0  0  0  0  0  0  0
  192.9870  171.2970  143.7860 C   0  0  0  0  0  3  0  0  0  0  0  0
  194.5950  172.8860  144.0330 C   0  0  0  0  0  0  0  0  0  0  0  0
  195.6900  175.9370  140.8670 C   0  0  0  0  0  3  0  0  0  0  0  0
  193.1420  174.9900  141.4040 O   0  0  0  0  0  0  0  0  0  0  0  0
  194.4490  170.9140  145.7600 C   0  0  0  0  0  1  0  0  0  0  0  0
  192.8580  172.2870  142.7070 C   0  0  0  0  0  0  0  0  0  0  0  0
  195.9870  175.4280  143.0670 C   0  0  0  0  0  0  0  0  0  0  0  0
  188.3450  177.6070  142.2630 O   0  0  0  0  0  0  0  0  0  0  0  0
  187.1520  178.3240  142.1760 C   0  0  0  0  0  1  0  0  0  0  0  0
  190.3630  176.5200  143.8140 C   0  0  0  0  0  2  0  0  0  0  0  0
  191.4900  175.6870  144.4000 C   0  0  0  0  0  2  0  0  0  0  0  0
  192.6990  176.5650  144.6850 C   0  0  0  0  0  2  0  0  0  0  0  0
  194.4360  177.0530  146.6060 C   0  0  0  0  0  1  0  0  0  0  0  0
  192.8890  175.0000  146.7260 C   0  0  0  0  0  2  0  0  0  0  0  0
  193.1960  176.3420  146.1020 C   0  0  0  0  0  0  0  0  0  0  0  0
  192.0930  176.2380  147.1270 C   0  0  0  0  0  2  0  0  0  0  0  0
  1  9  2  0  0  0  0
  3  7  1  0  0  0  0
  3 28  1  0  0  0  0
  4 12  1  0  0  0  0
  5  2  1  1  0  0  0
  5  8  1  0  0  0  0
  6 10  1  1  0  0  0
  6  4  1  0  0  0  0
  6  5  1  0  0  0  0
  7  2  1  0  0  0  0
  8 32  1  6  0  0  0
  9 11  1  0  0  0  0
  9 10  1  0  0  0  0
 11  7  1  0  0  0  0
 12 30  1  6  0  0  0
 12  8  1  0  0  0  0
 13  3  2  0  0  0  0
 14 13  1  0  0  0  0
 14 11  2  0  0  0  0
 15 25  1  6  0  0  0
 15 16  1  0  0  0  0
 15 29  1  0  0  0  0
 16 22  1  0  0  0  0
 17 20  1  0  0  0  0
 18 21  1  0  0  0  0
 19 27  1  0  0  0  0
 20 29  1  0  0  0  0
 22 24  1  0  0  0  0
 23 19  2  0  0  0  0
 24 19  1  0  0  0  0
 24 21  2  0  0  0  0
 25 17  2  0  0  0  0
 26 16  2  0  0  0  0
 28 22  2  0  0  0  0
 28 23  1  0  0  0  0
 29 18  2  0  0  0  0
 31 30  1  0  0  0  0
 32 33  1  0  0  0  0
 33 34  1  0  0  0  0
 34 37  1  0  0  0  0
 36 38  1  0  0  0  0
 37 35  1  0  0  0  0
 37 36  1  0  0  0  0
 37 38  1  0  0  0  0
M  END
>  <MODEL>
7

>  <REMARK>
 VINA RESULT:      -7.3      3.593      8.488
  Name = 
  6 active torsions:
  status: ('A' for Active; 'I' for Inactive)
    1  A    between atoms: C_5  and  C_35
    2  A    between atoms: O_7  and  C_30
    3  A    between atoms: C_16  and  C_19
    4  A    between atoms: C_16  and  C_23
    5  A    between atoms: C_23  and  C_34
    6  A    between atoms: C_25  and  C_34
                            x       y       z     vdW  Elec       q    Type
                         _______ _______ _______ _____ _____    ______ ____

>  <TORSDO>
F 6

$$$$
=
 OpenBabel11042417003D

 38 44  0  0  1  0  0  0  0  0999 V2000
  189.5540  177.0250  146.7780 O   0  0  0  0  0  0  0  0  0  0  0  0
  192.0490  175.6680  143.5310 C   0  0  0  0  0  2  0  0  0  0  0  0
  193.6790  175.7620  145.4330 C   0  0  0  0  0  0  0  0  0  0  0  0
  188.6570  174.9160  142.8870 O   0  0  0  0  0  0  0  0  0  0  0  0
  190.9620  174.5960  143.5000 C   0  0  1  0  0  3  0  0  0  0  0  0
  189.5720  175.0760  143.9470 C   0  0  1  0  0  3  0  0  0  0  0  0
  192.4520  175.9420  144.9050 N   0  0  0  0  0  0  0  0  0  0  0  0
  190.7450  174.1500  142.0910 C   0  0  2  0  0  3  0  0  0  0  0  0
  190.2170  176.6590  145.7720 C   0  0  0  0  0  0  0  0  0  0  0  0
  189.5170  176.5180  144.4580 C   0  0  0  0  0  2  0  0  0  0  0  0
  191.6620  176.3880  145.9020 C   0  0  0  0  0  0  0  0  0  0  0  0
  189.2350  173.9980  141.9930 C   0  0  1  0  0  3  0  0  0  0  0  0
  193.6790  176.1150  146.7730 C   0  0  0  0  0  3  0  0  0  0  0  0
  192.3830  176.5090  147.0770 C   0  0  0  0  0  3  0  0  0  0  0  0
  195.6730  171.7510  145.5220 C   0  0  1  0  0  3  0  0  0  0  0  0
  194.7320  172.8290  145.0900 C   0  0  0  0  0  0  0  0  0  0  0  0
  195.2130  169.4710  145.4310 N   0  0  0  0  0  0  0  0  0  0  0  0
  197.0240  171.6930  143.4300 N   0  0  0  0  0  0  0  0  0  0  0  0
  196.7980  175.5160  143.5150 C   0  0  0  0  0  0  0  0  0  0  0  0
  196.0320  169.7240  144.3300 N   0  0  0  0  0  2  0  0  0  0  0  0
  197.3010  173.0990  143.2840 C   0  0  0  0  0  2  0  0  0  0  0  0
  195.3210  174.0560  144.5430 C   0  0  0  0  0  0  0  0  0  0  0  0
  195.8020  176.2330  144.0110 C   0  0  0  0  0  2  0  0  0  0  0  0
  196.5730  174.1060  143.7920 C   0  0  0  0  0  0  0  0  0  0  0  0
  194.9800  170.5510  146.1090 C   0  0  0  0  0  3  0  0  0  0  0  0
  193.4810  172.6770  145.1520 O   0  0  0  0  0  0  0  0  0  0  0  0
  197.9400  176.0900  142.7500 C   0  0  0  0  0  1  0  0  0  0  0  0
  194.8650  175.3100  144.6680 C   0  0  0  0  0  0  0  0  0  0  0  0
  196.3000  171.1130  144.3390 C   0  0  0  0  0  0  0  0  0  0  0  0
  188.8190  172.7020  142.3240 O   0  0  0  0  0  0  0  0  0  0  0  0
  187.4660  172.6660  141.9870 C   0  0  0  0  0  1  0  0  0  0  0  0
  191.5280  172.8750  141.7870 C   0  0  0  0  0  2  0  0  0  0  0  0
  192.5560  173.1190  140.6960 C   0  0  0  0  0  2  0  0  0  0  0  0
  193.9430  173.2600  141.3040 C   0  0  0  0  0  2  0  0  0  0  0  0
  196.1930  173.7690  140.0280 C   0  0  0  0  0  1  0  0  0  0  0  0
  194.5660  175.6690  140.6270 C   0  0  0  0  0  2  0  0  0  0  0  0
  194.8010  174.1860  140.4610 C   0  0  0  0  0  0  0  0  0  0  0  0
  194.0320  174.9360  139.4010 C   0  0  0  0  0  2  0  0  0  0  0  0
  2  7  1  0  0  0  0
  3 13  2  0  0  0  0
  4  6  1  0  0  0  0
  5  2  1  6  0  0  0
  5  6  1  0  0  0  0
  6 10  1  6  0  0  0
  7  3  1  0  0  0  0
  7 11  1  0  0  0  0
  8 32  1  1  0  0  0
  8  5  1  0  0  0  0
  9 11  1  0  0  0  0
  9  1  2  0  0  0  0
 10  9  1  0  0  0  0
 11 14  2  0  0  0  0
 12  8  1  0  0  0  0
 12 30  1  1  0  0  0
 12  4  1  0  0  0  0
 13 14  1  0  0  0  0
 15 25  1  6  0  0  0
 16 26  2  0  0  0  0
 16 15  1  0  0  0  0
 17 25  2  0  0  0  0
 18 29  2  0  0  0  0
 19 24  2  0  0  0  0
 19 23  1  0  0  0  0
 20 29  1  0  0  0  0
 20 17  1  0  0  0  0
 21 18  1  0  0  0  0
 21 24  1  0  0  0  0
 22 28  2  0  0  0  0
 22 16  1  0  0  0  0
 23 28  1  0  0  0  0
 24 22  1  0  0  0  0
 27 19  1  0  0  0  0
 28  3  1  0  0  0  0
 29 15  1  0  0  0  0
 31 30  1  0  0  0  0
 33 34  1  0  0  0  0
 33 32  1  0  0  0  0
 35 37  1  0  0  0  0
 37 36  1  0  0  0  0
 37 34  1  0  0  0  0
 38 37  1  0  0  0  0
 38 36  1  0  0  0  0
M  END
>  <MODEL>
8

>  <REMARK>
 VINA RESULT:      -7.2      4.037      7.891
  Name = 
  6 active torsions:
  status: ('A' for Active; 'I' for Inactive)
    1  A    between atoms: C_5  and  C_35
    2  A    between atoms: O_7  and  C_30
    3  A    between atoms: C_16  and  C_19
    4  A    between atoms: C_16  and  C_23
    5  A    between atoms: C_23  and  C_34
    6  A    between atoms: C_25  and  C_34
                            x       y       z     vdW  Elec       q    Type
                         _______ _______ _______ _____ _____    ______ ____

>  <TORSDO>
F 6

$$$$
=
 OpenBabel11042417003D

 38 44  0  0  1  0  0  0  0  0999 V2000
  188.0640  172.5610  139.5140 O   0  0  0  0  0  0  0  0  0  0  0  0
  190.7420  174.3360  142.3950 C   0  0  0  0  0  2  0  0  0  0  0  0
  192.3370  173.5040  140.6470 C   0  0  0  0  0  0  0  0  0  0  0  0
  187.5070  175.7270  142.6870 O   0  0  0  0  0  0  0  0  0  0  0  0
  189.8340  175.5280  142.1040 C   0  0  1  0  0  3  0  0  0  0  0  0
  188.3860  175.1600  141.7410 C   0  0  1  0  0  3  0  0  0  0  0  0
  191.0970  173.6540  141.1560 N   0  0  0  0  0  0  0  0  0  0  0  0
  189.6890  176.3550  143.3380 C   0  0  2  0  0  3  0  0  0  0  0  0
  188.7770  173.0760  140.4160 C   0  0  0  0  0  0  0  0  0  0  0  0
  188.1080  173.6590  141.6200 C   0  0  0  0  0  2  0  0  0  0  0  0
  190.2460  173.0850  140.2780 C   0  0  0  0  0  0  0  0  0  0  0  0
  188.2200  176.7500  143.3340 C   0  0  1  0  0  3  0  0  0  0  0  0
  192.2810  172.8160  139.4460 C   0  0  0  0  0  3  0  0  0  0  0  0
  190.9400  172.5540  139.2040 C   0  0  0  0  0  3  0  0  0  0  0  0
  194.2770  171.8380  144.3260 C   0  0  1  0  0  3  0  0  0  0  0  0
  193.9670  172.0170  142.8760 C   0  0  0  0  0  0  0  0  0  0  0  0
  194.9320  169.8310  145.3070 N   0  0  0  0  0  0  0  0  0  0  0  0
  196.6130  172.7020  144.2300 N   0  0  0  0  0  0  0  0  0  0  0  0
  195.2160  175.4030  141.9000 C   0  0  0  0  0  0  0  0  0  0  0  0
  196.1080  170.5690  145.1620 N   0  0  0  0  0  2  0  0  0  0  0  0
  196.3830  173.9350  143.5220 C   0  0  0  0  0  3  0  0  0  0  0  0
  194.2590  173.3270  142.2810 C   0  0  0  0  0  0  0  0  0  0  0  0
  194.1910  175.2730  141.0720 C   0  0  0  0  0  3  0  0  0  0  0  0
  195.3500  174.2000  142.7080 C   0  0  0  0  0  0  0  0  0  0  0  0
  193.9050  170.4800  144.8550 C   0  0  0  0  0  3  0  0  0  0  0  0
  193.5130  171.0710  142.1760 O   0  0  0  0  0  0  0  0  0  0  0  0
  196.1090  176.5940  141.9430 C   0  0  0  0  0  1  0  0  0  0  0  0
  193.5790  173.9590  141.3150 C   0  0  0  0  0  0  0  0  0  0  0  0
  195.7450  171.7840  144.5340 C   0  0  0  0  0  0  0  0  0  0  0  0
  188.0090  177.9610  142.6620 O   0  0  0  0  0  0  0  0  0  0  0  0
  186.6850  178.2980  142.9430 C   0  0  0  0  0  1  0  0  0  0  0  0
  190.6600  177.5340  143.3320 C   0  0  0  0  0  2  0  0  0  0  0  0
  191.5180  177.5350  144.5850 C   0  0  0  0  0  2  0  0  0  0  0  0
  192.7920  176.7380  144.3490 C   0  0  0  0  0  2  0  0  0  0  0  0
  192.3940  174.5640  145.7850 C   0  0  0  0  0  1  0  0  0  0  0  0
  193.6010  176.5990  146.7940 C   0  0  0  0  0  2  0  0  0  0  0  0
  193.1130  175.8790  145.5580 C   0  0  0  0  0  0  0  0  0  0  0  0
  194.5820  175.8390  145.9060 C   0  0  0  0  0  2  0  0  0  0  0  0
  1  9  2  0  0  0  0
  3  7  1  0  0  0  0
  3 28  1  0  0  0  0
  4 12  1  0  0  0  0
  5  2  1  1  0  0  0
  5  8  1  0  0  0  0
  6 10  1  1  0  0  0
  6  5  1  0  0  0  0
  6  4  1  0  0  0  0
  7  2  1  0  0  0  0
  8 32  1  6  0  0  0
  9 10  1  0  0  0  0
 11  9  1  0  0  0  0
 11  7  1  0  0  0  0
 12 30  1  6  0  0  0
 12  8  1  0  0  0  0
 13  3  2  0  0  0  0
 14 13  1  0  0  0  0
 14 11  2  0  0  0  0
 15 29  1  0  0  0  0
 15 25  1  6  0  0  0
 16 15  1  0  0  0  0
 18 29  2  0  0  0  0
 19 27  1  0  0  0  0
 19 24  1  0  0  0  0
 20 17  1  0  0  0  0
 21 18  1  0  0  0  0
 22 24  1  0  0  0  0
 22 16  1  0  0  0  0
 23 28  1  0  0  0  0
 23 19  2  0  0  0  0
 24 21  2  0  0  0  0
 25 17  2  0  0  0  0
 26 16  2  0  0  0  0
 28 22  2  0  0  0  0
 29 20  1  0  0  0  0
 30 31  1  0  0  0  0
 32 33  1  0  0  0  0
 34 33  1  0  0  0  0
 34 37  1  0  0  0  0
 37 35  1  0  0  0  0
 37 38  1  0  0  0  0
 37 36  1  0  0  0  0
 38 36  1  0  0  0  0
M  END
>  <MODEL>
9

>  <REMARK>
 VINA RESULT:      -7.1      3.516      8.456
  Name = 
  6 active torsions:
  status: ('A' for Active; 'I' for Inactive)
    1  A    between atoms: C_5  and  C_35
    2  A    between atoms: O_7  and  C_30
    3  A    between atoms: C_16  and  C_19
    4  A    between atoms: C_16  and  C_23
    5  A    between atoms: C_23  and  C_34
    6  A    between atoms: C_25  and  C_34
                            x       y       z     vdW  Elec       q    Type
                         _______ _______ _______ _____ _____    ______ ____

>  <TORSDO>
F 6

$$$$
