=
 OpenBabel11042417243D

 56 63  0  0  1  0  0  0  0  0999 V2000
  189.5290  172.8250  142.3390 C   0  0  0  0  0  0  0  0  0  0  0  0
  189.8360  172.2900  143.7080 C   0  0  0  0  0  2  0  0  0  0  0  0
  188.9430  174.0190  142.1550 C   0  0  0  0  0  3  0  0  0  0  0  0
  190.2020  174.3660  145.0840 C   0  0  1  0  0  3  0  0  0  0  0  0
  189.7750  175.4020  144.0550 C   0  0  0  0  0  2  0  0  0  0  0  0
  190.8640  173.1600  144.4210 C   0  0  0  0  0  2  0  0  0  0  0  0
  188.5440  174.9220  143.2840 C   0  0  1  0  0  3  0  0  0  0  0  0
  185.4840  177.7180  142.0180 O   0  0  0  0  0  0  0  0  0  0  0  0
  185.9530  177.3850  143.2960 C   0  0  2  0  0  3  0  0  0  0  0  0
  186.4110  176.0590  143.3010 O   0  0  0  0  0  0  0  0  0  0  0  0
  187.4090  177.4120  140.5800 C   0  0  0  0  0  2  0  0  0  0  0  0
  187.6380  176.0390  141.2270 C   0  0  0  0  0  2  0  0  0  0  0  0
  186.5560  178.3790  141.4090 C   0  0  0  0  0  2  0  0  0  0  0  0
  187.7070  176.0870  142.7570 C   0  0  2  0  0  3  0  0  0  0  0  0
  185.0950  178.7240  145.1610 C   0  0  2  0  0  3  0  0  0  0  0  0
  184.1760  178.7650  144.1000 O   0  0  0  0  0  0  0  0  0  0  0  0
  184.8370  177.5410  144.3130 C   0  0  1  0  0  3  0  0  0  0  0  0
  184.3420  178.5900  146.4680 C   0  0  0  0  0  2  0  0  0  0  0  0
  185.2450  178.9720  147.6260 C   0  0  0  0  0  2  0  0  0  0  0  0
  186.5940  178.2810  147.4970 C   0  0  0  0  0  2  0  0  0  0  0  0
  186.4400  176.8390  147.5920 N   0  0  0  0  0  2  0  0  0  0  0  0
  187.5120  176.2380  146.8170 C   0  0  0  0  0  1  0  0  0  0  0  0
  191.1110  174.9640  145.9970 O   0  0  0  0  0  0  0  0  0  0  0  0
  192.8110  176.2980  145.1470 N   0  0  0  0  0  0  0  0  0  0  0  0
  194.6390  174.5440  143.9510 O   0  0  0  0  0  0  0  0  0  0  0  0
  195.1910  175.6120  144.6740 C   0  0  2  0  0  3  0  0  0  0  0  0
  193.3830  174.1490  145.9190 O   0  0  0  0  0  0  0  0  0  0  0  0
  194.6100  177.6110  145.8570 O   0  0  0  0  0  1  0  0  0  0  0  0
  194.1750  173.5820  144.8730 C   0  0  2  0  0  3  0  0  0  0  0  0
  194.1760  176.7480  144.8490 C   0  0  2  0  0  3  0  0  0  0  0  0
  192.4520  175.1620  145.6730 C   0  0  0  0  0  0  0  0  0  0  0  0
  195.3120  172.7490  145.4450 C   0  0  0  0  0  1  0  0  0  0  0  0
  196.4860  176.0930  144.0160 C   0  0  0  0  0  2  0  0  0  0  0  0
  197.0160  174.7480  142.0140 F   0  0  0  0  0  0  0  0  0  0  0  0
  196.0380  176.7420  141.7890 O   0  0  0  0  0  0  0  0  0  0  0  0
  196.4890  175.8860  142.5330 C   0  0  0  0  0  0  0  0  0  0  0  0
  189.9070  171.9940  141.1560 C   0  0  0  0  0  2  0  0  0  0  0  0
  193.1660  173.7480  138.8940 C   0  0  2  0  0  3  0  0  0  0  0  0
  193.2780  174.8870  139.6720 F   0  0  0  0  0  0  0  0  0  0  0  0
  190.7100  173.1770  138.9540 C   0  0  0  0  0  0  0  0  0  0  0  0
  192.3960  172.0200  140.4200 C   0  0  0  0  0  0  0  0  0  0  0  0
  188.1910  172.6760  138.9910 C   0  0  0  0  0  1  0  0  0  0  0  0
  191.8080  173.7170  138.2430 C   0  0  0  0  0  0  0  0  0  0  0  0
  192.6930  174.7780  136.2880 F   0  0  0  0  0  0  0  0  0  0  0  0
  189.2790  173.7310  137.0580 C   0  0  0  0  0  3  0  0  0  0  0  0
  193.3590  172.5610  139.7310 N   0  0  0  0  0  0  0  0  0  0  0  0
  191.6360  174.2560  136.9610 C   0  0  0  0  0  0  0  0  0  0  0  0
  190.2000  174.7700  135.1280 F   0  0  0  0  0  0  0  0  0  0  0  0
  189.4270  173.1980  138.3410 C   0  0  0  0  0  0  0  0  0  0  0  0
  190.3730  174.2550  136.3700 C   0  0  0  0  0  0  0  0  0  0  0  0
  191.0180  172.6660  140.3560 C   0  0  2  0  0  3  0  0  0  0  0  0
  192.6970  170.8820  141.1800 O   0  0  0  0  0  0  0  0  0  0  0  0
  193.2060  170.9190  142.5030 C   0  0  2  0  0  3  0  0  0  0  0  0
  193.5740  169.1920  144.2180 C   0  0  0  0  0  2  0  0  0  0  0  0
  193.9250  169.6210  142.8070 C   0  0  1  0  0  3  0  0  0  0  0  0
  192.5320  169.8430  143.3310 C   0  0  2  0  0  3  0  0  0  0  0  0
  1  2  1  0  0  0  0
  2  6  1  0  0  0  0
  3  1  2  0  0  0  0
  4 23  1  1  0  0  0
  5  4  1  0  0  0  0
  6  4  1  0  0  0  0
  7  3  1  6  0  0  0
  7  5  1  0  0  0  0
  9  8  1  6  0  0  0
  9 10  1  0  0  0  0
  9 17  1  0  0  0  0
 11 12  1  0  0  0  0
 11 13  1  0  0  0  0
 13  8  1  0  0  0  0
 14 12  1  6  0  0  0
 14  7  1  0  0  0  0
 14 10  1  0  0  0  0
 15 18  1  1  0  0  0
 16 15  1  0  0  0  0
 17 16  1  6  0  0  0
 17 15  1  0  0  0  0
 18 19  1  0  0  0  0
 20 21  1  0  0  0  0
 20 19  1  0  0  0  0
 22 21  1  0  0  0  0
 24 31  2  0  0  0  0
 25 26  1  0  0  0  0
 25 29  1  0  0  0  0
 26 33  1  6  0  0  0
 26 30  1  0  0  0  0
 29 32  1  1  0  0  0
 29 27  1  0  0  0  0
 30 24  1  0  0  0  0
 30 28  1  1  0  0  0
 31 27  1  0  0  0  0
 31 23  1  0  0  0  0
 34 36  1  0  0  0  0
 35 36  2  0  0  0  0
 36 33  1  0  0  0  0
 37  1  1  0  0  0  0
 38 39  1  1  0  0  0
 38 46  1  0  0  0  0
 40 51  1  0  0  0  0
 41 52  1  0  0  0  0
 43 38  1  0  0  0  0
 43 40  2  0  0  0  0
 44 47  1  0  0  0  0
 45 49  2  0  0  0  0
 46 41  2  0  0  0  0
 47 43  1  0  0  0  0
 48 50  1  0  0  0  0
 49 40  1  0  0  0  0
 49 42  1  0  0  0  0
 50 47  2  0  0  0  0
 50 45  1  0  0  0  0
 51 41  1  0  0  0  0
 51 37  1  6  0  0  0
 53 52  1  6  0  0  0
 53 55  1  0  0  0  0
 53 56  1  0  0  0  0
 55 56  1  0  0  0  0
 55 54  1  1  0  0  0
 56 54  1  1  0  0  0
M  END
>  <MODEL>
1

>  <REMARK>
 VINA RESULT:      -7.6      0.000      0.000
  Name = 
  14 active torsions:
  status: ('A' for Active; 'I' for Inactive)
    1  A    between atoms: O_1  and  C_37
    2  A    between atoms: O_1  and  C_52
    3  A    between atoms: C_3  and  C_53
    4  A    between atoms: C_5  and  C_13
    5  A    between atoms: C_7  and  N_24
    6  A    between atoms: C_7  and  C_49
    7  A    between atoms: C_8  and  O_22
    8  A    between atoms: C_10  and  C_31
    9  A    between atoms: C_13  and  C_49
   10  A    between atoms: C_16  and  C_55
   11  A    between atoms: C_19  and  O_22
   12  A    between atoms: C_31  and  C_34
   13  A    between atoms: C_50  and  C_53
   14  A    between atoms: C_51  and  C_56
                            x       y       z     vdW  Elec       q    Type
                         _______ _______ _______ _____ _____    ______ ____

>  <TORSDO>
F 14

$$$$
=
 OpenBabel11042417243D

 56 63  0  0  1  0  0  0  0  0999 V2000
  189.8560  175.6730  143.6760 C   0  0  0  0  0  0  0  0  0  0  0  0
  189.0500  174.4330  143.9340 C   0  0  0  0  0  2  0  0  0  0  0  0
  191.1900  175.6370  143.5260 C   0  0  0  0  0  3  0  0  0  0  0  0
  190.3820  172.6170  142.8100 C   0  0  1  0  0  3  0  0  0  0  0  0
  191.6210  173.4270  142.4560 C   0  0  0  0  0  2  0  0  0  0  0  0
  189.1190  173.4750  142.7520 C   0  0  0  0  0  2  0  0  0  0  0  0
  191.9930  174.3720  143.6000 C   0  0  1  0  0  3  0  0  0  0  0  0
  196.3100  174.5040  143.2400 O   0  0  0  0  0  0  0  0  0  0  0  0
  195.3010  174.7070  142.2890 C   0  0  2  0  0  3  0  0  0  0  0  0
  194.1690  173.9550  142.6320 O   0  0  0  0  0  0  0  0  0  0  0  0
  195.3190  175.2450  145.3230 C   0  0  0  0  0  2  0  0  0  0  0  0
  194.0770  174.4040  144.9980 C   0  0  0  0  0  2  0  0  0  0  0  0
  196.1960  175.5910  144.1140 C   0  0  0  0  0  2  0  0  0  0  0  0
  193.4860  174.6950  143.6140 C   0  0  2  0  0  3  0  0  0  0  0  0
  195.6470  175.4080  139.9660 C   0  0  2  0  0  3  0  0  0  0  0  0
  196.8870  175.0900  140.5430 O   0  0  0  0  0  0  0  0  0  0  0  0
  195.7940  174.2860  140.9170 C   0  0  1  0  0  3  0  0  0  0  0  0
  195.6050  174.8760  138.5490 C   0  0  0  0  0  2  0  0  0  0  0  0
  196.8510  175.3080  137.7970 C   0  0  0  0  0  2  0  0  0  0  0  0
  197.5710  174.0970  137.2240 C   0  0  0  0  0  2  0  0  0  0  0  0
  196.6530  172.9810  137.0700 N   0  0  0  0  0  2  0  0  0  0  0  0
  196.8860  172.4070  135.7570 C   0  0  0  0  0  1  0  0  0  0  0  0
  190.2600  171.5320  141.9020 O   0  0  0  0  0  0  0  0  0  0  0  0
  191.3450  171.2970  139.8620 N   0  0  0  0  0  0  0  0  0  0  0  0
  190.6100  173.5320  138.3400 O   0  0  0  0  0  0  0  0  0  0  0  0
  190.6680  172.3100  137.6540 C   0  0  2  0  0  3  0  0  0  0  0  0
  189.2420  172.3550  139.8730 O   0  0  0  0  0  0  0  0  0  0  0  0
  191.2800  170.0090  137.9120 O   0  0  0  0  0  1  0  0  0  0  0  0
  189.4280  173.5480  139.1090 C   0  0  2  0  0  3  0  0  0  0  0  0
  191.5320  171.2900  138.4060 C   0  0  2  0  0  3  0  0  0  0  0  0
  190.3060  171.7210  140.5210 C   0  0  0  0  0  0  0  0  0  0  0  0
  188.2020  173.8440  138.2590 C   0  0  0  0  0  1  0  0  0  0  0  0
  191.1490  172.5230  136.2170 C   0  0  0  0  0  2  0  0  0  0  0  0
  190.3740  170.4830  135.0600 F   0  0  0  0  0  0  0  0  0  0  0  0
  189.5100  172.4670  134.5170 O   0  0  0  0  0  0  0  0  0  0  0  0
  190.2830  171.8290  135.2120 C   0  0  0  0  0  0  0  0  0  0  0  0
  189.1330  176.9770  143.5730 C   0  0  0  0  0  2  0  0  0  0  0  0
  186.1100  177.3290  146.6640 C   0  0  2  0  0  3  0  0  0  0  0  0
  185.8260  175.9770  146.7360 F   0  0  0  0  0  0  0  0  0  0  0  0
  186.7080  177.7260  144.2460 C   0  0  0  0  0  0  0  0  0  0  0  0
  188.4550  177.4430  146.0350 C   0  0  0  0  0  0  0  0  0  0  0  0
  187.2430  178.0910  141.7610 C   0  0  0  0  0  1  0  0  0  0  0  0
  185.7610  177.8430  145.2920 C   0  0  0  0  0  0  0  0  0  0  0  0
  183.5920  178.4990  146.0600 F   0  0  0  0  0  0  0  0  0  0  0  0
  185.0810  178.7310  142.7330 C   0  0  0  0  0  3  0  0  0  0  0  0
  187.5310  177.5470  146.9460 N   0  0  0  0  0  0  0  0  0  0  0  0
  184.4960  178.3950  145.0540 C   0  0  0  0  0  0  0  0  0  0  0  0
  182.9410  179.3820  143.5400 F   0  0  0  0  0  0  0  0  0  0  0  0
  186.3440  178.1750  142.9470 C   0  0  0  0  0  0  0  0  0  0  0  0
  184.1620  178.8430  143.7760 C   0  0  0  0  0  0  0  0  0  0  0  0
  188.0290  177.0660  144.6210 C   0  0  2  0  0  3  0  0  0  0  0  0
  189.7810  177.6810  146.4200 O   0  0  0  0  0  0  0  0  0  0  0  0
  190.4120  177.0610  147.5280 C   0  0  2  0  0  3  0  0  0  0  0  0
  191.8850  175.1010  147.7520 C   0  0  0  0  0  2  0  0  0  0  0  0
  191.7290  176.4560  147.0890 C   0  0  1  0  0  3  0  0  0  0  0  0
  190.5270  175.5710  147.2730 C   0  0  2  0  0  3  0  0  0  0  0  0
  1  2  1  0  0  0  0
  3  7  1  0  0  0  0
  3  1  2  0  0  0  0
  4 23  1  6  0  0  0
  5  4  1  0  0  0  0
  6  4  1  0  0  0  0
  6  2  1  0  0  0  0
  7  5  1  6  0  0  0
  7 14  1  0  0  0  0
  8 13  1  0  0  0  0
  9 10  1  1  0  0  0
  9  8  1  0  0  0  0
 10 14  1  0  0  0  0
 12 11  1  0  0  0  0
 13 11  1  0  0  0  0
 14 12  1  1  0  0  0
 15 18  1  6  0  0  0
 15 16  1  0  0  0  0
 15 17  1  0  0  0  0
 17 16  1  1  0  0  0
 17  9  1  0  0  0  0
 19 18  1  0  0  0  0
 20 19  1  0  0  0  0
 21 20  1  0  0  0  0
 22 21  1  0  0  0  0
 24 31  2  0  0  0  0
 25 29  1  0  0  0  0
 26 33  1  6  0  0  0
 26 25  1  0  0  0  0
 26 30  1  0  0  0  0
 27 31  1  0  0  0  0
 29 32  1  6  0  0  0
 29 27  1  0  0  0  0
 30 28  1  6  0  0  0
 30 24  1  0  0  0  0
 31 23  1  0  0  0  0
 34 36  1  0  0  0  0
 35 36  2  0  0  0  0
 36 33  1  0  0  0  0
 37  1  1  0  0  0  0
 38 39  1  6  0  0  0
 38 46  1  0  0  0  0
 40 51  1  0  0  0  0
 40 43  1  0  0  0  0
 41 52  1  0  0  0  0
 41 46  2  0  0  0  0
 42 49  1  0  0  0  0
 43 38  1  0  0  0  0
 45 49  1  0  0  0  0
 45 50  2  0  0  0  0
 47 43  2  0  0  0  0
 47 44  1  0  0  0  0
 48 50  1  0  0  0  0
 49 40  2  0  0  0  0
 50 47  1  0  0  0  0
 51 37  1  6  0  0  0
 51 41  1  0  0  0  0
 53 52  1  6  0  0  0
 55 56  1  0  0  0  0
 55 53  1  0  0  0  0
 55 54  1  1  0  0  0
 56 53  1  0  0  0  0
 56 54  1  1  0  0  0
M  END
>  <MODEL>
2

>  <REMARK>
 VINA RESULT:      -7.5      3.655      9.569
  Name = 
  14 active torsions:
  status: ('A' for Active; 'I' for Inactive)
    1  A    between atoms: O_1  and  C_37
    2  A    between atoms: O_1  and  C_52
    3  A    between atoms: C_3  and  C_53
    4  A    between atoms: C_5  and  C_13
    5  A    between atoms: C_7  and  N_24
    6  A    between atoms: C_7  and  C_49
    7  A    between atoms: C_8  and  O_22
    8  A    between atoms: C_10  and  C_31
    9  A    between atoms: C_13  and  C_49
   10  A    between atoms: C_16  and  C_55
   11  A    between atoms: C_19  and  O_22
   12  A    between atoms: C_31  and  C_34
   13  A    between atoms: C_50  and  C_53
   14  A    between atoms: C_51  and  C_56
                            x       y       z     vdW  Elec       q    Type
                         _______ _______ _______ _____ _____    ______ ____

>  <TORSDO>
F 14

$$$$
=
 OpenBabel11042417243D

 56 63  0  0  1  0  0  0  0  0999 V2000
  190.4010  175.5180  142.9340 C   0  0  0  0  0  0  0  0  0  0  0  0
  189.5920  174.3290  143.3620 C   0  0  0  0  0  2  0  0  0  0  0  0
  191.5930  175.3890  142.3270 C   0  0  0  0  0  3  0  0  0  0  0  0
  190.2440  172.5450  141.7100 C   0  0  1  0  0  3  0  0  0  0  0  0
  191.3760  173.2830  141.0100 C   0  0  0  0  0  2  0  0  0  0  0  0
  189.1460  173.5060  142.1600 C   0  0  0  0  0  2  0  0  0  0  0  0
  192.2200  174.0610  142.0210 C   0  0  1  0  0  3  0  0  0  0  0  0
  196.2840  175.3180  141.1910 O   0  0  0  0  0  0  0  0  0  0  0  0
  195.7320  174.6630  142.3010 C   0  0  2  0  0  3  0  0  0  0  0  0
  194.3890  175.0380  142.4510 O   0  0  0  0  0  0  0  0  0  0  0  0
  194.9190  174.5840  139.3300 C   0  0  0  0  0  2  0  0  0  0  0  0
  193.6670  174.9120  140.1550 C   0  0  0  0  0  2  0  0  0  0  0  0
  196.1970  174.3850  140.1520 C   0  0  0  0  0  2  0  0  0  0  0  0
  193.6570  174.2560  141.5400 C   0  0  2  0  0  3  0  0  0  0  0  0
  197.2860  173.8650  144.0210 C   0  0  2  0  0  3  0  0  0  0  0  0
  197.8860  174.9130  143.3050 O   0  0  0  0  0  0  0  0  0  0  0  0
  196.5060  175.0310  143.5540 C   0  0  1  0  0  3  0  0  0  0  0  0
  197.6040  174.0200  145.4930 C   0  0  0  0  0  2  0  0  0  0  0  0
  196.9600  172.8950  146.2820 C   0  0  0  0  0  2  0  0  0  0  0  0
  197.0500  171.5870  145.5110 C   0  0  0  0  0  2  0  0  0  0  0  0
  195.7870  170.8700  145.5700 N   0  0  0  0  0  2  0  0  0  0  0  0
  195.3900  170.5810  144.2030 C   0  0  0  0  0  1  0  0  0  0  0  0
  189.6980  171.5820  140.8210 O   0  0  0  0  0  0  0  0  0  0  0  0
  190.4020  171.1250  138.6560 N   0  0  0  0  0  0  0  0  0  0  0  0
  190.1790  173.5400  137.2520 O   0  0  0  0  0  0  0  0  0  0  0  0
  189.7870  172.3850  136.5590 C   0  0  2  0  0  3  0  0  0  0  0  0
  188.7250  172.7520  138.9470 O   0  0  0  0  0  0  0  0  0  0  0  0
  189.7150  169.9970  136.7270 O   0  0  0  0  0  1  0  0  0  0  0  0
  189.1600  173.8700  138.1700 C   0  0  2  0  0  3  0  0  0  0  0  0
  190.3960  171.1250  137.1880 C   0  0  2  0  0  3  0  0  0  0  0  0
  189.6260  171.8080  139.4480 C   0  0  0  0  0  0  0  0  0  0  0  0
  187.9820  174.5480  137.4880 C   0  0  0  0  0  1  0  0  0  0  0  0
  190.1270  172.5080  135.0730 C   0  0  0  0  0  2  0  0  0  0  0  0
  192.0790  171.0970  134.5270 F   0  0  0  0  0  0  0  0  0  0  0  0
  192.3450  173.2900  134.8430 O   0  0  0  0  0  0  0  0  0  0  0  0
  191.5890  172.3330  134.8010 C   0  0  0  0  0  0  0  0  0  0  0  0
  189.8430  176.8810  143.1880 C   0  0  0  0  0  2  0  0  0  0  0  0
  187.7860  177.0430  147.0030 C   0  0  2  0  0  3  0  0  0  0  0  0
  187.4240  175.7090  147.0240 F   0  0  0  0  0  0  0  0  0  0  0  0
  187.7500  177.6750  144.5620 C   0  0  0  0  0  0  0  0  0  0  0  0
  189.8820  177.1060  145.7740 C   0  0  0  0  0  0  0  0  0  0  0  0
  187.6360  178.2860  142.0700 C   0  0  0  0  0  1  0  0  0  0  0  0
  187.1280  177.7240  145.8320 C   0  0  0  0  0  0  0  0  0  0  0  0
  185.2990  178.4010  147.2190 F   0  0  0  0  0  0  0  0  0  0  0  0
  185.8660  178.9240  143.6490 C   0  0  0  0  0  3  0  0  0  0  0  0
  189.2440  177.1560  146.9080 N   0  0  0  0  0  0  0  0  0  0  0  0
  185.8930  178.3630  145.9990 C   0  0  0  0  0  0  0  0  0  0  0  0
  184.0760  179.5910  145.0640 F   0  0  0  0  0  0  0  0  0  0  0  0
  187.0930  178.2830  143.4590 C   0  0  0  0  0  0  0  0  0  0  0  0
  185.2680  178.9670  144.9080 C   0  0  0  0  0  0  0  0  0  0  0  0
  189.0680  176.9100  144.5010 C   0  0  2  0  0  3  0  0  0  0  0  0
  191.2770  177.2310  145.8050 O   0  0  0  0  0  0  0  0  0  0  0  0
  192.1350  176.3930  146.5590 C   0  0  2  0  0  3  0  0  0  0  0  0
  193.6760  174.5700  145.9520 C   0  0  0  0  0  2  0  0  0  0  0  0
  193.3530  176.0360  145.7310 C   0  0  1  0  0  3  0  0  0  0  0  0
  192.2360  175.0380  145.8850 C   0  0  2  0  0  3  0  0  0  0  0  0
  1 37  1  0  0  0  0
  1  2  1  0  0  0  0
  3  1  2  0  0  0  0
  4 23  1  6  0  0  0
  4  6  1  0  0  0  0
  5  4  1  0  0  0  0
  6  2  1  0  0  0  0
  7  5  1  6  0  0  0
  7  3  1  0  0  0  0
  9  8  1  6  0  0  0
  9 10  1  0  0  0  0
  9 17  1  0  0  0  0
 11 13  1  0  0  0  0
 11 12  1  0  0  0  0
 13  8  1  0  0  0  0
 14 12  1  6  0  0  0
 14  7  1  0  0  0  0
 14 10  1  0  0  0  0
 15 18  1  1  0  0  0
 16 15  1  0  0  0  0
 17 16  1  6  0  0  0
 17 15  1  0  0  0  0
 18 19  1  0  0  0  0
 20 21  1  0  0  0  0
 20 19  1  0  0  0  0
 22 21  1  0  0  0  0
 24 31  2  0  0  0  0
 25 29  1  0  0  0  0
 26 33  1  6  0  0  0
 26 30  1  0  0  0  0
 26 25  1  0  0  0  0
 27 31  1  0  0  0  0
 29 32  1  6  0  0  0
 29 27  1  0  0  0  0
 30 28  1  1  0  0  0
 30 24  1  0  0  0  0
 31 23  1  0  0  0  0
 34 36  1  0  0  0  0
 36 35  2  0  0  0  0
 36 33  1  0  0  0  0
 38 39  1  6  0  0  0
 40 43  1  0  0  0  0
 41 52  1  0  0  0  0
 41 46  2  0  0  0  0
 42 49  1  0  0  0  0
 43 47  2  0  0  0  0
 43 38  1  0  0  0  0
 45 50  2  0  0  0  0
 46 38  1  0  0  0  0
 47 44  1  0  0  0  0
 49 45  1  0  0  0  0
 49 40  2  0  0  0  0
 50 48  1  0  0  0  0
 50 47  1  0  0  0  0
 51 37  1  6  0  0  0
 51 40  1  0  0  0  0
 51 41  1  0  0  0  0
 53 52  1  6  0  0  0
 55 56  1  0  0  0  0
 55 54  1  1  0  0  0
 55 53  1  0  0  0  0
 56 54  1  1  0  0  0
 56 53  1  0  0  0  0
M  END
>  <MODEL>
3

>  <REMARK>
 VINA RESULT:      -7.5      3.592      9.213
  Name = 
  14 active torsions:
  status: ('A' for Active; 'I' for Inactive)
    1  A    between atoms: O_1  and  C_37
    2  A    between atoms: O_1  and  C_52
    3  A    between atoms: C_3  and  C_53
    4  A    between atoms: C_5  and  C_13
    5  A    between atoms: C_7  and  N_24
    6  A    between atoms: C_7  and  C_49
    7  A    between atoms: C_8  and  O_22
    8  A    between atoms: C_10  and  C_31
    9  A    between atoms: C_13  and  C_49
   10  A    between atoms: C_16  and  C_55
   11  A    between atoms: C_19  and  O_22
   12  A    between atoms: C_31  and  C_34
   13  A    between atoms: C_50  and  C_53
   14  A    between atoms: C_51  and  C_56
                            x       y       z     vdW  Elec       q    Type
                         _______ _______ _______ _____ _____    ______ ____

>  <TORSDO>
F 14

$$$$
=
 OpenBabel11042417243D

 56 63  0  0  1  0  0  0  0  0999 V2000
  190.0780  174.9430  142.7620 C   0  0  0  0  0  0  0  0  0  0  0  0
  188.9410  174.0480  142.3620 C   0  0  0  0  0  2  0  0  0  0  0  0
  191.3110  174.4670  142.9990 C   0  0  0  0  0  3  0  0  0  0  0  0
  190.0760  172.1610  141.1430 C   0  0  1  0  0  3  0  0  0  0  0  0
  191.5220  172.5310  141.4420 C   0  0  0  0  0  2  0  0  0  0  0  0
  189.1990  173.4040  141.0060 C   0  0  0  0  0  2  0  0  0  0  0  0
  191.6670  173.0140  142.8860 C   0  0  1  0  0  3  0  0  0  0  0  0
  195.7300  171.7740  143.7510 O   0  0  0  0  0  0  0  0  0  0  0  0
  195.2220  172.6540  142.7840 C   0  0  2  0  0  3  0  0  0  0  0  0
  193.9210  172.2670  142.4300 O   0  0  0  0  0  0  0  0  0  0  0  0
  194.1830  171.9730  145.6040 C   0  0  0  0  0  2  0  0  0  0  0  0
  193.0210  171.8000  144.6170 C   0  0  0  0  0  2  0  0  0  0  0  0
  195.5040  172.4220  144.9700 C   0  0  0  0  0  2  0  0  0  0  0  0
  193.0740  172.7720  143.4330 C   0  0  2  0  0  3  0  0  0  0  0  0
  197.0780  173.7510  141.6180 C   0  0  2  0  0  3  0  0  0  0  0  0
  197.4470  172.4360  141.9420 O   0  0  0  0  0  0  0  0  0  0  0  0
  196.1100  172.6350  141.5530 C   0  0  1  0  0  3  0  0  0  0  0  0
  197.5730  174.0790  140.2250 C   0  0  0  0  0  2  0  0  0  0  0  0
  197.3560  175.5530  139.9340 C   0  0  0  0  0  2  0  0  0  0  0  0
  196.4790  176.1820  141.0060 C   0  0  0  0  0  2  0  0  0  0  0  0
  195.0960  176.2430  140.5650 N   0  0  0  0  0  2  0  0  0  0  0  0
  194.2610  176.1830  141.7520 C   0  0  0  0  0  1  0  0  0  0  0  0
  190.0280  171.4110  139.9380 O   0  0  0  0  0  0  0  0  0  0  0  0
  191.9540  170.7940  138.7950 N   0  0  0  0  0  0  0  0  0  0  0  0
  193.0850  173.1770  137.8530 O   0  0  0  0  0  0  0  0  0  0  0  0
  193.1210  172.0860  136.9720 C   0  0  2  0  0  3  0  0  0  0  0  0
  190.7760  172.6810  138.0240 O   0  0  0  0  0  0  0  0  0  0  0  0
  192.6310  169.7480  136.8180 O   0  0  0  0  0  1  0  0  0  0  0  0
  191.7710  173.6930  137.8610 C   0  0  2  0  0  3  0  0  0  0  0  0
  192.9550  170.7590  137.7230 C   0  0  2  0  0  3  0  0  0  0  0  0
  190.9480  171.6130  138.9100 C   0  0  0  0  0  0  0  0  0  0  0  0
  191.4870  174.5390  136.6300 C   0  0  0  0  0  1  0  0  0  0  0  0
  194.4000  172.1170  136.1330 C   0  0  0  0  0  2  0  0  0  0  0  0
  196.0740  173.5410  137.2590 F   0  0  0  0  0  0  0  0  0  0  0  0
  194.9230  174.3380  135.5210 O   0  0  0  0  0  0  0  0  0  0  0  0
  195.1500  173.4050  136.2740 C   0  0  0  0  0  0  0  0  0  0  0  0
  189.8130  176.4090  142.8850 C   0  0  0  0  0  2  0  0  0  0  0  0
  187.8420  177.3560  146.6300 C   0  0  2  0  0  3  0  0  0  0  0  0
  187.3380  176.0870  146.8480 F   0  0  0  0  0  0  0  0  0  0  0  0
  187.8390  177.6200  144.1220 C   0  0  0  0  0  0  0  0  0  0  0  0
  189.9140  177.0070  145.4080 C   0  0  0  0  0  0  0  0  0  0  0  0
  187.7540  177.8660  141.5670 C   0  0  0  0  0  1  0  0  0  0  0  0
  187.2440  177.9240  145.3700 C   0  0  0  0  0  0  0  0  0  0  0  0
  185.5200  178.9950  146.6380 F   0  0  0  0  0  0  0  0  0  0  0  0
  186.0880  178.9190  143.0310 C   0  0  0  0  0  3  0  0  0  0  0  0
  189.3010  177.2930  146.5210 N   0  0  0  0  0  0  0  0  0  0  0  0
  186.0880  178.7120  145.4390 C   0  0  0  0  0  0  0  0  0  0  0  0
  184.4010  179.9800  144.3290 F   0  0  0  0  0  0  0  0  0  0  0  0
  187.2350  178.1280  142.9400 C   0  0  0  0  0  0  0  0  0  0  0  0
  185.5170  179.2130  144.2690 C   0  0  0  0  0  0  0  0  0  0  0  0
  189.0650  176.7160  144.1770 C   0  0  2  0  0  3  0  0  0  0  0  0
  191.3140  176.9820  145.4220 O   0  0  0  0  0  0  0  0  0  0  0  0
  192.0870  176.0000  146.0920 C   0  0  2  0  0  3  0  0  0  0  0  0
  194.5030  175.7270  146.4780 C   0  0  0  0  0  2  0  0  0  0  0  0
  193.3160  176.6460  146.6960 C   0  0  1  0  0  3  0  0  0  0  0  0
  193.4360  175.8710  145.4120 C   0  0  2  0  0  3  0  0  0  0  0  0
  1 37  1  0  0  0  0
  1  3  2  0  0  0  0
  2  1  1  0  0  0  0
  4 23  1  6  0  0  0
  4  5  1  0  0  0  0
  6  4  1  0  0  0  0
  6  2  1  0  0  0  0
  7  5  1  6  0  0  0
  7  3  1  0  0  0  0
  7 14  1  0  0  0  0
  8 13  1  0  0  0  0
  9 10  1  6  0  0  0
  9  8  1  0  0  0  0
 10 14  1  0  0  0  0
 12 11  1  0  0  0  0
 13 11  1  0  0  0  0
 14 12  1  1  0  0  0
 15 18  1  6  0  0  0
 15 16  1  0  0  0  0
 17 15  1  0  0  0  0
 17 16  1  1  0  0  0
 17  9  1  0  0  0  0
 19 18  1  0  0  0  0
 19 20  1  0  0  0  0
 21 20  1  0  0  0  0
 21 22  1  0  0  0  0
 24 31  2  0  0  0  0
 25 29  1  0  0  0  0
 26 33  1  1  0  0  0
 26 30  1  0  0  0  0
 26 25  1  0  0  0  0
 27 31  1  0  0  0  0
 29 32  1  6  0  0  0
 29 27  1  0  0  0  0
 30 28  1  6  0  0  0
 30 24  1  0  0  0  0
 31 23  1  0  0  0  0
 33 36  1  0  0  0  0
 35 36  2  0  0  0  0
 36 34  1  0  0  0  0
 38 39  1  6  0  0  0
 40 51  1  0  0  0  0
 40 43  1  0  0  0  0
 41 52  1  0  0  0  0
 41 46  2  0  0  0  0
 42 49  1  0  0  0  0
 43 47  2  0  0  0  0
 43 38  1  0  0  0  0
 45 50  2  0  0  0  0
 46 38  1  0  0  0  0
 47 44  1  0  0  0  0
 49 45  1  0  0  0  0
 49 40  2  0  0  0  0
 50 48  1  0  0  0  0
 50 47  1  0  0  0  0
 51 37  1  6  0  0  0
 51 41  1  0  0  0  0
 53 52  1  6  0  0  0
 53 55  1  0  0  0  0
 55 54  1  1  0  0  0
 56 53  1  0  0  0  0
 56 54  1  1  0  0  0
 56 55  1  0  0  0  0
M  END
>  <MODEL>
4

>  <REMARK>
 VINA RESULT:      -7.4      3.490      9.005
  Name = 
  14 active torsions:
  status: ('A' for Active; 'I' for Inactive)
    1  A    between atoms: O_1  and  C_37
    2  A    between atoms: O_1  and  C_52
    3  A    between atoms: C_3  and  C_53
    4  A    between atoms: C_5  and  C_13
    5  A    between atoms: C_7  and  N_24
    6  A    between atoms: C_7  and  C_49
    7  A    between atoms: C_8  and  O_22
    8  A    between atoms: C_10  and  C_31
    9  A    between atoms: C_13  and  C_49
   10  A    between atoms: C_16  and  C_55
   11  A    between atoms: C_19  and  O_22
   12  A    between atoms: C_31  and  C_34
   13  A    between atoms: C_50  and  C_53
   14  A    between atoms: C_51  and  C_56
                            x       y       z     vdW  Elec       q    Type
                         _______ _______ _______ _____ _____    ______ ____

>  <TORSDO>
F 14

$$$$
=
 OpenBabel11042417243D

 56 63  0  0  1  0  0  0  0  0999 V2000
  190.9590  171.5200  142.6270 C   0  0  0  0  0  0  0  0  0  0  0  0
  189.4900  171.8260  142.5970 C   0  0  0  0  0  2  0  0  0  0  0  0
  191.7420  171.6690  141.5460 C   0  0  0  0  0  3  0  0  0  0  0  0
  189.2980  173.6260  140.8480 C   0  0  1  0  0  3  0  0  0  0  0  0
  190.7270  173.5920  140.3250 C   0  0  0  0  0  2  0  0  0  0  0  0
  189.2420  173.3070  142.3400 C   0  0  0  0  0  2  0  0  0  0  0  0
  191.2290  172.1510  140.2200 C   0  0  1  0  0  3  0  0  0  0  0  0
  194.0880  172.5500  136.9870 O   0  0  0  0  0  0  0  0  0  0  0  0
  194.1140  173.0320  138.3030 C   0  0  2  0  0  3  0  0  0  0  0  0
  192.8040  173.2510  138.7530 O   0  0  0  0  0  0  0  0  0  0  0  0
  192.8180  170.4930  137.1340 C   0  0  0  0  0  2  0  0  0  0  0  0
  191.7470  171.2440  137.9380 C   0  0  0  0  0  2  0  0  0  0  0  0
  194.1970  171.1610  137.1170 C   0  0  0  0  0  2  0  0  0  0  0  0
  192.3080  171.9960  139.1500 C   0  0  2  0  0  3  0  0  0  0  0  0
  196.0590  174.1770  139.2590 C   0  0  2  0  0  3  0  0  0  0  0  0
  196.1940  174.1210  137.8630 O   0  0  0  0  0  0  0  0  0  0  0  0
  194.8950  174.3320  138.3610 C   0  0  1  0  0  3  0  0  0  0  0  0
  196.5100  175.5370  139.7500 C   0  0  0  0  0  2  0  0  0  0  0  0
  196.0820  175.7330  141.1930 C   0  0  0  0  0  2  0  0  0  0  0  0
  194.7330  176.4340  141.2560 C   0  0  0  0  0  2  0  0  0  0  0  0
  194.1890  176.3780  142.6020 N   0  0  0  0  0  2  0  0  0  0  0  0
  192.7970  175.9820  142.4900 C   0  0  0  0  0  1  0  0  0  0  0  0
  188.7490  174.9150  140.6170 O   0  0  0  0  0  0  0  0  0  0  0  0
  187.0750  175.8640  141.9180 N   0  0  0  0  0  0  0  0  0  0  0  0
  188.0270  178.3890  142.6710 O   0  0  0  0  0  0  0  0  0  0  0  0
  187.3410  177.6690  143.6590 C   0  0  2  0  0  3  0  0  0  0  0  0
  189.3080  176.4120  142.4270 O   0  0  0  0  0  0  0  0  0  0  0  0
  186.0860  175.6630  144.0260 O   0  0  0  0  0  1  0  0  0  0  0  0
  189.3180  177.8370  142.5390 C   0  0  2  0  0  3  0  0  0  0  0  0
  186.4560  176.5790  143.0410 C   0  0  2  0  0  3  0  0  0  0  0  0
  188.3460  175.7400  141.6660 C   0  0  0  0  0  0  0  0  0  0  0  0
  190.2430  178.2850  143.6600 C   0  0  0  0  0  1  0  0  0  0  0  0
  186.5440  178.6150  144.5590 C   0  0  0  0  0  2  0  0  0  0  0  0
  185.0600  179.4120  142.7530 F   0  0  0  0  0  0  0  0  0  0  0  0
  184.1890  178.7440  144.6950 O   0  0  0  0  0  0  0  0  0  0  0  0
  185.1840  178.9190  144.0120 C   0  0  0  0  0  0  0  0  0  0  0  0
  191.5560  171.0480  143.9140 C   0  0  0  0  0  2  0  0  0  0  0  0
  194.8270  173.6110  145.1550 C   0  0  2  0  0  3  0  0  0  0  0  0
  195.2050  173.9840  143.8780 F   0  0  0  0  0  0  0  0  0  0  0  0
  193.9800  171.2490  144.9040 C   0  0  0  0  0  0  0  0  0  0  0  0
  192.4310  173.2300  145.0140 C   0  0  0  0  0  0  0  0  0  0  0  0
  193.1890  168.8230  144.6080 C   0  0  0  0  0  1  0  0  0  0  0  0
  195.0100  172.1250  145.3190 C   0  0  0  0  0  0  0  0  0  0  0  0
  197.1950  172.4690  146.2330 F   0  0  0  0  0  0  0  0  0  0  0  0
  195.3870  169.3690  145.5570 C   0  0  0  0  0  3  0  0  0  0  0  0
  193.4280  173.9820  145.3810 N   0  0  0  0  0  0  0  0  0  0  0  0
  196.2090  171.6230  145.8420 C   0  0  0  0  0  0  0  0  0  0  0  0
  197.5460  169.7540  146.4760 F   0  0  0  0  0  0  0  0  0  0  0  0
  194.1880  169.8480  145.0240 C   0  0  0  0  0  0  0  0  0  0  0  0
  196.3910  170.2460  145.9660 C   0  0  0  0  0  0  0  0  0  0  0  0
  192.7450  171.9160  144.3090 C   0  0  2  0  0  3  0  0  0  0  0  0
  191.1350  173.6850  145.2890 O   0  0  0  0  0  0  0  0  0  0  0  0
  190.8060  175.0380  145.5560 C   0  0  2  0  0  3  0  0  0  0  0  0
  188.9350  176.1180  146.7380 C   0  0  0  0  0  2  0  0  0  0  0  0
  190.0780  175.1310  146.8810 C   0  0  1  0  0  3  0  0  0  0  0  0
  189.2980  175.1910  145.5960 C   0  0  2  0  0  3  0  0  0  0  0  0
  1 37  1  0  0  0  0
  2  1  1  0  0  0  0
  3  1  2  0  0  0  0
  4 23  1  1  0  0  0
  4  6  1  0  0  0  0
  5  4  1  0  0  0  0
  6  2  1  0  0  0  0
  7  5  1  1  0  0  0
  7  3  1  0  0  0  0
  8 13  1  0  0  0  0
  9  8  1  6  0  0  0
  9 17  1  0  0  0  0
  9 10  1  0  0  0  0
 10 14  1  0  0  0  0
 11 12  1  0  0  0  0
 13 11  1  0  0  0  0
 14 12  1  6  0  0  0
 14  7  1  0  0  0  0
 15 18  1  6  0  0  0
 16 15  1  0  0  0  0
 17 16  1  6  0  0  0
 17 15  1  0  0  0  0
 18 19  1  0  0  0  0
 19 20  1  0  0  0  0
 20 21  1  0  0  0  0
 22 21  1  0  0  0  0
 23 31  1  0  0  0  0
 24 30  1  0  0  0  0
 25 26  1  0  0  0  0
 26 33  1  6  0  0  0
 27 29  1  0  0  0  0
 29 25  1  0  0  0  0
 29 32  1  1  0  0  0
 30 26  1  0  0  0  0
 30 28  1  1  0  0  0
 31 24  2  0  0  0  0
 31 27  1  0  0  0  0
 34 36  1  0  0  0  0
 36 33  1  0  0  0  0
 36 35  2  0  0  0  0
 38 39  1  6  0  0  0
 38 43  1  0  0  0  0
 38 46  1  0  0  0  0
 40 49  2  0  0  0  0
 40 43  1  0  0  0  0
 41 52  1  0  0  0  0
 41 46  2  0  0  0  0
 42 49  1  0  0  0  0
 43 47  2  0  0  0  0
 45 50  2  0  0  0  0
 47 50  1  0  0  0  0
 47 44  1  0  0  0  0
 49 45  1  0  0  0  0
 50 48  1  0  0  0  0
 51 37  1  1  0  0  0
 51 40  1  0  0  0  0
 51 41  1  0  0  0  0
 53 52  1  1  0  0  0
 53 56  1  0  0  0  0
 53 55  1  0  0  0  0
 55 54  1  6  0  0  0
 56 54  1  6  0  0  0
 56 55  1  0  0  0  0
M  END
>  <MODEL>
5

>  <REMARK>
 VINA RESULT:      -7.0      3.010      8.767
  Name = 
  14 active torsions:
  status: ('A' for Active; 'I' for Inactive)
    1  A    between atoms: O_1  and  C_37
    2  A    between atoms: O_1  and  C_52
    3  A    between atoms: C_3  and  C_53
    4  A    between atoms: C_5  and  C_13
    5  A    between atoms: C_7  and  N_24
    6  A    between atoms: C_7  and  C_49
    7  A    between atoms: C_8  and  O_22
    8  A    between atoms: C_10  and  C_31
    9  A    between atoms: C_13  and  C_49
   10  A    between atoms: C_16  and  C_55
   11  A    between atoms: C_19  and  O_22
   12  A    between atoms: C_31  and  C_34
   13  A    between atoms: C_50  and  C_53
   14  A    between atoms: C_51  and  C_56
                            x       y       z     vdW  Elec       q    Type
                         _______ _______ _______ _____ _____    ______ ____

>  <TORSDO>
F 14

$$$$
=
 OpenBabel11042417243D

 56 63  0  0  1  0  0  0  0  0999 V2000
  190.7160  174.5570  144.1890 C   0  0  0  0  0  0  0  0  0  0  0  0
  191.2710  174.6130  142.7950 C   0  0  0  0  0  2  0  0  0  0  0  0
  189.5150  175.0710  144.5000 C   0  0  0  0  0  3  0  0  0  0  0  0
  189.2170  174.6020  141.3410 C   0  0  1  0  0  3  0  0  0  0  0  0
  188.1630  174.7460  142.4300 C   0  0  0  0  0  2  0  0  0  0  0  0
  190.4190  173.7980  141.8310 C   0  0  0  0  0  2  0  0  0  0  0  0
  188.6230  175.7410  143.4960 C   0  0  1  0  0  3  0  0  0  0  0  0
  185.5500  178.3620  145.0700 O   0  0  0  0  0  0  0  0  0  0  0  0
  185.6880  177.7580  143.8130 C   0  0  2  0  0  3  0  0  0  0  0  0
  187.0480  177.5760  143.5230 O   0  0  0  0  0  0  0  0  0  0  0  0
  186.6080  176.8070  146.5960 C   0  0  0  0  0  2  0  0  0  0  0  0
  187.8160  176.7450  145.6510 C   0  0  0  0  0  2  0  0  0  0  0  0
  185.3100  177.3000  145.9480 C   0  0  0  0  0  2  0  0  0  0  0  0
  187.4440  176.4100  144.2030 C   0  0  2  0  0  3  0  0  0  0  0  0
  183.9240  177.9170  142.1190 C   0  0  2  0  0  3  0  0  0  0  0  0
  183.7180  178.9030  143.0960 O   0  0  0  0  0  0  0  0  0  0  0  0
  185.0540  178.6330  142.7480 C   0  0  1  0  0  3  0  0  0  0  0  0
  183.6450  178.5030  140.7510 C   0  0  0  0  0  2  0  0  0  0  0  0
  182.3970  177.8710  140.1620 C   0  0  0  0  0  2  0  0  0  0  0  0
  181.1680  178.6950  140.5150 C   0  0  0  0  0  2  0  0  0  0  0  0
  180.3780  178.0240  141.5340 N   0  0  0  0  0  2  0  0  0  0  0  0
  179.8140  179.0530  142.3900 C   0  0  0  0  0  1  0  0  0  0  0  0
  188.6380  173.9540  140.2170 O   0  0  0  0  0  0  0  0  0  0  0  0
  189.5870  171.9280  139.5940 N   0  0  0  0  0  0  0  0  0  0  0  0
  191.9810  172.5700  138.2890 O   0  0  0  0  0  0  0  0  0  0  0  0
  191.2300  171.5290  137.7230 C   0  0  2  0  0  3  0  0  0  0  0  0
  189.9520  173.7880  138.1980 O   0  0  0  0  0  0  0  0  0  0  0  0
  189.2850  170.1770  138.0740 O   0  0  0  0  0  1  0  0  0  0  0  0
  191.3600  173.7920  137.9540 C   0  0  2  0  0  3  0  0  0  0  0  0
  190.2500  170.9330  138.7410 C   0  0  2  0  0  3  0  0  0  0  0  0
  189.4030  173.1900  139.3360 C   0  0  0  0  0  0  0  0  0  0  0  0
  191.6620  174.2070  136.5220 C   0  0  0  0  0  1  0  0  0  0  0  0
  192.1520  170.4660  137.1230 C   0  0  0  0  0  2  0  0  0  0  0  0
  190.6310  170.3360  135.1820 F   0  0  0  0  0  0  0  0  0  0  0  0
  192.8120  169.9500  134.9140 O   0  0  0  0  0  0  0  0  0  0  0  0
  191.8960  170.2390  135.6650 C   0  0  0  0  0  0  0  0  0  0  0  0
  191.5340  173.8930  145.2490 C   0  0  0  0  0  2  0  0  0  0  0  0
  195.6400  175.2910  145.2530 C   0  0  2  0  0  3  0  0  0  0  0  0
  195.5190  176.0840  144.1270 F   0  0  0  0  0  0  0  0  0  0  0  0
  194.0730  173.3580  144.8420 C   0  0  0  0  0  0  0  0  0  0  0  0
  193.4380  175.3220  146.2820 C   0  0  0  0  0  0  0  0  0  0  0  0
  192.5140  171.3780  144.3480 C   0  0  0  0  0  1  0  0  0  0  0  0
  195.3990  173.8510  144.8820 C   0  0  0  0  0  0  0  0  0  0  0  0
  197.7470  173.5080  144.5770 F   0  0  0  0  0  0  0  0  0  0  0  0
  194.9530  171.2020  144.1200 C   0  0  0  0  0  3  0  0  0  0  0  0
  194.6760  175.7260  146.2670 N   0  0  0  0  0  0  0  0  0  0  0  0
  196.4790  173.0270  144.5430 C   0  0  0  0  0  0  0  0  0  0  0  0
  197.2950  170.8980  143.8450 F   0  0  0  0  0  0  0  0  0  0  0  0
  193.8600  172.0100  144.4460 C   0  0  0  0  0  0  0  0  0  0  0  0
  196.2530  171.7020  144.1690 C   0  0  0  0  0  0  0  0  0  0  0  0
  192.9830  174.3660  145.1880 C   0  0  2  0  0  3  0  0  0  0  0  0
  192.6090  175.8010  147.3050 O   0  0  0  0  0  0  0  0  0  0  0  0
  192.1330  177.1340  147.3850 C   0  0  2  0  0  3  0  0  0  0  0  0
  190.2930  178.1970  148.6300 C   0  0  0  0  0  2  0  0  0  0  0  0
  191.5700  177.3900  148.7680 C   0  0  1  0  0  3  0  0  0  0  0  0
  190.6350  177.1210  147.6200 C   0  0  2  0  0  3  0  0  0  0  0  0
  1  3  2  0  0  0  0
  1 37  1  0  0  0  0
  2  1  1  0  0  0  0
  4 23  1  6  0  0  0
  4  6  1  0  0  0  0
  4  5  1  0  0  0  0
  6  2  1  0  0  0  0
  7  5  1  6  0  0  0
  7 14  1  0  0  0  0
  7  3  1  0  0  0  0
  8 13  1  0  0  0  0
  9 10  1  6  0  0  0
  9  8  1  0  0  0  0
 10 14  1  0  0  0  0
 12 11  1  0  0  0  0
 13 11  1  0  0  0  0
 14 12  1  1  0  0  0
 15 18  1  6  0  0  0
 15 17  1  0  0  0  0
 15 16  1  0  0  0  0
 17 16  1  1  0  0  0
 17  9  1  0  0  0  0
 19 20  1  0  0  0  0
 19 18  1  0  0  0  0
 20 21  1  0  0  0  0
 21 22  1  0  0  0  0
 26 33  1  1  0  0  0
 26 25  1  0  0  0  0
 26 30  1  0  0  0  0
 27 31  1  0  0  0  0
 29 32  1  6  0  0  0
 29 27  1  0  0  0  0
 29 25  1  0  0  0  0
 30 28  1  6  0  0  0
 30 24  1  0  0  0  0
 31 24  2  0  0  0  0
 31 23  1  0  0  0  0
 34 36  1  0  0  0  0
 35 36  2  0  0  0  0
 36 33  1  0  0  0  0
 38 39  1  6  0  0  0
 38 46  1  0  0  0  0
 40 43  1  0  0  0  0
 40 51  1  0  0  0  0
 41 52  1  0  0  0  0
 42 49  1  0  0  0  0
 43 38  1  0  0  0  0
 45 50  2  0  0  0  0
 45 49  1  0  0  0  0
 46 41  2  0  0  0  0
 47 44  1  0  0  0  0
 47 43  2  0  0  0  0
 48 50  1  0  0  0  0
 49 40  2  0  0  0  0
 50 47  1  0  0  0  0
 51 37  1  1  0  0  0
 51 41  1  0  0  0  0
 53 52  1  1  0  0  0
 53 56  1  0  0  0  0
 53 55  1  0  0  0  0
 55 54  1  6  0  0  0
 56 54  1  6  0  0  0
 56 55  1  0  0  0  0
M  END
>  <MODEL>
6

>  <REMARK>
 VINA RESULT:      -6.9      3.008      7.325
  Name = 
  14 active torsions:
  status: ('A' for Active; 'I' for Inactive)
    1  A    between atoms: O_1  and  C_37
    2  A    between atoms: O_1  and  C_52
    3  A    between atoms: C_3  and  C_53
    4  A    between atoms: C_5  and  C_13
    5  A    between atoms: C_7  and  N_24
    6  A    between atoms: C_7  and  C_49
    7  A    between atoms: C_8  and  O_22
    8  A    between atoms: C_10  and  C_31
    9  A    between atoms: C_13  and  C_49
   10  A    between atoms: C_16  and  C_55
   11  A    between atoms: C_19  and  O_22
   12  A    between atoms: C_31  and  C_34
   13  A    between atoms: C_50  and  C_53
   14  A    between atoms: C_51  and  C_56
                            x       y       z     vdW  Elec       q    Type
                         _______ _______ _______ _____ _____    ______ ____

>  <TORSDO>
F 14

$$$$
=
 OpenBabel11042417243D

 56 63  0  0  1  0  0  0  0  0999 V2000
  189.6820  173.2640  141.2720 C   0  0  0  0  0  0  0  0  0  0  0  0
  189.9880  172.5630  142.5630 C   0  0  0  0  0  2  0  0  0  0  0  0
  188.9500  174.3890  141.2270 C   0  0  0  0  0  3  0  0  0  0  0  0
  190.0020  174.4250  144.2570 C   0  0  1  0  0  3  0  0  0  0  0  0
  189.4930  175.5490  143.3670 C   0  0  0  0  0  2  0  0  0  0  0  0
  190.8520  173.4300  143.4690 C   0  0  0  0  0  2  0  0  0  0  0  0
  188.3770  175.0460  142.4480 C   0  0  1  0  0  3  0  0  0  0  0  0
  185.0430  177.7020  141.6620 O   0  0  0  0  0  0  0  0  0  0  0  0
  185.7420  177.4280  142.8460 C   0  0  2  0  0  3  0  0  0  0  0  0
  186.2400  176.1180  142.8090 O   0  0  0  0  0  0  0  0  0  0  0  0
  186.6950  177.4030  139.9160 C   0  0  0  0  0  2  0  0  0  0  0  0
  187.0840  176.0620  140.5520 C   0  0  0  0  0  2  0  0  0  0  0  0
  185.9670  178.3730  140.8540 C   0  0  0  0  0  2  0  0  0  0  0  0
  187.4190  176.1660  142.0430 C   0  0  2  0  0  3  0  0  0  0  0  0
  185.1560  178.8230  144.7750 C   0  0  2  0  0  3  0  0  0  0  0  0
  184.0630  178.7650  143.8950 O   0  0  0  0  0  0  0  0  0  0  0  0
  184.8170  177.5860  144.0390 C   0  0  1  0  0  3  0  0  0  0  0  0
  184.6550  178.7230  146.2000 C   0  0  0  0  0  2  0  0  0  0  0  0
  185.8300  178.5910  147.1520 C   0  0  0  0  0  2  0  0  0  0  0  0
  185.9860  177.1470  147.6050 C   0  0  0  0  0  2  0  0  0  0  0  0
  186.8730  176.4230  146.7100 N   0  0  0  0  0  2  0  0  0  0  0  0
  188.0850  177.2120  146.5740 C   0  0  0  0  0  1  0  0  0  0  0  0
  190.7760  174.9800  145.3110 O   0  0  0  0  0  0  0  0  0  0  0  0
  192.7630  176.0530  144.7720 N   0  0  0  0  0  0  0  0  0  0  0  0
  194.5640  174.0260  144.0680 O   0  0  0  0  0  0  0  0  0  0  0  0
  195.0870  175.0750  144.8380 C   0  0  2  0  0  3  0  0  0  0  0  0
  192.8980  173.9150  145.7470 O   0  0  0  0  0  0  0  0  0  0  0  0
  194.5310  177.2060  145.7770 O   0  0  0  0  0  1  0  0  0  0  0  0
  193.8080  173.1910  144.9170 C   0  0  2  0  0  3  0  0  0  0  0  0
  194.2050  176.3270  144.7440 C   0  0  2  0  0  3  0  0  0  0  0  0
  192.1690  175.0050  145.2640 C   0  0  0  0  0  0  0  0  0  0  0  0
  194.6960  172.2800  145.7520 C   0  0  0  0  0  1  0  0  0  0  0  0
  196.5370  175.3610  144.4430 C   0  0  0  0  0  2  0  0  0  0  0  0
  197.3810  173.1560  143.7190 F   0  0  0  0  0  0  0  0  0  0  0  0
  197.1620  174.8060  142.2330 O   0  0  0  0  0  0  0  0  0  0  0  0
  197.0390  174.4270  143.3860 C   0  0  0  0  0  0  0  0  0  0  0  0
  190.2270  172.6830  140.0070 C   0  0  0  0  0  2  0  0  0  0  0  0
  192.5220  169.0640  140.6720 C   0  0  2  0  0  3  0  0  0  0  0  0
  192.0170  168.8080  141.9340 F   0  0  0  0  0  0  0  0  0  0  0  0
  192.5580  171.5800  140.4990 C   0  0  0  0  0  0  0  0  0  0  0  0
  190.7190  170.1870  139.4910 C   0  0  0  0  0  0  0  0  0  0  0  0
  192.6370  174.1450  140.3970 C   0  0  0  0  0  1  0  0  0  0  0  0
  193.2700  170.3710  140.6860 C   0  0  0  0  0  0  0  0  0  0  0  0
  195.3260  169.2200  141.1070 F   0  0  0  0  0  0  0  0  0  0  0  0
  194.6510  172.7960  140.7880 C   0  0  0  0  0  3  0  0  0  0  0  0
  191.4240  169.1130  139.7040 N   0  0  0  0  0  0  0  0  0  0  0  0
  194.6510  170.3830  140.9220 C   0  0  0  0  0  0  0  0  0  0  0  0
  196.6750  171.6140  141.1890 F   0  0  0  0  0  0  0  0  0  0  0  0
  193.2730  172.8060  140.5610 C   0  0  0  0  0  0  0  0  0  0  0  0
  195.3390  171.5960  140.9660 C   0  0  0  0  0  0  0  0  0  0  0  0
  191.0540  171.4360  140.2980 C   0  0  2  0  0  3  0  0  0  0  0  0
  189.6970  170.1180  138.5360 O   0  0  0  0  0  0  0  0  0  0  0  0
  189.9170  169.9510  137.1450 C   0  0  2  0  0  3  0  0  0  0  0  0
  190.5940  171.4910  135.3470 C   0  0  0  0  0  2  0  0  0  0  0  0
  191.0010  170.9030  136.6840 C   0  0  1  0  0  3  0  0  0  0  0  0
  189.5570  171.2340  136.4210 C   0  0  2  0  0  3  0  0  0  0  0  0
  1  2  1  0  0  0  0
  2  6  1  0  0  0  0
  3  1  2  0  0  0  0
  4 23  1  1  0  0  0
  5  4  1  0  0  0  0
  6  4  1  0  0  0  0
  7  3  1  6  0  0  0
  7  5  1  0  0  0  0
  9  8  1  6  0  0  0
  9 17  1  0  0  0  0
 10  9  1  0  0  0  0
 11 12  1  0  0  0  0
 11 13  1  0  0  0  0
 13  8  1  0  0  0  0
 14 12  1  6  0  0  0
 14  7  1  0  0  0  0
 14 10  1  0  0  0  0
 15 18  1  1  0  0  0
 16 15  1  0  0  0  0
 17 16  1  6  0  0  0
 17 15  1  0  0  0  0
 18 19  1  0  0  0  0
 19 20  1  0  0  0  0
 21 20  1  0  0  0  0
 22 21  1  0  0  0  0
 24 31  2  0  0  0  0
 25 26  1  0  0  0  0
 25 29  1  0  0  0  0
 26 33  1  6  0  0  0
 29 27  1  0  0  0  0
 29 32  1  1  0  0  0
 30 24  1  0  0  0  0
 30 26  1  0  0  0  0
 30 28  1  1  0  0  0
 31 23  1  0  0  0  0
 31 27  1  0  0  0  0
 35 36  2  0  0  0  0
 36 34  1  0  0  0  0
 36 33  1  0  0  0  0
 37  1  1  0  0  0  0
 38 43  1  0  0  0  0
 38 39  1  1  0  0  0
 40 49  2  0  0  0  0
 40 43  1  0  0  0  0
 41 46  2  0  0  0  0
 41 51  1  0  0  0  0
 42 49  1  0  0  0  0
 43 47  2  0  0  0  0
 45 50  2  0  0  0  0
 46 38  1  0  0  0  0
 47 50  1  0  0  0  0
 47 44  1  0  0  0  0
 49 45  1  0  0  0  0
 50 48  1  0  0  0  0
 51 37  1  6  0  0  0
 51 40  1  0  0  0  0
 52 41  1  0  0  0  0
 53 52  1  1  0  0  0
 55 54  1  6  0  0  0
 55 53  1  0  0  0  0
 56 54  1  6  0  0  0
 56 55  1  0  0  0  0
 56 53  1  0  0  0  0
M  END
>  <MODEL>
7

>  <REMARK>
 VINA RESULT:      -6.8      2.318      3.642
  Name = 
  14 active torsions:
  status: ('A' for Active; 'I' for Inactive)
    1  A    between atoms: O_1  and  C_37
    2  A    between atoms: O_1  and  C_52
    3  A    between atoms: C_3  and  C_53
    4  A    between atoms: C_5  and  C_13
    5  A    between atoms: C_7  and  N_24
    6  A    between atoms: C_7  and  C_49
    7  A    between atoms: C_8  and  O_22
    8  A    between atoms: C_10  and  C_31
    9  A    between atoms: C_13  and  C_49
   10  A    between atoms: C_16  and  C_55
   11  A    between atoms: C_19  and  O_22
   12  A    between atoms: C_31  and  C_34
   13  A    between atoms: C_50  and  C_53
   14  A    between atoms: C_51  and  C_56
                            x       y       z     vdW  Elec       q    Type
                         _______ _______ _______ _____ _____    ______ ____

>  <TORSDO>
F 14

$$$$
=
 OpenBabel11042417243D

 56 63  0  0  1  0  0  0  0  0999 V2000
  189.4220  175.6990  143.4370 C   0  0  0  0  0  0  0  0  0  0  0  0
  188.3250  174.8490  142.8670 C   0  0  0  0  0  2  0  0  0  0  0  0
  190.6650  175.2270  143.6270 C   0  0  0  0  0  3  0  0  0  0  0  0
  189.5480  173.2190  141.3890 C   0  0  1  0  0  3  0  0  0  0  0  0
  190.9730  173.5770  141.7830 C   0  0  0  0  0  2  0  0  0  0  0  0
  188.6330  174.4420  141.4320 C   0  0  0  0  0  2  0  0  0  0  0  0
  191.0710  173.8220  143.2900 C   0  0  1  0  0  3  0  0  0  0  0  0
  195.3080  173.2610  144.0100 O   0  0  0  0  0  0  0  0  0  0  0  0
  194.5310  174.4270  143.9490 C   0  0  2  0  0  3  0  0  0  0  0  0
  193.4460  174.2260  143.0850 O   0  0  0  0  0  0  0  0  0  0  0  0
  193.7810  171.5730  144.8390 C   0  0  0  0  0  2  0  0  0  0  0  0
  192.7540  172.0290  143.7930 C   0  0  0  0  0  2  0  0  0  0  0  0
  194.8680  172.6030  145.1640 C   0  0  0  0  0  2  0  0  0  0  0  0
  192.4720  173.5350  143.8280 C   0  0  2  0  0  3  0  0  0  0  0  0
  195.7560  175.3490  142.0360 C   0  0  2  0  0  3  0  0  0  0  0  0
  194.7120  176.2210  142.3820 O   0  0  0  0  0  0  0  0  0  0  0  0
  195.3760  175.5830  143.4460 C   0  0  1  0  0  3  0  0  0  0  0  0
  196.9910  176.1570  141.6990 C   0  0  0  0  0  2  0  0  0  0  0  0
  197.9400  175.3230  140.8580 C   0  0  0  0  0  2  0  0  0  0  0  0
  197.1600  174.4350  139.9010 C   0  0  0  0  0  2  0  0  0  0  0  0
  197.8030  173.1390  139.7670 N   0  0  0  0  0  2  0  0  0  0  0  0
  197.9110  172.5700  141.0990 C   0  0  0  0  0  1  0  0  0  0  0  0
  189.5500  172.6740  140.0780 O   0  0  0  0  0  0  0  0  0  0  0  0
  191.0550  173.5340  138.5320 N   0  0  0  0  0  0  0  0  0  0  0  0
  192.0980  171.3230  137.1640 O   0  0  0  0  0  0  0  0  0  0  0  0
  193.0120  172.3360  137.4860 C   0  0  2  0  0  3  0  0  0  0  0  0
  191.5180  171.4190  139.4580 O   0  0  0  0  0  0  0  0  0  0  0  0
  193.1640  174.5360  138.4200 O   0  0  0  0  0  1  0  0  0  0  0  0
  191.8250  170.5880  138.3370 C   0  0  2  0  0  3  0  0  0  0  0  0
  192.2970  173.6650  137.7600 C   0  0  2  0  0  3  0  0  0  0  0  0
  190.7230  172.5620  139.3320 C   0  0  0  0  0  0  0  0  0  0  0  0
  192.9470  169.6180  138.6720 C   0  0  0  0  0  1  0  0  0  0  0  0
  194.0740  172.4700  136.3930 C   0  0  0  0  0  2  0  0  0  0  0  0
  196.3120  173.4470  136.7600 F   0  0  0  0  0  0  0  0  0  0  0  0
  195.8570  171.3970  137.5120 O   0  0  0  0  0  0  0  0  0  0  0  0
  195.4680  172.3980  136.9340 C   0  0  0  0  0  0  0  0  0  0  0  0
  189.1070  177.1180  143.7880 C   0  0  0  0  0  2  0  0  0  0  0  0
  186.1560  177.3920  146.9550 C   0  0  2  0  0  3  0  0  0  0  0  0
  185.8770  176.0390  147.0040 F   0  0  0  0  0  0  0  0  0  0  0  0
  186.6960  177.8450  144.5340 C   0  0  0  0  0  0  0  0  0  0  0  0
  188.4860  177.5270  146.2750 C   0  0  0  0  0  0  0  0  0  0  0  0
  187.1740  178.2670  142.0450 C   0  0  0  0  0  1  0  0  0  0  0  0
  185.7750  177.9360  145.6030 C   0  0  0  0  0  0  0  0  0  0  0  0
  183.6220  178.5690  146.4370 F   0  0  0  0  0  0  0  0  0  0  0  0
  185.0330  178.8790  143.0820 C   0  0  0  0  0  3  0  0  0  0  0  0
  187.5830  177.6080  147.2090 N   0  0  0  0  0  0  0  0  0  0  0  0
  184.5030  178.4900  145.4070 C   0  0  0  0  0  0  0  0  0  0  0  0
  182.9110  179.5070  143.9530 F   0  0  0  0  0  0  0  0  0  0  0  0
  186.3020  178.3220  143.2540 C   0  0  0  0  0  0  0  0  0  0  0  0
  184.1380  178.9660  144.1480 C   0  0  0  0  0  0  0  0  0  0  0  0
  188.0280  177.1810  144.8640 C   0  0  2  0  0  3  0  0  0  0  0  0
  189.8200  177.7600  146.6340 O   0  0  0  0  0  0  0  0  0  0  0  0
  190.5520  176.9540  147.5420 C   0  0  2  0  0  3  0  0  0  0  0  0
  191.9530  174.9480  147.2680 C   0  0  0  0  0  2  0  0  0  0  0  0
  191.7780  176.3960  146.8510 C   0  0  1  0  0  3  0  0  0  0  0  0
  190.5680  175.5220  147.0450 C   0  0  2  0  0  3  0  0  0  0  0  0
  1  3  2  0  0  0  0
  1 37  1  0  0  0  0
  2  1  1  0  0  0  0
  4 23  1  6  0  0  0
  4  6  1  0  0  0  0
  4  5  1  0  0  0  0
  6  2  1  0  0  0  0
  7  5  1  6  0  0  0
  7  3  1  0  0  0  0
  7 14  1  0  0  0  0
  8 13  1  0  0  0  0
  9 10  1  6  0  0  0
  9  8  1  0  0  0  0
 10 14  1  0  0  0  0
 11 13  1  0  0  0  0
 12 11  1  0  0  0  0
 14 12  1  6  0  0  0
 15 18  1  1  0  0  0
 15 16  1  0  0  0  0
 15 17  1  0  0  0  0
 17 16  1  6  0  0  0
 17  9  1  0  0  0  0
 19 18  1  0  0  0  0
 20 19  1  0  0  0  0
 21 20  1  0  0  0  0
 21 22  1  0  0  0  0
 24 31  2  0  0  0  0
 25 26  1  0  0  0  0
 25 29  1  0  0  0  0
 26 33  1  6  0  0  0
 26 30  1  0  0  0  0
 29 32  1  1  0  0  0
 29 27  1  0  0  0  0
 30 28  1  1  0  0  0
 30 24  1  0  0  0  0
 31 27  1  0  0  0  0
 31 23  1  0  0  0  0
 33 36  1  0  0  0  0
 34 36  1  0  0  0  0
 36 35  2  0  0  0  0
 38 39  1  6  0  0  0
 38 46  1  0  0  0  0
 40 51  1  0  0  0  0
 40 43  1  0  0  0  0
 41 52  1  0  0  0  0
 41 46  2  0  0  0  0
 42 49  1  0  0  0  0
 43 38  1  0  0  0  0
 45 49  1  0  0  0  0
 45 50  2  0  0  0  0
 47 43  2  0  0  0  0
 47 44  1  0  0  0  0
 48 50  1  0  0  0  0
 49 40  2  0  0  0  0
 50 47  1  0  0  0  0
 51 37  1  6  0  0  0
 51 41  1  0  0  0  0
 53 52  1  6  0  0  0
 55 56  1  0  0  0  0
 55 54  1  1  0  0  0
 55 53  1  0  0  0  0
 56 54  1  1  0  0  0
 56 53  1  0  0  0  0
M  END
>  <MODEL>
8

>  <REMARK>
 VINA RESULT:      -6.7      3.514      8.988
  Name = 
  14 active torsions:
  status: ('A' for Active; 'I' for Inactive)
    1  A    between atoms: O_1  and  C_37
    2  A    between atoms: O_1  and  C_52
    3  A    between atoms: C_3  and  C_53
    4  A    between atoms: C_5  and  C_13
    5  A    between atoms: C_7  and  N_24
    6  A    between atoms: C_7  and  C_49
    7  A    between atoms: C_8  and  O_22
    8  A    between atoms: C_10  and  C_31
    9  A    between atoms: C_13  and  C_49
   10  A    between atoms: C_16  and  C_55
   11  A    between atoms: C_19  and  O_22
   12  A    between atoms: C_31  and  C_34
   13  A    between atoms: C_50  and  C_53
   14  A    between atoms: C_51  and  C_56
                            x       y       z     vdW  Elec       q    Type
                         _______ _______ _______ _____ _____    ______ ____

>  <TORSDO>
F 14

$$$$
=
 OpenBabel11042417243D

 56 63  0  0  1  0  0  0  0  0999 V2000
  190.3550  172.3070  143.1420 C   0  0  0  0  0  0  0  0  0  0  0  0
  188.9840  172.8940  143.3130 C   0  0  0  0  0  2  0  0  0  0  0  0
  190.8660  172.0290  141.9310 C   0  0  0  0  0  3  0  0  0  0  0  0
  188.6450  174.2250  141.2030 C   0  0  1  0  0  3  0  0  0  0  0  0
  189.8840  173.7730  140.4440 C   0  0  0  0  0  2  0  0  0  0  0  0
  188.9040  174.2890  142.7070 C   0  0  0  0  0  2  0  0  0  0  0  0
  190.1260  172.2760  140.6490 C   0  0  1  0  0  3  0  0  0  0  0  0
  192.4450  171.3420  137.1090 O   0  0  0  0  0  0  0  0  0  0  0  0
  192.8440  171.7480  138.3900 C   0  0  2  0  0  3  0  0  0  0  0  0
  191.8430  172.5410  138.9690 O   0  0  0  0  0  0  0  0  0  0  0  0
  190.4020  170.0980  137.4910 C   0  0  0  0  0  2  0  0  0  0  0  0
  189.8970  171.2510  138.3700 C   0  0  0  0  0  2  0  0  0  0  0  0
  191.9210  170.0580  137.2920 C   0  0  0  0  0  2  0  0  0  0  0  0
  190.8790  171.6510  139.4760 C   0  0  2  0  0  3  0  0  0  0  0  0
  195.1100  172.0250  139.2830 C   0  0  2  0  0  3  0  0  0  0  0  0
  195.1870  171.6890  137.9220 O   0  0  0  0  0  0  0  0  0  0  0  0
  194.1340  172.5420  138.3000 C   0  0  1  0  0  3  0  0  0  0  0  0
  196.1390  173.0920  139.5910 C   0  0  0  0  0  2  0  0  0  0  0  0
  196.2630  173.2720  141.0930 C   0  0  0  0  0  2  0  0  0  0  0  0
  196.9910  174.5680  141.4140 C   0  0  0  0  0  2  0  0  0  0  0  0
  196.5310  175.6410  140.5490 N   0  0  0  0  0  2  0  0  0  0  0  0
  196.2910  176.8010  141.3900 C   0  0  0  0  0  1  0  0  0  0  0  0
  188.2530  175.5070  140.7340 O   0  0  0  0  0  0  0  0  0  0  0  0
  186.7390  177.2680  140.7210 N   0  0  0  0  0  0  0  0  0  0  0  0
  186.3900  178.0000  143.4020 O   0  0  0  0  0  0  0  0  0  0  0  0
  185.2330  177.9940  142.6090 C   0  0  2  0  0  3  0  0  0  0  0  0
  186.7100  175.8070  142.5670 O   0  0  0  0  0  0  0  0  0  0  0  0
  184.4720  177.7060  140.3570 O   0  0  0  0  0  1  0  0  0  0  0  0
  186.7190  176.6630  143.7110 C   0  0  2  0  0  3  0  0  0  0  0  0
  185.5820  178.0780  141.1170 C   0  0  2  0  0  3  0  0  0  0  0  0
  187.2180  176.2230  141.3320 C   0  0  0  0  0  0  0  0  0  0  0  0
  185.8340  176.1020  144.8140 C   0  0  0  0  0  1  0  0  0  0  0  0
  184.2790  179.1080  143.0410 C   0  0  0  0  0  2  0  0  0  0  0  0
  185.5550  180.8590  144.2260 F   0  0  0  0  0  0  0  0  0  0  0  0
  184.3570  179.3770  145.3870 O   0  0  0  0  0  0  0  0  0  0  0  0
  184.7230  179.7890  144.2980 C   0  0  0  0  0  0  0  0  0  0  0  0
  191.1680  172.0410  144.3680 C   0  0  0  0  0  2  0  0  0  0  0  0
  194.4120  174.8880  144.7940 C   0  0  2  0  0  3  0  0  0  0  0  0
  194.3330  175.3840  143.5060 F   0  0  0  0  0  0  0  0  0  0  0  0
  193.7500  172.4630  144.5850 C   0  0  0  0  0  0  0  0  0  0  0  0
  192.1390  174.2360  145.3550 C   0  0  0  0  0  0  0  0  0  0  0  0
  193.1340  169.9850  144.3090 C   0  0  0  0  0  1  0  0  0  0  0  0
  194.7740  173.4270  144.7490 C   0  0  0  0  0  0  0  0  0  0  0  0
  197.0940  173.9670  144.9800 F   0  0  0  0  0  0  0  0  0  0  0  0
  195.4590  170.7240  144.5900 C   0  0  0  0  0  3  0  0  0  0  0  0
  193.1270  175.0760  145.4720 N   0  0  0  0  0  0  0  0  0  0  0  0
  196.1170  173.0370  144.8290 C   0  0  0  0  0  0  0  0  0  0  0  0
  197.7520  171.3020  144.8380 F   0  0  0  0  0  0  0  0  0  0  0  0
  194.1150  171.0920  144.4980 C   0  0  0  0  0  0  0  0  0  0  0  0
  196.4550  171.6860  144.7570 C   0  0  0  0  0  0  0  0  0  0  0  0
  192.3350  173.0170  144.4640 C   0  0  2  0  0  3  0  0  0  0  0  0
  190.9580  174.5170  146.0560 O   0  0  0  0  0  0  0  0  0  0  0  0
  190.0120  175.4960  145.6630 C   0  0  2  0  0  3  0  0  0  0  0  0
  188.6640  177.1380  146.9090 C   0  0  0  0  0  2  0  0  0  0  0  0
  190.0780  176.6760  146.6110 C   0  0  1  0  0  3  0  0  0  0  0  0
  188.9750  175.6630  146.7560 C   0  0  2  0  0  3  0  0  0  0  0  0
  1  2  1  0  0  0  0
  1 37  1  0  0  0  0
  3  1  2  0  0  0  0
  4 23  1  6  0  0  0
  4  6  1  0  0  0  0
  5  4  1  0  0  0  0
  6  2  1  0  0  0  0
  7  5  1  6  0  0  0
  7  3  1  0  0  0  0
  8 13  1  0  0  0  0
  9  8  1  6  0  0  0
  9 10  1  0  0  0  0
 10 14  1  0  0  0  0
 11 12  1  0  0  0  0
 13 11  1  0  0  0  0
 14 12  1  6  0  0  0
 14  7  1  0  0  0  0
 15 18  1  6  0  0  0
 16 15  1  0  0  0  0
 17 16  1  6  0  0  0
 17  9  1  0  0  0  0
 17 15  1  0  0  0  0
 18 19  1  0  0  0  0
 19 20  1  0  0  0  0
 21 22  1  0  0  0  0
 21 20  1  0  0  0  0
 23 31  1  0  0  0  0
 24 30  1  0  0  0  0
 24 31  2  0  0  0  0
 25 29  1  0  0  0  0
 26 33  1  1  0  0  0
 26 25  1  0  0  0  0
 27 29  1  0  0  0  0
 29 32  1  1  0  0  0
 30 28  1  6  0  0  0
 30 26  1  0  0  0  0
 31 27  1  0  0  0  0
 33 36  1  0  0  0  0
 34 36  1  0  0  0  0
 36 35  2  0  0  0  0
 38 39  1  6  0  0  0
 38 46  1  0  0  0  0
 40 43  1  0  0  0  0
 41 46  2  0  0  0  0
 41 52  1  0  0  0  0
 42 49  1  0  0  0  0
 43 38  1  0  0  0  0
 43 47  2  0  0  0  0
 45 50  2  0  0  0  0
 47 44  1  0  0  0  0
 49 40  2  0  0  0  0
 49 45  1  0  0  0  0
 50 47  1  0  0  0  0
 50 48  1  0  0  0  0
 51 37  1  1  0  0  0
 51 40  1  0  0  0  0
 51 41  1  0  0  0  0
 53 52  1  1  0  0  0
 53 55  1  0  0  0  0
 53 56  1  0  0  0  0
 55 56  1  0  0  0  0
 55 54  1  6  0  0  0
 56 54  1  6  0  0  0
M  END
>  <MODEL>
9

>  <REMARK>
 VINA RESULT:      -6.6      2.891      9.108
  Name = 
  14 active torsions:
  status: ('A' for Active; 'I' for Inactive)
    1  A    between atoms: O_1  and  C_37
    2  A    between atoms: O_1  and  C_52
    3  A    between atoms: C_3  and  C_53
    4  A    between atoms: C_5  and  C_13
    5  A    between atoms: C_7  and  N_24
    6  A    between atoms: C_7  and  C_49
    7  A    between atoms: C_8  and  O_22
    8  A    between atoms: C_10  and  C_31
    9  A    between atoms: C_13  and  C_49
   10  A    between atoms: C_16  and  C_55
   11  A    between atoms: C_19  and  O_22
   12  A    between atoms: C_31  and  C_34
   13  A    between atoms: C_50  and  C_53
   14  A    between atoms: C_51  and  C_56
                            x       y       z     vdW  Elec       q    Type
                         _______ _______ _______ _____ _____    ______ ____

>  <TORSDO>
F 14

$$$$
