=
 OpenBabel11042417503D

 57 59  0  0  1  0  0  0  0  0999 V2000
  189.7110  172.4270  144.5330 C   0  0  0  0  0  2  0  0  0  0  0  0
  191.1010  174.4000  145.3210 C   0  0  1  0  0  3  0  0  0  0  0  0
  189.5590  174.6030  143.2600 C   0  0  2  0  0  3  0  0  0  0  0  0
  190.0950  173.3150  145.7250 C   0  0  0  0  0  2  0  0  0  0  0  0
  189.2580  172.2760  142.0680 C   0  0  1  0  0  3  0  0  0  0  0  0
  189.6780  175.3030  141.9140 C   0  0  0  0  0  2  0  0  0  0  0  0
  188.3590  175.2770  141.1420 C   0  0  1  0  0  3  0  0  0  0  0  0
  188.0310  173.9050  140.5520 C   0  0  0  0  0  2  0  0  0  0  0  0
  190.4390  175.3380  144.2900 C   0  0  0  0  0  2  0  0  0  0  0  0
  189.9220  173.1120  143.1800 C   0  0  2  0  0  3  0  0  0  0  0  0
  187.8940  172.8050  141.6070 C   0  0  0  0  0  2  0  0  0  0  0  0
  186.5220  176.9540  141.5930 C   0  0  0  0  0  0  0  0  0  0  0  0
  186.8610  177.6300  140.5820 O   0  0  0  0  0  0  0  0  0  0  0  0
  187.2590  175.7840  141.9560 N   0  0  0  0  0  2  0  0  0  0  0  0
  185.4240  177.3410  142.3700 O   0  0  0  0  0  0  0  0  0  0  0  0
  185.5850  180.5060  144.0900 O   0  0  0  0  0  0  0  0  0  0  0  0
  185.1950  178.6530  142.7370 N   0  0  0  0  0  2  0  0  0  0  0  0
  185.7480  179.2710  143.9110 C   0  0  0  0  0  0  0  0  0  0  0  0
  186.4270  178.4650  144.9720 C   0  0  0  0  0  2  0  0  0  0  0  0
  185.8480  179.4370  147.6170 O   0  0  0  0  0  1  0  0  0  0  0  0
  185.4640  176.9210  147.0050 O   0  0  0  0  0  1  0  0  0  0  0  0
  185.3620  178.3210  146.4390 P   0  0  0  0  0  0  0  0  0  0  0  0
  183.7570  178.6370  146.0010 O   0  0  0  0  0  0  0  0  0  0  0  0
  191.5730  175.1390  146.5020 N   0  0  0  0  0  0  0  0  0  0  0  0
  190.4180  175.5350  147.3030 C   0  0  0  0  0  2  0  0  0  0  0  0
  190.6290  176.8080  147.8340 O   0  0  0  0  0  1  0  0  0  0  0  0
  192.1690  176.3920  146.0400 C   0  0  0  0  0  2  0  0  0  0  0  0
  193.6720  176.3790  146.2760 C   0  0  2  0  0  3  0  0  0  0  0  0
  193.9820  177.2720  147.2900 F   0  0  0  0  0  0  0  0  0  0  0  0
  194.3310  176.7590  145.1070 O   0  0  0  0  0  0  0  0  0  0  0  0
  195.7760  174.6020  146.0480 O   0  0  0  0  0  1  0  0  0  0  0  0
  196.5170  175.9070  143.9160 O   0  0  0  0  0  1  0  0  0  0  0  0
  195.2890  175.4310  144.6580 P   0  0  0  0  0  0  0  0  0  0  0  0
  194.3980  174.3820  143.6660 O   0  0  0  0  0  0  0  0  0  0  0  0
  190.1160  172.0600  140.9730 O   0  0  0  0  0  0  0  0  0  0  0  0
  191.3790  171.7690  141.5070 C   0  0  0  0  0  2  0  0  0  0  0  0
  192.4810  171.9890  140.4790 C   0  0  1  0  0  3  0  0  0  0  0  0
  192.8540  170.7450  139.9660 O   0  0  0  0  0  1  0  0  0  0  0  0
  191.9420  172.8930  139.3590 C   0  0  1  0  0  3  0  0  0  0  0  0
  192.7850  174.1530  139.2020 C   0  0  0  0  0  2  0  0  0  0  0  0
  193.7170  174.2810  140.3080 N   0  0  0  0  0  2  0  0  0  0  0  0
  196.0840  174.6880  140.5870 C   0  0  0  0  0  1  0  0  0  0  0  0
  194.8180  175.1310  139.8780 C   0  0  1  0  0  3  0  0  0  0  0  0
  195.0180  175.0000  138.3700 C   0  0  0  0  0  2  0  0  0  0  0  0
  196.3860  174.7440  138.0840 O   0  0  0  0  0  0  0  0  0  0  0  0
  196.3570  173.0910  136.3930 N   0  0  0  0  0  0  0  0  0  0  0  0
  196.7940  174.2060  136.8640 C   0  0  0  0  0  0  0  0  0  0  0  0
  197.9300  173.8780  134.8550 N   0  0  0  0  0  0  0  0  0  0  0  0
  197.8000  174.8320  135.9670 C   0  0  0  0  0  3  0  0  0  0  0  0
  197.0030  172.8670  135.1790 N   0  0  0  0  0  2  0  0  0  0  0  0
  191.9110  172.1980  138.0770 N   0  0  0  0  0  2  0  0  0  0  0  0
  190.3640  173.1610  136.5900 O   0  0  0  0  0  1  0  0  0  0  0  0
  190.5320  172.1860  137.5850 C   0  0  1  0  0  3  0  0  0  0  0  0
  190.1570  170.8160  137.0290 C   0  0  1  0  0  3  0  0  0  0  0  0
  191.3310  170.1910  136.2840 C   0  0  0  0  0  1  0  0  0  0  0  0
  189.6680  169.8970  138.1350 C   0  0  0  0  0  2  0  0  0  0  0  0
  190.4080  168.5770  138.0910 C   0  0  0  0  0  1  0  0  0  0  0  0
  1  4  1  0  0  0  0
  2  4  1  0  0  0  0
  2 24  1  1  0  0  0
  3  6  1  6  0  0  0
  3  9  1  0  0  0  0
  5 35  1  6  0  0  0
  5 10  1  0  0  0  0
  7  6  1  0  0  0  0
  7 14  1  1  0  0  0
  8  7  1  0  0  0  0
  8 11  1  0  0  0  0
  9  2  1  0  0  0  0
 10  3  1  0  0  0  0
 10  1  1  1  0  0  0
 11  5  1  0  0  0  0
 12 14  1  0  0  0  0
 12 15  1  0  0  0  0
 13 12  2  0  0  0  0
 15 17  1  0  0  0  0
 17 18  1  0  0  0  0
 18 16  2  0  0  0  0
 18 19  1  0  0  0  0
 19 22  1  0  0  0  0
 22 21  1  0  0  0  0
 22 20  1  0  0  0  0
 23 22  2  0  0  0  0
 24 25  1  0  0  0  0
 25 26  1  0  0  0  0
 27 28  1  0  0  0  0
 27 24  1  0  0  0  0
 28 29  1  1  0  0  0
 30 28  1  0  0  0  0
 32 33  1  0  0  0  0
 33 30  1  0  0  0  0
 33 31  1  0  0  0  0
 34 33  2  0  0  0  0
 35 36  1  0  0  0  0
 37 38  1  6  0  0  0
 37 36  1  0  0  0  0
 39 40  1  6  0  0  0
 39 37  1  0  0  0  0
 40 41  1  0  0  0  0
 43 41  1  0  0  0  0
 43 42  1  1  0  0  0
 44 43  1  0  0  0  0
 45 44  1  0  0  0  0
 46 47  2  0  0  0  0
 47 45  1  0  0  0  0
 48 50  1  0  0  0  0
 48 49  2  0  0  0  0
 49 47  1  0  0  0  0
 50 46  1  0  0  0  0
 51 39  1  0  0  0  0
 53 52  1  6  0  0  0
 53 51  1  0  0  0  0
 54 55  1  1  0  0  0
 54 53  1  0  0  0  0
 54 56  1  0  0  0  0
 57 56  1  0  0  0  0
M  END
>  <MODEL>
1

>  <REMARK>
 VINA RESULT:      -6.0      0.000      0.000
  Name = 
  25 active torsions:
  status: ('A' for Active; 'I' for Inactive)
    1  A    between atoms: C_1  and  C_47
    2  A    between atoms: C_1  and  O_52
    3  A    between atoms: C_2  and  P_48
    4  A    between atoms: C_2  and  C_56
    5  A    between atoms: C_5  and  C_24
    6  A    between atoms: C_5  and  C_43
    7  A    between atoms: C_6  and  N_57
    8  A    between atoms: C_7  and  N_57
    9  A    between atoms: N_9  and  C_15
   10  A    between atoms: N_9  and  C_37
   11  A    between atoms: N_11  and  O_22
   12  A    between atoms: C_15  and  C_21
   13  A    between atoms: N_16  and  C_17
   14  A    between atoms: N_16  and  C_43
   15  A    between atoms: C_17  and  C_18
   16  A    between atoms: C_17  and  C_37
   17  A    between atoms: C_18  and  C_45
   18  A    between atoms: C_21  and  O_39
   19  A    between atoms: O_22  and  C_31
   20  A    between atoms: O_26  and  C_28
   21  A    between atoms: O_26  and  C_45
   22  A    between atoms: C_29  and  O_39
   23  A    between atoms: C_33  and  N_53
   24  A    between atoms: P_34  and  O_52
   25  A    between atoms: C_47  and  N_57
                            x       y       z     vdW  Elec       q    Type
                         _______ _______ _______ _____ _____    ______ ____

>  <TORSDO>
F 25

$$$$
=
 OpenBabel11042417503D

 57 59  0  0  1  0  0  0  0  0999 V2000
  189.6130  172.7020  145.1280 C   0  0  0  0  0  2  0  0  0  0  0  0
  191.1690  174.6580  145.5740 C   0  0  1  0  0  3  0  0  0  0  0  0
  189.6660  174.6100  143.4750 C   0  0  2  0  0  3  0  0  0  0  0  0
  190.0670  173.7590  146.1460 C   0  0  0  0  0  2  0  0  0  0  0  0
  189.1660  172.1380  142.7230 C   0  0  1  0  0  3  0  0  0  0  0  0
  189.8560  175.0360  142.0260 C   0  0  0  0  0  2  0  0  0  0  0  0
  188.5460  174.9830  141.2400 C   0  0  1  0  0  3  0  0  0  0  0  0
  188.1010  173.5590  140.9050 C   0  0  0  0  0  2  0  0  0  0  0  0
  190.6010  175.4430  144.3720 C   0  0  0  0  0  2  0  0  0  0  0  0
  189.8950  173.1050  143.6770 C   0  0  2  0  0  3  0  0  0  0  0  0
  187.8580  172.6890  142.1410 C   0  0  0  0  0  2  0  0  0  0  0  0
  186.7990  176.8090  141.2970 C   0  0  0  0  0  0  0  0  0  0  0  0
  187.1450  177.2050  140.1480 O   0  0  0  0  0  0  0  0  0  0  0  0
  187.4910  175.7250  141.9220 N   0  0  0  0  0  2  0  0  0  0  0  0
  185.7400  177.4260  141.9700 O   0  0  0  0  0  0  0  0  0  0  0  0
  185.5320  180.3560  144.0620 O   0  0  0  0  0  0  0  0  0  0  0  0
  185.7980  178.7330  142.4160 N   0  0  0  0  0  2  0  0  0  0  0  0
  185.3180  179.1710  143.6980 C   0  0  0  0  0  0  0  0  0  0  0  0
  184.4860  178.2820  144.5650 C   0  0  0  0  0  2  0  0  0  0  0  0
  186.8360  176.7660  145.2390 O   0  0  0  0  0  0  0  0  0  0  0  0
  184.6680  176.5840  146.6930 O   0  0  0  0  0  1  0  0  0  0  0  0
  185.4980  177.5680  145.8970 P   0  0  0  0  0  0  0  0  0  0  0  0
  186.0370  178.8060  146.9180 O   0  0  0  0  0  1  0  0  0  0  0  0
  191.6970  175.5590  146.6090 N   0  0  0  0  0  0  0  0  0  0  0  0
  190.5900  176.3250  147.1770 C   0  0  0  0  0  2  0  0  0  0  0  0
  191.0380  177.0490  148.2830 O   0  0  0  0  0  1  0  0  0  0  0  0
  192.5510  176.5480  145.9520 C   0  0  0  0  0  2  0  0  0  0  0  0
  193.9390  175.9710  145.7160 C   0  0  2  0  0  3  0  0  0  0  0  0
  194.6230  175.9210  146.9220 F   0  0  0  0  0  0  0  0  0  0  0  0
  194.6360  176.7840  144.8230 O   0  0  0  0  0  0  0  0  0  0  0  0
  196.5600  176.1470  142.9460 O   0  0  0  0  0  1  0  0  0  0  0  0
  194.0190  176.0880  142.3610 O   0  0  0  0  0  0  0  0  0  0  0  0
  194.9940  175.8050  143.4820 P   0  0  0  0  0  0  0  0  0  0  0  0
  194.8970  174.1690  143.9180 O   0  0  0  0  0  1  0  0  0  0  0  0
  190.0090  171.6500  141.7060 O   0  0  0  0  0  0  0  0  0  0  0  0
  191.2650  171.4450  142.2940 C   0  0  0  0  0  2  0  0  0  0  0  0
  191.6290  169.9670  142.3270 C   0  0  1  0  0  3  0  0  0  0  0  0
  190.8260  169.2980  141.4010 O   0  0  0  0  0  1  0  0  0  0  0  0
  193.1140  169.8130  141.9620 C   0  0  1  0  0  3  0  0  0  0  0  0
  193.8500  171.1460  142.0300 C   0  0  0  0  0  2  0  0  0  0  0  0
  194.2940  171.5480  140.7080 N   0  0  0  0  0  2  0  0  0  0  0  0
  196.2790  172.9160  140.5210 C   0  0  0  0  0  1  0  0  0  0  0  0
  194.7870  172.9160  140.7910 C   0  0  1  0  0  3  0  0  0  0  0  0
  194.0890  173.7840  139.7480 C   0  0  0  0  0  2  0  0  0  0  0  0
  192.6890  173.5480  139.7810 O   0  0  0  0  0  0  0  0  0  0  0  0
  190.6300  173.4630  138.6200 N   0  0  0  0  0  0  0  0  0  0  0  0
  191.8800  173.7660  138.6660 C   0  0  0  0  0  0  0  0  0  0  0  0
  191.1710  174.3210  136.5150 N   0  0  0  0  0  0  0  0  0  0  0  0
  192.3590  174.3450  137.3840 C   0  0  0  0  0  3  0  0  0  0  0  0
  190.1630  173.7970  137.3510 N   0  0  0  0  0  2  0  0  0  0  0  0
  193.7890  168.8690  142.8470 N   0  0  0  0  0  2  0  0  0  0  0  0
  192.7970  168.1670  144.8610 O   0  0  0  0  0  1  0  0  0  0  0  0
  193.4760  169.2230  144.2340 C   0  0  1  0  0  3  0  0  0  0  0  0
  194.7410  169.5550  145.0170 C   0  0  1  0  0  3  0  0  0  0  0  0
  194.5650  170.8410  145.8150 C   0  0  0  0  0  1  0  0  0  0  0  0
  195.1350  168.4040  145.9270 C   0  0  0  0  0  2  0  0  0  0  0  0
  194.9810  168.8020  147.3790 C   0  0  0  0  0  1  0  0  0  0  0  0
  1  4  1  0  0  0  0
  2  4  1  0  0  0  0
  2 24  1  1  0  0  0
  3  6  1  6  0  0  0
  3 10  1  0  0  0  0
  3  9  1  0  0  0  0
  5 35  1  6  0  0  0
  5 10  1  0  0  0  0
  7 14  1  1  0  0  0
  7  6  1  0  0  0  0
  8  7  1  0  0  0  0
  8 11  1  0  0  0  0
  9  2  1  0  0  0  0
 10  1  1  1  0  0  0
 11  5  1  0  0  0  0
 12 14  1  0  0  0  0
 12 15  1  0  0  0  0
 13 12  2  0  0  0  0
 15 17  1  0  0  0  0
 17 18  1  0  0  0  0
 18 16  2  0  0  0  0
 18 19  1  0  0  0  0
 19 22  1  0  0  0  0
 20 22  2  0  0  0  0
 22 21  1  0  0  0  0
 22 23  1  0  0  0  0
 24 25  1  0  0  0  0
 25 26  1  0  0  0  0
 27 24  1  0  0  0  0
 28 27  1  0  0  0  0
 28 29  1  1  0  0  0
 30 28  1  0  0  0  0
 31 33  1  0  0  0  0
 32 33  2  0  0  0  0
 33 34  1  0  0  0  0
 33 30  1  0  0  0  0
 35 36  1  0  0  0  0
 36 37  1  0  0  0  0
 37 38  1  6  0  0  0
 39 40  1  1  0  0  0
 39 37  1  0  0  0  0
 39 51  1  0  0  0  0
 41 43  1  0  0  0  0
 41 40  1  0  0  0  0
 43 42  1  6  0  0  0
 44 45  1  0  0  0  0
 44 43  1  0  0  0  0
 46 47  2  0  0  0  0
 47 45  1  0  0  0  0
 48 50  1  0  0  0  0
 48 49  2  0  0  0  0
 49 47  1  0  0  0  0
 50 46  1  0  0  0  0
 51 53  1  0  0  0  0
 53 52  1  1  0  0  0
 53 54  1  0  0  0  0
 54 55  1  1  0  0  0
 54 56  1  0  0  0  0
 56 57  1  0  0  0  0
M  END
>  <MODEL>
2

>  <REMARK>
 VINA RESULT:      -6.0      2.423      4.051
  Name = 
  25 active torsions:
  status: ('A' for Active; 'I' for Inactive)
    1  A    between atoms: C_1  and  C_47
    2  A    between atoms: C_1  and  O_52
    3  A    between atoms: C_2  and  P_48
    4  A    between atoms: C_2  and  C_56
    5  A    between atoms: C_5  and  C_24
    6  A    between atoms: C_5  and  C_43
    7  A    between atoms: C_6  and  N_57
    8  A    between atoms: C_7  and  N_57
    9  A    between atoms: N_9  and  C_15
   10  A    between atoms: N_9  and  C_37
   11  A    between atoms: N_11  and  O_22
   12  A    between atoms: C_15  and  C_21
   13  A    between atoms: N_16  and  C_17
   14  A    between atoms: N_16  and  C_43
   15  A    between atoms: C_17  and  C_18
   16  A    between atoms: C_17  and  C_37
   17  A    between atoms: C_18  and  C_45
   18  A    between atoms: C_21  and  O_39
   19  A    between atoms: O_22  and  C_31
   20  A    between atoms: O_26  and  C_28
   21  A    between atoms: O_26  and  C_45
   22  A    between atoms: C_29  and  O_39
   23  A    between atoms: C_33  and  N_53
   24  A    between atoms: P_34  and  O_52
   25  A    between atoms: C_47  and  N_57
                            x       y       z     vdW  Elec       q    Type
                         _______ _______ _______ _____ _____    ______ ____

>  <TORSDO>
F 25

$$$$
=
 OpenBabel11042417503D

 57 59  0  0  1  0  0  0  0  0999 V2000
  192.2920  175.6190  143.1950 C   0  0  0  0  0  2  0  0  0  0  0  0
  190.2550  174.4440  142.2390 C   0  0  1  0  0  3  0  0  0  0  0  0
  190.3550  175.1070  144.7320 C   0  0  2  0  0  3  0  0  0  0  0  0
  191.2290  175.6190  142.0870 C   0  0  0  0  0  2  0  0  0  0  0  0
  192.8380  175.1580  145.6010 C   0  0  1  0  0  3  0  0  0  0  0  0
  189.8930  174.4470  146.0230 C   0  0  0  0  0  2  0  0  0  0  0  0
  190.0100  175.3920  147.2190 C   0  0  1  0  0  3  0  0  0  0  0  0
  191.4510  175.6030  147.6830 C   0  0  0  0  0  2  0  0  0  0  0  0
  189.4840  174.6010  143.5660 C   0  0  0  0  0  2  0  0  0  0  0  0
  191.8480  174.8720  144.4560 C   0  0  2  0  0  3  0  0  0  0  0  0
  192.3560  176.2090  146.6090 C   0  0  0  0  0  2  0  0  0  0  0  0
  187.9230  176.8090  147.0390 C   0  0  0  0  0  0  0  0  0  0  0  0
  187.1950  175.8050  147.2740 O   0  0  0  0  0  0  0  0  0  0  0  0
  189.3440  176.6640  146.9550 N   0  0  0  0  0  2  0  0  0  0  0  0
  187.3520  178.0730  146.8580 O   0  0  0  0  0  0  0  0  0  0  0  0
  183.9700  178.8600  145.8850 O   0  0  0  0  0  0  0  0  0  0  0  0
  185.9870  178.2880  146.8940 N   0  0  0  0  0  2  0  0  0  0  0  0
  185.2250  178.8220  145.7990 C   0  0  0  0  0  0  0  0  0  0  0  0
  185.8920  179.4230  144.6030 C   0  0  0  0  0  2  0  0  0  0  0  0
  185.6860  176.6530  143.8550 O   0  0  0  0  0  1  0  0  0  0  0  0
  187.9350  177.9560  143.5460 O   0  0  0  0  0  1  0  0  0  0  0  0
  186.4330  178.1200  143.4570 P   0  0  0  0  0  0  0  0  0  0  0  0
  186.0060  178.5500  141.8750 O   0  0  0  0  0  0  0  0  0  0  0  0
  189.3430  174.3700  141.0870 N   0  0  0  0  0  0  0  0  0  0  0  0
  188.0490  174.9260  141.4740 C   0  0  0  0  0  2  0  0  0  0  0  0
  187.7320  176.0000  140.6420 O   0  0  0  0  0  1  0  0  0  0  0  0
  189.0860  172.9580  140.8070 C   0  0  0  0  0  2  0  0  0  0  0  0
  189.9050  172.5020  139.6080 C   0  0  2  0  0  3  0  0  0  0  0  0
  191.0100  171.7930  140.0540 F   0  0  0  0  0  0  0  0  0  0  0  0
  190.3300  173.6150  138.8830 O   0  0  0  0  0  0  0  0  0  0  0  0
  190.1960  174.5700  136.2950 O   0  0  0  0  0  0  0  0  0  0  0  0
  188.0430  174.1980  137.7190 O   0  0  0  0  0  1  0  0  0  0  0  0
  189.4140  173.6180  137.4530 P   0  0  0  0  0  0  0  0  0  0  0  0
  189.2570  172.0370  136.8620 O   0  0  0  0  0  1  0  0  0  0  0  0
  193.2580  173.9830  146.2550 O   0  0  0  0  0  0  0  0  0  0  0  0
  193.3200  172.9820  145.2750 C   0  0  0  0  0  2  0  0  0  0  0  0
  194.6140  172.1860  145.3760 C   0  0  1  0  0  3  0  0  0  0  0  0
  194.3510  171.0140  146.0900 O   0  0  0  0  0  1  0  0  0  0  0  0
  195.1050  171.8520  143.9580 C   0  0  1  0  0  3  0  0  0  0  0  0
  194.4810  170.5630  143.4370 C   0  0  0  0  0  2  0  0  0  0  0  0
  195.2210  170.0690  142.2910 N   0  0  0  0  0  2  0  0  0  0  0  0
  192.8880  169.5490  141.9290 C   0  0  0  0  0  1  0  0  0  0  0  0
  194.3070  169.2990  141.4580 C   0  0  1  0  0  3  0  0  0  0  0  0
  194.4360  169.7350  140.0020 C   0  0  0  0  0  2  0  0  0  0  0  0
  194.6580  171.1370  139.9350 O   0  0  0  0  0  0  0  0  0  0  0  0
  193.4390  171.4450  137.9320 N   0  0  0  0  0  0  0  0  0  0  0  0
  194.1000  171.9240  138.9280 C   0  0  0  0  0  0  0  0  0  0  0  0
  193.5260  173.7580  137.6090 N   0  0  0  0  0  0  0  0  0  0  0  0
  194.2180  173.4030  138.8580 C   0  0  0  0  0  3  0  0  0  0  0  0
  193.0630  172.5170  137.1260 N   0  0  0  0  0  2  0  0  0  0  0  0
  194.7970  172.9250  143.0180 N   0  0  0  0  0  2  0  0  0  0  0  0
  196.5510  173.4680  141.5480 O   0  0  0  0  0  1  0  0  0  0  0  0
  196.0040  173.7280  142.8140 C   0  0  1  0  0  3  0  0  0  0  0  0
  195.7040  175.2180  142.9450 C   0  0  1  0  0  3  0  0  0  0  0  0
  196.2560  175.7720  144.2530 C   0  0  0  0  0  1  0  0  0  0  0  0
  196.2530  175.9890  141.7570 C   0  0  0  0  0  2  0  0  0  0  0  0
  195.1270  176.6570  140.9950 C   0  0  0  0  0  1  0  0  0  0  0  0
  2 24  1  6  0  0  0
  2  9  1  0  0  0  0
  3  9  1  6  0  0  0
  3  6  1  0  0  0  0
  4  2  1  0  0  0  0
  4  1  1  0  0  0  0
  5 35  1  1  0  0  0
  5 11  1  0  0  0  0
  6  7  1  0  0  0  0
  7 14  1  6  0  0  0
  7  8  1  0  0  0  0
 10  1  1  6  0  0  0
 10  3  1  0  0  0  0
 10  5  1  0  0  0  0
 11  8  1  0  0  0  0
 12 13  2  0  0  0  0
 14 12  1  0  0  0  0
 15 17  1  0  0  0  0
 15 12  1  0  0  0  0
 18 16  2  0  0  0  0
 18 17  1  0  0  0  0
 19 18  1  0  0  0  0
 22 21  1  0  0  0  0
 22 20  1  0  0  0  0
 22 19  1  0  0  0  0
 23 22  2  0  0  0  0
 24 25  1  0  0  0  0
 26 25  1  0  0  0  0
 27 24  1  0  0  0  0
 28 29  1  1  0  0  0
 28 27  1  0  0  0  0
 30 28  1  0  0  0  0
 31 33  2  0  0  0  0
 33 32  1  0  0  0  0
 33 30  1  0  0  0  0
 34 33  1  0  0  0  0
 36 37  1  0  0  0  0
 36 35  1  0  0  0  0
 37 38  1  1  0  0  0
 39 40  1  6  0  0  0
 39 37  1  0  0  0  0
 41 40  1  0  0  0  0
 43 42  1  1  0  0  0
 43 41  1  0  0  0  0
 44 43  1  0  0  0  0
 45 44  1  0  0  0  0
 46 47  2  0  0  0  0
 47 45  1  0  0  0  0
 48 49  2  0  0  0  0
 49 47  1  0  0  0  0
 50 48  1  0  0  0  0
 50 46  1  0  0  0  0
 51 39  1  0  0  0  0
 53 52  1  6  0  0  0
 53 54  1  0  0  0  0
 53 51  1  0  0  0  0
 54 55  1  1  0  0  0
 56 54  1  0  0  0  0
 57 56  1  0  0  0  0
M  END
>  <MODEL>
3

>  <REMARK>
 VINA RESULT:      -5.9      3.070      6.393
  Name = 
  25 active torsions:
  status: ('A' for Active; 'I' for Inactive)
    1  A    between atoms: C_1  and  C_47
    2  A    between atoms: C_1  and  O_52
    3  A    between atoms: C_2  and  P_48
    4  A    between atoms: C_2  and  C_56
    5  A    between atoms: C_5  and  C_24
    6  A    between atoms: C_5  and  C_43
    7  A    between atoms: C_6  and  N_57
    8  A    between atoms: C_7  and  N_57
    9  A    between atoms: N_9  and  C_15
   10  A    between atoms: N_9  and  C_37
   11  A    between atoms: N_11  and  O_22
   12  A    between atoms: C_15  and  C_21
   13  A    between atoms: N_16  and  C_17
   14  A    between atoms: N_16  and  C_43
   15  A    between atoms: C_17  and  C_18
   16  A    between atoms: C_17  and  C_37
   17  A    between atoms: C_18  and  C_45
   18  A    between atoms: C_21  and  O_39
   19  A    between atoms: O_22  and  C_31
   20  A    between atoms: O_26  and  C_28
   21  A    between atoms: O_26  and  C_45
   22  A    between atoms: C_29  and  O_39
   23  A    between atoms: C_33  and  N_53
   24  A    between atoms: P_34  and  O_52
   25  A    between atoms: C_47  and  N_57
                            x       y       z     vdW  Elec       q    Type
                         _______ _______ _______ _____ _____    ______ ____

>  <TORSDO>
F 25

$$$$
=
 OpenBabel11042417503D

 57 59  0  0  1  0  0  0  0  0999 V2000
  193.1760  174.8360  141.2150 C   0  0  0  0  0  2  0  0  0  0  0  0
  194.5730  173.4230  142.7950 C   0  0  1  0  0  3  0  0  0  0  0  0
  192.5840  172.3980  141.5060 C   0  0  2  0  0  3  0  0  0  0  0  0
  194.5930  174.3930  141.6070 C   0  0  0  0  0  2  0  0  0  0  0  0
  190.7540  174.2160  140.9840 C   0  0  1  0  0  3  0  0  0  0  0  0
  191.5070  171.3820  141.8550 C   0  0  0  0  0  2  0  0  0  0  0  0
  190.6950  170.9690  140.6280 C   0  0  1  0  0  3  0  0  0  0  0  0
  189.7160  172.0480  140.1610 C   0  0  0  0  0  2  0  0  0  0  0  0
  193.8260  172.1380  142.3810 C   0  0  0  0  0  2  0  0  0  0  0  0
  192.0930  173.8460  141.6530 C   0  0  2  0  0  3  0  0  0  0  0  0
  190.3980  173.3590  139.7630 C   0  0  0  0  0  2  0  0  0  0  0  0
  191.1860  169.4900  138.6380 C   0  0  0  0  0  0  0  0  0  0  0  0
  190.1050  168.8610  138.8110 O   0  0  0  0  0  0  0  0  0  0  0  0
  191.5650  170.5320  139.5410 N   0  0  0  0  0  2  0  0  0  0  0  0
  192.0270  169.1740  137.5650 O   0  0  0  0  0  0  0  0  0  0  0  0
  195.6100  169.3090  137.1810 O   0  0  0  0  0  0  0  0  0  0  0  0
  193.3780  168.9300  137.7210 N   0  0  0  0  0  2  0  0  0  0  0  0
  194.4010  169.4870  136.8790 C   0  0  0  0  0  0  0  0  0  0  0  0
  194.0650  170.1880  135.6020 C   0  0  0  0  0  2  0  0  0  0  0  0
  192.6800  172.3560  136.8890 O   0  0  0  0  0  1  0  0  0  0  0  0
  193.7860  172.6850  134.5400 O   0  0  0  0  0  0  0  0  0  0  0  0
  193.9780  171.9850  135.8670 P   0  0  0  0  0  0  0  0  0  0  0  0
  195.4180  172.5170  136.5820 O   0  0  0  0  0  1  0  0  0  0  0  0
  195.9400  173.1320  143.2540 N   0  0  0  0  0  0  0  0  0  0  0  0
  196.0860  171.6870  143.4110 C   0  0  0  0  0  2  0  0  0  0  0  0
  197.2160  171.4110  144.1820 O   0  0  0  0  0  1  0  0  0  0  0  0
  196.0880  173.6820  144.6010 C   0  0  0  0  0  2  0  0  0  0  0  0
  195.4910  175.0800  144.6680 C   0  0  2  0  0  3  0  0  0  0  0  0
  196.4460  176.0030  144.2680 F   0  0  0  0  0  0  0  0  0  0  0  0
  195.0980  175.3570  145.9770 O   0  0  0  0  0  0  0  0  0  0  0  0
  192.9780  176.6430  147.1930 O   0  0  0  0  0  1  0  0  0  0  0  0
  193.2330  176.5990  144.5980 O   0  0  0  0  0  0  0  0  0  0  0  0
  194.0370  176.6790  145.8760 P   0  0  0  0  0  0  0  0  0  0  0  0
  194.9140  178.1300  145.9050 O   0  0  0  0  0  1  0  0  0  0  0  0
  189.6880  174.2600  141.9030 O   0  0  0  0  0  0  0  0  0  0  0  0
  189.0230  175.4750  141.6850 C   0  0  0  0  0  2  0  0  0  0  0  0
  189.2910  176.4640  142.8110 C   0  0  1  0  0  3  0  0  0  0  0  0
  189.6620  177.6840  142.2410 O   0  0  0  0  0  1  0  0  0  0  0  0
  188.0100  176.6280  143.6440 C   0  0  1  0  0  3  0  0  0  0  0  0
  186.8390  175.8700  143.0280 C   0  0  0  0  0  2  0  0  0  0  0  0
  185.6470  176.6980  143.0220 N   0  0  0  0  0  2  0  0  0  0  0  0
  185.8560  178.3030  141.2270 C   0  0  0  0  0  1  0  0  0  0  0  0
  186.0430  178.0640  142.7130 C   0  0  1  0  0  3  0  0  0  0  0  0
  185.1740  179.0470  143.4910 C   0  0  0  0  0  2  0  0  0  0  0  0
  184.5230  178.3760  144.5610 O   0  0  0  0  0  0  0  0  0  0  0  0
  185.6460  179.2620  146.4440 N   0  0  0  0  0  0  0  0  0  0  0  0
  185.1010  178.2740  145.8260 C   0  0  0  0  0  0  0  0  0  0  0  0
  185.9190  177.3980  147.8260 N   0  0  0  0  0  0  0  0  0  0  0  0
  185.1880  177.0130  146.6080 C   0  0  0  0  0  3  0  0  0  0  0  0
  186.1340  178.7810  147.6570 N   0  0  0  0  0  2  0  0  0  0  0  0
  188.1950  176.1540  145.0110 N   0  0  0  0  0  2  0  0  0  0  0  0
  189.9260  177.3980  146.0070 O   0  0  0  0  0  1  0  0  0  0  0  0
  189.6230  176.2040  145.3340 C   0  0  1  0  0  3  0  0  0  0  0  0
  190.0360  175.0130  146.1930 C   0  0  1  0  0  3  0  0  0  0  0  0
  189.0210  174.7630  147.3010 C   0  0  0  0  0  1  0  0  0  0  0  0
  190.2240  173.7700  145.3400 C   0  0  0  0  0  2  0  0  0  0  0  0
  191.6970  173.5060  145.1070 C   0  0  0  0  0  1  0  0  0  0  0  0
  1  4  1  0  0  0  0
  2 24  1  6  0  0  0
  3 10  1  0  0  0  0
  3  6  1  1  0  0  0
  3  9  1  0  0  0  0
  4  2  1  0  0  0  0
  5 10  1  0  0  0  0
  5 35  1  1  0  0  0
  7 14  1  6  0  0  0
  7  6  1  0  0  0  0
  8  7  1  0  0  0  0
  9  2  1  0  0  0  0
 10  1  1  6  0  0  0
 11  8  1  0  0  0  0
 11  5  1  0  0  0  0
 12 13  2  0  0  0  0
 12 14  1  0  0  0  0
 15 17  1  0  0  0  0
 15 12  1  0  0  0  0
 18 16  2  0  0  0  0
 18 17  1  0  0  0  0
 19 22  1  0  0  0  0
 19 18  1  0  0  0  0
 21 22  2  0  0  0  0
 22 23  1  0  0  0  0
 22 20  1  0  0  0  0
 24 25  1  0  0  0  0
 24 27  1  0  0  0  0
 25 26  1  0  0  0  0
 27 28  1  0  0  0  0
 28 29  1  1  0  0  0
 28 30  1  0  0  0  0
 32 33  2  0  0  0  0
 33 34  1  0  0  0  0
 33 30  1  0  0  0  0
 33 31  1  0  0  0  0
 36 35  1  0  0  0  0
 36 37  1  0  0  0  0
 37 38  1  6  0  0  0
 37 39  1  0  0  0  0
 39 40  1  6  0  0  0
 39 51  1  0  0  0  0
 41 40  1  0  0  0  0
 43 42  1  6  0  0  0
 43 41  1  0  0  0  0
 43 44  1  0  0  0  0
 44 45  1  0  0  0  0
 45 47  1  0  0  0  0
 46 50  1  0  0  0  0
 47 46  2  0  0  0  0
 47 49  1  0  0  0  0
 49 48  2  0  0  0  0
 50 48  1  0  0  0  0
 51 53  1  0  0  0  0
 53 52  1  1  0  0  0
 53 54  1  0  0  0  0
 54 55  1  1  0  0  0
 56 54  1  0  0  0  0
 57 56  1  0  0  0  0
M  END
>  <MODEL>
4

>  <REMARK>
 VINA RESULT:      -5.6      3.015      9.901
  Name = 
  25 active torsions:
  status: ('A' for Active; 'I' for Inactive)
    1  A    between atoms: C_1  and  C_47
    2  A    between atoms: C_1  and  O_52
    3  A    between atoms: C_2  and  P_48
    4  A    between atoms: C_2  and  C_56
    5  A    between atoms: C_5  and  C_24
    6  A    between atoms: C_5  and  C_43
    7  A    between atoms: C_6  and  N_57
    8  A    between atoms: C_7  and  N_57
    9  A    between atoms: N_9  and  C_15
   10  A    between atoms: N_9  and  C_37
   11  A    between atoms: N_11  and  O_22
   12  A    between atoms: C_15  and  C_21
   13  A    between atoms: N_16  and  C_17
   14  A    between atoms: N_16  and  C_43
   15  A    between atoms: C_17  and  C_18
   16  A    between atoms: C_17  and  C_37
   17  A    between atoms: C_18  and  C_45
   18  A    between atoms: C_21  and  O_39
   19  A    between atoms: O_22  and  C_31
   20  A    between atoms: O_26  and  C_28
   21  A    between atoms: O_26  and  C_45
   22  A    between atoms: C_29  and  O_39
   23  A    between atoms: C_33  and  N_53
   24  A    between atoms: P_34  and  O_52
   25  A    between atoms: C_47  and  N_57
                            x       y       z     vdW  Elec       q    Type
                         _______ _______ _______ _____ _____    ______ ____

>  <TORSDO>
F 25

$$$$
=
 OpenBabel11042417503D

 57 59  0  0  1  0  0  0  0  0999 V2000
  192.5800  175.1420  142.8660 C   0  0  0  0  0  2  0  0  0  0  0  0
  190.6140  173.7930  141.9960 C   0  0  1  0  0  3  0  0  0  0  0  0
  190.6080  174.7500  144.3940 C   0  0  2  0  0  3  0  0  0  0  0  0
  191.5570  174.9740  141.7340 C   0  0  0  0  0  2  0  0  0  0  0  0
  193.0570  174.9880  145.3260 C   0  0  1  0  0  3  0  0  0  0  0  0
  190.1220  174.2330  145.7400 C   0  0  0  0  0  2  0  0  0  0  0  0
  190.1690  175.3160  146.8170 C   0  0  1  0  0  3  0  0  0  0  0  0
  191.5870  175.6290  147.2970 C   0  0  0  0  0  2  0  0  0  0  0  0
  189.7930  174.0800  143.2710 C   0  0  0  0  0  2  0  0  0  0  0  0
  192.1160  174.5350  144.1930 C   0  0  2  0  0  3  0  0  0  0  0  0
  192.5090  176.1350  146.1860 C   0  0  0  0  0  2  0  0  0  0  0  0
  188.0800  176.7260  146.6260 C   0  0  0  0  0  0  0  0  0  0  0  0
  187.3900  175.8160  147.1640 O   0  0  0  0  0  0  0  0  0  0  0  0
  189.4740  176.5240  146.3830 N   0  0  0  0  0  2  0  0  0  0  0  0
  187.4900  177.9410  146.2600 O   0  0  0  0  0  0  0  0  0  0  0  0
  184.0380  178.9330  145.9400 O   0  0  0  0  0  0  0  0  0  0  0  0
  186.1760  178.2530  146.5560 N   0  0  0  0  0  2  0  0  0  0  0  0
  185.2450  178.8050  145.6100 C   0  0  0  0  0  0  0  0  0  0  0  0
  185.6960  179.3200  144.2810 C   0  0  0  0  0  2  0  0  0  0  0  0
  183.6860  178.1150  142.6130 O   0  0  0  0  0  1  0  0  0  0  0  0
  185.7410  176.7240  143.4440 O   0  0  0  0  0  1  0  0  0  0  0  0
  185.3400  178.1050  142.9750 P   0  0  0  0  0  0  0  0  0  0  0  0
  186.2170  178.5050  141.5830 O   0  0  0  0  0  0  0  0  0  0  0  0
  189.7450  173.5520  140.8340 N   0  0  0  0  0  0  0  0  0  0  0  0
  188.3890  173.2830  141.3070 C   0  0  0  0  0  2  0  0  0  0  0  0
  187.6930  172.5490  140.3470 O   0  0  0  0  0  1  0  0  0  0  0  0
  190.1820  172.3110  140.1950 C   0  0  0  0  0  2  0  0  0  0  0  0
  190.7260  172.5990  138.8040 C   0  0  2  0  0  3  0  0  0  0  0  0
  192.1110  172.6510  138.8580 F   0  0  0  0  0  0  0  0  0  0  0  0
  190.2350  173.8260  138.3550 O   0  0  0  0  0  0  0  0  0  0  0  0
  188.9570  174.9020  136.1560 O   0  0  0  0  0  1  0  0  0  0  0  0
  189.1900  172.3230  136.4640 O   0  0  0  0  0  1  0  0  0  0  0  0
  189.9230  173.6250  136.6980 P   0  0  0  0  0  0  0  0  0  0  0  0
  191.3800  173.6200  135.8300 O   0  0  0  0  0  0  0  0  0  0  0  0
  193.4890  173.9140  146.1280 O   0  0  0  0  0  0  0  0  0  0  0  0
  193.6540  172.8170  145.2700 C   0  0  0  0  0  2  0  0  0  0  0  0
  195.0450  172.2130  145.4000 C   0  0  1  0  0  3  0  0  0  0  0  0
  194.9610  171.0960  146.2330 O   0  0  0  0  0  1  0  0  0  0  0  0
  195.5430  171.8070  144.0040 C   0  0  1  0  0  3  0  0  0  0  0  0
  194.4400  171.9250  142.9590 C   0  0  0  0  0  2  0  0  0  0  0  0
  193.9670  170.6080  142.5700 N   0  0  0  0  0  2  0  0  0  0  0  0
  194.6840  171.1420  140.3230 C   0  0  0  0  0  1  0  0  0  0  0  0
  193.5250  170.6760  141.1840 C   0  0  1  0  0  3  0  0  0  0  0  0
  193.0750  169.2970  140.7130 C   0  0  0  0  0  2  0  0  0  0  0  0
  193.2290  169.1920  139.3040 O   0  0  0  0  0  0  0  0  0  0  0  0
  192.2020  169.6010  137.2140 N   0  0  0  0  0  0  0  0  0  0  0  0
  192.1350  169.2170  138.4410 C   0  0  0  0  0  0  0  0  0  0  0  0
  189.9600  169.0750  137.6120 N   0  0  0  0  0  0  0  0  0  0  0  0
  190.7540  168.8310  138.8280 C   0  0  0  0  0  3  0  0  0  0  0  0
  190.9200  169.5150  136.6770 N   0  0  0  0  0  2  0  0  0  0  0  0
  196.6700  172.6280  143.5770 N   0  0  0  0  0  2  0  0  0  0  0  0
  197.8000  174.3170  144.7640 O   0  0  0  0  0  1  0  0  0  0  0  0
  196.5630  173.9410  144.2180 C   0  0  1  0  0  3  0  0  0  0  0  0
  196.0970  175.0020  143.2260 C   0  0  1  0  0  3  0  0  0  0  0  0
  196.3690  176.4030  143.7600 C   0  0  0  0  0  1  0  0  0  0  0  0
  196.7530  174.8030  141.8700 C   0  0  0  0  0  2  0  0  0  0  0  0
  195.7060  174.7720  140.7770 C   0  0  0  0  0  1  0  0  0  0  0  0
  2 24  1  6  0  0  0
  2  9  1  0  0  0  0
  3  9  1  6  0  0  0
  3  6  1  0  0  0  0
  4  2  1  0  0  0  0
  4  1  1  0  0  0  0
  5 35  1  1  0  0  0
  5 11  1  0  0  0  0
  6  7  1  0  0  0  0
  7 14  1  6  0  0  0
  7  8  1  0  0  0  0
 10  1  1  6  0  0  0
 10  3  1  0  0  0  0
 10  5  1  0  0  0  0
 11  8  1  0  0  0  0
 12 13  2  0  0  0  0
 14 12  1  0  0  0  0
 15 17  1  0  0  0  0
 15 12  1  0  0  0  0
 18 16  2  0  0  0  0
 18 17  1  0  0  0  0
 19 18  1  0  0  0  0
 20 22  1  0  0  0  0
 22 21  1  0  0  0  0
 22 19  1  0  0  0  0
 23 22  2  0  0  0  0
 24 25  1  0  0  0  0
 26 25  1  0  0  0  0
 27 24  1  0  0  0  0
 28 29  1  1  0  0  0
 28 27  1  0  0  0  0
 30 28  1  0  0  0  0
 31 33  1  0  0  0  0
 32 33  1  0  0  0  0
 33 30  1  0  0  0  0
 34 33  2  0  0  0  0
 36 37  1  0  0  0  0
 36 35  1  0  0  0  0
 37 38  1  1  0  0  0
 39 40  1  6  0  0  0
 39 37  1  0  0  0  0
 41 40  1  0  0  0  0
 43 42  1  6  0  0  0
 43 41  1  0  0  0  0
 44 43  1  0  0  0  0
 45 44  1  0  0  0  0
 46 47  2  0  0  0  0
 47 49  1  0  0  0  0
 47 45  1  0  0  0  0
 48 49  2  0  0  0  0
 50 46  1  0  0  0  0
 50 48  1  0  0  0  0
 51 39  1  0  0  0  0
 51 53  1  0  0  0  0
 53 52  1  6  0  0  0
 54 55  1  1  0  0  0
 54 53  1  0  0  0  0
 56 54  1  0  0  0  0
 57 56  1  0  0  0  0
M  END
>  <MODEL>
5

>  <REMARK>
 VINA RESULT:      -5.6      3.285      6.854
  Name = 
  25 active torsions:
  status: ('A' for Active; 'I' for Inactive)
    1  A    between atoms: C_1  and  C_47
    2  A    between atoms: C_1  and  O_52
    3  A    between atoms: C_2  and  P_48
    4  A    between atoms: C_2  and  C_56
    5  A    between atoms: C_5  and  C_24
    6  A    between atoms: C_5  and  C_43
    7  A    between atoms: C_6  and  N_57
    8  A    between atoms: C_7  and  N_57
    9  A    between atoms: N_9  and  C_15
   10  A    between atoms: N_9  and  C_37
   11  A    between atoms: N_11  and  O_22
   12  A    between atoms: C_15  and  C_21
   13  A    between atoms: N_16  and  C_17
   14  A    between atoms: N_16  and  C_43
   15  A    between atoms: C_17  and  C_18
   16  A    between atoms: C_17  and  C_37
   17  A    between atoms: C_18  and  C_45
   18  A    between atoms: C_21  and  O_39
   19  A    between atoms: O_22  and  C_31
   20  A    between atoms: O_26  and  C_28
   21  A    between atoms: O_26  and  C_45
   22  A    between atoms: C_29  and  O_39
   23  A    between atoms: C_33  and  N_53
   24  A    between atoms: P_34  and  O_52
   25  A    between atoms: C_47  and  N_57
                            x       y       z     vdW  Elec       q    Type
                         _______ _______ _______ _____ _____    ______ ____

>  <TORSDO>
F 25

$$$$
=
 OpenBabel11042417503D

 57 59  0  0  1  0  0  0  0  0999 V2000
  192.0300  175.6100  143.1980 C   0  0  0  0  0  2  0  0  0  0  0  0
  189.9690  174.3620  142.3960 C   0  0  1  0  0  3  0  0  0  0  0  0
  190.1710  175.1540  144.8450 C   0  0  2  0  0  3  0  0  0  0  0  0
  190.9180  175.5400  142.1400 C   0  0  0  0  0  2  0  0  0  0  0  0
  192.6900  175.2790  145.5970 C   0  0  1  0  0  3  0  0  0  0  0  0
  189.7760  174.5560  146.1870 C   0  0  0  0  0  2  0  0  0  0  0  0
  189.9330  175.5620  147.3270 C   0  0  1  0  0  3  0  0  0  0  0  0
  191.3910  175.8140  147.7150 C   0  0  0  0  0  2  0  0  0  0  0  0
  189.2560  174.5780  143.7480 C   0  0  0  0  0  2  0  0  0  0  0  0
  191.6530  174.9230  144.5140 C   0  0  2  0  0  3  0  0  0  0  0  0
  192.2380  176.3750  146.5710 C   0  0  0  0  0  2  0  0  0  0  0  0
  187.8120  176.9150  147.0760 C   0  0  0  0  0  0  0  0  0  0  0  0
  187.1070  175.8930  147.3060 O   0  0  0  0  0  0  0  0  0  0  0  0
  189.2380  176.8100  147.0300 N   0  0  0  0  0  2  0  0  0  0  0  0
  187.2100  178.1600  146.8640 O   0  0  0  0  0  0  0  0  0  0  0  0
  183.8310  178.8390  145.8030 O   0  0  0  0  0  0  0  0  0  0  0  0
  185.8390  178.3360  146.8660 N   0  0  0  0  0  2  0  0  0  0  0  0
  185.0880  178.8360  145.7470 C   0  0  0  0  0  0  0  0  0  0  0  0
  185.7660  179.4430  144.5600 C   0  0  0  0  0  2  0  0  0  0  0  0
  186.0730  178.5960  141.8290 O   0  0  0  0  0  0  0  0  0  0  0  0
  185.6340  176.8490  143.7270 O   0  0  0  0  0  1  0  0  0  0  0  0
  186.3600  178.1440  143.4350 P   0  0  0  0  0  0  0  0  0  0  0  0
  188.0230  177.9210  143.6620 O   0  0  0  0  0  1  0  0  0  0  0  0
  189.0080  174.2180  141.2920 N   0  0  0  0  0  0  0  0  0  0  0  0
  187.6990  173.8840  141.8480 C   0  0  0  0  0  2  0  0  0  0  0  0
  187.6050  172.5040  142.0320 O   0  0  0  0  0  1  0  0  0  0  0  0
  189.4000  173.0510  140.5030 C   0  0  0  0  0  2  0  0  0  0  0  0
  188.8880  173.1840  139.0770 C   0  0  2  0  0  3  0  0  0  0  0  0
  187.7490  172.4080  138.9270 F   0  0  0  0  0  0  0  0  0  0  0  0
  189.8680  172.7430  138.1870 O   0  0  0  0  0  0  0  0  0  0  0  0
  188.3670  174.7240  136.9820 O   0  0  0  0  0  1  0  0  0  0  0  0
  189.4950  172.8340  135.5830 O   0  0  0  0  0  0  0  0  0  0  0  0
  189.7060  173.7080  136.7990 P   0  0  0  0  0  0  0  0  0  0  0  0
  191.0980  174.6530  136.5840 O   0  0  0  0  0  1  0  0  0  0  0  0
  193.1550  174.1450  146.2890 O   0  0  0  0  0  0  0  0  0  0  0  0
  194.0390  173.4840  145.4240 C   0  0  0  0  0  2  0  0  0  0  0  0
  195.2090  174.3780  145.0380 C   0  0  1  0  0  3  0  0  0  0  0  0
  195.7130  174.9660  146.2000 O   0  0  0  0  0  1  0  0  0  0  0  0
  196.2880  173.5180  144.3590 C   0  0  1  0  0  3  0  0  0  0  0  0
  196.7090  172.3480  145.2410 C   0  0  0  0  0  2  0  0  0  0  0  0
  196.6690  171.1070  144.4890 N   0  0  0  0  0  2  0  0  0  0  0  0
  196.4680  170.0990  146.6780 C   0  0  0  0  0  1  0  0  0  0  0  0
  197.1830  170.0440  145.3410 C   0  0  1  0  0  3  0  0  0  0  0  0
  196.9270  168.6870  144.6930 C   0  0  0  0  0  2  0  0  0  0  0  0
  196.3100  168.8650  143.4250 O   0  0  0  0  0  0  0  0  0  0  0  0
  194.3190  169.0050  142.1560 N   0  0  0  0  0  0  0  0  0  0  0  0
  194.9360  168.7120  143.2480 C   0  0  0  0  0  0  0  0  0  0  0  0
  192.6810  168.2880  143.6600 N   0  0  0  0  0  0  0  0  0  0  0  0
  194.0060  168.2200  144.2970 C   0  0  0  0  0  3  0  0  0  0  0  0
  192.9650  168.7480  142.3580 N   0  0  0  0  0  2  0  0  0  0  0  0
  195.8260  172.9880  143.0810 N   0  0  0  0  0  2  0  0  0  0  0  0
  197.4480  173.8440  141.6080 O   0  0  0  0  0  1  0  0  0  0  0  0
  196.1160  173.9700  142.0350 C   0  0  1  0  0  3  0  0  0  0  0  0
  195.1790  173.8010  140.8440 C   0  0  1  0  0  3  0  0  0  0  0  0
  193.8510  173.1920  141.2790 C   0  0  0  0  0  1  0  0  0  0  0  0
  194.9590  175.1260  140.1340 C   0  0  0  0  0  2  0  0  0  0  0  0
  194.9870  176.2680  141.1270 C   0  0  0  0  0  1  0  0  0  0  0  0
  2 24  1  6  0  0  0
  2  9  1  0  0  0  0
  3  9  1  6  0  0  0
  3  6  1  0  0  0  0
  4  2  1  0  0  0  0
  4  1  1  0  0  0  0
  5 35  1  1  0  0  0
  5 11  1  0  0  0  0
  6  7  1  0  0  0  0
  7 14  1  6  0  0  0
  7  8  1  0  0  0  0
 10  1  1  6  0  0  0
 10  3  1  0  0  0  0
 10  5  1  0  0  0  0
 11  8  1  0  0  0  0
 12 13  2  0  0  0  0
 14 12  1  0  0  0  0
 15 17  1  0  0  0  0
 15 12  1  0  0  0  0
 18 16  2  0  0  0  0
 18 17  1  0  0  0  0
 19 18  1  0  0  0  0
 20 22  2  0  0  0  0
 22 23  1  0  0  0  0
 22 21  1  0  0  0  0
 22 19  1  0  0  0  0
 24 25  1  0  0  0  0
 25 26  1  0  0  0  0
 27 24  1  0  0  0  0
 28 29  1  1  0  0  0
 28 27  1  0  0  0  0
 30 28  1  0  0  0  0
 32 33  2  0  0  0  0
 33 31  1  0  0  0  0
 33 30  1  0  0  0  0
 34 33  1  0  0  0  0
 36 35  1  0  0  0  0
 37 36  1  0  0  0  0
 37 38  1  1  0  0  0
 39 37  1  0  0  0  0
 39 40  1  1  0  0  0
 41 40  1  0  0  0  0
 41 43  1  0  0  0  0
 43 42  1  1  0  0  0
 44 43  1  0  0  0  0
 45 44  1  0  0  0  0
 46 50  1  0  0  0  0
 46 47  2  0  0  0  0
 47 45  1  0  0  0  0
 47 49  1  0  0  0  0
 48 49  2  0  0  0  0
 50 48  1  0  0  0  0
 51 39  1  0  0  0  0
 53 52  1  6  0  0  0
 53 51  1  0  0  0  0
 54 55  1  1  0  0  0
 54 53  1  0  0  0  0
 56 54  1  0  0  0  0
 56 57  1  0  0  0  0
M  END
>  <MODEL>
6

>  <REMARK>
 VINA RESULT:      -5.4      3.781      7.112
  Name = 
  25 active torsions:
  status: ('A' for Active; 'I' for Inactive)
    1  A    between atoms: C_1  and  C_47
    2  A    between atoms: C_1  and  O_52
    3  A    between atoms: C_2  and  P_48
    4  A    between atoms: C_2  and  C_56
    5  A    between atoms: C_5  and  C_24
    6  A    between atoms: C_5  and  C_43
    7  A    between atoms: C_6  and  N_57
    8  A    between atoms: C_7  and  N_57
    9  A    between atoms: N_9  and  C_15
   10  A    between atoms: N_9  and  C_37
   11  A    between atoms: N_11  and  O_22
   12  A    between atoms: C_15  and  C_21
   13  A    between atoms: N_16  and  C_17
   14  A    between atoms: N_16  and  C_43
   15  A    between atoms: C_17  and  C_18
   16  A    between atoms: C_17  and  C_37
   17  A    between atoms: C_18  and  C_45
   18  A    between atoms: C_21  and  O_39
   19  A    between atoms: O_22  and  C_31
   20  A    between atoms: O_26  and  C_28
   21  A    between atoms: O_26  and  C_45
   22  A    between atoms: C_29  and  O_39
   23  A    between atoms: C_33  and  N_53
   24  A    between atoms: P_34  and  O_52
   25  A    between atoms: C_47  and  N_57
                            x       y       z     vdW  Elec       q    Type
                         _______ _______ _______ _____ _____    ______ ____

>  <TORSDO>
F 25

$$$$
=
 OpenBabel11042417503D

 57 59  0  0  1  0  0  0  0  0999 V2000
  192.2240  176.1730  142.3490 C   0  0  0  0  0  2  0  0  0  0  0  0
  193.8000  174.7290  143.7180 C   0  0  1  0  0  3  0  0  0  0  0  0
  191.6580  173.7330  142.6760 C   0  0  2  0  0  3  0  0  0  0  0  0
  193.6760  175.7170  142.5520 C   0  0  0  0  0  2  0  0  0  0  0  0
  189.7880  175.5670  142.4190 C   0  0  1  0  0  3  0  0  0  0  0  0
  190.6270  172.7160  143.1430 C   0  0  0  0  0  2  0  0  0  0  0  0
  189.6630  172.3270  142.0230 C   0  0  1  0  0  3  0  0  0  0  0  0
  188.6400  173.4170  141.7000 C   0  0  0  0  0  2  0  0  0  0  0  0
  192.9990  173.4540  143.3820 C   0  0  0  0  0  2  0  0  0  0  0  0
  191.1980  175.1810  142.9070 C   0  0  2  0  0  3  0  0  0  0  0  0
  189.2740  174.7320  141.2400 C   0  0  0  0  0  2  0  0  0  0  0  0
  190.8410  170.5600  140.6510 C   0  0  0  0  0  0  0  0  0  0  0  0
  190.6930  169.7130  141.5760 O   0  0  0  0  0  0  0  0  0  0  0  0
  190.3860  171.9040  140.8270 N   0  0  0  0  0  2  0  0  0  0  0  0
  191.4530  170.1960  139.4470 O   0  0  0  0  0  0  0  0  0  0  0  0
  190.5080  170.4590  135.9770 O   0  0  0  0  0  0  0  0  0  0  0  0
  190.7550  170.0810  138.2600 N   0  0  0  0  0  2  0  0  0  0  0  0
  191.1340  170.7290  137.0350 C   0  0  0  0  0  0  0  0  0  0  0  0
  192.1890  171.7890  137.0060 C   0  0  0  0  0  2  0  0  0  0  0  0
  192.5160  174.6130  137.4420 O   0  0  0  0  0  1  0  0  0  0  0  0
  190.1760  173.4800  137.7360 O   0  0  0  0  0  1  0  0  0  0  0  0
  191.4300  173.4370  136.8900 P   0  0  0  0  0  0  0  0  0  0  0  0
  191.0330  173.7600  135.2760 O   0  0  0  0  0  0  0  0  0  0  0  0
  195.2130  174.4250  143.9950 N   0  0  0  0  0  0  0  0  0  0  0  0
  196.0210  174.8670  142.8620 C   0  0  0  0  0  2  0  0  0  0  0  0
  197.1260  174.0270  142.7160 O   0  0  0  0  0  1  0  0  0  0  0  0
  195.3610  172.9700  144.0290 C   0  0  0  0  0  2  0  0  0  0  0  0
  195.7900  172.5170  145.4160 C   0  0  2  0  0  3  0  0  0  0  0  0
  196.1000  173.6300  146.1840 F   0  0  0  0  0  0  0  0  0  0  0  0
  196.9150  171.6990  145.3130 O   0  0  0  0  0  0  0  0  0  0  0  0
  197.5690  169.2230  146.3480 O   0  0  0  0  0  1  0  0  0  0  0  0
  196.0530  169.4560  144.2390 O   0  0  0  0  0  0  0  0  0  0  0  0
  196.3630  170.1130  145.5650 P   0  0  0  0  0  0  0  0  0  0  0  0
  194.9690  170.1310  146.5300 O   0  0  0  0  0  1  0  0  0  0  0  0
  188.8480  175.6010  143.4660 O   0  0  0  0  0  0  0  0  0  0  0  0
  188.3370  176.9060  143.5020 C   0  0  0  0  0  2  0  0  0  0  0  0
  187.0960  176.9930  144.3800 C   0  0  1  0  0  3  0  0  0  0  0  0
  186.3020  175.8730  144.1260 O   0  0  0  0  0  1  0  0  0  0  0  0
  187.5300  177.0210  145.8540 C   0  0  1  0  0  3  0  0  0  0  0  0
  186.5720  177.8460  146.7050 C   0  0  0  0  0  2  0  0  0  0  0  0
  185.1960  177.5440  146.3570 N   0  0  0  0  0  2  0  0  0  0  0  0
  185.5390  179.8970  145.9160 C   0  0  0  0  0  1  0  0  0  0  0  0
  184.5070  178.8010  146.1020 C   0  0  1  0  0  3  0  0  0  0  0  0
  183.6660  178.6860  144.8330 C   0  0  0  0  0  2  0  0  0  0  0  0
  184.4730  178.2270  143.7580 O   0  0  0  0  0  0  0  0  0  0  0  0
  182.7930  178.2870  142.0950 N   0  0  0  0  0  0  0  0  0  0  0  0
  184.0340  178.2760  142.4350 C   0  0  0  0  0  0  0  0  0  0  0  0
  184.0160  178.2890  140.1040 N   0  0  0  0  0  0  0  0  0  0  0  0
  184.9350  178.2930  141.2540 C   0  0  0  0  0  3  0  0  0  0  0  0
  182.7400  178.3120  140.7030 N   0  0  0  0  0  2  0  0  0  0  0  0
  187.6050  175.6780  146.4170 N   0  0  0  0  0  2  0  0  0  0  0  0
  188.9750  174.2800  147.7220 O   0  0  0  0  0  1  0  0  0  0  0  0
  188.7790  175.6010  147.2890 C   0  0  1  0  0  3  0  0  0  0  0  0
  190.0310  176.0960  146.5740 C   0  0  1  0  0  3  0  0  0  0  0  0
  190.7350  177.1730  147.3910 C   0  0  0  0  0  1  0  0  0  0  0  0
  190.9750  174.9450  146.2710 C   0  0  0  0  0  2  0  0  0  0  0  0
  192.2960  175.1430  146.9840 C   0  0  0  0  0  1  0  0  0  0  0  0
  1  4  1  0  0  0  0
  2 24  1  6  0  0  0
  3 10  1  0  0  0  0
  3  6  1  1  0  0  0
  3  9  1  0  0  0  0
  4  2  1  0  0  0  0
  5 10  1  0  0  0  0
  5 35  1  1  0  0  0
  7 14  1  6  0  0  0
  7  6  1  0  0  0  0
  8  7  1  0  0  0  0
  9  2  1  0  0  0  0
 10  1  1  6  0  0  0
 11  8  1  0  0  0  0
 11  5  1  0  0  0  0
 12 14  1  0  0  0  0
 12 13  2  0  0  0  0
 15 12  1  0  0  0  0
 16 18  2  0  0  0  0
 17 15  1  0  0  0  0
 18 17  1  0  0  0  0
 19 18  1  0  0  0  0
 22 19  1  0  0  0  0
 22 20  1  0  0  0  0
 22 21  1  0  0  0  0
 23 22  2  0  0  0  0
 24 27  1  0  0  0  0
 25 24  1  0  0  0  0
 26 25  1  0  0  0  0
 27 28  1  0  0  0  0
 28 29  1  1  0  0  0
 30 28  1  0  0  0  0
 30 33  1  0  0  0  0
 32 33  2  0  0  0  0
 33 31  1  0  0  0  0
 33 34  1  0  0  0  0
 35 36  1  0  0  0  0
 36 37  1  0  0  0  0
 37 38  1  1  0  0  0
 37 39  1  0  0  0  0
 39 51  1  0  0  0  0
 39 40  1  1  0  0  0
 41 40  1  0  0  0  0
 43 42  1  6  0  0  0
 43 41  1  0  0  0  0
 44 43  1  0  0  0  0
 45 44  1  0  0  0  0
 46 47  2  0  0  0  0
 47 45  1  0  0  0  0
 48 50  1  0  0  0  0
 48 49  2  0  0  0  0
 49 47  1  0  0  0  0
 50 46  1  0  0  0  0
 51 53  1  0  0  0  0
 53 52  1  6  0  0  0
 54 53  1  0  0  0  0
 54 55  1  1  0  0  0
 56 54  1  0  0  0  0
 56 57  1  0  0  0  0
M  END
>  <MODEL>
7

>  <REMARK>
 VINA RESULT:      -5.1      3.656      9.581
  Name = 
  25 active torsions:
  status: ('A' for Active; 'I' for Inactive)
    1  A    between atoms: C_1  and  C_47
    2  A    between atoms: C_1  and  O_52
    3  A    between atoms: C_2  and  P_48
    4  A    between atoms: C_2  and  C_56
    5  A    between atoms: C_5  and  C_24
    6  A    between atoms: C_5  and  C_43
    7  A    between atoms: C_6  and  N_57
    8  A    between atoms: C_7  and  N_57
    9  A    between atoms: N_9  and  C_15
   10  A    between atoms: N_9  and  C_37
   11  A    between atoms: N_11  and  O_22
   12  A    between atoms: C_15  and  C_21
   13  A    between atoms: N_16  and  C_17
   14  A    between atoms: N_16  and  C_43
   15  A    between atoms: C_17  and  C_18
   16  A    between atoms: C_17  and  C_37
   17  A    between atoms: C_18  and  C_45
   18  A    between atoms: C_21  and  O_39
   19  A    between atoms: O_22  and  C_31
   20  A    between atoms: O_26  and  C_28
   21  A    between atoms: O_26  and  C_45
   22  A    between atoms: C_29  and  O_39
   23  A    between atoms: C_33  and  N_53
   24  A    between atoms: P_34  and  O_52
   25  A    between atoms: C_47  and  N_57
                            x       y       z     vdW  Elec       q    Type
                         _______ _______ _______ _____ _____    ______ ____

>  <TORSDO>
F 25

$$$$
=
 OpenBabel11042417503D

 57 59  0  0  1  0  0  0  0  0999 V2000
  192.0720  175.6980  142.5040 C   0  0  0  0  0  2  0  0  0  0  0  0
  190.0580  174.1630  142.3140 C   0  0  1  0  0  3  0  0  0  0  0  0
  190.8180  175.0780  144.6060 C   0  0  2  0  0  3  0  0  0  0  0  0
  190.7320  175.4410  141.7990 C   0  0  0  0  0  2  0  0  0  0  0  0
  193.4060  175.5570  144.6260 C   0  0  1  0  0  3  0  0  0  0  0  0
  190.8940  174.4910  146.0080 C   0  0  0  0  0  2  0  0  0  0  0  0
  191.2210  175.5570  147.0540 C   0  0  1  0  0  3  0  0  0  0  0  0
  192.6820  176.0090  147.0190 C   0  0  0  0  0  2  0  0  0  0  0  0
  189.7230  174.3430  143.8100 C   0  0  0  0  0  2  0  0  0  0  0  0
  192.1690  175.0250  143.8760 C   0  0  2  0  0  3  0  0  0  0  0  0
  193.0970  176.6260  145.6810 C   0  0  0  0  0  2  0  0  0  0  0  0
  188.8950  176.5450  147.1120 C   0  0  0  0  0  0  0  0  0  0  0  0
  188.3880  175.3980  147.2660 O   0  0  0  0  0  0  0  0  0  0  0  0
  190.3090  176.6910  146.9560 N   0  0  0  0  0  2  0  0  0  0  0  0
  188.0810  177.6830  147.0920 O   0  0  0  0  0  0  0  0  0  0  0  0
  184.8760  177.5940  145.4420 O   0  0  0  0  0  0  0  0  0  0  0  0
  186.7200  177.6240  146.8610 N   0  0  0  0  0  2  0  0  0  0  0  0
  186.1120  177.7930  145.5700 C   0  0  0  0  0  0  0  0  0  0  0  0
  186.8940  178.2930  144.3980 C   0  0  0  0  0  2  0  0  0  0  0  0
  185.0810  177.7890  142.2230 O   0  0  0  0  0  1  0  0  0  0  0  0
  186.4350  175.8320  143.3130 O   0  0  0  0  0  1  0  0  0  0  0  0
  186.5400  177.2910  142.9230 P   0  0  0  0  0  0  0  0  0  0  0  0
  187.7910  177.4840  141.7990 O   0  0  0  0  0  0  0  0  0  0  0  0
  188.8580  173.8500  141.5230 N   0  0  0  0  0  0  0  0  0  0  0  0
  188.4590  172.4730  141.7990 C   0  0  0  0  0  2  0  0  0  0  0  0
  187.0720  172.4060  141.9430 O   0  0  0  0  0  1  0  0  0  0  0  0
  189.2350  173.8660  140.1100 C   0  0  0  0  0  2  0  0  0  0  0  0
  189.8880  172.5480  139.7250 C   0  0  2  0  0  3  0  0  0  0  0  0
  191.1800  172.5140  140.2300 F   0  0  0  0  0  0  0  0  0  0  0  0
  189.9330  172.4370  138.3350 O   0  0  0  0  0  0  0  0  0  0  0  0
  189.8530  170.3830  136.4910 O   0  0  0  0  0  0  0  0  0  0  0  0
  189.8800  169.9070  139.0550 O   0  0  0  0  0  1  0  0  0  0  0  0
  190.4340  170.8480  138.0090 P   0  0  0  0  0  0  0  0  0  0  0  0
  192.1280  170.7630  138.0080 O   0  0  0  0  0  1  0  0  0  0  0  0
  194.1930  174.5220  145.1660 O   0  0  0  0  0  0  0  0  0  0  0  0
  195.1500  174.1980  144.1940 C   0  0  0  0  0  2  0  0  0  0  0  0
  196.4820  173.8250  144.8290 C   0  0  1  0  0  3  0  0  0  0  0  0
  196.3980  174.0750  146.2000 O   0  0  0  0  0  1  0  0  0  0  0  0
  196.7570  172.3350  144.5690 C   0  0  1  0  0  3  0  0  0  0  0  0
  196.7490  171.5300  145.8630 C   0  0  0  0  0  2  0  0  0  0  0  0
  195.4450  170.9300  146.0780 N   0  0  0  0  0  2  0  0  0  0  0  0
  196.1570  169.0130  147.3680 C   0  0  0  0  0  1  0  0  0  0  0  0
  195.5990  169.4820  146.0380 C   0  0  1  0  0  3  0  0  0  0  0  0
  194.2450  168.8200  145.8020 C   0  0  0  0  0  2  0  0  0  0  0  0
  194.0120  168.6790  144.4080 O   0  0  0  0  0  0  0  0  0  0  0  0
  192.5740  170.5450  144.1960 N   0  0  0  0  0  0  0  0  0  0  0  0
  193.0500  169.4390  143.7420 C   0  0  0  0  0  0  0  0  0  0  0  0
  191.4570  170.1290  142.1860 N   0  0  0  0  0  0  0  0  0  0  0  0
  192.4340  169.0590  142.4440 C   0  0  0  0  0  3  0  0  0  0  0  0
  191.6260  171.0000  143.2820 N   0  0  0  0  0  2  0  0  0  0  0  0
  195.7700  171.7590  143.6620 N   0  0  0  0  0  2  0  0  0  0  0  0
  196.1660  169.8680  142.3190 O   0  0  0  0  0  1  0  0  0  0  0  0
  196.4680  171.2280  142.4880 C   0  0  1  0  0  3  0  0  0  0  0  0
  196.0880  171.9980  141.2270 C   0  0  1  0  0  3  0  0  0  0  0  0
  196.5850  171.2780  139.9800 C   0  0  0  0  0  1  0  0  0  0  0  0
  194.5870  172.2220  141.1600 C   0  0  0  0  0  2  0  0  0  0  0  0
  194.2730  173.4520  140.3340 C   0  0  0  0  0  1  0  0  0  0  0  0
  2 24  1  6  0  0  0
  2  9  1  0  0  0  0
  3  9  1  6  0  0  0
  3  6  1  0  0  0  0
  4  2  1  0  0  0  0
  4  1  1  0  0  0  0
  5 35  1  1  0  0  0
  5 11  1  0  0  0  0
  6  7  1  0  0  0  0
  7 14  1  6  0  0  0
  8  7  1  0  0  0  0
 10  1  1  6  0  0  0
 10  3  1  0  0  0  0
 10  5  1  0  0  0  0
 11  8  1  0  0  0  0
 12 13  2  0  0  0  0
 14 12  1  0  0  0  0
 15 12  1  0  0  0  0
 16 18  2  0  0  0  0
 17 15  1  0  0  0  0
 18 17  1  0  0  0  0
 19 18  1  0  0  0  0
 20 22  1  0  0  0  0
 22 21  1  0  0  0  0
 22 19  1  0  0  0  0
 23 22  2  0  0  0  0
 24 25  1  0  0  0  0
 25 26  1  0  0  0  0
 27 24  1  0  0  0  0
 28 27  1  0  0  0  0
 28 29  1  6  0  0  0
 30 28  1  0  0  0  0
 31 33  2  0  0  0  0
 33 30  1  0  0  0  0
 33 32  1  0  0  0  0
 34 33  1  0  0  0  0
 36 37  1  0  0  0  0
 36 35  1  0  0  0  0
 37 38  1  1  0  0  0
 39 37  1  0  0  0  0
 39 40  1  1  0  0  0
 40 41  1  0  0  0  0
 43 41  1  0  0  0  0
 43 42  1  1  0  0  0
 44 43  1  0  0  0  0
 45 44  1  0  0  0  0
 47 46  2  0  0  0  0
 47 45  1  0  0  0  0
 48 49  2  0  0  0  0
 48 50  1  0  0  0  0
 49 47  1  0  0  0  0
 50 46  1  0  0  0  0
 51 39  1  0  0  0  0
 53 52  1  6  0  0  0
 53 51  1  0  0  0  0
 54 55  1  6  0  0  0
 54 53  1  0  0  0  0
 56 54  1  0  0  0  0
 57 56  1  0  0  0  0
M  END
>  <MODEL>
8

>  <REMARK>
 VINA RESULT:      -5.1      3.661      7.124
  Name = 
  25 active torsions:
  status: ('A' for Active; 'I' for Inactive)
    1  A    between atoms: C_1  and  C_47
    2  A    between atoms: C_1  and  O_52
    3  A    between atoms: C_2  and  P_48
    4  A    between atoms: C_2  and  C_56
    5  A    between atoms: C_5  and  C_24
    6  A    between atoms: C_5  and  C_43
    7  A    between atoms: C_6  and  N_57
    8  A    between atoms: C_7  and  N_57
    9  A    between atoms: N_9  and  C_15
   10  A    between atoms: N_9  and  C_37
   11  A    between atoms: N_11  and  O_22
   12  A    between atoms: C_15  and  C_21
   13  A    between atoms: N_16  and  C_17
   14  A    between atoms: N_16  and  C_43
   15  A    between atoms: C_17  and  C_18
   16  A    between atoms: C_17  and  C_37
   17  A    between atoms: C_18  and  C_45
   18  A    between atoms: C_21  and  O_39
   19  A    between atoms: O_22  and  C_31
   20  A    between atoms: O_26  and  C_28
   21  A    between atoms: O_26  and  C_45
   22  A    between atoms: C_29  and  O_39
   23  A    between atoms: C_33  and  N_53
   24  A    between atoms: P_34  and  O_52
   25  A    between atoms: C_47  and  N_57
                            x       y       z     vdW  Elec       q    Type
                         _______ _______ _______ _____ _____    ______ ____

>  <TORSDO>
F 25

$$$$
=
 OpenBabel11042417503D

 57 59  0  0  1  0  0  0  0  0999 V2000
  192.4950  174.9600  141.5310 C   0  0  0  0  0  2  0  0  0  0  0  0
  193.9260  173.2460  142.7380 C   0  0  1  0  0  3  0  0  0  0  0  0
  192.0660  172.5080  141.1070 C   0  0  2  0  0  3  0  0  0  0  0  0
  193.9240  174.5070  141.8660 C   0  0  0  0  0  2  0  0  0  0  0  0
  190.1340  174.2920  141.0020 C   0  0  1  0  0  3  0  0  0  0  0  0
  191.0510  171.3750  141.1010 C   0  0  0  0  0  2  0  0  0  0  0  0
  190.3170  171.2740  139.7630 C   0  0  1  0  0  3  0  0  0  0  0  0
  189.2840  172.3830  139.5570 C   0  0  0  0  0  2  0  0  0  0  0  0
  193.2880  172.0860  141.9440 C   0  0  0  0  0  2  0  0  0  0  0  0
  191.4680  173.8280  141.6180 C   0  0  2  0  0  3  0  0  0  0  0  0
  189.8860  173.7890  139.5740 C   0  0  0  0  0  2  0  0  0  0  0  0
  191.7560  169.9630  138.1490 C   0  0  0  0  0  0  0  0  0  0  0  0
  191.4470  168.8800  138.7200 O   0  0  0  0  0  0  0  0  0  0  0  0
  191.2570  171.2070  138.6490 N   0  0  0  0  0  2  0  0  0  0  0  0
  192.5880  169.9610  137.0250 O   0  0  0  0  0  0  0  0  0  0  0  0
  196.1800  170.2250  136.8700 O   0  0  0  0  0  0  0  0  0  0  0  0
  193.9350  169.6590  137.0930 N   0  0  0  0  0  2  0  0  0  0  0  0
  194.9820  170.5360  136.6470 C   0  0  0  0  0  0  0  0  0  0  0  0
  194.6850  171.7600  135.8400 C   0  0  0  0  0  2  0  0  0  0  0  0
  194.3600  172.8500  138.4820 O   0  0  0  0  0  1  0  0  0  0  0  0
  193.7950  174.2840  136.3680 O   0  0  0  0  0  0  0  0  0  0  0  0
  194.7650  173.2450  136.8860 P   0  0  0  0  0  0  0  0  0  0  0  0
  196.3370  173.8740  136.8500 O   0  0  0  0  0  1  0  0  0  0  0  0
  195.2920  172.9170  143.1760 N   0  0  0  0  0  0  0  0  0  0  0  0
  195.6400  171.5900  142.6750 C   0  0  0  0  0  2  0  0  0  0  0  0
  196.9640  171.5870  142.2340 O   0  0  0  0  0  1  0  0  0  0  0  0
  195.2780  172.7870  144.6320 C   0  0  0  0  0  2  0  0  0  0  0  0
  195.0550  171.3350  145.0280 C   0  0  2  0  0  3  0  0  0  0  0  0
  193.7240  171.1560  145.3760 F   0  0  0  0  0  0  0  0  0  0  0  0
  195.8640  171.0200  146.1200 O   0  0  0  0  0  0  0  0  0  0  0  0
  197.3240  168.8620  147.0380 O   0  0  0  0  0  1  0  0  0  0  0  0
  196.0700  168.7810  144.7530 O   0  0  0  0  0  0  0  0  0  0  0  0
  195.9560  169.3250  146.1590 P   0  0  0  0  0  0  0  0  0  0  0  0
  194.5720  168.6870  146.9040 O   0  0  0  0  0  1  0  0  0  0  0  0
  189.0330  174.0170  141.8360 O   0  0  0  0  0  0  0  0  0  0  0  0
  188.2490  175.1790  141.8570 C   0  0  0  0  0  2  0  0  0  0  0  0
  188.8190  176.2160  142.8150 C   0  0  1  0  0  3  0  0  0  0  0  0
  189.3160  177.2810  142.0600 O   0  0  0  0  0  1  0  0  0  0  0  0
  187.6980  176.6980  143.7500 C   0  0  1  0  0  3  0  0  0  0  0  0
  186.3840  175.9800  143.4660 C   0  0  0  0  0  2  0  0  0  0  0  0
  185.3530  176.9360  143.1040 N   0  0  0  0  0  2  0  0  0  0  0  0
  185.8600  178.4400  141.2810 C   0  0  0  0  0  1  0  0  0  0  0  0
  186.0000  178.1970  142.7710 C   0  0  1  0  0  3  0  0  0  0  0  0
  185.3330  179.3410  143.5290 C   0  0  0  0  0  2  0  0  0  0  0  0
  184.5470  178.8220  144.5940 O   0  0  0  0  0  0  0  0  0  0  0  0
  185.8830  179.3700  146.4670 N   0  0  0  0  0  0  0  0  0  0  0  0
  185.0920  178.5630  145.8510 C   0  0  0  0  0  0  0  0  0  0  0  0
  185.6730  177.4890  147.8370 N   0  0  0  0  0  0  0  0  0  0  0  0
  184.8540  177.3180  146.6260 C   0  0  0  0  0  3  0  0  0  0  0  0
  186.2410  178.7690  147.6720 N   0  0  0  0  0  2  0  0  0  0  0  0
  188.0430  176.4880  145.1520 N   0  0  0  0  0  2  0  0  0  0  0  0
  190.1100  177.3720  145.8470 O   0  0  0  0  0  1  0  0  0  0  0  0
  189.4880  176.2650  145.2500 C   0  0  1  0  0  3  0  0  0  0  0  0
  189.7980  175.0070  146.0560 C   0  0  1  0  0  3  0  0  0  0  0  0
  188.9330  174.9360  147.3080 C   0  0  0  0  0  1  0  0  0  0  0  0
  189.6210  173.7610  145.2060 C   0  0  0  0  0  2  0  0  0  0  0  0
  190.9470  173.0520  145.0260 C   0  0  0  0  0  1  0  0  0  0  0  0
  1  4  1  0  0  0  0
  2 24  1  6  0  0  0
  3  6  1  1  0  0  0
  3 10  1  0  0  0  0
  3  9  1  0  0  0  0
  4  2  1  0  0  0  0
  5 10  1  0  0  0  0
  5 35  1  1  0  0  0
  7 14  1  6  0  0  0
  7  6  1  0  0  0  0
  8 11  1  0  0  0  0
  8  7  1  0  0  0  0
  9  2  1  0  0  0  0
 10  1  1  6  0  0  0
 11  5  1  0  0  0  0
 12 14  1  0  0  0  0
 12 13  2  0  0  0  0
 15 17  1  0  0  0  0
 15 12  1  0  0  0  0
 18 16  2  0  0  0  0
 18 17  1  0  0  0  0
 19 18  1  0  0  0  0
 19 22  1  0  0  0  0
 21 22  2  0  0  0  0
 22 20  1  0  0  0  0
 23 22  1  0  0  0  0
 24 27  1  0  0  0  0
 25 24  1  0  0  0  0
 26 25  1  0  0  0  0
 27 28  1  0  0  0  0
 28 29  1  1  0  0  0
 28 30  1  0  0  0  0
 30 33  1  0  0  0  0
 32 33  2  0  0  0  0
 33 34  1  0  0  0  0
 33 31  1  0  0  0  0
 35 36  1  0  0  0  0
 36 37  1  0  0  0  0
 37 38  1  6  0  0  0
 37 39  1  0  0  0  0
 39 40  1  6  0  0  0
 39 51  1  0  0  0  0
 41 40  1  0  0  0  0
 43 42  1  6  0  0  0
 43 41  1  0  0  0  0
 43 44  1  0  0  0  0
 44 45  1  0  0  0  0
 45 47  1  0  0  0  0
 46 50  1  0  0  0  0
 47 46  2  0  0  0  0
 47 49  1  0  0  0  0
 49 48  2  0  0  0  0
 50 48  1  0  0  0  0
 51 53  1  0  0  0  0
 53 52  1  1  0  0  0
 53 54  1  0  0  0  0
 54 55  1  1  0  0  0
 56 54  1  0  0  0  0
 57 56  1  0  0  0  0
M  END
>  <MODEL>
9

>  <REMARK>
 VINA RESULT:      -5.0      3.489     10.004
  Name = 
  25 active torsions:
  status: ('A' for Active; 'I' for Inactive)
    1  A    between atoms: C_1  and  C_47
    2  A    between atoms: C_1  and  O_52
    3  A    between atoms: C_2  and  P_48
    4  A    between atoms: C_2  and  C_56
    5  A    between atoms: C_5  and  C_24
    6  A    between atoms: C_5  and  C_43
    7  A    between atoms: C_6  and  N_57
    8  A    between atoms: C_7  and  N_57
    9  A    between atoms: N_9  and  C_15
   10  A    between atoms: N_9  and  C_37
   11  A    between atoms: N_11  and  O_22
   12  A    between atoms: C_15  and  C_21
   13  A    between atoms: N_16  and  C_17
   14  A    between atoms: N_16  and  C_43
   15  A    between atoms: C_17  and  C_18
   16  A    between atoms: C_17  and  C_37
   17  A    between atoms: C_18  and  C_45
   18  A    between atoms: C_21  and  O_39
   19  A    between atoms: O_22  and  C_31
   20  A    between atoms: O_26  and  C_28
   21  A    between atoms: O_26  and  C_45
   22  A    between atoms: C_29  and  O_39
   23  A    between atoms: C_33  and  N_53
   24  A    between atoms: P_34  and  O_52
   25  A    between atoms: C_47  and  N_57
                            x       y       z     vdW  Elec       q    Type
                         _______ _______ _______ _____ _____    ______ ____

>  <TORSDO>
F 25

$$$$
