=
 OpenBabel11042418243D

 28 30  0  0  1  0  0  0  0  0999 V2000
  189.2530  176.2350  143.2360 C   0  0  0  0  0  0  0  0  0  0  0  0
  189.9700  173.5340  142.9530 C   0  0  0  0  0  3  0  0  0  0  0  0
  188.9360  174.0670  142.1830 C   0  0  0  0  0  0  0  0  0  0  0  0
  190.6500  174.3440  143.8640 C   0  0  0  0  0  3  0  0  0  0  0  0
  188.5810  175.4090  142.3270 C   0  0  0  0  0  3  0  0  0  0  0  0
  190.3000  175.6930  144.0220 C   0  0  0  0  0  0  0  0  0  0  0  0
  191.0170  176.4880  144.9730 N   0  0  0  0  0  0  0  0  0  0  0  0
  191.8410  175.7290  147.1310 C   0  0  0  0  0  2  0  0  0  0  0  0
  193.0850  176.4540  146.8690 N   0  0  0  0  0  2  0  0  0  0  0  0
  193.4000  176.3530  145.4430 C   0  0  0  0  0  2  0  0  0  0  0  0
  190.6850  176.3980  146.3910 C   0  0  0  0  0  2  0  0  0  0  0  0
  192.3180  177.0480  144.6190 C   0  0  0  0  0  2  0  0  0  0  0  0
  188.8360  177.6800  143.2770 C   0  0  1  0  0  3  0  0  0  0  0  0
  188.9420  178.2850  142.0210 O   0  0  0  0  0  1  0  0  0  0  0  0
  185.2950  179.0410  143.5130 C   0  0  0  0  0  3  0  0  0  0  0  0
  187.4940  177.8990  143.9230 C   0  0  0  0  0  0  0  0  0  0  0  0
  187.2670  177.3570  145.1870 C   0  0  0  0  0  3  0  0  0  0  0  0
  184.9250  178.0500  145.7900 C   0  0  0  0  0  0  0  0  0  0  0  0
  186.5870  178.6540  143.1910 C   0  0  0  0  0  3  0  0  0  0  0  0
  184.5640  178.7730  144.6600 C   0  0  0  0  0  3  0  0  0  0  0  0
  186.1460  177.4230  146.0010 C   0  0  0  0  0  3  0  0  0  0  0  0
  184.0660  177.9550  146.7050 O   0  0  0  0  0  0  0  0  0  0  0  0
  188.1910  173.1980  141.2320 C   0  0  0  0  0  2  0  0  0  0  0  0
  189.0700  172.2910  140.6360 O   0  0  0  0  0  0  0  0  0  0  0  0
  189.4260  172.9470  139.1140 P   0  0  1  0  0  0  0  0  0  0  0  0
  189.4650  171.8340  138.0930 O   0  0  0  0  0  0  0  0  0  0  0  0
  188.1920  174.1020  138.6560 N   0  0  0  0  0  1  0  0  0  0  0  0
  190.9330  173.7160  139.1540 O   0  0  0  0  0  1  0  0  0  0  0  0
  1 13  1  0  0  0  0
  1  6  1  0  0  0  0
  2  4  1  0  0  0  0
  3  5  1  0  0  0  0
  3  2  2  0  0  0  0
  4  6  2  0  0  0  0
  5  1  2  0  0  0  0
  6  7  1  0  0  0  0
  7 11  1  0  0  0  0
  9  8  1  0  0  0  0
 10  9  1  0  0  0  0
 11  8  1  0  0  0  0
 12  7  1  0  0  0  0
 12 10  1  0  0  0  0
 13 14  1  6  0  0  0
 13 16  1  0  0  0  0
 15 20  2  0  0  0  0
 16 17  1  0  0  0  0
 17 21  2  0  0  0  0
 18 21  1  0  0  0  0
 18 22  2  0  0  0  0
 19 15  1  0  0  0  0
 19 16  2  0  0  0  0
 20 18  1  0  0  0  0
 23  3  1  0  0  0  0
 24 23  1  0  0  0  0
 25 26  2  6  0  0  0
 25 28  1  0  0  0  0
 25 24  1  0  0  0  0
 27 25  1  0  0  0  0
M  END
>  <MODEL>
1

>  <REMARK>
 VINA RESULT:      -6.8      0.000      0.000
  Name = 
  6 active torsions:
  status: ('A' for Active; 'I' for Inactive)
    1  A    between atoms: N_2  and  C_24
    2  A    between atoms: O_3  and  P_6
    3  A    between atoms: O_3  and  C_17
    4  A    between atoms: C_4  and  C_9
    5  A    between atoms: C_8  and  C_9
    6  A    between atoms: C_12  and  C_17
                            x       y       z     vdW  Elec       q    Type
                         _______ _______ _______ _____ _____    ______ ____

>  <TORSDO>
F 6

$$$$
=
 OpenBabel11042418243D

 28 30  0  0  1  0  0  0  0  0999 V2000
  189.7850  176.1550  145.3520 C   0  0  0  0  0  0  0  0  0  0  0  0
  192.0840  177.0620  144.0160 C   0  0  0  0  0  3  0  0  0  0  0  0
  192.1600  176.6740  145.3540 C   0  0  0  0  0  0  0  0  0  0  0  0
  190.8650  176.9980  143.3390 C   0  0  0  0  0  3  0  0  0  0  0  0
  191.0160  176.2260  146.0160 C   0  0  0  0  0  3  0  0  0  0  0  0
  189.7060  176.5540  143.9940 C   0  0  0  0  0  0  0  0  0  0  0  0
  188.4730  176.5110  143.2670 N   0  0  0  0  0  0  0  0  0  0  0  0
  187.9290  177.8420  141.3060 C   0  0  0  0  0  2  0  0  0  0  0  0
  187.3360  176.6460  140.7060 N   0  0  0  0  0  2  0  0  0  0  0  0
  188.1310  175.4790  141.0900 C   0  0  0  0  0  2  0  0  0  0  0  0
  187.8460  177.7540  142.8290 C   0  0  0  0  0  2  0  0  0  0  0  0
  188.0630  175.2770  142.6030 C   0  0  0  0  0  2  0  0  0  0  0  0
  188.6240  175.6050  146.1320 C   0  0  1  0  0  3  0  0  0  0  0  0
  189.0430  174.9590  147.2980 O   0  0  0  0  0  1  0  0  0  0  0  0
  187.0650  178.6890  147.7160 C   0  0  0  0  0  3  0  0  0  0  0  0
  187.5350  176.6150  146.3800 C   0  0  0  0  0  0  0  0  0  0  0  0
  186.3140  176.4520  145.7250 C   0  0  0  0  0  3  0  0  0  0  0  0
  184.8810  178.3610  146.5200 C   0  0  0  0  0  0  0  0  0  0  0  0
  187.8460  177.6320  147.2720 C   0  0  0  0  0  3  0  0  0  0  0  0
  185.7570  179.0080  147.3830 C   0  0  0  0  0  3  0  0  0  0  0  0
  185.1570  177.2150  145.7870 C   0  0  0  0  0  3  0  0  0  0  0  0
  183.7340  178.8600  146.3920 O   0  0  0  0  0  0  0  0  0  0  0  0
  193.4530  176.7680  146.0840 C   0  0  0  0  0  2  0  0  0  0  0  0
  193.8540  175.4970  146.4980 O   0  0  0  0  0  0  0  0  0  0  0  0
  195.0230  175.0070  145.3720 P   0  0  1  0  0  0  0  0  0  0  0  0
  196.1570  174.3250  146.1020 O   0  0  0  0  0  1  0  0  0  0  0  0
  194.3180  173.8820  144.2290 N   0  0  0  0  0  1  0  0  0  0  0  0
  195.6260  176.3530  144.5430 O   0  0  0  0  0  0  0  0  0  0  0  0
  1  5  1  0  0  0  0
  1 13  1  0  0  0  0
  2  3  1  0  0  0  0
  3  5  2  0  0  0  0
  3 23  1  0  0  0  0
  4  6  1  0  0  0  0
  4  2  2  0  0  0  0
  6  1  2  0  0  0  0
  7  6  1  0  0  0  0
  8 11  1  0  0  0  0
  9 10  1  0  0  0  0
  9  8  1  0  0  0  0
 10 12  1  0  0  0  0
 11  7  1  0  0  0  0
 12  7  1  0  0  0  0
 13 16  1  0  0  0  0
 13 14  1  1  0  0  0
 16 19  2  0  0  0  0
 17 21  2  0  0  0  0
 17 16  1  0  0  0  0
 18 20  1  0  0  0  0
 19 15  1  0  0  0  0
 20 15  2  0  0  0  0
 21 18  1  0  0  0  0
 22 18  2  0  0  0  0
 23 24  1  0  0  0  0
 25 27  1  6  0  0  0
 25 26  1  0  0  0  0
 25 24  1  0  0  0  0
 28 25  2  0  0  0  0
M  END
>  <MODEL>
2

>  <REMARK>
 VINA RESULT:      -6.8      3.788      5.572
  Name = 
  6 active torsions:
  status: ('A' for Active; 'I' for Inactive)
    1  A    between atoms: N_2  and  C_24
    2  A    between atoms: O_3  and  P_6
    3  A    between atoms: O_3  and  C_17
    4  A    between atoms: C_4  and  C_9
    5  A    between atoms: C_8  and  C_9
    6  A    between atoms: C_12  and  C_17
                            x       y       z     vdW  Elec       q    Type
                         _______ _______ _______ _____ _____    ______ ____

>  <TORSDO>
F 6

$$$$
=
 OpenBabel11042418243D

 28 30  0  0  1  0  0  0  0  0999 V2000
  189.4030  175.5630  144.4910 C   0  0  0  0  0  0  0  0  0  0  0  0
  189.6770  173.0940  143.1780 C   0  0  0  0  0  3  0  0  0  0  0  0
  188.8120  174.0640  142.6690 C   0  0  0  0  0  0  0  0  0  0  0  0
  190.4070  173.3500  144.3400 C   0  0  0  0  0  3  0  0  0  0  0  0
  188.6770  175.2890  143.3250 C   0  0  0  0  0  3  0  0  0  0  0  0
  190.2770  174.5760  145.0110 C   0  0  0  0  0  0  0  0  0  0  0  0
  191.0380  174.7960  146.2030 N   0  0  0  0  0  0  0  0  0  0  0  0
  192.7210  176.5210  146.5220 C   0  0  0  0  0  2  0  0  0  0  0  0
  192.1650  176.7640  147.8540 N   0  0  0  0  0  2  0  0  0  0  0  0
  190.7120  176.6050  147.7960 C   0  0  0  0  0  2  0  0  0  0  0  0
  192.4680  175.0720  146.1110 C   0  0  0  0  0  2  0  0  0  0  0  0
  190.3590  175.1620  147.4430 C   0  0  0  0  0  2  0  0  0  0  0  0
  189.2330  176.9310  145.0910 C   0  0  1  0  0  3  0  0  0  0  0  0
  189.9190  177.9050  144.3600 O   0  0  0  0  0  1  0  0  0  0  0  0
  185.9080  176.7800  146.9260 C   0  0  0  0  0  3  0  0  0  0  0  0
  187.7970  177.2970  145.3530 C   0  0  1  0  0  3  0  0  0  0  0  0
  187.1740  178.2050  144.4970 C   0  0  0  0  0  3  0  0  0  0  0  0
  184.8200  178.4160  145.3620 C   0  0  0  0  0  0  0  0  0  0  0  0
  187.2020  176.6700  146.4410 C   0  0  0  0  0  3  0  0  0  0  0  0
  184.8590  177.5510  146.4480 C   0  0  0  0  0  2  0  0  0  0  0  0
  185.8750  178.6920  144.5020 C   0  0  0  0  0  3  0  0  0  0  0  0
  183.7300  179.0020  145.1380 O   0  0  0  0  0  0  0  0  0  0  0  0
  188.0120  173.7820  141.4480 C   0  0  0  0  0  2  0  0  0  0  0  0
  188.3190  174.7160  140.4570 O   0  0  0  0  0  0  0  0  0  0  0  0
  188.6240  173.8030  139.0600 P   0  0  1  0  0  0  0  0  0  0  0  0
  188.0020  172.4360  139.2180 O   0  0  0  0  0  1  0  0  0  0  0  0
  187.9230  174.5960  137.6640 N   0  0  0  0  0  1  0  0  0  0  0  0
  190.2920  173.6320  138.8350 O   0  0  0  0  0  0  0  0  0  0  0  0
  1  6  1  0  0  0  0
  1 13  1  0  0  0  0
  2  4  1  0  0  0  0
  3  2  2  0  0  0  0
  3  5  1  0  0  0  0
  4  6  2  0  0  0  0
  5  1  2  0  0  0  0
  6  7  1  0  0  0  0
  7 12  1  0  0  0  0
  8  9  1  0  0  0  0
 10  9  1  0  0  0  0
 11  7  1  0  0  0  0
 11  8  1  0  0  0  0
 12 10  1  0  0  0  0
 13 14  1  6  0  0  0
 16 13  1  6  0  0  0
 16 19  1  0  0  0  0
 17 21  2  0  0  0  0
 17 16  1  0  0  0  0
 18 20  1  0  0  0  0
 19 15  2  0  0  0  0
 20 15  1  0  0  0  0
 21 18  1  0  0  0  0
 22 18  2  0  0  0  0
 23  3  1  0  0  0  0
 24 23  1  0  0  0  0
 25 27  1  6  0  0  0
 25 26  1  0  0  0  0
 25 24  1  0  0  0  0
 28 25  2  0  0  0  0
M  END
>  <MODEL>
3

>  <REMARK>
 VINA RESULT:      -6.7      1.384      2.081
  Name = 
  6 active torsions:
  status: ('A' for Active; 'I' for Inactive)
    1  A    between atoms: N_2  and  C_24
    2  A    between atoms: O_3  and  P_6
    3  A    between atoms: O_3  and  C_17
    4  A    between atoms: C_4  and  C_9
    5  A    between atoms: C_8  and  C_9
    6  A    between atoms: C_12  and  C_17
                            x       y       z     vdW  Elec       q    Type
                         _______ _______ _______ _____ _____    ______ ____

>  <TORSDO>
F 6

$$$$
=
 OpenBabel11042418243D

 28 30  0  0  1  0  0  0  0  0999 V2000
  188.3340  176.0840  144.7480 C   0  0  0  0  0  0  0  0  0  0  0  0
  187.0500  175.3870  142.3490 C   0  0  0  0  0  3  0  0  0  0  0  0
  188.2380  174.7540  142.7160 C   0  0  0  0  0  0  0  0  0  0  0  0
  186.4970  176.3670  143.1760 C   0  0  0  0  0  3  0  0  0  0  0  0
  188.8750  175.1040  143.9080 C   0  0  0  0  0  3  0  0  0  0  0  0
  187.1290  176.7310  144.3740 C   0  0  0  0  0  0  0  0  0  0  0  0
  186.5350  177.7470  145.1900 N   0  0  0  0  0  0  0  0  0  0  0  0
  184.6480  179.1490  144.5700 C   0  0  0  0  0  2  0  0  0  0  0  0
  184.1070  178.9510  145.9150 N   0  0  0  0  0  2  0  0  0  0  0  0
  184.4010  177.5840  146.3480 C   0  0  0  0  0  2  0  0  0  0  0  0
  186.1700  179.0300  144.5990 C   0  0  0  0  0  2  0  0  0  0  0  0
  185.9120  177.3870  146.4600 C   0  0  0  0  0  2  0  0  0  0  0  0
  189.0620  176.3500  146.0370 C   0  0  1  0  0  3  0  0  0  0  0  0
  188.6090  175.5200  147.0670 O   0  0  0  0  0  1  0  0  0  0  0  0
  192.3870  177.3140  144.4690 C   0  0  0  0  0  3  0  0  0  0  0  0
  190.5600  176.3420  145.8930 C   0  0  0  0  0  0  0  0  0  0  0  0
  191.3100  175.5560  146.7670 C   0  0  0  0  0  3  0  0  0  0  0  0
  193.7030  175.8860  146.0610 C   0  0  0  0  0  0  0  0  0  0  0  0
  191.0720  177.1250  144.8660 C   0  0  0  0  0  3  0  0  0  0  0  0
  193.5460  176.7660  144.9980 C   0  0  0  0  0  3  0  0  0  0  0  0
  192.6810  175.3580  146.8390 C   0  0  0  0  0  3  0  0  0  0  0  0
  194.8770  175.5350  146.3430 O   0  0  0  0  0  0  0  0  0  0  0  0
  188.8430  173.7300  141.8220 C   0  0  0  0  0  2  0  0  0  0  0  0
  188.7160  172.4660  142.4010 O   0  0  0  0  0  0  0  0  0  0  0  0
  190.3010  171.8830  142.5550 P   0  0  1  0  0  0  0  0  0  0  0  0
  191.2320  172.7630  141.7540 O   0  0  0  0  0  0  0  0  0  0  0  0
  190.7880  171.9140  144.2370 N   0  0  0  0  0  1  0  0  0  0  0  0
  190.3940  170.2980  141.9690 O   0  0  0  0  0  1  0  0  0  0  0  0
  1 13  1  0  0  0  0
  2  3  2  0  0  0  0
  2  4  1  0  0  0  0
  3  5  1  0  0  0  0
  4  6  2  0  0  0  0
  5  1  2  0  0  0  0
  6  1  1  0  0  0  0
  6  7  1  0  0  0  0
  7 12  1  0  0  0  0
  8 11  1  0  0  0  0
  8  9  1  0  0  0  0
  9 10  1  0  0  0  0
 10 12  1  0  0  0  0
 11  7  1  0  0  0  0
 13 14  1  1  0  0  0
 15 19  1  0  0  0  0
 15 20  2  0  0  0  0
 16 13  1  0  0  0  0
 16 17  1  0  0  0  0
 17 21  2  0  0  0  0
 18 22  2  0  0  0  0
 18 21  1  0  0  0  0
 19 16  2  0  0  0  0
 20 18  1  0  0  0  0
 23 24  1  0  0  0  0
 23  3  1  0  0  0  0
 24 25  1  0  0  0  0
 25 26  2  6  0  0  0
 25 27  1  0  0  0  0
 28 25  1  0  0  0  0
M  END
>  <MODEL>
4

>  <REMARK>
 VINA RESULT:      -6.5      2.929      5.932
  Name = 
  6 active torsions:
  status: ('A' for Active; 'I' for Inactive)
    1  A    between atoms: N_2  and  C_24
    2  A    between atoms: O_3  and  P_6
    3  A    between atoms: O_3  and  C_17
    4  A    between atoms: C_4  and  C_9
    5  A    between atoms: C_8  and  C_9
    6  A    between atoms: C_12  and  C_17
                            x       y       z     vdW  Elec       q    Type
                         _______ _______ _______ _____ _____    ______ ____

>  <TORSDO>
F 6

$$$$
=
 OpenBabel11042418243D

 28 30  0  0  1  0  0  0  0  0999 V2000
  188.3420  176.0270  144.6950 C   0  0  0  0  0  0  0  0  0  0  0  0
  187.0070  175.4100  142.3020 C   0  0  0  0  0  3  0  0  0  0  0  0
  188.1940  174.7530  142.6290 C   0  0  0  0  0  0  0  0  0  0  0  0
  186.4820  176.3740  143.1640 C   0  0  0  0  0  3  0  0  0  0  0  0
  188.8560  175.0630  143.8190 C   0  0  0  0  0  3  0  0  0  0  0  0
  187.1390  176.6980  144.3600 C   0  0  0  0  0  0  0  0  0  0  0  0
  186.5710  177.6980  145.2130 N   0  0  0  0  0  0  0  0  0  0  0  0
  184.7260  179.1750  144.6450 C   0  0  0  0  0  2  0  0  0  0  0  0
  184.1770  178.9410  145.9810 N   0  0  0  0  0  2  0  0  0  0  0  0
  184.4320  177.5520  146.3610 C   0  0  0  0  0  2  0  0  0  0  0  0
  186.2440  179.0130  144.6710 C   0  0  0  0  0  2  0  0  0  0  0  0
  185.9360  177.3080  146.4680 C   0  0  0  0  0  2  0  0  0  0  0  0
  189.0950  176.2490  145.9770 C   0  0  1  0  0  3  0  0  0  0  0  0
  188.6110  175.4390  147.0090 O   0  0  0  0  0  1  0  0  0  0  0  0
  192.5890  174.9750  146.7630 C   0  0  0  0  0  3  0  0  0  0  0  0
  190.5900  176.1650  145.8170 C   0  0  1  0  0  3  0  0  0  0  0  0
  191.2060  176.9860  144.8740 C   0  0  0  0  0  3  0  0  0  0  0  0
  193.6620  176.4710  145.0550 C   0  0  0  0  0  0  0  0  0  0  0  0
  191.2380  175.2670  146.6560 C   0  0  0  0  0  3  0  0  0  0  0  0
  193.6570  175.5080  146.0560 C   0  0  0  0  0  2  0  0  0  0  0  0
  192.5460  177.1190  144.5420 C   0  0  0  0  0  3  0  0  0  0  0  0
  194.7800  176.7840  144.5700 O   0  0  0  0  0  0  0  0  0  0  0  0
  188.7700  173.7470  141.6980 C   0  0  0  0  0  2  0  0  0  0  0  0
  189.4420  174.3960  140.6600 O   0  0  0  0  0  0  0  0  0  0  0  0
  188.8120  173.7300  139.2330 P   0  0  1  0  0  0  0  0  0  0  0  0
  188.0030  172.5020  139.5760 O   0  0  0  0  0  1  0  0  0  0  0  0
  187.7760  174.8960  138.4360 N   0  0  0  0  0  1  0  0  0  0  0  0
  190.0740  173.2920  138.1940 O   0  0  0  0  0  0  0  0  0  0  0  0
  1 13  1  0  0  0  0
  2  3  2  0  0  0  0
  2  4  1  0  0  0  0
  3  5  1  0  0  0  0
  4  6  2  0  0  0  0
  5  1  2  0  0  0  0
  6  1  1  0  0  0  0
  6  7  1  0  0  0  0
  7 12  1  0  0  0  0
  8 11  1  0  0  0  0
  8  9  1  0  0  0  0
  9 10  1  0  0  0  0
 10 12  1  0  0  0  0
 11  7  1  0  0  0  0
 13 14  1  1  0  0  0
 16 13  1  1  0  0  0
 16 19  1  0  0  0  0
 17 16  1  0  0  0  0
 18 20  1  0  0  0  0
 19 15  2  0  0  0  0
 20 15  1  0  0  0  0
 21 17  2  0  0  0  0
 21 18  1  0  0  0  0
 22 18  2  0  0  0  0
 23  3  1  0  0  0  0
 24 23  1  0  0  0  0
 25 28  2  6  0  0  0
 25 26  1  0  0  0  0
 25 24  1  0  0  0  0
 27 25  1  0  0  0  0
M  END
>  <MODEL>
5

>  <REMARK>
 VINA RESULT:      -6.5      2.539      5.786
  Name = 
  6 active torsions:
  status: ('A' for Active; 'I' for Inactive)
    1  A    between atoms: N_2  and  C_24
    2  A    between atoms: O_3  and  P_6
    3  A    between atoms: O_3  and  C_17
    4  A    between atoms: C_4  and  C_9
    5  A    between atoms: C_8  and  C_9
    6  A    between atoms: C_12  and  C_17
                            x       y       z     vdW  Elec       q    Type
                         _______ _______ _______ _____ _____    ______ ____

>  <TORSDO>
F 6

$$$$
=
 OpenBabel11042418243D

 28 30  0  0  1  0  0  0  0  0999 V2000
  188.9690  176.7880  143.0850 C   0  0  0  0  0  0  0  0  0  0  0  0
  186.2150  176.3380  142.7620 C   0  0  0  0  0  3  0  0  0  0  0  0
  186.6680  177.5450  143.2960 C   0  0  0  0  0  0  0  0  0  0  0  0
  187.1310  175.3530  142.3870 C   0  0  0  0  0  3  0  0  0  0  0  0
  188.0370  177.7650  143.4570 C   0  0  0  0  0  3  0  0  0  0  0  0
  188.5090  175.5600  142.5480 C   0  0  0  0  0  0  0  0  0  0  0  0
  189.4150  174.5220  142.1580 N   0  0  0  0  0  0  0  0  0  0  0  0
  189.2620  172.1820  142.8000 C   0  0  0  0  0  2  0  0  0  0  0  0
  189.6010  171.8210  141.4230 N   0  0  0  0  0  2  0  0  0  0  0  0
  188.9760  172.7830  140.5140 C   0  0  0  0  0  2  0  0  0  0  0  0
  189.8640  173.5440  143.1430 C   0  0  0  0  0  2  0  0  0  0  0  0
  189.5600  174.1750  140.7470 C   0  0  0  0  0  2  0  0  0  0  0  0
  190.4220  177.1420  143.2430 C   0  0  1  0  0  3  0  0  0  0  0  0
  190.6640  178.4850  142.9420 O   0  0  0  0  0  1  0  0  0  0  0  0
  193.2110  176.4170  145.7220 C   0  0  0  0  0  3  0  0  0  0  0  0
  191.0010  176.7240  144.5680 C   0  0  0  0  0  0  0  0  0  0  0  0
  190.1280  176.3290  145.5810 C   0  0  0  0  0  3  0  0  0  0  0  0
  191.6080  175.7110  147.5210 C   0  0  0  0  0  0  0  0  0  0  0  0
  192.3870  176.7530  144.6580 C   0  0  0  0  0  3  0  0  0  0  0  0
  192.8640  175.9570  146.9830 C   0  0  0  0  0  3  0  0  0  0  0  0
  190.3940  175.8880  146.8690 C   0  0  0  0  0  3  0  0  0  0  0  0
  191.5660  175.2910  148.7060 O   0  0  0  0  0  0  0  0  0  0  0  0
  185.6920  178.5840  143.7230 C   0  0  0  0  0  2  0  0  0  0  0  0
  186.1500  179.2120  144.8820 O   0  0  0  0  0  0  0  0  0  0  0  0
  185.1310  178.6640  146.1220 P   0  0  1  0  0  0  0  0  0  0  0  0
  183.7030  179.0220  145.7820 O   0  0  0  0  0  0  0  0  0  0  0  0
  185.2640  176.9240  146.2800 N   0  0  0  0  0  1  0  0  0  0  0  0
  185.5550  179.3990  147.5860 O   0  0  0  0  0  1  0  0  0  0  0  0
  1 13  1  0  0  0  0
  1  5  1  0  0  0  0
  2  3  1  0  0  0  0
  3  5  2  0  0  0  0
  3 23  1  0  0  0  0
  4  6  1  0  0  0  0
  4  2  2  0  0  0  0
  6  1  2  0  0  0  0
  7  6  1  0  0  0  0
  7 11  1  0  0  0  0
  8 11  1  0  0  0  0
  9  8  1  0  0  0  0
 10 12  1  0  0  0  0
 10  9  1  0  0  0  0
 12  7  1  0  0  0  0
 13 14  1  1  0  0  0
 13 16  1  0  0  0  0
 15 20  2  0  0  0  0
 16 19  2  0  0  0  0
 16 17  1  0  0  0  0
 17 21  2  0  0  0  0
 18 22  2  0  0  0  0
 19 15  1  0  0  0  0
 20 18  1  0  0  0  0
 21 18  1  0  0  0  0
 23 24  1  0  0  0  0
 24 25  1  0  0  0  0
 25 26  2  6  0  0  0
 25 27  1  0  0  0  0
 25 28  1  0  0  0  0
M  END
>  <MODEL>
6

>  <REMARK>
 VINA RESULT:      -6.4      3.563      6.618
  Name = 
  6 active torsions:
  status: ('A' for Active; 'I' for Inactive)
    1  A    between atoms: N_2  and  C_24
    2  A    between atoms: O_3  and  P_6
    3  A    between atoms: O_3  and  C_17
    4  A    between atoms: C_4  and  C_9
    5  A    between atoms: C_8  and  C_9
    6  A    between atoms: C_12  and  C_17
                            x       y       z     vdW  Elec       q    Type
                         _______ _______ _______ _____ _____    ______ ____

>  <TORSDO>
F 6

$$$$
=
 OpenBabel11042418243D

 28 30  0  0  1  0  0  0  0  0999 V2000
  189.1410  176.0980  143.0890 C   0  0  0  0  0  0  0  0  0  0  0  0
  189.8450  173.3910  142.8340 C   0  0  0  0  0  3  0  0  0  0  0  0
  189.3210  174.0830  141.7410 C   0  0  0  0  0  0  0  0  0  0  0  0
  190.0200  174.0440  144.0540 C   0  0  0  0  0  3  0  0  0  0  0  0
  188.9700  175.4280  141.8710 C   0  0  0  0  0  3  0  0  0  0  0  0
  189.6680  175.3950  144.2000 C   0  0  0  0  0  0  0  0  0  0  0  0
  189.8560  176.0260  145.4710 N   0  0  0  0  0  0  0  0  0  0  0  0
  189.7970  174.9190  147.6350 C   0  0  0  0  0  2  0  0  0  0  0  0
  190.9650  175.7080  148.0290 N   0  0  0  0  0  2  0  0  0  0  0  0
  191.8420  175.8670  146.8680 C   0  0  0  0  0  2  0  0  0  0  0  0
  188.9850  175.6800  146.5890 C   0  0  0  0  0  2  0  0  0  0  0  0
  191.1290  176.6710  145.7820 C   0  0  0  0  0  2  0  0  0  0  0  0
  188.7880  177.5600  143.1130 C   0  0  1  0  0  3  0  0  0  0  0  0
  189.3120  178.2370  142.0080 O   0  0  0  0  0  1  0  0  0  0  0  0
  185.6340  178.1370  145.1540 C   0  0  0  0  0  3  0  0  0  0  0  0
  187.3200  177.8200  143.3190 C   0  0  1  0  0  3  0  0  0  0  0  0
  186.4970  177.9200  142.1980 C   0  0  0  0  0  3  0  0  0  0  0  0
  184.1850  178.3100  143.1110 C   0  0  0  0  0  0  0  0  0  0  0  0
  186.9040  177.9210  144.6410 C   0  0  0  0  0  3  0  0  0  0  0  0
  184.4360  178.3080  144.4770 C   0  0  0  0  0  2  0  0  0  0  0  0
  185.1290  178.1340  142.1080 C   0  0  0  0  0  3  0  0  0  0  0  0
  182.9930  178.4880  142.7500 O   0  0  0  0  0  0  0  0  0  0  0  0
  189.1070  173.3800  140.4480 C   0  0  0  0  0  2  0  0  0  0  0  0
  190.0700  173.7900  139.5230 O   0  0  0  0  0  0  0  0  0  0  0  0
  189.3820  173.5010  138.0010 P   0  0  1  0  0  0  0  0  0  0  0  0
  190.2560  174.1230  136.9370 O   0  0  0  0  0  0  0  0  0  0  0  0
  189.2700  171.7760  137.7140 N   0  0  0  0  0  1  0  0  0  0  0  0
  187.8380  174.1880  137.9240 O   0  0  0  0  0  1  0  0  0  0  0  0
  1 13  1  0  0  0  0
  1  6  1  0  0  0  0
  2  4  1  0  0  0  0
  3  5  1  0  0  0  0
  3  2  2  0  0  0  0
  4  6  2  0  0  0  0
  5  1  2  0  0  0  0
  6  7  1  0  0  0  0
  7 12  1  0  0  0  0
  7 11  1  0  0  0  0
  8  9  1  0  0  0  0
 10  9  1  0  0  0  0
 11  8  1  0  0  0  0
 12 10  1  0  0  0  0
 13 14  1  6  0  0  0
 16 13  1  1  0  0  0
 16 19  1  0  0  0  0
 17 16  1  0  0  0  0
 18 20  1  0  0  0  0
 19 15  2  0  0  0  0
 20 15  1  0  0  0  0
 21 17  2  0  0  0  0
 21 18  1  0  0  0  0
 22 18  2  0  0  0  0
 23  3  1  0  0  0  0
 24 23  1  0  0  0  0
 25 26  2  6  0  0  0
 25 24  1  0  0  0  0
 27 25  1  0  0  0  0
 28 25  1  0  0  0  0
M  END
>  <MODEL>
7

>  <REMARK>
 VINA RESULT:      -6.2      1.579      2.056
  Name = 
  6 active torsions:
  status: ('A' for Active; 'I' for Inactive)
    1  A    between atoms: N_2  and  C_24
    2  A    between atoms: O_3  and  P_6
    3  A    between atoms: O_3  and  C_17
    4  A    between atoms: C_4  and  C_9
    5  A    between atoms: C_8  and  C_9
    6  A    between atoms: C_12  and  C_17
                            x       y       z     vdW  Elec       q    Type
                         _______ _______ _______ _____ _____    ______ ____

>  <TORSDO>
F 6

$$$$
=
 OpenBabel11042418243D

 28 30  0  0  1  0  0  0  0  0999 V2000
  188.4160  176.8680  143.3770 C   0  0  0  0  0  0  0  0  0  0  0  0
  189.9010  177.6190  145.6390 C   0  0  0  0  0  3  0  0  0  0  0  0
  190.5560  177.2160  144.4750 C   0  0  0  0  0  0  0  0  0  0  0  0
  188.5070  177.6510  145.6800 C   0  0  0  0  0  3  0  0  0  0  0  0
  189.8150  176.8410  143.3530 C   0  0  0  0  0  3  0  0  0  0  0  0
  187.7500  177.2730  144.5610 C   0  0  0  0  0  0  0  0  0  0  0  0
  186.3210  177.3120  144.6460 N   0  0  0  0  0  0  0  0  0  0  0  0
  185.0240  177.6690  146.6710 C   0  0  0  0  0  2  0  0  0  0  0  0
  184.1490  178.5610  145.9080 N   0  0  0  0  0  2  0  0  0  0  0  0
  184.9590  179.3050  144.9420 C   0  0  0  0  0  2  0  0  0  0  0  0
  185.6410  176.6270  145.7400 C   0  0  0  0  0  2  0  0  0  0  0  0
  185.5770  178.3440  143.9290 C   0  0  0  0  0  2  0  0  0  0  0  0
  187.7080  176.5030  142.1010 C   0  0  1  0  0  3  0  0  0  0  0  0
  187.7860  177.5280  141.1540 O   0  0  0  0  0  1  0  0  0  0  0  0
  188.8040  172.8690  142.3090 C   0  0  0  0  0  3  0  0  0  0  0  0
  188.1170  175.1630  141.5500 C   0  0  0  0  0  0  0  0  0  0  0  0
  188.2060  175.0100  140.1670 C   0  0  0  0  0  3  0  0  0  0  0  0
  188.9530  172.6340  139.8140 C   0  0  0  0  0  0  0  0  0  0  0  0
  188.3930  174.1810  142.4930 C   0  0  0  0  0  3  0  0  0  0  0  0
  189.0500  172.1890  141.1260 C   0  0  0  0  0  3  0  0  0  0  0  0
  188.5700  173.9060  139.4100 C   0  0  0  0  0  3  0  0  0  0  0  0
  189.2380  171.8080  138.9090 O   0  0  0  0  0  0  0  0  0  0  0  0
  192.0420  177.1540  144.4400 C   0  0  0  0  0  2  0  0  0  0  0  0
  192.5200  176.6080  145.6330 O   0  0  0  0  0  0  0  0  0  0  0  0
  194.2030  176.5230  145.4450 P   0  0  1  0  0  0  0  0  0  0  0  0
  194.7560  175.4950  146.4050 O   0  0  0  0  0  1  0  0  0  0  0  0
  194.5990  176.0490  143.8060 N   0  0  0  0  0  1  0  0  0  0  0  0
  194.8980  178.0290  145.7830 O   0  0  0  0  0  0  0  0  0  0  0  0
  1  6  1  0  0  0  0
  2  4  1  0  0  0  0
  3  2  2  0  0  0  0
  5  1  2  0  0  0  0
  5  3  1  0  0  0  0
  6  7  1  0  0  0  0
  6  4  2  0  0  0  0
  7 11  1  0  0  0  0
  9  8  1  0  0  0  0
 10  9  1  0  0  0  0
 11  8  1  0  0  0  0
 12  7  1  0  0  0  0
 12 10  1  0  0  0  0
 13 14  1  6  0  0  0
 13  1  1  0  0  0  0
 15 19  1  0  0  0  0
 16 13  1  0  0  0  0
 16 19  2  0  0  0  0
 17 16  1  0  0  0  0
 18 20  1  0  0  0  0
 20 15  2  0  0  0  0
 21 18  1  0  0  0  0
 21 17  2  0  0  0  0
 22 18  2  0  0  0  0
 23  3  1  0  0  0  0
 23 24  1  0  0  0  0
 25 27  1  6  0  0  0
 25 24  1  0  0  0  0
 25 28  2  0  0  0  0
 25 26  1  0  0  0  0
M  END
>  <MODEL>
8

>  <REMARK>
 VINA RESULT:      -6.2      3.462      6.792
  Name = 
  6 active torsions:
  status: ('A' for Active; 'I' for Inactive)
    1  A    between atoms: N_2  and  C_24
    2  A    between atoms: O_3  and  P_6
    3  A    between atoms: O_3  and  C_17
    4  A    between atoms: C_4  and  C_9
    5  A    between atoms: C_8  and  C_9
    6  A    between atoms: C_12  and  C_17
                            x       y       z     vdW  Elec       q    Type
                         _______ _______ _______ _____ _____    ______ ____

>  <TORSDO>
F 6

$$$$
=
 OpenBabel11042418243D

 28 30  0  0  1  0  0  0  0  0999 V2000
  189.6470  175.3920  145.7240 C   0  0  0  0  0  0  0  0  0  0  0  0
  188.7540  177.6410  147.1490 C   0  0  0  0  0  3  0  0  0  0  0  0
  187.8450  176.6610  146.7500 C   0  0  0  0  0  0  0  0  0  0  0  0
  190.1080  177.5050  146.8410 C   0  0  0  0  0  3  0  0  0  0  0  0
  188.2910  175.5450  146.0400 C   0  0  0  0  0  3  0  0  0  0  0  0
  190.5700  176.3900  146.1240 C   0  0  0  0  0  0  0  0  0  0  0  0
  191.9650  176.2920  145.8220 N   0  0  0  0  0  0  0  0  0  0  0  0
  193.2700  174.2410  145.7640 C   0  0  0  0  0  2  0  0  0  0  0  0
  193.9130  174.7290  144.5430 N   0  0  0  0  0  2  0  0  0  0  0  0
  192.9250  175.4580  143.7470 C   0  0  0  0  0  2  0  0  0  0  0  0
  192.8220  175.4230  146.6220 C   0  0  0  0  0  2  0  0  0  0  0  0
  192.4550  176.6970  144.5070 C   0  0  0  0  0  2  0  0  0  0  0  0
  190.0380  174.1280  145.0080 C   0  0  1  0  0  3  0  0  0  0  0  0
  189.7550  172.9920  145.7710 O   0  0  0  0  0  1  0  0  0  0  0  0
  188.8070  172.3520  141.8810 C   0  0  0  0  0  3  0  0  0  0  0  0
  189.5000  174.0430  143.6040 C   0  0  0  0  0  0  0  0  0  0  0  0
  189.2880  175.2260  142.8990 C   0  0  0  0  0  3  0  0  0  0  0  0
  188.4380  174.5050  140.6430 C   0  0  0  0  0  0  0  0  0  0  0  0
  189.2750  172.7600  143.1210 C   0  0  0  0  0  3  0  0  0  0  0  0
  188.4380  173.1240  140.7900 C   0  0  0  0  0  3  0  0  0  0  0  0
  188.8240  175.4270  141.6070 C   0  0  0  0  0  3  0  0  0  0  0  0
  188.0530  174.9610  139.5360 O   0  0  0  0  0  0  0  0  0  0  0  0
  186.3970  176.8190  147.0520 C   0  0  0  0  0  2  0  0  0  0  0  0
  185.6890  177.0320  145.8680 O   0  0  0  0  0  0  0  0  0  0  0  0
  185.2270  178.6630  145.9070 P   0  0  1  0  0  0  0  0  0  0  0  0
  183.7330  178.7580  145.7000 O   0  0  0  0  0  1  0  0  0  0  0  0
  185.6360  179.3620  147.4600 N   0  0  0  0  0  1  0  0  0  0  0  0
  186.0140  179.5170  144.6770 O   0  0  0  0  0  0  0  0  0  0  0  0
  1  5  2  0  0  0  0
  1  6  1  0  0  0  0
  3 23  1  0  0  0  0
  3  2  2  0  0  0  0
  4  2  1  0  0  0  0
  5  3  1  0  0  0  0
  6  4  2  0  0  0  0
  7  6  1  0  0  0  0
  7 11  1  0  0  0  0
  8 11  1  0  0  0  0
  9  8  1  0  0  0  0
 10 12  1  0  0  0  0
 10  9  1  0  0  0  0
 12  7  1  0  0  0  0
 13  1  1  0  0  0  0
 13 14  1  1  0  0  0
 15 19  1  0  0  0  0
 16 13  1  0  0  0  0
 17 16  1  0  0  0  0
 18 20  1  0  0  0  0
 18 21  1  0  0  0  0
 19 16  2  0  0  0  0
 20 15  2  0  0  0  0
 21 17  2  0  0  0  0
 22 18  2  0  0  0  0
 24 25  1  0  0  0  0
 24 23  1  0  0  0  0
 25 28  2  6  0  0  0
 25 27  1  0  0  0  0
 26 25  1  0  0  0  0
M  END
>  <MODEL>
9

>  <REMARK>
 VINA RESULT:      -6.2      3.318      6.260
  Name = 
  6 active torsions:
  status: ('A' for Active; 'I' for Inactive)
    1  A    between atoms: N_2  and  C_24
    2  A    between atoms: O_3  and  P_6
    3  A    between atoms: O_3  and  C_17
    4  A    between atoms: C_4  and  C_9
    5  A    between atoms: C_8  and  C_9
    6  A    between atoms: C_12  and  C_17
                            x       y       z     vdW  Elec       q    Type
                         _______ _______ _______ _____ _____    ______ ____

>  <TORSDO>
F 6

$$$$
