=
 OpenBabel11042419233D

 42 45  0  0  1  0  0  0  0  0999 V2000
  188.9530  176.5160  145.5530 C   0  0  1  0  0  3  0  0  0  0  0  0
  185.8980  178.6300  144.6840 C   0  0  0  0  0  3  0  0  0  0  0  0
  187.5750  177.1120  145.5690 C   0  0  0  0  0  0  0  0  0  0  0  0
  187.1850  178.0870  144.6370 C   0  0  0  0  0  3  0  0  0  0  0  0
  184.9960  178.2060  145.6640 C   0  0  0  0  0  0  0  0  0  0  0  0
  183.7160  178.7430  145.7090 O   0  0  0  0  0  1  0  0  0  0  0  0
  186.6690  176.6980  146.5520 C   0  0  0  0  0  3  0  0  0  0  0  0
  185.3820  177.2410  146.5970 C   0  0  0  0  0  3  0  0  0  0  0  0
  191.4460  176.6370  148.2460 O   0  0  0  0  0  0  0  0  0  0  0  0
  189.5730  176.5200  146.8760 N   0  0  0  0  0  2  0  0  0  0  0  0
  190.9860  176.6200  147.0760 C   0  0  0  0  0  0  0  0  0  0  0  0
  191.9270  176.6680  145.9200 C   0  0  0  0  0  2  0  0  0  0  0  0
  193.2370  176.1640  146.3290 N   0  0  0  0  0  2  0  0  0  0  0  0
  193.8110  175.2740  145.3110 C   0  0  0  0  0  0  0  0  0  0  0  0
  193.0550  175.5030  144.0120 C   0  0  0  0  0  1  0  0  0  0  0  0
  193.5980  173.8170  145.7110 C   0  0  0  0  0  1  0  0  0  0  0  0
  197.4340  174.4570  144.0280 C   0  0  0  0  0  2  0  0  0  0  0  0
  197.1220  175.8470  143.5210 C   0  0  0  0  0  2  0  0  0  0  0  0
  195.6410  176.0520  143.7120 C   0  0  0  0  0  2  0  0  0  0  0  0
  196.3930  174.1290  145.4830 S   0  0  0  0  0  0  0  0  0  0  0  0
  195.3160  175.5630  145.1130 C   0  0  2  0  0  3  0  0  0  0  0  0
  189.5560  175.7580  142.7660 N   0  0  0  0  0  2  0  0  0  0  0  0
  189.2320  174.8390  143.6180 C   0  0  0  0  0  0  0  0  0  0  0  0
  188.9480  175.1700  144.9840 N   0  0  0  0  0  2  0  0  0  0  0  0
  190.6930  173.0410  142.7840 C   0  0  2  0  0  3  0  0  0  0  0  0
  189.2780  173.4050  143.2020 C   0  0  2  0  0  3  0  0  0  0  0  0
  189.6350  173.2910  141.7320 C   0  0  0  0  0  2  0  0  0  0  0  0
  191.5710  170.9740  141.7200 C   0  0  2  0  0  3  0  0  0  0  0  0
  192.6800  170.1410  142.2710 C   0  0  0  0  0  2  0  0  0  0  0  0
  191.6970  171.2930  144.0890 O   0  0  0  0  0  0  0  0  0  0  0  0
  190.9020  171.5460  142.9520 C   0  0  1  0  0  3  0  0  0  0  0  0
  192.9080  170.7500  143.6300 C   0  0  1  0  0  3  0  0  0  0  0  0
  193.4010  169.6960  144.6050 C   0  0  0  0  0  2  0  0  0  0  0  0
  194.2370  170.2950  145.5850 O   0  0  0  0  0  0  0  0  0  0  0  0
  196.3090  169.5570  146.2900 O   0  0  0  0  0  0  0  0  0  0  0  0
  195.0550  169.5330  146.4180 C   0  0  0  0  0  0  0  0  0  0  0  0
  194.4820  168.7400  147.4020 O   0  0  0  0  0  1  0  0  0  0  0  0
  190.6700  170.1640  141.0230 O   0  0  0  0  0  0  0  0  0  0  0  0
  189.6450  170.1680  138.4440 O   0  0  0  0  0  0  0  0  0  0  0  0
  192.2190  169.2700  138.8980 O   0  0  0  0  0  1  0  0  0  0  0  0
  191.0380  170.3820  139.3810 P   0  0  0  0  0  0  0  0  0  0  0  0
  191.5650  171.7840  139.1740 O   0  0  0  0  0  1  0  0  0  0  0  0
  1 24  1  1  0  0  0
  1  3  1  0  0  0  0
  1 10  1  0  0  0  0
  2  5  1  0  0  0  0
  3  7  2  0  0  0  0
  4  2  2  0  0  0  0
  4  3  1  0  0  0  0
  5  6  1  0  0  0  0
  5  8  2  0  0  0  0
  7  8  1  0  0  0  0
 10 11  1  0  0  0  0
 11  9  2  0  0  0  0
 12 13  1  0  0  0  0
 12 11  1  0  0  0  0
 14 16  1  0  0  0  0
 14 13  1  0  0  0  0
 15 14  1  0  0  0  0
 17 20  1  0  0  0  0
 18 19  1  0  0  0  0
 18 17  1  0  0  0  0
 19 21  1  0  0  0  0
 21 14  1  6  0  0  0
 21 20  1  0  0  0  0
 22 23  2  0  0  0  0
 23 24  1  0  0  0  0
 25 27  1  6  0  0  0
 25 31  1  0  0  0  0
 25 26  1  0  0  0  0
 26 23  1  6  0  0  0
 27 26  1  0  0  0  0
 28 38  1  1  0  0  0
 28 29  1  0  0  0  0
 28 31  1  0  0  0  0
 29 32  1  0  0  0  0
 31 30  1  1  0  0  0
 32 30  1  0  0  0  0
 32 33  1  1  0  0  0
 33 34  1  0  0  0  0
 34 36  1  0  0  0  0
 35 36  2  0  0  0  0
 36 37  1  0  0  0  0
 39 41  2  0  0  0  0
 40 41  1  0  0  0  0
 41 38  1  0  0  0  0
 42 41  1  0  0  0  0
M  END
>  <MODEL>
1

>  <REMARK>
 VINA RESULT:      -6.5      0.000      0.000
  Name = 
  14 active torsions:
  status: ('A' for Active; 'I' for Inactive)
    1  A    between atoms: C_1  and  N_12
    2  A    between atoms: C_1  and  C_13
    3  A    between atoms: C_1  and  N_39
    4  A    between atoms: C_4  and  N_28
    5  A    between atoms: C_4  and  C_37
    6  A    between atoms: C_5  and  C_17
    7  A    between atoms: C_6  and  O_27
    8  A    between atoms: C_11  and  C_25
    9  A    between atoms: C_11  and  N_28
   10  A    between atoms: O_19  and  C_20
   11  A    between atoms: O_19  and  C_31
   12  A    between atoms: C_20  and  C_23
   13  A    between atoms: C_24  and  C_32
   14  A    between atoms: O_27  and  P_33
                            x       y       z     vdW  Elec       q    Type
                         _______ _______ _______ _____ _____    ______ ____

>  <TORSDO>
F 14

$$$$
=
 OpenBabel11042419233D

 42 45  0  0  1  0  0  0  0  0999 V2000
  188.8910  176.5170  145.4460 C   0  0  1  0  0  3  0  0  0  0  0  0
  185.8460  178.7170  144.7800 C   0  0  0  0  0  3  0  0  0  0  0  0
  187.5260  177.1350  145.5370 C   0  0  0  0  0  0  0  0  0  0  0  0
  187.1200  178.1540  144.6620 C   0  0  0  0  0  3  0  0  0  0  0  0
  184.9730  178.2660  145.7740 C   0  0  0  0  0  0  0  0  0  0  0  0
  183.7060  178.8230  145.8900 O   0  0  0  0  0  1  0  0  0  0  0  0
  186.6490  176.6940  146.5350 C   0  0  0  0  0  3  0  0  0  0  0  0
  185.3740  177.2560  146.6510 C   0  0  0  0  0  3  0  0  0  0  0  0
  191.4220  176.2980  148.0970 O   0  0  0  0  0  0  0  0  0  0  0  0
  189.5280  176.3830  146.7530 N   0  0  0  0  0  2  0  0  0  0  0  0
  190.9470  176.3980  146.9370 C   0  0  0  0  0  0  0  0  0  0  0  0
  191.8730  176.4940  145.7720 C   0  0  0  0  0  2  0  0  0  0  0  0
  193.2540  176.3320  146.2270 N   0  0  0  0  0  2  0  0  0  0  0  0
  193.9450  175.2760  145.4760 C   0  0  0  0  0  0  0  0  0  0  0  0
  193.1070  174.0100  145.5720 C   0  0  0  0  0  1  0  0  0  0  0  0
  195.2970  174.9770  146.1180 C   0  0  0  0  0  1  0  0  0  0  0  0
  195.7690  175.2400  141.9950 C   0  0  0  0  0  2  0  0  0  0  0  0
  194.3200  174.9210  141.7030 C   0  0  0  0  0  2  0  0  0  0  0  0
  193.6750  174.6050  143.0280 C   0  0  0  0  0  2  0  0  0  0  0  0
  195.8520  176.1420  143.5730 S   0  0  0  0  0  0  0  0  0  0  0  0
  194.1310  175.6830  143.9960 C   0  0  2  0  0  3  0  0  0  0  0  0
  189.1680  176.0480  142.5460 N   0  0  0  0  0  2  0  0  0  0  0  0
  188.9760  175.0410  143.3350 C   0  0  0  0  0  0  0  0  0  0  0  0
  188.8520  175.2310  144.7520 N   0  0  0  0  0  2  0  0  0  0  0  0
  190.3970  173.3530  142.2440 C   0  0  2  0  0  3  0  0  0  0  0  0
  189.0080  173.6550  142.7790 C   0  0  2  0  0  3  0  0  0  0  0  0
  189.2750  173.6900  141.2860 C   0  0  0  0  0  2  0  0  0  0  0  0
  191.3690  171.4350  140.9980 C   0  0  2  0  0  3  0  0  0  0  0  0
  192.4670  170.5620  141.5060 C   0  0  0  0  0  2  0  0  0  0  0  0
  191.3720  171.4830  143.3910 O   0  0  0  0  0  0  0  0  0  0  0  0
  190.6280  171.8530  142.2510 C   0  0  1  0  0  3  0  0  0  0  0  0
  192.6150  171.0140  142.9360 C   0  0  1  0  0  3  0  0  0  0  0  0
  193.0810  169.8620  143.8080 C   0  0  0  0  0  2  0  0  0  0  0  0
  194.4840  169.9480  144.0160 O   0  0  0  0  0  0  0  0  0  0  0  0
  194.8910  171.0380  146.0110 O   0  0  0  0  0  1  0  0  0  0  0  0
  195.0540  170.9780  144.7630 C   0  0  0  0  0  0  0  0  0  0  0  0
  195.8150  171.9470  144.1230 O   0  0  0  0  0  0  0  0  0  0  0  0
  190.5200  170.6980  140.1680 O   0  0  0  0  0  0  0  0  0  0  0  0
  192.0130  170.2280  137.8760 O   0  0  0  0  0  1  0  0  0  0  0  0
  191.4210  172.8220  138.6220 O   0  0  0  0  0  1  0  0  0  0  0  0
  190.8510  171.2290  138.5900 P   0  0  0  0  0  0  0  0  0  0  0  0
  189.5800  171.1750  137.7740 O   0  0  0  0  0  0  0  0  0  0  0  0
  1 24  1  1  0  0  0
  1  3  1  0  0  0  0
  1 10  1  0  0  0  0
  2  5  1  0  0  0  0
  3  7  2  0  0  0  0
  4  2  2  0  0  0  0
  4  3  1  0  0  0  0
  5  6  1  0  0  0  0
  5  8  2  0  0  0  0
  7  8  1  0  0  0  0
 10 11  1  0  0  0  0
 11  9  2  0  0  0  0
 12 13  1  0  0  0  0
 12 11  1  0  0  0  0
 14 15  1  0  0  0  0
 14 16  1  0  0  0  0
 14 13  1  0  0  0  0
 17 20  1  0  0  0  0
 18 17  1  0  0  0  0
 18 19  1  0  0  0  0
 19 21  1  0  0  0  0
 20 21  1  0  0  0  0
 21 14  1  1  0  0  0
 22 23  2  0  0  0  0
 23 24  1  0  0  0  0
 25 27  1  6  0  0  0
 25 31  1  0  0  0  0
 25 26  1  0  0  0  0
 26 23  1  1  0  0  0
 27 26  1  0  0  0  0
 28 38  1  6  0  0  0
 28 29  1  0  0  0  0
 28 31  1  0  0  0  0
 29 32  1  0  0  0  0
 31 30  1  1  0  0  0
 32 30  1  0  0  0  0
 32 33  1  1  0  0  0
 33 34  1  0  0  0  0
 34 36  1  0  0  0  0
 36 35  1  0  0  0  0
 37 36  2  0  0  0  0
 39 41  1  0  0  0  0
 41 40  1  0  0  0  0
 41 38  1  0  0  0  0
 42 41  2  0  0  0  0
M  END
>  <MODEL>
2

>  <REMARK>
 VINA RESULT:      -6.4      1.164      1.653
  Name = 
  14 active torsions:
  status: ('A' for Active; 'I' for Inactive)
    1  A    between atoms: C_1  and  N_12
    2  A    between atoms: C_1  and  C_13
    3  A    between atoms: C_1  and  N_39
    4  A    between atoms: C_4  and  N_28
    5  A    between atoms: C_4  and  C_37
    6  A    between atoms: C_5  and  C_17
    7  A    between atoms: C_6  and  O_27
    8  A    between atoms: C_11  and  C_25
    9  A    between atoms: C_11  and  N_28
   10  A    between atoms: O_19  and  C_20
   11  A    between atoms: O_19  and  C_31
   12  A    between atoms: C_20  and  C_23
   13  A    between atoms: C_24  and  C_32
   14  A    between atoms: O_27  and  P_33
                            x       y       z     vdW  Elec       q    Type
                         _______ _______ _______ _____ _____    ______ ____

>  <TORSDO>
F 14

$$$$
=
 OpenBabel11042419233D

 42 45  0  0  1  0  0  0  0  0999 V2000
  188.7040  176.4540  145.2560 C   0  0  1  0  0  3  0  0  0  0  0  0
  185.1680  177.2530  146.4460 C   0  0  0  0  0  3  0  0  0  0  0  0
  187.3610  177.1060  145.4110 C   0  0  0  0  0  0  0  0  0  0  0  0
  186.4150  176.6300  146.3330 C   0  0  0  0  0  3  0  0  0  0  0  0
  184.8590  178.3510  145.6380 C   0  0  0  0  0  0  0  0  0  0  0  0
  183.6220  178.9710  145.7530 O   0  0  0  0  0  1  0  0  0  0  0  0
  187.0410  178.2010  144.6000 C   0  0  0  0  0  3  0  0  0  0  0  0
  185.7950  178.8240  144.7150 C   0  0  0  0  0  3  0  0  0  0  0  0
  191.1720  175.9560  147.9290 O   0  0  0  0  0  0  0  0  0  0  0  0
  189.3150  176.1310  146.5420 N   0  0  0  0  0  2  0  0  0  0  0  0
  190.7210  176.2330  146.7880 C   0  0  0  0  0  0  0  0  0  0  0  0
  191.6650  176.6280  145.7040 C   0  0  0  0  0  2  0  0  0  0  0  0
  192.8210  175.7320  145.7070 N   0  0  0  0  0  2  0  0  0  0  0  0
  193.3780  175.5710  144.3580 C   0  0  0  0  0  0  0  0  0  0  0  0
  192.5590  176.4320  143.4090 C   0  0  0  0  0  1  0  0  0  0  0  0
  193.2300  174.1220  143.9000 C   0  0  0  0  0  1  0  0  0  0  0  0
  197.2320  174.9440  143.9120 C   0  0  0  0  0  2  0  0  0  0  0  0
  196.8970  176.1080  143.0060 C   0  0  0  0  0  2  0  0  0  0  0  0
  195.3940  176.1550  142.9060 C   0  0  0  0  0  2  0  0  0  0  0  0
  195.9760  174.8580  145.2240 S   0  0  0  0  0  0  0  0  0  0  0  0
  194.8640  175.9970  144.3210 C   0  0  2  0  0  3  0  0  0  0  0  0
  189.0150  176.3490  142.3240 N   0  0  0  0  0  2  0  0  0  0  0  0
  188.7720  175.2570  142.9750 C   0  0  0  0  0  0  0  0  0  0  0  0
  188.6300  175.2700  144.4030 N   0  0  0  0  0  2  0  0  0  0  0  0
  190.1790  173.5920  141.8320 C   0  0  2  0  0  3  0  0  0  0  0  0
  188.7630  173.9540  142.2460 C   0  0  2  0  0  3  0  0  0  0  0  0
  189.2120  174.1480  140.8100 C   0  0  0  0  0  2  0  0  0  0  0  0
  191.0960  171.7600  140.4260 C   0  0  2  0  0  3  0  0  0  0  0  0
  192.0750  170.7370  140.8970 C   0  0  0  0  0  2  0  0  0  0  0  0
  190.9040  171.5170  142.8000 O   0  0  0  0  0  0  0  0  0  0  0  0
  190.2890  172.0870  141.6650 C   0  0  1  0  0  3  0  0  0  0  0  0
  192.1400  170.9980  142.3790 C   0  0  1  0  0  3  0  0  0  0  0  0
  192.4390  169.7130  143.1300 C   0  0  0  0  0  2  0  0  0  0  0  0
  193.6710  169.8340  143.8260 O   0  0  0  0  0  0  0  0  0  0  0  0
  193.3420  168.1760  145.4010 O   0  0  0  0  0  0  0  0  0  0  0  0
  193.8540  169.2870  145.0960 C   0  0  0  0  0  0  0  0  0  0  0  0
  194.6130  169.9730  146.0340 O   0  0  0  0  0  1  0  0  0  0  0  0
  190.2630  171.2060  139.4490 O   0  0  0  0  0  0  0  0  0  0  0  0
  189.4020  172.2350  137.0200 O   0  0  0  0  0  0  0  0  0  0  0  0
  191.7910  170.8530  137.1570 O   0  0  0  0  0  1  0  0  0  0  0  0
  190.7540  171.9050  137.9830 P   0  0  0  0  0  0  0  0  0  0  0  0
  191.4860  173.1960  138.2710 O   0  0  0  0  0  1  0  0  0  0  0  0
  1 24  1  6  0  0  0
  1  3  1  0  0  0  0
  1 10  1  0  0  0  0
  3  4  2  0  0  0  0
  4  2  1  0  0  0  0
  5  6  1  0  0  0  0
  5  2  2  0  0  0  0
  7  8  2  0  0  0  0
  7  3  1  0  0  0  0
  8  5  1  0  0  0  0
 10 11  1  0  0  0  0
 11  9  2  0  0  0  0
 12 13  1  0  0  0  0
 12 11  1  0  0  0  0
 14 13  1  0  0  0  0
 15 14  1  0  0  0  0
 16 14  1  0  0  0  0
 17 20  1  0  0  0  0
 18 17  1  0  0  0  0
 19 18  1  0  0  0  0
 19 21  1  0  0  0  0
 21 14  1  6  0  0  0
 21 20  1  0  0  0  0
 22 23  2  0  0  0  0
 23 24  1  0  0  0  0
 25 27  1  6  0  0  0
 25 26  1  0  0  0  0
 26 23  1  1  0  0  0
 27 26  1  0  0  0  0
 28 38  1  6  0  0  0
 28 29  1  0  0  0  0
 28 31  1  0  0  0  0
 29 32  1  0  0  0  0
 31 25  1  0  0  0  0
 31 30  1  1  0  0  0
 32 30  1  0  0  0  0
 32 33  1  1  0  0  0
 33 34  1  0  0  0  0
 34 36  1  0  0  0  0
 36 35  2  0  0  0  0
 36 37  1  0  0  0  0
 39 41  2  0  0  0  0
 40 41  1  0  0  0  0
 41 42  1  0  0  0  0
 41 38  1  0  0  0  0
M  END
>  <MODEL>
3

>  <REMARK>
 VINA RESULT:      -6.3      1.148      1.559
  Name = 
  14 active torsions:
  status: ('A' for Active; 'I' for Inactive)
    1  A    between atoms: C_1  and  N_12
    2  A    between atoms: C_1  and  C_13
    3  A    between atoms: C_1  and  N_39
    4  A    between atoms: C_4  and  N_28
    5  A    between atoms: C_4  and  C_37
    6  A    between atoms: C_5  and  C_17
    7  A    between atoms: C_6  and  O_27
    8  A    between atoms: C_11  and  C_25
    9  A    between atoms: C_11  and  N_28
   10  A    between atoms: O_19  and  C_20
   11  A    between atoms: O_19  and  C_31
   12  A    between atoms: C_20  and  C_23
   13  A    between atoms: C_24  and  C_32
   14  A    between atoms: O_27  and  P_33
                            x       y       z     vdW  Elec       q    Type
                         _______ _______ _______ _____ _____    ______ ____

>  <TORSDO>
F 14

$$$$
=
 OpenBabel11042419233D

 42 45  0  0  1  0  0  0  0  0999 V2000
  187.4740  177.2670  142.8520 C   0  0  1  0  0  3  0  0  0  0  0  0
  185.5730  179.2210  145.5210 C   0  0  0  0  0  3  0  0  0  0  0  0
  186.6710  177.6090  144.0730 C   0  0  0  0  0  0  0  0  0  0  0  0
  186.3120  178.9340  144.3700 C   0  0  0  0  0  3  0  0  0  0  0  0
  185.1910  178.1890  146.3820 C   0  0  0  0  0  0  0  0  0  0  0  0
  184.4540  178.4740  147.5240 O   0  0  0  0  0  1  0  0  0  0  0  0
  186.2910  176.5820  144.9440 C   0  0  0  0  0  3  0  0  0  0  0  0
  185.5500  176.8700  146.0940 C   0  0  0  0  0  3  0  0  0  0  0  0
  190.9190  178.3600  143.4980 O   0  0  0  0  0  0  0  0  0  0  0  0
  188.7340  178.0030  142.7920 N   0  0  0  0  0  2  0  0  0  0  0  0
  189.8590  177.6940  143.6200 C   0  0  0  0  0  0  0  0  0  0  0  0
  189.7850  176.6190  144.6510 C   0  0  0  0  0  2  0  0  0  0  0  0
  190.2140  177.1480  145.9450 N   0  0  0  0  0  2  0  0  0  0  0  0
  191.0310  176.1720  146.6790 C   0  0  0  0  0  0  0  0  0  0  0  0
  190.1480  174.9800  147.0110 C   0  0  0  0  0  1  0  0  0  0  0  0
  191.5020  176.7730  148.0000 C   0  0  0  0  0  1  0  0  0  0  0  0
  194.8650  175.7330  145.9330 C   0  0  0  0  0  2  0  0  0  0  0  0
  194.2500  174.3650  145.7450 C   0  0  0  0  0  2  0  0  0  0  0  0
  192.8660  174.4310  146.3360 C   0  0  0  0  0  2  0  0  0  0  0  0
  193.5630  176.9840  145.7090 S   0  0  0  0  0  0  0  0  0  0  0  0
  192.2430  175.7210  145.8310 C   0  0  2  0  0  3  0  0  0  0  0  0
  187.8320  175.6910  140.3830 N   0  0  0  0  0  2  0  0  0  0  0  0
  187.8620  175.0900  141.5290 C   0  0  0  0  0  0  0  0  0  0  0  0
  187.7070  175.8270  142.7490 N   0  0  0  0  0  2  0  0  0  0  0  0
  189.6590  173.4270  141.2750 C   0  0  2  0  0  3  0  0  0  0  0  0
  188.1870  173.6330  141.5860 C   0  0  2  0  0  3  0  0  0  0  0  0
  188.6160  173.1330  140.2190 C   0  0  0  0  0  2  0  0  0  0  0  0
  191.0790  171.4120  140.9600 C   0  0  2  0  0  3  0  0  0  0  0  0
  192.2360  171.0440  141.8290 C   0  0  0  0  0  2  0  0  0  0  0  0
  190.7810  172.3870  143.1260 O   0  0  0  0  0  0  0  0  0  0  0  0
  190.1320  172.1270  141.9000 C   0  0  1  0  0  3  0  0  0  0  0  0
  192.1310  172.0370  142.9570 C   0  0  1  0  0  3  0  0  0  0  0  0
  192.6690  171.4350  144.2420 C   0  0  0  0  0  2  0  0  0  0  0  0
  192.7030  170.0180  144.1380 O   0  0  0  0  0  0  0  0  0  0  0  0
  193.8960  168.8100  145.7040 O   0  0  0  0  0  1  0  0  0  0  0  0
  193.8150  169.2780  144.5360 C   0  0  0  0  0  0  0  0  0  0  0  0
  194.8460  169.0520  143.6340 O   0  0  0  0  0  0  0  0  0  0  0  0
  190.4730  170.2560  140.4620 O   0  0  0  0  0  0  0  0  0  0  0  0
  189.5390  169.7270  137.9030 O   0  0  0  0  0  0  0  0  0  0  0  0
  192.1460  169.0990  138.5710 O   0  0  0  0  0  1  0  0  0  0  0  0
  190.8820  170.1990  138.8160 P   0  0  0  0  0  0  0  0  0  0  0  0
  191.3290  171.5720  138.3700 O   0  0  0  0  0  1  0  0  0  0  0  0
  1 24  1  1  0  0  0
  1  3  1  0  0  0  0
  2  5  1  0  0  0  0
  3  4  1  0  0  0  0
  3  7  2  0  0  0  0
  4  2  2  0  0  0  0
  5  6  1  0  0  0  0
  7  8  1  0  0  0  0
  8  5  2  0  0  0  0
  9 11  2  0  0  0  0
 10  1  1  0  0  0  0
 10 11  1  0  0  0  0
 11 12  1  0  0  0  0
 12 13  1  0  0  0  0
 13 14  1  0  0  0  0
 14 15  1  0  0  0  0
 14 16  1  0  0  0  0
 18 17  1  0  0  0  0
 18 19  1  0  0  0  0
 20 21  1  0  0  0  0
 20 17  1  0  0  0  0
 21 19  1  0  0  0  0
 21 14  1  1  0  0  0
 22 23  2  0  0  0  0
 23 24  1  0  0  0  0
 25 27  1  6  0  0  0
 25 26  1  0  0  0  0
 25 31  1  0  0  0  0
 26 23  1  6  0  0  0
 27 26  1  0  0  0  0
 28 38  1  1  0  0  0
 28 29  1  0  0  0  0
 28 31  1  0  0  0  0
 29 32  1  0  0  0  0
 31 30  1  1  0  0  0
 32 30  1  0  0  0  0
 32 33  1  1  0  0  0
 34 33  1  0  0  0  0
 34 36  1  0  0  0  0
 36 35  1  0  0  0  0
 37 36  2  0  0  0  0
 39 41  2  0  0  0  0
 40 41  1  0  0  0  0
 41 38  1  0  0  0  0
 42 41  1  0  0  0  0
M  END
>  <MODEL>
4

>  <REMARK>
 VINA RESULT:      -6.3      1.885      2.656
  Name = 
  14 active torsions:
  status: ('A' for Active; 'I' for Inactive)
    1  A    between atoms: C_1  and  N_12
    2  A    between atoms: C_1  and  C_13
    3  A    between atoms: C_1  and  N_39
    4  A    between atoms: C_4  and  N_28
    5  A    between atoms: C_4  and  C_37
    6  A    between atoms: C_5  and  C_17
    7  A    between atoms: C_6  and  O_27
    8  A    between atoms: C_11  and  C_25
    9  A    between atoms: C_11  and  N_28
   10  A    between atoms: O_19  and  C_20
   11  A    between atoms: O_19  and  C_31
   12  A    between atoms: C_20  and  C_23
   13  A    between atoms: C_24  and  C_32
   14  A    between atoms: O_27  and  P_33
                            x       y       z     vdW  Elec       q    Type
                         _______ _______ _______ _____ _____    ______ ____

>  <TORSDO>
F 14

$$$$
=
 OpenBabel11042419233D

 42 45  0  0  1  0  0  0  0  0999 V2000
  192.9350  175.5910  143.6640 C   0  0  1  0  0  3  0  0  0  0  0  0
  193.5150  174.2950  140.1220 C   0  0  0  0  0  3  0  0  0  0  0  0
  193.4780  175.4200  142.2750 C   0  0  0  0  0  0  0  0  0  0  0  0
  192.9810  174.4360  141.4070 C   0  0  0  0  0  3  0  0  0  0  0  0
  194.5500  175.1340  139.7000 C   0  0  0  0  0  0  0  0  0  0  0  0
  195.0780  174.9970  138.4240 O   0  0  0  0  0  1  0  0  0  0  0  0
  194.5200  176.2520  141.8480 C   0  0  0  0  0  3  0  0  0  0  0  0
  195.0520  176.1110  140.5630 C   0  0  0  0  0  3  0  0  0  0  0  0
  194.8140  177.8710  145.8440 O   0  0  0  0  0  0  0  0  0  0  0  0
  193.4350  176.8020  144.3090 N   0  0  0  0  0  2  0  0  0  0  0  0
  194.4170  176.7850  145.3500 C   0  0  0  0  0  0  0  0  0  0  0  0
  194.9520  175.4990  145.8840 C   0  0  0  0  0  2  0  0  0  0  0  0
  196.1870  175.1510  145.1830 N   0  0  0  0  0  2  0  0  0  0  0  0
  196.4280  173.7020  145.2100 C   0  0  0  0  0  0  0  0  0  0  0  0
  195.0770  173.0060  145.2610 C   0  0  0  0  0  1  0  0  0  0  0  0
  197.1850  173.3210  146.4800 C   0  0  0  0  0  1  0  0  0  0  0  0
  196.8010  172.7300  141.4200 C   0  0  0  0  0  2  0  0  0  0  0  0
  197.8580  173.7800  141.6820 C   0  0  0  0  0  2  0  0  0  0  0  0
  197.5270  174.4000  143.0150 C   0  0  0  0  0  2  0  0  0  0  0  0
  196.3790  171.9350  143.0010 S   0  0  0  0  0  0  0  0  0  0  0  0
  197.2160  173.2510  143.9590 C   0  0  2  0  0  3  0  0  0  0  0  0
  191.1980  174.2230  145.6180 N   0  0  0  0  0  2  0  0  0  0  0  0
  190.6600  174.8710  144.6350 C   0  0  0  0  0  0  0  0  0  0  0  0
  191.4740  175.5600  143.6760 N   0  0  0  0  0  2  0  0  0  0  0  0
  188.8060  176.4500  144.2760 C   0  0  2  0  0  3  0  0  0  0  0  0
  189.1740  175.0060  144.5720 C   0  0  2  0  0  3  0  0  0  0  0  0
  188.6770  175.9110  145.6840 C   0  0  0  0  0  2  0  0  0  0  0  0
  186.6090  177.6090  144.2350 C   0  0  2  0  0  3  0  0  0  0  0  0
  186.0530  178.3350  143.0550 C   0  0  0  0  0  2  0  0  0  0  0  0
  187.5710  176.7150  142.2340 O   0  0  0  0  0  0  0  0  0  0  0  0
  187.4370  176.5000  143.6220 C   0  0  1  0  0  3  0  0  0  0  0  0
  187.0260  177.9810  141.9610 C   0  0  1  0  0  3  0  0  0  0  0  0
  186.3240  177.9580  140.6160 C   0  0  0  0  0  2  0  0  0  0  0  0
  185.1240  178.7170  140.6820 O   0  0  0  0  0  0  0  0  0  0  0  0
  183.4510  177.4910  139.6650 O   0  0  0  0  0  0  0  0  0  0  0  0
  183.8700  178.1090  140.6810 C   0  0  0  0  0  0  0  0  0  0  0  0
  183.0720  178.1820  141.8150 O   0  0  0  0  0  1  0  0  0  0  0  0
  185.5670  177.0630  144.9900 O   0  0  0  0  0  0  0  0  0  0  0  0
  186.1250  177.3400  147.6940 O   0  0  0  0  0  1  0  0  0  0  0  0
  183.7720  178.3610  146.6650 O   0  0  0  0  0  1  0  0  0  0  0  0
  185.4090  178.0700  146.3460 P   0  0  0  0  0  0  0  0  0  0  0  0
  186.1000  179.3860  146.0680 O   0  0  0  0  0  0  0  0  0  0  0  0
  1 24  1  6  0  0  0
  1 10  1  0  0  0  0
  2  4  1  0  0  0  0
  3  1  1  0  0  0  0
  4  3  2  0  0  0  0
  5  2  2  0  0  0  0
  5  8  1  0  0  0  0
  6  5  1  0  0  0  0
  7  3  1  0  0  0  0
  8  7  2  0  0  0  0
 10 11  1  0  0  0  0
 11  9  2  0  0  0  0
 11 12  1  0  0  0  0
 13 14  1  0  0  0  0
 13 12  1  0  0  0  0
 14 15  1  0  0  0  0
 14 16  1  0  0  0  0
 17 18  1  0  0  0  0
 17 20  1  0  0  0  0
 18 19  1  0  0  0  0
 19 21  1  0  0  0  0
 20 21  1  0  0  0  0
 21 14  1  1  0  0  0
 23 22  2  0  0  0  0
 24 23  1  0  0  0  0
 25 26  1  0  0  0  0
 25 27  1  1  0  0  0
 26 23  1  1  0  0  0
 26 27  1  0  0  0  0
 28 38  1  1  0  0  0
 29 28  1  0  0  0  0
 31 30  1  6  0  0  0
 31 28  1  0  0  0  0
 31 25  1  0  0  0  0
 32 33  1  6  0  0  0
 32 30  1  0  0  0  0
 32 29  1  0  0  0  0
 33 34  1  0  0  0  0
 35 36  2  0  0  0  0
 36 34  1  0  0  0  0
 36 37  1  0  0  0  0
 38 41  1  0  0  0  0
 41 40  1  0  0  0  0
 41 39  1  0  0  0  0
 42 41  2  0  0  0  0
M  END
>  <MODEL>
5

>  <REMARK>
 VINA RESULT:      -6.1      4.334      8.669
  Name = 
  14 active torsions:
  status: ('A' for Active; 'I' for Inactive)
    1  A    between atoms: C_1  and  N_12
    2  A    between atoms: C_1  and  C_13
    3  A    between atoms: C_1  and  N_39
    4  A    between atoms: C_4  and  N_28
    5  A    between atoms: C_4  and  C_37
    6  A    between atoms: C_5  and  C_17
    7  A    between atoms: C_6  and  O_27
    8  A    between atoms: C_11  and  C_25
    9  A    between atoms: C_11  and  N_28
   10  A    between atoms: O_19  and  C_20
   11  A    between atoms: O_19  and  C_31
   12  A    between atoms: C_20  and  C_23
   13  A    between atoms: C_24  and  C_32
   14  A    between atoms: O_27  and  P_33
                            x       y       z     vdW  Elec       q    Type
                         _______ _______ _______ _____ _____    ______ ____

>  <TORSDO>
F 14

$$$$
=
 OpenBabel11042419233D

 42 45  0  0  1  0  0  0  0  0999 V2000
  188.3750  176.2410  143.9320 C   0  0  1  0  0  3  0  0  0  0  0  0
  186.6230  177.2010  147.1820 C   0  0  0  0  0  3  0  0  0  0  0  0
  187.5170  176.9520  144.9370 C   0  0  0  0  0  0  0  0  0  0  0  0
  187.4400  176.5240  146.2720 C   0  0  0  0  0  3  0  0  0  0  0  0
  185.8770  178.3070  146.7630 C   0  0  0  0  0  0  0  0  0  0  0  0
  185.0680  178.9820  147.6680 O   0  0  0  0  0  1  0  0  0  0  0  0
  186.7610  178.0550  144.5230 C   0  0  0  0  0  3  0  0  0  0  0  0
  185.9460  178.7330  145.4350 C   0  0  0  0  0  3  0  0  0  0  0  0
  187.6120  176.0080  140.3480 O   0  0  0  0  0  0  0  0  0  0  0  0
  188.0270  176.5940  142.5580 N   0  0  0  0  0  2  0  0  0  0  0  0
  187.9380  175.6320  141.5030 C   0  0  0  0  0  0  0  0  0  0  0  0
  188.2600  174.1950  141.7400 C   0  0  0  0  0  2  0  0  0  0  0  0
  188.9870  173.6570  140.5910 N   0  0  0  0  0  2  0  0  0  0  0  0
  190.2670  173.0630  140.9970 C   0  0  0  0  0  0  0  0  0  0  0  0
  190.0430  172.3210  142.3050 C   0  0  0  0  0  1  0  0  0  0  0  0
  191.2920  174.1610  141.2660 C   0  0  0  0  0  1  0  0  0  0  0  0
  191.9010  172.1630  137.5370 C   0  0  0  0  0  2  0  0  0  0  0  0
  192.6900  171.3980  138.5760 C   0  0  0  0  0  2  0  0  0  0  0  0
  192.3060  171.9720  139.9160 C   0  0  0  0  0  2  0  0  0  0  0  0
  190.2540  172.5240  138.2190 S   0  0  0  0  0  0  0  0  0  0  0  0
  190.7920  172.0920  139.9140 C   0  0  2  0  0  3  0  0  0  0  0  0
  190.1930  174.5600  145.5360 N   0  0  0  0  0  2  0  0  0  0  0  0
  190.6490  175.6370  144.9820 C   0  0  0  0  0  0  0  0  0  0  0  0
  189.7970  176.4690  144.1830 N   0  0  0  0  0  2  0  0  0  0  0  0
  192.8930  174.9620  144.2280 C   0  0  2  0  0  3  0  0  0  0  0  0
  192.1070  175.9490  145.0740 C   0  0  2  0  0  3  0  0  0  0  0  0
  192.8530  174.8040  145.7320 C   0  0  0  0  0  2  0  0  0  0  0  0
  195.3140  174.5480  143.8520 C   0  0  2  0  0  3  0  0  0  0  0  0
  196.0110  174.7210  142.5440 C   0  0  0  0  0  2  0  0  0  0  0  0
  194.1090  176.1280  142.5170 O   0  0  0  0  0  0  0  0  0  0  0  0
  194.2140  175.5870  143.8160 C   0  0  1  0  0  3  0  0  0  0  0  0
  194.9560  175.3730  141.6890 C   0  0  1  0  0  3  0  0  0  0  0  0
  195.6000  176.2760  140.6530 C   0  0  0  0  0  2  0  0  0  0  0  0
  196.0640  175.5020  139.5560 O   0  0  0  0  0  0  0  0  0  0  0  0
  194.1350  175.3560  138.2930 O   0  0  0  0  0  0  0  0  0  0  0  0
  195.1860  174.8090  138.7220 C   0  0  0  0  0  0  0  0  0  0  0  0
  195.4770  173.5010  138.3580 O   0  0  0  0  0  1  0  0  0  0  0  0
  196.1950  174.8240  144.9000 O   0  0  0  0  0  0  0  0  0  0  0  0
  197.9410  172.7010  144.5150 O   0  0  0  0  0  0  0  0  0  0  0  0
  195.3960  172.2290  145.4830 O   0  0  0  0  0  1  0  0  0  0  0  0
  196.6970  173.3120  145.4850 P   0  0  0  0  0  0  0  0  0  0  0  0
  197.2030  173.4730  146.9000 O   0  0  0  0  0  1  0  0  0  0  0  0
  1 10  1  6  0  0  0
  1 24  1  0  0  0  0
  1  3  1  0  0  0  0
  3  4  1  0  0  0  0
  4  2  2  0  0  0  0
  5  2  1  0  0  0  0
  5  6  1  0  0  0  0
  7  3  2  0  0  0  0
  7  8  1  0  0  0  0
  8  5  2  0  0  0  0
  9 11  2  0  0  0  0
 11 12  1  0  0  0  0
 11 10  1  0  0  0  0
 13 14  1  0  0  0  0
 13 12  1  0  0  0  0
 14 16  1  0  0  0  0
 14 15  1  0  0  0  0
 17 20  1  0  0  0  0
 17 18  1  0  0  0  0
 18 19  1  0  0  0  0
 20 21  1  0  0  0  0
 21 19  1  0  0  0  0
 21 14  1  1  0  0  0
 23 22  2  0  0  0  0
 24 23  1  0  0  0  0
 25 26  1  0  0  0  0
 25 27  1  1  0  0  0
 26 23  1  6  0  0  0
 26 27  1  0  0  0  0
 28 38  1  1  0  0  0
 29 28  1  0  0  0  0
 31 30  1  6  0  0  0
 31 28  1  0  0  0  0
 31 25  1  0  0  0  0
 32 33  1  6  0  0  0
 32 30  1  0  0  0  0
 32 29  1  0  0  0  0
 34 33  1  0  0  0  0
 35 36  2  0  0  0  0
 36 34  1  0  0  0  0
 37 36  1  0  0  0  0
 38 41  1  0  0  0  0
 39 41  2  0  0  0  0
 40 41  1  0  0  0  0
 41 42  1  0  0  0  0
M  END
>  <MODEL>
6

>  <REMARK>
 VINA RESULT:      -6.1      3.569      6.464
  Name = 
  14 active torsions:
  status: ('A' for Active; 'I' for Inactive)
    1  A    between atoms: C_1  and  N_12
    2  A    between atoms: C_1  and  C_13
    3  A    between atoms: C_1  and  N_39
    4  A    between atoms: C_4  and  N_28
    5  A    between atoms: C_4  and  C_37
    6  A    between atoms: C_5  and  C_17
    7  A    between atoms: C_6  and  O_27
    8  A    between atoms: C_11  and  C_25
    9  A    between atoms: C_11  and  N_28
   10  A    between atoms: O_19  and  C_20
   11  A    between atoms: O_19  and  C_31
   12  A    between atoms: C_20  and  C_23
   13  A    between atoms: C_24  and  C_32
   14  A    between atoms: O_27  and  P_33
                            x       y       z     vdW  Elec       q    Type
                         _______ _______ _______ _____ _____    ______ ____

>  <TORSDO>
F 14

$$$$
=
 OpenBabel11042419233D

 42 45  0  0  1  0  0  0  0  0999 V2000
  194.1720  175.2730  145.2790 C   0  0  1  0  0  3  0  0  0  0  0  0
  196.9580  172.7140  145.7830 C   0  0  0  0  0  3  0  0  0  0  0  0
  194.9060  173.9790  145.4800 C   0  0  0  0  0  0  0  0  0  0  0  0
  196.3030  173.9370  145.6080 C   0  0  0  0  0  3  0  0  0  0  0  0
  196.2210  171.5270  145.8280 C   0  0  0  0  0  0  0  0  0  0  0  0
  196.8700  170.3130  146.0050 O   0  0  0  0  0  1  0  0  0  0  0  0
  194.1750  172.7850  145.5180 C   0  0  0  0  0  3  0  0  0  0  0  0
  194.8310  171.5630  145.6950 C   0  0  0  0  0  3  0  0  0  0  0  0
  195.2930  176.5280  142.0160 O   0  0  0  0  0  0  0  0  0  0  0  0
  194.7820  176.1010  144.2420 N   0  0  0  0  0  2  0  0  0  0  0  0
  194.7640  175.7540  142.8540 C   0  0  0  0  0  0  0  0  0  0  0  0
  194.1590  174.4730  142.3880 C   0  0  0  0  0  2  0  0  0  0  0  0
  193.1140  174.7510  141.4050 N   0  0  0  0  0  2  0  0  0  0  0  0
  192.1270  173.6640  141.3490 C   0  0  0  0  0  0  0  0  0  0  0  0
  190.8140  174.1980  141.8990 C   0  0  0  0  0  1  0  0  0  0  0  0
  192.5650  172.5140  142.2520 C   0  0  0  0  0  1  0  0  0  0  0  0
  190.5830  173.7870  137.7370 C   0  0  0  0  0  2  0  0  0  0  0  0
  192.0810  173.7180  137.5420 C   0  0  0  0  0  2  0  0  0  0  0  0
  192.7030  174.0010  138.8850 C   0  0  0  0  0  2  0  0  0  0  0  0
  190.1850  173.0950  139.3720 S   0  0  0  0  0  0  0  0  0  0  0  0
  191.9370  173.1660  139.8980 C   0  0  2  0  0  3  0  0  0  0  0  0
  191.9100  175.6410  147.1370 N   0  0  0  0  0  2  0  0  0  0  0  0
  191.6800  175.2240  145.9330 C   0  0  0  0  0  0  0  0  0  0  0  0
  192.7550  175.0490  145.0000 N   0  0  0  0  0  2  0  0  0  0  0  0
  189.5500  176.3800  145.5060 C   0  0  2  0  0  3  0  0  0  0  0  0
  190.2710  175.0430  145.4750 C   0  0  2  0  0  3  0  0  0  0  0  0
  189.3030  175.3640  146.5990 C   0  0  0  0  0  2  0  0  0  0  0  0
  187.3310  177.3460  144.9410 C   0  0  2  0  0  3  0  0  0  0  0  0
  187.0270  178.1000  143.6900 C   0  0  0  0  0  2  0  0  0  0  0  0
  188.8600  176.6780  143.2250 O   0  0  0  0  0  0  0  0  0  0  0  0
  188.3960  176.3570  144.5180 C   0  0  1  0  0  3  0  0  0  0  0  0
  188.2790  177.9070  142.8740 C   0  0  1  0  0  3  0  0  0  0  0  0
  187.9500  177.9160  141.3920 C   0  0  0  0  0  2  0  0  0  0  0  0
  186.7060  177.2680  141.1670 O   0  0  0  0  0  0  0  0  0  0  0  0
  186.2750  177.1540  138.9010 O   0  0  0  0  0  0  0  0  0  0  0  0
  185.9250  177.5460  140.0470 C   0  0  0  0  0  0  0  0  0  0  0  0
  184.7450  178.2620  140.1960 O   0  0  0  0  0  1  0  0  0  0  0  0
  186.1910  176.6620  145.3720 O   0  0  0  0  0  0  0  0  0  0  0  0
  186.2360  179.1310  146.6390 O   0  0  0  0  0  1  0  0  0  0  0  0
  185.9400  176.8250  148.1330 O   0  0  0  0  0  1  0  0  0  0  0  0
  185.5710  177.5750  146.6610 P   0  0  0  0  0  0  0  0  0  0  0  0
  184.0700  177.6740  146.5200 O   0  0  0  0  0  0  0  0  0  0  0  0
  1 10  1  6  0  0  0
  1  3  1  0  0  0  0
  2  5  1  0  0  0  0
  3  7  2  0  0  0  0
  3  4  1  0  0  0  0
  4  2  2  0  0  0  0
  5  6  1  0  0  0  0
  7  8  1  0  0  0  0
  8  5  2  0  0  0  0
  9 11  2  0  0  0  0
 11 10  1  0  0  0  0
 12 11  1  0  0  0  0
 13 12  1  0  0  0  0
 14 13  1  0  0  0  0
 14 15  1  0  0  0  0
 14 16  1  0  0  0  0
 17 20  1  0  0  0  0
 18 17  1  0  0  0  0
 18 19  1  0  0  0  0
 19 21  1  0  0  0  0
 20 21  1  0  0  0  0
 21 14  1  1  0  0  0
 23 22  2  0  0  0  0
 24  1  1  0  0  0  0
 24 23  1  0  0  0  0
 25 27  1  1  0  0  0
 26 25  1  0  0  0  0
 26 23  1  1  0  0  0
 26 27  1  0  0  0  0
 28 38  1  6  0  0  0
 29 28  1  0  0  0  0
 31 30  1  6  0  0  0
 31 28  1  0  0  0  0
 31 25  1  0  0  0  0
 32 33  1  6  0  0  0
 32 30  1  0  0  0  0
 32 29  1  0  0  0  0
 34 33  1  0  0  0  0
 35 36  2  0  0  0  0
 36 37  1  0  0  0  0
 36 34  1  0  0  0  0
 38 41  1  0  0  0  0
 39 41  1  0  0  0  0
 41 40  1  0  0  0  0
 42 41  2  0  0  0  0
M  END
>  <MODEL>
7

>  <REMARK>
 VINA RESULT:      -6.1      3.922      9.100
  Name = 
  14 active torsions:
  status: ('A' for Active; 'I' for Inactive)
    1  A    between atoms: C_1  and  N_12
    2  A    between atoms: C_1  and  C_13
    3  A    between atoms: C_1  and  N_39
    4  A    between atoms: C_4  and  N_28
    5  A    between atoms: C_4  and  C_37
    6  A    between atoms: C_5  and  C_17
    7  A    between atoms: C_6  and  O_27
    8  A    between atoms: C_11  and  C_25
    9  A    between atoms: C_11  and  N_28
   10  A    between atoms: O_19  and  C_20
   11  A    between atoms: O_19  and  C_31
   12  A    between atoms: C_20  and  C_23
   13  A    between atoms: C_24  and  C_32
   14  A    between atoms: O_27  and  P_33
                            x       y       z     vdW  Elec       q    Type
                         _______ _______ _______ _____ _____    ______ ____

>  <TORSDO>
F 14

$$$$
=
 OpenBabel11042419233D

 42 45  0  0  1  0  0  0  0  0999 V2000
  192.7920  173.7020  140.5230 C   0  0  1  0  0  3  0  0  0  0  0  0
  193.8050  172.1610  137.1820 C   0  0  0  0  0  3  0  0  0  0  0  0
  192.7310  173.0660  139.1640 C   0  0  0  0  0  0  0  0  0  0  0  0
  193.8950  172.7430  138.4510 C   0  0  0  0  0  3  0  0  0  0  0  0
  192.5510  171.9030  136.6200 C   0  0  0  0  0  0  0  0  0  0  0  0
  192.4610  171.3230  135.3620 O   0  0  0  0  0  1  0  0  0  0  0  0
  191.4790  172.8120  138.5910 C   0  0  0  0  0  3  0  0  0  0  0  0
  191.3900  172.2290  137.3230 C   0  0  0  0  0  3  0  0  0  0  0  0
  195.2390  176.3220  141.3130 O   0  0  0  0  0  0  0  0  0  0  0  0
  193.5360  174.9580  140.5140 N   0  0  0  0  0  2  0  0  0  0  0  0
  194.6330  175.2230  141.3930 C   0  0  0  0  0  0  0  0  0  0  0  0
  195.0480  174.2320  142.4270 C   0  0  0  0  0  2  0  0  0  0  0  0
  195.8030  174.9080  143.4820 N   0  0  0  0  0  2  0  0  0  0  0  0
  195.7110  174.1830  144.7560 C   0  0  0  0  0  0  0  0  0  0  0  0
  197.1190  174.0340  145.3100 C   0  0  0  0  0  1  0  0  0  0  0  0
  195.1640  172.7780  144.5190 C   0  0  0  0  0  1  0  0  0  0  0  0
  192.7990  176.6220  145.7650 C   0  0  0  0  0  2  0  0  0  0  0  0
  192.5630  175.3510  146.5500 C   0  0  0  0  0  2  0  0  0  0  0  0
  193.4560  174.2990  145.9450 C   0  0  0  0  0  2  0  0  0  0  0  0
  194.5620  176.7050  145.3260 S   0  0  0  0  0  0  0  0  0  0  0  0
  194.8180  174.9460  145.7610 C   0  0  2  0  0  3  0  0  0  0  0  0
  191.7920  172.6990  143.1110 N   0  0  0  0  0  2  0  0  0  0  0  0
  190.9990  173.3760  142.3450 C   0  0  0  0  0  0  0  0  0  0  0  0
  191.4570  173.8910  141.0860 N   0  0  0  0  0  2  0  0  0  0  0  0
  189.5810  175.2090  143.1760 C   0  0  2  0  0  3  0  0  0  0  0  0
  189.6320  173.7310  142.8320 C   0  0  2  0  0  3  0  0  0  0  0  0
  189.6860  174.1790  144.2800 C   0  0  0  0  0  2  0  0  0  0  0  0
  187.9310  176.8580  144.0310 C   0  0  2  0  0  3  0  0  0  0  0  0
  187.2520  177.8910  143.1940 C   0  0  0  0  0  2  0  0  0  0  0  0
  187.8730  176.1180  141.7550 O   0  0  0  0  0  0  0  0  0  0  0  0
  188.1500  175.7040  143.0750 C   0  0  1  0  0  3  0  0  0  0  0  0
  187.6600  177.5050  141.7960 C   0  0  1  0  0  3  0  0  0  0  0  0
  186.5760  177.8880  140.8040 C   0  0  0  0  0  2  0  0  0  0  0  0
  185.5390  178.5960  141.4690 O   0  0  0  0  0  0  0  0  0  0  0  0
  183.7550  177.9580  140.1470 O   0  0  0  0  0  0  0  0  0  0  0  0
  184.1950  178.2730  141.2850 C   0  0  0  0  0  0  0  0  0  0  0  0
  183.3310  178.2950  142.3720 O   0  0  0  0  0  1  0  0  0  0  0  0
  187.0880  176.4610  145.0710 O   0  0  0  0  0  0  0  0  0  0  0  0
  189.3990  177.5650  146.1390 O   0  0  0  0  0  0  0  0  0  0  0  0
  188.2810  175.3240  147.3070 O   0  0  0  0  0  1  0  0  0  0  0  0
  187.9470  176.7740  146.5000 P   0  0  0  0  0  0  0  0  0  0  0  0
  187.1100  177.6570  147.3970 O   0  0  0  0  0  1  0  0  0  0  0  0
  1 10  1  6  0  0  0
  1 24  1  0  0  0  0
  2  4  1  0  0  0  0
  3  1  1  0  0  0  0
  4  3  2  0  0  0  0
  5  2  2  0  0  0  0
  5  8  1  0  0  0  0
  6  5  1  0  0  0  0
  7  3  1  0  0  0  0
  8  7  2  0  0  0  0
  9 11  2  0  0  0  0
 10 11  1  0  0  0  0
 11 12  1  0  0  0  0
 12 13  1  0  0  0  0
 13 14  1  0  0  0  0
 14 15  1  0  0  0  0
 16 14  1  0  0  0  0
 17 18  1  0  0  0  0
 19 18  1  0  0  0  0
 20 21  1  0  0  0  0
 20 17  1  0  0  0  0
 21 14  1  6  0  0  0
 21 19  1  0  0  0  0
 23 22  2  0  0  0  0
 24 23  1  0  0  0  0
 25 27  1  1  0  0  0
 26 23  1  6  0  0  0
 26 25  1  0  0  0  0
 26 27  1  0  0  0  0
 28 38  1  1  0  0  0
 29 28  1  0  0  0  0
 30 32  1  0  0  0  0
 31 30  1  6  0  0  0
 31 25  1  0  0  0  0
 31 28  1  0  0  0  0
 32 33  1  6  0  0  0
 32 29  1  0  0  0  0
 33 34  1  0  0  0  0
 35 36  2  0  0  0  0
 36 34  1  0  0  0  0
 36 37  1  0  0  0  0
 38 41  1  0  0  0  0
 39 41  2  0  0  0  0
 41 40  1  0  0  0  0
 41 42  1  0  0  0  0
M  END
>  <MODEL>
8

>  <REMARK>
 VINA RESULT:      -6.0      4.017      8.850
  Name = 
  14 active torsions:
  status: ('A' for Active; 'I' for Inactive)
    1  A    between atoms: C_1  and  N_12
    2  A    between atoms: C_1  and  C_13
    3  A    between atoms: C_1  and  N_39
    4  A    between atoms: C_4  and  N_28
    5  A    between atoms: C_4  and  C_37
    6  A    between atoms: C_5  and  C_17
    7  A    between atoms: C_6  and  O_27
    8  A    between atoms: C_11  and  C_25
    9  A    between atoms: C_11  and  N_28
   10  A    between atoms: O_19  and  C_20
   11  A    between atoms: O_19  and  C_31
   12  A    between atoms: C_20  and  C_23
   13  A    between atoms: C_24  and  C_32
   14  A    between atoms: O_27  and  P_33
                            x       y       z     vdW  Elec       q    Type
                         _______ _______ _______ _____ _____    ______ ____

>  <TORSDO>
F 14

$$$$
=
 OpenBabel11042419233D

 42 45  0  0  1  0  0  0  0  0999 V2000
  193.8530  175.5500  145.2660 C   0  0  1  0  0  3  0  0  0  0  0  0
  194.9880  171.9190  145.5620 C   0  0  0  0  0  3  0  0  0  0  0  0
  194.7110  174.3290  145.4280 C   0  0  0  0  0  0  0  0  0  0  0  0
  194.1640  173.0360  145.3980 C   0  0  0  0  0  3  0  0  0  0  0  0
  196.3620  172.0870  145.7590 C   0  0  0  0  0  0  0  0  0  0  0  0
  197.1810  170.9770  145.9180 O   0  0  0  0  0  1  0  0  0  0  0  0
  196.0860  174.4890  145.6330 C   0  0  0  0  0  3  0  0  0  0  0  0
  196.9100  173.3710  145.7950 C   0  0  0  0  0  3  0  0  0  0  0  0
  194.8580  176.7530  141.9460 O   0  0  0  0  0  0  0  0  0  0  0  0
  194.3120  176.4100  144.1790 N   0  0  0  0  0  2  0  0  0  0  0  0
  194.4780  175.9480  142.8350 C   0  0  0  0  0  0  0  0  0  0  0  0
  194.2420  174.5200  142.4760 C   0  0  0  0  0  2  0  0  0  0  0  0
  193.4050  174.4440  141.2800 N   0  0  0  0  0  2  0  0  0  0  0  0
  193.0860  173.0530  140.9360 C   0  0  0  0  0  0  0  0  0  0  0  0
  193.9580  172.1490  141.7940 C   0  0  0  0  0  1  0  0  0  0  0  0
  193.4420  172.7790  139.4770 C   0  0  0  0  0  1  0  0  0  0  0  0
  190.0710  170.8130  142.0960 C   0  0  0  0  0  2  0  0  0  0  0  0
  189.9070  172.1310  142.8190 C   0  0  0  0  0  2  0  0  0  0  0  0
  191.2060  172.8770  142.6540 C   0  0  0  0  0  2  0  0  0  0  0  0
  191.0650  171.1000  140.6000 S   0  0  0  0  0  0  0  0  0  0  0  0
  191.5910  172.7510  141.1900 C   0  0  2  0  0  3  0  0  0  0  0  0
  191.7220  175.6680  147.3040 N   0  0  0  0  0  2  0  0  0  0  0  0
  191.4370  175.2520  146.1110 C   0  0  0  0  0  0  0  0  0  0  0  0
  192.4460  175.1970  145.0920 N   0  0  0  0  0  2  0  0  0  0  0  0
  189.3210  176.2180  145.3070 C   0  0  2  0  0  3  0  0  0  0  0  0
  190.0180  174.9470  145.7600 C   0  0  2  0  0  3  0  0  0  0  0  0
  189.0720  175.6750  146.6970 C   0  0  0  0  0  2  0  0  0  0  0  0
  187.2120  177.0410  144.2830 C   0  0  2  0  0  3  0  0  0  0  0  0
  186.9690  177.1550  142.8150 C   0  0  0  0  0  2  0  0  0  0  0  0
  188.6250  175.4940  143.1260 O   0  0  0  0  0  0  0  0  0  0  0  0
  188.1530  175.8620  144.4040 C   0  0  1  0  0  3  0  0  0  0  0  0
  188.1760  176.4730  142.2250 C   0  0  1  0  0  3  0  0  0  0  0  0
  187.8230  175.8280  140.8980 C   0  0  0  0  0  2  0  0  0  0  0  0
  188.7880  174.8390  140.5670 O   0  0  0  0  0  0  0  0  0  0  0  0
  188.9060  173.9010  138.4600 O   0  0  0  0  0  0  0  0  0  0  0  0
  188.5140  173.8210  139.6550 C   0  0  0  0  0  0  0  0  0  0  0  0
  187.8020  172.7040  140.0700 O   0  0  0  0  0  1  0  0  0  0  0  0
  186.0120  176.7610  144.9420 O   0  0  0  0  0  0  0  0  0  0  0  0
  184.0980  178.0610  146.4750 O   0  0  0  0  0  1  0  0  0  0  0  0
  185.9040  179.5360  144.9920 O   0  0  0  0  0  0  0  0  0  0  0  0
  185.6880  178.1240  145.9000 P   0  0  0  0  0  0  0  0  0  0  0  0
  186.6410  178.1400  147.0730 O   0  0  0  0  0  1  0  0  0  0  0  0
  1 10  1  6  0  0  0
  1  3  1  0  0  0  0
  2  5  1  0  0  0  0
  3  7  2  0  0  0  0
  4  3  1  0  0  0  0
  4  2  2  0  0  0  0
  5  8  2  0  0  0  0
  5  6  1  0  0  0  0
  7  8  1  0  0  0  0
  9 11  2  0  0  0  0
 11 10  1  0  0  0  0
 12 11  1  0  0  0  0
 13 12  1  0  0  0  0
 14 13  1  0  0  0  0
 14 15  1  0  0  0  0
 16 14  1  0  0  0  0
 17 18  1  0  0  0  0
 19 18  1  0  0  0  0
 20 21  1  0  0  0  0
 20 17  1  0  0  0  0
 21 14  1  1  0  0  0
 21 19  1  0  0  0  0
 23 22  2  0  0  0  0
 24  1  1  0  0  0  0
 24 23  1  0  0  0  0
 25 26  1  0  0  0  0
 25 27  1  1  0  0  0
 26 23  1  1  0  0  0
 26 27  1  0  0  0  0
 28 31  1  0  0  0  0
 28 38  1  1  0  0  0
 29 28  1  0  0  0  0
 31 30  1  6  0  0  0
 31 25  1  0  0  0  0
 32 33  1  6  0  0  0
 32 29  1  0  0  0  0
 32 30  1  0  0  0  0
 34 33  1  0  0  0  0
 35 36  2  0  0  0  0
 36 37  1  0  0  0  0
 36 34  1  0  0  0  0
 38 41  1  0  0  0  0
 40 41  2  0  0  0  0
 41 39  1  0  0  0  0
 41 42  1  0  0  0  0
M  END
>  <MODEL>
9

>  <REMARK>
 VINA RESULT:      -6.0      3.367      8.461
  Name = 
  14 active torsions:
  status: ('A' for Active; 'I' for Inactive)
    1  A    between atoms: C_1  and  N_12
    2  A    between atoms: C_1  and  C_13
    3  A    between atoms: C_1  and  N_39
    4  A    between atoms: C_4  and  N_28
    5  A    between atoms: C_4  and  C_37
    6  A    between atoms: C_5  and  C_17
    7  A    between atoms: C_6  and  O_27
    8  A    between atoms: C_11  and  C_25
    9  A    between atoms: C_11  and  N_28
   10  A    between atoms: O_19  and  C_20
   11  A    between atoms: O_19  and  C_31
   12  A    between atoms: C_20  and  C_23
   13  A    between atoms: C_24  and  C_32
   14  A    between atoms: O_27  and  P_33
                            x       y       z     vdW  Elec       q    Type
                         _______ _______ _______ _____ _____    ______ ____

>  <TORSDO>
F 14

$$$$
