=
 OpenBabel11042416473D

 37 38  0  0  0  0  0  0  0  0999 V2000
  186.2430  177.6940  144.2180 C   0  0  0  0  0  3  0  0  0  0  0  0
  185.8210  177.0350  143.1290 C   0  0  0  0  0  0  0  0  0  0  0  0
  188.2440  177.0900  141.5090 O   0  0  0  0  0  0  0  0  0  0  0  0
  187.7630  175.9770  141.8550 C   0  0  0  0  0  0  0  0  0  0  0  0
  186.5600  175.9110  142.6340 N   0  0  0  0  0  2  0  0  0  0  0  0
  190.7810  170.1340  140.5610 C   0  0  0  0  0  1  0  0  0  0  0  0
  188.4110  174.7280  141.4330 C   0  0  0  0  0  0  0  0  0  0  0  0
  190.2260  171.3890  139.9820 C   0  0  0  0  0  0  0  0  0  0  0  0
  190.1010  171.6970  138.6230 C   0  0  0  0  0  3  0  0  0  0  0  0
  189.2390  173.3380  139.7420 C   0  0  0  0  0  0  0  0  0  0  0  0
  188.6170  174.4880  140.1000 N   0  0  0  0  0  0  0  0  0  0  0  0
  189.6610  172.4380  140.6640 C   0  0  0  0  0  0  0  0  0  0  0  0
  189.4990  172.9050  138.4990 N   0  0  0  0  0  0  0  0  0  0  0  0
  189.1230  173.5480  137.2540 C   0  0  0  0  0  1  0  0  0  0  0  0
  188.8540  173.7810  142.3950 C   0  0  0  0  0  3  0  0  0  0  0  0
  189.4780  172.6320  141.9920 N   0  0  0  0  0  0  0  0  0  0  0  0
  184.6760  177.5020  142.3990 N   0  0  0  0  0  2  0  0  0  0  0  0
  185.7540  178.4770  140.5620 O   0  0  0  0  0  0  0  0  0  0  0  0
  184.6780  178.0900  141.0940 C   0  0  0  0  0  0  0  0  0  0  0  0
  183.4630  178.2660  140.4320 O   0  0  0  0  0  0  0  0  0  0  0  0
  182.2250  178.2610  141.1240 C   0  0  0  0  0  1  0  0  0  0  0  0
  188.5320  177.8510  144.7490 O   0  0  0  0  0  0  0  0  0  0  0  0
  187.4100  177.3760  145.0690 C   0  0  0  0  0  0  0  0  0  0  0  0
  187.3100  176.5780  146.3300 C   0  0  0  0  0  2  0  0  0  0  0  0
  188.6900  176.3680  146.9370 C   0  0  0  0  0  2  0  0  0  0  0  0
  188.9920  174.8910  147.1140 C   0  0  0  0  0  2  0  0  0  0  0  0
  189.7660  174.3770  145.9150 C   0  0  0  0  0  2  0  0  0  0  0  0
  191.7600  175.5970  144.9810 C   0  0  0  0  0  0  0  0  0  0  0  0
  191.1480  174.8150  146.0090 N   0  0  0  0  0  2  0  0  0  0  0  0
  191.1180  175.9000  143.9400 O   0  0  0  0  0  0  0  0  0  0  0  0
  193.1600  176.0900  145.1470 C   0  0  0  0  0  2  0  0  0  0  0  0
  194.1130  175.1720  144.5270 N   0  0  0  0  0  0  0  0  0  0  0  0
  196.2050  174.5370  145.5800 N   0  0  0  0  0  1  0  0  0  0  0  0
  194.7530  174.3750  145.5800 C   0  0  0  0  0  2  0  0  0  0  0  0
  195.1270  175.9550  143.8300 C   0  0  0  0  0  2  0  0  0  0  0  0
  195.0720  175.6740  142.3380 C   0  0  0  0  0  2  0  0  0  0  0  0
  194.0710  176.4460  141.7410 O   0  0  0  0  0  1  0  0  0  0  0  0
  1 23  1  0  0  0  0
  2  1  2  0  0  0  0
  3  4  2  0  0  0  0
  4  5  1  0  0  0  0
  5  2  1  0  0  0  0
  7  4  1  0  0  0  0
  7 15  1  0  0  0  0
  8  6  1  0  0  0  0
  8 12  1  0  0  0  0
  9  8  2  0  0  0  0
 10 11  1  0  0  0  0
 10 12  2  0  0  0  0
 11  7  2  0  0  0  0
 12 16  1  0  0  0  0
 13  9  1  0  0  0  0
 13 10  1  0  0  0  0
 14 13  1  0  0  0  0
 16 15  2  0  0  0  0
 17  2  1  0  0  0  0
 18 19  2  0  0  0  0
 19 17  1  0  0  0  0
 20 19  1  0  0  0  0
 20 21  1  0  0  0  0
 22 23  2  0  0  0  0
 23 24  1  0  0  0  0
 24 25  1  0  0  0  0
 25 26  1  0  0  0  0
 27 29  1  0  0  0  0
 27 26  1  0  0  0  0
 28 31  1  0  0  0  0
 28 29  1  0  0  0  0
 30 28  2  0  0  0  0
 32 31  1  0  0  0  0
 32 34  1  0  0  0  0
 33 34  1  0  0  0  0
 35 32  1  0  0  0  0
 36 35  1  0  0  0  0
 37 36  1  0  0  0  0
M  END
>  <MODEL>
1

>  <REMARK>
 VINA RESULT:      -6.0      0.000      0.000
  Name = 
  15 active torsions:
  status: ('A' for Active; 'I' for Inactive)
    1  A    between atoms: C_2  and  C_15
    2  A    between atoms: C_2  and  C_22
    3  A    between atoms: N_3  and  C_12
    4  A    between atoms: N_3  and  C_29
    5  A    between atoms: N_3  and  C_30
    6  A    between atoms: C_4  and  C_22
    7  A    between atoms: C_6  and  C_29
    8  A    between atoms: C_7  and  N_10
    9  A    between atoms: C_7  and  N_36
   10  A    between atoms: C_8  and  C_16
   11  A    between atoms: N_9  and  C_26
   12  A    between atoms: C_12  and  C_24
   13  A    between atoms: C_15  and  C_33
   14  A    between atoms: C_26  and  C_33
   15  A    between atoms: O_32  and  C_37
                            x       y       z     vdW  Elec       q    Type
                         _______ _______ _______ _____ _____    ______ ____

>  <TORSDO>
F 15

$$$$
=
 OpenBabel11042416473D

 37 38  0  0  0  0  0  0  0  0999 V2000
  186.3080  177.6860  144.1360 C   0  0  0  0  0  3  0  0  0  0  0  0
  185.8800  177.0670  143.0260 C   0  0  0  0  0  0  0  0  0  0  0  0
  188.3970  177.1360  141.5590 O   0  0  0  0  0  0  0  0  0  0  0  0
  187.8560  176.0230  141.7950 C   0  0  0  0  0  0  0  0  0  0  0  0
  186.6060  175.9510  142.4960 N   0  0  0  0  0  2  0  0  0  0  0  0
  190.5030  170.5110  139.0500 C   0  0  0  0  0  1  0  0  0  0  0  0
  188.4830  174.7810  141.3230 C   0  0  0  0  0  0  0  0  0  0  0  0
  190.2500  171.2580  140.3130 C   0  0  0  0  0  0  0  0  0  0  0  0
  190.7080  170.9180  141.5900 C   0  0  0  0  0  3  0  0  0  0  0  0
  189.6460  172.7970  141.7610 C   0  0  0  0  0  0  0  0  0  0  0  0
  189.0960  173.9480  142.2210 N   0  0  0  0  0  0  0  0  0  0  0  0
  189.5940  172.4560  140.4490 C   0  0  0  0  0  0  0  0  0  0  0  0
  190.3170  171.8750  142.4680 N   0  0  0  0  0  0  0  0  0  0  0  0
  190.6530  171.9290  143.8780 C   0  0  0  0  0  1  0  0  0  0  0  0
  188.4330  174.4190  139.9500 C   0  0  0  0  0  3  0  0  0  0  0  0
  188.9990  173.2490  139.5260 N   0  0  0  0  0  0  0  0  0  0  0  0
  184.7410  177.5710  142.3110 N   0  0  0  0  0  2  0  0  0  0  0  0
  185.8190  178.4480  140.4260 O   0  0  0  0  0  0  0  0  0  0  0  0
  184.7400  178.1270  140.9910 C   0  0  0  0  0  0  0  0  0  0  0  0
  183.5190  178.3440  140.3530 O   0  0  0  0  0  0  0  0  0  0  0  0
  182.2810  178.1720  141.0240 C   0  0  0  0  0  1  0  0  0  0  0  0
  188.5820  177.8620  144.7240 O   0  0  0  0  0  0  0  0  0  0  0  0
  187.4700  177.3270  144.9780 C   0  0  0  0  0  0  0  0  0  0  0  0
  187.3740  176.4140  146.1590 C   0  0  0  0  0  2  0  0  0  0  0  0
  188.6780  176.4230  146.9450 C   0  0  0  0  0  2  0  0  0  0  0  0
  189.1430  175.0110  147.2510 C   0  0  0  0  0  2  0  0  0  0  0  0
  189.9250  174.4590  146.0750 C   0  0  0  0  0  2  0  0  0  0  0  0
  191.8840  175.6970  145.0910 C   0  0  0  0  0  0  0  0  0  0  0  0
  191.2980  174.9300  146.1440 N   0  0  0  0  0  2  0  0  0  0  0  0
  191.2280  175.9580  144.0480 O   0  0  0  0  0  0  0  0  0  0  0  0
  193.2750  176.2240  145.2320 C   0  0  0  0  0  2  0  0  0  0  0  0
  194.2430  175.3080  144.6310 N   0  0  0  0  0  0  0  0  0  0  0  0
  196.4140  174.5560  145.4110 N   0  0  0  0  0  1  0  0  0  0  0  0
  194.9840  174.6360  145.7040 C   0  0  0  0  0  2  0  0  0  0  0  0
  195.1700  176.0830  143.8140 C   0  0  0  0  0  2  0  0  0  0  0  0
  195.0100  175.7170  142.3480 C   0  0  0  0  0  2  0  0  0  0  0  0
  193.8990  176.3730  141.8080 O   0  0  0  0  0  1  0  0  0  0  0  0
  1 23  1  0  0  0  0
  2  1  2  0  0  0  0
  3  4  2  0  0  0  0
  4  5  1  0  0  0  0
  5  2  1  0  0  0  0
  6  8  1  0  0  0  0
  7  4  1  0  0  0  0
  7 11  1  0  0  0  0
  8 12  1  0  0  0  0
  8  9  2  0  0  0  0
  9 13  1  0  0  0  0
 10 11  2  0  0  0  0
 10 13  1  0  0  0  0
 12 10  1  0  0  0  0
 13 14  1  0  0  0  0
 15  7  2  0  0  0  0
 16 15  1  0  0  0  0
 16 12  2  0  0  0  0
 17  2  1  0  0  0  0
 18 19  2  0  0  0  0
 19 17  1  0  0  0  0
 20 19  1  0  0  0  0
 20 21  1  0  0  0  0
 22 23  2  0  0  0  0
 23 24  1  0  0  0  0
 24 25  1  0  0  0  0
 25 26  1  0  0  0  0
 27 29  1  0  0  0  0
 27 26  1  0  0  0  0
 28 31  1  0  0  0  0
 28 29  1  0  0  0  0
 30 28  2  0  0  0  0
 32 31  1  0  0  0  0
 32 34  1  0  0  0  0
 33 34  1  0  0  0  0
 35 32  1  0  0  0  0
 36 35  1  0  0  0  0
 37 36  1  0  0  0  0
M  END
>  <MODEL>
2

>  <REMARK>
 VINA RESULT:      -6.0      0.760      1.664
  Name = 
  15 active torsions:
  status: ('A' for Active; 'I' for Inactive)
    1  A    between atoms: C_2  and  C_15
    2  A    between atoms: C_2  and  C_22
    3  A    between atoms: N_3  and  C_12
    4  A    between atoms: N_3  and  C_29
    5  A    between atoms: N_3  and  C_30
    6  A    between atoms: C_4  and  C_22
    7  A    between atoms: C_6  and  C_29
    8  A    between atoms: C_7  and  N_10
    9  A    between atoms: C_7  and  N_36
   10  A    between atoms: C_8  and  C_16
   11  A    between atoms: N_9  and  C_26
   12  A    between atoms: C_12  and  C_24
   13  A    between atoms: C_15  and  C_33
   14  A    between atoms: C_26  and  C_33
   15  A    between atoms: O_32  and  C_37
                            x       y       z     vdW  Elec       q    Type
                         _______ _______ _______ _____ _____    ______ ____

>  <TORSDO>
F 15

$$$$
=
 OpenBabel11042416473D

 37 38  0  0  0  0  0  0  0  0999 V2000
  187.1010  177.4790  145.0050 C   0  0  0  0  0  3  0  0  0  0  0  0
  186.5510  176.8830  143.9370 C   0  0  0  0  0  0  0  0  0  0  0  0
  188.6460  177.3220  141.9600 O   0  0  0  0  0  0  0  0  0  0  0  0
  188.3220  176.1410  142.2570 C   0  0  0  0  0  0  0  0  0  0  0  0
  187.2800  175.8860  143.2100 N   0  0  0  0  0  2  0  0  0  0  0  0
  190.8870  170.9920  138.8170 C   0  0  0  0  0  1  0  0  0  0  0  0
  188.9850  175.0050  141.6030 C   0  0  0  0  0  0  0  0  0  0  0  0
  190.9860  171.8210  140.0510 C   0  0  0  0  0  0  0  0  0  0  0  0
  191.9800  171.7420  141.0320 C   0  0  0  0  0  3  0  0  0  0  0  0
  190.6600  173.3700  141.5750 C   0  0  0  0  0  0  0  0  0  0  0  0
  190.0830  174.4320  142.1890 N   0  0  0  0  0  0  0  0  0  0  0  0
  190.1740  172.8670  140.4130 C   0  0  0  0  0  0  0  0  0  0  0  0
  191.7540  172.6990  141.9660 N   0  0  0  0  0  0  0  0  0  0  0  0
  192.5990  172.9940  143.1080 C   0  0  0  0  0  1  0  0  0  0  0  0
  188.4820  174.4740  140.3850 C   0  0  0  0  0  3  0  0  0  0  0  0
  189.0930  173.4010  139.7970 N   0  0  0  0  0  0  0  0  0  0  0  0
  185.2610  177.3000  143.4610 N   0  0  0  0  0  2  0  0  0  0  0  0
  185.9250  178.6710  141.6820 O   0  0  0  0  0  0  0  0  0  0  0  0
  184.9950  178.0710  142.2850 C   0  0  0  0  0  0  0  0  0  0  0  0
  183.6790  178.1830  141.8370 O   0  0  0  0  0  0  0  0  0  0  0  0
  183.3600  178.2610  140.4570 C   0  0  0  0  0  1  0  0  0  0  0  0
  189.4280  177.8080  145.1610 O   0  0  0  0  0  0  0  0  0  0  0  0
  188.4210  177.2010  145.6120 C   0  0  0  0  0  0  0  0  0  0  0  0
  188.6080  176.2870  146.7820 C   0  0  0  0  0  2  0  0  0  0  0  0
  189.7260  175.2920  146.5050 C   0  0  0  0  0  2  0  0  0  0  0  0
  190.7430  175.2850  147.6330 C   0  0  0  0  0  2  0  0  0  0  0  0
  191.8360  176.2960  147.3480 C   0  0  0  0  0  2  0  0  0  0  0  0
  193.6890  176.4930  145.6550 C   0  0  0  0  0  0  0  0  0  0  0  0
  192.3770  176.0610  146.0200 N   0  0  0  0  0  2  0  0  0  0  0  0
  194.4050  177.1270  146.4760 O   0  0  0  0  0  0  0  0  0  0  0  0
  194.2370  176.1700  144.3040 C   0  0  0  0  0  2  0  0  0  0  0  0
  195.6290  175.7350  144.3950 N   0  0  0  0  0  0  0  0  0  0  0  0
  197.5280  176.4650  143.0730 N   0  0  0  0  0  1  0  0  0  0  0  0
  196.2290  175.7950  143.0580 C   0  0  0  0  0  2  0  0  0  0  0  0
  195.6550  174.3590  144.8770 C   0  0  0  0  0  2  0  0  0  0  0  0
  196.9720  174.0740  145.5790 C   0  0  0  0  0  2  0  0  0  0  0  0
  196.8760  172.8910  146.3180 O   0  0  0  0  0  1  0  0  0  0  0  0
  1 23  1  0  0  0  0
  2  1  2  0  0  0  0
  3  4  2  0  0  0  0
  4  5  1  0  0  0  0
  5  2  1  0  0  0  0
  6  8  1  0  0  0  0
  7 11  1  0  0  0  0
  7  4  1  0  0  0  0
  8 12  1  0  0  0  0
  8  9  2  0  0  0  0
  9 13  1  0  0  0  0
 10 13  1  0  0  0  0
 10 11  2  0  0  0  0
 12 10  1  0  0  0  0
 13 14  1  0  0  0  0
 15  7  2  0  0  0  0
 16 15  1  0  0  0  0
 16 12  2  0  0  0  0
 17  2  1  0  0  0  0
 18 19  2  0  0  0  0
 19 17  1  0  0  0  0
 20 19  1  0  0  0  0
 21 20  1  0  0  0  0
 22 23  2  0  0  0  0
 23 24  1  0  0  0  0
 25 24  1  0  0  0  0
 25 26  1  0  0  0  0
 27 26  1  0  0  0  0
 28 29  1  0  0  0  0
 28 30  2  0  0  0  0
 29 27  1  0  0  0  0
 31 32  1  0  0  0  0
 31 28  1  0  0  0  0
 32 35  1  0  0  0  0
 34 33  1  0  0  0  0
 34 32  1  0  0  0  0
 35 36  1  0  0  0  0
 36 37  1  0  0  0  0
M  END
>  <MODEL>
3

>  <REMARK>
 VINA RESULT:      -5.9      1.971      2.595
  Name = 
  15 active torsions:
  status: ('A' for Active; 'I' for Inactive)
    1  A    between atoms: C_2  and  C_15
    2  A    between atoms: C_2  and  C_22
    3  A    between atoms: N_3  and  C_12
    4  A    between atoms: N_3  and  C_29
    5  A    between atoms: N_3  and  C_30
    6  A    between atoms: C_4  and  C_22
    7  A    between atoms: C_6  and  C_29
    8  A    between atoms: C_7  and  N_10
    9  A    between atoms: C_7  and  N_36
   10  A    between atoms: C_8  and  C_16
   11  A    between atoms: N_9  and  C_26
   12  A    between atoms: C_12  and  C_24
   13  A    between atoms: C_15  and  C_33
   14  A    between atoms: C_26  and  C_33
   15  A    between atoms: O_32  and  C_37
                            x       y       z     vdW  Elec       q    Type
                         _______ _______ _______ _____ _____    ______ ____

>  <TORSDO>
F 15

$$$$
=
 OpenBabel11042416473D

 37 38  0  0  0  0  0  0  0  0999 V2000
  190.1910  172.2970  142.6740 C   0  0  0  0  0  3  0  0  0  0  0  0
  189.3610  172.9580  141.8540 C   0  0  0  0  0  0  0  0  0  0  0  0
  189.7470  175.8090  142.3180 O   0  0  0  0  0  0  0  0  0  0  0  0
  188.6290  175.2910  142.5820 C   0  0  0  0  0  0  0  0  0  0  0  0
  188.4090  173.8870  142.3860 N   0  0  0  0  0  2  0  0  0  0  0  0
  183.9170  178.9300  145.6610 C   0  0  0  0  0  1  0  0  0  0  0  0
  187.5420  176.1150  143.1280 C   0  0  0  0  0  0  0  0  0  0  0  0
  184.3990  178.3840  144.3620 C   0  0  0  0  0  0  0  0  0  0  0  0
  183.8620  178.6450  143.0970 C   0  0  0  0  0  3  0  0  0  0  0  0
  185.5990  177.3820  142.8170 C   0  0  0  0  0  0  0  0  0  0  0  0
  186.6030  176.6450  142.2830 N   0  0  0  0  0  0  0  0  0  0  0  0
  185.5020  177.5950  144.1530 C   0  0  0  0  0  0  0  0  0  0  0  0
  184.6110  178.0110  142.1610 N   0  0  0  0  0  0  0  0  0  0  0  0
  184.4280  178.0880  140.7240 C   0  0  0  0  0  1  0  0  0  0  0  0
  187.4370  176.3430  144.5260 C   0  0  0  0  0  3  0  0  0  0  0  0
  186.4080  177.0920  145.0260 N   0  0  0  0  0  0  0  0  0  0  0  0
  189.3610  172.6770  140.4450 N   0  0  0  0  0  2  0  0  0  0  0  0
  191.3150  173.8070  139.8200 O   0  0  0  0  0  0  0  0  0  0  0  0
  190.3950  173.0040  139.5100 C   0  0  0  0  0  0  0  0  0  0  0  0
  190.3460  172.4480  138.2320 O   0  0  0  0  0  0  0  0  0  0  0  0
  189.8440  173.1690  137.1180 C   0  0  0  0  0  1  0  0  0  0  0  0
  189.5740  171.7150  144.8710 O   0  0  0  0  0  0  0  0  0  0  0  0
  190.3070  172.4340  144.1420 C   0  0  0  0  0  0  0  0  0  0  0  0
  191.3040  173.3330  144.8030 C   0  0  0  0  0  2  0  0  0  0  0  0
  190.5930  174.3950  145.6310 C   0  0  0  0  0  2  0  0  0  0  0  0
  191.5620  175.1030  146.5600 C   0  0  0  0  0  2  0  0  0  0  0  0
  191.8370  176.5040  146.0480 C   0  0  0  0  0  2  0  0  0  0  0  0
  194.2530  176.7520  145.3870 C   0  0  0  0  0  0  0  0  0  0  0  0
  192.8950  176.4560  145.0540 N   0  0  0  0  0  2  0  0  0  0  0  0
  194.5640  177.1000  146.5570 O   0  0  0  0  0  0  0  0  0  0  0  0
  195.3240  176.6220  144.3530 C   0  0  0  0  0  2  0  0  0  0  0  0
  195.4630  175.2340  143.9180 N   0  0  0  0  0  0  0  0  0  0  0  0
  197.1820  173.5480  143.6150 N   0  0  0  0  0  1  0  0  0  0  0  0
  196.7630  174.7270  144.3710 C   0  0  0  0  0  2  0  0  0  0  0  0
  195.4100  175.1970  142.4610 C   0  0  0  0  0  2  0  0  0  0  0  0
  195.9370  176.4990  141.8840 C   0  0  0  0  0  2  0  0  0  0  0  0
  196.9170  176.2360  140.9210 O   0  0  0  0  0  1  0  0  0  0  0  0
  1 23  1  0  0  0  0
  2  5  1  0  0  0  0
  2  1  2  0  0  0  0
  3  4  2  0  0  0  0
  4  7  1  0  0  0  0
  5  4  1  0  0  0  0
  7 15  1  0  0  0  0
  8  6  1  0  0  0  0
  9  8  2  0  0  0  0
 10 12  2  0  0  0  0
 11 10  1  0  0  0  0
 11  7  2  0  0  0  0
 12  8  1  0  0  0  0
 12 16  1  0  0  0  0
 13 10  1  0  0  0  0
 13  9  1  0  0  0  0
 14 13  1  0  0  0  0
 15 16  2  0  0  0  0
 17  2  1  0  0  0  0
 19 18  2  0  0  0  0
 19 17  1  0  0  0  0
 20 19  1  0  0  0  0
 21 20  1  0  0  0  0
 23 24  1  0  0  0  0
 23 22  2  0  0  0  0
 24 25  1  0  0  0  0
 25 26  1  0  0  0  0
 27 26  1  0  0  0  0
 28 30  2  0  0  0  0
 29 28  1  0  0  0  0
 29 27  1  0  0  0  0
 31 28  1  0  0  0  0
 32 31  1  0  0  0  0
 32 34  1  0  0  0  0
 33 34  1  0  0  0  0
 35 32  1  0  0  0  0
 36 35  1  0  0  0  0
 37 36  1  0  0  0  0
M  END
>  <MODEL>
4

>  <REMARK>
 VINA RESULT:      -5.6      2.274      5.877
  Name = 
  15 active torsions:
  status: ('A' for Active; 'I' for Inactive)
    1  A    between atoms: C_2  and  C_15
    2  A    between atoms: C_2  and  C_22
    3  A    between atoms: N_3  and  C_12
    4  A    between atoms: N_3  and  C_29
    5  A    between atoms: N_3  and  C_30
    6  A    between atoms: C_4  and  C_22
    7  A    between atoms: C_6  and  C_29
    8  A    between atoms: C_7  and  N_10
    9  A    between atoms: C_7  and  N_36
   10  A    between atoms: C_8  and  C_16
   11  A    between atoms: N_9  and  C_26
   12  A    between atoms: C_12  and  C_24
   13  A    between atoms: C_15  and  C_33
   14  A    between atoms: C_26  and  C_33
   15  A    between atoms: O_32  and  C_37
                            x       y       z     vdW  Elec       q    Type
                         _______ _______ _______ _____ _____    ______ ____

>  <TORSDO>
F 15

$$$$
=
 OpenBabel11042416473D

 37 38  0  0  0  0  0  0  0  0999 V2000
  185.7330  177.9150  140.9720 C   0  0  0  0  0  3  0  0  0  0  0  0
  186.6500  177.1740  140.3330 C   0  0  0  0  0  0  0  0  0  0  0  0
  188.9880  178.3050  141.6560 O   0  0  0  0  0  0  0  0  0  0  0  0
  188.7820  177.0630  141.7310 C   0  0  0  0  0  0  0  0  0  0  0  0
  187.6530  176.4680  141.0750 N   0  0  0  0  0  2  0  0  0  0  0  0
  193.4300  173.6520  145.1470 C   0  0  0  0  0  1  0  0  0  0  0  0
  189.7170  176.2020  142.4660 C   0  0  0  0  0  0  0  0  0  0  0  0
  192.1440  173.5720  144.4000 C   0  0  0  0  0  0  0  0  0  0  0  0
  191.3290  172.4440  144.2610 C   0  0  0  0  0  3  0  0  0  0  0  0
  190.3280  174.0930  143.2780 C   0  0  0  0  0  0  0  0  0  0  0  0
  189.4360  174.8690  142.6160 N   0  0  0  0  0  0  0  0  0  0  0  0
  191.4810  174.6010  143.7810 C   0  0  0  0  0  0  0  0  0  0  0  0
  190.2210  172.7850  143.5590 N   0  0  0  0  0  0  0  0  0  0  0  0
  189.0960  171.9180  143.2630 C   0  0  0  0  0  1  0  0  0  0  0  0
  190.9250  176.7280  142.9960 C   0  0  0  0  0  3  0  0  0  0  0  0
  191.8000  175.9120  143.6580 N   0  0  0  0  0  0  0  0  0  0  0  0
  186.6890  177.1500  138.8970 N   0  0  0  0  0  2  0  0  0  0  0  0
  187.6170  175.0260  138.5650 O   0  0  0  0  0  0  0  0  0  0  0  0
  187.0510  176.0380  138.0720 C   0  0  0  0  0  0  0  0  0  0  0  0
  186.8030  176.1080  136.7010 O   0  0  0  0  0  0  0  0  0  0  0  0
  187.7980  175.7880  135.7410 C   0  0  0  0  0  1  0  0  0  0  0  0
  185.4110  177.0490  143.1370 O   0  0  0  0  0  0  0  0  0  0  0  0
  185.5650  178.0800  142.4320 C   0  0  0  0  0  0  0  0  0  0  0  0
  185.6410  179.4070  143.1190 C   0  0  0  0  0  2  0  0  0  0  0  0
  185.5470  179.2290  144.6280 C   0  0  0  0  0  2  0  0  0  0  0  0
  184.1070  179.0370  145.0670 C   0  0  0  0  0  2  0  0  0  0  0  0
  184.0680  178.4980  146.4840 C   0  0  0  0  0  2  0  0  0  0  0  0
  186.0540  177.2890  147.4480 C   0  0  0  0  0  0  0  0  0  0  0  0
  184.9210  177.3250  146.5790 N   0  0  0  0  0  2  0  0  0  0  0  0
  186.3660  178.2970  148.1360 O   0  0  0  0  0  0  0  0  0  0  0  0
  186.8650  176.0400  147.5710 C   0  0  0  0  0  2  0  0  0  0  0  0
  188.2190  176.2440  147.0610 N   0  0  0  0  0  0  0  0  0  0  0  0
  188.6320  177.8950  145.3320 N   0  0  0  0  0  1  0  0  0  0  0  0
  188.1400  176.5510  145.6280 C   0  0  0  0  0  2  0  0  0  0  0  0
  188.9770  175.0130  147.2510 C   0  0  0  0  0  2  0  0  0  0  0  0
  190.4670  175.3000  147.1920 C   0  0  0  0  0  2  0  0  0  0  0  0
  190.7750  176.4040  147.9940 O   0  0  0  0  0  1  0  0  0  0  0  0
  1 23  1  0  0  0  0
  2  1  2  0  0  0  0
  2  5  1  0  0  0  0
  3  4  2  0  0  0  0
  4  7  1  0  0  0  0
  5  4  1  0  0  0  0
  7 11  2  0  0  0  0
  7 15  1  0  0  0  0
  8  6  1  0  0  0  0
  9  8  2  0  0  0  0
 10 13  1  0  0  0  0
 10 12  2  0  0  0  0
 11 10  1  0  0  0  0
 12  8  1  0  0  0  0
 13  9  1  0  0  0  0
 14 13  1  0  0  0  0
 15 16  2  0  0  0  0
 16 12  1  0  0  0  0
 17  2  1  0  0  0  0
 19 18  2  0  0  0  0
 19 17  1  0  0  0  0
 20 19  1  0  0  0  0
 21 20  1  0  0  0  0
 23 24  1  0  0  0  0
 23 22  2  0  0  0  0
 24 25  1  0  0  0  0
 25 26  1  0  0  0  0
 26 27  1  0  0  0  0
 27 29  1  0  0  0  0
 28 31  1  0  0  0  0
 28 30  2  0  0  0  0
 29 28  1  0  0  0  0
 32 35  1  0  0  0  0
 32 31  1  0  0  0  0
 33 34  1  0  0  0  0
 34 32  1  0  0  0  0
 36 35  1  0  0  0  0
 36 37  1  0  0  0  0
M  END
>  <MODEL>
5

>  <REMARK>
 VINA RESULT:      -5.6      2.908      5.373
  Name = 
  15 active torsions:
  status: ('A' for Active; 'I' for Inactive)
    1  A    between atoms: C_2  and  C_15
    2  A    between atoms: C_2  and  C_22
    3  A    between atoms: N_3  and  C_12
    4  A    between atoms: N_3  and  C_29
    5  A    between atoms: N_3  and  C_30
    6  A    between atoms: C_4  and  C_22
    7  A    between atoms: C_6  and  C_29
    8  A    between atoms: C_7  and  N_10
    9  A    between atoms: C_7  and  N_36
   10  A    between atoms: C_8  and  C_16
   11  A    between atoms: N_9  and  C_26
   12  A    between atoms: C_12  and  C_24
   13  A    between atoms: C_15  and  C_33
   14  A    between atoms: C_26  and  C_33
   15  A    between atoms: O_32  and  C_37
                            x       y       z     vdW  Elec       q    Type
                         _______ _______ _______ _____ _____    ______ ____

>  <TORSDO>
F 15

$$$$
=
 OpenBabel11042416473D

 37 38  0  0  0  0  0  0  0  0999 V2000
  193.4800  174.7430  146.0450 C   0  0  0  0  0  3  0  0  0  0  0  0
  193.4420  173.6680  145.2430 C   0  0  0  0  0  0  0  0  0  0  0  0
  190.7440  172.6310  144.8680 O   0  0  0  0  0  0  0  0  0  0  0  0
  191.3270  173.1880  143.8990 C   0  0  0  0  0  0  0  0  0  0  0  0
  192.6630  173.6910  144.0400 N   0  0  0  0  0  2  0  0  0  0  0  0
  188.0610  174.2770  138.1490 C   0  0  0  0  0  1  0  0  0  0  0  0
  190.6560  173.2980  142.5970 C   0  0  0  0  0  0  0  0  0  0  0  0
  188.8520  173.3030  138.9500 C   0  0  0  0  0  0  0  0  0  0  0  0
  189.2910  172.0420  138.5350 C   0  0  0  0  0  3  0  0  0  0  0  0
  190.0630  172.3720  140.5300 C   0  0  0  0  0  0  0  0  0  0  0  0
  190.7110  172.2510  141.7150 N   0  0  0  0  0  0  0  0  0  0  0  0
  189.3660  173.4900  140.2090 C   0  0  0  0  0  0  0  0  0  0  0  0
  190.0270  171.4830  139.5260 N   0  0  0  0  0  0  0  0  0  0  0  0
  190.7210  170.2100  139.4620 C   0  0  0  0  0  1  0  0  0  0  0  0
  189.9250  174.4680  142.2540 C   0  0  0  0  0  3  0  0  0  0  0  0
  189.2850  174.5500  141.0490 N   0  0  0  0  0  0  0  0  0  0  0  0
  194.1100  172.4560  145.6270 N   0  0  0  0  0  2  0  0  0  0  0  0
  196.1290  172.7400  144.4750 O   0  0  0  0  0  0  0  0  0  0  0  0
  195.4640  172.0980  145.3320 C   0  0  0  0  0  0  0  0  0  0  0  0
  196.0280  171.0000  145.9820 O   0  0  0  0  0  0  0  0  0  0  0  0
  195.7870  169.6690  145.5530 C   0  0  0  0  0  1  0  0  0  0  0  0
  193.5170  176.9850  145.3260 O   0  0  0  0  0  0  0  0  0  0  0  0
  192.8320  176.0540  145.8260 C   0  0  0  0  0  0  0  0  0  0  0  0
  191.3840  176.3070  146.1040 C   0  0  0  0  0  2  0  0  0  0  0  0
  190.8930  175.4050  147.2280 C   0  0  0  0  0  2  0  0  0  0  0  0
  189.4170  175.0870  147.0690 C   0  0  0  0  0  2  0  0  0  0  0  0
  188.6480  176.3540  146.7490 C   0  0  0  0  0  2  0  0  0  0  0  0
  186.8710  177.0500  145.1080 C   0  0  0  0  0  0  0  0  0  0  0  0
  187.9420  176.1870  145.4900 N   0  0  0  0  0  2  0  0  0  0  0  0
  186.4830  177.9690  145.8790 O   0  0  0  0  0  0  0  0  0  0  0  0
  186.2180  176.8910  143.7740 C   0  0  0  0  0  2  0  0  0  0  0  0
  185.8260  178.1880  143.2270 N   0  0  0  0  0  0  0  0  0  0  0  0
  183.5990  178.9580  143.8080 N   0  0  0  0  0  1  0  0  0  0  0  0
  184.3980  178.1460  142.8920 C   0  0  0  0  0  2  0  0  0  0  0  0
  186.5990  178.4340  142.0160 C   0  0  0  0  0  2  0  0  0  0  0  0
  186.8200  177.1340  141.2610 C   0  0  0  0  0  2  0  0  0  0  0  0
  186.4350  177.2830  139.9260 O   0  0  0  0  0  1  0  0  0  0  0  0
  2 17  1  0  0  0  0
  2  1  2  0  0  0  0
  4  5  1  0  0  0  0
  4  3  2  0  0  0  0
  5  2  1  0  0  0  0
  6  8  1  0  0  0  0
  7  4  1  0  0  0  0
  8 12  1  0  0  0  0
  9  8  2  0  0  0  0
  9 13  1  0  0  0  0
 10 11  1  0  0  0  0
 11  7  2  0  0  0  0
 12 10  2  0  0  0  0
 12 16  1  0  0  0  0
 13 10  1  0  0  0  0
 14 13  1  0  0  0  0
 15  7  1  0  0  0  0
 16 15  2  0  0  0  0
 18 19  2  0  0  0  0
 19 17  1  0  0  0  0
 19 20  1  0  0  0  0
 21 20  1  0  0  0  0
 22 23  2  0  0  0  0
 23  1  1  0  0  0  0
 23 24  1  0  0  0  0
 24 25  1  0  0  0  0
 26 25  1  0  0  0  0
 27 26  1  0  0  0  0
 28 29  1  0  0  0  0
 28 30  2  0  0  0  0
 29 27  1  0  0  0  0
 31 28  1  0  0  0  0
 32 31  1  0  0  0  0
 34 32  1  0  0  0  0
 34 33  1  0  0  0  0
 35 32  1  0  0  0  0
 36 35  1  0  0  0  0
 37 36  1  0  0  0  0
M  END
>  <MODEL>
6

>  <REMARK>
 VINA RESULT:      -5.6      2.390      7.560
  Name = 
  15 active torsions:
  status: ('A' for Active; 'I' for Inactive)
    1  A    between atoms: C_2  and  C_15
    2  A    between atoms: C_2  and  C_22
    3  A    between atoms: N_3  and  C_12
    4  A    between atoms: N_3  and  C_29
    5  A    between atoms: N_3  and  C_30
    6  A    between atoms: C_4  and  C_22
    7  A    between atoms: C_6  and  C_29
    8  A    between atoms: C_7  and  N_10
    9  A    between atoms: C_7  and  N_36
   10  A    between atoms: C_8  and  C_16
   11  A    between atoms: N_9  and  C_26
   12  A    between atoms: C_12  and  C_24
   13  A    between atoms: C_15  and  C_33
   14  A    between atoms: C_26  and  C_33
   15  A    between atoms: O_32  and  C_37
                            x       y       z     vdW  Elec       q    Type
                         _______ _______ _______ _____ _____    ______ ____

>  <TORSDO>
F 15

$$$$
=
 OpenBabel11042416473D

 37 38  0  0  0  0  0  0  0  0999 V2000
  194.7940  174.6770  145.6120 C   0  0  0  0  0  3  0  0  0  0  0  0
  193.6950  173.9090  145.5790 C   0  0  0  0  0  0  0  0  0  0  0  0
  191.9320  174.9170  147.6690 O   0  0  0  0  0  0  0  0  0  0  0  0
  191.5700  175.0090  146.4650 C   0  0  0  0  0  0  0  0  0  0  0  0
  192.4020  174.5050  145.4110 N   0  0  0  0  0  2  0  0  0  0  0  0
  185.4190  177.4820  145.4780 C   0  0  0  0  0  1  0  0  0  0  0  0
  190.2710  175.6050  146.1270 C   0  0  0  0  0  0  0  0  0  0  0  0
  186.7830  177.3050  144.9050 C   0  0  0  0  0  0  0  0  0  0  0  0
  187.2580  177.8380  143.7020 C   0  0  0  0  0  3  0  0  0  0  0  0
  188.9030  176.7900  144.6430 C   0  0  0  0  0  0  0  0  0  0  0  0
  190.1190  176.2710  144.9390 N   0  0  0  0  0  0  0  0  0  0  0  0
  187.8470  176.6590  145.4840 C   0  0  0  0  0  0  0  0  0  0  0  0
  188.5630  177.5010  143.5570 N   0  0  0  0  0  0  0  0  0  0  0  0
  189.4380  177.9210  142.4780 C   0  0  0  0  0  1  0  0  0  0  0  0
  189.1610  175.4730  147.0040 C   0  0  0  0  0  3  0  0  0  0  0  0
  187.9500  176.0110  146.6680 N   0  0  0  0  0  0  0  0  0  0  0  0
  193.7950  172.4930  145.7970 N   0  0  0  0  0  2  0  0  0  0  0  0
  195.1900  171.9180  144.0050 O   0  0  0  0  0  0  0  0  0  0  0  0
  194.6320  171.5770  145.0830 C   0  0  0  0  0  0  0  0  0  0  0  0
  194.7900  170.2830  145.5790 O   0  0  0  0  0  0  0  0  0  0  0  0
  195.0270  169.1760  144.7240 C   0  0  0  0  0  1  0  0  0  0  0  0
  194.5140  176.8810  146.3940 O   0  0  0  0  0  0  0  0  0  0  0  0
  194.8740  176.1440  145.4390 C   0  0  0  0  0  0  0  0  0  0  0  0
  195.4310  176.7930  144.2110 C   0  0  0  0  0  2  0  0  0  0  0  0
  196.4560  175.8840  143.5480 C   0  0  0  0  0  2  0  0  0  0  0  0
  196.4540  176.0660  142.0410 C   0  0  0  0  0  2  0  0  0  0  0  0
  195.0890  176.5380  141.5800 C   0  0  0  0  0  2  0  0  0  0  0  0
  192.9540  175.2060  141.6100 C   0  0  0  0  0  0  0  0  0  0  0  0
  194.2970  175.3940  141.1620 N   0  0  0  0  0  2  0  0  0  0  0  0
  192.4270  176.0210  142.4150 O   0  0  0  0  0  0  0  0  0  0  0  0
  192.1470  174.0560  141.1020 C   0  0  0  0  0  2  0  0  0  0  0  0
  191.2910  173.5140  142.1550 N   0  0  0  0  0  0  0  0  0  0  0  0
  191.0720  171.6540  143.6980 N   0  0  0  0  0  1  0  0  0  0  0  0
  191.8890  172.2710  142.6550 C   0  0  0  0  0  2  0  0  0  0  0  0
  189.9800  173.2240  141.5840 C   0  0  0  0  0  2  0  0  0  0  0  0
  189.1690  174.5020  141.4590 C   0  0  0  0  0  2  0  0  0  0  0  0
  187.9100  174.3310  142.0430 O   0  0  0  0  0  1  0  0  0  0  0  0
  2  1  2  0  0  0  0
  2 17  1  0  0  0  0
  4  3  2  0  0  0  0
  5  2  1  0  0  0  0
  5  4  1  0  0  0  0
  7  4  1  0  0  0  0
  7 15  1  0  0  0  0
  8  6  1  0  0  0  0
  8 12  1  0  0  0  0
  9  8  2  0  0  0  0
 10 11  1  0  0  0  0
 10 12  2  0  0  0  0
 11  7  2  0  0  0  0
 12 16  1  0  0  0  0
 13  9  1  0  0  0  0
 13 10  1  0  0  0  0
 14 13  1  0  0  0  0
 16 15  2  0  0  0  0
 18 19  2  0  0  0  0
 19 20  1  0  0  0  0
 19 17  1  0  0  0  0
 21 20  1  0  0  0  0
 23  1  1  0  0  0  0
 23 22  2  0  0  0  0
 24 23  1  0  0  0  0
 25 24  1  0  0  0  0
 26 25  1  0  0  0  0
 27 26  1  0  0  0  0
 28 30  2  0  0  0  0
 29 27  1  0  0  0  0
 29 28  1  0  0  0  0
 31 28  1  0  0  0  0
 31 32  1  0  0  0  0
 32 34  1  0  0  0  0
 34 33  1  0  0  0  0
 35 32  1  0  0  0  0
 36 35  1  0  0  0  0
 36 37  1  0  0  0  0
M  END
>  <MODEL>
7

>  <REMARK>
 VINA RESULT:      -5.6      2.792      8.015
  Name = 
  15 active torsions:
  status: ('A' for Active; 'I' for Inactive)
    1  A    between atoms: C_2  and  C_15
    2  A    between atoms: C_2  and  C_22
    3  A    between atoms: N_3  and  C_12
    4  A    between atoms: N_3  and  C_29
    5  A    between atoms: N_3  and  C_30
    6  A    between atoms: C_4  and  C_22
    7  A    between atoms: C_6  and  C_29
    8  A    between atoms: C_7  and  N_10
    9  A    between atoms: C_7  and  N_36
   10  A    between atoms: C_8  and  C_16
   11  A    between atoms: N_9  and  C_26
   12  A    between atoms: C_12  and  C_24
   13  A    between atoms: C_15  and  C_33
   14  A    between atoms: C_26  and  C_33
   15  A    between atoms: O_32  and  C_37
                            x       y       z     vdW  Elec       q    Type
                         _______ _______ _______ _____ _____    ______ ____

>  <TORSDO>
F 15

$$$$
=
 OpenBabel11042416473D

 37 38  0  0  0  0  0  0  0  0999 V2000
  190.9090  174.1670  145.4450 C   0  0  0  0  0  3  0  0  0  0  0  0
  190.4940  174.0160  144.1780 C   0  0  0  0  0  0  0  0  0  0  0  0
  190.3330  176.6180  142.8760 O   0  0  0  0  0  0  0  0  0  0  0  0
  189.2740  175.9600  143.0640 C   0  0  0  0  0  0  0  0  0  0  0  0
  189.3120  174.6840  143.7200 N   0  0  0  0  0  2  0  0  0  0  0  0
  183.5580  178.3680  140.5260 C   0  0  0  0  0  1  0  0  0  0  0  0
  187.9780  176.5070  142.6410 C   0  0  0  0  0  0  0  0  0  0  0  0
  184.3460  178.1170  141.7640 C   0  0  0  0  0  0  0  0  0  0  0  0
  183.9180  178.3150  143.0810 C   0  0  0  0  0  3  0  0  0  0  0  0
  185.9100  177.4700  143.1660 C   0  0  0  0  0  0  0  0  0  0  0  0
  187.0880  176.9480  143.5860 N   0  0  0  0  0  0  0  0  0  0  0  0
  185.6030  177.5700  141.8490 C   0  0  0  0  0  0  0  0  0  0  0  0
  184.9000  177.9180  143.9270 N   0  0  0  0  0  0  0  0  0  0  0  0
  184.8210  177.8950  145.3760 C   0  0  0  0  0  1  0  0  0  0  0  0
  187.6500  176.6130  141.2630 C   0  0  0  0  0  3  0  0  0  0  0  0
  186.4500  177.1470  140.8810 N   0  0  0  0  0  0  0  0  0  0  0  0
  191.1810  173.1140  143.2960 N   0  0  0  0  0  2  0  0  0  0  0  0
  189.4620  171.5760  142.8910 O   0  0  0  0  0  0  0  0  0  0  0  0
  190.6080  172.0070  142.5920 C   0  0  0  0  0  0  0  0  0  0  0  0
  191.3550  171.3840  141.5930 O   0  0  0  0  0  0  0  0  0  0  0  0
  190.8130  170.3550  140.7810 C   0  0  0  0  0  1  0  0  0  0  0  0
  189.3500  174.5630  147.1650 O   0  0  0  0  0  0  0  0  0  0  0  0
  190.3110  175.0220  146.4930 C   0  0  0  0  0  0  0  0  0  0  0  0
  190.8390  176.3780  146.8420 C   0  0  0  0  0  2  0  0  0  0  0  0
  192.2970  176.2870  147.2680 C   0  0  0  0  0  2  0  0  0  0  0  0
  193.2270  176.5170  146.0910 C   0  0  0  0  0  2  0  0  0  0  0  0
  194.5620  175.8460  146.3490 C   0  0  0  0  0  2  0  0  0  0  0  0
  196.2790  174.5750  145.0170 C   0  0  0  0  0  0  0  0  0  0  0  0
  195.1660  175.4680  145.0820 N   0  0  0  0  0  2  0  0  0  0  0  0
  196.7940  174.1150  146.0720 O   0  0  0  0  0  0  0  0  0  0  0  0
  196.8260  174.1540  143.6930 C   0  0  0  0  0  2  0  0  0  0  0  0
  195.8400  174.3540  142.6330 N   0  0  0  0  0  0  0  0  0  0  0  0
  194.1100  173.1340  141.4470 N   0  0  0  0  0  1  0  0  0  0  0  0
  195.3810  173.0420  142.1640 C   0  0  0  0  0  2  0  0  0  0  0  0
  196.4790  175.0650  141.5320 C   0  0  0  0  0  2  0  0  0  0  0  0
  195.8430  176.4330  141.3510 C   0  0  0  0  0  2  0  0  0  0  0  0
  194.5440  176.4300  141.8700 O   0  0  0  0  0  1  0  0  0  0  0  0
  1 23  1  0  0  0  0
  2  1  2  0  0  0  0
  3  4  2  0  0  0  0
  4  5  1  0  0  0  0
  5  2  1  0  0  0  0
  6  8  1  0  0  0  0
  7  4  1  0  0  0  0
  7 11  1  0  0  0  0
  8 12  1  0  0  0  0
  8  9  2  0  0  0  0
  9 13  1  0  0  0  0
 10 11  2  0  0  0  0
 10 13  1  0  0  0  0
 12 10  1  0  0  0  0
 13 14  1  0  0  0  0
 15  7  2  0  0  0  0
 16 15  1  0  0  0  0
 16 12  2  0  0  0  0
 17  2  1  0  0  0  0
 19 18  2  0  0  0  0
 19 17  1  0  0  0  0
 20 19  1  0  0  0  0
 21 20  1  0  0  0  0
 23 24  1  0  0  0  0
 23 22  2  0  0  0  0
 24 25  1  0  0  0  0
 26 27  1  0  0  0  0
 26 25  1  0  0  0  0
 28 29  1  0  0  0  0
 28 30  2  0  0  0  0
 29 27  1  0  0  0  0
 31 28  1  0  0  0  0
 32 31  1  0  0  0  0
 33 34  1  0  0  0  0
 34 32  1  0  0  0  0
 35 32  1  0  0  0  0
 36 35  1  0  0  0  0
 36 37  1  0  0  0  0
M  END
>  <MODEL>
8

>  <REMARK>
 VINA RESULT:      -5.5      2.675      6.224
  Name = 
  15 active torsions:
  status: ('A' for Active; 'I' for Inactive)
    1  A    between atoms: C_2  and  C_15
    2  A    between atoms: C_2  and  C_22
    3  A    between atoms: N_3  and  C_12
    4  A    between atoms: N_3  and  C_29
    5  A    between atoms: N_3  and  C_30
    6  A    between atoms: C_4  and  C_22
    7  A    between atoms: C_6  and  C_29
    8  A    between atoms: C_7  and  N_10
    9  A    between atoms: C_7  and  N_36
   10  A    between atoms: C_8  and  C_16
   11  A    between atoms: N_9  and  C_26
   12  A    between atoms: C_12  and  C_24
   13  A    between atoms: C_15  and  C_33
   14  A    between atoms: C_26  and  C_33
   15  A    between atoms: O_32  and  C_37
                            x       y       z     vdW  Elec       q    Type
                         _______ _______ _______ _____ _____    ______ ____

>  <TORSDO>
F 15

$$$$
=
 OpenBabel11042416473D

 37 38  0  0  0  0  0  0  0  0999 V2000
  189.8290  172.0220  142.8870 C   0  0  0  0  0  3  0  0  0  0  0  0
  189.0760  172.7540  142.0530 C   0  0  0  0  0  0  0  0  0  0  0  0
  190.1030  175.4810  142.1070 O   0  0  0  0  0  0  0  0  0  0  0  0
  188.9330  175.2580  142.5210 C   0  0  0  0  0  0  0  0  0  0  0  0
  188.4020  173.9260  142.5290 N   0  0  0  0  0  2  0  0  0  0  0  0
  185.1820  180.5320  144.2630 C   0  0  0  0  0  1  0  0  0  0  0  0
  188.1080  176.3600  143.0340 C   0  0  0  0  0  0  0  0  0  0  0  0
  185.8870  179.3100  144.7410 C   0  0  0  0  0  0  0  0  0  0  0  0
  185.8590  178.7830  146.0360 C   0  0  0  0  0  3  0  0  0  0  0  0
  187.0340  177.4370  144.8130 C   0  0  0  0  0  0  0  0  0  0  0  0
  187.7770  176.3960  144.3630 N   0  0  0  0  0  0  0  0  0  0  0  0
  186.6260  178.4320  143.9870 C   0  0  0  0  0  0  0  0  0  0  0  0
  186.5790  177.6340  146.0590 N   0  0  0  0  0  0  0  0  0  0  0  0
  186.7340  176.7470  147.1970 C   0  0  0  0  0  1  0  0  0  0  0  0
  187.6770  177.4050  142.1730 C   0  0  0  0  0  3  0  0  0  0  0  0
  186.9290  178.4380  142.6670 N   0  0  0  0  0  0  0  0  0  0  0  0
  188.8690  172.3220  140.6990 N   0  0  0  0  0  2  0  0  0  0  0  0
  190.7580  173.2720  139.6910 O   0  0  0  0  0  0  0  0  0  0  0  0
  189.7730  172.4900  139.6020 C   0  0  0  0  0  0  0  0  0  0  0  0
  189.5260  171.8020  138.4140 O   0  0  0  0  0  0  0  0  0  0  0  0
  190.3220  171.9950  137.2560 C   0  0  0  0  0  1  0  0  0  0  0  0
  189.3460  171.8320  145.1840 O   0  0  0  0  0  0  0  0  0  0  0  0
  190.1250  172.2960  144.3100 C   0  0  0  0  0  0  0  0  0  0  0  0
  191.3420  173.0370  144.7650 C   0  0  0  0  0  2  0  0  0  0  0  0
  190.9470  174.3320  145.4600 C   0  0  0  0  0  2  0  0  0  0  0  0
  191.7630  174.5470  146.7220 C   0  0  0  0  0  2  0  0  0  0  0  0
  192.1850  176.0000  146.8230 C   0  0  0  0  0  2  0  0  0  0  0  0
  193.8610  176.6770  145.0720 C   0  0  0  0  0  0  0  0  0  0  0  0
  193.5550  176.1390  146.3590 N   0  0  0  0  0  2  0  0  0  0  0  0
  192.9390  177.0170  144.2840 O   0  0  0  0  0  0  0  0  0  0  0  0
  195.2840  176.8710  144.6590 C   0  0  0  0  0  2  0  0  0  0  0  0
  195.6290  175.9910  143.5450 N   0  0  0  0  0  0  0  0  0  0  0  0
  195.2910  173.5920  143.3960 N   0  0  0  0  0  1  0  0  0  0  0  0
  195.9950  174.6740  144.0810 C   0  0  0  0  0  2  0  0  0  0  0  0
  196.7710  176.5600  142.8390 C   0  0  0  0  0  2  0  0  0  0  0  0
  196.4360  176.7530  141.3700 C   0  0  0  0  0  2  0  0  0  0  0  0
  196.5460  175.5370  140.6890 O   0  0  0  0  0  1  0  0  0  0  0  0
  1 23  1  0  0  0  0
  2  5  1  0  0  0  0
  2  1  2  0  0  0  0
  3  4  2  0  0  0  0
  4  5  1  0  0  0  0
  4  7  1  0  0  0  0
  6  8  1  0  0  0  0
  7 11  1  0  0  0  0
  8  9  2  0  0  0  0
  9 13  1  0  0  0  0
 10 13  1  0  0  0  0
 11 10  2  0  0  0  0
 12  8  1  0  0  0  0
 12 10  1  0  0  0  0
 13 14  1  0  0  0  0
 15 16  1  0  0  0  0
 15  7  2  0  0  0  0
 16 12  2  0  0  0  0
 17  2  1  0  0  0  0
 19 18  2  0  0  0  0
 19 17  1  0  0  0  0
 20 19  1  0  0  0  0
 21 20  1  0  0  0  0
 23 24  1  0  0  0  0
 23 22  2  0  0  0  0
 24 25  1  0  0  0  0
 25 26  1  0  0  0  0
 26 27  1  0  0  0  0
 28 29  1  0  0  0  0
 29 27  1  0  0  0  0
 30 28  2  0  0  0  0
 31 28  1  0  0  0  0
 32 34  1  0  0  0  0
 32 31  1  0  0  0  0
 33 34  1  0  0  0  0
 35 32  1  0  0  0  0
 36 35  1  0  0  0  0
 37 36  1  0  0  0  0
M  END
>  <MODEL>
9

>  <REMARK>
 VINA RESULT:      -5.5      2.584      6.172
  Name = 
  15 active torsions:
  status: ('A' for Active; 'I' for Inactive)
    1  A    between atoms: C_2  and  C_15
    2  A    between atoms: C_2  and  C_22
    3  A    between atoms: N_3  and  C_12
    4  A    between atoms: N_3  and  C_29
    5  A    between atoms: N_3  and  C_30
    6  A    between atoms: C_4  and  C_22
    7  A    between atoms: C_6  and  C_29
    8  A    between atoms: C_7  and  N_10
    9  A    between atoms: C_7  and  N_36
   10  A    between atoms: C_8  and  C_16
   11  A    between atoms: N_9  and  C_26
   12  A    between atoms: C_12  and  C_24
   13  A    between atoms: C_15  and  C_33
   14  A    between atoms: C_26  and  C_33
   15  A    between atoms: O_32  and  C_37
                            x       y       z     vdW  Elec       q    Type
                         _______ _______ _______ _____ _____    ______ ____

>  <TORSDO>
F 15

$$$$
