=
 OpenBabel11042419123D

 58 64  0  0  1  0  0  0  0  0999 V2000
  194.7020  175.7330  142.7580 C   0  0  0  0  0  0  0  0  0  0  0  0
  195.2720  176.0820  141.6120 C   0  0  0  0  0  3  0  0  0  0  0  0
  196.5690  175.5010  141.1540 C   0  0  1  0  0  3  0  0  0  0  0  0
  196.3520  173.7290  140.8430 S   0  0  0  0  0  0  0  0  0  0  0  0
  196.8250  175.9160  139.7850 N   0  0  0  0  0  2  0  0  0  0  0  0
  196.6520  174.5750  139.2500 C   0  0  1  0  0  3  0  0  0  0  0  0
  197.9410  174.1430  138.5280 C   0  0  0  0  0  2  0  0  0  0  0  0
  197.8960  170.6980  136.5290 S   0  0  0  0  0  0  0  0  0  0  0  0
  197.6960  173.2100  137.4350 N   0  0  0  0  0  0  0  0  0  0  0  0
  197.8130  171.8500  137.9450 C   0  0  0  0  0  2  0  0  0  0  0  0
  196.0640  172.6440  135.7160 C   0  0  2  0  0  3  0  0  0  0  0  0
  196.1040  170.4480  134.5140 C   0  0  0  0  0  1  0  0  0  0  0  0
  196.3100  173.3720  137.0320 C   0  0  0  0  0  2  0  0  0  0  0  0
  194.6690  173.0160  135.2200 C   0  0  0  0  0  1  0  0  0  0  0  0
  196.2390  171.1140  135.8750 C   0  0  0  0  0  0  0  0  0  0  0  0
  195.1920  170.5210  136.8090 C   0  0  0  0  0  1  0  0  0  0  0  0
  192.2840  176.1010  142.4890 C   0  0  0  0  0  3  0  0  0  0  0  0
  193.4250  176.3800  143.0900 C   0  0  0  0  0  3  0  0  0  0  0  0
  191.1020  176.8140  142.8680 C   0  0  0  0  0  0  0  0  0  0  0  0
  190.1190  177.4260  143.2080 C   0  0  0  0  0  0  0  0  0  0  0  0
  188.9610  178.2110  143.6390 C   0  0  0  0  0  2  0  0  0  0  0  0
  187.7460  178.1970  145.8450 C   0  0  0  0  0  2  0  0  0  0  0  0
  188.1210  177.3790  144.6090 C   0  0  1  0  0  3  0  0  0  0  0  0
  186.6290  177.2450  144.2520 C   0  0  1  0  0  3  0  0  0  0  0  0
  186.2770  178.0580  145.5080 C   0  0  2  0  0  0  0  0  0  0  0  0
  185.6950  179.3000  145.2610 O   0  0  0  0  0  1  0  0  0  0  0  0
  186.2840  177.4320  140.4220 C   0  0  0  0  0  3  0  0  0  0  0  0
  186.1900  177.8510  142.9110 C   0  0  2  0  0  3  0  0  0  0  0  0
  184.6800  177.7140  142.7380 C   0  0  0  0  0  2  0  0  0  0  0  0
  184.2580  178.4350  141.4650 C   0  0  0  0  0  2  0  0  0  0  0  0
  186.8560  177.0770  141.7710 C   0  0  0  0  0  2  0  0  0  0  0  0
  185.0810  178.0020  140.2790 C   0  0  0  0  0  3  0  0  0  0  0  0
  186.1670  176.2630  147.2540 O   0  0  0  0  0  1  0  0  0  0  0  0
  184.2930  177.4700  146.7180 O   0  0  0  0  0  0  0  0  0  0  0  0
  185.5220  177.2610  146.5280 C   0  0  0  0  0  0  0  0  0  0  0  0
  195.3310  174.7700  143.5710 O   0  0  0  0  0  0  0  0  0  0  0  0
  196.1130  175.0940  144.7110 C   0  0  0  0  0  2  0  0  0  0  0  0
  197.2260  174.0820  144.8640 C   0  0  0  0  0  2  0  0  0  0  0  0
  196.6280  172.7570  145.2860 C   0  0  0  0  0  2  0  0  0  0  0  0
  196.9090  171.6930  144.2440 C   0  0  0  0  0  2  0  0  0  0  0  0
  195.3710  171.3550  143.3400 S   0  0  0  0  0  0  0  0  0  0  0  0
  194.2820  170.8210  145.1120 S   0  0  0  0  0  0  0  0  0  0  0  0
  192.2870  170.7830  143.2910 O   0  0  0  0  0  0  0  0  0  0  0  0
  191.7210  173.0410  143.2880 O   0  0  0  0  0  0  0  0  0  0  0  0
  192.4840  172.8160  144.4240 C   0  0  2  0  0  3  0  0  0  0  0  0
  192.6110  171.3200  144.5380 C   0  0  2  0  0  3  0  0  0  0  0  0
  191.9110  171.8900  142.5020 C   0  0  2  0  0  3  0  0  0  0  0  0
  192.6970  174.4760  146.3400 C   0  0  0  0  0  2  0  0  0  0  0  0
  190.5810  174.1260  145.2570 N   0  0  0  0  0  2  0  0  0  0  0  0
  190.5230  175.3370  145.9800 N   0  0  0  0  0  2  0  0  0  0  0  0
  191.8160  173.4570  145.6490 C   0  0  1  0  0  3  0  0  0  0  0  0
  192.0060  176.5480  147.3950 N   0  0  0  0  0  1  0  0  0  0  0  0
  191.9000  175.7400  146.1900 C   0  0  1  0  0  3  0  0  0  0  0  0
  190.9920  171.0330  140.3470 C   0  0  0  0  0  2  0  0  0  0  0  0
  190.4810  172.4440  140.5000 C   0  0  0  0  0  0  0  0  0  0  0  0
  189.1860  172.6530  140.0300 O   0  0  0  0  0  1  0  0  0  0  0  0
  190.6330  171.5730  141.7340 C   0  0  2  0  0  3  0  0  0  0  0  0
  191.4270  173.4430  140.2550 O   0  0  0  0  0  1  0  0  0  0  0  0
  1 18  1  0  0  0  0
  1 36  1  0  0  0  0
  2  1  2  0  0  0  0
  3  2  1  6  0  0  0
  4  3  1  0  0  0  0
  5  3  1  0  0  0  0
  6  7  1  1  0  0  0
  6  5  1  0  0  0  0
  6  4  1  0  0  0  0
  8 10  1  0  0  0  0
  9 10  1  0  0  0  0
  9  7  1  0  0  0  0
 11 14  1  1  0  0  0
 11 15  1  0  0  0  0
 11 13  1  0  0  0  0
 12 15  1  0  0  0  0
 13  9  1  0  0  0  0
 15  8  1  0  0  0  0
 15 16  1  0  0  0  0
 17 19  1  0  0  0  0
 17 18  2  0  0  0  0
 19 20  3  0  0  0  0
 20 21  1  0  0  0  0
 23 21  1  6  0  0  0
 23 22  1  0  0  0  0
 24 28  1  6  0  0  0
 24 23  1  0  0  0  0
 24 25  1  0  0  0  0
 25 26  1  6  0  0  0
 25 22  1  0  0  0  0
 25 35  1  0  0  0  0
 27 31  1  0  0  0  0
 28 31  1  6  0  0  0
 29 28  1  0  0  0  0
 30 29  1  0  0  0  0
 32 27  2  0  0  0  0
 32 30  1  0  0  0  0
 35 34  2  0  0  0  0
 35 33  1  0  0  0  0
 36 37  1  0  0  0  0
 37 38  1  0  0  0  0
 38 39  1  0  0  0  0
 40 39  1  0  0  0  0
 41 40  1  0  0  0  0
 41 42  1  0  0  0  0
 43 46  1  0  0  0  0
 45 44  1  6  0  0  0
 45 46  1  0  0  0  0
 45 51  1  0  0  0  0
 46 42  1  6  0  0  0
 47 44  1  1  0  0  0
 47 43  1  0  0  0  0
 49 51  1  0  0  0  0
 49 50  1  0  0  0  0
 50 53  1  0  0  0  0
 51 48  1  6  0  0  0
 53 48  1  0  0  0  0
 53 52  1  1  0  0  0
 54 55  1  0  0  0  0
 55 57  1  0  0  0  0
 56 55  1  0  0  0  0
 57 54  1  6  0  0  0
 57 47  1  0  0  0  0
 58 55  1  0  0  0  0
M  END
>  <MODEL>
1

>  <REMARK>
 VINA RESULT:      -5.8      0.000      0.000
  Name = 
  19 active torsions:
  status: ('A' for Active; 'I' for Inactive)
    1  A    between atoms: C_1  and  C_27
    2  A    between atoms: C_1  and  C_32
    3  A    between atoms: C_5  and  C_21
    4  A    between atoms: C_6  and  C_14
    5  A    between atoms: N_7  and  C_18
    6  A    between atoms: C_8  and  C_17
    7  A    between atoms: C_12  and  O_15
    8  A    between atoms: C_12  and  C_27
    9  A    between atoms: S_13  and  C_43
   10  A    between atoms: S_13  and  S_47
   11  A    between atoms: O_15  and  C_17
   12  A    between atoms: C_16  and  C_46
   13  A    between atoms: C_18  and  C_39
   14  A    between atoms: C_24  and  C_46
   15  A    between atoms: C_26  and  C_33
   16  A    between atoms: C_29  and  C_54
   17  A    between atoms: C_32  and  S_47
   18  A    between atoms: C_40  and  C_44
   19  A    between atoms: C_48  and  C_49
                            x       y       z     vdW  Elec       q    Type
                         _______ _______ _______ _____ _____    ______ ____

>  <TORSDO>
F 19

$$$$
=
 OpenBabel11042419123D

 58 64  0  0  1  0  0  0  0  0999 V2000
  193.9770  175.6250  143.1550 C   0  0  0  0  0  0  0  0  0  0  0  0
  192.9170  176.4180  143.2300 C   0  0  0  0  0  3  0  0  0  0  0  0
  192.0410  176.4720  144.4380 C   0  0  1  0  0  3  0  0  0  0  0  0
  191.0750  178.0050  144.4050 S   0  0  0  0  0  0  0  0  0  0  0  0
  190.9410  175.5370  144.2780 N   0  0  0  0  0  2  0  0  0  0  0  0
  189.9420  176.5900  144.1680 C   0  0  1  0  0  3  0  0  0  0  0  0
  188.8930  176.4150  145.2810 C   0  0  0  0  0  2  0  0  0  0  0  0
  185.0920  177.5870  145.4850 S   0  0  0  0  0  0  0  0  0  0  0  0
  187.5370  176.7100  144.8350 N   0  0  0  0  0  0  0  0  0  0  0  0
  186.8840  177.5400  145.8390 C   0  0  0  0  0  2  0  0  0  0  0  0
  186.2850  177.6320  142.9590 C   0  0  2  0  0  3  0  0  0  0  0  0
  183.8970  178.3530  143.1790 C   0  0  0  0  0  1  0  0  0  0  0  0
  187.6440  177.5290  143.6400 C   0  0  0  0  0  2  0  0  0  0  0  0
  186.4810  178.3120  141.6060 C   0  0  0  0  0  1  0  0  0  0  0  0
  185.2620  178.3840  143.8480 C   0  0  0  0  0  0  0  0  0  0  0  0
  185.6640  179.8380  144.0610 C   0  0  0  0  0  1  0  0  0  0  0  0
  194.4040  175.0380  140.8040 C   0  0  0  0  0  3  0  0  0  0  0  0
  194.7540  175.6690  141.9080 C   0  0  0  0  0  3  0  0  0  0  0  0
  195.2510  175.1210  139.6530 C   0  0  0  0  0  0  0  0  0  0  0  0
  195.9820  175.1730  138.6940 C   0  0  0  0  0  0  0  0  0  0  0  0
  196.8790  175.1790  137.5380 C   0  0  0  0  0  2  0  0  0  0  0  0
  195.2440  173.3240  137.0630 C   0  0  0  0  0  2  0  0  0  0  0  0
  196.3510  174.2050  136.4840 C   0  0  1  0  0  3  0  0  0  0  0  0
  195.3460  174.7940  135.4770 C   0  0  1  0  0  3  0  0  0  0  0  0
  194.2540  173.8880  136.0670 C   0  0  2  0  0  0  0  0  0  0  0  0
  193.2160  174.5600  136.7120 O   0  0  0  0  0  1  0  0  0  0  0  0
  195.9310  178.5160  134.6790 C   0  0  0  0  0  3  0  0  0  0  0  0
  195.0910  176.3060  135.5700 C   0  0  2  0  0  3  0  0  0  0  0  0
  193.7920  176.6680  134.8560 C   0  0  0  0  0  2  0  0  0  0  0  0
  193.5000  178.1470  135.0740 C   0  0  0  0  0  2  0  0  0  0  0  0
  196.2270  177.0480  134.8630 C   0  0  0  0  0  2  0  0  0  0  0  0
  194.6850  179.0080  134.7230 C   0  0  0  0  0  3  0  0  0  0  0  0
  192.4140  172.8270  134.7390 O   0  0  0  0  0  1  0  0  0  0  0  0
  194.5480  172.0020  134.6180 O   0  0  0  0  0  0  0  0  0  0  0  0
  193.7590  172.8600  135.0970 C   0  0  0  0  0  0  0  0  0  0  0  0
  194.3030  174.8100  144.2560 O   0  0  0  0  0  0  0  0  0  0  0  0
  195.3300  173.8310  144.2340 C   0  0  0  0  0  2  0  0  0  0  0  0
  194.7130  172.4510  144.1880 C   0  0  0  0  0  2  0  0  0  0  0  0
  193.3430  172.5490  143.5520 C   0  0  0  0  0  2  0  0  0  0  0  0
  192.4180  171.4920  144.1210 C   0  0  0  0  0  2  0  0  0  0  0  0
  190.7410  171.7990  143.4960 S   0  0  0  0  0  0  0  0  0  0  0  0
  190.9130  170.3520  141.9180 S   0  0  0  0  0  0  0  0  0  0  0  0
  190.3290  172.3980  140.2550 O   0  0  0  0  0  0  0  0  0  0  0  0
  191.1790  171.5370  138.2660 O   0  0  0  0  0  0  0  0  0  0  0  0
  191.7100  170.7770  139.2970 C   0  0  2  0  0  3  0  0  0  0  0  0
  191.3590  171.5100  140.5650 C   0  0  2  0  0  3  0  0  0  0  0  0
  190.1320  172.2600  138.8650 C   0  0  2  0  0  3  0  0  0  0  0  0
  194.0460  171.4710  140.0290 C   0  0  0  0  0  2  0  0  0  0  0  0
  193.6020  169.2120  139.3400 N   0  0  0  0  0  2  0  0  0  0  0  0
  194.8200  169.2350  140.0540 N   0  0  0  0  0  2  0  0  0  0  0  0
  193.2230  170.6000  139.1040 C   0  0  1  0  0  3  0  0  0  0  0  0
  196.1540  170.9130  141.0910 N   0  0  0  0  0  1  0  0  0  0  0  0
  194.7970  170.4540  140.8400 C   0  0  1  0  0  3  0  0  0  0  0  0
  188.5460  173.9350  137.9140 C   0  0  0  0  0  2  0  0  0  0  0  0
  189.4830  173.5500  136.7970 C   0  0  0  0  0  0  0  0  0  0  0  0
  189.8230  174.5880  135.9310 O   0  0  0  0  0  1  0  0  0  0  0  0
  190.0170  173.6350  138.2150 C   0  0  2  0  0  3  0  0  0  0  0  0
  189.2470  172.2920  136.2360 O   0  0  0  0  0  1  0  0  0  0  0  0
  1  2  2  0  0  0  0
  1 36  1  0  0  0  0
  3  2  1  6  0  0  0
  4  3  1  0  0  0  0
  5  3  1  0  0  0  0
  6  5  1  0  0  0  0
  6  4  1  0  0  0  0
  6  7  1  1  0  0  0
  8 10  1  0  0  0  0
  9  7  1  0  0  0  0
  9 10  1  0  0  0  0
 11 14  1  6  0  0  0
 11 13  1  0  0  0  0
 11 15  1  0  0  0  0
 12 15  1  0  0  0  0
 13  9  1  0  0  0  0
 15 16  1  0  0  0  0
 15  8  1  0  0  0  0
 17 18  2  0  0  0  0
 18  1  1  0  0  0  0
 19 17  1  0  0  0  0
 20 19  3  0  0  0  0
 21 20  1  0  0  0  0
 23 22  1  0  0  0  0
 23 21  1  1  0  0  0
 24 28  1  1  0  0  0
 24 25  1  0  0  0  0
 24 23  1  0  0  0  0
 25 26  1  1  0  0  0
 25 22  1  0  0  0  0
 27 32  2  0  0  0  0
 27 31  1  0  0  0  0
 28 29  1  6  0  0  0
 29 30  1  0  0  0  0
 31 28  1  0  0  0  0
 32 30  1  0  0  0  0
 33 35  1  0  0  0  0
 34 35  2  0  0  0  0
 35 25  1  0  0  0  0
 37 36  1  0  0  0  0
 38 37  1  0  0  0  0
 39 40  1  0  0  0  0
 39 38  1  0  0  0  0
 41 40  1  0  0  0  0
 42 41  1  0  0  0  0
 43 46  1  0  0  0  0
 45 44  1  6  0  0  0
 45 46  1  0  0  0  0
 46 42  1  1  0  0  0
 47 44  1  6  0  0  0
 47 43  1  0  0  0  0
 48 53  1  0  0  0  0
 49 50  1  0  0  0  0
 50 53  1  0  0  0  0
 51 45  1  0  0  0  0
 51 49  1  0  0  0  0
 51 48  1  1  0  0  0
 53 52  1  6  0  0  0
 55 54  1  0  0  0  0
 55 57  1  0  0  0  0
 56 55  1  0  0  0  0
 57 54  1  1  0  0  0
 57 47  1  0  0  0  0
 58 55  1  0  0  0  0
M  END
>  <MODEL>
2

>  <REMARK>
 VINA RESULT:      -5.8      3.539      9.687
  Name = 
  19 active torsions:
  status: ('A' for Active; 'I' for Inactive)
    1  A    between atoms: C_1  and  C_27
    2  A    between atoms: C_1  and  C_32
    3  A    between atoms: C_5  and  C_21
    4  A    between atoms: C_6  and  C_14
    5  A    between atoms: N_7  and  C_18
    6  A    between atoms: C_8  and  C_17
    7  A    between atoms: C_12  and  O_15
    8  A    between atoms: C_12  and  C_27
    9  A    between atoms: S_13  and  C_43
   10  A    between atoms: S_13  and  S_47
   11  A    between atoms: O_15  and  C_17
   12  A    between atoms: C_16  and  C_46
   13  A    between atoms: C_18  and  C_39
   14  A    between atoms: C_24  and  C_46
   15  A    between atoms: C_26  and  C_33
   16  A    between atoms: C_29  and  C_54
   17  A    between atoms: C_32  and  S_47
   18  A    between atoms: C_40  and  C_44
   19  A    between atoms: C_48  and  C_49
                            x       y       z     vdW  Elec       q    Type
                         _______ _______ _______ _____ _____    ______ ____

>  <TORSDO>
F 19

$$$$
=
 OpenBabel11042419123D

 58 64  0  0  1  0  0  0  0  0999 V2000
  189.7700  173.6800  141.3200 C   0  0  0  0  0  0  0  0  0  0  0  0
  189.4340  174.9620  141.3640 C   0  0  0  0  0  3  0  0  0  0  0  0
  188.4000  175.4870  142.3030 C   0  0  1  0  0  3  0  0  0  0  0  0
  188.4480  177.2990  142.2900 S   0  0  0  0  0  0  0  0  0  0  0  0
  187.0820  175.3160  141.7140 N   0  0  0  0  0  2  0  0  0  0  0  0
  186.8760  176.7450  141.5370 C   0  0  1  0  0  3  0  0  0  0  0  0
  185.6120  177.1760  142.3040 C   0  0  0  0  0  2  0  0  0  0  0  0
  185.3630  180.0350  145.0660 S   0  0  0  0  0  0  0  0  0  0  0  0
  185.9120  177.9170  143.5240 N   0  0  0  0  0  0  0  0  0  0  0  0
  184.8240  178.8480  143.7860 C   0  0  0  0  0  2  0  0  0  0  0  0
  186.4890  177.6090  145.8710 C   0  0  2  0  0  3  0  0  0  0  0  0
  186.2930  179.4620  147.5440 C   0  0  0  0  0  1  0  0  0  0  0  0
  185.9030  176.9640  144.6200 C   0  0  0  0  0  2  0  0  0  0  0  0
  186.6610  176.5230  146.9300 C   0  0  0  0  0  1  0  0  0  0  0  0
  185.6060  178.7780  146.3720 C   0  0  0  0  0  0  0  0  0  0  0  0
  184.2370  178.2920  146.8310 C   0  0  0  0  0  1  0  0  0  0  0  0
  190.5680  173.1030  139.0650 C   0  0  0  0  0  3  0  0  0  0  0  0
  190.8030  173.2950  140.3490 C   0  0  0  0  0  3  0  0  0  0  0  0
  191.6420  172.6970  138.2110 C   0  0  0  0  0  0  0  0  0  0  0  0
  192.5450  172.3300  137.4990 C   0  0  0  0  0  0  0  0  0  0  0  0
  193.6130  171.8350  136.6300 C   0  0  0  0  0  2  0  0  0  0  0  0
  193.4450  174.2970  136.1270 C   0  0  0  0  0  2  0  0  0  0  0  0
  194.2240  173.0080  135.8630 C   0  0  1  0  0  3  0  0  0  0  0  0
  195.4750  173.6410  136.4990 C   0  0  1  0  0  3  0  0  0  0  0  0
  194.6740  174.9300  136.7420 C   0  0  2  0  0  0  0  0  0  0  0  0
  194.4620  175.2480  138.0830 O   0  0  0  0  0  1  0  0  0  0  0  0
  197.6940  171.1850  138.4670 C   0  0  0  0  0  3  0  0  0  0  0  0
  196.0300  172.9470  137.7520 C   0  0  2  0  0  3  0  0  0  0  0  0
  196.9170  173.9080  138.5390 C   0  0  0  0  0  2  0  0  0  0  0  0
  197.3480  173.2360  139.8360 C   0  0  0  0  0  2  0  0  0  0  0  0
  196.9020  171.7650  137.3220 C   0  0  0  0  0  2  0  0  0  0  0  0
  197.9410  171.8730  139.5900 C   0  0  0  0  0  3  0  0  0  0  0  0
  196.5540  176.3000  135.8100 O   0  0  0  0  0  1  0  0  0  0  0  0
  194.3790  176.9100  135.4230 O   0  0  0  0  0  0  0  0  0  0  0  0
  195.1840  176.0940  135.9480 C   0  0  0  0  0  0  0  0  0  0  0  0
  189.1410  172.7760  142.1980 O   0  0  0  0  0  0  0  0  0  0  0  0
  189.8380  171.7910  142.9460 C   0  0  0  0  0  2  0  0  0  0  0  0
  190.7450  172.4680  143.9490 C   0  0  0  0  0  2  0  0  0  0  0  0
  189.8970  173.2630  144.9190 C   0  0  0  0  0  2  0  0  0  0  0  0
  190.4950  174.6370  145.1420 C   0  0  0  0  0  2  0  0  0  0  0  0
  190.4720  174.9920  146.9220 S   0  0  0  0  0  0  0  0  0  0  0  0
  192.3830  175.9720  146.8940 S   0  0  0  0  0  0  0  0  0  0  0  0
  193.2460  173.6220  145.8820 O   0  0  0  0  0  0  0  0  0  0  0  0
  195.2890  174.3050  145.0020 O   0  0  0  0  0  0  0  0  0  0  0  0
  194.5490  175.4520  145.2450 C   0  0  2  0  0  3  0  0  0  0  0  0
  193.1550  174.9770  145.5600 C   0  0  2  0  0  3  0  0  0  0  0  0
  194.6040  173.2900  145.6920 C   0  0  2  0  0  3  0  0  0  0  0  0
  195.9530  176.3940  143.3440 C   0  0  0  0  0  2  0  0  0  0  0  0
  193.6020  175.9970  143.0450 N   0  0  0  0  0  2  0  0  0  0  0  0
  194.2020  176.1290  141.7740 N   0  0  0  0  0  2  0  0  0  0  0  0
  194.6040  176.3890  144.0300 C   0  0  1  0  0  3  0  0  0  0  0  0
  196.3970  176.5750  140.9660 N   0  0  0  0  0  1  0  0  0  0  0  0
  195.6170  175.8760  141.9750 C   0  0  1  0  0  3  0  0  0  0  0  0
  194.6970  170.8070  145.9110 C   0  0  0  0  0  2  0  0  0  0  0  0
  195.9940  171.2290  145.2660 C   0  0  0  0  0  0  0  0  0  0  0  0
  196.4850  170.3480  144.3040 O   0  0  0  0  0  1  0  0  0  0  0  0
  194.7180  171.9770  144.9250 C   0  0  2  0  0  3  0  0  0  0  0  0
  196.9170  171.8230  146.1300 O   0  0  0  0  0  1  0  0  0  0  0  0
  1  2  2  0  0  0  0
  1 36  1  0  0  0  0
  3  2  1  6  0  0  0
  4  3  1  0  0  0  0
  5  3  1  0  0  0  0
  6  5  1  0  0  0  0
  6  4  1  0  0  0  0
  6  7  1  1  0  0  0
  7  9  1  0  0  0  0
  8 15  1  0  0  0  0
  9 10  1  0  0  0  0
  9 13  1  0  0  0  0
 10  8  1  0  0  0  0
 11 15  1  0  0  0  0
 11 14  1  1  0  0  0
 13 11  1  0  0  0  0
 15 16  1  0  0  0  0
 15 12  1  0  0  0  0
 17 18  2  0  0  0  0
 18  1  1  0  0  0  0
 19 17  1  0  0  0  0
 20 19  3  0  0  0  0
 21 20  1  0  0  0  0
 22 25  1  0  0  0  0
 23 22  1  0  0  0  0
 23 24  1  0  0  0  0
 23 21  1  1  0  0  0
 24 25  1  0  0  0  0
 24 28  1  1  0  0  0
 25 26  1  1  0  0  0
 27 32  2  0  0  0  0
 28 31  1  6  0  0  0
 28 29  1  0  0  0  0
 29 30  1  0  0  0  0
 31 27  1  0  0  0  0
 32 30  1  0  0  0  0
 33 35  1  0  0  0  0
 34 35  2  0  0  0  0
 35 25  1  0  0  0  0
 36 37  1  0  0  0  0
 37 38  1  0  0  0  0
 38 39  1  0  0  0  0
 39 40  1  0  0  0  0
 40 41  1  0  0  0  0
 42 41  1  0  0  0  0
 45 44  1  6  0  0  0
 45 46  1  0  0  0  0
 46 43  1  0  0  0  0
 46 42  1  1  0  0  0
 47 44  1  6  0  0  0
 47 43  1  0  0  0  0
 49 51  1  0  0  0  0
 50 53  1  0  0  0  0
 50 49  1  0  0  0  0
 51 48  1  6  0  0  0
 51 45  1  0  0  0  0
 53 52  1  6  0  0  0
 53 48  1  0  0  0  0
 55 54  1  0  0  0  0
 55 58  1  0  0  0  0
 56 55  1  0  0  0  0
 57 55  1  0  0  0  0
 57 47  1  0  0  0  0
 57 54  1  1  0  0  0
M  END
>  <MODEL>
3

>  <REMARK>
 VINA RESULT:      -5.6      3.545     10.552
  Name = 
  19 active torsions:
  status: ('A' for Active; 'I' for Inactive)
    1  A    between atoms: C_1  and  C_27
    2  A    between atoms: C_1  and  C_32
    3  A    between atoms: C_5  and  C_21
    4  A    between atoms: C_6  and  C_14
    5  A    between atoms: N_7  and  C_18
    6  A    between atoms: C_8  and  C_17
    7  A    between atoms: C_12  and  O_15
    8  A    between atoms: C_12  and  C_27
    9  A    between atoms: S_13  and  C_43
   10  A    between atoms: S_13  and  S_47
   11  A    between atoms: O_15  and  C_17
   12  A    between atoms: C_16  and  C_46
   13  A    between atoms: C_18  and  C_39
   14  A    between atoms: C_24  and  C_46
   15  A    between atoms: C_26  and  C_33
   16  A    between atoms: C_29  and  C_54
   17  A    between atoms: C_32  and  S_47
   18  A    between atoms: C_40  and  C_44
   19  A    between atoms: C_48  and  C_49
                            x       y       z     vdW  Elec       q    Type
                         _______ _______ _______ _____ _____    ______ ____

>  <TORSDO>
F 19

$$$$
=
 OpenBabel11042419123D

 58 64  0  0  1  0  0  0  0  0999 V2000
  194.7130  175.9160  142.8300 C   0  0  0  0  0  0  0  0  0  0  0  0
  195.0770  175.5070  141.6220 C   0  0  0  0  0  3  0  0  0  0  0  0
  196.4200  174.9160  141.3480 C   0  0  1  0  0  3  0  0  0  0  0  0
  196.3310  173.1170  141.5480 S   0  0  0  0  0  0  0  0  0  0  0  0
  196.6770  174.9470  139.9180 N   0  0  0  0  0  2  0  0  0  0  0  0
  196.6070  173.5000  139.7810 C   0  0  1  0  0  3  0  0  0  0  0  0
  197.9380  172.9760  139.2130 C   0  0  0  0  0  2  0  0  0  0  0  0
  197.6940  169.1940  137.9870 S   0  0  0  0  0  0  0  0  0  0  0  0
  197.7630  171.8520  138.3000 N   0  0  0  0  0  0  0  0  0  0  0  0
  197.5250  170.6470  139.0820 C   0  0  0  0  0  2  0  0  0  0  0  0
  196.4530  171.1150  136.3820 C   0  0  2  0  0  3  0  0  0  0  0  0
  196.3490  168.7120  135.6870 C   0  0  0  0  0  1  0  0  0  0  0  0
  196.5440  172.0930  137.5480 C   0  0  0  0  0  2  0  0  0  0  0  0
  195.2820  171.5370  135.4980 C   0  0  0  0  0  1  0  0  0  0  0  0
  196.3130  169.6550  136.8800 C   0  0  0  0  0  0  0  0  0  0  0  0
  195.0050  169.4380  137.6290 C   0  0  0  0  0  1  0  0  0  0  0  0
  192.6730  176.4710  144.0890 C   0  0  0  0  0  3  0  0  0  0  0  0
  193.3630  176.4790  142.9640 C   0  0  0  0  0  3  0  0  0  0  0  0
  191.3510  177.0180  144.1010 C   0  0  0  0  0  0  0  0  0  0  0  0
  190.2430  177.4970  144.0940 C   0  0  0  0  0  0  0  0  0  0  0  0
  188.9070  178.0910  144.0290 C   0  0  0  0  0  2  0  0  0  0  0  0
  187.6450  178.2060  146.2060 C   0  0  0  0  0  2  0  0  0  0  0  0
  187.9770  177.3440  144.9870 C   0  0  1  0  0  3  0  0  0  0  0  0
  186.4880  177.3340  144.5970 C   0  0  1  0  0  3  0  0  0  0  0  0
  186.1780  178.1890  145.8360 C   0  0  2  0  0  0  0  0  0  0  0  0
  185.7100  179.4740  145.5630 O   0  0  0  0  0  1  0  0  0  0  0  0
  186.3550  177.5620  140.7550 C   0  0  0  0  0  3  0  0  0  0  0  0
  186.1320  177.9600  143.2400 C   0  0  2  0  0  3  0  0  0  0  0  0
  184.6320  177.8490  142.9840 C   0  0  0  0  0  2  0  0  0  0  0  0
  184.2920  178.5880  141.6970 C   0  0  0  0  0  2  0  0  0  0  0  0
  186.8460  177.1850  142.1310 C   0  0  0  0  0  2  0  0  0  0  0  0
  185.1700  178.1530  140.5530 C   0  0  0  0  0  3  0  0  0  0  0  0
  185.2280  177.9650  148.1440 O   0  0  0  0  0  1  0  0  0  0  0  0
  184.7380  176.4060  146.5370 O   0  0  0  0  0  0  0  0  0  0  0  0
  185.3350  177.4720  146.8460 C   0  0  0  0  0  0  0  0  0  0  0  0
  195.6180  175.7780  143.9010 O   0  0  0  0  0  0  0  0  0  0  0  0
  195.2200  175.4980  145.2350 C   0  0  0  0  0  2  0  0  0  0  0  0
  195.7150  174.1260  145.6320 C   0  0  0  0  0  2  0  0  0  0  0  0
  194.5930  173.1270  145.4400 C   0  0  0  0  0  2  0  0  0  0  0  0
  195.1500  171.7790  145.0300 C   0  0  0  0  0  2  0  0  0  0  0  0
  193.7580  170.6490  144.7370 S   0  0  0  0  0  0  0  0  0  0  0  0
  194.3090  170.2760  142.6950 S   0  0  0  0  0  0  0  0  0  0  0  0
  192.4610  169.4900  140.8900 O   0  0  0  0  0  0  0  0  0  0  0  0
  191.6040  171.5670  140.2810 O   0  0  0  0  0  0  0  0  0  0  0  0
  192.3140  171.7500  141.4590 C   0  0  2  0  0  3  0  0  0  0  0  0
  192.6290  170.3660  141.9630 C   0  0  2  0  0  3  0  0  0  0  0  0
  191.9950  170.2940  139.8290 C   0  0  2  0  0  3  0  0  0  0  0  0
  190.5610  173.5660  141.7810 C   0  0  0  0  0  2  0  0  0  0  0  0
  190.6790  171.7010  143.2910 N   0  0  0  0  0  2  0  0  0  0  0  0
  189.4200  172.3230  143.4400 N   0  0  0  0  0  2  0  0  0  0  0  0
  191.4890  172.5790  142.4540 C   0  0  1  0  0  3  0  0  0  0  0  0
  188.3360  174.2190  142.4910 N   0  0  0  0  0  1  0  0  0  0  0  0
  189.2090  173.0870  142.2240 C   0  0  1  0  0  3  0  0  0  0  0  0
  191.3410  168.7800  137.9570 C   0  0  0  0  0  2  0  0  0  0  0  0
  190.6500  170.0970  137.7040 C   0  0  0  0  0  0  0  0  0  0  0  0
  189.3740  169.9940  137.1530 O   0  0  0  0  0  1  0  0  0  0  0  0
  190.8220  169.6130  139.1320 C   0  0  2  0  0  3  0  0  0  0  0  0
  191.4790  171.1170  137.2300 O   0  0  0  0  0  1  0  0  0  0  0  0
  1 18  1  0  0  0  0
  1 36  1  0  0  0  0
  2  1  2  0  0  0  0
  3  4  1  0  0  0  0
  3  2  1  6  0  0  0
  5  3  1  0  0  0  0
  6  7  1  1  0  0  0
  6  5  1  0  0  0  0
  6  4  1  0  0  0  0
  8 10  1  0  0  0  0
  9 10  1  0  0  0  0
  9  7  1  0  0  0  0
 11 14  1  6  0  0  0
 11 15  1  0  0  0  0
 11 13  1  0  0  0  0
 12 15  1  0  0  0  0
 13  9  1  0  0  0  0
 15 16  1  0  0  0  0
 15  8  1  0  0  0  0
 17 19  1  0  0  0  0
 18 17  2  0  0  0  0
 20 19  3  0  0  0  0
 21 20  1  0  0  0  0
 23 21  1  6  0  0  0
 23 22  1  0  0  0  0
 24 28  1  6  0  0  0
 24 23  1  0  0  0  0
 24 25  1  0  0  0  0
 25 26  1  6  0  0  0
 25 22  1  0  0  0  0
 25 35  1  0  0  0  0
 27 31  1  0  0  0  0
 28 31  1  6  0  0  0
 29 28  1  0  0  0  0
 30 29  1  0  0  0  0
 32 27  2  0  0  0  0
 32 30  1  0  0  0  0
 34 35  2  0  0  0  0
 35 33  1  0  0  0  0
 36 37  1  0  0  0  0
 37 38  1  0  0  0  0
 39 38  1  0  0  0  0
 40 39  1  0  0  0  0
 41 40  1  0  0  0  0
 42 41  1  0  0  0  0
 43 46  1  0  0  0  0
 45 44  1  6  0  0  0
 45 46  1  0  0  0  0
 45 51  1  0  0  0  0
 46 42  1  6  0  0  0
 47 44  1  1  0  0  0
 47 43  1  0  0  0  0
 48 53  1  0  0  0  0
 49 50  1  0  0  0  0
 51 48  1  6  0  0  0
 51 49  1  0  0  0  0
 53 52  1  1  0  0  0
 53 50  1  0  0  0  0
 55 54  1  0  0  0  0
 55 57  1  0  0  0  0
 56 55  1  0  0  0  0
 57 54  1  6  0  0  0
 57 47  1  0  0  0  0
 58 55  1  0  0  0  0
M  END
>  <MODEL>
4

>  <REMARK>
 VINA RESULT:      -5.4      1.782      2.341
  Name = 
  19 active torsions:
  status: ('A' for Active; 'I' for Inactive)
    1  A    between atoms: C_1  and  C_27
    2  A    between atoms: C_1  and  C_32
    3  A    between atoms: C_5  and  C_21
    4  A    between atoms: C_6  and  C_14
    5  A    between atoms: N_7  and  C_18
    6  A    between atoms: C_8  and  C_17
    7  A    between atoms: C_12  and  O_15
    8  A    between atoms: C_12  and  C_27
    9  A    between atoms: S_13  and  C_43
   10  A    between atoms: S_13  and  S_47
   11  A    between atoms: O_15  and  C_17
   12  A    between atoms: C_16  and  C_46
   13  A    between atoms: C_18  and  C_39
   14  A    between atoms: C_24  and  C_46
   15  A    between atoms: C_26  and  C_33
   16  A    between atoms: C_29  and  C_54
   17  A    between atoms: C_32  and  S_47
   18  A    between atoms: C_40  and  C_44
   19  A    between atoms: C_48  and  C_49
                            x       y       z     vdW  Elec       q    Type
                         _______ _______ _______ _____ _____    ______ ____

>  <TORSDO>
F 19

$$$$
=
 OpenBabel11042419123D

 58 64  0  0  1  0  0  0  0  0999 V2000
  191.0170  172.7680  139.9550 C   0  0  0  0  0  0  0  0  0  0  0  0
  190.1920  171.7650  139.6910 C   0  0  0  0  0  3  0  0  0  0  0  0
  190.6240  170.5490  138.9390 C   0  0  1  0  0  3  0  0  0  0  0  0
  190.1930  170.7460  137.1890 S   0  0  0  0  0  0  0  0  0  0  0  0
  192.0700  170.5620  138.7920 N   0  0  0  0  0  2  0  0  0  0  0  0
  192.0140  170.7750  137.3540 C   0  0  1  0  0  3  0  0  0  0  0  0
  192.7390  169.6210  136.6390 C   0  0  0  0  0  2  0  0  0  0  0  0
  195.3050  172.0030  134.7410 S   0  0  0  0  0  0  0  0  0  0  0  0
  193.9720  170.0430  135.9860 N   0  0  0  0  0  0  0  0  0  0  0  0
  193.9770  171.4970  135.8880 C   0  0  0  0  0  2  0  0  0  0  0  0
  196.3970  169.8400  136.1330 C   0  0  2  0  0  3  0  0  0  0  0  0
  197.9380  171.3900  134.9110 C   0  0  0  0  0  1  0  0  0  0  0  0
  195.0710  169.6940  136.8700 C   0  0  0  0  0  2  0  0  0  0  0  0
  197.4990  169.2630  137.0170 C   0  0  0  0  0  1  0  0  0  0  0  0
  196.6700  171.3150  135.7470 C   0  0  0  0  0  0  0  0  0  0  0  0
  196.8490  172.1950  136.9780 C   0  0  0  0  0  1  0  0  0  0  0  0
  190.7090  174.1310  141.9810 C   0  0  0  0  0  3  0  0  0  0  0  0
  190.4630  173.9050  140.7040 C   0  0  0  0  0  3  0  0  0  0  0  0
  190.0920  175.2520  142.6230 C   0  0  0  0  0  0  0  0  0  0  0  0
  189.5580  176.2010  143.1420 C   0  0  0  0  0  0  0  0  0  0  0  0
  188.8640  177.3420  143.7410 C   0  0  0  0  0  2  0  0  0  0  0  0
  187.4530  177.8100  145.7740 C   0  0  0  0  0  2  0  0  0  0  0  0
  187.7310  176.8310  144.6330 C   0  0  1  0  0  3  0  0  0  0  0  0
  186.3060  177.0600  144.0970 C   0  0  1  0  0  3  0  0  0  0  0  0
  186.0460  178.0300  145.2600 C   0  0  2  0  0  0  0  0  0  0  0  0
  185.8460  179.3580  144.8860 O   0  0  0  0  0  1  0  0  0  0  0  0
  186.5180  177.0570  140.2520 C   0  0  0  0  0  3  0  0  0  0  0  0
  186.1950  177.6550  142.6850 C   0  0  2  0  0  3  0  0  0  0  0  0
  184.7290  177.8380  142.3030 C   0  0  0  0  0  2  0  0  0  0  0  0
  184.6500  178.5450  140.9570 C   0  0  0  0  0  2  0  0  0  0  0  0
  186.8130  176.6790  141.6820 C   0  0  0  0  0  2  0  0  0  0  0  0
  185.5030  177.8650  139.9180 C   0  0  0  0  0  3  0  0  0  0  0  0
  184.0520  178.4160  146.7280 O   0  0  0  0  0  1  0  0  0  0  0  0
  184.9820  176.3270  146.5700 O   0  0  0  0  0  0  0  0  0  0  0  0
  184.9990  177.5350  146.2110 C   0  0  0  0  0  0  0  0  0  0  0  0
  192.3550  172.6870  139.5250 O   0  0  0  0  0  0  0  0  0  0  0  0
  193.1210  173.8110  139.1210 C   0  0  0  0  0  2  0  0  0  0  0  0
  194.2300  174.0530  140.1200 C   0  0  0  0  0  2  0  0  0  0  0  0
  194.8540  175.4050  139.8440 C   0  0  0  0  0  2  0  0  0  0  0  0
  196.2350  175.2380  139.2450 C   0  0  0  0  0  2  0  0  0  0  0  0
  197.4410  175.1440  140.6000 S   0  0  0  0  0  0  0  0  0  0  0  0
  196.5290  176.7420  141.7080 S   0  0  0  0  0  0  0  0  0  0  0  0
  197.3510  174.8230  143.4220 O   0  0  0  0  0  0  0  0  0  0  0  0
  195.2970  174.2010  144.3230 O   0  0  0  0  0  0  0  0  0  0  0  0
  195.1090  175.4190  143.6870 C   0  0  2  0  0  3  0  0  0  0  0  0
  196.4890  175.9180  143.3470 C   0  0  2  0  0  3  0  0  0  0  0  0
  196.5450  173.7510  143.8590 C   0  0  2  0  0  3  0  0  0  0  0  0
  192.8520  176.0640  144.6700 C   0  0  0  0  0  2  0  0  0  0  0  0
  194.8650  176.3350  145.9530 N   0  0  0  0  0  2  0  0  0  0  0  0
  193.7610  176.3790  146.8320 N   0  0  0  0  0  2  0  0  0  0  0  0
  194.3300  176.3800  144.5980 C   0  0  1  0  0  3  0  0  0  0  0  0
  191.3950  176.2650  146.5990 N   0  0  0  0  0  1  0  0  0  0  0  0
  192.6660  175.7420  146.1260 C   0  0  1  0  0  3  0  0  0  0  0  0
  197.8910  171.7150  144.3760 C   0  0  0  0  0  2  0  0  0  0  0  0
  196.6320  171.6170  145.2010 C   0  0  0  0  0  0  0  0  0  0  0  0
  196.8010  171.0560  146.4660 O   0  0  0  0  0  1  0  0  0  0  0  0
  197.2590  172.9790  144.9630 C   0  0  2  0  0  3  0  0  0  0  0  0
  195.4840  171.2660  144.4860 O   0  0  0  0  0  1  0  0  0  0  0  0
  1 18  1  0  0  0  0
  2  1  2  0  0  0  0
  3  2  1  1  0  0  0
  4  6  1  0  0  0  0
  4  3  1  0  0  0  0
  5  3  1  0  0  0  0
  6  7  1  6  0  0  0
  6  5  1  0  0  0  0
  8 15  1  0  0  0  0
  8 10  1  0  0  0  0
  9  7  1  0  0  0  0
  9 13  1  0  0  0  0
 10  9  1  0  0  0  0
 11 13  1  0  0  0  0
 11 14  1  1  0  0  0
 12 15  1  0  0  0  0
 15 11  1  0  0  0  0
 15 16  1  0  0  0  0
 17 19  1  0  0  0  0
 18 17  2  0  0  0  0
 19 20  3  0  0  0  0
 20 21  1  0  0  0  0
 23 21  1  6  0  0  0
 23 22  1  0  0  0  0
 24 28  1  6  0  0  0
 24 23  1  0  0  0  0
 24 25  1  0  0  0  0
 25 26  1  6  0  0  0
 25 22  1  0  0  0  0
 25 35  1  0  0  0  0
 27 31  1  0  0  0  0
 28 31  1  6  0  0  0
 29 28  1  0  0  0  0
 30 29  1  0  0  0  0
 32 27  2  0  0  0  0
 32 30  1  0  0  0  0
 35 34  2  0  0  0  0
 35 33  1  0  0  0  0
 36  1  1  0  0  0  0
 37 36  1  0  0  0  0
 37 38  1  0  0  0  0
 39 38  1  0  0  0  0
 40 39  1  0  0  0  0
 40 41  1  0  0  0  0
 41 42  1  0  0  0  0
 45 44  1  1  0  0  0
 45 51  1  0  0  0  0
 46 42  1  6  0  0  0
 46 43  1  0  0  0  0
 46 45  1  0  0  0  0
 47 43  1  1  0  0  0
 47 44  1  0  0  0  0
 47 57  1  0  0  0  0
 48 53  1  0  0  0  0
 49 50  1  0  0  0  0
 51 48  1  1  0  0  0
 51 49  1  0  0  0  0
 53 52  1  1  0  0  0
 53 50  1  0  0  0  0
 54 55  1  0  0  0  0
 55 56  1  0  0  0  0
 57 54  1  6  0  0  0
 57 55  1  0  0  0  0
 58 55  1  0  0  0  0
M  END
>  <MODEL>
5

>  <REMARK>
 VINA RESULT:      -5.3      2.304      4.706
  Name = 
  19 active torsions:
  status: ('A' for Active; 'I' for Inactive)
    1  A    between atoms: C_1  and  C_27
    2  A    between atoms: C_1  and  C_32
    3  A    between atoms: C_5  and  C_21
    4  A    between atoms: C_6  and  C_14
    5  A    between atoms: N_7  and  C_18
    6  A    between atoms: C_8  and  C_17
    7  A    between atoms: C_12  and  O_15
    8  A    between atoms: C_12  and  C_27
    9  A    between atoms: S_13  and  C_43
   10  A    between atoms: S_13  and  S_47
   11  A    between atoms: O_15  and  C_17
   12  A    between atoms: C_16  and  C_46
   13  A    between atoms: C_18  and  C_39
   14  A    between atoms: C_24  and  C_46
   15  A    between atoms: C_26  and  C_33
   16  A    between atoms: C_29  and  C_54
   17  A    between atoms: C_32  and  S_47
   18  A    between atoms: C_40  and  C_44
   19  A    between atoms: C_48  and  C_49
                            x       y       z     vdW  Elec       q    Type
                         _______ _______ _______ _____ _____    ______ ____

>  <TORSDO>
F 19

$$$$
=
 OpenBabel11042419123D

 58 64  0  0  1  0  0  0  0  0999 V2000
  195.0250  175.7410  141.2820 C   0  0  0  0  0  0  0  0  0  0  0  0
  195.0540  175.7060  139.9570 C   0  0  0  0  0  3  0  0  0  0  0  0
  196.2240  175.1750  139.1950 C   0  0  1  0  0  3  0  0  0  0  0  0
  196.2550  173.3690  139.3330 S   0  0  0  0  0  0  0  0  0  0  0  0
  195.9510  175.2640  137.7700 N   0  0  0  0  0  2  0  0  0  0  0  0
  195.8710  173.8210  137.6040 C   0  0  1  0  0  3  0  0  0  0  0  0
  196.9230  173.3670  136.5750 C   0  0  0  0  0  2  0  0  0  0  0  0
  196.9500  169.4650  135.7770 S   0  0  0  0  0  0  0  0  0  0  0  0
  196.5730  172.1120  135.9200 N   0  0  0  0  0  0  0  0  0  0  0  0
  197.0280  171.0070  136.7540 C   0  0  0  0  0  2  0  0  0  0  0  0
  194.6860  170.8940  134.9750 C   0  0  2  0  0  3  0  0  0  0  0  0
  194.7880  168.4350  134.5130 C   0  0  0  0  0  1  0  0  0  0  0  0
  195.1230  172.0290  135.8930 C   0  0  0  0  0  2  0  0  0  0  0  0
  193.1720  170.9750  134.8040 C   0  0  0  0  0  1  0  0  0  0  0  0
  195.1390  169.5170  135.5220 C   0  0  0  0  0  0  0  0  0  0  0  0
  194.4590  169.1860  136.8440 C   0  0  0  0  0  1  0  0  0  0  0  0
  192.8180  175.5430  142.3510 C   0  0  0  0  0  3  0  0  0  0  0  0
  193.8130  176.2870  141.9070 C   0  0  0  0  0  3  0  0  0  0  0  0
  191.6670  176.1790  142.9150 C   0  0  0  0  0  0  0  0  0  0  0  0
  190.7100  176.7200  143.4130 C   0  0  0  0  0  0  0  0  0  0  0  0
  189.5850  177.4090  144.0470 C   0  0  0  0  0  2  0  0  0  0  0  0
  188.5410  177.0290  141.7860 C   0  0  0  0  0  2  0  0  0  0  0  0
  188.6770  177.9940  142.9640 C   0  0  1  0  0  3  0  0  0  0  0  0
  187.1640  177.8750  143.2270 C   0  0  1  0  0  3  0  0  0  0  0  0
  187.0520  176.9170  142.0310 C   0  0  2  0  0  0  0  0  0  0  0  0
  186.6890  175.6100  142.3540 O   0  0  0  0  0  1  0  0  0  0  0  0
  187.2910  177.4610  147.0540 C   0  0  0  0  0  3  0  0  0  0  0  0
  186.7510  177.3010  144.5910 C   0  0  2  0  0  3  0  0  0  0  0  0
  185.3810  177.8380  144.9970 C   0  0  0  0  0  2  0  0  0  0  0  0
  184.9420  177.1570  146.2860 C   0  0  0  0  0  2  0  0  0  0  0  0
  187.7560  177.7580  145.6500 C   0  0  0  0  0  2  0  0  0  0  0  0
  186.0040  177.2390  147.3510 C   0  0  0  0  0  3  0  0  0  0  0  0
  186.7760  177.5590  139.6240 O   0  0  0  0  0  0  0  0  0  0  0  0
  185.0710  177.9070  141.1150 O   0  0  0  0  0  1  0  0  0  0  0  0
  186.2380  177.4790  140.9060 C   0  0  0  0  0  0  0  0  0  0  0  0
  196.1300  175.2500  142.0050 O   0  0  0  0  0  0  0  0  0  0  0  0
  196.6160  175.8450  143.1980 C   0  0  0  0  0  2  0  0  0  0  0  0
  196.8910  174.7690  144.2240 C   0  0  0  0  0  2  0  0  0  0  0  0
  195.6200  173.9790  144.4580 C   0  0  0  0  0  2  0  0  0  0  0  0
  195.7200  172.6120  143.8110 C   0  0  0  0  0  2  0  0  0  0  0  0
  194.4910  171.5210  144.5830 S   0  0  0  0  0  0  0  0  0  0  0  0
  194.4770  170.1410  142.9370 S   0  0  0  0  0  0  0  0  0  0  0  0
  192.5180  170.1720  141.0780 O   0  0  0  0  0  0  0  0  0  0  0  0
  191.3910  172.1000  141.7330 O   0  0  0  0  0  0  0  0  0  0  0  0
  192.2120  171.7310  142.7880 C   0  0  2  0  0  3  0  0  0  0  0  0
  192.7220  170.3560  142.4460 C   0  0  2  0  0  3  0  0  0  0  0  0
  191.8520  171.3370  140.6460 C   0  0  2  0  0  3  0  0  0  0  0  0
  191.5110  173.1110  144.8090 C   0  0  0  0  0  2  0  0  0  0  0  0
  190.0220  171.4740  143.8710 N   0  0  0  0  0  2  0  0  0  0  0  0
  189.2740  172.3470  144.6910 N   0  0  0  0  0  2  0  0  0  0  0  0
  191.4300  171.7710  144.1100 C   0  0  1  0  0  3  0  0  0  0  0  0
  189.7660  174.2190  146.0770 N   0  0  0  0  0  1  0  0  0  0  0  0
  190.0750  173.5500  144.8240 C   0  0  1  0  0  3  0  0  0  0  0  0
  191.0340  171.2890  138.2890 C   0  0  0  0  0  2  0  0  0  0  0  0
  190.0860  172.1790  139.0540 C   0  0  0  0  0  0  0  0  0  0  0  0
  188.7520  172.0920  138.6600 O   0  0  0  0  0  1  0  0  0  0  0  0
  190.6810  170.9650  139.7430 C   0  0  2  0  0  3  0  0  0  0  0  0
  190.5870  173.4470  139.3630 O   0  0  0  0  0  1  0  0  0  0  0  0
  1 18  1  0  0  0  0
  1 36  1  0  0  0  0
  2  1  2  0  0  0  0
  3  4  1  0  0  0  0
  3  2  1  1  0  0  0
  5  3  1  0  0  0  0
  6  7  1  6  0  0  0
  6  5  1  0  0  0  0
  6  4  1  0  0  0  0
  8 10  1  0  0  0  0
  9  7  1  0  0  0  0
  9 10  1  0  0  0  0
 11 14  1  1  0  0  0
 11 15  1  0  0  0  0
 11 13  1  0  0  0  0
 12 15  1  0  0  0  0
 13  9  1  0  0  0  0
 15  8  1  0  0  0  0
 15 16  1  0  0  0  0
 17 19  1  0  0  0  0
 18 17  2  0  0  0  0
 19 20  3  0  0  0  0
 20 21  1  0  0  0  0
 22 25  1  0  0  0  0
 22 23  1  0  0  0  0
 23 24  1  0  0  0  0
 23 21  1  1  0  0  0
 24 28  1  1  0  0  0
 25 26  1  1  0  0  0
 25 24  1  0  0  0  0
 27 32  2  0  0  0  0
 28 29  1  1  0  0  0
 28 31  1  0  0  0  0
 29 30  1  0  0  0  0
 30 32  1  0  0  0  0
 31 27  1  0  0  0  0
 33 35  2  0  0  0  0
 35 34  1  0  0  0  0
 35 25  1  0  0  0  0
 36 37  1  0  0  0  0
 37 38  1  0  0  0  0
 38 39  1  0  0  0  0
 40 39  1  0  0  0  0
 40 41  1  0  0  0  0
 42 41  1  0  0  0  0
 43 46  1  0  0  0  0
 45 44  1  6  0  0  0
 45 51  1  0  0  0  0
 46 45  1  0  0  0  0
 46 42  1  6  0  0  0
 47 43  1  1  0  0  0
 47 44  1  0  0  0  0
 48 53  1  0  0  0  0
 49 51  1  0  0  0  0
 49 50  1  0  0  0  0
 50 53  1  0  0  0  0
 51 48  1  6  0  0  0
 53 52  1  1  0  0  0
 54 55  1  0  0  0  0
 55 58  1  0  0  0  0
 55 57  1  0  0  0  0
 56 55  1  0  0  0  0
 57 54  1  6  0  0  0
 57 47  1  0  0  0  0
M  END
>  <MODEL>
6

>  <REMARK>
 VINA RESULT:      -5.2      1.843      2.978
  Name = 
  19 active torsions:
  status: ('A' for Active; 'I' for Inactive)
    1  A    between atoms: C_1  and  C_27
    2  A    between atoms: C_1  and  C_32
    3  A    between atoms: C_5  and  C_21
    4  A    between atoms: C_6  and  C_14
    5  A    between atoms: N_7  and  C_18
    6  A    between atoms: C_8  and  C_17
    7  A    between atoms: C_12  and  O_15
    8  A    between atoms: C_12  and  C_27
    9  A    between atoms: S_13  and  C_43
   10  A    between atoms: S_13  and  S_47
   11  A    between atoms: O_15  and  C_17
   12  A    between atoms: C_16  and  C_46
   13  A    between atoms: C_18  and  C_39
   14  A    between atoms: C_24  and  C_46
   15  A    between atoms: C_26  and  C_33
   16  A    between atoms: C_29  and  C_54
   17  A    between atoms: C_32  and  S_47
   18  A    between atoms: C_40  and  C_44
   19  A    between atoms: C_48  and  C_49
                            x       y       z     vdW  Elec       q    Type
                         _______ _______ _______ _____ _____    ______ ____

>  <TORSDO>
F 19

$$$$
=
 OpenBabel11042419123D

 58 64  0  0  1  0  0  0  0  0999 V2000
  189.5150  174.2920  141.3390 C   0  0  0  0  0  0  0  0  0  0  0  0
  188.7360  175.3640  141.2750 C   0  0  0  0  0  3  0  0  0  0  0  0
  188.0200  175.9050  142.4680 C   0  0  1  0  0  3  0  0  0  0  0  0
  187.8900  177.7070  142.3180 S   0  0  0  0  0  0  0  0  0  0  0  0
  186.6040  175.5920  142.3640 N   0  0  0  0  0  2  0  0  0  0  0  0
  186.2180  176.9810  142.1700 C   0  0  1  0  0  3  0  0  0  0  0  0
  185.2390  177.3980  143.2830 C   0  0  0  0  0  2  0  0  0  0  0  0
  185.8490  179.7230  146.4580 S   0  0  0  0  0  0  0  0  0  0  0  0
  185.9100  177.9500  144.4540 N   0  0  0  0  0  0  0  0  0  0  0  0
  184.9460  178.7210  145.2260 C   0  0  0  0  0  2  0  0  0  0  0  0
  187.2540  177.3100  146.3830 C   0  0  2  0  0  3  0  0  0  0  0  0
  187.5770  178.8330  148.3440 C   0  0  0  0  0  1  0  0  0  0  0  0
  186.3000  176.8310  145.2950 C   0  0  0  0  0  2  0  0  0  0  0  0
  187.8050  176.0830  147.1050 C   0  0  0  0  0  1  0  0  0  0  0  0
  186.5560  178.2940  147.3540 C   0  0  0  0  0  0  0  0  0  0  0  0
  185.4370  177.6160  148.1350 C   0  0  0  0  0  1  0  0  0  0  0  0
  191.4100  173.4420  140.0200 C   0  0  0  0  0  3  0  0  0  0  0  0
  190.1620  173.8640  140.0910 C   0  0  0  0  0  3  0  0  0  0  0  0
  191.9530  173.0790  138.7470 C   0  0  0  0  0  0  0  0  0  0  0  0
  192.4010  172.7480  137.6770 C   0  0  0  0  0  0  0  0  0  0  0  0
  192.9010  172.3110  136.3720 C   0  0  0  0  0  2  0  0  0  0  0  0
  193.6830  174.6940  136.6000 C   0  0  0  0  0  2  0  0  0  0  0  0
  193.5500  173.4980  135.6580 C   0  0  1  0  0  3  0  0  0  0  0  0
  195.0830  173.4380  135.5270 C   0  0  1  0  0  3  0  0  0  0  0  0
  195.1900  174.6500  136.4650 C   0  0  2  0  0  0  0  0  0  0  0  0
  195.8000  174.3940  137.6920 O   0  0  0  0  0  1  0  0  0  0  0  0
  196.4970  169.8710  135.2010 C   0  0  0  0  0  3  0  0  0  0  0  0
  195.7610  172.1490  136.0120 C   0  0  2  0  0  3  0  0  0  0  0  0
  197.2490  172.3910  136.2510 C   0  0  0  0  0  2  0  0  0  0  0  0
  197.8670  171.1360  136.8510 C   0  0  0  0  0  2  0  0  0  0  0  0
  195.6400  171.0810  134.9220 C   0  0  0  0  0  2  0  0  0  0  0  0
  197.5410  169.9100  136.0390 C   0  0  0  0  0  3  0  0  0  0  0  0
  194.8900  176.8600  135.3210 O   0  0  0  0  0  0  0  0  0  0  0  0
  196.9880  175.9880  135.6150 O   0  0  0  0  0  1  0  0  0  0  0  0
  195.7460  175.8660  135.7890 C   0  0  0  0  0  0  0  0  0  0  0  0
  189.6870  173.6430  142.5770 O   0  0  0  0  0  0  0  0  0  0  0  0
  188.9920  172.4620  142.9490 C   0  0  0  0  0  2  0  0  0  0  0  0
  189.6860  171.8180  144.1290 C   0  0  0  0  0  2  0  0  0  0  0  0
  191.1130  172.3210  144.1910 C   0  0  0  0  0  2  0  0  0  0  0  0
  192.0860  171.1740  144.0070 C   0  0  0  0  0  2  0  0  0  0  0  0
  193.6540  171.8470  143.3850 S   0  0  0  0  0  0  0  0  0  0  0  0
  194.3680  172.3700  145.3420 S   0  0  0  0  0  0  0  0  0  0  0  0
  193.1960  174.7940  145.5540 O   0  0  0  0  0  0  0  0  0  0  0  0
  193.7570  175.6800  143.4770 O   0  0  0  0  0  0  0  0  0  0  0  0
  194.5770  174.5810  143.6840 C   0  0  2  0  0  3  0  0  0  0  0  0
  194.3790  174.1920  145.1250 C   0  0  2  0  0  3  0  0  0  0  0  0
  192.7560  175.5620  144.4560 C   0  0  2  0  0  3  0  0  0  0  0  0
  196.4510  174.4910  141.9650 C   0  0  0  0  0  2  0  0  0  0  0  0
  196.2370  176.3740  143.4410 N   0  0  0  0  0  2  0  0  0  0  0  0
  197.0700  176.7400  142.3610 N   0  0  0  0  0  2  0  0  0  0  0  0
  196.0340  174.9330  143.3510 C   0  0  1  0  0  3  0  0  0  0  0  0
  197.9380  175.6430  140.4340 N   0  0  0  0  0  1  0  0  0  0  0  0
  196.7790  175.7960  141.2980 C   0  0  1  0  0  3  0  0  0  0  0  0
  190.8000  177.0120  145.0030 C   0  0  0  0  0  2  0  0  0  0  0  0
  191.5290  177.6860  143.8680 C   0  0  0  0  0  0  0  0  0  0  0  0
  191.5420  179.0780  143.9230 O   0  0  0  0  0  1  0  0  0  0  0  0
  192.3280  176.9480  144.9270 C   0  0  2  0  0  3  0  0  0  0  0  0
  191.3510  177.0910  142.6160 O   0  0  0  0  0  1  0  0  0  0  0  0
  1 36  1  0  0  0  0
  2  1  2  0  0  0  0
  3  2  1  6  0  0  0
  4  3  1  0  0  0  0
  5  3  1  0  0  0  0
  6  4  1  0  0  0  0
  6  5  1  0  0  0  0
  6  7  1  1  0  0  0
  7  9  1  0  0  0  0
  8 15  1  0  0  0  0
  9 10  1  0  0  0  0
  9 13  1  0  0  0  0
 10  8  1  0  0  0  0
 11 14  1  1  0  0  0
 11 15  1  0  0  0  0
 13 11  1  0  0  0  0
 15 16  1  0  0  0  0
 15 12  1  0  0  0  0
 17 18  2  0  0  0  0
 18  1  1  0  0  0  0
 19 17  1  0  0  0  0
 20 19  3  0  0  0  0
 21 20  1  0  0  0  0
 23 21  1  1  0  0  0
 23 22  1  0  0  0  0
 24 23  1  0  0  0  0
 24 28  1  1  0  0  0
 24 25  1  0  0  0  0
 25 22  1  0  0  0  0
 25 26  1  1  0  0  0
 27 32  2  0  0  0  0
 28 31  1  6  0  0  0
 28 29  1  0  0  0  0
 29 30  1  0  0  0  0
 31 27  1  0  0  0  0
 32 30  1  0  0  0  0
 33 35  2  0  0  0  0
 34 35  1  0  0  0  0
 35 25  1  0  0  0  0
 36 37  1  0  0  0  0
 37 38  1  0  0  0  0
 38 39  1  0  0  0  0
 40 39  1  0  0  0  0
 41 40  1  0  0  0  0
 41 42  1  0  0  0  0
 45 44  1  1  0  0  0
 45 46  1  0  0  0  0
 46 42  1  6  0  0  0
 46 43  1  0  0  0  0
 47 44  1  6  0  0  0
 47 57  1  0  0  0  0
 47 43  1  0  0  0  0
 50 49  1  0  0  0  0
 51 48  1  6  0  0  0
 51 49  1  0  0  0  0
 51 45  1  0  0  0  0
 53 52  1  6  0  0  0
 53 48  1  0  0  0  0
 53 50  1  0  0  0  0
 55 56  1  0  0  0  0
 55 57  1  0  0  0  0
 55 54  1  0  0  0  0
 57 54  1  1  0  0  0
 58 55  1  0  0  0  0
M  END
>  <MODEL>
7

>  <REMARK>
 VINA RESULT:      -5.0      3.367     10.770
  Name = 
  19 active torsions:
  status: ('A' for Active; 'I' for Inactive)
    1  A    between atoms: C_1  and  C_27
    2  A    between atoms: C_1  and  C_32
    3  A    between atoms: C_5  and  C_21
    4  A    between atoms: C_6  and  C_14
    5  A    between atoms: N_7  and  C_18
    6  A    between atoms: C_8  and  C_17
    7  A    between atoms: C_12  and  O_15
    8  A    between atoms: C_12  and  C_27
    9  A    between atoms: S_13  and  C_43
   10  A    between atoms: S_13  and  S_47
   11  A    between atoms: O_15  and  C_17
   12  A    between atoms: C_16  and  C_46
   13  A    between atoms: C_18  and  C_39
   14  A    between atoms: C_24  and  C_46
   15  A    between atoms: C_26  and  C_33
   16  A    between atoms: C_29  and  C_54
   17  A    between atoms: C_32  and  S_47
   18  A    between atoms: C_40  and  C_44
   19  A    between atoms: C_48  and  C_49
                            x       y       z     vdW  Elec       q    Type
                         _______ _______ _______ _____ _____    ______ ____

>  <TORSDO>
F 19

$$$$
=
 OpenBabel11042419123D

 58 64  0  0  1  0  0  0  0  0999 V2000
  195.1470  175.2960  142.3740 C   0  0  0  0  0  0  0  0  0  0  0  0
  195.4310  175.6040  141.1160 C   0  0  0  0  0  3  0  0  0  0  0  0
  196.6960  175.1710  140.4520 C   0  0  1  0  0  3  0  0  0  0  0  0
  196.8010  173.3620  140.4910 S   0  0  0  0  0  0  0  0  0  0  0  0
  196.5650  175.3340  139.0130 N   0  0  0  0  0  2  0  0  0  0  0  0
  196.5720  173.9020  138.7590 C   0  0  1  0  0  3  0  0  0  0  0  0
  197.7440  173.5570  137.8210 C   0  0  0  0  0  2  0  0  0  0  0  0
  197.8800  169.9950  136.0430 S   0  0  0  0  0  0  0  0  0  0  0  0
  197.4180  172.4990  136.8710 N   0  0  0  0  0  0  0  0  0  0  0  0
  197.9340  171.2360  137.3830 C   0  0  0  0  0  2  0  0  0  0  0  0
  195.5480  171.4900  135.6790 C   0  0  2  0  0  3  0  0  0  0  0  0
  195.7200  169.2380  134.5960 C   0  0  0  0  0  1  0  0  0  0  0  0
  195.9720  172.3670  136.8510 C   0  0  0  0  0  2  0  0  0  0  0  0
  194.0280  171.5520  135.5630 C   0  0  0  0  0  1  0  0  0  0  0  0
  196.0630  170.0380  135.8440 C   0  0  0  0  0  0  0  0  0  0  0  0
  195.4320  169.3510  137.0480 C   0  0  0  0  0  1  0  0  0  0  0  0
  192.7890  175.9670  142.1700 C   0  0  0  0  0  3  0  0  0  0  0  0
  193.8680  175.7840  142.9070 C   0  0  0  0  0  3  0  0  0  0  0  0
  191.6020  176.4790  142.7840 C   0  0  0  0  0  0  0  0  0  0  0  0
  190.5940  176.8860  143.3090 C   0  0  0  0  0  0  0  0  0  0  0  0
  189.3770  177.3380  143.9860 C   0  0  0  0  0  2  0  0  0  0  0  0
  188.1310  177.0430  141.8170 C   0  0  0  0  0  2  0  0  0  0  0  0
  188.4500  178.0000  142.9660 C   0  0  1  0  0  3  0  0  0  0  0  0
  186.9580  178.0320  143.3450 C   0  0  1  0  0  3  0  0  0  0  0  0
  186.6620  177.0800  142.1760 C   0  0  2  0  0  0  0  0  0  0  0  0
  186.1990  175.8180  142.5460 O   0  0  0  0  0  1  0  0  0  0  0  0
  187.1360  177.8640  147.1880 C   0  0  0  0  0  3  0  0  0  0  0  0
  186.5970  177.5130  144.7440 C   0  0  2  0  0  3  0  0  0  0  0  0
  185.1920  177.9680  145.1310 C   0  0  0  0  0  2  0  0  0  0  0  0
  184.8140  177.3350  146.4630 C   0  0  0  0  0  2  0  0  0  0  0  0
  187.5700  178.1100  145.7640 C   0  0  0  0  0  2  0  0  0  0  0  0
  185.8710  177.5630  147.5110 C   0  0  0  0  0  3  0  0  0  0  0  0
  186.3690  177.9810  139.8550 O   0  0  0  0  0  0  0  0  0  0  0  0
  184.6230  178.0230  141.3390 O   0  0  0  0  0  1  0  0  0  0  0  0
  185.8210  177.7100  141.1070 C   0  0  0  0  0  0  0  0  0  0  0  0
  196.0620  174.5200  143.1130 O   0  0  0  0  0  0  0  0  0  0  0  0
  197.0220  175.0710  144.0020 C   0  0  0  0  0  2  0  0  0  0  0  0
  197.5310  173.9900  144.9280 C   0  0  0  0  0  2  0  0  0  0  0  0
  196.3520  173.3500  145.6290 C   0  0  0  0  0  2  0  0  0  0  0  0
  195.6160  172.4210  144.6850 C   0  0  0  0  0  2  0  0  0  0  0  0
  195.0440  170.9790  145.6280 S   0  0  0  0  0  0  0  0  0  0  0  0
  194.8560  169.7380  143.8860 S   0  0  0  0  0  0  0  0  0  0  0  0
  193.1670  171.8400  143.7430 O   0  0  0  0  0  0  0  0  0  0  0  0
  191.2360  170.7410  143.0480 O   0  0  0  0  0  0  0  0  0  0  0  0
  192.2970  169.8750  142.8290 C   0  0  2  0  0  3  0  0  0  0  0  0
  193.5420  170.6970  143.0360 C   0  0  2  0  0  3  0  0  0  0  0  0
  191.7660  171.7440  143.8790 C   0  0  2  0  0  3  0  0  0  0  0  0
  190.8560  169.4750  140.7700 C   0  0  0  0  0  2  0  0  0  0  0  0
  193.2180  169.8540  140.5520 N   0  0  0  0  0  2  0  0  0  0  0  0
  192.6110  170.0580  139.2940 N   0  0  0  0  0  2  0  0  0  0  0  0
  192.2060  169.2670  141.4220 C   0  0  1  0  0  3  0  0  0  0  0  0
  190.4000  169.8970  138.4260 N   0  0  0  0  0  1  0  0  0  0  0  0
  191.2070  170.3010  139.5660 C   0  0  1  0  0  3  0  0  0  0  0  0
  190.3780  173.6100  144.7820 C   0  0  0  0  0  2  0  0  0  0  0  0
  189.6020  173.0170  143.6330 C   0  0  0  0  0  0  0  0  0  0  0  0
  188.8870  173.9380  142.8700 O   0  0  0  0  0  1  0  0  0  0  0  0
  191.1160  173.0830  143.5490 C   0  0  2  0  0  3  0  0  0  0  0  0
  188.9920  171.7890  143.9040 O   0  0  0  0  0  1  0  0  0  0  0  0
  1 18  1  0  0  0  0
  1 36  1  0  0  0  0
  2  1  2  0  0  0  0
  3  4  1  0  0  0  0
  3  2  1  1  0  0  0
  5  3  1  0  0  0  0
  6  7  1  6  0  0  0
  6  5  1  0  0  0  0
  6  4  1  0  0  0  0
  8 10  1  0  0  0  0
  9 10  1  0  0  0  0
  9  7  1  0  0  0  0
 11 14  1  1  0  0  0
 11 15  1  0  0  0  0
 11 13  1  0  0  0  0
 12 15  1  0  0  0  0
 13  9  1  0  0  0  0
 15  8  1  0  0  0  0
 15 16  1  0  0  0  0
 17 19  1  0  0  0  0
 17 18  2  0  0  0  0
 19 20  3  0  0  0  0
 20 21  1  0  0  0  0
 22 25  1  0  0  0  0
 22 23  1  0  0  0  0
 23 24  1  0  0  0  0
 23 21  1  1  0  0  0
 24 28  1  1  0  0  0
 25 26  1  1  0  0  0
 25 24  1  0  0  0  0
 27 32  2  0  0  0  0
 28 29  1  1  0  0  0
 28 31  1  0  0  0  0
 29 30  1  0  0  0  0
 30 32  1  0  0  0  0
 31 27  1  0  0  0  0
 33 35  2  0  0  0  0
 35 34  1  0  0  0  0
 35 25  1  0  0  0  0
 36 37  1  0  0  0  0
 37 38  1  0  0  0  0
 38 39  1  0  0  0  0
 40 41  1  0  0  0  0
 40 39  1  0  0  0  0
 42 41  1  0  0  0  0
 43 47  1  0  0  0  0
 45 46  1  0  0  0  0
 45 44  1  6  0  0  0
 46 43  1  0  0  0  0
 46 42  1  1  0  0  0
 47 44  1  6  0  0  0
 49 51  1  0  0  0  0
 50 53  1  0  0  0  0
 50 49  1  0  0  0  0
 51 48  1  6  0  0  0
 51 45  1  0  0  0  0
 53 52  1  6  0  0  0
 53 48  1  0  0  0  0
 55 58  1  0  0  0  0
 55 54  1  0  0  0  0
 56 55  1  0  0  0  0
 57 55  1  0  0  0  0
 57 47  1  0  0  0  0
 57 54  1  1  0  0  0
M  END
>  <MODEL>
8

>  <REMARK>
 VINA RESULT:      -5.0      2.556      3.891
  Name = 
  19 active torsions:
  status: ('A' for Active; 'I' for Inactive)
    1  A    between atoms: C_1  and  C_27
    2  A    between atoms: C_1  and  C_32
    3  A    between atoms: C_5  and  C_21
    4  A    between atoms: C_6  and  C_14
    5  A    between atoms: N_7  and  C_18
    6  A    between atoms: C_8  and  C_17
    7  A    between atoms: C_12  and  O_15
    8  A    between atoms: C_12  and  C_27
    9  A    between atoms: S_13  and  C_43
   10  A    between atoms: S_13  and  S_47
   11  A    between atoms: O_15  and  C_17
   12  A    between atoms: C_16  and  C_46
   13  A    between atoms: C_18  and  C_39
   14  A    between atoms: C_24  and  C_46
   15  A    between atoms: C_26  and  C_33
   16  A    between atoms: C_29  and  C_54
   17  A    between atoms: C_32  and  S_47
   18  A    between atoms: C_40  and  C_44
   19  A    between atoms: C_48  and  C_49
                            x       y       z     vdW  Elec       q    Type
                         _______ _______ _______ _____ _____    ______ ____

>  <TORSDO>
F 19

$$$$
=
 OpenBabel11042419123D

 58 64  0  0  1  0  0  0  0  0999 V2000
  189.9570  173.4760  138.8830 C   0  0  0  0  0  0  0  0  0  0  0  0
  189.4510  174.5030  139.5520 C   0  0  0  0  0  3  0  0  0  0  0  0
  188.2120  174.3870  140.3790 C   0  0  1  0  0  3  0  0  0  0  0  0
  188.6700  174.3070  142.1300 S   0  0  0  0  0  0  0  0  0  0  0  0
  187.5310  175.6710  140.4070 N   0  0  0  0  0  2  0  0  0  0  0  0
  187.8080  175.8890  141.8190 C   0  0  1  0  0  3  0  0  0  0  0  0
  186.4790  176.0540  142.5790 C   0  0  0  0  0  2  0  0  0  0  0  0
  185.5470  179.4100  144.5110 S   0  0  0  0  0  0  0  0  0  0  0  0
  186.5340  177.0940  143.6000 N   0  0  0  0  0  0  0  0  0  0  0  0
  185.3180  177.8920  143.5200 C   0  0  0  0  0  2  0  0  0  0  0  0
  186.8440  177.4290  145.9940 C   0  0  2  0  0  3  0  0  0  0  0  0
  186.2210  179.5720  147.1290 C   0  0  0  0  0  1  0  0  0  0  0  0
  186.5000  176.4320  144.8920 C   0  0  0  0  0  2  0  0  0  0  0  0
  187.0090  176.6560  147.2990 C   0  0  0  0  0  1  0  0  0  0  0  0
  185.7720  178.5410  146.1050 C   0  0  0  0  0  0  0  0  0  0  0  0
  184.4230  177.9810  146.5400 C   0  0  0  0  0  1  0  0  0  0  0  0
  191.1900  173.9690  136.8110 C   0  0  0  0  0  3  0  0  0  0  0  0
  191.1810  173.7250  138.1080 C   0  0  0  0  0  3  0  0  0  0  0  0
  192.4430  174.1650  136.1470 C   0  0  0  0  0  0  0  0  0  0  0  0
  193.5090  174.3410  135.6090 C   0  0  0  0  0  0  0  0  0  0  0  0
  194.8270  174.5460  135.0070 C   0  0  0  0  0  2  0  0  0  0  0  0
  195.0960  175.2960  137.3960 C   0  0  0  0  0  2  0  0  0  0  0  0
  195.8220  174.9470  136.0970 C   0  0  1  0  0  3  0  0  0  0  0  0
  196.5300  173.7820  136.8140 C   0  0  1  0  0  3  0  0  0  0  0  0
  195.7990  174.1620  138.1100 C   0  0  2  0  0  0  0  0  0  0  0  0
  194.8870  173.2130  138.5720 O   0  0  0  0  0  1  0  0  0  0  0  0
  197.0370  170.7360  134.5130 C   0  0  0  0  0  3  0  0  0  0  0  0
  196.2510  172.3730  136.2690 C   0  0  2  0  0  3  0  0  0  0  0  0
  196.7210  171.3180  137.2660 C   0  0  0  0  0  2  0  0  0  0  0  0
  196.3160  169.9400  136.7600 C   0  0  0  0  0  2  0  0  0  0  0  0
  197.0450  172.1710  134.9770 C   0  0  0  0  0  2  0  0  0  0  0  0
  196.7560  169.7170  135.3360 C   0  0  0  0  0  3  0  0  0  0  0  0
  197.9410  173.9970  139.3990 O   0  0  0  0  0  0  0  0  0  0  0  0
  196.4000  175.6100  139.9230 O   0  0  0  0  0  1  0  0  0  0  0  0
  196.7250  174.6400  139.1860 C   0  0  0  0  0  0  0  0  0  0  0  0
  189.3150  172.2250  138.9590 O   0  0  0  0  0  0  0  0  0  0  0  0
  189.9800  170.9870  138.7590 C   0  0  0  0  0  2  0  0  0  0  0  0
  190.5110  170.4780  140.0800 C   0  0  0  0  0  2  0  0  0  0  0  0
  191.9290  170.9780  140.2630 C   0  0  0  0  0  2  0  0  0  0  0  0
  192.8820  169.8120  140.4350 C   0  0  0  0  0  2  0  0  0  0  0  0
  194.4510  170.4470  141.0930 S   0  0  0  0  0  0  0  0  0  0  0  0
  193.5670  172.2550  141.8420 S   0  0  0  0  0  0  0  0  0  0  0  0
  195.3190  171.2420  143.6300 O   0  0  0  0  0  0  0  0  0  0  0  0
  194.0490  171.4340  145.5700 O   0  0  0  0  0  0  0  0  0  0  0  0
  193.4470  172.2340  144.6110 C   0  0  2  0  0  3  0  0  0  0  0  0
  194.4220  172.2980  143.4650 C   0  0  2  0  0  3  0  0  0  0  0  0
  194.9490  170.6330  144.8460 C   0  0  2  0  0  3  0  0  0  0  0  0
  194.3470  174.4640  145.4430 C   0  0  0  0  0  2  0  0  0  0  0  0
  192.2380  174.3490  144.2970 N   0  0  0  0  0  2  0  0  0  0  0  0
  192.6810  175.6890  144.2920 N   0  0  0  0  0  2  0  0  0  0  0  0
  193.1190  173.6140  145.1980 C   0  0  1  0  0  3  0  0  0  0  0  0
  194.5570  176.8650  145.1670 N   0  0  0  0  0  1  0  0  0  0  0  0
  194.1110  175.6350  144.5320 C   0  0  1  0  0  3  0  0  0  0  0  0
  196.7370  168.9680  145.3530 C   0  0  0  0  0  2  0  0  0  0  0  0
  195.9820  169.1910  146.6400 C   0  0  0  0  0  0  0  0  0  0  0  0
  196.7650  169.1680  147.7920 O   0  0  0  0  0  1  0  0  0  0  0  0
  196.1880  170.3570  145.6910 C   0  0  2  0  0  3  0  0  0  0  0  0
  194.7260  168.5800  146.7000 O   0  0  0  0  0  1  0  0  0  0  0  0
  1 36  1  0  0  0  0
  1  2  2  0  0  0  0
  3  2  1  6  0  0  0
  3  5  1  0  0  0  0
  3  4  1  0  0  0  0
  5  6  1  0  0  0  0
  6  4  1  0  0  0  0
  6  7  1  1  0  0  0
  7  9  1  0  0  0  0
  8 15  1  0  0  0  0
  9 13  1  0  0  0  0
 10  9  1  0  0  0  0
 10  8  1  0  0  0  0
 11 15  1  0  0  0  0
 11 14  1  1  0  0  0
 13 11  1  0  0  0  0
 15 16  1  0  0  0  0
 15 12  1  0  0  0  0
 17 18  2  0  0  0  0
 18  1  1  0  0  0  0
 19 17  1  0  0  0  0
 20 19  3  0  0  0  0
 21 20  1  0  0  0  0
 22 25  1  0  0  0  0
 23 21  1  6  0  0  0
 23 24  1  0  0  0  0
 23 22  1  0  0  0  0
 24 28  1  6  0  0  0
 24 25  1  0  0  0  0
 25 26  1  1  0  0  0
 25 35  1  0  0  0  0
 27 31  1  0  0  0  0
 27 32  2  0  0  0  0
 28 31  1  6  0  0  0
 28 29  1  0  0  0  0
 30 29  1  0  0  0  0
 32 30  1  0  0  0  0
 35 33  2  0  0  0  0
 35 34  1  0  0  0  0
 37 36  1  0  0  0  0
 37 38  1  0  0  0  0
 38 39  1  0  0  0  0
 39 40  1  0  0  0  0
 40 41  1  0  0  0  0
 41 42  1  0  0  0  0
 45 51  1  0  0  0  0
 45 44  1  1  0  0  0
 46 42  1  6  0  0  0
 46 43  1  0  0  0  0
 46 45  1  0  0  0  0
 47 43  1  6  0  0  0
 47 44  1  0  0  0  0
 47 57  1  0  0  0  0
 49 51  1  0  0  0  0
 50 49  1  0  0  0  0
 50 53  1  0  0  0  0
 51 48  1  6  0  0  0
 53 52  1  1  0  0  0
 53 48  1  0  0  0  0
 54 55  1  0  0  0  0
 55 58  1  0  0  0  0
 55 56  1  0  0  0  0
 57 54  1  6  0  0  0
 57 55  1  0  0  0  0
M  END
>  <MODEL>
9

>  <REMARK>
 VINA RESULT:      -4.9      3.487     10.534
  Name = 
  19 active torsions:
  status: ('A' for Active; 'I' for Inactive)
    1  A    between atoms: C_1  and  C_27
    2  A    between atoms: C_1  and  C_32
    3  A    between atoms: C_5  and  C_21
    4  A    between atoms: C_6  and  C_14
    5  A    between atoms: N_7  and  C_18
    6  A    between atoms: C_8  and  C_17
    7  A    between atoms: C_12  and  O_15
    8  A    between atoms: C_12  and  C_27
    9  A    between atoms: S_13  and  C_43
   10  A    between atoms: S_13  and  S_47
   11  A    between atoms: O_15  and  C_17
   12  A    between atoms: C_16  and  C_46
   13  A    between atoms: C_18  and  C_39
   14  A    between atoms: C_24  and  C_46
   15  A    between atoms: C_26  and  C_33
   16  A    between atoms: C_29  and  C_54
   17  A    between atoms: C_32  and  S_47
   18  A    between atoms: C_40  and  C_44
   19  A    between atoms: C_48  and  C_49
                            x       y       z     vdW  Elec       q    Type
                         _______ _______ _______ _____ _____    ______ ____

>  <TORSDO>
F 19

$$$$
