=
 OpenBabel11042416513D

 29 33  0  0  1  0  0  0  0  0999 V2000
  186.7800  177.6810  147.2590 C   0  0  2  0  0  3  0  0  0  0  0  0
  185.6830  178.7420  147.3160 C   0  0  2  0  0  3  0  0  0  0  0  0
  185.8440  177.7820  140.8730 C   0  0  0  0  0  0  0  0  0  0  0  0
  185.7790  177.7380  142.3210 C   0  0  0  0  0  0  0  0  0  0  0  0
  185.0390  178.1200  145.0270 C   0  0  0  0  0  0  0  0  0  0  0  0
  186.8750  177.6030  140.1730 O   0  0  0  0  0  0  0  0  0  0  0  0
  182.3390  178.5380  141.2800 C   0  0  0  0  0  1  0  0  0  0  0  0
  184.5550  178.0760  140.3390 N   0  0  0  0  0  0  0  0  0  0  0  0
  184.7630  178.6570  146.1790 N   0  0  0  0  0  0  0  0  0  0  0  0
  188.0340  177.5760  143.0320 O   0  0  0  0  0  0  0  0  0  0  0  0
  184.0830  178.2290  143.9600 N   0  0  0  0  0  2  0  0  0  0  0  0
  186.3480  177.3710  144.7780 C   0  0  2  0  0  3  0  0  0  0  0  0
  184.5240  177.9910  142.6210 C   0  0  0  0  0  0  0  0  0  0  0  0
  187.4130  177.6330  145.8590 C   0  0  2  0  0  3  0  0  0  0  0  0
  186.8140  177.5820  143.3480 C   0  0  0  0  0  0  0  0  0  0  0  0
  186.2970  180.1290  147.3770 C   0  0  0  0  0  1  0  0  0  0  0  0
  183.7840  178.2020  141.3760 C   0  0  0  0  0  0  0  0  0  0  0  0
  186.2140  176.3370  147.7000 C   0  0  0  0  0  1  0  0  0  0  0  0
  189.6230  174.7370  145.7390 N   0  0  0  0  0  0  0  0  0  0  0  0
  191.8180  175.4970  145.3230 N   0  0  0  0  0  0  0  0  0  0  0  0
  188.5650  176.6620  145.8310 C   0  0  0  0  0  0  0  0  0  0  0  0
  192.1060  176.5940  144.7010 C   0  0  0  0  0  0  0  0  0  0  0  0
  190.5500  175.6120  145.9350 C   0  0  0  0  0  0  0  0  0  0  0  0
  190.8250  177.8640  144.6710 S   0  0  0  0  0  0  0  0  0  0  0  0
  188.3850  175.3850  145.7320 N   0  0  0  0  0  0  0  0  0  0  0  0
  193.3590  176.7820  144.0430 N   0  0  0  0  0  2  0  0  0  0  0  0
  190.0130  176.9820  146.0410 C   0  0  1  0  0  3  0  0  0  0  0  0
  194.3960  175.7630  144.0470 C   0  0  0  0  0  2  0  0  0  0  0  0
  195.7540  176.4280  143.9840 C   0  0  0  0  0  1  0  0  0  0  0  0
  1  2  1  0  0  0  0
  1 18  1  6  0  0  0
  2 16  1  6  0  0  0
  3  4  1  0  0  0  0
  4 13  2  0  0  0  0
  4 15  1  0  0  0  0
  5  9  2  0  0  0  0
  6  3  2  0  0  0  0
  7 17  1  0  0  0  0
  8  3  1  0  0  0  0
  8 17  2  0  0  0  0
  9  2  1  0  0  0  0
 10 15  2  0  0  0  0
 11  5  1  0  0  0  0
 12 15  1  6  0  0  0
 12  5  1  0  0  0  0
 12 14  1  0  0  0  0
 13 11  1  0  0  0  0
 14 21  1  1  0  0  0
 14  1  1  0  0  0  0
 17 13  1  0  0  0  0
 19 23  2  0  0  0  0
 20 23  1  0  0  0  0
 21 27  1  0  0  0  0
 22 20  2  0  0  0  0
 23 27  1  0  0  0  0
 24 22  1  0  0  0  0
 25 19  1  0  0  0  0
 25 21  2  0  0  0  0
 26 28  1  0  0  0  0
 26 22  1  0  0  0  0
 27 24  1  6  0  0  0
 29 28  1  0  0  0  0
M  END
>  <MODEL>
1

>  <REMARK>
 VINA RESULT:      -7.9      0.000      0.000
  Name = 
  2 active torsions:
  status: ('A' for Active; 'I' for Inactive)
    1  A    between atoms: C_6  and  N_24
    2  A    between atoms: C_9  and  C_22
                            x       y       z     vdW  Elec       q    Type
                         _______ _______ _______ _____ _____    ______ ____

>  <TORSDO>
F 2

$$$$
=
 OpenBabel11042416513D

 29 33  0  0  1  0  0  0  0  0999 V2000
  190.4030  174.4930  145.8780 C   0  0  2  0  0  3  0  0  0  0  0  0
  189.9780  175.1070  147.2100 C   0  0  2  0  0  3  0  0  0  0  0  0
  186.2280  178.6350  143.2170 C   0  0  0  0  0  0  0  0  0  0  0  0
  186.9570  177.6450  143.9860 C   0  0  0  0  0  0  0  0  0  0  0  0
  188.0150  176.0630  146.0820 C   0  0  0  0  0  0  0  0  0  0  0  0
  186.5620  179.0910  142.0920 O   0  0  0  0  0  0  0  0  0  0  0  0
  184.0620  178.4870  146.1000 C   0  0  0  0  0  1  0  0  0  0  0  0
  185.0620  179.0410  143.9320 N   0  0  0  0  0  0  0  0  0  0  0  0
  188.6270  175.6720  147.1610 N   0  0  0  0  0  0  0  0  0  0  0  0
  188.9980  177.3440  142.8200 O   0  0  0  0  0  0  0  0  0  0  0  0
  186.7440  176.7220  146.2010 N   0  0  0  0  0  2  0  0  0  0  0  0
  188.6050  175.8330  144.6900 C   0  0  2  0  0  3  0  0  0  0  0  0
  186.2600  177.4780  145.0880 C   0  0  0  0  0  0  0  0  0  0  0  0
  190.0980  175.4550  144.7190 C   0  0  2  0  0  3  0  0  0  0  0  0
  188.2490  176.9870  143.7690 C   0  0  0  0  0  0  0  0  0  0  0  0
  190.9670  176.1780  147.6350 C   0  0  0  0  0  1  0  0  0  0  0  0
  185.0920  178.3570  145.0350 C   0  0  0  0  0  0  0  0  0  0  0  0
  189.7400  173.1320  145.7090 C   0  0  0  0  0  1  0  0  0  0  0  0
  190.5690  174.0330  141.3960 N   0  0  0  0  0  0  0  0  0  0  0  0
  192.8250  174.3310  140.7750 N   0  0  0  0  0  0  0  0  0  0  0  0
  190.6120  174.8960  143.4170 C   0  0  0  0  0  0  0  0  0  0  0  0
  193.5870  175.2770  141.2200 C   0  0  0  0  0  0  0  0  0  0  0  0
  191.8160  174.0430  141.7220 C   0  0  0  0  0  0  0  0  0  0  0  0
  193.1060  176.0290  142.7880 S   0  0  0  0  0  0  0  0  0  0  0  0
  189.8170  174.5100  142.4730 N   0  0  0  0  0  0  0  0  0  0  0  0
  194.7310  175.7280  140.4960 N   0  0  0  0  0  2  0  0  0  0  0  0
  192.0370  174.5840  143.0760 C   0  0  1  0  0  3  0  0  0  0  0  0
  195.1240  175.1420  139.2250 C   0  0  0  0  0  2  0  0  0  0  0  0
  196.6210  175.2840  139.0470 C   0  0  0  0  0  1  0  0  0  0  0  0
  1 18  1  6  0  0  0
  1  2  1  0  0  0  0
  2 16  1  6  0  0  0
  3  8  1  0  0  0  0
  3  4  1  0  0  0  0
  4 13  2  0  0  0  0
  5 11  1  0  0  0  0
  5  9  2  0  0  0  0
  6  3  2  0  0  0  0
  8 17  2  0  0  0  0
  9  2  1  0  0  0  0
 10 15  2  0  0  0  0
 12 15  1  6  0  0  0
 12 14  1  0  0  0  0
 12  5  1  0  0  0  0
 13 11  1  0  0  0  0
 14 21  1  6  0  0  0
 14  1  1  0  0  0  0
 15  4  1  0  0  0  0
 17 13  1  0  0  0  0
 17  7  1  0  0  0  0
 19 23  2  0  0  0  0
 19 25  1  0  0  0  0
 20 22  2  0  0  0  0
 20 23  1  0  0  0  0
 22 24  1  0  0  0  0
 24 27  1  0  0  0  0
 25 21  2  0  0  0  0
 26 22  1  0  0  0  0
 27 23  1  6  0  0  0
 27 21  1  0  0  0  0
 28 26  1  0  0  0  0
 29 28  1  0  0  0  0
M  END
>  <MODEL>
2

>  <REMARK>
 VINA RESULT:      -7.6      2.642      4.088
  Name = 
  2 active torsions:
  status: ('A' for Active; 'I' for Inactive)
    1  A    between atoms: C_6  and  N_24
    2  A    between atoms: C_9  and  C_22
                            x       y       z     vdW  Elec       q    Type
                         _______ _______ _______ _____ _____    ______ ____

>  <TORSDO>
F 2

$$$$
=
 OpenBabel11042416513D

 29 33  0  0  1  0  0  0  0  0999 V2000
  190.5180  174.5460  145.7580 C   0  0  2  0  0  3  0  0  0  0  0  0
  190.1070  175.0110  147.1530 C   0  0  2  0  0  3  0  0  0  0  0  0
  186.1550  178.7930  143.6130 C   0  0  0  0  0  0  0  0  0  0  0  0
  186.9320  177.7560  144.2640 C   0  0  0  0  0  0  0  0  0  0  0  0
  188.0890  176.0090  146.1680 C   0  0  0  0  0  0  0  0  0  0  0  0
  186.4470  179.3690  142.5320 O   0  0  0  0  0  0  0  0  0  0  0  0
  184.0670  178.2910  146.5130 C   0  0  0  0  0  1  0  0  0  0  0  0
  184.9960  179.0880  144.3890 N   0  0  0  0  0  0  0  0  0  0  0  0
  188.7390  175.5340  147.1900 N   0  0  0  0  0  0  0  0  0  0  0  0
  188.9530  177.6390  143.0310 O   0  0  0  0  0  0  0  0  0  0  0  0
  186.8020  176.6120  146.3800 N   0  0  0  0  0  2  0  0  0  0  0  0
  188.6510  175.9380  144.7490 C   0  0  2  0  0  3  0  0  0  0  0  0
  186.2680  177.4580  145.3590 C   0  0  0  0  0  0  0  0  0  0  0  0
  190.1550  175.6080  144.7070 C   0  0  2  0  0  3  0  0  0  0  0  0
  188.2380  177.1650  143.9550 C   0  0  0  0  0  0  0  0  0  0  0  0
  191.0730  176.0660  147.6610 C   0  0  0  0  0  1  0  0  0  0  0  0
  185.0730  178.3000  145.4180 C   0  0  0  0  0  0  0  0  0  0  0  0
  189.8920  173.1880  145.4680 C   0  0  0  0  0  1  0  0  0  0  0  0
  192.0790  174.7560  141.7310 N   0  0  0  0  0  0  0  0  0  0  0  0
  190.6530  173.6330  140.2240 N   0  0  0  0  0  0  0  0  0  0  0  0
  190.6540  175.1970  143.3450 C   0  0  0  0  0  0  0  0  0  0  0  0
  189.6100  172.9520  140.5730 C   0  0  0  0  0  0  0  0  0  0  0  0
  190.9160  174.6330  141.1860 C   0  0  0  0  0  0  0  0  0  0  0  0
  188.8870  173.3510  142.1760 S   0  0  0  0  0  0  0  0  0  0  0  0
  191.9140  175.1630  143.0580 N   0  0  0  0  0  0  0  0  0  0  0  0
  189.0760  171.9140  139.7510 N   0  0  0  0  0  2  0  0  0  0  0  0
  189.8220  174.9130  142.1340 C   0  0  1  0  0  3  0  0  0  0  0  0
  189.6550  171.5710  138.4630 C   0  0  0  0  0  2  0  0  0  0  0  0
  189.6910  170.0660  138.3120 C   0  0  0  0  0  1  0  0  0  0  0  0
  1 18  1  6  0  0  0
  1  2  1  0  0  0  0
  2  9  1  0  0  0  0
  2 16  1  6  0  0  0
  3  4  1  0  0  0  0
  3  8  1  0  0  0  0
  4 13  2  0  0  0  0
  5 11  1  0  0  0  0
  5  9  2  0  0  0  0
  6  3  2  0  0  0  0
  8 17  2  0  0  0  0
 10 15  2  0  0  0  0
 12 15  1  1  0  0  0
 12  5  1  0  0  0  0
 13 17  1  0  0  0  0
 13 11  1  0  0  0  0
 14 21  1  6  0  0  0
 14 12  1  0  0  0  0
 14  1  1  0  0  0  0
 15  4  1  0  0  0  0
 17  7  1  0  0  0  0
 19 25  1  0  0  0  0
 20 22  2  0  0  0  0
 20 23  1  0  0  0  0
 22 24  1  0  0  0  0
 23 19  2  0  0  0  0
 25 21  2  0  0  0  0
 26 22  1  0  0  0  0
 27 23  1  6  0  0  0
 27 24  1  0  0  0  0
 27 21  1  0  0  0  0
 28 26  1  0  0  0  0
 29 28  1  0  0  0  0
M  END
>  <MODEL>
3

>  <REMARK>
 VINA RESULT:      -7.5      3.609      5.067
  Name = 
  2 active torsions:
  status: ('A' for Active; 'I' for Inactive)
    1  A    between atoms: C_6  and  N_24
    2  A    between atoms: C_9  and  C_22
                            x       y       z     vdW  Elec       q    Type
                         _______ _______ _______ _____ _____    ______ ____

>  <TORSDO>
F 2

$$$$
=
 OpenBabel11042416513D

 29 33  0  0  1  0  0  0  0  0999 V2000
  190.9290  174.9350  144.7520 C   0  0  2  0  0  3  0  0  0  0  0  0
  191.1440  176.3190  145.3600 C   0  0  2  0  0  3  0  0  0  0  0  0
  186.1350  177.7000  141.4290 C   0  0  0  0  0  0  0  0  0  0  0  0
  187.0960  177.2040  142.3950 C   0  0  0  0  0  0  0  0  0  0  0  0
  188.9140  176.9620  144.5510 C   0  0  0  0  0  0  0  0  0  0  0  0
  185.9580  177.2570  140.2640 O   0  0  0  0  0  0  0  0  0  0  0  0
  185.4360  179.9990  144.1220 C   0  0  0  0  0  1  0  0  0  0  0  0
  185.4080  178.7930  141.9880 N   0  0  0  0  0  0  0  0  0  0  0  0
  189.9240  177.1300  145.3540 N   0  0  0  0  0  0  0  0  0  0  0  0
  188.4170  175.6420  141.1960 O   0  0  0  0  0  0  0  0  0  0  0  0
  187.8420  177.9180  144.5700 N   0  0  0  0  0  2  0  0  0  0  0  0
  188.8330  175.7740  143.5920 C   0  0  2  0  0  3  0  0  0  0  0  0
  186.9440  177.9600  143.4590 C   0  0  0  0  0  0  0  0  0  0  0  0
  190.1780  175.0440  143.4150 C   0  0  2  0  0  3  0  0  0  0  0  0
  188.1460  176.1830  142.3020 C   0  0  0  0  0  0  0  0  0  0  0  0
  192.2500  177.0520  144.6220 C   0  0  0  0  0  1  0  0  0  0  0  0
  185.8950  178.9410  143.1830 C   0  0  0  0  0  0  0  0  0  0  0  0
  190.2190  174.0400  145.7590 C   0  0  0  0  0  1  0  0  0  0  0  0
  189.2040  171.7330  142.2440 N   0  0  0  0  0  0  0  0  0  0  0  0
  190.5650  171.1690  140.4020 N   0  0  0  0  0  0  0  0  0  0  0  0
  190.0580  173.6910  142.7630 C   0  0  0  0  0  0  0  0  0  0  0  0
  191.1190  172.0290  139.6110 C   0  0  0  0  0  0  0  0  0  0  0  0
  190.3600  171.7490  141.6740 C   0  0  0  0  0  0  0  0  0  0  0  0
  191.3500  173.6940  140.2660 S   0  0  0  0  0  0  0  0  0  0  0  0
  189.0420  172.9170  142.9680 N   0  0  0  0  0  0  0  0  0  0  0  0
  191.5000  171.6940  138.2770 N   0  0  0  0  0  2  0  0  0  0  0  0
  191.0950  173.0010  141.9310 C   0  0  1  0  0  3  0  0  0  0  0  0
  191.3090  170.3610  137.7290 C   0  0  0  0  0  2  0  0  0  0  0  0
  190.0810  170.3520  136.8440 C   0  0  0  0  0  1  0  0  0  0  0  0
  1  2  1  0  0  0  0
  1 18  1  1  0  0  0
  2 16  1  6  0  0  0
  3  8  1  0  0  0  0
  3  4  1  0  0  0  0
  4 13  2  0  0  0  0
  5 11  1  0  0  0  0
  5  9  2  0  0  0  0
  6  3  2  0  0  0  0
  8 17  2  0  0  0  0
  9  2  1  0  0  0  0
 10 15  2  0  0  0  0
 12 15  1  6  0  0  0
 12  5  1  0  0  0  0
 13 11  1  0  0  0  0
 14 21  1  1  0  0  0
 14 12  1  0  0  0  0
 14  1  1  0  0  0  0
 15  4  1  0  0  0  0
 17 13  1  0  0  0  0
 17  7  1  0  0  0  0
 19 25  1  0  0  0  0
 20 23  1  0  0  0  0
 21 25  2  0  0  0  0
 22 24  1  0  0  0  0
 22 20  2  0  0  0  0
 23 27  1  0  0  0  0
 23 19  2  0  0  0  0
 26 22  1  0  0  0  0
 27 24  1  6  0  0  0
 27 21  1  0  0  0  0
 28 26  1  0  0  0  0
 29 28  1  0  0  0  0
M  END
>  <MODEL>
4

>  <REMARK>
 VINA RESULT:      -7.5      4.215      5.276
  Name = 
  2 active torsions:
  status: ('A' for Active; 'I' for Inactive)
    1  A    between atoms: C_6  and  N_24
    2  A    between atoms: C_9  and  C_22
                            x       y       z     vdW  Elec       q    Type
                         _______ _______ _______ _____ _____    ______ ____

>  <TORSDO>
F 2

$$$$
=
 OpenBabel11042416513D

 29 33  0  0  1  0  0  0  0  0999 V2000
  189.7160  177.8420  144.8290 C   0  0  2  0  0  3  0  0  0  0  0  0
  190.4410  177.4550  146.1160 C   0  0  2  0  0  3  0  0  0  0  0  0
  190.6170  171.6950  143.0760 C   0  0  0  0  0  0  0  0  0  0  0  0
  190.6840  173.0690  143.5340 C   0  0  0  0  0  0  0  0  0  0  0  0
  191.2570  175.4320  144.9850 C   0  0  0  0  0  0  0  0  0  0  0  0
  189.6920  171.1880  142.3870 O   0  0  0  0  0  0  0  0  0  0  0  0
  193.7280  171.5090  144.8950 C   0  0  0  0  0  1  0  0  0  0  0  0
  191.7600  170.9760  143.5340 N   0  0  0  0  0  0  0  0  0  0  0  0
  191.3520  176.3230  145.9280 N   0  0  0  0  0  0  0  0  0  0  0  0
  188.5780  174.0040  142.9770 O   0  0  0  0  0  0  0  0  0  0  0  0
  192.1420  174.3000  145.0040 N   0  0  0  0  0  2  0  0  0  0  0  0
  190.2370  175.5580  143.8530 C   0  0  2  0  0  3  0  0  0  0  0  0
  191.8020  173.1530  144.2200 C   0  0  0  0  0  0  0  0  0  0  0  0
  189.1360  176.5950  144.1410 C   0  0  2  0  0  3  0  0  0  0  0  0
  189.7380  174.1860  143.4370 C   0  0  0  0  0  0  0  0  0  0  0  0
  189.4380  177.1310  147.2080 C   0  0  0  0  0  1  0  0  0  0  0  0
  192.4510  171.8420  144.2100 C   0  0  0  0  0  0  0  0  0  0  0  0
  190.6590  178.6300  143.9290 C   0  0  0  0  0  1  0  0  0  0  0  0
  187.7280  177.1050  140.8180 N   0  0  0  0  0  0  0  0  0  0  0  0
  185.5620  178.0060  141.0610 N   0  0  0  0  0  0  0  0  0  0  0  0
  188.3300  176.9860  142.9290 C   0  0  0  0  0  0  0  0  0  0  0  0
  184.8060  177.8250  142.0950 C   0  0  0  0  0  0  0  0  0  0  0  0
  186.9200  177.8970  141.4350 C   0  0  0  0  0  0  0  0  0  0  0  0
  185.6370  177.3730  143.6310 S   0  0  0  0  0  0  0  0  0  0  0  0
  188.6410  176.5840  141.7400 N   0  0  0  0  0  0  0  0  0  0  0  0
  183.3850  177.9420  142.0210 N   0  0  0  0  0  2  0  0  0  0  0  0
  187.1910  177.9560  142.8840 C   0  0  1  0  0  3  0  0  0  0  0  0
  182.7000  178.2920  140.7880 C   0  0  0  0  0  2  0  0  0  0  0  0
  181.2050  178.2910  141.0250 C   0  0  0  0  0  1  0  0  0  0  0  0
  1 18  1  6  0  0  0
  1  2  1  0  0  0  0
  2 16  1  1  0  0  0
  3  8  1  0  0  0  0
  3  4  1  0  0  0  0
  4 13  2  0  0  0  0
  5 11  1  0  0  0  0
  5  9  2  0  0  0  0
  6  3  2  0  0  0  0
  8 17  2  0  0  0  0
  9  2  1  0  0  0  0
 10 15  2  0  0  0  0
 12 15  1  1  0  0  0
 12 14  1  0  0  0  0
 12  5  1  0  0  0  0
 13 11  1  0  0  0  0
 14 21  1  6  0  0  0
 14  1  1  0  0  0  0
 15  4  1  0  0  0  0
 17 13  1  0  0  0  0
 17  7  1  0  0  0  0
 19 23  2  0  0  0  0
 19 25  1  0  0  0  0
 20 23  1  0  0  0  0
 20 22  2  0  0  0  0
 22 24  1  0  0  0  0
 25 21  2  0  0  0  0
 26 22  1  0  0  0  0
 27 23  1  6  0  0  0
 27 21  1  0  0  0  0
 27 24  1  0  0  0  0
 28 29  1  0  0  0  0
 28 26  1  0  0  0  0
M  END
>  <MODEL>
5

>  <REMARK>
 VINA RESULT:      -7.0      3.036      7.791
  Name = 
  2 active torsions:
  status: ('A' for Active; 'I' for Inactive)
    1  A    between atoms: C_6  and  N_24
    2  A    between atoms: C_9  and  C_22
                            x       y       z     vdW  Elec       q    Type
                         _______ _______ _______ _____ _____    ______ ____

>  <TORSDO>
F 2

$$$$
=
 OpenBabel11042416513D

 29 33  0  0  1  0  0  0  0  0999 V2000
  189.9060  175.6080  146.4240 C   0  0  2  0  0  3  0  0  0  0  0  0
  189.1620  176.6450  147.2630 C   0  0  2  0  0  3  0  0  0  0  0  0
  186.4730  177.9040  141.4630 C   0  0  0  0  0  0  0  0  0  0  0  0
  186.9990  177.3790  142.7080 C   0  0  0  0  0  0  0  0  0  0  0  0
  187.5270  176.8660  145.4420 C   0  0  0  0  0  0  0  0  0  0  0  0
  187.0670  177.9160  140.3540 O   0  0  0  0  0  0  0  0  0  0  0  0
  183.6690  178.6660  143.6040 C   0  0  0  0  0  1  0  0  0  0  0  0
  185.1640  178.4300  141.6760 N   0  0  0  0  0  0  0  0  0  0  0  0
  187.8600  176.9980  146.6920 N   0  0  0  0  0  0  0  0  0  0  0  0
  189.2670  176.8660  142.2450 O   0  0  0  0  0  0  0  0  0  0  0  0
  186.2600  177.3800  145.0000 N   0  0  0  0  0  2  0  0  0  0  0  0
  188.4410  176.1750  144.4300 C   0  0  2  0  0  3  0  0  0  0  0  0
  186.0560  177.5830  143.6000 C   0  0  0  0  0  0  0  0  0  0  0  0
  189.8850  176.0010  144.9380 C   0  0  2  0  0  3  0  0  0  0  0  0
  188.3120  176.8310  143.0670 C   0  0  0  0  0  0  0  0  0  0  0  0
  190.0080  177.8960  147.4220 C   0  0  0  0  0  1  0  0  0  0  0  0
  184.9280  178.2400  142.9380 C   0  0  0  0  0  0  0  0  0  0  0  0
  189.3170  174.2270  146.6800 C   0  0  0  0  0  1  0  0  0  0  0  0
  191.1890  173.2620  142.9170 N   0  0  0  0  0  0  0  0  0  0  0  0
  193.2970  173.9020  142.0730 N   0  0  0  0  0  0  0  0  0  0  0  0
  190.7070  175.0350  144.1230 C   0  0  0  0  0  0  0  0  0  0  0  0
  193.6620  175.1260  141.8690 C   0  0  0  0  0  0  0  0  0  0  0  0
  192.3190  173.8570  143.0920 C   0  0  0  0  0  0  0  0  0  0  0  0
  192.7780  176.3960  142.7970 S   0  0  0  0  0  0  0  0  0  0  0  0
  190.1980  173.9650  143.6070 N   0  0  0  0  0  0  0  0  0  0  0  0
  194.6880  175.4630  140.9350 N   0  0  0  0  0  2  0  0  0  0  0  0
  192.1880  175.0790  143.9080 C   0  0  1  0  0  3  0  0  0  0  0  0
  195.4000  174.4530  140.1710 C   0  0  0  0  0  2  0  0  0  0  0  0
  196.5910  175.0870  139.4840 C   0  0  0  0  0  1  0  0  0  0  0  0
  1 18  1  6  0  0  0
  1  2  1  0  0  0  0
  2 16  1  6  0  0  0
  3  8  1  0  0  0  0
  3  4  1  0  0  0  0
  4 15  1  0  0  0  0
  4 13  2  0  0  0  0
  5  9  2  0  0  0  0
  6  3  2  0  0  0  0
  8 17  2  0  0  0  0
  9  2  1  0  0  0  0
 10 15  2  0  0  0  0
 11  5  1  0  0  0  0
 12 15  1  6  0  0  0
 12 14  1  0  0  0  0
 12  5  1  0  0  0  0
 13 11  1  0  0  0  0
 14 21  1  6  0  0  0
 14  1  1  0  0  0  0
 17 13  1  0  0  0  0
 17  7  1  0  0  0  0
 19 23  2  0  0  0  0
 19 25  1  0  0  0  0
 20 23  1  0  0  0  0
 22 20  2  0  0  0  0
 22 24  1  0  0  0  0
 23 27  1  0  0  0  0
 25 21  2  0  0  0  0
 26 22  1  0  0  0  0
 27 24  1  6  0  0  0
 27 21  1  0  0  0  0
 28 26  1  0  0  0  0
 29 28  1  0  0  0  0
M  END
>  <MODEL>
6

>  <REMARK>
 VINA RESULT:      -7.0      2.265      3.127
  Name = 
  2 active torsions:
  status: ('A' for Active; 'I' for Inactive)
    1  A    between atoms: C_6  and  N_24
    2  A    between atoms: C_9  and  C_22
                            x       y       z     vdW  Elec       q    Type
                         _______ _______ _______ _____ _____    ______ ____

>  <TORSDO>
F 2

$$$$
=
 OpenBabel11042416513D

 29 33  0  0  1  0  0  0  0  0999 V2000
  189.7670  173.9870  141.7820 C   0  0  2  0  0  3  0  0  0  0  0  0
  190.7310  172.9370  141.2350 C   0  0  2  0  0  3  0  0  0  0  0  0
  194.7160  175.8630  145.4770 C   0  0  0  0  0  0  0  0  0  0  0  0
  193.6690  175.1870  144.7360 C   0  0  0  0  0  0  0  0  0  0  0  0
  192.1950  173.3520  143.1640 C   0  0  0  0  0  0  0  0  0  0  0  0
  194.7820  177.1000  145.7070 O   0  0  0  0  0  0  0  0  0  0  0  0
  196.0020  172.4970  145.6700 C   0  0  0  0  0  1  0  0  0  0  0  0
  195.6910  174.9160  145.9110 N   0  0  0  0  0  0  0  0  0  0  0  0
  191.7870  172.5920  142.1900 N   0  0  0  0  0  0  0  0  0  0  0  0
  192.3430  176.9280  143.8240 O   0  0  0  0  0  0  0  0  0  0  0  0
  193.3320  172.9400  143.9390 N   0  0  0  0  0  2  0  0  0  0  0  0
  191.4960  174.6650  143.5130 C   0  0  2  0  0  3  0  0  0  0  0  0
  194.0080  173.9170  144.7340 C   0  0  0  0  0  0  0  0  0  0  0  0
  190.5440  175.1580  142.4060 C   0  0  2  0  0  3  0  0  0  0  0  0
  192.5060  175.6890  143.9970 C   0  0  0  0  0  0  0  0  0  0  0  0
  191.3510  173.4190  139.9360 C   0  0  0  0  0  1  0  0  0  0  0  0
  195.2670  173.7730  145.4650 C   0  0  0  0  0  0  0  0  0  0  0  0
  188.7980  173.3310  142.7580 C   0  0  0  0  0  1  0  0  0  0  0  0
  188.1150  177.8590  142.7050 N   0  0  0  0  0  0  0  0  0  0  0  0
  187.4530  178.0140  144.9640 N   0  0  0  0  0  0  0  0  0  0  0  0
  189.5970  176.2430  142.8520 C   0  0  0  0  0  0  0  0  0  0  0  0
  187.4740  177.0290  145.8010 C   0  0  0  0  0  0  0  0  0  0  0  0
  188.4220  177.8080  143.9560 C   0  0  0  0  0  0  0  0  0  0  0  0
  188.5830  175.6610  145.4080 S   0  0  0  0  0  0  0  0  0  0  0  0
  188.8890  176.9250  142.0120 N   0  0  0  0  0  0  0  0  0  0  0  0
  186.6410  177.0040  146.9600 N   0  0  0  0  0  2  0  0  0  0  0  0
  189.4320  176.7730  144.2430 C   0  0  1  0  0  3  0  0  0  0  0  0
  185.7320  178.0920  147.2830 C   0  0  0  0  0  2  0  0  0  0  0  0
  184.4410  177.9150  146.5130 C   0  0  0  0  0  1  0  0  0  0  0  0
  1 14  1  0  0  0  0
  1 18  1  1  0  0  0
  2 16  1  6  0  0  0
  2  1  1  0  0  0  0
  2  9  1  0  0  0  0
  3  6  2  0  0  0  0
  3  8  1  0  0  0  0
  4  3  1  0  0  0  0
  5 11  1  0  0  0  0
  9  5  2  0  0  0  0
 10 15  2  0  0  0  0
 11 13  1  0  0  0  0
 12  5  1  6  0  0  0
 12 15  1  0  0  0  0
 13  4  2  0  0  0  0
 13 17  1  0  0  0  0
 14 21  1  1  0  0  0
 14 12  1  0  0  0  0
 15  4  1  0  0  0  0
 17  7  1  0  0  0  0
 17  8  2  0  0  0  0
 19 23  2  0  0  0  0
 20 22  2  0  0  0  0
 22 26  1  0  0  0  0
 23 27  1  0  0  0  0
 23 20  1  0  0  0  0
 24 22  1  0  0  0  0
 25 19  1  0  0  0  0
 25 21  2  0  0  0  0
 26 28  1  0  0  0  0
 27 21  1  6  0  0  0
 27 24  1  0  0  0  0
 29 28  1  0  0  0  0
M  END
>  <MODEL>
7

>  <REMARK>
 VINA RESULT:      -6.8      3.459      8.489
  Name = 
  2 active torsions:
  status: ('A' for Active; 'I' for Inactive)
    1  A    between atoms: C_6  and  N_24
    2  A    between atoms: C_9  and  C_22
                            x       y       z     vdW  Elec       q    Type
                         _______ _______ _______ _____ _____    ______ ____

>  <TORSDO>
F 2

$$$$
=
 OpenBabel11042416513D

 29 33  0  0  1  0  0  0  0  0999 V2000
  189.6030  173.5820  142.0610 C   0  0  2  0  0  3  0  0  0  0  0  0
  188.1840  173.5320  141.5010 C   0  0  2  0  0  3  0  0  0  0  0  0
  187.2460  177.8710  146.2700 C   0  0  0  0  0  0  0  0  0  0  0  0
  187.6470  177.0640  145.1340 C   0  0  0  0  0  0  0  0  0  0  0  0
  187.6940  175.6210  142.6990 C   0  0  0  0  0  0  0  0  0  0  0  0
  187.7510  177.8320  147.4220 O   0  0  0  0  0  0  0  0  0  0  0  0
  184.8640  179.1070  143.8570 C   0  0  0  0  0  1  0  0  0  0  0  0
  186.1670  178.7270  145.8980 N   0  0  0  0  0  0  0  0  0  0  0  0
  187.4380  174.7680  141.7510 N   0  0  0  0  0  0  0  0  0  0  0  0
  189.1920  175.4960  146.0130 O   0  0  0  0  0  0  0  0  0  0  0  0
  186.7950  176.7220  142.9080 N   0  0  0  0  0  2  0  0  0  0  0  0
  188.9280  175.4910  143.5920 C   0  0  2  0  0  3  0  0  0  0  0  0
  186.8510  177.4230  144.1520 C   0  0  0  0  0  0  0  0  0  0  0  0
  189.5950  174.1050  143.5070 C   0  0  2  0  0  3  0  0  0  0  0  0
  188.6150  175.9700  144.9980 C   0  0  0  0  0  0  0  0  0  0  0  0
  187.4300  172.3510  142.0870 C   0  0  0  0  0  1  0  0  0  0  0  0
  185.9380  178.4530  144.6500 C   0  0  0  0  0  0  0  0  0  0  0  0
  190.4870  174.4110  141.1360 C   0  0  0  0  0  1  0  0  0  0  0  0
  192.7600  173.2300  145.0880 N   0  0  0  0  0  0  0  0  0  0  0  0
  194.3240  174.9290  144.6050 N   0  0  0  0  0  0  0  0  0  0  0  0
  190.9820  174.0560  144.0950 C   0  0  0  0  0  0  0  0  0  0  0  0
  194.2780  175.6890  143.5600 C   0  0  0  0  0  0  0  0  0  0  0  0
  193.0240  174.4820  144.9310 C   0  0  0  0  0  0  0  0  0  0  0  0
  192.6710  175.8620  142.7590 S   0  0  0  0  0  0  0  0  0  0  0  0
  191.4680  172.9790  144.6200 N   0  0  0  0  0  0  0  0  0  0  0  0
  195.4420  176.3340  143.0430 N   0  0  0  0  0  2  0  0  0  0  0  0
  191.9170  175.2100  144.2830 C   0  0  1  0  0  3  0  0  0  0  0  0
  196.7470  176.1940  143.6690 C   0  0  0  0  0  2  0  0  0  0  0  0
  197.7220  175.6030  142.6730 C   0  0  0  0  0  1  0  0  0  0  0  0
  1 18  1  6  0  0  0
  1 14  1  0  0  0  0
  2  9  1  0  0  0  0
  2  1  1  0  0  0  0
  2 16  1  1  0  0  0
  3  6  2  0  0  0  0
  4  3  1  0  0  0  0
  5 11  1  0  0  0  0
  7 17  1  0  0  0  0
  8  3  1  0  0  0  0
  9  5  2  0  0  0  0
 11 13  1  0  0  0  0
 12  5  1  6  0  0  0
 12 15  1  0  0  0  0
 13 17  1  0  0  0  0
 13  4  2  0  0  0  0
 14 12  1  0  0  0  0
 14 21  1  6  0  0  0
 15  4  1  0  0  0  0
 15 10  2  0  0  0  0
 17  8  2  0  0  0  0
 20 23  1  0  0  0  0
 21 27  1  0  0  0  0
 21 25  2  0  0  0  0
 22 20  2  0  0  0  0
 23 19  2  0  0  0  0
 24 22  1  0  0  0  0
 25 19  1  0  0  0  0
 26 22  1  0  0  0  0
 26 28  1  0  0  0  0
 27 24  1  6  0  0  0
 27 23  1  0  0  0  0
 29 28  1  0  0  0  0
M  END
>  <MODEL>
8

>  <REMARK>
 VINA RESULT:      -6.7      2.856      4.826
  Name = 
  2 active torsions:
  status: ('A' for Active; 'I' for Inactive)
    1  A    between atoms: C_6  and  N_24
    2  A    between atoms: C_9  and  C_22
                            x       y       z     vdW  Elec       q    Type
                         _______ _______ _______ _____ _____    ______ ____

>  <TORSDO>
F 2

$$$$
=
 OpenBabel11042416513D

 29 33  0  0  1  0  0  0  0  0999 V2000
  189.8360  175.6150  146.2700 C   0  0  2  0  0  3  0  0  0  0  0  0
  188.9920  176.5950  147.0830 C   0  0  2  0  0  3  0  0  0  0  0  0
  186.5500  177.8130  141.1660 C   0  0  0  0  0  0  0  0  0  0  0  0
  187.0380  177.2940  142.4290 C   0  0  0  0  0  0  0  0  0  0  0  0
  187.4460  176.7600  145.1790 C   0  0  0  0  0  0  0  0  0  0  0  0
  187.2020  177.8770  140.0900 O   0  0  0  0  0  0  0  0  0  0  0  0
  183.5990  178.3820  143.1620 C   0  0  0  0  0  1  0  0  0  0  0  0
  185.2050  178.2630  141.3150 N   0  0  0  0  0  0  0  0  0  0  0  0
  187.7040  176.8870  146.4480 N   0  0  0  0  0  0  0  0  0  0  0  0
  189.3520  176.9130  142.0820 O   0  0  0  0  0  0  0  0  0  0  0  0
  186.1780  177.2120  144.6770 N   0  0  0  0  0  2  0  0  0  0  0  0
  188.4500  176.1390  144.2080 C   0  0  2  0  0  3  0  0  0  0  0  0
  186.0380  177.4300  143.2710 C   0  0  0  0  0  0  0  0  0  0  0  0
  189.8720  176.0340  144.7900 C   0  0  2  0  0  3  0  0  0  0  0  0
  188.3570  176.8110  142.8500 C   0  0  0  0  0  0  0  0  0  0  0  0
  189.7580  177.8860  147.3070 C   0  0  0  0  0  1  0  0  0  0  0  0
  184.9130  178.0370  142.5600 C   0  0  0  0  0  0  0  0  0  0  0  0
  189.3100  174.2000  146.4720 C   0  0  0  0  0  1  0  0  0  0  0  0
  192.6600  174.1980  143.3260 N   0  0  0  0  0  0  0  0  0  0  0  0
  191.7890  172.3620  142.1260 N   0  0  0  0  0  0  0  0  0  0  0  0
  190.7890  175.1290  144.0070 C   0  0  0  0  0  0  0  0  0  0  0  0
  190.6630  171.7830  142.3910 C   0  0  0  0  0  0  0  0  0  0  0  0
  191.7490  173.7080  142.5550 C   0  0  0  0  0  0  0  0  0  0  0  0
  189.4530  172.7570  143.3080 S   0  0  0  0  0  0  0  0  0  0  0  0
  192.0690  175.1240  144.1890 N   0  0  0  0  0  0  0  0  0  0  0  0
  190.3990  170.4330  142.0090 N   0  0  0  0  0  2  0  0  0  0  0  0
  190.4090  174.2410  142.8630 C   0  0  1  0  0  3  0  0  0  0  0  0
  191.3690  169.6310  141.2820 C   0  0  0  0  0  2  0  0  0  0  0  0
  191.0190  168.1660  141.4260 C   0  0  0  0  0  1  0  0  0  0  0  0
  1 18  1  6  0  0  0
  1  2  1  0  0  0  0
  2 16  1  6  0  0  0
  3  8  1  0  0  0  0
  3  4  1  0  0  0  0
  4 15  1  0  0  0  0
  4 13  2  0  0  0  0
  5  9  2  0  0  0  0
  6  3  2  0  0  0  0
  8 17  2  0  0  0  0
  9  2  1  0  0  0  0
 10 15  2  0  0  0  0
 11  5  1  0  0  0  0
 12 15  1  6  0  0  0
 12 14  1  0  0  0  0
 12  5  1  0  0  0  0
 13 11  1  0  0  0  0
 14 21  1  6  0  0  0
 14  1  1  0  0  0  0
 17  7  1  0  0  0  0
 17 13  1  0  0  0  0
 19 25  1  0  0  0  0
 20 22  2  0  0  0  0
 20 23  1  0  0  0  0
 21 25  2  0  0  0  0
 22 24  1  0  0  0  0
 23 19  2  0  0  0  0
 26 22  1  0  0  0  0
 27 23  1  1  0  0  0
 27 24  1  0  0  0  0
 27 21  1  0  0  0  0
 28 29  1  0  0  0  0
 28 26  1  0  0  0  0
M  END
>  <MODEL>
9

>  <REMARK>
 VINA RESULT:      -6.6      3.282      4.098
  Name = 
  2 active torsions:
  status: ('A' for Active; 'I' for Inactive)
    1  A    between atoms: C_6  and  N_24
    2  A    between atoms: C_9  and  C_22
                            x       y       z     vdW  Elec       q    Type
                         _______ _______ _______ _____ _____    ______ ____

>  <TORSDO>
F 2

$$$$
