=
 OpenBabel11042416313D

 54 61  0  0  1  0  0  0  0  0999 V2000
  193.0950  170.8760  143.5930 C   0  0  1  0  0  3  0  0  0  0  0  0
  197.5710  170.2540  145.7710 O   0  0  0  0  0  0  0  0  0  0  0  0
  195.0310  169.4460  144.1790 C   0  0  0  0  0  2  0  0  0  0  0  0
  196.6100  170.9490  145.4770 C   0  0  0  0  0  0  0  0  0  0  0  0
  196.8730  172.3880  145.0980 C   0  0  0  0  0  2  0  0  0  0  0  0
  193.6580  171.8340  144.6500 C   0  0  1  0  0  3  0  0  0  0  0  0
  195.6570  173.3080  145.0470 C   0  0  2  0  0  3  0  0  0  0  0  0
  194.1810  171.1630  145.7880 O   0  0  0  0  0  0  0  0  0  0  0  0
  194.6510  172.8100  144.0170 C   0  0  0  0  0  2  0  0  0  0  0  0
  193.5590  169.4340  143.8090 C   0  0  0  0  0  2  0  0  0  0  0  0
  195.2490  170.2940  145.4440 C   0  0  1  0  0  3  0  0  0  0  0  0
  191.1920  171.2330  142.0440 N   0  0  0  0  0  0  0  0  0  0  0  0
  190.5520  171.2820  139.9020 C   0  0  0  0  0  0  0  0  0  0  0  0
  190.6350  172.4020  141.8300 C   0  0  0  0  0  0  0  0  0  0  0  0
  191.6030  169.2040  140.8380 C   0  0  0  0  0  3  0  0  0  0  0  0
  190.5820  169.7800  137.9760 N   0  0  0  0  0  0  0  0  0  0  0  0
  190.5360  173.2600  143.0330 C   0  0  2  0  0  3  0  0  0  0  0  0
  190.2320  172.5020  140.5210 C   0  0  0  0  0  0  0  0  0  0  0  0
  190.2840  170.9670  138.5630 C   0  0  0  0  0  0  0  0  0  0  0  0
  191.1020  172.3200  144.1250 C   0  0  0  0  0  2  0  0  0  0  0  0
  189.7290  171.8370  137.8420 O   0  0  0  0  0  0  0  0  0  0  0  0
  191.1520  168.6430  138.4440 C   0  0  0  0  0  3  0  0  0  0  0  0
  191.1430  170.5060  140.9080 C   0  0  0  0  0  0  0  0  0  0  0  0
  191.6070  168.3780  139.7310 C   0  0  0  0  0  3  0  0  0  0  0  0
  191.5770  171.0230  143.4240 C   0  0  2  0  0  3  0  0  0  0  0  0
  189.6140  173.6020  139.9360 O   0  0  0  0  0  1  0  0  0  0  0  0
  189.0850  173.5800  143.3620 C   0  0  0  0  0  2  0  0  0  0  0  0
  188.8780  175.0820  143.4080 C   0  0  0  0  0  1  0  0  0  0  0  0
  197.4750  174.7900  144.4800 O   0  0  0  0  0  1  0  0  0  0  0  0
  196.1080  174.7380  144.7560 C   0  0  1  0  0  3  0  0  0  0  0  0
  195.3110  175.3410  143.5930 C   0  0  0  0  0  2  0  0  0  0  0  0
  194.5480  177.3210  146.2430 C   0  0  0  0  0  1  0  0  0  0  0  0
  193.9820  176.1780  145.4190 C   0  0  2  0  0  3  0  0  0  0  0  0
  191.8430  176.0830  146.5850 N   0  0  0  0  0  0  0  0  0  0  0  0
  194.3440  176.3640  144.0140 N   0  0  0  0  0  0  0  0  0  0  0  0
  192.5060  176.1860  145.4690 C   0  0  0  0  0  0  0  0  0  0  0  0
  191.9180  176.3140  144.1230 C   0  0  0  0  0  2  0  0  0  0  0  0
  193.1220  176.2510  143.2040 C   0  0  0  0  0  2  0  0  0  0  0  0
  188.0000  175.5640  147.1680 N   0  0  0  0  0  0  0  0  0  0  0  0
  189.6370  177.1440  146.6200 N   0  0  0  0  0  0  0  0  0  0  0  0
  189.4520  174.7550  147.1630 S   0  0  0  0  0  0  0  0  0  0  0  0
  188.3180  176.8530  146.8520 C   0  0  0  0  0  0  0  0  0  0  0  0
  190.4180  176.0520  146.7540 C   0  0  0  0  0  0  0  0  0  0  0  0
  187.2590  177.8920  146.7100 C   0  0  0  0  0  2  0  0  0  0  0  0
  185.8710  177.2730  146.8400 C   0  0  0  0  0  2  0  0  0  0  0  0
  185.0290  177.5620  145.6060 C   0  0  0  0  0  2  0  0  0  0  0  0
  185.7180  177.0130  144.3510 C   0  0  0  0  0  2  0  0  0  0  0  0
  185.9890  178.0410  143.3390 N   0  0  0  0  0  0  0  0  0  0  0  0
  187.2140  176.3860  140.4800 C   0  0  0  0  0  1  0  0  0  0  0  0
  189.0170  178.4740  141.6130 O   0  0  0  0  0  0  0  0  0  0  0  0
  186.8260  177.7310  141.0650 C   0  0  1  0  0  3  0  0  0  0  0  0
  185.6370  177.5520  141.9960 C   0  0  0  0  0  2  0  0  0  0  0  0
  187.4130  178.3770  143.3560 C   0  0  0  0  0  2  0  0  0  0  0  0
  187.8780  178.2160  141.9730 C   0  0  0  0  0  0  0  0  0  0  0  0
  1 10  1  1  0  0  0
  1  6  1  0  0  0  0
  4  2  2  0  0  0  0
  5  4  1  0  0  0  0
  6  9  1  6  0  0  0
  6  8  1  0  0  0  0
  7 30  1  6  0  0  0
  7  5  1  0  0  0  0
  9  7  1  0  0  0  0
 10  3  1  0  0  0  0
 11  3  1  6  0  0  0
 11  4  1  0  0  0  0
 11  8  1  0  0  0  0
 12 25  1  0  0  0  0
 13 18  1  0  0  0  0
 13 23  2  0  0  0  0
 14 12  1  0  0  0  0
 14 17  1  0  0  0  0
 15 23  1  0  0  0  0
 16 22  2  0  0  0  0
 16 19  1  0  0  0  0
 17 27  1  1  0  0  0
 17 20  1  0  0  0  0
 18 14  2  0  0  0  0
 19 13  1  0  0  0  0
 21 19  2  0  0  0  0
 22 24  1  0  0  0  0
 23 12  1  0  0  0  0
 24 15  2  0  0  0  0
 25  1  1  0  0  0  0
 25 20  1  1  0  0  0
 26 18  1  0  0  0  0
 27 28  1  0  0  0  0
 30 29  1  6  0  0  0
 31 35  1  0  0  0  0
 31 30  1  0  0  0  0
 33 36  1  0  0  0  0
 33 32  1  1  0  0  0
 34 43  1  0  0  0  0
 35 33  1  0  0  0  0
 36 34  2  0  0  0  0
 37 36  1  0  0  0  0
 38 35  1  0  0  0  0
 38 37  1  0  0  0  0
 40 43  2  0  0  0  0
 40 42  1  0  0  0  0
 41 39  1  0  0  0  0
 42 39  2  0  0  0  0
 43 41  1  0  0  0  0
 44 45  1  0  0  0  0
 44 42  1  0  0  0  0
 46 45  1  0  0  0  0
 47 46  1  0  0  0  0
 48 53  1  0  0  0  0
 48 47  1  0  0  0  0
 50 54  2  0  0  0  0
 51 49  1  1  0  0  0
 51 54  1  0  0  0  0
 51 52  1  0  0  0  0
 52 48  1  0  0  0  0
 54 53  1  0  0  0  0
M  END
>  <MODEL>
1

>  <REMARK>
 VINA RESULT:      -8.3      0.000      0.000
  Name = 
  11 active torsions:
  status: ('A' for Active; 'I' for Inactive)
    1  A    between atoms: C_4  and  N_16
    2  A    between atoms: C_4  and  C_25
    3  A    between atoms: C_6  and  C_52
    4  A    between atoms: C_9  and  C_15
    5  A    between atoms: C_17  and  C_23
    6  A    between atoms: C_17  and  C_35
    7  A    between atoms: C_18  and  N_33
    8  A    between atoms: C_18  and  C_36
    9  A    between atoms: C_23  and  C_25
   10  A    between atoms: N_31  and  C_37
   11  A    between atoms: C_32  and  C_36
                            x       y       z     vdW  Elec       q    Type
                         _______ _______ _______ _____ _____    ______ ____

>  <TORSDO>
F 11

$$$$
=
 OpenBabel11042416313D

 54 61  0  0  1  0  0  0  0  0999 V2000
  194.3650  174.3140  140.2900 C   0  0  1  0  0  3  0  0  0  0  0  0
  196.9580  177.1590  143.5060 O   0  0  0  0  0  0  0  0  0  0  0  0
  195.8420  176.2470  140.7560 C   0  0  0  0  0  2  0  0  0  0  0  0
  196.2310  176.2080  143.2630 C   0  0  0  0  0  0  0  0  0  0  0  0
  195.1410  175.8840  144.2590 C   0  0  0  0  0  2  0  0  0  0  0  0
  194.7570  173.8500  141.6980 C   0  0  1  0  0  3  0  0  0  0  0  0
  194.4620  174.5270  144.1030 C   0  0  2  0  0  3  0  0  0  0  0  0
  196.1210  174.0970  142.0070 O   0  0  0  0  0  0  0  0  0  0  0  0
  193.7910  174.4170  142.7390 C   0  0  0  0  0  2  0  0  0  0  0  0
  195.3950  175.2700  139.6850 C   0  0  0  0  0  2  0  0  0  0  0  0
  196.4320  175.4820  141.9530 C   0  0  1  0  0  3  0  0  0  0  0  0
  192.7490  173.3680  138.6640 N   0  0  0  0  0  0  0  0  0  0  0  0
  190.9900  173.8090  137.3550 C   0  0  0  0  0  0  0  0  0  0  0  0
  191.8000  172.5210  138.9870 C   0  0  0  0  0  0  0  0  0  0  0  0
  193.1150  175.1130  137.0640 C   0  0  0  0  0  3  0  0  0  0  0  0
  190.4320  175.3510  135.5450 N   0  0  0  0  0  0  0  0  0  0  0  0
  192.1910  171.5310  140.0160 C   0  0  2  0  0  3  0  0  0  0  0  0
  190.6810  172.7510  138.2250 C   0  0  0  0  0  0  0  0  0  0  0  0
  190.1200  174.3380  136.3930 C   0  0  0  0  0  0  0  0  0  0  0  0
  193.6810  171.8920  140.2350 C   0  0  0  0  0  2  0  0  0  0  0  0
  188.9620  173.8500  136.2980 O   0  0  0  0  0  0  0  0  0  0  0  0
  191.5590  176.0810  135.3630 C   0  0  0  0  0  3  0  0  0  0  0  0
  192.3140  174.1570  137.6580 C   0  0  0  0  0  0  0  0  0  0  0  0
  192.7690  175.9730  136.0390 C   0  0  0  0  0  3  0  0  0  0  0  0
  193.9900  173.1410  139.3740 C   0  0  2  0  0  3  0  0  0  0  0  0
  189.4800  172.0520  138.3020 O   0  0  0  0  0  1  0  0  0  0  0  0
  192.1020  170.1110  139.4750 C   0  0  0  0  0  2  0  0  0  0  0  0
  190.9140  169.3920  140.0840 C   0  0  0  0  0  1  0  0  0  0  0  0
  193.9010  174.9460  146.4120 O   0  0  0  0  0  1  0  0  0  0  0  0
  193.4690  174.3150  145.2440 C   0  0  1  0  0  3  0  0  0  0  0  0
  192.0720  174.8150  144.8590 C   0  0  0  0  0  2  0  0  0  0  0  0
  190.7950  175.3280  147.9620 C   0  0  0  0  0  1  0  0  0  0  0  0
  190.4180  175.4370  146.4950 C   0  0  2  0  0  3  0  0  0  0  0  0
  188.2070  176.3870  146.8900 N   0  0  0  0  0  0  0  0  0  0  0  0
  191.5760  175.8920  145.7270 N   0  0  0  0  0  0  0  0  0  0  0  0
  189.3690  176.4590  146.3050 C   0  0  0  0  0  0  0  0  0  0  0  0
  189.8090  177.5250  145.3880 C   0  0  0  0  0  2  0  0  0  0  0  0
  191.1610  177.0370  144.9030 C   0  0  0  0  0  2  0  0  0  0  0  0
  185.3380  179.0590  146.9310 N   0  0  0  0  0  0  0  0  0  0  0  0
  186.3080  177.3400  145.6750 N   0  0  0  0  0  0  0  0  0  0  0  0
  186.6050  178.4750  147.8330 S   0  0  0  0  0  0  0  0  0  0  0  0
  185.3480  178.3110  145.7900 C   0  0  0  0  0  0  0  0  0  0  0  0
  187.1070  177.3000  146.7610 C   0  0  0  0  0  0  0  0  0  0  0  0
  184.3150  178.5070  144.7330 C   0  0  0  0  0  2  0  0  0  0  0  0
  184.8690  178.1410  143.3590 C   0  0  0  0  0  2  0  0  0  0  0  0
  186.0020  179.0770  142.9620 C   0  0  0  0  0  2  0  0  0  0  0  0
  187.1290  178.2900  142.2830 C   0  0  0  0  0  2  0  0  0  0  0  0
  186.7700  176.8980  141.9850 N   0  0  0  0  0  0  0  0  0  0  0  0
  189.7410  175.0100  142.1090 C   0  0  0  0  0  1  0  0  0  0  0  0
  188.2530  174.8750  139.5280 O   0  0  0  0  0  0  0  0  0  0  0  0
  188.2390  174.9480  141.9040 C   0  0  1  0  0  3  0  0  0  0  0  0
  187.5650  175.9710  142.8070 C   0  0  0  0  0  2  0  0  0  0  0  0
  187.0330  176.6170  140.5740 C   0  0  0  0  0  2  0  0  0  0  0  0
  187.8880  175.4230  140.5570 C   0  0  0  0  0  0  0  0  0  0  0  0
  1 10  1  6  0  0  0
  1  6  1  0  0  0  0
  4  2  2  0  0  0  0
  4  5  1  0  0  0  0
  6  8  1  0  0  0  0
  6  9  1  1  0  0  0
  7  5  1  0  0  0  0
  7 30  1  1  0  0  0
  9  7  1  0  0  0  0
 10  3  1  0  0  0  0
 11  3  1  6  0  0  0
 11  8  1  0  0  0  0
 11  4  1  0  0  0  0
 12 14  1  0  0  0  0
 12 25  1  0  0  0  0
 13 23  2  0  0  0  0
 13 18  1  0  0  0  0
 14 17  1  0  0  0  0
 15 23  1  0  0  0  0
 16 19  1  0  0  0  0
 17 27  1  6  0  0  0
 17 20  1  0  0  0  0
 18 26  1  0  0  0  0
 18 14  2  0  0  0  0
 19 13  1  0  0  0  0
 21 19  2  0  0  0  0
 22 16  2  0  0  0  0
 22 24  1  0  0  0  0
 23 12  1  0  0  0  0
 24 15  2  0  0  0  0
 25 20  1  1  0  0  0
 25  1  1  0  0  0  0
 27 28  1  0  0  0  0
 30 29  1  1  0  0  0
 31 30  1  0  0  0  0
 31 35  1  0  0  0  0
 33 32  1  1  0  0  0
 35 33  1  0  0  0  0
 36 33  1  0  0  0  0
 36 34  2  0  0  0  0
 37 36  1  0  0  0  0
 38 37  1  0  0  0  0
 38 35  1  0  0  0  0
 39 41  1  0  0  0  0
 40 42  1  0  0  0  0
 40 43  2  0  0  0  0
 42 39  2  0  0  0  0
 43 34  1  0  0  0  0
 43 41  1  0  0  0  0
 44 42  1  0  0  0  0
 45 44  1  0  0  0  0
 46 45  1  0  0  0  0
 47 46  1  0  0  0  0
 48 47  1  0  0  0  0
 48 52  1  0  0  0  0
 50 54  2  0  0  0  0
 51 49  1  6  0  0  0
 51 52  1  0  0  0  0
 53 48  1  0  0  0  0
 54 53  1  0  0  0  0
 54 51  1  0  0  0  0
M  END
>  <MODEL>
2

>  <REMARK>
 VINA RESULT:      -8.1      2.780      4.550
  Name = 
  11 active torsions:
  status: ('A' for Active; 'I' for Inactive)
    1  A    between atoms: C_4  and  N_16
    2  A    between atoms: C_4  and  C_25
    3  A    between atoms: C_6  and  C_52
    4  A    between atoms: C_9  and  C_15
    5  A    between atoms: C_17  and  C_23
    6  A    between atoms: C_17  and  C_35
    7  A    between atoms: C_18  and  N_33
    8  A    between atoms: C_18  and  C_36
    9  A    between atoms: C_23  and  C_25
   10  A    between atoms: N_31  and  C_37
   11  A    between atoms: C_32  and  C_36
                            x       y       z     vdW  Elec       q    Type
                         _______ _______ _______ _____ _____    ______ ____

>  <TORSDO>
F 11

$$$$
=
 OpenBabel11042416313D

 54 61  0  0  1  0  0  0  0  0999 V2000
  194.3560  174.4050  140.2830 C   0  0  1  0  0  3  0  0  0  0  0  0
  196.7650  177.1070  143.7560 O   0  0  0  0  0  0  0  0  0  0  0  0
  195.7630  176.3420  140.9180 C   0  0  0  0  0  2  0  0  0  0  0  0
  196.0730  176.1540  143.4290 C   0  0  0  0  0  0  0  0  0  0  0  0
  194.9620  175.7390  144.3670 C   0  0  0  0  0  2  0  0  0  0  0  0
  194.7160  173.8630  141.6720 C   0  0  1  0  0  3  0  0  0  0  0  0
  194.3270  174.3780  144.1030 C   0  0  2  0  0  3  0  0  0  0  0  0
  196.0630  174.1260  142.0410 O   0  0  0  0  0  0  0  0  0  0  0  0
  193.7020  174.3370  142.7130 C   0  0  0  0  0  2  0  0  0  0  0  0
  195.3770  175.4240  139.7740 C   0  0  0  0  0  2  0  0  0  0  0  0
  196.3360  175.5180  142.0840 C   0  0  1  0  0  3  0  0  0  0  0  0
  192.8420  173.5410  138.5200 N   0  0  0  0  0  0  0  0  0  0  0  0
  191.1530  174.0430  137.1420 C   0  0  0  0  0  0  0  0  0  0  0  0
  191.8840  172.6710  138.7430 C   0  0  0  0  0  0  0  0  0  0  0  0
  193.2770  175.3760  137.0430 C   0  0  0  0  0  3  0  0  0  0  0  0
  190.6790  175.6800  135.3930 N   0  0  0  0  0  0  0  0  0  0  0  0
  192.2280  171.6270  139.7340 C   0  0  2  0  0  3  0  0  0  0  0  0
  190.8060  172.9360  137.9340 C   0  0  0  0  0  0  0  0  0  0  0  0
  190.3310  174.6200  136.1650 C   0  0  0  0  0  0  0  0  0  0  0  0
  193.7000  171.9850  140.0550 C   0  0  0  0  0  2  0  0  0  0  0  0
  189.1860  174.1300  135.9790 O   0  0  0  0  0  0  0  0  0  0  0  0
  191.8070  176.4270  135.3150 C   0  0  0  0  0  3  0  0  0  0  0  0
  192.4540  174.3820  137.5370 C   0  0  0  0  0  0  0  0  0  0  0  0
  192.9790  176.2900  136.0500 C   0  0  0  0  0  3  0  0  0  0  0  0
  194.0430  173.2830  139.2840 C   0  0  2  0  0  3  0  0  0  0  0  0
  189.6100  172.2260  137.9040 O   0  0  0  0  0  1  0  0  0  0  0  0
  192.1830  170.2390  139.1100 C   0  0  0  0  0  2  0  0  0  0  0  0
  190.9230  169.5130  139.5400 C   0  0  0  0  0  1  0  0  0  0  0  0
  193.7450  173.0320  146.0190 O   0  0  0  0  0  1  0  0  0  0  0  0
  193.3050  174.0680  145.1950 C   0  0  1  0  0  3  0  0  0  0  0  0
  192.9980  175.3150  146.0330 C   0  0  0  0  0  2  0  0  0  0  0  0
  189.6980  174.5570  146.2760 C   0  0  0  0  0  1  0  0  0  0  0  0
  190.7680  174.8640  145.2440 C   0  0  2  0  0  3  0  0  0  0  0  0
  189.2680  174.7960  143.3220 N   0  0  0  0  0  0  0  0  0  0  0  0
  191.6720  175.8880  145.7670 N   0  0  0  0  0  0  0  0  0  0  0  0
  190.1620  175.4330  144.0230 C   0  0  0  0  0  0  0  0  0  0  0  0
  190.7000  176.7720  143.7230 C   0  0  0  0  0  2  0  0  0  0  0  0
  191.7890  176.9560  144.7630 C   0  0  0  0  0  2  0  0  0  0  0  0
  187.6620  175.5960  139.8360 N   0  0  0  0  0  0  0  0  0  0  0  0
  187.9300  176.3810  142.0240 N   0  0  0  0  0  0  0  0  0  0  0  0
  188.5810  174.4640  140.6330 S   0  0  0  0  0  0  0  0  0  0  0  0
  187.4070  176.5580  140.7700 C   0  0  0  0  0  0  0  0  0  0  0  0
  188.6320  175.2330  142.1120 C   0  0  0  0  0  0  0  0  0  0  0  0
  186.6360  177.7840  140.4190 C   0  0  0  0  0  2  0  0  0  0  0  0
  185.1480  177.5860  140.6950 C   0  0  0  0  0  2  0  0  0  0  0  0
  184.6730  178.5110  141.8050 C   0  0  0  0  0  2  0  0  0  0  0  0
  184.8390  177.8340  143.1700 C   0  0  0  0  0  2  0  0  0  0  0  0
  185.3070  178.7470  144.2210 N   0  0  0  0  0  0  0  0  0  0  0  0
  186.7150  176.7630  146.7690 C   0  0  0  0  0  1  0  0  0  0  0  0
  184.4860  178.5480  147.6290 O   0  0  0  0  0  0  0  0  0  0  0  0
  186.4320  178.1830  146.3140 C   0  0  1  0  0  3  0  0  0  0  0  0
  186.5710  178.2640  144.8010 C   0  0  0  0  0  2  0  0  0  0  0  0
  184.3030  178.8240  145.2820 C   0  0  0  0  0  2  0  0  0  0  0  0
  185.0150  178.5150  146.5280 C   0  0  0  0  0  0  0  0  0  0  0  0
  1 10  1  6  0  0  0
  1  6  1  0  0  0  0
  4  2  2  0  0  0  0
  4  5  1  0  0  0  0
  6  8  1  0  0  0  0
  6  9  1  1  0  0  0
  7  5  1  0  0  0  0
  7 30  1  1  0  0  0
  8 11  1  0  0  0  0
  9  7  1  0  0  0  0
 10  3  1  0  0  0  0
 11  3  1  6  0  0  0
 11  4  1  0  0  0  0
 12 14  1  0  0  0  0
 12 25  1  0  0  0  0
 13 23  2  0  0  0  0
 13 18  1  0  0  0  0
 14 17  1  0  0  0  0
 15 23  1  0  0  0  0
 16 19  1  0  0  0  0
 17 27  1  6  0  0  0
 17 20  1  0  0  0  0
 18 14  2  0  0  0  0
 19 13  1  0  0  0  0
 21 19  2  0  0  0  0
 22 16  2  0  0  0  0
 22 24  1  0  0  0  0
 23 12  1  0  0  0  0
 24 15  2  0  0  0  0
 25 20  1  1  0  0  0
 25  1  1  0  0  0  0
 26 18  1  0  0  0  0
 27 28  1  0  0  0  0
 30 29  1  1  0  0  0
 30 31  1  0  0  0  0
 33 35  1  0  0  0  0
 33 32  1  1  0  0  0
 34 36  2  0  0  0  0
 35 31  1  0  0  0  0
 36 33  1  0  0  0  0
 37 36  1  0  0  0  0
 37 38  1  0  0  0  0
 38 35  1  0  0  0  0
 39 41  1  0  0  0  0
 39 42  2  0  0  0  0
 40 43  2  0  0  0  0
 41 43  1  0  0  0  0
 42 40  1  0  0  0  0
 43 34  1  0  0  0  0
 44 45  1  0  0  0  0
 44 42  1  0  0  0  0
 45 46  1  0  0  0  0
 46 47  1  0  0  0  0
 47 48  1  0  0  0  0
 48 52  1  0  0  0  0
 48 53  1  0  0  0  0
 51 54  1  0  0  0  0
 51 49  1  6  0  0  0
 52 51  1  0  0  0  0
 53 54  1  0  0  0  0
 54 50  2  0  0  0  0
M  END
>  <MODEL>
3

>  <REMARK>
 VINA RESULT:      -8.0      3.141      5.151
  Name = 
  11 active torsions:
  status: ('A' for Active; 'I' for Inactive)
    1  A    between atoms: C_4  and  N_16
    2  A    between atoms: C_4  and  C_25
    3  A    between atoms: C_6  and  C_52
    4  A    between atoms: C_9  and  C_15
    5  A    between atoms: C_17  and  C_23
    6  A    between atoms: C_17  and  C_35
    7  A    between atoms: C_18  and  N_33
    8  A    between atoms: C_18  and  C_36
    9  A    between atoms: C_23  and  C_25
   10  A    between atoms: N_31  and  C_37
   11  A    between atoms: C_32  and  C_36
                            x       y       z     vdW  Elec       q    Type
                         _______ _______ _______ _____ _____    ______ ____

>  <TORSDO>
F 11

$$$$
=
 OpenBabel11042416313D

 54 61  0  0  1  0  0  0  0  0999 V2000
  193.2330  170.8270  143.2890 C   0  0  1  0  0  3  0  0  0  0  0  0
  197.3120  170.4980  146.1900 O   0  0  0  0  0  0  0  0  0  0  0  0
  195.2130  169.5760  144.0960 C   0  0  0  0  0  2  0  0  0  0  0  0
  196.3310  171.1040  145.7850 C   0  0  0  0  0  0  0  0  0  0  0  0
  196.4610  172.5970  145.5850 C   0  0  0  0  0  2  0  0  0  0  0  0
  193.4730  171.7250  144.5090 C   0  0  1  0  0  3  0  0  0  0  0  0
  195.1600  173.3690  145.3910 C   0  0  2  0  0  3  0  0  0  0  0  0
  193.8780  171.0000  145.6620 O   0  0  0  0  0  0  0  0  0  0  0  0
  194.4210  172.8710  144.1540 C   0  0  0  0  0  2  0  0  0  0  0  0
  193.8410  169.4350  143.4620 C   0  0  0  0  0  2  0  0  0  0  0  0
  195.0960  170.3030  145.4470 C   0  0  1  0  0  3  0  0  0  0  0  0
  191.5890  171.1660  141.4640 N   0  0  0  0  0  0  0  0  0  0  0  0
  191.3220  171.4370  139.2600 C   0  0  0  0  0  0  0  0  0  0  0  0
  190.9160  172.2800  141.2860 C   0  0  0  0  0  0  0  0  0  0  0  0
  192.4840  169.3890  140.1300 C   0  0  0  0  0  3  0  0  0  0  0  0
  191.8920  170.2300  137.2140 N   0  0  0  0  0  0  0  0  0  0  0  0
  190.4940  172.9440  142.5390 C   0  0  2  0  0  3  0  0  0  0  0  0
  190.7320  172.5110  139.9440 C   0  0  0  0  0  0  0  0  0  0  0  0
  191.3330  171.2800  137.8670 C   0  0  0  0  0  0  0  0  0  0  0  0
  190.9940  171.9350  143.6020 C   0  0  0  0  0  2  0  0  0  0  0  0
  190.7910  172.1700  137.1600 O   0  0  0  0  0  0  0  0  0  0  0  0
  192.5310  169.1160  137.6450 C   0  0  0  0  0  3  0  0  0  0  0  0
  191.8380  170.6040  140.2620 C   0  0  0  0  0  0  0  0  0  0  0  0
  192.7930  168.7310  138.9550 C   0  0  0  0  0  3  0  0  0  0  0  0
  191.7600  170.8140  142.8570 C   0  0  2  0  0  3  0  0  0  0  0  0
  190.0720  173.6000  139.3850 O   0  0  0  0  0  1  0  0  0  0  0  0
  188.9770  173.0400  142.6260 C   0  0  0  0  0  2  0  0  0  0  0  0
  188.5540  174.4870  142.7990 C   0  0  0  0  0  1  0  0  0  0  0  0
  195.5350  175.2930  143.9840 O   0  0  0  0  0  1  0  0  0  0  0  0
  195.4590  174.8650  145.3100 C   0  0  1  0  0  3  0  0  0  0  0  0
  194.4050  175.6800  146.0690 C   0  0  0  0  0  2  0  0  0  0  0  0
  191.9440  175.9570  143.7470 C   0  0  0  0  0  1  0  0  0  0  0  0
  192.2570  176.3210  145.1880 C   0  0  2  0  0  3  0  0  0  0  0  0
  190.0720  177.2890  145.6670 N   0  0  0  0  0  0  0  0  0  0  0  0
  193.0270  175.2420  145.8060 N   0  0  0  0  0  0  0  0  0  0  0  0
  191.0130  176.4430  145.9730 C   0  0  0  0  0  0  0  0  0  0  0  0
  190.9960  175.5080  147.1130 C   0  0  0  0  0  2  0  0  0  0  0  0
  192.3760  174.8790  147.0740 C   0  0  0  0  0  2  0  0  0  0  0  0
  186.9430  178.1630  147.8630 N   0  0  0  0  0  0  0  0  0  0  0  0
  187.6490  177.0540  145.9280 N   0  0  0  0  0  0  0  0  0  0  0  0
  188.5890  178.3730  147.7750 S   0  0  0  0  0  0  0  0  0  0  0  0
  186.6270  177.4220  146.7620 C   0  0  0  0  0  0  0  0  0  0  0  0
  188.8390  177.5150  146.3660 C   0  0  0  0  0  0  0  0  0  0  0  0
  185.2250  176.9810  146.5100 C   0  0  0  0  0  2  0  0  0  0  0  0
  184.3600  178.1550  146.0620 C   0  0  0  0  0  2  0  0  0  0  0  0
  185.0310  178.9260  144.9350 C   0  0  0  0  0  2  0  0  0  0  0  0
  184.1580  178.8930  143.6750 C   0  0  0  0  0  2  0  0  0  0  0  0
  184.4420  177.7490  142.8000 N   0  0  0  0  0  0  0  0  0  0  0  0
  187.8040  178.0290  141.7850 C   0  0  0  0  0  1  0  0  0  0  0  0
  185.8090  177.9250  139.5700 O   0  0  0  0  0  0  0  0  0  0  0  0
  186.5490  177.1800  141.7030 C   0  0  1  0  0  3  0  0  0  0  0  0
  185.8080  177.2480  143.0290 C   0  0  0  0  0  2  0  0  0  0  0  0
  184.3240  178.1640  141.4020 C   0  0  0  0  0  2  0  0  0  0  0  0
  185.5890  177.7780  140.7630 C   0  0  0  0  0  0  0  0  0  0  0  0
  1 10  1  1  0  0  0
  1  6  1  0  0  0  0
  4  2  2  0  0  0  0
  5  4  1  0  0  0  0
  6  9  1  6  0  0  0
  6  8  1  0  0  0  0
  7 30  1  6  0  0  0
  7  5  1  0  0  0  0
  9  7  1  0  0  0  0
 10  3  1  0  0  0  0
 11  3  1  6  0  0  0
 11  8  1  0  0  0  0
 11  4  1  0  0  0  0
 12 25  1  0  0  0  0
 13 18  1  0  0  0  0
 13 23  2  0  0  0  0
 14 12  1  0  0  0  0
 14 17  1  0  0  0  0
 15 23  1  0  0  0  0
 16 22  2  0  0  0  0
 16 19  1  0  0  0  0
 17 27  1  6  0  0  0
 17 20  1  0  0  0  0
 18 14  2  0  0  0  0
 19 13  1  0  0  0  0
 21 19  2  0  0  0  0
 22 24  1  0  0  0  0
 23 12  1  0  0  0  0
 24 15  2  0  0  0  0
 25  1  1  0  0  0  0
 25 20  1  1  0  0  0
 26 18  1  0  0  0  0
 27 28  1  0  0  0  0
 30 29  1  6  0  0  0
 30 31  1  0  0  0  0
 33 32  1  6  0  0  0
 33 35  1  0  0  0  0
 33 36  1  0  0  0  0
 34 36  2  0  0  0  0
 34 43  1  0  0  0  0
 35 31  1  0  0  0  0
 35 38  1  0  0  0  0
 36 37  1  0  0  0  0
 38 37  1  0  0  0  0
 40 43  2  0  0  0  0
 40 42  1  0  0  0  0
 41 39  1  0  0  0  0
 42 39  2  0  0  0  0
 43 41  1  0  0  0  0
 44 42  1  0  0  0  0
 45 44  1  0  0  0  0
 46 45  1  0  0  0  0
 47 46  1  0  0  0  0
 48 52  1  0  0  0  0
 48 47  1  0  0  0  0
 50 54  2  0  0  0  0
 51 49  1  1  0  0  0
 51 52  1  0  0  0  0
 53 48  1  0  0  0  0
 54 53  1  0  0  0  0
 54 51  1  0  0  0  0
M  END
>  <MODEL>
4

>  <REMARK>
 VINA RESULT:      -7.6      1.354      1.875
  Name = 
  11 active torsions:
  status: ('A' for Active; 'I' for Inactive)
    1  A    between atoms: C_4  and  N_16
    2  A    between atoms: C_4  and  C_25
    3  A    between atoms: C_6  and  C_52
    4  A    between atoms: C_9  and  C_15
    5  A    between atoms: C_17  and  C_23
    6  A    between atoms: C_17  and  C_35
    7  A    between atoms: C_18  and  N_33
    8  A    between atoms: C_18  and  C_36
    9  A    between atoms: C_23  and  C_25
   10  A    between atoms: N_31  and  C_37
   11  A    between atoms: C_32  and  C_36
                            x       y       z     vdW  Elec       q    Type
                         _______ _______ _______ _____ _____    ______ ____

>  <TORSDO>
F 11

$$$$
=
 OpenBabel11042416313D

 54 61  0  0  1  0  0  0  0  0999 V2000
  195.0270  173.0000  140.3990 C   0  0  1  0  0  3  0  0  0  0  0  0
  192.0710  173.6150  136.3930 O   0  0  0  0  0  0  0  0  0  0  0  0
  194.7330  173.2820  137.9560 C   0  0  0  0  0  2  0  0  0  0  0  0
  192.2300  173.4770  137.5970 C   0  0  0  0  0  0  0  0  0  0  0  0
  191.2230  172.6340  138.3450 C   0  0  0  0  0  2  0  0  0  0  0  0
  193.5730  173.4800  140.4910 C   0  0  1  0  0  3  0  0  0  0  0  0
  191.2530  172.7350  139.8670 C   0  0  2  0  0  3  0  0  0  0  0  0
  193.2700  174.5160  139.5670 O   0  0  0  0  0  0  0  0  0  0  0  0
  192.6090  172.2960  140.4060 C   0  0  0  0  0  2  0  0  0  0  0  0
  195.7080  173.4510  139.1060 C   0  0  0  0  0  2  0  0  0  0  0  0
  193.4570  174.0970  138.2230 C   0  0  1  0  0  3  0  0  0  0  0  0
  195.4700  172.4610  142.7790 N   0  0  0  0  0  0  0  0  0  0  0  0
  195.1370  170.9770  144.4180 C   0  0  0  0  0  0  0  0  0  0  0  0
  194.9290  173.1070  143.7860 C   0  0  0  0  0  0  0  0  0  0  0  0
  196.2400  170.2470  142.2850 C   0  0  0  0  0  3  0  0  0  0  0  0
  195.5420  168.6000  144.8080 N   0  0  0  0  0  0  0  0  0  0  0  0
  194.7840  174.5640  143.5680 C   0  0  2  0  0  3  0  0  0  0  0  0
  194.6840  172.2420  144.8250 C   0  0  0  0  0  0  0  0  0  0  0  0
  195.0880  169.8170  145.2020 C   0  0  0  0  0  0  0  0  0  0  0  0
  195.4450  174.7310  142.1780 C   0  0  0  0  0  2  0  0  0  0  0  0
  194.5910  169.8930  146.3570 O   0  0  0  0  0  0  0  0  0  0  0  0
  196.1340  168.1670  143.6680 C   0  0  0  0  0  3  0  0  0  0  0  0
  195.6390  171.1660  143.1240 C   0  0  0  0  0  0  0  0  0  0  0  0
  196.4550  168.9050  142.5340 C   0  0  0  0  0  3  0  0  0  0  0  0
  195.8260  173.3190  141.6690 C   0  0  2  0  0  3  0  0  0  0  0  0
  194.1100  172.5740  146.0480 O   0  0  0  0  0  1  0  0  0  0  0  0
  195.5830  175.3550  144.5930 C   0  0  0  0  0  2  0  0  0  0  0  0
  195.0000  176.7470  144.7500 C   0  0  0  0  0  1  0  0  0  0  0  0
  190.5960  170.7770  141.1150 O   0  0  0  0  0  1  0  0  0  0  0  0
  190.1120  171.9090  140.4580 C   0  0  1  0  0  3  0  0  0  0  0  0
  189.2610  172.7520  141.4160 C   0  0  0  0  0  2  0  0  0  0  0  0
  191.0690  172.7800  144.2890 C   0  0  0  0  0  1  0  0  0  0  0  0
  189.8150  173.3770  143.6740 C   0  0  2  0  0  3  0  0  0  0  0  0
  189.2710  174.7960  145.5810 N   0  0  0  0  0  0  0  0  0  0  0  0
  190.0530  173.6580  142.2590 N   0  0  0  0  0  0  0  0  0  0  0  0
  189.4980  174.6740  144.3050 C   0  0  0  0  0  0  0  0  0  0  0  0
  189.4690  175.7670  143.3150 C   0  0  0  0  0  2  0  0  0  0  0  0
  189.6570  175.0490  141.9920 C   0  0  0  0  0  2  0  0  0  0  0  0
  188.7790  178.1490  147.5540 N   0  0  0  0  0  0  0  0  0  0  0  0
  187.6540  176.3790  146.5150 N   0  0  0  0  0  0  0  0  0  0  0  0
  189.9510  177.1310  146.9600 S   0  0  0  0  0  0  0  0  0  0  0  0
  187.5980  177.5630  147.2030 C   0  0  0  0  0  0  0  0  0  0  0  0
  188.9280  175.9910  146.2980 C   0  0  0  0  0  0  0  0  0  0  0  0
  186.2930  178.1620  147.6050 C   0  0  0  0  0  2  0  0  0  0  0  0
  185.1370  177.4810  146.8800 C   0  0  0  0  0  2  0  0  0  0  0  0
  184.2640  178.5030  146.1670 C   0  0  0  0  0  2  0  0  0  0  0  0
  184.8800  178.8760  144.8130 C   0  0  0  0  0  2  0  0  0  0  0  0
  184.7950  177.7990  143.8180 N   0  0  0  0  0  0  0  0  0  0  0  0
  187.4340  178.2860  141.5350 C   0  0  0  0  0  1  0  0  0  0  0  0
  184.7040  178.2260  140.3340 O   0  0  0  0  0  0  0  0  0  0  0  0
  186.2700  177.3890  141.9150 C   0  0  1  0  0  3  0  0  0  0  0  0
  186.1410  177.3460  143.4300 C   0  0  0  0  0  2  0  0  0  0  0  0
  184.1040  178.2900  142.6260 C   0  0  0  0  0  2  0  0  0  0  0  0
  184.9980  177.9990  141.4980 C   0  0  0  0  0  0  0  0  0  0  0  0
  1 10  1  6  0  0  0
  1  6  1  0  0  0  0
  1 25  1  0  0  0  0
  2  4  2  0  0  0  0
  3 10  1  0  0  0  0
  4 11  1  0  0  0  0
  4  5  1  0  0  0  0
  5  7  1  0  0  0  0
  6  9  1  6  0  0  0
  7  9  1  0  0  0  0
  7 30  1  1  0  0  0
  8  6  1  0  0  0  0
 11  3  1  1  0  0  0
 11  8  1  0  0  0  0
 12 23  1  0  0  0  0
 12 14  1  0  0  0  0
 13 18  1  0  0  0  0
 13 19  1  0  0  0  0
 14 18  2  0  0  0  0
 15 24  2  0  0  0  0
 15 23  1  0  0  0  0
 16 19  1  0  0  0  0
 17 14  1  0  0  0  0
 17 27  1  1  0  0  0
 18 26  1  0  0  0  0
 19 21  2  0  0  0  0
 20 17  1  0  0  0  0
 22 16  2  0  0  0  0
 23 13  2  0  0  0  0
 24 22  1  0  0  0  0
 25 20  1  1  0  0  0
 25 12  1  0  0  0  0
 27 28  1  0  0  0  0
 30 29  1  1  0  0  0
 30 31  1  0  0  0  0
 31 35  1  0  0  0  0
 33 32  1  1  0  0  0
 33 36  1  0  0  0  0
 34 43  1  0  0  0  0
 35 33  1  0  0  0  0
 36 34  2  0  0  0  0
 37 36  1  0  0  0  0
 38 35  1  0  0  0  0
 38 37  1  0  0  0  0
 40 42  1  0  0  0  0
 41 39  1  0  0  0  0
 42 39  2  0  0  0  0
 42 44  1  0  0  0  0
 43 40  2  0  0  0  0
 43 41  1  0  0  0  0
 45 44  1  0  0  0  0
 46 45  1  0  0  0  0
 47 46  1  0  0  0  0
 48 47  1  0  0  0  0
 50 54  2  0  0  0  0
 51 49  1  1  0  0  0
 51 52  1  0  0  0  0
 52 48  1  0  0  0  0
 53 48  1  0  0  0  0
 54 51  1  0  0  0  0
 54 53  1  0  0  0  0
M  END
>  <MODEL>
5

>  <REMARK>
 VINA RESULT:      -7.4      2.378      5.673
  Name = 
  11 active torsions:
  status: ('A' for Active; 'I' for Inactive)
    1  A    between atoms: C_4  and  N_16
    2  A    between atoms: C_4  and  C_25
    3  A    between atoms: C_6  and  C_52
    4  A    between atoms: C_9  and  C_15
    5  A    between atoms: C_17  and  C_23
    6  A    between atoms: C_17  and  C_35
    7  A    between atoms: C_18  and  N_33
    8  A    between atoms: C_18  and  C_36
    9  A    between atoms: C_23  and  C_25
   10  A    between atoms: N_31  and  C_37
   11  A    between atoms: C_32  and  C_36
                            x       y       z     vdW  Elec       q    Type
                         _______ _______ _______ _____ _____    ______ ____

>  <TORSDO>
F 11

$$$$
=
 OpenBabel11042416313D

 54 61  0  0  1  0  0  0  0  0999 V2000
  196.2150  173.8260  141.0550 C   0  0  1  0  0  3  0  0  0  0  0  0
  195.6030  174.8280  136.1780 O   0  0  0  0  0  0  0  0  0  0  0  0
  197.1400  174.0900  138.7720 C   0  0  0  0  0  2  0  0  0  0  0  0
  195.1590  174.6970  137.3090 C   0  0  0  0  0  0  0  0  0  0  0  0
  193.7980  174.0560  137.4590 C   0  0  0  0  0  2  0  0  0  0  0  0
  194.9850  174.5480  140.4910 C   0  0  1  0  0  3  0  0  0  0  0  0
  193.1340  174.1900  138.8250 C   0  0  2  0  0  3  0  0  0  0  0  0
  195.3170  175.5960  139.5910 O   0  0  0  0  0  0  0  0  0  0  0  0
  193.9930  173.5420  139.9050 C   0  0  0  0  0  2  0  0  0  0  0  0
  197.4820  174.1210  140.2510 C   0  0  0  0  0  2  0  0  0  0  0  0
  196.0360  175.1160  138.4650 C   0  0  1  0  0  3  0  0  0  0  0  0
  195.9180  172.9000  143.3360 N   0  0  0  0  0  0  0  0  0  0  0  0
  195.4810  171.0590  144.5280 C   0  0  0  0  0  0  0  0  0  0  0  0
  194.8860  173.1670  144.1030 C   0  0  0  0  0  0  0  0  0  0  0  0
  197.4380  171.0880  142.9570 C   0  0  0  0  0  3  0  0  0  0  0  0
  196.4110  168.8150  144.7860 N   0  0  0  0  0  0  0  0  0  0  0  0
  194.3990  174.5620  144.0060 C   0  0  2  0  0  3  0  0  0  0  0  0
  194.5560  172.0650  144.8530 C   0  0  0  0  0  0  0  0  0  0  0  0
  195.5050  169.7770  145.0940 C   0  0  0  0  0  0  0  0  0  0  0  0
  195.4300  175.1770  143.0290 C   0  0  0  0  0  2  0  0  0  0  0  0
  194.6290  169.4830  145.9500 O   0  0  0  0  0  0  0  0  0  0  0  0
  197.4720  168.7910  143.9430 C   0  0  0  0  0  3  0  0  0  0  0  0
  196.3310  171.6370  143.5760 C   0  0  0  0  0  0  0  0  0  0  0  0
  197.9400  169.8120  143.1230 C   0  0  0  0  0  3  0  0  0  0  0  0
  196.3730  174.0380  142.5660 C   0  0  2  0  0  3  0  0  0  0  0  0
  193.5120  171.9800  145.7680 O   0  0  0  0  0  1  0  0  0  0  0  0
  194.5030  175.2750  145.3460 C   0  0  0  0  0  2  0  0  0  0  0  0
  194.3440  176.7720  145.1560 C   0  0  0  0  0  1  0  0  0  0  0  0
  191.4400  173.0910  137.5040 O   0  0  0  0  0  1  0  0  0  0  0  0
  191.7320  173.5860  138.7760 C   0  0  1  0  0  3  0  0  0  0  0  0
  191.5720  172.4770  139.8230 C   0  0  0  0  0  2  0  0  0  0  0  0
  188.1970  172.6810  139.5180 C   0  0  0  0  0  1  0  0  0  0  0  0
  189.3950  173.4940  139.9790 C   0  0  2  0  0  3  0  0  0  0  0  0
  188.0980  175.4100  140.7480 N   0  0  0  0  0  0  0  0  0  0  0  0
  190.3580  172.6120  140.6380 N   0  0  0  0  0  0  0  0  0  0  0  0
  188.9860  174.4890  140.9900 C   0  0  0  0  0  0  0  0  0  0  0  0
  189.7090  174.3000  142.2610 C   0  0  0  0  0  2  0  0  0  0  0  0
  190.7030  173.1990  141.9420 C   0  0  0  0  0  2  0  0  0  0  0  0
  187.1000  178.5140  142.9250 N   0  0  0  0  0  0  0  0  0  0  0  0
  186.7540  176.2190  142.6280 N   0  0  0  0  0  0  0  0  0  0  0  0
  188.0500  178.0590  141.6410 S   0  0  0  0  0  0  0  0  0  0  0  0
  186.4710  177.3680  143.3180 C   0  0  0  0  0  0  0  0  0  0  0  0
  187.6440  176.4410  141.6370 C   0  0  0  0  0  0  0  0  0  0  0  0
  185.5530  177.3590  144.4920 C   0  0  0  0  0  2  0  0  0  0  0  0
  185.9810  178.4000  145.5230 C   0  0  0  0  0  2  0  0  0  0  0  0
  186.4440  177.7330  146.8090 C   0  0  0  0  0  2  0  0  0  0  0  0
  187.1800  176.4250  146.4960 C   0  0  0  0  0  2  0  0  0  0  0  0
  188.5570  176.3950  147.0040 N   0  0  0  0  0  0  0  0  0  0  0  0
  190.6840  177.0690  144.2780 C   0  0  0  0  0  1  0  0  0  0  0  0
  191.1920  174.4880  145.6830 O   0  0  0  0  0  0  0  0  0  0  0  0
  190.6260  176.7950  145.7690 C   0  0  1  0  0  3  0  0  0  0  0  0
  189.3730  177.4320  146.3500 C   0  0  0  0  0  2  0  0  0  0  0  0
  189.1510  175.0870  146.7270 C   0  0  0  0  0  2  0  0  0  0  0  0
  190.4060  175.3610  146.0170 C   0  0  0  0  0  0  0  0  0  0  0  0
  1 10  1  6  0  0  0
  1 25  1  0  0  0  0
  2  4  2  0  0  0  0
  3 10  1  0  0  0  0
  4  5  1  0  0  0  0
  4 11  1  0  0  0  0
  5  7  1  0  0  0  0
  6  9  1  6  0  0  0
  6  1  1  0  0  0  0
  7 30  1  6  0  0  0
  7  9  1  0  0  0  0
  8  6  1  0  0  0  0
 11  3  1  1  0  0  0
 11  8  1  0  0  0  0
 12 23  1  0  0  0  0
 12 14  1  0  0  0  0
 13 18  1  0  0  0  0
 13 19  1  0  0  0  0
 14 18  2  0  0  0  0
 15 24  2  0  0  0  0
 15 23  1  0  0  0  0
 16 19  1  0  0  0  0
 17 14  1  0  0  0  0
 17 27  1  1  0  0  0
 18 26  1  0  0  0  0
 19 21  2  0  0  0  0
 20 17  1  0  0  0  0
 22 16  2  0  0  0  0
 23 13  2  0  0  0  0
 24 22  1  0  0  0  0
 25 20  1  1  0  0  0
 25 12  1  0  0  0  0
 28 27  1  0  0  0  0
 30 29  1  6  0  0  0
 30 31  1  0  0  0  0
 31 35  1  0  0  0  0
 33 32  1  1  0  0  0
 33 35  1  0  0  0  0
 33 36  1  0  0  0  0
 34 36  2  0  0  0  0
 34 43  1  0  0  0  0
 35 38  1  0  0  0  0
 36 37  1  0  0  0  0
 38 37  1  0  0  0  0
 39 42  2  0  0  0  0
 40 42  1  0  0  0  0
 41 39  1  0  0  0  0
 42 44  1  0  0  0  0
 43 41  1  0  0  0  0
 43 40  2  0  0  0  0
 44 45  1  0  0  0  0
 45 46  1  0  0  0  0
 47 46  1  0  0  0  0
 47 48  1  0  0  0  0
 50 54  2  0  0  0  0
 51 49  1  6  0  0  0
 51 54  1  0  0  0  0
 51 52  1  0  0  0  0
 52 48  1  0  0  0  0
 53 48  1  0  0  0  0
 54 53  1  0  0  0  0
M  END
>  <MODEL>
6

>  <REMARK>
 VINA RESULT:      -7.4      3.022      6.511
  Name = 
  11 active torsions:
  status: ('A' for Active; 'I' for Inactive)
    1  A    between atoms: C_4  and  N_16
    2  A    between atoms: C_4  and  C_25
    3  A    between atoms: C_6  and  C_52
    4  A    between atoms: C_9  and  C_15
    5  A    between atoms: C_17  and  C_23
    6  A    between atoms: C_17  and  C_35
    7  A    between atoms: C_18  and  N_33
    8  A    between atoms: C_18  and  C_36
    9  A    between atoms: C_23  and  C_25
   10  A    between atoms: N_31  and  C_37
   11  A    between atoms: C_32  and  C_36
                            x       y       z     vdW  Elec       q    Type
                         _______ _______ _______ _____ _____    ______ ____

>  <TORSDO>
F 11

$$$$
=
 OpenBabel11042416313D

 54 61  0  0  1  0  0  0  0  0999 V2000
  188.7910  175.4290  141.8170 C   0  0  1  0  0  3  0  0  0  0  0  0
  184.9670  178.6730  141.9590 O   0  0  0  0  0  0  0  0  0  0  0  0
  186.7550  176.4110  140.8060 C   0  0  0  0  0  2  0  0  0  0  0  0
  185.9740  178.1810  142.4470 C   0  0  0  0  0  0  0  0  0  0  0  0
  186.0040  177.9840  143.9460 C   0  0  0  0  0  2  0  0  0  0  0  0
  188.7640  176.6600  142.7320 C   0  0  1  0  0  3  0  0  0  0  0  0
  187.3650  177.6740  144.5610 C   0  0  2  0  0  3  0  0  0  0  0  0
  188.3780  177.8480  142.0560 O   0  0  0  0  0  0  0  0  0  0  0  0
  187.9310  176.3810  143.9840 C   0  0  0  0  0  2  0  0  0  0  0  0
  188.0400  175.6620  140.5060 C   0  0  0  0  0  2  0  0  0  0  0  0
  187.0730  177.7430  141.5070 C   0  0  1  0  0  3  0  0  0  0  0  0
  190.2130  173.5580  141.0250 N   0  0  0  0  0  0  0  0  0  0  0  0
  190.2600  171.6610  139.8430 C   0  0  0  0  0  0  0  0  0  0  0  0
  190.6900  172.6210  141.8110 C   0  0  0  0  0  0  0  0  0  0  0  0
  189.5010  173.7890  138.7500 C   0  0  0  0  0  3  0  0  0  0  0  0
  189.7230  170.9370  137.5730 N   0  0  0  0  0  0  0  0  0  0  0  0
  191.1030  173.0990  143.1500 C   0  0  2  0  0  3  0  0  0  0  0  0
  190.7290  171.4200  141.1450 C   0  0  0  0  0  0  0  0  0  0  0  0
  190.1630  170.6940  138.8330 C   0  0  0  0  0  0  0  0  0  0  0  0
  190.8490  174.6210  143.0210 C   0  0  0  0  0  2  0  0  0  0  0  0
  190.5040  169.5110  139.1000 O   0  0  0  0  0  0  0  0  0  0  0  0
  189.3010  172.0640  136.9500 C   0  0  0  0  0  3  0  0  0  0  0  0
  189.9600  173.0290  139.8090 C   0  0  0  0  0  0  0  0  0  0  0  0
  189.2050  173.3490  137.4740 C   0  0  0  0  0  3  0  0  0  0  0  0
  190.2090  174.8720  141.6330 C   0  0  2  0  0  3  0  0  0  0  0  0
  191.1670  170.2080  141.6670 O   0  0  0  0  0  1  0  0  0  0  0  0
  192.5880  172.8640  143.3840 C   0  0  0  0  0  2  0  0  0  0  0  0
  192.7960  172.0470  144.6450 C   0  0  0  0  0  1  0  0  0  0  0  0
  185.9890  178.0660  146.5030 O   0  0  0  0  0  1  0  0  0  0  0  0
  187.2380  177.6100  146.0810 C   0  0  1  0  0  3  0  0  0  0  0  0
  187.4830  176.1870  146.5960 C   0  0  0  0  0  2  0  0  0  0  0  0
  189.9810  178.0040  148.0050 C   0  0  0  0  0  1  0  0  0  0  0  0
  189.7110  177.0690  146.8390 C   0  0  2  0  0  3  0  0  0  0  0  0
  192.0110  177.0280  146.0320 N   0  0  0  0  0  0  0  0  0  0  0  0
  188.7830  176.0200  147.2600 N   0  0  0  0  0  0  0  0  0  0  0  0
  190.9520  176.3830  146.4290 C   0  0  0  0  0  0  0  0  0  0  0  0
  190.8180  174.9170  146.5220 C   0  0  0  0  0  2  0  0  0  0  0  0
  189.3610  174.7190  146.8910 C   0  0  0  0  0  2  0  0  0  0  0  0
  195.5230  175.4690  145.2530 N   0  0  0  0  0  0  0  0  0  0  0  0
  193.5310  176.2270  144.2880 N   0  0  0  0  0  0  0  0  0  0  0  0
  194.5650  175.9940  146.5050 S   0  0  0  0  0  0  0  0  0  0  0  0
  194.7750  175.6770  144.1300 C   0  0  0  0  0  0  0  0  0  0  0  0
  193.2570  176.4720  145.5870 C   0  0  0  0  0  0  0  0  0  0  0  0
  195.3190  175.3700  142.7770 C   0  0  0  0  0  2  0  0  0  0  0  0
  196.3450  176.4170  142.3540 C   0  0  0  0  0  2  0  0  0  0  0  0
  197.0300  176.0150  141.0560 C   0  0  0  0  0  2  0  0  0  0  0  0
  197.4130  174.5310  141.0930 C   0  0  0  0  0  2  0  0  0  0  0  0
  196.8740  173.7620  139.9650 N   0  0  0  0  0  0  0  0  0  0  0  0
  193.4460  174.5390  139.7220 C   0  0  0  0  0  1  0  0  0  0  0  0
  194.0740  171.6450  140.0750 O   0  0  0  0  0  0  0  0  0  0  0  0
  194.5880  173.7530  139.1040 C   0  0  1  0  0  3  0  0  0  0  0  0
  195.8750  174.5540  139.2280 C   0  0  0  0  0  2  0  0  0  0  0  0
  196.2310  172.5470  140.4660 C   0  0  0  0  0  2  0  0  0  0  0  0
  194.8740  172.5530  139.9050 C   0  0  0  0  0  0  0  0  0  0  0  0
  1 10  1  6  0  0  0
  1  6  1  0  0  0  0
  2  4  2  0  0  0  0
  4  5  1  0  0  0  0
  5  7  1  0  0  0  0
  6  9  1  1  0  0  0
  7 30  1  1  0  0  0
  8  6  1  0  0  0  0
  9  7  1  0  0  0  0
 10  3  1  0  0  0  0
 11  3  1  1  0  0  0
 11  8  1  0  0  0  0
 11  4  1  0  0  0  0
 12 25  1  0  0  0  0
 12 14  1  0  0  0  0
 13 18  1  0  0  0  0
 14 17  1  0  0  0  0
 15 23  1  0  0  0  0
 16 19  1  0  0  0  0
 17 27  1  6  0  0  0
 18 26  1  0  0  0  0
 18 14  2  0  0  0  0
 19 21  2  0  0  0  0
 19 13  1  0  0  0  0
 20 17  1  0  0  0  0
 22 24  1  0  0  0  0
 22 16  2  0  0  0  0
 23 13  2  0  0  0  0
 23 12  1  0  0  0  0
 24 15  2  0  0  0  0
 25  1  1  0  0  0  0
 25 20  1  1  0  0  0
 27 28  1  0  0  0  0
 30 29  1  6  0  0  0
 30 31  1  0  0  0  0
 31 35  1  0  0  0  0
 33 35  1  0  0  0  0
 33 32  1  1  0  0  0
 34 36  2  0  0  0  0
 36 37  1  0  0  0  0
 36 33  1  0  0  0  0
 37 38  1  0  0  0  0
 38 35  1  0  0  0  0
 39 41  1  0  0  0  0
 40 43  2  0  0  0  0
 42 40  1  0  0  0  0
 42 39  2  0  0  0  0
 43 34  1  0  0  0  0
 43 41  1  0  0  0  0
 44 42  1  0  0  0  0
 45 44  1  0  0  0  0
 46 47  1  0  0  0  0
 46 45  1  0  0  0  0
 48 53  1  0  0  0  0
 48 47  1  0  0  0  0
 51 52  1  0  0  0  0
 51 49  1  1  0  0  0
 51 54  1  0  0  0  0
 52 48  1  0  0  0  0
 54 50  2  0  0  0  0
 54 53  1  0  0  0  0
M  END
>  <MODEL>
7

>  <REMARK>
 VINA RESULT:      -7.4      2.554      7.768
  Name = 
  11 active torsions:
  status: ('A' for Active; 'I' for Inactive)
    1  A    between atoms: C_4  and  N_16
    2  A    between atoms: C_4  and  C_25
    3  A    between atoms: C_6  and  C_52
    4  A    between atoms: C_9  and  C_15
    5  A    between atoms: C_17  and  C_23
    6  A    between atoms: C_17  and  C_35
    7  A    between atoms: C_18  and  N_33
    8  A    between atoms: C_18  and  C_36
    9  A    between atoms: C_23  and  C_25
   10  A    between atoms: N_31  and  C_37
   11  A    between atoms: C_32  and  C_36
                            x       y       z     vdW  Elec       q    Type
                         _______ _______ _______ _____ _____    ______ ____

>  <TORSDO>
F 11

$$$$
=
 OpenBabel11042416313D

 54 61  0  0  1  0  0  0  0  0999 V2000
  195.5530  173.8360  140.2200 C   0  0  1  0  0  3  0  0  0  0  0  0
  197.2850  177.3630  143.3390 O   0  0  0  0  0  0  0  0  0  0  0  0
  196.6910  176.0010  140.6120 C   0  0  0  0  0  2  0  0  0  0  0  0
  196.7260  176.2960  143.1320 C   0  0  0  0  0  0  0  0  0  0  0  0
  195.5580  175.9310  144.0200 C   0  0  0  0  0  2  0  0  0  0  0  0
  195.8000  173.5920  141.7140 C   0  0  1  0  0  3  0  0  0  0  0  0
  195.0870  174.4820  143.9570 C   0  0  2  0  0  3  0  0  0  0  0  0
  197.0650  174.0660  142.1550 O   0  0  0  0  0  0  0  0  0  0  0  0
  194.6330  174.1270  142.5460 C   0  0  0  0  0  2  0  0  0  0  0  0
  196.5270  174.8570  139.6290 C   0  0  0  0  0  2  0  0  0  0  0  0
  197.2000  175.4660  141.9620 C   0  0  1  0  0  3  0  0  0  0  0  0
  194.2180  171.8250  139.6520 N   0  0  0  0  0  0  0  0  0  0  0  0
  192.2030  170.8640  139.7750 C   0  0  0  0  0  0  0  0  0  0  0  0
  194.3770  170.6570  140.2310 C   0  0  0  0  0  0  0  0  0  0  0  0
  192.4490  173.1000  138.6610 C   0  0  0  0  0  3  0  0  0  0  0  0
  189.9130  171.3860  139.1020 N   0  0  0  0  0  0  0  0  0  0  0  0
  195.7840  170.3160  140.5400 C   0  0  2  0  0  3  0  0  0  0  0  0
  193.1660  170.0200  140.3500 C   0  0  0  0  0  0  0  0  0  0  0  0
  190.8360  170.5720  139.6740 C   0  0  0  0  0  0  0  0  0  0  0  0
  196.5310  171.5330  139.9420 C   0  0  0  0  0  2  0  0  0  0  0  0
  190.4200  169.4790  140.1430 O   0  0  0  0  0  0  0  0  0  0  0  0
  190.0060  172.5970  138.5000 C   0  0  0  0  0  3  0  0  0  0  0  0
  192.9160  171.9870  139.3340 C   0  0  0  0  0  0  0  0  0  0  0  0
  191.1440  173.3680  138.2940 C   0  0  0  0  0  3  0  0  0  0  0  0
  195.4630  172.5280  139.4240 C   0  0  2  0  0  3  0  0  0  0  0  0
  192.9510  168.7700  140.9210 O   0  0  0  0  0  1  0  0  0  0  0  0
  196.2200  169.0580  139.8030 C   0  0  0  0  0  2  0  0  0  0  0  0
  197.3840  169.3700  138.8800 C   0  0  0  0  0  1  0  0  0  0  0  0
  194.1870  173.0780  145.7000 O   0  0  0  0  0  1  0  0  0  0  0  0
  193.9790  174.2580  144.9840 C   0  0  1  0  0  3  0  0  0  0  0  0
  193.8700  175.4470  145.9450 C   0  0  0  0  0  2  0  0  0  0  0  0
  190.6590  174.9100  146.9080 C   0  0  0  0  0  1  0  0  0  0  0  0
  191.5030  175.1060  145.6610 C   0  0  2  0  0  3  0  0  0  0  0  0
  189.6310  175.0570  144.1000 N   0  0  0  0  0  0  0  0  0  0  0  0
  192.5490  176.0910  145.9310 N   0  0  0  0  0  0  0  0  0  0  0  0
  190.6840  175.6640  144.5660 C   0  0  0  0  0  0  0  0  0  0  0  0
  191.2180  176.9540  144.0910 C   0  0  0  0  0  2  0  0  0  0  0  0
  192.5100  177.1090  144.8700 C   0  0  0  0  0  2  0  0  0  0  0  0
  187.4720  175.8810  140.9320 N   0  0  0  0  0  0  0  0  0  0  0  0
  187.8910  176.4940  143.1500 N   0  0  0  0  0  0  0  0  0  0  0  0
  188.6620  174.8610  141.4850 S   0  0  0  0  0  0  0  0  0  0  0  0
  187.1870  176.6920  141.9920 C   0  0  0  0  0  0  0  0  0  0  0  0
  188.7790  175.4850  143.0270 C   0  0  0  0  0  0  0  0  0  0  0  0
  186.1850  177.7890  141.8730 C   0  0  0  0  0  2  0  0  0  0  0  0
  186.6630  179.0410  142.6010 C   0  0  0  0  0  2  0  0  0  0  0  0
  185.8820  179.2520  143.8900 C   0  0  0  0  0  2  0  0  0  0  0  0
  184.6380  178.3570  143.9110 C   0  0  0  0  0  2  0  0  0  0  0  0
  184.4380  177.6660  145.1910 N   0  0  0  0  0  0  0  0  0  0  0  0
  186.1710  179.5060  147.6450 C   0  0  0  0  0  1  0  0  0  0  0  0
  186.9790  176.6460  147.3910 O   0  0  0  0  0  0  0  0  0  0  0  0
  185.2770  178.3060  147.3940 C   0  0  1  0  0  3  0  0  0  0  0  0
  184.2890  178.6380  146.2870 C   0  0  0  0  0  2  0  0  0  0  0  0
  185.5970  176.8180  145.4730 C   0  0  0  0  0  2  0  0  0  0  0  0
  186.0560  177.2010  146.8140 C   0  0  0  0  0  0  0  0  0  0  0  0
  1 10  1  6  0  0  0
  1  6  1  0  0  0  0
  4  2  2  0  0  0  0
  4  5  1  0  0  0  0
  6  8  1  0  0  0  0
  6  9  1  1  0  0  0
  7  5  1  0  0  0  0
  7 30  1  1  0  0  0
  9  7  1  0  0  0  0
 10  3  1  0  0  0  0
 11  3  1  6  0  0  0
 11  8  1  0  0  0  0
 11  4  1  0  0  0  0
 12 14  1  0  0  0  0
 13 18  1  0  0  0  0
 14 18  2  0  0  0  0
 14 17  1  0  0  0  0
 15 23  1  0  0  0  0
 16 19  1  0  0  0  0
 17 27  1  6  0  0  0
 18 26  1  0  0  0  0
 19 13  1  0  0  0  0
 19 21  2  0  0  0  0
 20 17  1  0  0  0  0
 22 16  2  0  0  0  0
 23 12  1  0  0  0  0
 23 13  2  0  0  0  0
 24 22  1  0  0  0  0
 24 15  2  0  0  0  0
 25 12  1  0  0  0  0
 25 20  1  1  0  0  0
 25  1  1  0  0  0  0
 28 27  1  0  0  0  0
 30 29  1  1  0  0  0
 30 31  1  0  0  0  0
 33 35  1  0  0  0  0
 33 32  1  1  0  0  0
 34 36  2  0  0  0  0
 35 31  1  0  0  0  0
 36 33  1  0  0  0  0
 37 36  1  0  0  0  0
 37 38  1  0  0  0  0
 38 35  1  0  0  0  0
 39 41  1  0  0  0  0
 39 42  2  0  0  0  0
 41 43  1  0  0  0  0
 42 40  1  0  0  0  0
 43 40  2  0  0  0  0
 43 34  1  0  0  0  0
 44 42  1  0  0  0  0
 44 45  1  0  0  0  0
 45 46  1  0  0  0  0
 46 47  1  0  0  0  0
 47 48  1  0  0  0  0
 48 53  1  0  0  0  0
 48 52  1  0  0  0  0
 51 49  1  6  0  0  0
 52 51  1  0  0  0  0
 53 54  1  0  0  0  0
 54 50  2  0  0  0  0
 54 51  1  0  0  0  0
M  END
>  <MODEL>
8

>  <REMARK>
 VINA RESULT:      -7.3      2.844      4.971
  Name = 
  11 active torsions:
  status: ('A' for Active; 'I' for Inactive)
    1  A    between atoms: C_4  and  N_16
    2  A    between atoms: C_4  and  C_25
    3  A    between atoms: C_6  and  C_52
    4  A    between atoms: C_9  and  C_15
    5  A    between atoms: C_17  and  C_23
    6  A    between atoms: C_17  and  C_35
    7  A    between atoms: C_18  and  N_33
    8  A    between atoms: C_18  and  C_36
    9  A    between atoms: C_23  and  C_25
   10  A    between atoms: N_31  and  C_37
   11  A    between atoms: C_32  and  C_36
                            x       y       z     vdW  Elec       q    Type
                         _______ _______ _______ _____ _____    ______ ____

>  <TORSDO>
F 11

$$$$
=
 OpenBabel11042416313D

 54 61  0  0  1  0  0  0  0  0999 V2000
  190.0550  175.2460  145.7990 C   0  0  1  0  0  3  0  0  0  0  0  0
  194.9190  176.1390  146.6410 O   0  0  0  0  0  0  0  0  0  0  0  0
  192.0120  175.2820  147.3170 C   0  0  0  0  0  2  0  0  0  0  0  0
  193.9450  176.1180  145.9030 C   0  0  0  0  0  0  0  0  0  0  0  0
  194.1600  175.6910  144.4690 C   0  0  0  0  0  2  0  0  0  0  0  0
  190.9220  176.1190  144.8840 C   0  0  1  0  0  3  0  0  0  0  0  0
  193.0170  175.9740  143.5000 C   0  0  2  0  0  3  0  0  0  0  0  0
  191.7000  177.0710  145.5950 O   0  0  0  0  0  0  0  0  0  0  0  0
  191.7510  175.2490  143.9380 C   0  0  0  0  0  2  0  0  0  0  0  0
  190.4960  175.3200  147.2620 C   0  0  0  0  0  2  0  0  0  0  0  0
  192.5980  176.4470  146.5020 C   0  0  1  0  0  3  0  0  0  0  0  0
  188.2540  175.9620  144.2530 N   0  0  0  0  0  0  0  0  0  0  0  0
  187.7340  176.4260  142.1280 C   0  0  0  0  0  0  0  0  0  0  0  0
  187.7530  177.1760  144.2290 C   0  0  0  0  0  0  0  0  0  0  0  0
  188.6560  174.1670  142.7190 C   0  0  0  0  0  3  0  0  0  0  0  0
  187.8150  175.2940  139.9650 N   0  0  0  0  0  0  0  0  0  0  0  0
  187.6190  177.8070  145.5620 C   0  0  2  0  0  3  0  0  0  0  0  0
  187.4260  177.5270  142.9420 C   0  0  0  0  0  0  0  0  0  0  0  0
  187.5290  176.3680  140.7430 C   0  0  0  0  0  0  0  0  0  0  0  0
  188.0900  176.6610  146.4900 C   0  0  0  0  0  2  0  0  0  0  0  0
  187.0460  177.3790  140.1660 O   0  0  0  0  0  0  0  0  0  0  0  0
  188.3170  174.0670  140.2440 C   0  0  0  0  0  3  0  0  0  0  0  0
  188.2410  175.4550  143.0020 C   0  0  0  0  0  0  0  0  0  0  0  0
  188.6910  173.5540  141.4810 C   0  0  0  0  0  3  0  0  0  0  0  0
  188.5550  175.4910  145.5880 C   0  0  2  0  0  3  0  0  0  0  0  0
  186.8810  178.7420  142.5380 O   0  0  0  0  0  1  0  0  0  0  0  0
  186.1650  178.1290  145.8740 C   0  0  0  0  0  2  0  0  0  0  0  0
  185.3460  176.8530  145.9260 C   0  0  0  0  0  1  0  0  0  0  0  0
  194.6480  176.1770  141.7330 O   0  0  0  0  0  1  0  0  0  0  0  0
  193.4360  175.5820  142.0840 C   0  0  1  0  0  3  0  0  0  0  0  0
  193.5340  174.0580  141.9400 C   0  0  0  0  0  2  0  0  0  0  0  0
  191.6810  171.2150  142.0000 C   0  0  0  0  0  1  0  0  0  0  0  0
  192.5730  172.0260  141.0770 C   0  0  2  0  0  3  0  0  0  0  0  0
  192.2560  170.5970  139.1270 N   0  0  0  0  0  0  0  0  0  0  0  0
  192.3510  173.4520  141.3140 N   0  0  0  0  0  0  0  0  0  0  0  0
  192.2140  171.7820  139.6650 C   0  0  0  0  0  0  0  0  0  0  0  0
  191.8260  173.0290  138.9800 C   0  0  0  0  0  2  0  0  0  0  0  0
  192.0930  174.1000  140.0200 C   0  0  0  0  0  2  0  0  0  0  0  0
  191.6690  169.2490  135.4920 N   0  0  0  0  0  0  0  0  0  0  0  0
  191.1800  170.9990  136.9650 N   0  0  0  0  0  0  0  0  0  0  0  0
  192.4420  168.8920  136.9190 S   0  0  0  0  0  0  0  0  0  0  0  0
  191.0350  170.4340  135.7260 C   0  0  0  0  0  0  0  0  0  0  0  0
  191.9590  170.2450  137.7680 C   0  0  0  0  0  0  0  0  0  0  0  0
  190.2590  171.1150  134.6500 C   0  0  0  0  0  2  0  0  0  0  0  0
  189.5790  172.3720  135.1850 C   0  0  0  0  0  2  0  0  0  0  0  0
  190.1370  173.6190  134.5160 C   0  0  0  0  0  2  0  0  0  0  0  0
  190.7050  174.5790  135.5690 C   0  0  0  0  0  2  0  0  0  0  0  0
  192.0420  175.0860  135.2340 N   0  0  0  0  0  0  0  0  0  0  0  0
  194.3610  172.6210  136.2120 C   0  0  0  0  0  1  0  0  0  0  0  0
  194.7650  175.3090  137.4410 O   0  0  0  0  0  0  0  0  0  0  0  0
  194.1950  173.9790  135.5540 C   0  0  1  0  0  3  0  0  0  0  0  0
  192.9040  173.9940  134.7510 C   0  0  0  0  0  2  0  0  0  0  0  0
  192.6530  175.6730  136.4270 C   0  0  0  0  0  2  0  0  0  0  0  0
  193.9570  175.0140  136.5720 C   0  0  0  0  0  0  0  0  0  0  0  0
  1 10  1  1  0  0  0
  4 11  1  0  0  0  0
  4  2  2  0  0  0  0
  5  4  1  0  0  0  0
  6  9  1  1  0  0  0
  6  8  1  0  0  0  0
  6  1  1  0  0  0  0
  7 30  1  6  0  0  0
  7  9  1  0  0  0  0
  7  5  1  0  0  0  0
  8 11  1  0  0  0  0
 10  3  1  0  0  0  0
 11  3  1  6  0  0  0
 12 25  1  0  0  0  0
 13 18  1  0  0  0  0
 13 23  2  0  0  0  0
 14 12  1  0  0  0  0
 14 17  1  0  0  0  0
 15 23  1  0  0  0  0
 16 22  2  0  0  0  0
 16 19  1  0  0  0  0
 17 27  1  1  0  0  0
 17 20  1  0  0  0  0
 18 14  2  0  0  0  0
 19 13  1  0  0  0  0
 21 19  2  0  0  0  0
 22 24  1  0  0  0  0
 23 12  1  0  0  0  0
 24 15  2  0  0  0  0
 25  1  1  0  0  0  0
 25 20  1  1  0  0  0
 26 18  1  0  0  0  0
 27 28  1  0  0  0  0
 30 29  1  1  0  0  0
 31 30  1  0  0  0  0
 33 35  1  0  0  0  0
 33 32  1  1  0  0  0
 34 36  2  0  0  0  0
 35 31  1  0  0  0  0
 36 33  1  0  0  0  0
 37 36  1  0  0  0  0
 37 38  1  0  0  0  0
 38 35  1  0  0  0  0
 39 42  2  0  0  0  0
 39 41  1  0  0  0  0
 40 43  2  0  0  0  0
 41 43  1  0  0  0  0
 42 40  1  0  0  0  0
 43 34  1  0  0  0  0
 44 45  1  0  0  0  0
 44 42  1  0  0  0  0
 46 45  1  0  0  0  0
 46 47  1  0  0  0  0
 48 47  1  0  0  0  0
 48 53  1  0  0  0  0
 51 49  1  1  0  0  0
 51 54  1  0  0  0  0
 52 48  1  0  0  0  0
 52 51  1  0  0  0  0
 53 54  1  0  0  0  0
 54 50  2  0  0  0  0
M  END
>  <MODEL>
9

>  <REMARK>
 VINA RESULT:      -7.2      3.474      7.940
  Name = 
  11 active torsions:
  status: ('A' for Active; 'I' for Inactive)
    1  A    between atoms: C_4  and  N_16
    2  A    between atoms: C_4  and  C_25
    3  A    between atoms: C_6  and  C_52
    4  A    between atoms: C_9  and  C_15
    5  A    between atoms: C_17  and  C_23
    6  A    between atoms: C_17  and  C_35
    7  A    between atoms: C_18  and  N_33
    8  A    between atoms: C_18  and  C_36
    9  A    between atoms: C_23  and  C_25
   10  A    between atoms: N_31  and  C_37
   11  A    between atoms: C_32  and  C_36
                            x       y       z     vdW  Elec       q    Type
                         _______ _______ _______ _____ _____    ______ ____

>  <TORSDO>
F 11

$$$$
