=
 OpenBabel11042419523D

 56 62  0  0  1  0  0  0  0  0999 V2000
  188.8260  175.1140  143.8670 C   0  0  2  0  0  3  0  0  0  0  0  0
  189.7820  174.7270  142.7240 C   0  0  1  0  0  3  0  0  0  0  0  0
  191.7430  173.2440  143.0420 C   0  0  0  0  0  3  0  0  0  0  0  0
  191.2130  174.4690  143.1530 C   0  0  0  0  0  3  0  0  0  0  0  0
  190.9610  172.1150  142.4350 C   0  0  1  0  0  3  0  0  0  0  0  0
  189.4660  172.4550  142.4530 C   0  0  0  0  0  2  0  0  0  0  0  0
  189.2430  173.7240  141.8770 O   0  0  0  0  0  0  0  0  0  0  0  0
  191.4040  171.9080  141.0640 N   0  0  0  0  0  2  0  0  0  0  0  0
  190.2180  171.0800  139.1760 C   0  0  0  0  0  2  0  0  0  0  0  0
  190.6580  170.7780  140.5340 C   0  0  1  0  0  3  0  0  0  0  0  0
  191.3880  170.2160  139.3860 N   0  0  0  0  0  2  0  0  0  0  0  0
  187.1580  176.8280  143.2560 C   0  0  0  0  0  3  0  0  0  0  0  0
  188.3680  176.5360  143.7300 C   0  0  0  0  0  3  0  0  0  0  0  0
  184.2030  178.4050  142.7370 C   0  0  0  0  0  0  0  0  0  0  0  0
  185.5420  178.3500  142.2790 N   0  0  0  0  0  0  0  0  0  0  0  0
  186.7150  178.2540  143.1440 C   0  0  1  0  0  3  0  0  0  0  0  0
  183.3310  178.2920  141.7350 C   0  0  0  0  0  0  0  0  0  0  0  0
  184.0360  178.0720  140.4240 C   0  0  0  0  0  2  0  0  0  0  0  0
  186.4580  177.9460  140.1420 O   0  0  0  0  0  0  0  0  0  0  0  0
  185.0570  178.2720  145.0650 C   0  0  0  0  0  2  0  0  0  0  0  0
  186.3870  178.8250  144.5320 C   0  0  0  0  0  2  0  0  0  0  0  0
  185.4550  178.1140  140.8840 C   0  0  0  0  0  0  0  0  0  0  0  0
  183.8820  178.6830  144.1740 C   0  0  0  0  0  2  0  0  0  0  0  0
  181.8460  178.3340  141.8740 C   0  0  0  0  0  2  0  0  0  0  0  0
  181.1900  178.5580  140.5140 C   0  0  0  0  0  2  0  0  0  0  0  0
  178.8760  182.5660  139.5190 C   0  0  0  0  0  1  0  0  0  0  0  0
  179.9600  180.7470  140.5000 C   0  0  0  0  0  2  0  0  0  0  0  0
  179.8280  179.2440  140.6150 C   0  0  1  0  0  0  0  0  0  0  0  0
  178.9070  178.8400  139.4740 C   0  0  2  0  0  3  0  0  0  0  0  0
  179.2590  178.9390  141.8550 O   0  0  0  0  0  1  0  0  0  0  0  0
  177.8110  180.2350  139.0850 S   0  0  0  0  0  0  0  0  0  0  0  0
  178.6500  181.3150  140.2190 N   0  0  0  0  0  0  0  0  0  0  0  0
  178.1970  177.5230  139.6360 C   0  0  0  0  0  0  0  0  0  0  0  0
  177.7110  177.2460  140.7640 O   0  0  0  0  0  0  0  0  0  0  0  0
  178.0360  176.5550  138.5340 C   0  0  0  0  0  0  0  0  0  0  0  0
  177.6920  175.2390  138.8180 O   0  0  0  0  0  1  0  0  0  0  0  0
  178.2100  176.9010  137.3340 O   0  0  0  0  0  0  0  0  0  0  0  0
  189.4540  174.8990  145.2400 C   0  0  0  0  0  2  0  0  0  0  0  0
  189.3200  176.1490  146.0930 C   0  0  0  0  0  2  0  0  0  0  0  0
  190.5830  176.9900  145.9930 C   0  0  0  0  0  2  0  0  0  0  0  0
  192.9150  176.2330  145.8400 C   0  0  0  0  0  3  0  0  0  0  0  0
  191.7710  176.2520  146.5190 C   0  0  0  0  0  3  0  0  0  0  0  0
  194.0900  175.4890  146.3780 C   0  0  0  0  0  2  0  0  0  0  0  0
  195.5450  176.2910  143.9390 C   0  0  0  0  0  1  0  0  0  0  0  0
  196.4470  174.1910  142.0800 C   0  0  0  0  0  1  0  0  0  0  0  0
  194.7200  172.1300  144.7410 C   0  0  0  0  0  0  0  0  0  0  0  0
  194.2920  173.1220  145.6330 C   0  0  0  0  0  3  0  0  0  0  0  0
  195.4220  172.5040  143.5890 C   0  0  0  0  0  3  0  0  0  0  0  0
  195.2630  174.8470  144.2210 C   0  0  0  0  0  0  0  0  0  0  0  0
  195.6940  173.8500  143.3230 C   0  0  0  0  0  0  0  0  0  0  0  0
  194.5540  174.4730  145.3830 C   0  0  0  0  0  0  0  0  0  0  0  0
  194.2440  168.6610  145.9900 N   0  0  0  0  0  0  0  0  0  0  0  0
  193.9020  169.9180  144.1370 N   0  0  0  0  0  0  0  0  0  0  0  0
  193.7980  168.6530  144.7780 C   0  0  0  0  0  3  0  0  0  0  0  0
  194.4340  170.7100  145.0070 C   0  0  0  0  0  0  0  0  0  0  0  0
  194.7140  170.0040  146.2900 C   0  0  0  0  0  2  0  0  0  0  0  0
  1 13  1  6  0  0  0
  1 38  1  0  0  0  0
  2  4  1  0  0  0  0
  2  1  1  1  0  0  0
  3  4  2  0  0  0  0
  5  8  1  6  0  0  0
  5  6  1  0  0  0  0
  5  3  1  0  0  0  0
  7  6  1  0  0  0  0
  7  2  1  0  0  0  0
  9 11  1  0  0  0  0
  9 10  1  0  0  0  0
 10  8  1  6  0  0  0
 11 10  1  0  0  0  0
 12 13  2  0  0  0  0
 14 23  1  0  0  0  0
 15 14  1  0  0  0  0
 15 16  1  0  0  0  0
 16 12  1  1  0  0  0
 16 21  1  0  0  0  0
 17 24  1  0  0  0  0
 17 14  2  0  0  0  0
 18 22  1  0  0  0  0
 18 17  1  0  0  0  0
 19 22  2  0  0  0  0
 21 20  1  0  0  0  0
 22 15  1  0  0  0  0
 23 20  1  0  0  0  0
 25 28  1  0  0  0  0
 25 24  1  0  0  0  0
 26 32  1  0  0  0  0
 27 28  1  0  0  0  0
 28 30  1  1  0  0  0
 29 33  1  1  0  0  0
 29 28  1  0  0  0  0
 31 29  1  0  0  0  0
 31 32  1  0  0  0  0
 32 27  1  0  0  0  0
 33 34  2  0  0  0  0
 35 36  1  0  0  0  0
 35 33  1  0  0  0  0
 37 35  2  0  0  0  0
 38 39  1  0  0  0  0
 40 39  1  0  0  0  0
 40 42  1  0  0  0  0
 41 43  1  0  0  0  0
 41 42  2  0  0  0  0
 44 49  1  0  0  0  0
 45 50  1  0  0  0  0
 46 55  1  0  0  0  0
 46 47  1  0  0  0  0
 48 46  2  0  0  0  0
 49 51  1  0  0  0  0
 50 48  1  0  0  0  0
 50 49  2  0  0  0  0
 51 47  2  0  0  0  0
 51 43  1  0  0  0  0
 52 56  1  0  0  0  0
 53 54  1  0  0  0  0
 53 55  2  0  0  0  0
 54 52  2  0  0  0  0
 55 56  1  0  0  0  0
M  END
>  <MODEL>
1

>  <REMARK>
 VINA RESULT:      -8.0      0.000      0.000
  Name = 
  17 active torsions:
  status: ('A' for Active; 'I' for Inactive)
    1  A    between atoms: C_3  and  C_8
    2  A    between atoms: C_10  and  C_33
    3  A    between atoms: C_11  and  C_14
    4  A    between atoms: C_12  and  C_16
    5  A    between atoms: C_13  and  C_55
    6  A    between atoms: C_14  and  C_33
    7  A    between atoms: C_16  and  C_17
    8  A    between atoms: C_20  and  C_42
    9  A    between atoms: C_24  and  C_26
   10  A    between atoms: C_24  and  C_55
   11  A    between atoms: C_26  and  C_27
   12  A    between atoms: C_27  and  C_52
   13  A    between atoms: N_36  and  C_40
   14  A    between atoms: N_36  and  C_44
   15  A    between atoms: C_37  and  C_48
   16  A    between atoms: C_45  and  C_55
   17  A    between atoms: C_48  and  C_53
                            x       y       z     vdW  Elec       q    Type
                         _______ _______ _______ _____ _____    ______ ____

>  <TORSDO>
F 17

$$$$
=
 OpenBabel11042419523D

 56 62  0  0  1  0  0  0  0  0999 V2000
  188.8630  176.4590  144.6600 C   0  0  2  0  0  3  0  0  0  0  0  0
  187.3290  176.5890  144.6210 C   0  0  1  0  0  3  0  0  0  0  0  0
  186.1640  178.7000  144.0410 C   0  0  0  0  0  3  0  0  0  0  0  0
  186.8000  177.9690  144.9640 C   0  0  0  0  0  3  0  0  0  0  0  0
  185.9020  178.1520  142.6670 C   0  0  1  0  0  3  0  0  0  0  0  0
  186.8400  176.9700  142.3960 C   0  0  0  0  0  2  0  0  0  0  0  0
  186.7630  176.0310  143.4460 O   0  0  0  0  0  0  0  0  0  0  0  0
  184.5170  177.7150  142.5800 N   0  0  0  0  0  2  0  0  0  0  0  0
  183.8650  178.2800  140.3640 C   0  0  0  0  0  2  0  0  0  0  0  0
  183.8050  178.6850  141.7640 C   0  0  1  0  0  3  0  0  0  0  0  0
  182.6430  178.0300  141.1420 N   0  0  0  0  0  2  0  0  0  0  0  0
  190.0170  174.9800  143.0560 C   0  0  0  0  0  3  0  0  0  0  0  0
  189.3020  175.1100  144.1720 C   0  0  0  0  0  3  0  0  0  0  0  0
  190.5520  173.5050  140.0510 C   0  0  0  0  0  0  0  0  0  0  0  0
  189.8850  173.3250  141.2870 N   0  0  0  0  0  0  0  0  0  0  0  0
  190.4600  173.6260  142.5960 C   0  0  1  0  0  3  0  0  0  0  0  0
  189.7290  173.3380  139.0160 C   0  0  0  0  0  0  0  0  0  0  0  0
  188.3220  173.0750  139.4760 C   0  0  0  0  0  2  0  0  0  0  0  0
  187.6130  172.9530  141.8100 O   0  0  0  0  0  0  0  0  0  0  0  0
  192.5260  174.3370  141.3060 C   0  0  0  0  0  2  0  0  0  0  0  0
  191.9930  173.5600  142.5190 C   0  0  0  0  0  2  0  0  0  0  0  0
  188.5260  173.0980  140.9550 C   0  0  0  0  0  0  0  0  0  0  0  0
  192.0320  173.7310  139.9900 C   0  0  0  0  0  2  0  0  0  0  0  0
  190.1200  173.4350  137.5780 C   0  0  0  0  0  2  0  0  0  0  0  0
  189.8750  172.1060  136.8690 C   0  0  0  0  0  2  0  0  0  0  0  0
  193.7820  173.3770  134.5170 C   0  0  0  0  0  1  0  0  0  0  0  0
  191.7080  172.5640  135.2160 C   0  0  0  0  0  2  0  0  0  0  0  0
  191.1260  171.5570  136.1840 C   0  0  1  0  0  0  0  0  0  0  0  0
  192.2390  171.2780  137.1820 C   0  0  2  0  0  3  0  0  0  0  0  0
  190.7820  170.4020  135.4740 O   0  0  0  0  0  1  0  0  0  0  0  0
  193.8380  171.5490  136.3650 S   0  0  0  0  0  0  0  0  0  0  0  0
  193.0700  172.1670  134.8870 N   0  0  0  0  0  0  0  0  0  0  0  0
  192.1410  169.9760  137.9300 C   0  0  0  0  0  0  0  0  0  0  0  0
  192.9290  169.0460  137.6100 O   0  0  0  0  0  0  0  0  0  0  0  0
  191.1760  169.7460  139.0220 C   0  0  0  0  0  0  0  0  0  0  0  0
  191.4430  170.2380  140.2940 O   0  0  0  0  0  1  0  0  0  0  0  0
  190.1090  169.1040  138.8210 O   0  0  0  0  0  0  0  0  0  0  0  0
  189.4260  176.7180  146.0530 C   0  0  0  0  0  2  0  0  0  0  0  0
  189.6320  175.4110  146.8010 C   0  0  0  0  0  2  0  0  0  0  0  0
  190.7600  175.5570  147.8100 C   0  0  0  0  0  2  0  0  0  0  0  0
  192.7770  175.0210  146.5150 C   0  0  0  0  0  3  0  0  0  0  0  0
  192.0410  175.9360  147.1420 C   0  0  0  0  0  3  0  0  0  0  0  0
  194.0550  175.4160  145.8560 C   0  0  0  0  0  2  0  0  0  0  0  0
  195.6260  175.9770  143.4210 C   0  0  0  0  0  1  0  0  0  0  0  0
  196.5680  173.7070  141.7960 C   0  0  0  0  0  1  0  0  0  0  0  0
  194.6930  171.9160  144.5510 C   0  0  0  0  0  0  0  0  0  0  0  0
  194.2450  172.9900  145.3330 C   0  0  0  0  0  3  0  0  0  0  0  0
  195.4500  172.1760  143.4020 C   0  0  0  0  0  3  0  0  0  0  0  0
  195.3060  174.5680  143.8180 C   0  0  0  0  0  0  0  0  0  0  0  0
  195.7570  173.4890  143.0310 C   0  0  0  0  0  0  0  0  0  0  0  0
  194.5420  174.3090  144.9760 C   0  0  0  0  0  0  0  0  0  0  0  0
  194.2070  168.5430  146.0380 N   0  0  0  0  0  0  0  0  0  0  0  0
  193.6840  169.7310  144.1820 N   0  0  0  0  0  0  0  0  0  0  0  0
  193.6010  168.5060  144.8980 C   0  0  0  0  0  3  0  0  0  0  0  0
  194.3710  170.5300  144.9290 C   0  0  0  0  0  0  0  0  0  0  0  0
  194.7850  169.8680  146.2000 C   0  0  0  0  0  2  0  0  0  0  0  0
  1 13  1  1  0  0  0
  1 38  1  0  0  0  0
  2  1  1  6  0  0  0
  2  4  1  0  0  0  0
  3  4  2  0  0  0  0
  5  8  1  1  0  0  0
  5  3  1  0  0  0  0
  6  5  1  0  0  0  0
  6  7  1  0  0  0  0
  7  2  1  0  0  0  0
  9 11  1  0  0  0  0
  9 10  1  0  0  0  0
 10  8  1  1  0  0  0
 11 10  1  0  0  0  0
 12 13  2  0  0  0  0
 14 15  1  0  0  0  0
 15 16  1  0  0  0  0
 16 12  1  6  0  0  0
 17 18  1  0  0  0  0
 17 14  2  0  0  0  0
 18 22  1  0  0  0  0
 20 21  1  0  0  0  0
 21 16  1  0  0  0  0
 22 15  1  0  0  0  0
 22 19  2  0  0  0  0
 23 14  1  0  0  0  0
 23 20  1  0  0  0  0
 24 17  1  0  0  0  0
 25 24  1  0  0  0  0
 26 32  1  0  0  0  0
 27 28  1  0  0  0  0
 28 30  1  6  0  0  0
 28 25  1  0  0  0  0
 28 29  1  0  0  0  0
 29 33  1  6  0  0  0
 31 29  1  0  0  0  0
 32 27  1  0  0  0  0
 32 31  1  0  0  0  0
 33 35  1  0  0  0  0
 34 33  2  0  0  0  0
 35 36  1  0  0  0  0
 37 35  2  0  0  0  0
 38 39  1  0  0  0  0
 39 40  1  0  0  0  0
 41 42  2  0  0  0  0
 42 40  1  0  0  0  0
 43 41  1  0  0  0  0
 44 49  1  0  0  0  0
 45 50  1  0  0  0  0
 46 55  1  0  0  0  0
 46 47  1  0  0  0  0
 48 46  2  0  0  0  0
 49 51  1  0  0  0  0
 50 48  1  0  0  0  0
 50 49  2  0  0  0  0
 51 47  2  0  0  0  0
 51 43  1  0  0  0  0
 52 56  1  0  0  0  0
 53 54  1  0  0  0  0
 53 55  2  0  0  0  0
 54 52  2  0  0  0  0
 55 56  1  0  0  0  0
M  END
>  <MODEL>
2

>  <REMARK>
 VINA RESULT:      -7.8      4.246      9.089
  Name = 
  17 active torsions:
  status: ('A' for Active; 'I' for Inactive)
    1  A    between atoms: C_3  and  C_8
    2  A    between atoms: C_10  and  C_33
    3  A    between atoms: C_11  and  C_14
    4  A    between atoms: C_12  and  C_16
    5  A    between atoms: C_13  and  C_55
    6  A    between atoms: C_14  and  C_33
    7  A    between atoms: C_16  and  C_17
    8  A    between atoms: C_20  and  C_42
    9  A    between atoms: C_24  and  C_26
   10  A    between atoms: C_24  and  C_55
   11  A    between atoms: C_26  and  C_27
   12  A    between atoms: C_27  and  C_52
   13  A    between atoms: N_36  and  C_40
   14  A    between atoms: N_36  and  C_44
   15  A    between atoms: C_37  and  C_48
   16  A    between atoms: C_45  and  C_55
   17  A    between atoms: C_48  and  C_53
                            x       y       z     vdW  Elec       q    Type
                         _______ _______ _______ _____ _____    ______ ____

>  <TORSDO>
F 17

$$$$
=
 OpenBabel11042419523D

 56 62  0  0  1  0  0  0  0  0999 V2000
  188.8600  177.0180  144.7370 C   0  0  2  0  0  3  0  0  0  0  0  0
  187.8870  177.9530  143.9960 C   0  0  1  0  0  3  0  0  0  0  0  0
  186.9810  177.4530  141.7420 C   0  0  0  0  0  3  0  0  0  0  0  0
  187.9960  177.9140  142.4830 C   0  0  0  0  0  3  0  0  0  0  0  0
  185.6900  177.0250  142.3800 C   0  0  1  0  0  3  0  0  0  0  0  0
  185.9180  176.7520  143.8720 C   0  0  0  0  0  2  0  0  0  0  0  0
  186.5570  177.8530  144.4810 O   0  0  0  0  0  0  0  0  0  0  0  0
  184.7010  178.0790  142.2160 N   0  0  0  0  0  2  0  0  0  0  0  0
  183.5530  177.5460  140.2010 C   0  0  0  0  0  2  0  0  0  0  0  0
  184.6040  178.3670  140.7930 C   0  0  1  0  0  3  0  0  0  0  0  0
  183.2870  178.9580  140.5100 N   0  0  0  0  0  2  0  0  0  0  0  0
  189.7660  174.9030  143.8420 C   0  0  0  0  0  3  0  0  0  0  0  0
  188.7130  175.6020  144.2650 C   0  0  0  0  0  3  0  0  0  0  0  0
  191.6640  172.6740  142.1350 C   0  0  0  0  0  0  0  0  0  0  0  0
  190.3710  173.2500  142.1740 N   0  0  0  0  0  0  0  0  0  0  0  0
  189.6000  173.4860  143.3920 C   0  0  1  0  0  3  0  0  0  0  0  0
  192.2070  172.7580  140.9200 C   0  0  0  0  0  0  0  0  0  0  0  0
  191.3070  173.5030  139.9730 C   0  0  0  0  0  2  0  0  0  0  0  0
  189.1260  174.4340  140.5550 O   0  0  0  0  0  0  0  0  0  0  0  0
  191.5880  172.4820  144.6090 C   0  0  0  0  0  2  0  0  0  0  0  0
  190.0560  172.5150  144.4930 C   0  0  0  0  0  2  0  0  0  0  0  0
  190.1560  173.7860  140.8790 C   0  0  0  0  0  0  0  0  0  0  0  0
  192.2370  171.9630  143.3230 C   0  0  0  0  0  2  0  0  0  0  0  0
  193.5480  172.2280  140.5360 C   0  0  0  0  0  2  0  0  0  0  0  0
  194.3060  173.2520  139.6960 C   0  0  0  0  0  2  0  0  0  0  0  0
  197.9410  170.2290  139.4660 C   0  0  0  0  0  1  0  0  0  0  0  0
  196.5130  172.0750  139.4790 C   0  0  0  0  0  2  0  0  0  0  0  0
  195.3080  172.6120  138.7360 C   0  0  1  0  0  0  0  0  0  0  0  0
  194.7150  171.4080  138.0210 C   0  0  2  0  0  3  0  0  0  0  0  0
  195.7400  173.5790  137.8230 O   0  0  0  0  0  1  0  0  0  0  0  0
  196.0410  170.2110  137.6930 S   0  0  0  0  0  0  0  0  0  0  0  0
  197.2340  171.1600  138.6060 N   0  0  0  0  0  0  0  0  0  0  0  0
  193.8480  171.7110  136.8300 C   0  0  0  0  0  0  0  0  0  0  0  0
  194.4120  171.9320  135.7250 O   0  0  0  0  0  0  0  0  0  0  0  0
  192.3740  171.7510  136.8960 C   0  0  0  0  0  0  0  0  0  0  0  0
  191.6960  170.8510  137.7090 O   0  0  0  0  0  1  0  0  0  0  0  0
  191.7160  172.5890  136.2220 O   0  0  0  0  0  0  0  0  0  0  0  0
  188.6810  177.0850  146.2490 C   0  0  0  0  0  2  0  0  0  0  0  0
  188.2340  175.7390  146.7960 C   0  0  0  0  0  2  0  0  0  0  0  0
  189.3400  175.1210  147.6370 C   0  0  0  0  0  2  0  0  0  0  0  0
  191.7360  175.1360  147.0940 C   0  0  0  0  0  3  0  0  0  0  0  0
  190.6430  175.8210  147.4200 C   0  0  0  0  0  3  0  0  0  0  0  0
  193.0280  175.8500  146.8840 C   0  0  0  0  0  2  0  0  0  0  0  0
  192.4720  177.1380  144.2870 C   0  0  0  0  0  1  0  0  0  0  0  0
  193.8570  176.1320  141.8890 C   0  0  0  0  0  1  0  0  0  0  0  0
  195.2240  173.8230  144.5550 C   0  0  0  0  0  0  0  0  0  0  0  0
  194.5740  174.2970  145.7020 C   0  0  0  0  0  3  0  0  0  0  0  0
  194.9740  174.4380  143.3230 C   0  0  0  0  0  3  0  0  0  0  0  0
  193.4320  175.9910  144.3830 C   0  0  0  0  0  0  0  0  0  0  0  0
  194.0850  175.5140  143.2290 C   0  0  0  0  0  0  0  0  0  0  0  0
  193.6810  175.3710  145.6260 C   0  0  0  0  0  0  0  0  0  0  0  0
  197.6940  171.0720  144.1540 N   0  0  0  0  0  0  0  0  0  0  0  0
  196.3520  172.0070  145.7210 N   0  0  0  0  0  0  0  0  0  0  0  0
  197.3100  171.0120  145.3870 C   0  0  0  0  0  2  0  0  0  0  0  0
  196.1580  172.6870  144.6410 C   0  0  0  0  0  0  0  0  0  0  0  0
  196.9890  172.1720  143.5150 C   0  0  0  0  0  3  0  0  0  0  0  0
  1 13  1  6  0  0  0
  1 38  1  0  0  0  0
  2  7  1  0  0  0  0
  2  1  1  1  0  0  0
  3  5  1  0  0  0  0
  3  4  2  0  0  0  0
  4  2  1  0  0  0  0
  5  8  1  1  0  0  0
  5  6  1  0  0  0  0
  6  7  1  0  0  0  0
  9 11  1  0  0  0  0
  9 10  1  0  0  0  0
 10  8  1  1  0  0  0
 11 10  1  0  0  0  0
 12 13  2  0  0  0  0
 14 15  1  0  0  0  0
 14 23  1  0  0  0  0
 15 16  1  0  0  0  0
 16 12  1  1  0  0  0
 16 21  1  0  0  0  0
 17 14  2  0  0  0  0
 18 22  1  0  0  0  0
 18 17  1  0  0  0  0
 19 22  2  0  0  0  0
 21 20  1  0  0  0  0
 22 15  1  0  0  0  0
 23 20  1  0  0  0  0
 24 17  1  0  0  0  0
 25 24  1  0  0  0  0
 28 30  1  6  0  0  0
 28 27  1  0  0  0  0
 28 25  1  0  0  0  0
 29 33  1  6  0  0  0
 29 28  1  0  0  0  0
 31 29  1  0  0  0  0
 31 32  1  0  0  0  0
 32 26  1  0  0  0  0
 32 27  1  0  0  0  0
 33 35  1  0  0  0  0
 34 33  2  0  0  0  0
 35 36  1  0  0  0  0
 37 35  2  0  0  0  0
 38 39  1  0  0  0  0
 39 40  1  0  0  0  0
 41 42  2  0  0  0  0
 42 40  1  0  0  0  0
 43 41  1  0  0  0  0
 44 49  1  0  0  0  0
 45 50  1  0  0  0  0
 46 55  1  0  0  0  0
 46 47  1  0  0  0  0
 48 46  2  0  0  0  0
 49 51  1  0  0  0  0
 50 48  1  0  0  0  0
 50 49  2  0  0  0  0
 51 47  2  0  0  0  0
 51 43  1  0  0  0  0
 52 54  1  0  0  0  0
 54 53  1  0  0  0  0
 55 53  2  0  0  0  0
 56 52  2  0  0  0  0
 56 55  1  0  0  0  0
M  END
>  <MODEL>
3

>  <REMARK>
 VINA RESULT:      -7.8      4.673     10.117
  Name = 
  17 active torsions:
  status: ('A' for Active; 'I' for Inactive)
    1  A    between atoms: C_3  and  C_8
    2  A    between atoms: C_10  and  C_33
    3  A    between atoms: C_11  and  C_14
    4  A    between atoms: C_12  and  C_16
    5  A    between atoms: C_13  and  C_55
    6  A    between atoms: C_14  and  C_33
    7  A    between atoms: C_16  and  C_17
    8  A    between atoms: C_20  and  C_42
    9  A    between atoms: C_24  and  C_26
   10  A    between atoms: C_24  and  C_55
   11  A    between atoms: C_26  and  C_27
   12  A    between atoms: C_27  and  C_52
   13  A    between atoms: N_36  and  C_40
   14  A    between atoms: N_36  and  C_44
   15  A    between atoms: C_37  and  C_48
   16  A    between atoms: C_45  and  C_55
   17  A    between atoms: C_48  and  C_53
                            x       y       z     vdW  Elec       q    Type
                         _______ _______ _______ _____ _____    ______ ____

>  <TORSDO>
F 17

$$$$
=
 OpenBabel11042419523D

 56 62  0  0  1  0  0  0  0  0999 V2000
  188.9400  175.2850  143.9100 C   0  0  2  0  0  3  0  0  0  0  0  0
  189.9000  174.8730  142.7790 C   0  0  1  0  0  3  0  0  0  0  0  0
  190.6470  172.5360  142.4200 C   0  0  0  0  0  3  0  0  0  0  0  0
  190.7840  173.6820  143.0970 C   0  0  0  0  0  3  0  0  0  0  0  0
  189.6640  172.4180  141.2900 C   0  0  1  0  0  3  0  0  0  0  0  0
  188.6200  173.5370  141.3960 C   0  0  0  0  0  2  0  0  0  0  0  0
  189.2550  174.7910  141.5180 O   0  0  0  0  0  0  0  0  0  0  0  0
  190.3730  172.5220  140.0240 N   0  0  0  0  0  2  0  0  0  0  0  0
  190.4510  170.2410  139.3550 C   0  0  0  0  0  2  0  0  0  0  0  0
  191.2250  171.3490  139.9050 C   0  0  1  0  0  3  0  0  0  0  0  0
  191.3610  170.9960  138.4830 N   0  0  0  0  0  2  0  0  0  0  0  0
  187.2210  176.9560  143.3220 C   0  0  0  0  0  3  0  0  0  0  0  0
  188.4640  176.6950  143.7260 C   0  0  0  0  0  3  0  0  0  0  0  0
  184.2440  178.4780  142.7680 C   0  0  0  0  0  0  0  0  0  0  0  0
  185.5810  178.4230  142.3020 N   0  0  0  0  0  0  0  0  0  0  0  0
  186.7610  178.3710  143.1620 C   0  0  1  0  0  3  0  0  0  0  0  0
  183.3680  178.3190  141.7760 C   0  0  0  0  0  0  0  0  0  0  0  0
  184.0660  178.0600  140.4690 C   0  0  0  0  0  2  0  0  0  0  0  0
  186.4880  177.9530  140.1750 O   0  0  0  0  0  0  0  0  0  0  0  0
  185.1150  178.4390  145.0930 C   0  0  0  0  0  2  0  0  0  0  0  0
  186.4340  178.9880  144.5310 C   0  0  0  0  0  2  0  0  0  0  0  0
  185.4880  178.1360  140.9170 C   0  0  0  0  0  0  0  0  0  0  0  0
  183.9280  178.8040  144.1960 C   0  0  0  0  0  2  0  0  0  0  0  0
  181.8820  178.3490  141.9230 C   0  0  0  0  0  2  0  0  0  0  0  0
  181.2100  178.3000  140.5540 C   0  0  0  0  0  2  0  0  0  0  0  0
  178.8320  182.2640  139.5350 C   0  0  0  0  0  1  0  0  0  0  0  0
  179.8930  180.4370  140.5270 C   0  0  0  0  0  2  0  0  0  0  0  0
  179.8160  178.9260  140.5510 C   0  0  1  0  0  0  0  0  0  0  0  0
  179.0320  178.5500  139.3030 C   0  0  2  0  0  3  0  0  0  0  0  0
  179.1410  178.5310  141.7100 O   0  0  0  0  0  1  0  0  0  0  0  0
  177.9190  179.9210  138.8770 S   0  0  0  0  0  0  0  0  0  0  0  0
  178.5930  180.9680  140.1440 N   0  0  0  0  0  0  0  0  0  0  0  0
  178.3680  177.2000  139.3250 C   0  0  0  0  0  0  0  0  0  0  0  0
  177.7930  176.8380  140.3860 O   0  0  0  0  0  0  0  0  0  0  0  0
  178.3510  176.2920  138.1620 C   0  0  0  0  0  0  0  0  0  0  0  0
  178.2530  174.9200  138.3590 O   0  0  0  0  0  1  0  0  0  0  0  0
  178.4260  176.7420  136.9860 O   0  0  0  0  0  0  0  0  0  0  0  0
  189.5740  175.1240  145.2880 C   0  0  0  0  0  2  0  0  0  0  0  0
  189.7950  176.4800  145.9380 C   0  0  0  0  0  2  0  0  0  0  0  0
  191.1270  177.0630  145.4930 C   0  0  0  0  0  2  0  0  0  0  0  0
  193.4070  176.1710  145.3000 C   0  0  0  0  0  3  0  0  0  0  0  0
  192.2720  176.2430  145.9910 C   0  0  0  0  0  3  0  0  0  0  0  0
  194.5400  175.3460  145.8100 C   0  0  0  0  0  2  0  0  0  0  0  0
  196.7890  173.4940  146.2840 C   0  0  0  0  0  1  0  0  0  0  0  0
  197.9400  172.0570  143.9840 C   0  0  0  0  0  1  0  0  0  0  0  0
  195.2490  174.1130  142.2990 C   0  0  0  0  0  0  0  0  0  0  0  0
  194.6920  174.7970  143.3870 C   0  0  0  0  0  3  0  0  0  0  0  0
  196.3080  173.2240  142.5190 C   0  0  0  0  0  3  0  0  0  0  0  0
  196.2500  173.7060  144.9020 C   0  0  0  0  0  0  0  0  0  0  0  0
  196.8110  173.0180  143.8080 C   0  0  0  0  0  0  0  0  0  0  0  0
  195.1830  174.6040  144.6820 C   0  0  0  0  0  0  0  0  0  0  0  0
  194.2710  175.2010  138.8800 N   0  0  0  0  0  0  0  0  0  0  0  0
  193.9540  173.4920  140.3320 N   0  0  0  0  0  0  0  0  0  0  0  0
  193.6850  174.0630  139.0590 C   0  0  0  0  0  3  0  0  0  0  0  0
  194.7320  174.3270  140.9360 C   0  0  0  0  0  0  0  0  0  0  0  0
  195.0260  175.5140  140.0830 C   0  0  0  0  0  2  0  0  0  0  0  0
  1 13  1  6  0  0  0
  1 38  1  0  0  0  0
  2  4  1  0  0  0  0
  2  1  1  1  0  0  0
  3  4  2  0  0  0  0
  5  8  1  6  0  0  0
  5  6  1  0  0  0  0
  5  3  1  0  0  0  0
  6  7  1  0  0  0  0
  7  2  1  0  0  0  0
  9 10  1  0  0  0  0
 10  8  1  6  0  0  0
 11  9  1  0  0  0  0
 11 10  1  0  0  0  0
 12 13  2  0  0  0  0
 14 23  1  0  0  0  0
 15 14  1  0  0  0  0
 15 16  1  0  0  0  0
 16 12  1  1  0  0  0
 16 21  1  0  0  0  0
 17 24  1  0  0  0  0
 17 14  2  0  0  0  0
 18 22  1  0  0  0  0
 18 17  1  0  0  0  0
 19 22  2  0  0  0  0
 21 20  1  0  0  0  0
 22 15  1  0  0  0  0
 23 20  1  0  0  0  0
 25 24  1  0  0  0  0
 26 32  1  0  0  0  0
 27 28  1  0  0  0  0
 28 25  1  0  0  0  0
 28 30  1  1  0  0  0
 29 33  1  1  0  0  0
 29 28  1  0  0  0  0
 31 29  1  0  0  0  0
 31 32  1  0  0  0  0
 32 27  1  0  0  0  0
 33 34  2  0  0  0  0
 35 36  1  0  0  0  0
 35 33  1  0  0  0  0
 37 35  2  0  0  0  0
 38 39  1  0  0  0  0
 40 39  1  0  0  0  0
 40 42  1  0  0  0  0
 41 43  1  0  0  0  0
 41 42  2  0  0  0  0
 46 48  2  0  0  0  0
 46 47  1  0  0  0  0
 47 51  2  0  0  0  0
 48 50  1  0  0  0  0
 49 44  1  0  0  0  0
 50 45  1  0  0  0  0
 50 49  2  0  0  0  0
 51 49  1  0  0  0  0
 51 43  1  0  0  0  0
 52 54  2  0  0  0  0
 52 56  1  0  0  0  0
 53 55  2  0  0  0  0
 54 53  1  0  0  0  0
 55 46  1  0  0  0  0
 56 55  1  0  0  0  0
M  END
>  <MODEL>
4

>  <REMARK>
 VINA RESULT:      -7.7      1.765      2.516
  Name = 
  17 active torsions:
  status: ('A' for Active; 'I' for Inactive)
    1  A    between atoms: C_3  and  C_8
    2  A    between atoms: C_10  and  C_33
    3  A    between atoms: C_11  and  C_14
    4  A    between atoms: C_12  and  C_16
    5  A    between atoms: C_13  and  C_55
    6  A    between atoms: C_14  and  C_33
    7  A    between atoms: C_16  and  C_17
    8  A    between atoms: C_20  and  C_42
    9  A    between atoms: C_24  and  C_26
   10  A    between atoms: C_24  and  C_55
   11  A    between atoms: C_26  and  C_27
   12  A    between atoms: C_27  and  C_52
   13  A    between atoms: N_36  and  C_40
   14  A    between atoms: N_36  and  C_44
   15  A    between atoms: C_37  and  C_48
   16  A    between atoms: C_45  and  C_55
   17  A    between atoms: C_48  and  C_53
                            x       y       z     vdW  Elec       q    Type
                         _______ _______ _______ _____ _____    ______ ____

>  <TORSDO>
F 17

$$$$
=
 OpenBabel11042419523D

 56 62  0  0  1  0  0  0  0  0999 V2000
  188.9330  175.9260  145.7970 C   0  0  2  0  0  3  0  0  0  0  0  0
  187.4120  176.1150  145.9310 C   0  0  1  0  0  3  0  0  0  0  0  0
  186.3860  177.9560  147.2390 C   0  0  0  0  0  3  0  0  0  0  0  0
  186.9620  176.7480  147.2350 C   0  0  0  0  0  3  0  0  0  0  0  0
  186.1110  178.6860  145.9550 C   0  0  1  0  0  3  0  0  0  0  0  0
  186.9800  178.1020  144.8340 C   0  0  0  0  0  2  0  0  0  0  0  0
  186.8300  176.7000  144.7760 O   0  0  0  0  0  0  0  0  0  0  0  0
  184.7040  178.5460  145.6140 N   0  0  0  0  0  2  0  0  0  0  0  0
  184.2400  178.3530  143.2890 C   0  0  0  0  0  2  0  0  0  0  0  0
  184.4790  179.2870  144.3840 C   0  0  1  0  0  3  0  0  0  0  0  0
  183.1050  179.0420  143.9180 N   0  0  0  0  0  2  0  0  0  0  0  0
  189.5280  174.1150  144.2290 C   0  0  0  0  0  3  0  0  0  0  0  0
  189.2740  174.5010  145.4790 C   0  0  0  0  0  3  0  0  0  0  0  0
  191.2340  172.5050  141.7820 C   0  0  0  0  0  0  0  0  0  0  0  0
  190.0110  172.4890  142.4950 N   0  0  0  0  0  0  0  0  0  0  0  0
  189.8830  172.6900  143.9360 C   0  0  1  0  0  3  0  0  0  0  0  0
  191.0400  172.4920  140.4630 C   0  0  0  0  0  0  0  0  0  0  0  0
  189.5730  172.5310  140.1300 C   0  0  0  0  0  2  0  0  0  0  0  0
  187.7670  172.6000  141.7710 O   0  0  0  0  0  0  0  0  0  0  0  0
  192.4090  172.9390  143.9270 C   0  0  0  0  0  2  0  0  0  0  0  0
  191.1990  172.3100  144.6330 C   0  0  0  0  0  2  0  0  0  0  0  0
  188.9960  172.5390  141.5060 C   0  0  0  0  0  0  0  0  0  0  0  0
  192.5510  172.4230  142.4920 C   0  0  0  0  0  2  0  0  0  0  0  0
  192.1180  172.4800  139.4310 C   0  0  0  0  0  2  0  0  0  0  0  0
  192.3620  173.8890  138.9000 C   0  0  0  0  0  2  0  0  0  0  0  0
  189.5650  175.3190  135.3580 C   0  0  0  0  0  1  0  0  0  0  0  0
  190.8240  174.1400  136.9310 C   0  0  0  0  0  2  0  0  0  0  0  0
  192.2610  173.9780  137.3770 C   0  0  1  0  0  0  0  0  0  0  0  0
  192.9850  175.2010  136.8350 C   0  0  2  0  0  3  0  0  0  0  0  0
  192.7720  172.8010  136.8210 O   0  0  0  0  0  1  0  0  0  0  0  0
  192.1240  175.7740  135.3410 S   0  0  0  0  0  0  0  0  0  0  0  0
  190.8100  174.5970  135.5490 N   0  0  0  0  0  0  0  0  0  0  0  0
  194.4750  175.0670  136.6750 C   0  0  0  0  0  0  0  0  0  0  0  0
  195.1990  175.2520  137.6890 O   0  0  0  0  0  0  0  0  0  0  0  0
  195.1190  174.7210  135.3940 C   0  0  0  0  0  0  0  0  0  0  0  0
  196.4160  175.1480  135.1370 O   0  0  0  0  0  1  0  0  0  0  0  0
  194.5100  174.0430  134.5230 O   0  0  0  0  0  0  0  0  0  0  0  0
  189.6810  176.3730  147.0490 C   0  0  0  0  0  2  0  0  0  0  0  0
  190.3930  175.1980  147.6970 C   0  0  0  0  0  2  0  0  0  0  0  0
  191.7910  175.6080  148.1330 C   0  0  0  0  0  2  0  0  0  0  0  0
  193.7880  176.2950  146.8790 C   0  0  0  0  0  3  0  0  0  0  0  0
  192.4770  176.4100  147.0750 C   0  0  0  0  0  3  0  0  0  0  0  0
  194.4570  177.1050  145.8210 C   0  0  0  0  0  2  0  0  0  0  0  0
  196.2230  175.7390  143.8900 C   0  0  0  0  0  1  0  0  0  0  0  0
  195.1110  174.9450  141.2800 C   0  0  0  0  0  1  0  0  0  0  0  0
  192.1100  176.5910  142.8910 C   0  0  0  0  0  0  0  0  0  0  0  0
  192.6290  176.9680  144.1370 C   0  0  0  0  0  3  0  0  0  0  0  0
  192.9400  175.9320  141.9760 C   0  0  0  0  0  3  0  0  0  0  0  0
  194.7930  176.0310  143.5470 C   0  0  0  0  0  0  0  0  0  0  0  0
  194.2720  175.6510  142.2940 C   0  0  0  0  0  0  0  0  0  0  0  0
  193.9600  176.6970  144.4700 C   0  0  0  0  0  0  0  0  0  0  0  0
  188.7010  177.9250  142.2340 N   0  0  0  0  0  0  0  0  0  0  0  0
  189.9060  176.0170  142.0310 N   0  0  0  0  0  0  0  0  0  0  0  0
  188.6670  176.6910  141.8510 C   0  0  0  0  0  3  0  0  0  0  0  0
  190.7100  176.8870  142.5430 C   0  0  0  0  0  0  0  0  0  0  0  0
  190.0380  178.2050  142.7340 C   0  0  0  0  0  2  0  0  0  0  0  0
  1 13  1  1  0  0  0
  1 38  1  0  0  0  0
  2  1  1  6  0  0  0
  2  4  1  0  0  0  0
  4  3  2  0  0  0  0
  5  8  1  6  0  0  0
  5  3  1  0  0  0  0
  6  5  1  0  0  0  0
  7  6  1  0  0  0  0
  7  2  1  0  0  0  0
  9 11  1  0  0  0  0
  9 10  1  0  0  0  0
 10  8  1  1  0  0  0
 11 10  1  0  0  0  0
 12 13  2  0  0  0  0
 14 23  1  0  0  0  0
 14 15  1  0  0  0  0
 15 16  1  0  0  0  0
 16 12  1  6  0  0  0
 16 21  1  0  0  0  0
 17 14  2  0  0  0  0
 18 17  1  0  0  0  0
 18 22  1  0  0  0  0
 20 21  1  0  0  0  0
 22 19  2  0  0  0  0
 22 15  1  0  0  0  0
 23 20  1  0  0  0  0
 24 17  1  0  0  0  0
 25 24  1  0  0  0  0
 26 32  1  0  0  0  0
 27 28  1  0  0  0  0
 28 30  1  6  0  0  0
 28 25  1  0  0  0  0
 29 33  1  6  0  0  0
 29 28  1  0  0  0  0
 31 32  1  0  0  0  0
 31 29  1  0  0  0  0
 32 27  1  0  0  0  0
 33 34  2  0  0  0  0
 35 33  1  0  0  0  0
 36 35  1  0  0  0  0
 37 35  2  0  0  0  0
 38 39  1  0  0  0  0
 39 40  1  0  0  0  0
 41 42  2  0  0  0  0
 42 40  1  0  0  0  0
 43 41  1  0  0  0  0
 45 50  1  0  0  0  0
 46 47  1  0  0  0  0
 47 51  2  0  0  0  0
 48 50  1  0  0  0  0
 48 46  2  0  0  0  0
 49 44  1  0  0  0  0
 49 51  1  0  0  0  0
 50 49  2  0  0  0  0
 51 43  1  0  0  0  0
 52 56  1  0  0  0  0
 53 55  2  0  0  0  0
 54 53  1  0  0  0  0
 54 52  2  0  0  0  0
 55 56  1  0  0  0  0
 55 46  1  0  0  0  0
M  END
>  <MODEL>
5

>  <REMARK>
 VINA RESULT:      -7.5      4.761      9.784
  Name = 
  17 active torsions:
  status: ('A' for Active; 'I' for Inactive)
    1  A    between atoms: C_3  and  C_8
    2  A    between atoms: C_10  and  C_33
    3  A    between atoms: C_11  and  C_14
    4  A    between atoms: C_12  and  C_16
    5  A    between atoms: C_13  and  C_55
    6  A    between atoms: C_14  and  C_33
    7  A    between atoms: C_16  and  C_17
    8  A    between atoms: C_20  and  C_42
    9  A    between atoms: C_24  and  C_26
   10  A    between atoms: C_24  and  C_55
   11  A    between atoms: C_26  and  C_27
   12  A    between atoms: C_27  and  C_52
   13  A    between atoms: N_36  and  C_40
   14  A    between atoms: N_36  and  C_44
   15  A    between atoms: C_37  and  C_48
   16  A    between atoms: C_45  and  C_55
   17  A    between atoms: C_48  and  C_53
                            x       y       z     vdW  Elec       q    Type
                         _______ _______ _______ _____ _____    ______ ____

>  <TORSDO>
F 17

$$$$
=
 OpenBabel11042419523D

 56 62  0  0  1  0  0  0  0  0999 V2000
  193.5210  172.2890  140.0010 C   0  0  2  0  0  3  0  0  0  0  0  0
  194.2930  172.3560  138.6710 C   0  0  1  0  0  3  0  0  0  0  0  0
  193.4000  173.4670  136.6420 C   0  0  0  0  0  3  0  0  0  0  0  0
  193.4200  172.3860  137.4310 C   0  0  0  0  0  3  0  0  0  0  0  0
  194.2840  174.6480  136.9250 C   0  0  1  0  0  3  0  0  0  0  0  0
  194.7530  174.6020  138.3850 C   0  0  0  0  0  2  0  0  0  0  0  0
  195.3140  173.3410  138.6800 O   0  0  0  0  0  0  0  0  0  0  0  0
  195.4330  174.6110  136.0350 N   0  0  0  0  0  2  0  0  0  0  0  0
  197.7180  175.2470  136.2120 C   0  0  0  0  0  2  0  0  0  0  0  0
  196.3420  175.6660  136.4550 C   0  0  1  0  0  3  0  0  0  0  0  0
  197.0650  176.1760  135.2800 N   0  0  0  0  0  2  0  0  0  0  0  0
  193.7380  173.1460  142.3060 C   0  0  0  0  0  3  0  0  0  0  0  0
  194.1750  173.1420  141.0470 C   0  0  0  0  0  3  0  0  0  0  0  0
  192.7130  175.2480  144.7600 C   0  0  0  0  0  0  0  0  0  0  0  0
  193.5940  175.1570  143.6550 N   0  0  0  0  0  0  0  0  0  0  0  0
  194.4160  173.9920  143.3380 C   0  0  1  0  0  3  0  0  0  0  0  0
  191.9480  176.3380  144.6960 C   0  0  0  0  0  0  0  0  0  0  0  0
  192.2060  177.1090  143.4300 C   0  0  0  0  0  2  0  0  0  0  0  0
  193.8180  176.4740  141.7090 O   0  0  0  0  0  0  0  0  0  0  0  0
  193.3810  172.9450  145.4050 C   0  0  0  0  0  2  0  0  0  0  0  0
  194.6770  173.1770  144.6140 C   0  0  0  0  0  2  0  0  0  0  0  0
  193.2740  176.2600  142.8240 C   0  0  0  0  0  0  0  0  0  0  0  0
  192.7760  174.2650  145.8890 C   0  0  0  0  0  2  0  0  0  0  0  0
  190.9330  176.7410  145.7130 C   0  0  0  0  0  2  0  0  0  0  0  0
  189.8140  177.5470  145.0580 C   0  0  0  0  0  2  0  0  0  0  0  0
  186.2080  178.3760  148.0110 C   0  0  0  0  0  1  0  0  0  0  0  0
  188.0480  177.5410  146.8430 C   0  0  0  0  0  2  0  0  0  0  0  0
  188.4200  177.0630  145.4560 C   0  0  1  0  0  0  0  0  0  0  0  0
  187.3440  177.6290  144.5410 C   0  0  2  0  0  3  0  0  0  0  0  0
  188.4070  175.6650  145.4460 O   0  0  0  0  0  1  0  0  0  0  0  0
  185.8150  177.8400  145.4980 S   0  0  0  0  0  0  0  0  0  0  0  0
  186.6110  177.3930  147.0220 N   0  0  0  0  0  0  0  0  0  0  0  0
  187.1580  176.9210  143.2280 C   0  0  0  0  0  0  0  0  0  0  0  0
  186.3080  175.9930  143.1690 O   0  0  0  0  0  0  0  0  0  0  0  0
  187.9150  177.2700  142.0100 C   0  0  0  0  0  0  0  0  0  0  0  0
  187.8170  176.4640  140.8820 O   0  0  0  0  0  0  0  0  0  0  0  0
  188.6540  178.2910  141.9760 O   0  0  0  0  0  1  0  0  0  0  0  0
  193.3770  170.8590  140.5110 C   0  0  0  0  0  2  0  0  0  0  0  0
  194.3680  169.9400  139.8170 C   0  0  0  0  0  2  0  0  0  0  0  0
  193.6340  168.7900  139.1440 C   0  0  0  0  0  2  0  0  0  0  0  0
  191.6660  169.0850  137.7050 C   0  0  0  0  0  3  0  0  0  0  0  0
  192.1930  169.1190  138.9260 C   0  0  0  0  0  3  0  0  0  0  0  0
  190.2260  169.4190  137.5040 C   0  0  0  0  0  2  0  0  0  0  0  0
  189.9930  171.3110  135.2510 C   0  0  0  0  0  1  0  0  0  0  0  0
  189.5010  174.1550  135.8440 C   0  0  0  0  0  1  0  0  0  0  0  0
  189.6630  172.6910  139.3280 C   0  0  0  0  0  0  0  0  0  0  0  0
  189.8920  171.3360  139.0560 C   0  0  0  0  0  3  0  0  0  0  0  0
  189.5390  173.5910  138.2630 C   0  0  0  0  0  3  0  0  0  0  0  0
  189.8730  171.7880  136.6670 C   0  0  0  0  0  0  0  0  0  0  0  0
  189.6430  173.1510  136.9400 C   0  0  0  0  0  0  0  0  0  0  0  0
  190.0000  170.8790  137.7380 C   0  0  0  0  0  0  0  0  0  0  0  0
  189.8790  174.2820  142.6830 N   0  0  0  0  0  0  0  0  0  0  0  0
  188.7020  172.7020  141.5660 N   0  0  0  0  0  0  0  0  0  0  0  0
  188.9270  173.4130  142.7750 C   0  0  0  0  0  2  0  0  0  0  0  0
  189.5580  173.1670  140.7180 C   0  0  0  0  0  0  0  0  0  0  0  0
  190.4090  174.2280  141.3290 C   0  0  0  0  0  3  0  0  0  0  0  0
  1 38  1  1  0  0  0
  1 13  1  0  0  0  0
  2  7  1  0  0  0  0
  2  1  1  1  0  0  0
  3  5  1  0  0  0  0
  3  4  2  0  0  0  0
  4  2  1  0  0  0  0
  5  8  1  6  0  0  0
  5  6  1  0  0  0  0
  6  7  1  0  0  0  0
  9 10  1  0  0  0  0
 10  8  1  6  0  0  0
 11  9  1  0  0  0  0
 11 10  1  0  0  0  0
 13 12  2  0  0  0  0
 14 23  1  0  0  0  0
 15 14  1  0  0  0  0
 16 12  1  6  0  0  0
 16 15  1  0  0  0  0
 16 21  1  0  0  0  0
 17 14  2  0  0  0  0
 17 24  1  0  0  0  0
 18 17  1  0  0  0  0
 19 22  2  0  0  0  0
 20 23  1  0  0  0  0
 21 20  1  0  0  0  0
 22 18  1  0  0  0  0
 22 15  1  0  0  0  0
 25 28  1  0  0  0  0
 25 24  1  0  0  0  0
 27 32  1  0  0  0  0
 28 30  1  6  0  0  0
 28 27  1  0  0  0  0
 29 33  1  6  0  0  0
 29 28  1  0  0  0  0
 29 31  1  0  0  0  0
 31 32  1  0  0  0  0
 32 26  1  0  0  0  0
 34 33  2  0  0  0  0
 35 33  1  0  0  0  0
 36 35  2  0  0  0  0
 37 35  1  0  0  0  0
 39 38  1  0  0  0  0
 40 39  1  0  0  0  0
 41 42  2  0  0  0  0
 42 40  1  0  0  0  0
 43 41  1  0  0  0  0
 43 51  1  0  0  0  0
 44 49  1  0  0  0  0
 45 50  1  0  0  0  0
 46 55  1  0  0  0  0
 47 46  1  0  0  0  0
 48 46  2  0  0  0  0
 49 50  2  0  0  0  0
 49 51  1  0  0  0  0
 50 48  1  0  0  0  0
 51 47  2  0  0  0  0
 52 54  1  0  0  0  0
 53 54  1  0  0  0  0
 55 56  1  0  0  0  0
 55 53  2  0  0  0  0
 56 52  2  0  0  0  0
M  END
>  <MODEL>
6

>  <REMARK>
 VINA RESULT:      -7.4      5.195      9.105
  Name = 
  17 active torsions:
  status: ('A' for Active; 'I' for Inactive)
    1  A    between atoms: C_3  and  C_8
    2  A    between atoms: C_10  and  C_33
    3  A    between atoms: C_11  and  C_14
    4  A    between atoms: C_12  and  C_16
    5  A    between atoms: C_13  and  C_55
    6  A    between atoms: C_14  and  C_33
    7  A    between atoms: C_16  and  C_17
    8  A    between atoms: C_20  and  C_42
    9  A    between atoms: C_24  and  C_26
   10  A    between atoms: C_24  and  C_55
   11  A    between atoms: C_26  and  C_27
   12  A    between atoms: C_27  and  C_52
   13  A    between atoms: N_36  and  C_40
   14  A    between atoms: N_36  and  C_44
   15  A    between atoms: C_37  and  C_48
   16  A    between atoms: C_45  and  C_55
   17  A    between atoms: C_48  and  C_53
                            x       y       z     vdW  Elec       q    Type
                         _______ _______ _______ _____ _____    ______ ____

>  <TORSDO>
F 17

$$$$
=
 OpenBabel11042419523D

 56 62  0  0  1  0  0  0  0  0999 V2000
  193.4990  173.2910  144.0970 C   0  0  2  0  0  3  0  0  0  0  0  0
  194.3510  173.9520  142.9990 C   0  0  1  0  0  3  0  0  0  0  0  0
  194.7730  172.8990  140.7940 C   0  0  0  0  0  3  0  0  0  0  0  0
  195.0840  172.9810  142.0930 C   0  0  0  0  0  3  0  0  0  0  0  0
  193.7400  173.8060  140.1880 C   0  0  1  0  0  3  0  0  0  0  0  0
  192.8550  174.3930  141.2950 C   0  0  0  0  0  2  0  0  0  0  0  0
  193.6530  174.9730  142.3050 O   0  0  0  0  0  0  0  0  0  0  0  0
  194.4070  174.8790  139.4670 N   0  0  0  0  0  2  0  0  0  0  0  0
  194.3130  175.2530  137.1200 C   0  0  0  0  0  2  0  0  0  0  0  0
  194.7920  174.3560  138.1660 C   0  0  1  0  0  3  0  0  0  0  0  0
  195.7240  175.2970  137.5260 N   0  0  0  0  0  2  0  0  0  0  0  0
  193.0710  174.8520  145.9610 C   0  0  0  0  0  3  0  0  0  0  0  0
  192.6620  174.3070  144.8160 C   0  0  0  0  0  3  0  0  0  0  0  0
  190.1700  176.4600  145.2660 C   0  0  0  0  0  0  0  0  0  0  0  0
  191.5090  176.6840  145.6690 N   0  0  0  0  0  0  0  0  0  0  0  0
  192.2290  175.8780  146.6520 C   0  0  1  0  0  3  0  0  0  0  0  0
  189.8340  177.2170  144.2210 C   0  0  0  0  0  0  0  0  0  0  0  0
  191.0040  178.0330  143.7430 C   0  0  0  0  0  2  0  0  0  0  0  0
  193.2330  178.0020  144.7410 O   0  0  0  0  0  0  0  0  0  0  0  0
  190.0850  174.5300  146.8260 C   0  0  0  0  0  2  0  0  0  0  0  0
  191.2290  175.2000  147.6030 C   0  0  0  0  0  2  0  0  0  0  0  0
  192.0370  177.6100  144.7340 C   0  0  0  0  0  0  0  0  0  0  0  0
  189.2620  175.5580  146.0440 C   0  0  0  0  0  2  0  0  0  0  0  0
  188.4930  177.2400  143.5670 C   0  0  0  0  0  2  0  0  0  0  0  0
  187.5060  178.0480  144.4050 C   0  0  0  0  0  2  0  0  0  0  0  0
  185.4440  177.9070  140.1450 C   0  0  0  0  0  1  0  0  0  0  0  0
  186.6050  178.4510  142.0960 C   0  0  0  0  0  2  0  0  0  0  0  0
  186.3590  178.6300  143.5790 C   0  0  1  0  0  0  0  0  0  0  0  0
  185.0460  177.9110  143.8510 C   0  0  2  0  0  3  0  0  0  0  0  0
  186.2520  179.9970  143.8530 O   0  0  0  0  0  1  0  0  0  0  0  0
  184.0450  177.9290  142.3360 S   0  0  0  0  0  0  0  0  0  0  0  0
  185.3530  178.6610  141.3830 N   0  0  0  0  0  0  0  0  0  0  0  0
  184.3040  178.3420  145.0870 C   0  0  0  0  0  0  0  0  0  0  0  0
  183.3420  179.1430  144.9530 O   0  0  0  0  0  0  0  0  0  0  0  0
  184.6460  177.8610  146.4390 C   0  0  0  0  0  0  0  0  0  0  0  0
  185.2040  176.5980  146.6020 O   0  0  0  0  0  0  0  0  0  0  0  0
  184.4370  178.5770  147.4560 O   0  0  0  0  0  1  0  0  0  0  0  0
  194.3500  172.5150  145.0970 C   0  0  0  0  0  2  0  0  0  0  0  0
  193.8160  171.1030  145.2740 C   0  0  0  0  0  2  0  0  0  0  0  0
  194.0660  170.2870  144.0160 C   0  0  0  0  0  2  0  0  0  0  0  0
  192.1800  170.6460  142.4840 C   0  0  0  0  0  3  0  0  0  0  0  0
  192.7830  169.8660  143.3770 C   0  0  0  0  0  3  0  0  0  0  0  0
  190.8980  170.2110  141.8580 C   0  0  0  0  0  2  0  0  0  0  0  0
  189.1910  171.9560  143.5180 C   0  0  0  0  0  1  0  0  0  0  0  0
  187.8860  174.2720  142.2470 C   0  0  0  0  0  1  0  0  0  0  0  0
  189.7270  172.7590  139.3100 C   0  0  0  0  0  0  0  0  0  0  0  0
  190.3570  171.6580  139.9060 C   0  0  0  0  0  3  0  0  0  0  0  0
  188.9270  173.5960  140.0940 C   0  0  0  0  0  3  0  0  0  0  0  0
  189.3830  172.2370  142.0580 C   0  0  0  0  0  0  0  0  0  0  0  0
  188.7500  173.3440  141.4590 C   0  0  0  0  0  0  0  0  0  0  0  0
  190.1890  171.3890  141.2690 C   0  0  0  0  0  0  0  0  0  0  0  0
  190.3860  172.8480  135.6510 N   0  0  0  0  0  0  0  0  0  0  0  0
  189.6090  174.1630  137.3240 N   0  0  0  0  0  0  0  0  0  0  0  0
  189.9220  174.0180  135.9450 C   0  0  0  0  0  3  0  0  0  0  0  0
  189.9010  173.0310  137.8730 C   0  0  0  0  0  0  0  0  0  0  0  0
  190.4300  172.0600  136.8730 C   0  0  0  0  0  2  0  0  0  0  0  0
  1 13  1  1  0  0  0
  1 38  1  0  0  0  0
  2  1  1  6  0  0  0
  3  4  2  0  0  0  0
  4  2  1  0  0  0  0
  5  8  1  1  0  0  0
  5  3  1  0  0  0  0
  5  6  1  0  0  0  0
  6  7  1  0  0  0  0
  7  2  1  0  0  0  0
  9 11  1  0  0  0  0
  9 10  1  0  0  0  0
 10  8  1  1  0  0  0
 11 10  1  0  0  0  0
 13 12  2  0  0  0  0
 14 15  1  0  0  0  0
 14 23  1  0  0  0  0
 15 16  1  0  0  0  0
 16 12  1  6  0  0  0
 16 21  1  0  0  0  0
 17 14  2  0  0  0  0
 18 17  1  0  0  0  0
 18 22  1  0  0  0  0
 20 21  1  0  0  0  0
 22 19  2  0  0  0  0
 22 15  1  0  0  0  0
 23 20  1  0  0  0  0
 24 17  1  0  0  0  0
 24 25  1  0  0  0  0
 26 32  1  0  0  0  0
 27 28  1  0  0  0  0
 28 29  1  0  0  0  0
 28 30  1  1  0  0  0
 28 25  1  0  0  0  0
 29 33  1  1  0  0  0
 31 29  1  0  0  0  0
 32 27  1  0  0  0  0
 32 31  1  0  0  0  0
 33 35  1  0  0  0  0
 34 33  2  0  0  0  0
 35 36  2  0  0  0  0
 35 37  1  0  0  0  0
 38 39  1  0  0  0  0
 40 39  1  0  0  0  0
 41 42  2  0  0  0  0
 42 40  1  0  0  0  0
 43 41  1  0  0  0  0
 46 47  2  0  0  0  0
 46 48  1  0  0  0  0
 47 51  1  0  0  0  0
 48 50  2  0  0  0  0
 49 44  1  0  0  0  0
 50 49  1  0  0  0  0
 50 45  1  0  0  0  0
 51 43  1  0  0  0  0
 51 49  2  0  0  0  0
 52 54  2  0  0  0  0
 52 56  1  0  0  0  0
 53 55  2  0  0  0  0
 54 53  1  0  0  0  0
 55 46  1  0  0  0  0
 56 55  1  0  0  0  0
M  END
>  <MODEL>
7

>  <REMARK>
 VINA RESULT:      -7.4      4.149      7.438
  Name = 
  17 active torsions:
  status: ('A' for Active; 'I' for Inactive)
    1  A    between atoms: C_3  and  C_8
    2  A    between atoms: C_10  and  C_33
    3  A    between atoms: C_11  and  C_14
    4  A    between atoms: C_12  and  C_16
    5  A    between atoms: C_13  and  C_55
    6  A    between atoms: C_14  and  C_33
    7  A    between atoms: C_16  and  C_17
    8  A    between atoms: C_20  and  C_42
    9  A    between atoms: C_24  and  C_26
   10  A    between atoms: C_24  and  C_55
   11  A    between atoms: C_26  and  C_27
   12  A    between atoms: C_27  and  C_52
   13  A    between atoms: N_36  and  C_40
   14  A    between atoms: N_36  and  C_44
   15  A    between atoms: C_37  and  C_48
   16  A    between atoms: C_45  and  C_55
   17  A    between atoms: C_48  and  C_53
                            x       y       z     vdW  Elec       q    Type
                         _______ _______ _______ _____ _____    ______ ____

>  <TORSDO>
F 17

$$$$
=
 OpenBabel11042419523D

 56 62  0  0  1  0  0  0  0  0999 V2000
  187.5020  177.4740  145.6810 C   0  0  2  0  0  3  0  0  0  0  0  0
  186.0170  177.8270  145.4790 C   0  0  1  0  0  3  0  0  0  0  0  0
  185.2420  179.5670  143.8920 C   0  0  0  0  0  3  0  0  0  0  0  0
  185.7530  179.2700  145.0930 C   0  0  0  0  0  3  0  0  0  0  0  0
  184.8570  178.4840  142.9260 C   0  0  1  0  0  3  0  0  0  0  0  0
  185.5600  177.1760  143.3110 C   0  0  0  0  0  2  0  0  0  0  0  0
  185.3350  176.8800  144.6720 O   0  0  0  0  0  0  0  0  0  0  0  0
  183.4150  178.2990  142.9610 N   0  0  0  0  0  2  0  0  0  0  0  0
  182.4810  177.9080  140.8080 C   0  0  0  0  0  2  0  0  0  0  0  0
  182.8660  178.9330  141.7720 C   0  0  1  0  0  3  0  0  0  0  0  0
  181.4510  178.5540  141.6340 N   0  0  0  0  0  2  0  0  0  0  0  0
  188.7740  176.6410  143.7370 C   0  0  0  0  0  3  0  0  0  0  0  0
  188.2810  177.6760  144.4160 C   0  0  0  0  0  3  0  0  0  0  0  0
  191.6760  175.4810  142.4250 C   0  0  0  0  0  0  0  0  0  0  0  0
  190.9650  176.6750  142.6970 N   0  0  0  0  0  0  0  0  0  0  0  0
  189.5340  176.8640  142.4670 C   0  0  1  0  0  3  0  0  0  0  0  0
  192.9170  175.5230  142.9090 C   0  0  0  0  0  0  0  0  0  0  0  0
  193.1650  176.8030  143.6600 C   0  0  0  0  0  2  0  0  0  0  0  0
  191.5280  178.5910  143.9550 O   0  0  0  0  0  0  0  0  0  0  0  0
  189.5530  174.4680  141.6290 C   0  0  0  0  0  2  0  0  0  0  0  0
  189.0500  175.8970  141.3750 C   0  0  0  0  0  2  0  0  0  0  0  0
  191.8430  177.4710  143.4740 C   0  0  0  0  0  0  0  0  0  0  0  0
  191.0820  174.3950  141.5820 C   0  0  0  0  0  2  0  0  0  0  0  0
  193.9340  174.4380  142.7750 C   0  0  0  0  0  2  0  0  0  0  0  0
  195.3330  175.0330  142.6450 C   0  0  0  0  0  2  0  0  0  0  0  0
  197.3400  170.8160  141.8710 C   0  0  0  0  0  1  0  0  0  0  0  0
  196.8390  173.0470  142.3370 C   0  0  0  0  0  2  0  0  0  0  0  0
  196.2220  174.2590  141.6710 C   0  0  1  0  0  0  0  0  0  0  0  0
  195.4250  173.7040  140.5000 C   0  0  2  0  0  3  0  0  0  0  0  0
  197.2480  175.0990  141.2300 O   0  0  0  0  0  1  0  0  0  0  0  0
  196.1890  172.1480  139.9580 S   0  0  0  0  0  0  0  0  0  0  0  0
  197.3470  172.1530  141.3060 N   0  0  0  0  0  0  0  0  0  0  0  0
  195.1360  174.6710  139.3840 C   0  0  0  0  0  0  0  0  0  0  0  0
  194.1520  175.4470  139.5110 O   0  0  0  0  0  0  0  0  0  0  0  0
  195.9560  174.7570  138.1610 C   0  0  0  0  0  0  0  0  0  0  0  0
  195.6010  174.0170  137.0390 O   0  0  0  0  0  0  0  0  0  0  0  0
  196.9800  175.4910  138.1160 O   0  0  0  0  0  1  0  0  0  0  0  0
  187.6900  176.0480  146.1880 C   0  0  0  0  0  2  0  0  0  0  0  0
  188.7520  176.0000  147.2730 C   0  0  0  0  0  2  0  0  0  0  0  0
  190.0060  175.3180  146.7490 C   0  0  0  0  0  2  0  0  0  0  0  0
  190.5280  173.4990  145.1830 C   0  0  0  0  0  3  0  0  0  0  0  0
  189.6780  174.0370  146.0540 C   0  0  0  0  0  3  0  0  0  0  0  0
  190.1840  172.2210  144.4960 C   0  0  0  0  0  2  0  0  0  0  0  0
  190.1270  170.9170  141.8490 C   0  0  0  0  0  1  0  0  0  0  0  0
  192.6290  169.7830  140.7820 C   0  0  0  0  0  1  0  0  0  0  0  0
  193.7900  171.1200  144.1250 C   0  0  0  0  0  0  0  0  0  0  0  0
  192.6070  171.6670  144.6380 C   0  0  0  0  0  3  0  0  0  0  0  0
  193.7720  170.5110  142.8640 C   0  0  0  0  0  3  0  0  0  0  0  0
  191.3990  170.9930  142.6380 C   0  0  0  0  0  0  0  0  0  0  0  0
  192.5890  170.4430  142.1210 C   0  0  0  0  0  0  0  0  0  0  0  0
  191.4150  171.6060  143.9090 C   0  0  0  0  0  0  0  0  0  0  0  0
  196.8160  171.8950  146.1430 N   0  0  0  0  0  0  0  0  0  0  0  0
  195.7890  170.1520  145.1230 N   0  0  0  0  0  0  0  0  0  0  0  0
  196.8830  170.6280  145.8960 C   0  0  0  0  0  2  0  0  0  0  0  0
  195.0400  171.1800  144.9010 C   0  0  0  0  0  0  0  0  0  0  0  0
  195.6060  172.4120  145.5240 C   0  0  0  0  0  3  0  0  0  0  0  0
  1 13  1  6  0  0  0
  1 38  1  0  0  0  0
  2  1  1  6  0  0  0
  3  4  2  0  0  0  0
  4  2  1  0  0  0  0
  5  8  1  1  0  0  0
  5  6  1  0  0  0  0
  5  3  1  0  0  0  0
  6  7  1  0  0  0  0
  7  2  1  0  0  0  0
  9 11  1  0  0  0  0
  9 10  1  0  0  0  0
 10  8  1  1  0  0  0
 11 10  1  0  0  0  0
 12 13  2  0  0  0  0
 14 15  1  0  0  0  0
 14 17  2  0  0  0  0
 15 22  1  0  0  0  0
 16 15  1  0  0  0  0
 16 12  1  1  0  0  0
 17 18  1  0  0  0  0
 21 20  1  0  0  0  0
 21 16  1  0  0  0  0
 22 18  1  0  0  0  0
 22 19  2  0  0  0  0
 23 20  1  0  0  0  0
 23 14  1  0  0  0  0
 24 17  1  0  0  0  0
 25 24  1  0  0  0  0
 28 30  1  6  0  0  0
 28 27  1  0  0  0  0
 28 25  1  0  0  0  0
 29 33  1  6  0  0  0
 29 28  1  0  0  0  0
 31 29  1  0  0  0  0
 31 32  1  0  0  0  0
 32 26  1  0  0  0  0
 32 27  1  0  0  0  0
 33 34  2  0  0  0  0
 35 33  1  0  0  0  0
 36 35  2  0  0  0  0
 37 35  1  0  0  0  0
 38 39  1  0  0  0  0
 40 39  1  0  0  0  0
 41 42  2  0  0  0  0
 42 40  1  0  0  0  0
 43 41  1  0  0  0  0
 44 49  1  0  0  0  0
 45 50  1  0  0  0  0
 46 47  1  0  0  0  0
 46 55  1  0  0  0  0
 48 46  2  0  0  0  0
 49 51  1  0  0  0  0
 50 49  2  0  0  0  0
 50 48  1  0  0  0  0
 51 43  1  0  0  0  0
 51 47  2  0  0  0  0
 53 54  1  0  0  0  0
 54 52  1  0  0  0  0
 55 53  2  0  0  0  0
 55 56  1  0  0  0  0
 56 52  2  0  0  0  0
M  END
>  <MODEL>
8

>  <REMARK>
 VINA RESULT:      -7.3      4.439     10.566
  Name = 
  17 active torsions:
  status: ('A' for Active; 'I' for Inactive)
    1  A    between atoms: C_3  and  C_8
    2  A    between atoms: C_10  and  C_33
    3  A    between atoms: C_11  and  C_14
    4  A    between atoms: C_12  and  C_16
    5  A    between atoms: C_13  and  C_55
    6  A    between atoms: C_14  and  C_33
    7  A    between atoms: C_16  and  C_17
    8  A    between atoms: C_20  and  C_42
    9  A    between atoms: C_24  and  C_26
   10  A    between atoms: C_24  and  C_55
   11  A    between atoms: C_26  and  C_27
   12  A    between atoms: C_27  and  C_52
   13  A    between atoms: N_36  and  C_40
   14  A    between atoms: N_36  and  C_44
   15  A    between atoms: C_37  and  C_48
   16  A    between atoms: C_45  and  C_55
   17  A    between atoms: C_48  and  C_53
                            x       y       z     vdW  Elec       q    Type
                         _______ _______ _______ _____ _____    ______ ____

>  <TORSDO>
F 17

$$$$
=
 OpenBabel11042419523D

 56 62  0  0  1  0  0  0  0  0999 V2000
  194.2690  172.6690  144.6490 C   0  0  2  0  0  3  0  0  0  0  0  0
  195.5750  172.6920  143.8350 C   0  0  1  0  0  3  0  0  0  0  0  0
  195.6670  172.1880  141.4090 C   0  0  0  0  0  3  0  0  0  0  0  0
  195.6110  171.7280  142.6640 C   0  0  0  0  0  3  0  0  0  0  0  0
  195.7610  173.6600  141.1280 C   0  0  1  0  0  3  0  0  0  0  0  0
  195.3050  174.4500  142.3620 C   0  0  0  0  0  2  0  0  0  0  0  0
  195.9940  174.0080  143.5110 O   0  0  0  0  0  0  0  0  0  0  0  0
  197.1380  174.0010  140.8050 N   0  0  0  0  0  2  0  0  0  0  0  0
  196.4600  175.4050  139.0090 C   0  0  0  0  0  2  0  0  0  0  0  0
  197.2090  174.2050  139.3670 C   0  0  1  0  0  3  0  0  0  0  0  0
  197.9260  175.4610  139.0940 N   0  0  0  0  0  2  0  0  0  0  0  0
  192.8720  174.2580  145.9210 C   0  0  0  0  0  3  0  0  0  0  0  0
  194.0340  173.9850  145.3290 C   0  0  0  0  0  3  0  0  0  0  0  0
  190.5820  176.7500  145.7320 C   0  0  0  0  0  0  0  0  0  0  0  0
  191.9770  176.5030  145.7190 N   0  0  0  0  0  0  0  0  0  0  0  0
  192.6660  175.5720  146.6090 C   0  0  1  0  0  3  0  0  0  0  0  0
  190.2010  177.4910  144.6910 C   0  0  0  0  0  0  0  0  0  0  0  0
  191.3610  177.7860  143.7800 C   0  0  0  0  0  2  0  0  0  0  0  0
  193.6540  177.0270  144.1440 O   0  0  0  0  0  0  0  0  0  0  0  0
  190.3690  175.1130  147.5870 C   0  0  0  0  0  2  0  0  0  0  0  0
  191.8490  175.3810  147.8970 C   0  0  0  0  0  2  0  0  0  0  0  0
  192.4560  177.0970  144.5250 C   0  0  0  0  0  0  0  0  0  0  0  0
  189.7210  176.3030  146.8740 C   0  0  0  0  0  2  0  0  0  0  0  0
  188.8060  177.9480  144.4210 C   0  0  0  0  0  2  0  0  0  0  0  0
  187.9370  176.7730  143.9800 C   0  0  0  0  0  2  0  0  0  0  0  0
  184.7060  178.2710  147.0990 C   0  0  0  0  0  1  0  0  0  0  0  0
  186.0710  177.0730  145.6330 C   0  0  0  0  0  2  0  0  0  0  0  0
  186.4430  177.0350  144.1660 C   0  0  1  0  0  0  0  0  0  0  0  0
  186.0360  178.3950  143.6200 C   0  0  2  0  0  3  0  0  0  0  0  0
  185.7240  176.0070  143.5490 O   0  0  0  0  0  1  0  0  0  0  0  0
  184.6590  179.0370  144.6150 S   0  0  0  0  0  0  0  0  0  0  0  0
  184.7590  177.6900  145.7700 N   0  0  0  0  0  0  0  0  0  0  0  0
  185.8100  178.4670  142.1350 C   0  0  0  0  0  0  0  0  0  0  0  0
  186.8040  178.6850  141.3920 O   0  0  0  0  0  0  0  0  0  0  0  0
  184.4850  178.2820  141.5120 C   0  0  0  0  0  0  0  0  0  0  0  0
  183.3420  178.3110  142.3030 O   0  0  0  0  0  1  0  0  0  0  0  0
  184.3710  178.0950  140.2710 O   0  0  0  0  0  0  0  0  0  0  0  0
  194.2510  171.5420  145.6760 C   0  0  0  0  0  2  0  0  0  0  0  0
  195.2660  170.4700  145.3140 C   0  0  0  0  0  2  0  0  0  0  0  0
  194.5700  169.1320  145.1240 C   0  0  0  0  0  2  0  0  0  0  0  0
  193.2290  169.2780  143.0710 C   0  0  0  0  0  3  0  0  0  0  0  0
  193.2720  169.2920  144.4000 C   0  0  0  0  0  3  0  0  0  0  0  0
  191.9270  169.4420  142.3640 C   0  0  0  0  0  2  0  0  0  0  0  0
  190.7740  171.5700  144.0550 C   0  0  0  0  0  1  0  0  0  0  0  0
  190.5990  174.2990  142.9610 C   0  0  0  0  0  1  0  0  0  0  0  0
  192.1340  172.4350  140.0500 C   0  0  0  0  0  0  0  0  0  0  0  0
  192.2260  171.1340  140.5630 C   0  0  0  0  0  3  0  0  0  0  0  0
  191.6000  173.4500  140.8520 C   0  0  0  0  0  3  0  0  0  0  0  0
  191.2520  171.8690  142.6660 C   0  0  0  0  0  0  0  0  0  0  0  0
  191.1590  173.1770  142.1500 C   0  0  0  0  0  0  0  0  0  0  0  0
  191.7890  170.8430  141.8600 C   0  0  0  0  0  0  0  0  0  0  0  0
  192.9220  172.6890  136.4240 N   0  0  0  0  0  0  0  0  0  0  0  0
  193.4030  173.6940  138.3960 N   0  0  0  0  0  0  0  0  0  0  0  0
  193.5890  173.6410  136.9880 C   0  0  0  0  0  3  0  0  0  0  0  0
  192.5900  172.7320  138.6810 C   0  0  0  0  0  0  0  0  0  0  0  0
  192.1870  171.9780  137.4590 C   0  0  0  0  0  2  0  0  0  0  0  0
  1 13  1  1  0  0  0
  1 38  1  0  0  0  0
  2  1  1  6  0  0  0
  3  4  2  0  0  0  0
  4  2  1  0  0  0  0
  5  8  1  1  0  0  0
  5  3  1  0  0  0  0
  5  6  1  0  0  0  0
  6  7  1  0  0  0  0
  7  2  1  0  0  0  0
  9 11  1  0  0  0  0
  9 10  1  0  0  0  0
 10  8  1  1  0  0  0
 11 10  1  0  0  0  0
 13 12  2  0  0  0  0
 14 23  1  0  0  0  0
 15 14  1  0  0  0  0
 15 16  1  0  0  0  0
 16 12  1  6  0  0  0
 16 21  1  0  0  0  0
 17 14  2  0  0  0  0
 18 22  1  0  0  0  0
 18 17  1  0  0  0  0
 19 22  2  0  0  0  0
 20 21  1  0  0  0  0
 22 15  1  0  0  0  0
 23 20  1  0  0  0  0
 24 17  1  0  0  0  0
 25 28  1  0  0  0  0
 25 24  1  0  0  0  0
 27 32  1  0  0  0  0
 28 30  1  6  0  0  0
 28 27  1  0  0  0  0
 29 33  1  6  0  0  0
 29 28  1  0  0  0  0
 29 31  1  0  0  0  0
 31 32  1  0  0  0  0
 32 26  1  0  0  0  0
 34 33  2  0  0  0  0
 35 33  1  0  0  0  0
 35 36  1  0  0  0  0
 37 35  2  0  0  0  0
 39 38  1  0  0  0  0
 40 39  1  0  0  0  0
 41 42  2  0  0  0  0
 42 40  1  0  0  0  0
 43 41  1  0  0  0  0
 46 47  2  0  0  0  0
 46 48  1  0  0  0  0
 47 51  1  0  0  0  0
 48 50  2  0  0  0  0
 49 44  1  0  0  0  0
 50 49  1  0  0  0  0
 50 45  1  0  0  0  0
 51 43  1  0  0  0  0
 51 49  2  0  0  0  0
 52 54  2  0  0  0  0
 52 56  1  0  0  0  0
 53 55  2  0  0  0  0
 54 53  1  0  0  0  0
 55 46  1  0  0  0  0
 56 55  1  0  0  0  0
M  END
>  <MODEL>
9

>  <REMARK>
 VINA RESULT:      -7.3      3.786      7.360
  Name = 
  17 active torsions:
  status: ('A' for Active; 'I' for Inactive)
    1  A    between atoms: C_3  and  C_8
    2  A    between atoms: C_10  and  C_33
    3  A    between atoms: C_11  and  C_14
    4  A    between atoms: C_12  and  C_16
    5  A    between atoms: C_13  and  C_55
    6  A    between atoms: C_14  and  C_33
    7  A    between atoms: C_16  and  C_17
    8  A    between atoms: C_20  and  C_42
    9  A    between atoms: C_24  and  C_26
   10  A    between atoms: C_24  and  C_55
   11  A    between atoms: C_26  and  C_27
   12  A    between atoms: C_27  and  C_52
   13  A    between atoms: N_36  and  C_40
   14  A    between atoms: N_36  and  C_44
   15  A    between atoms: C_37  and  C_48
   16  A    between atoms: C_45  and  C_55
   17  A    between atoms: C_48  and  C_53
                            x       y       z     vdW  Elec       q    Type
                         _______ _______ _______ _____ _____    ______ ____

>  <TORSDO>
F 17

$$$$
