=
 OpenBabel11042418363D

 37 39  0  0  1  0  0  0  0  0999 V2000
  194.1170  175.9720  144.6990 C   0  0  0  0  0  0  0  0  0  0  0  0
  191.0070  174.1510  142.4710 C   0  0  1  0  0  3  0  0  0  0  0  0
  194.0480  177.1760  145.0730 O   0  0  0  0  0  0  0  0  0  0  0  0
  192.3450  173.5030  142.8230 C   0  0  0  0  0  2  0  0  0  0  0  0
  191.2070  175.6640  142.3830 C   0  0  0  0  0  2  0  0  0  0  0  0
  192.9680  175.3620  144.0810 N   0  0  0  0  0  0  0  0  0  0  0  0
  192.7910  173.9650  144.1360 N   0  0  0  0  0  2  0  0  0  0  0  0
  191.8460  176.2100  143.6600 C   0  0  2  0  0  3  0  0  0  0  0  0
  188.3920  177.0150  146.5860 C   0  0  0  0  0  0  0  0  0  0  0  0
  189.9140  177.3840  144.6350 C   0  0  0  0  0  3  0  0  0  0  0  0
  188.9000  177.7910  145.6280 C   0  0  0  0  0  3  0  0  0  0  0  0
  190.8430  176.4190  144.7600 C   0  0  0  0  0  0  0  0  0  0  0  0
  187.2190  177.6990  147.6900 Cl  0  0  0  0  0  0  0  0  0  0  0  0
  190.1470  175.3080  146.8900 C   0  0  0  0  0  3  0  0  0  0  0  0
  188.6920  175.5560  146.6770 C   0  0  0  0  0  2  0  0  0  0  0  0
  191.0820  175.6680  146.0100 C   0  0  0  0  0  3  0  0  0  0  0  0
  196.3760  175.2610  143.9050 C   0  0  0  0  0  3  0  0  0  0  0  0
  196.8190  173.7680  146.1970 C   0  0  0  0  0  3  0  0  0  0  0  0
  197.7750  173.8310  145.1830 C   0  0  0  0  0  3  0  0  0  0  0  0
  197.5360  174.5690  144.0670 N   0  0  0  0  0  0  0  0  0  0  0  0
  195.3870  175.2360  144.8990 C   0  0  0  0  0  0  0  0  0  0  0  0
  195.6230  174.4710  146.0490 C   0  0  0  0  0  3  0  0  0  0  0  0
  190.4510  173.5810  141.1610 C   0  0  2  0  0  3  0  0  0  0  0  0
  191.5830  172.5720  139.5320 C   0  0  0  0  0  1  0  0  0  0  0  0
  191.3460  173.8220  140.1080 O   0  0  0  0  0  0  0  0  0  0  0  0
  188.4070  173.5340  139.7610 N   0  0  0  0  0  1  0  0  0  0  0  0
  189.0870  174.2160  140.8520 C   0  0  1  0  0  3  0  0  0  0  0  0
  188.1760  174.3650  142.0730 C   0  0  0  0  0  2  0  0  0  0  0  0
  188.0190  176.7060  141.6200 O   0  0  0  0  0  0  0  0  0  0  0  0
  187.4960  175.7010  142.1680 C   0  0  0  0  0  0  0  0  0  0  0  0
  186.3030  175.8590  142.8780 O   0  0  0  0  0  0  0  0  0  0  0  0
  186.1050  176.8900  143.8380 C   0  0  2  0  0  3  0  0  0  0  0  0
  185.5100  176.3800  144.9790 F   0  0  0  0  0  0  0  0  0  0  0  0
  185.2440  177.9660  143.2570 C   0  0  0  0  0  0  0  0  0  0  0  0
  184.3250  177.6780  142.5070 O   0  0  0  0  0  0  0  0  0  0  0  0
  185.5190  179.3980  143.5710 C   0  0  0  0  0  2  0  0  0  0  0  0
  185.8820  179.5290  144.9130 O   0  0  0  0  0  1  0  0  0  0  0  0
  1 21  1  0  0  0  0
  1  3  2  0  0  0  0
  2 23  1  6  0  0  0
  2  4  1  0  0  0  0
  4  7  1  0  0  0  0
  5  2  1  0  0  0  0
  5  8  1  0  0  0  0
  6  7  1  0  0  0  0
  6  1  1  0  0  0  0
  8  6  1  0  0  0  0
  8 12  1  1  0  0  0
  9 15  1  0  0  0  0
  9 13  1  0  0  0  0
 10 12  2  0  0  0  0
 10 11  1  0  0  0  0
 11  9  2  0  0  0  0
 12 16  1  0  0  0  0
 15 14  1  0  0  0  0
 16 14  2  0  0  0  0
 17 20  2  0  0  0  0
 17 21  1  0  0  0  0
 19 18  2  0  0  0  0
 20 19  1  0  0  0  0
 21 22  2  0  0  0  0
 22 18  1  0  0  0  0
 23 25  1  6  0  0  0
 24 25  1  0  0  0  0
 27 26  1  6  0  0  0
 27 23  1  0  0  0  0
 27 28  1  0  0  0  0
 28 30  1  0  0  0  0
 29 30  2  0  0  0  0
 30 31  1  0  0  0  0
 31 32  1  0  0  0  0
 32 33  1  1  0  0  0
 34 36  1  0  0  0  0
 34 32  1  0  0  0  0
 35 34  2  0  0  0  0
 36 37  1  0  0  0  0
M  END
>  <MODEL>
1

>  <REMARK>
 VINA RESULT:      -7.0      0.000      0.000
  Name = 
  11 active torsions:
  status: ('A' for Active; 'I' for Inactive)
    1  A    between atoms: C_5  and  C_30
    2  A    between atoms: C_8  and  C_31
    3  A    between atoms: C_8  and  C_36
    4  A    between atoms: O_10  and  C_32
    5  A    between atoms: C_11  and  O_13
    6  A    between atoms: C_11  and  C_30
    7  A    between atoms: C_12  and  C_14
    8  A    between atoms: O_13  and  C_31
    9  A    between atoms: C_16  and  C_35
   10  A    between atoms: C_18  and  C_32
   11  A    between atoms: C_32  and  C_36
                            x       y       z     vdW  Elec       q    Type
                         _______ _______ _______ _____ _____    ______ ____

>  <TORSDO>
F 11

$$$$
=
 OpenBabel11042418363D

 37 39  0  0  1  0  0  0  0  0999 V2000
  191.3720  174.5610  143.9400 C   0  0  0  0  0  0  0  0  0  0  0  0
  188.0230  176.4600  142.1720 C   0  0  1  0  0  3  0  0  0  0  0  0
  191.5200  173.3080  143.9050 O   0  0  0  0  0  0  0  0  0  0  0  0
  189.1090  177.1560  142.9920 C   0  0  0  0  0  2  0  0  0  0  0  0
  187.8970  175.0160  142.6570 C   0  0  0  0  0  2  0  0  0  0  0  0
  190.2990  175.1630  143.1920 N   0  0  0  0  0  0  0  0  0  0  0  0
  190.3960  176.5030  142.7650 N   0  0  0  0  0  2  0  0  0  0  0  0
  189.2510  174.3050  142.6260 C   0  0  2  0  0  3  0  0  0  0  0  0
  190.8550  172.5850  138.6750 C   0  0  0  0  0  0  0  0  0  0  0  0
  190.8870  173.8180  140.8520 C   0  0  0  0  0  3  0  0  0  0  0  0
  191.4200  173.4410  139.5270 C   0  0  0  0  0  3  0  0  0  0  0  0
  189.6040  173.8020  141.2540 C   0  0  0  0  0  0  0  0  0  0  0  0
  191.6310  172.2970  137.1330 Cl  0  0  0  0  0  0  0  0  0  0  0  0
  188.4820  172.6390  139.3450 C   0  0  0  0  0  3  0  0  0  0  0  0
  189.6550  171.7730  139.0340 C   0  0  0  0  0  2  0  0  0  0  0  0
  188.4670  173.5070  140.3560 C   0  0  0  0  0  3  0  0  0  0  0  0
  193.5040  175.8340  144.2130 C   0  0  0  0  0  3  0  0  0  0  0  0
  192.9520  176.3800  146.8720 C   0  0  0  0  0  3  0  0  0  0  0  0
  194.1290  176.8320  146.2740 C   0  0  0  0  0  3  0  0  0  0  0  0
  194.3790  176.5520  144.9680 N   0  0  0  0  0  0  0  0  0  0  0  0
  192.3040  175.3650  144.7660 C   0  0  0  0  0  0  0  0  0  0  0  0
  192.0420  175.6430  146.1130 C   0  0  0  0  0  3  0  0  0  0  0  0
  186.6890  177.2080  142.2870 C   0  0  2  0  0  3  0  0  0  0  0  0
  185.6200  178.1440  140.5730 C   0  0  0  0  0  1  0  0  0  0  0  0
  186.6890  178.3350  141.4500 O   0  0  0  0  0  0  0  0  0  0  0  0
  186.3030  179.0720  143.8730 N   0  0  0  0  0  1  0  0  0  0  0  0
  186.4490  177.6300  143.7440 C   0  0  1  0  0  3  0  0  0  0  0  0
  185.2990  176.8880  144.4290 C   0  0  0  0  0  2  0  0  0  0  0  0
  184.1650  178.0720  146.1670 O   0  0  0  0  0  0  0  0  0  0  0  0
  185.0920  177.2760  145.8650 C   0  0  0  0  0  0  0  0  0  0  0  0
  185.9260  176.7910  146.8760 O   0  0  0  0  0  0  0  0  0  0  0  0
  186.9900  177.5540  147.4330 C   0  0  2  0  0  3  0  0  0  0  0  0
  186.8710  178.8850  147.0720 F   0  0  0  0  0  0  0  0  0  0  0  0
  188.3020  177.0180  146.9560 C   0  0  0  0  0  0  0  0  0  0  0  0
  189.3030  177.7130  147.0030 O   0  0  0  0  0  0  0  0  0  0  0  0
  188.3890  175.6370  146.3970 C   0  0  0  0  0  2  0  0  0  0  0  0
  188.8720  174.7590  147.3700 O   0  0  0  0  0  1  0  0  0  0  0  0
  1 21  1  0  0  0  0
  2 23  1  1  0  0  0
  2  5  1  0  0  0  0
  2  4  1  0  0  0  0
  3  1  2  0  0  0  0
  6  1  1  0  0  0  0
  7  4  1  0  0  0  0
  7  6  1  0  0  0  0
  8 12  1  6  0  0  0
  8  5  1  0  0  0  0
  8  6  1  0  0  0  0
  9 15  1  0  0  0  0
  9 11  2  0  0  0  0
 10 12  2  0  0  0  0
 11 10  1  0  0  0  0
 13  9  1  0  0  0  0
 14 16  2  0  0  0  0
 15 14  1  0  0  0  0
 16 12  1  0  0  0  0
 17 21  2  0  0  0  0
 17 20  1  0  0  0  0
 19 18  1  0  0  0  0
 20 19  2  0  0  0  0
 21 22  1  0  0  0  0
 22 18  2  0  0  0  0
 23 25  1  6  0  0  0
 23 27  1  0  0  0  0
 24 25  1  0  0  0  0
 27 26  1  6  0  0  0
 27 28  1  0  0  0  0
 28 30  1  0  0  0  0
 30 29  2  0  0  0  0
 30 31  1  0  0  0  0
 31 32  1  0  0  0  0
 32 33  1  6  0  0  0
 34 35  2  0  0  0  0
 34 32  1  0  0  0  0
 36 34  1  0  0  0  0
 36 37  1  0  0  0  0
M  END
>  <MODEL>
2

>  <REMARK>
 VINA RESULT:      -6.7      3.230      5.769
  Name = 
  11 active torsions:
  status: ('A' for Active; 'I' for Inactive)
    1  A    between atoms: C_5  and  C_30
    2  A    between atoms: C_8  and  C_31
    3  A    between atoms: C_8  and  C_36
    4  A    between atoms: O_10  and  C_32
    5  A    between atoms: C_11  and  O_13
    6  A    between atoms: C_11  and  C_30
    7  A    between atoms: C_12  and  C_14
    8  A    between atoms: O_13  and  C_31
    9  A    between atoms: C_16  and  C_35
   10  A    between atoms: C_18  and  C_32
   11  A    between atoms: C_32  and  C_36
                            x       y       z     vdW  Elec       q    Type
                         _______ _______ _______ _____ _____    ______ ____

>  <TORSDO>
F 11

$$$$
=
 OpenBabel11042418363D

 37 39  0  0  1  0  0  0  0  0999 V2000
  187.6040  176.4020  144.7870 C   0  0  0  0  0  0  0  0  0  0  0  0
  189.7450  174.5970  141.6080 C   0  0  1  0  0  3  0  0  0  0  0  0
  187.7720  176.0470  145.9870 O   0  0  0  0  0  0  0  0  0  0  0  0
  188.6410  175.6420  141.4550 C   0  0  0  0  0  2  0  0  0  0  0  0
  189.4890  173.8010  142.8870 C   0  0  0  0  0  2  0  0  0  0  0  0
  188.4680  175.8640  143.7680 N   0  0  0  0  0  0  0  0  0  0  0  0
  188.6880  176.5800  142.5730 N   0  0  0  0  0  2  0  0  0  0  0  0
  189.3400  174.7290  144.0930 C   0  0  2  0  0  3  0  0  0  0  0  0
  193.1190  176.5910  145.9360 C   0  0  0  0  0  0  0  0  0  0  0  0
  191.0050  176.4690  144.6030 C   0  0  0  0  0  3  0  0  0  0  0  0
  192.2810  177.0820  145.0220 C   0  0  0  0  0  3  0  0  0  0  0  0
  190.6670  175.1690  144.6470 C   0  0  0  0  0  0  0  0  0  0  0  0
  194.6040  177.4540  146.2680 Cl  0  0  0  0  0  0  0  0  0  0  0  0
  192.5710  174.1850  145.9360 C   0  0  0  0  0  3  0  0  0  0  0  0
  192.7810  175.4020  146.7730 C   0  0  0  0  0  2  0  0  0  0  0  0
  191.6040  174.0900  145.0230 C   0  0  0  0  0  3  0  0  0  0  0  0
  185.5250  177.0010  143.5380 C   0  0  0  0  0  3  0  0  0  0  0  0
  185.4200  179.5040  144.7210 C   0  0  0  0  0  3  0  0  0  0  0  0
  184.4580  179.1060  143.7910 C   0  0  0  0  0  3  0  0  0  0  0  0
  184.5300  177.8740  143.2230 N   0  0  0  0  0  0  0  0  0  0  0  0
  186.5100  177.3510  144.4720 C   0  0  0  0  0  0  0  0  0  0  0  0
  186.4480  178.6230  145.0570 C   0  0  0  0  0  3  0  0  0  0  0  0
  189.8050  173.6800  140.3800 C   0  0  2  0  0  3  0  0  0  0  0  0
  188.1110  172.5980  139.4240 C   0  0  0  0  0  1  0  0  0  0  0  0
  188.9420  172.5870  140.5460 O   0  0  0  0  0  0  0  0  0  0  0  0
  191.5130  172.9010  138.7620 N   0  0  0  0  0  1  0  0  0  0  0  0
  191.2450  173.1900  140.1630 C   0  0  1  0  0  3  0  0  0  0  0  0
  192.3140  174.1080  140.7600 C   0  0  0  0  0  2  0  0  0  0  0  0
  192.9190  172.3080  142.2100 O   0  0  0  0  0  0  0  0  0  0  0  0
  193.2440  173.4190  141.7170 C   0  0  0  0  0  0  0  0  0  0  0  0
  194.4560  174.0010  142.0960 O   0  0  0  0  0  0  0  0  0  0  0  0
  194.5470  175.0380  143.0670 C   0  0  2  0  0  3  0  0  0  0  0  0
  194.2030  176.2560  142.5060 F   0  0  0  0  0  0  0  0  0  0  0  0
  195.9390  175.1060  143.6080 C   0  0  0  0  0  0  0  0  0  0  0  0
  196.1810  174.6990  144.7320 O   0  0  0  0  0  0  0  0  0  0  0  0
  197.0340  175.6960  142.7850 C   0  0  0  0  0  2  0  0  0  0  0  0
  197.2160  177.0380  143.1270 O   0  0  0  0  0  1  0  0  0  0  0  0
  1  3  2  0  0  0  0
  2 23  1  6  0  0  0
  2  5  1  0  0  0  0
  4  2  1  0  0  0  0
  4  7  1  0  0  0  0
  5  8  1  0  0  0  0
  6  8  1  0  0  0  0
  6  1  1  0  0  0  0
  7  6  1  0  0  0  0
  8 12  1  6  0  0  0
  9 13  1  0  0  0  0
  9 15  1  0  0  0  0
 10 12  2  0  0  0  0
 10 11  1  0  0  0  0
 11  9  2  0  0  0  0
 12 16  1  0  0  0  0
 14 15  1  0  0  0  0
 16 14  2  0  0  0  0
 17 21  1  0  0  0  0
 18 22  1  0  0  0  0
 19 18  2  0  0  0  0
 20 17  2  0  0  0  0
 20 19  1  0  0  0  0
 21  1  1  0  0  0  0
 21 22  2  0  0  0  0
 23 25  1  1  0  0  0
 24 25  1  0  0  0  0
 27 26  1  6  0  0  0
 27 23  1  0  0  0  0
 27 28  1  0  0  0  0
 28 30  1  0  0  0  0
 30 31  1  0  0  0  0
 30 29  2  0  0  0  0
 31 32  1  0  0  0  0
 32 33  1  6  0  0  0
 32 34  1  0  0  0  0
 34 35  2  0  0  0  0
 36 37  1  0  0  0  0
 36 34  1  0  0  0  0
M  END
>  <MODEL>
3

>  <REMARK>
 VINA RESULT:      -6.7      3.386      7.499
  Name = 
  11 active torsions:
  status: ('A' for Active; 'I' for Inactive)
    1  A    between atoms: C_5  and  C_30
    2  A    between atoms: C_8  and  C_31
    3  A    between atoms: C_8  and  C_36
    4  A    between atoms: O_10  and  C_32
    5  A    between atoms: C_11  and  O_13
    6  A    between atoms: C_11  and  C_30
    7  A    between atoms: C_12  and  C_14
    8  A    between atoms: O_13  and  C_31
    9  A    between atoms: C_16  and  C_35
   10  A    between atoms: C_18  and  C_32
   11  A    between atoms: C_32  and  C_36
                            x       y       z     vdW  Elec       q    Type
                         _______ _______ _______ _____ _____    ______ ____

>  <TORSDO>
F 11

$$$$
=
 OpenBabel11042418363D

 37 39  0  0  1  0  0  0  0  0999 V2000
  187.5300  176.4550  144.8860 C   0  0  0  0  0  0  0  0  0  0  0  0
  189.7630  174.5960  141.8020 C   0  0  1  0  0  3  0  0  0  0  0  0
  187.6750  176.1320  146.0980 O   0  0  0  0  0  0  0  0  0  0  0  0
  188.6510  175.6240  141.5980 C   0  0  0  0  0  2  0  0  0  0  0  0
  189.4860  173.8290  143.0950 C   0  0  0  0  0  2  0  0  0  0  0  0
  188.4230  175.9020  143.9000 N   0  0  0  0  0  0  0  0  0  0  0  0
  188.6620  176.5910  142.6940 N   0  0  0  0  0  2  0  0  0  0  0  0
  189.2990  174.7860  144.2740 C   0  0  2  0  0  3  0  0  0  0  0  0
  193.2050  176.7340  145.7220 C   0  0  0  0  0  0  0  0  0  0  0  0
  191.3820  176.0910  144.1320 C   0  0  0  0  0  3  0  0  0  0  0  0
  192.7230  176.5990  144.4860 C   0  0  0  0  0  3  0  0  0  0  0  0
  190.6090  175.2540  144.8460 C   0  0  0  0  0  0  0  0  0  0  0  0
  194.8390  177.3250  145.9280 Cl  0  0  0  0  0  0  0  0  0  0  0  0
  191.8570  175.1180  147.0090 C   0  0  0  0  0  3  0  0  0  0  0  0
  192.3640  176.5180  146.9360 C   0  0  0  0  0  2  0  0  0  0  0  0
  191.0510  174.5880  146.0890 C   0  0  0  0  0  3  0  0  0  0  0  0
  185.4970  177.0150  143.5470 C   0  0  0  0  0  3  0  0  0  0  0  0
  185.2940  179.5160  144.7220 C   0  0  0  0  0  3  0  0  0  0  0  0
  184.3810  179.1000  143.7510 C   0  0  0  0  0  3  0  0  0  0  0  0
  184.5000  177.8690  143.1880 N   0  0  0  0  0  0  0  0  0  0  0  0
  186.4340  177.3840  144.5230 C   0  0  0  0  0  0  0  0  0  0  0  0
  186.3220  178.6540  145.1030 C   0  0  0  0  0  3  0  0  0  0  0  0
  189.8610  173.6500  140.5990 C   0  0  2  0  0  3  0  0  0  0  0  0
  188.1810  172.7430  139.4560 C   0  0  0  0  0  1  0  0  0  0  0  0
  188.8620  172.6670  140.6720 O   0  0  0  0  0  0  0  0  0  0  0  0
  191.5250  172.3850  139.2690 N   0  0  0  0  0  1  0  0  0  0  0  0
  191.2490  172.9940  140.5620 C   0  0  1  0  0  3  0  0  0  0  0  0
  192.3890  173.9160  141.0010 C   0  0  0  0  0  2  0  0  0  0  0  0
  194.4190  172.7660  141.5140 O   0  0  0  0  0  0  0  0  0  0  0  0
  193.3580  173.2780  141.9550 C   0  0  0  0  0  0  0  0  0  0  0  0
  193.0910  173.2150  143.3250 O   0  0  0  0  0  0  0  0  0  0  0  0
  193.0110  171.9880  144.0420 C   0  0  2  0  0  3  0  0  0  0  0  0
  191.7340  171.8060  144.5460 F   0  0  0  0  0  0  0  0  0  0  0  0
  194.0000  171.9910  145.1630 C   0  0  0  0  0  0  0  0  0  0  0  0
  194.2970  173.0360  145.7180 O   0  0  0  0  0  0  0  0  0  0  0  0
  194.6500  170.7180  145.5920 C   0  0  0  0  0  2  0  0  0  0  0  0
  193.9060  169.6270  145.1350 O   0  0  0  0  0  1  0  0  0  0  0  0
  1  3  2  0  0  0  0
  2 23  1  6  0  0  0
  2  5  1  0  0  0  0
  4  2  1  0  0  0  0
  4  7  1  0  0  0  0
  5  8  1  0  0  0  0
  6  8  1  0  0  0  0
  6  1  1  0  0  0  0
  7  6  1  0  0  0  0
  8 12  1  6  0  0  0
  9 13  1  0  0  0  0
  9 15  1  0  0  0  0
 10 11  1  0  0  0  0
 10 12  2  0  0  0  0
 11  9  2  0  0  0  0
 12 16  1  0  0  0  0
 15 14  1  0  0  0  0
 16 14  2  0  0  0  0
 17 21  1  0  0  0  0
 18 22  1  0  0  0  0
 19 18  2  0  0  0  0
 20 17  2  0  0  0  0
 20 19  1  0  0  0  0
 21  1  1  0  0  0  0
 21 22  2  0  0  0  0
 23 25  1  1  0  0  0
 24 25  1  0  0  0  0
 27 26  1  6  0  0  0
 27 23  1  0  0  0  0
 27 28  1  0  0  0  0
 28 30  1  0  0  0  0
 29 30  2  0  0  0  0
 30 31  1  0  0  0  0
 31 32  1  0  0  0  0
 32 33  1  1  0  0  0
 32 34  1  0  0  0  0
 34 36  1  0  0  0  0
 34 35  2  0  0  0  0
 37 36  1  0  0  0  0
M  END
>  <MODEL>
4

>  <REMARK>
 VINA RESULT:      -6.6      3.458      7.496
  Name = 
  11 active torsions:
  status: ('A' for Active; 'I' for Inactive)
    1  A    between atoms: C_5  and  C_30
    2  A    between atoms: C_8  and  C_31
    3  A    between atoms: C_8  and  C_36
    4  A    between atoms: O_10  and  C_32
    5  A    between atoms: C_11  and  O_13
    6  A    between atoms: C_11  and  C_30
    7  A    between atoms: C_12  and  C_14
    8  A    between atoms: O_13  and  C_31
    9  A    between atoms: C_16  and  C_35
   10  A    between atoms: C_18  and  C_32
   11  A    between atoms: C_32  and  C_36
                            x       y       z     vdW  Elec       q    Type
                         _______ _______ _______ _____ _____    ______ ____

>  <TORSDO>
F 11

$$$$
=
 OpenBabel11042418363D

 37 39  0  0  1  0  0  0  0  0999 V2000
  187.5560  177.2400  142.4900 C   0  0  0  0  0  0  0  0  0  0  0  0
  190.9250  176.1910  144.8350 C   0  0  1  0  0  3  0  0  0  0  0  0
  187.5660  177.1430  141.2310 O   0  0  0  0  0  0  0  0  0  0  0  0
  189.6310  176.8090  145.3640 C   0  0  0  0  0  2  0  0  0  0  0  0
  191.1290  176.6510  143.3920 C   0  0  0  0  0  2  0  0  0  0  0  0
  188.6690  176.7250  143.2440 N   0  0  0  0  0  0  0  0  0  0  0  0
  188.4940  176.3250  144.5840 N   0  0  0  0  0  2  0  0  0  0  0  0
  189.8980  176.3440  142.5370 C   0  0  2  0  0  3  0  0  0  0  0  0
  190.3750  171.9420  141.2980 C   0  0  0  0  0  0  0  0  0  0  0  0
  190.9950  174.3460  141.6070 C   0  0  0  0  0  3  0  0  0  0  0  0
  191.1510  172.9940  141.0350 C   0  0  0  0  0  3  0  0  0  0  0  0
  189.8670  174.9170  142.0660 C   0  0  0  0  0  0  0  0  0  0  0  0
  190.7070  170.4270  140.4880 Cl  0  0  0  0  0  0  0  0  0  0  0  0
  188.2690  172.9930  142.0370 C   0  0  0  0  0  3  0  0  0  0  0  0
  189.3130  171.9740  142.3460 C   0  0  0  0  0  2  0  0  0  0  0  0
  188.5300  174.2980  141.9530 C   0  0  0  0  0  3  0  0  0  0  0  0
  185.1000  177.6590  142.6700 C   0  0  0  0  0  3  0  0  0  0  0  0
  185.4550  179.4130  144.7850 C   0  0  0  0  0  3  0  0  0  0  0  0
  184.1820  179.1380  144.2840 C   0  0  0  0  0  3  0  0  0  0  0  0
  184.0310  178.2740  143.2460 N   0  0  0  0  0  0  0  0  0  0  0  0
  186.3980  177.8970  143.1430 C   0  0  0  0  0  0  0  0  0  0  0  0
  186.5630  178.7910  144.2080 C   0  0  0  0  0  3  0  0  0  0  0  0
  192.1160  176.5770  145.7200 C   0  0  2  0  0  3  0  0  0  0  0  0
  194.1850  177.3910  145.8280 C   0  0  0  0  0  1  0  0  0  0  0  0
  193.1260  177.1680  144.9450 O   0  0  0  0  0  0  0  0  0  0  0  0
  191.9250  175.0470  147.6600 N   0  0  0  0  0  1  0  0  0  0  0  0
  192.6600  175.3310  146.4360 C   0  0  1  0  0  3  0  0  0  0  0  0
  192.7620  174.0910  145.5440 C   0  0  0  0  0  2  0  0  0  0  0  0
  194.4230  172.3880  145.7640 O   0  0  0  0  0  0  0  0  0  0  0  0
  194.1590  173.5610  145.3930 C   0  0  0  0  0  0  0  0  0  0  0  0
  195.1840  174.3560  144.8740 O   0  0  0  0  0  0  0  0  0  0  0  0
  195.7000  174.1900  143.5580 C   0  0  2  0  0  3  0  0  0  0  0  0
  197.0680  173.9790  143.5990 F   0  0  0  0  0  0  0  0  0  0  0  0
  195.4020  175.4050  142.7400 C   0  0  0  0  0  0  0  0  0  0  0  0
  194.2720  175.6050  142.3260 O   0  0  0  0  0  0  0  0  0  0  0  0
  196.4910  176.3670  142.4020 C   0  0  0  0  0  2  0  0  0  0  0  0
  196.8160  177.1310  143.5250 O   0  0  0  0  0  1  0  0  0  0  0  0
  1 21  1  0  0  0  0
  1  6  1  0  0  0  0
  2  4  1  0  0  0  0
  2 23  1  1  0  0  0
  3  1  2  0  0  0  0
  5  2  1  0  0  0  0
  6  7  1  0  0  0  0
  7  4  1  0  0  0  0
  8 12  1  1  0  0  0
  8  6  1  0  0  0  0
  8  5  1  0  0  0  0
  9 15  1  0  0  0  0
 10 12  2  0  0  0  0
 11  9  2  0  0  0  0
 11 10  1  0  0  0  0
 13  9  1  0  0  0  0
 14 15  1  0  0  0  0
 16 14  2  0  0  0  0
 16 12  1  0  0  0  0
 17 21  2  0  0  0  0
 17 20  1  0  0  0  0
 19 18  1  0  0  0  0
 20 19  2  0  0  0  0
 21 22  1  0  0  0  0
 22 18  2  0  0  0  0
 23 25  1  6  0  0  0
 23 27  1  0  0  0  0
 25 24  1  0  0  0  0
 27 26  1  1  0  0  0
 28 27  1  0  0  0  0
 30 28  1  0  0  0  0
 30 29  2  0  0  0  0
 31 30  1  0  0  0  0
 32 33  1  1  0  0  0
 32 31  1  0  0  0  0
 34 32  1  0  0  0  0
 35 34  2  0  0  0  0
 36 34  1  0  0  0  0
 36 37  1  0  0  0  0
M  END
>  <MODEL>
5

>  <REMARK>
 VINA RESULT:      -6.5      3.582      8.492
  Name = 
  11 active torsions:
  status: ('A' for Active; 'I' for Inactive)
    1  A    between atoms: C_5  and  C_30
    2  A    between atoms: C_8  and  C_31
    3  A    between atoms: C_8  and  C_36
    4  A    between atoms: O_10  and  C_32
    5  A    between atoms: C_11  and  O_13
    6  A    between atoms: C_11  and  C_30
    7  A    between atoms: C_12  and  C_14
    8  A    between atoms: O_13  and  C_31
    9  A    between atoms: C_16  and  C_35
   10  A    between atoms: C_18  and  C_32
   11  A    between atoms: C_32  and  C_36
                            x       y       z     vdW  Elec       q    Type
                         _______ _______ _______ _____ _____    ______ ____

>  <TORSDO>
F 11

$$$$
=
 OpenBabel11042418363D

 37 39  0  0  1  0  0  0  0  0999 V2000
  192.9450  173.2160  142.0010 C   0  0  0  0  0  0  0  0  0  0  0  0
  191.6610  174.7650  145.7300 C   0  0  1  0  0  3  0  0  0  0  0  0
  194.1540  173.2690  141.6410 O   0  0  0  0  0  0  0  0  0  0  0  0
  190.7510  174.1890  144.6460 C   0  0  0  0  0  2  0  0  0  0  0  0
  192.9040  175.3520  145.0610 C   0  0  0  0  0  2  0  0  0  0  0  0
  192.5930  173.6160  143.3390 N   0  0  0  0  0  0  0  0  0  0  0  0
  191.4330  173.0990  143.9530 N   0  0  0  0  0  2  0  0  0  0  0  0
  193.5840  174.3200  144.1610 C   0  0  2  0  0  3  0  0  0  0  0  0
  196.1020  171.0070  146.1170 C   0  0  0  0  0  0  0  0  0  0  0  0
  194.1300  172.0730  145.0060 C   0  0  0  0  0  3  0  0  0  0  0  0
  194.8140  171.0110  145.7710 C   0  0  0  0  0  3  0  0  0  0  0  0
  194.4620  173.3740  144.9330 C   0  0  0  0  0  0  0  0  0  0  0  0
  196.7160  169.6650  147.0570 Cl  0  0  0  0  0  0  0  0  0  0  0  0
  196.6800  173.4050  146.0870 C   0  0  0  0  0  3  0  0  0  0  0  0
  197.0650  172.0390  145.6300 C   0  0  0  0  0  2  0  0  0  0  0  0
  195.5370  173.9930  145.7380 C   0  0  0  0  0  3  0  0  0  0  0  0
  191.8440  171.3950  140.6930 C   0  0  0  0  0  3  0  0  0  0  0  0
  190.1400  173.1890  139.4450 C   0  0  0  0  0  3  0  0  0  0  0  0
  190.0870  171.8250  139.1550 C   0  0  0  0  0  3  0  0  0  0  0  0
  190.9330  170.9630  139.7790 N   0  0  0  0  0  0  0  0  0  0  0  0
  191.9300  172.7550  141.0240 C   0  0  0  0  0  0  0  0  0  0  0  0
  191.0670  173.6510  140.3800 C   0  0  0  0  0  3  0  0  0  0  0  0
  190.9220  175.8190  146.5620 C   0  0  2  0  0  3  0  0  0  0  0  0
  191.5590  176.8960  148.4030 C   0  0  0  0  0  1  0  0  0  0  0  0
  191.1890  175.6360  147.9280 O   0  0  0  0  0  0  0  0  0  0  0  0
  188.7400  174.8970  147.2920 N   0  0  0  0  0  1  0  0  0  0  0  0
  189.4110  175.7250  146.3010 C   0  0  1  0  0  3  0  0  0  0  0  0
  188.7180  177.0810  146.1440 C   0  0  0  0  0  2  0  0  0  0  0  0
  189.6870  177.7630  144.0700 O   0  0  0  0  0  0  0  0  0  0  0  0
  188.6310  177.5620  144.7240 C   0  0  0  0  0  0  0  0  0  0  0  0
  187.3980  177.8190  144.1190 O   0  0  0  0  0  0  0  0  0  0  0  0
  186.1860  177.2080  144.5430 C   0  0  2  0  0  3  0  0  0  0  0  0
  185.9580  176.0420  143.8330 F   0  0  0  0  0  0  0  0  0  0  0  0
  185.0440  178.1520  144.3420 C   0  0  0  0  0  0  0  0  0  0  0  0
  184.6160  178.3670  143.2200 O   0  0  0  0  0  0  0  0  0  0  0  0
  184.4400  178.8570  145.5090 C   0  0  0  0  0  2  0  0  0  0  0  0
  184.1230  177.9350  146.5100 O   0  0  0  0  0  1  0  0  0  0  0  0
  1  6  1  0  0  0  0
  2 23  1  6  0  0  0
  3  1  2  0  0  0  0
  4  2  1  0  0  0  0
  5  2  1  0  0  0  0
  6  7  1  0  0  0  0
  6  8  1  0  0  0  0
  7  4  1  0  0  0  0
  8 12  1  1  0  0  0
  8  5  1  0  0  0  0
  9 13  1  0  0  0  0
 10 11  1  0  0  0  0
 11  9  2  0  0  0  0
 12 10  2  0  0  0  0
 12 16  1  0  0  0  0
 15 14  1  0  0  0  0
 15  9  1  0  0  0  0
 16 14  2  0  0  0  0
 17 21  1  0  0  0  0
 18 22  1  0  0  0  0
 19 18  2  0  0  0  0
 19 20  1  0  0  0  0
 20 17  2  0  0  0  0
 21  1  1  0  0  0  0
 22 21  2  0  0  0  0
 23 25  1  1  0  0  0
 25 24  1  0  0  0  0
 27 23  1  0  0  0  0
 27 26  1  1  0  0  0
 28 27  1  0  0  0  0
 29 30  2  0  0  0  0
 30 28  1  0  0  0  0
 31 32  1  0  0  0  0
 31 30  1  0  0  0  0
 32 33  1  6  0  0  0
 34 32  1  0  0  0  0
 34 36  1  0  0  0  0
 35 34  2  0  0  0  0
 36 37  1  0  0  0  0
M  END
>  <MODEL>
6

>  <REMARK>
 VINA RESULT:      -6.3      2.990      6.135
  Name = 
  11 active torsions:
  status: ('A' for Active; 'I' for Inactive)
    1  A    between atoms: C_5  and  C_30
    2  A    between atoms: C_8  and  C_31
    3  A    between atoms: C_8  and  C_36
    4  A    between atoms: O_10  and  C_32
    5  A    between atoms: C_11  and  O_13
    6  A    between atoms: C_11  and  C_30
    7  A    between atoms: C_12  and  C_14
    8  A    between atoms: O_13  and  C_31
    9  A    between atoms: C_16  and  C_35
   10  A    between atoms: C_18  and  C_32
   11  A    between atoms: C_32  and  C_36
                            x       y       z     vdW  Elec       q    Type
                         _______ _______ _______ _____ _____    ______ ____

>  <TORSDO>
F 11

$$$$
=
 OpenBabel11042418363D

 37 39  0  0  1  0  0  0  0  0999 V2000
  192.5930  173.4540  141.9370 C   0  0  0  0  0  0  0  0  0  0  0  0
  191.4590  174.8500  145.7730 C   0  0  1  0  0  3  0  0  0  0  0  0
  193.7750  173.5710  141.5100 O   0  0  0  0  0  0  0  0  0  0  0  0
  190.5140  174.2600  144.7260 C   0  0  0  0  0  2  0  0  0  0  0  0
  192.6330  175.5100  145.0510 C   0  0  0  0  0  2  0  0  0  0  0  0
  192.3010  173.8040  143.3020 N   0  0  0  0  0  0  0  0  0  0  0  0
  191.2020  173.2200  143.9660 N   0  0  0  0  0  2  0  0  0  0  0  0
  193.3060  174.5330  144.0860 C   0  0  2  0  0  3  0  0  0  0  0  0
  196.0730  171.2890  145.8080 C   0  0  0  0  0  0  0  0  0  0  0  0
  193.9940  172.2940  144.8440 C   0  0  0  0  0  3  0  0  0  0  0  0
  194.7680  171.2460  145.5410 C   0  0  0  0  0  3  0  0  0  0  0  0
  194.2670  173.6090  144.7810 C   0  0  0  0  0  0  0  0  0  0  0  0
  196.7990  169.9550  146.6770 Cl  0  0  0  0  0  0  0  0  0  0  0  0
  196.5490  173.7090  145.8000 C   0  0  0  0  0  3  0  0  0  0  0  0
  196.9610  172.3710  145.2890 C   0  0  0  0  0  2  0  0  0  0  0  0
  195.3630  174.2560  145.5340 C   0  0  0  0  0  3  0  0  0  0  0  0
  190.4630  173.8010  140.6780 C   0  0  0  0  0  3  0  0  0  0  0  0
  190.5640  171.2460  139.6110 C   0  0  0  0  0  3  0  0  0  0  0  0
  189.5120  172.1110  139.3080 C   0  0  0  0  0  3  0  0  0  0  0  0
  189.4830  173.3600  139.8440 N   0  0  0  0  0  0  0  0  0  0  0  0
  191.5450  172.9710  141.0060 C   0  0  0  0  0  0  0  0  0  0  0  0
  191.5790  171.6800  140.4640 C   0  0  0  0  0  3  0  0  0  0  0  0
  190.7220  175.8480  146.6740 C   0  0  2  0  0  3  0  0  0  0  0  0
  191.5600  176.9540  148.4140 C   0  0  0  0  0  1  0  0  0  0  0  0
  191.1270  175.6900  148.0070 O   0  0  0  0  0  0  0  0  0  0  0  0
  188.6840  174.8160  147.6330 N   0  0  0  0  0  1  0  0  0  0  0  0
  189.2050  175.6410  146.5530 C   0  0  1  0  0  3  0  0  0  0  0  0
  188.4060  176.9380  146.4040 C   0  0  0  0  0  2  0  0  0  0  0  0
  186.0590  176.8060  145.9730 O   0  0  0  0  0  0  0  0  0  0  0  0
  187.2200  176.8230  145.4890 C   0  0  0  0  0  0  0  0  0  0  0  0
  187.3810  176.7060  144.1060 O   0  0  0  0  0  0  0  0  0  0  0  0
  186.3170  176.3510  143.2310 C   0  0  2  0  0  3  0  0  0  0  0  0
  186.7000  175.3100  142.4020 F   0  0  0  0  0  0  0  0  0  0  0  0
  185.9220  177.5340  142.4050 C   0  0  0  0  0  0  0  0  0  0  0  0
  186.4090  177.7000  141.2990 O   0  0  0  0  0  0  0  0  0  0  0  0
  184.9510  178.5310  142.9410 C   0  0  0  0  0  2  0  0  0  0  0  0
  185.6330  179.5420  143.6200 O   0  0  0  0  0  1  0  0  0  0  0  0
  1  6  1  0  0  0  0
  2 23  1  6  0  0  0
  3  1  2  0  0  0  0
  4  2  1  0  0  0  0
  5  2  1  0  0  0  0
  6  7  1  0  0  0  0
  6  8  1  0  0  0  0
  7  4  1  0  0  0  0
  8 12  1  1  0  0  0
  8  5  1  0  0  0  0
  9 13  1  0  0  0  0
 10 11  1  0  0  0  0
 11  9  2  0  0  0  0
 12 10  2  0  0  0  0
 12 16  1  0  0  0  0
 15 14  1  0  0  0  0
 15  9  1  0  0  0  0
 16 14  2  0  0  0  0
 17 21  1  0  0  0  0
 18 22  1  0  0  0  0
 19 18  2  0  0  0  0
 19 20  1  0  0  0  0
 20 17  2  0  0  0  0
 21  1  1  0  0  0  0
 22 21  2  0  0  0  0
 23 25  1  1  0  0  0
 25 24  1  0  0  0  0
 27 23  1  0  0  0  0
 27 26  1  1  0  0  0
 28 27  1  0  0  0  0
 30 29  2  0  0  0  0
 30 28  1  0  0  0  0
 31 30  1  0  0  0  0
 32 33  1  6  0  0  0
 32 31  1  0  0  0  0
 34 36  1  0  0  0  0
 34 32  1  0  0  0  0
 35 34  2  0  0  0  0
 36 37  1  0  0  0  0
M  END
>  <MODEL>
7

>  <REMARK>
 VINA RESULT:      -6.3      2.897      6.176
  Name = 
  11 active torsions:
  status: ('A' for Active; 'I' for Inactive)
    1  A    between atoms: C_5  and  C_30
    2  A    between atoms: C_8  and  C_31
    3  A    between atoms: C_8  and  C_36
    4  A    between atoms: O_10  and  C_32
    5  A    between atoms: C_11  and  O_13
    6  A    between atoms: C_11  and  C_30
    7  A    between atoms: C_12  and  C_14
    8  A    between atoms: O_13  and  C_31
    9  A    between atoms: C_16  and  C_35
   10  A    between atoms: C_18  and  C_32
   11  A    between atoms: C_32  and  C_36
                            x       y       z     vdW  Elec       q    Type
                         _______ _______ _______ _____ _____    ______ ____

>  <TORSDO>
F 11

$$$$
=
 OpenBabel11042418363D

 37 39  0  0  1  0  0  0  0  0999 V2000
  189.9980  172.3840  142.8930 C   0  0  0  0  0  0  0  0  0  0  0  0
  192.8260  175.1880  144.3400 C   0  0  1  0  0  3  0  0  0  0  0  0
  189.1390  171.8560  143.6510 O   0  0  0  0  0  0  0  0  0  0  0  0
  192.7780  174.6270  142.9190 C   0  0  0  0  0  2  0  0  0  0  0  0
  192.2460  174.1450  145.2950 C   0  0  0  0  0  2  0  0  0  0  0  0
  190.8310  173.4420  143.4040 N   0  0  0  0  0  0  0  0  0  0  0  0
  191.3910  174.3920  142.5250 N   0  0  0  0  0  2  0  0  0  0  0  0
  190.8530  173.7030  144.8480 C   0  0  2  0  0  3  0  0  0  0  0  0
  187.8650  176.6830  146.6740 C   0  0  0  0  0  0  0  0  0  0  0  0
  189.3920  174.7040  146.5580 C   0  0  0  0  0  3  0  0  0  0  0  0
  188.3130  175.5210  147.1500 C   0  0  0  0  0  3  0  0  0  0  0  0
  189.7800  174.6680  145.2710 C   0  0  0  0  0  0  0  0  0  0  0  0
  186.5490  177.4820  147.5060 Cl  0  0  0  0  0  0  0  0  0  0  0  0
  188.4820  176.5670  144.2890 C   0  0  0  0  0  3  0  0  0  0  0  0
  188.5210  177.3870  145.5330 C   0  0  0  0  0  2  0  0  0  0  0  0
  189.0780  175.3790  144.1820 C   0  0  0  0  0  3  0  0  0  0  0  0
  189.3060  172.4040  140.4920 C   0  0  0  0  0  3  0  0  0  0  0  0
  191.1030  170.3930  139.8570 C   0  0  0  0  0  3  0  0  0  0  0  0
  190.2720  170.9490  138.8840 C   0  0  0  0  0  3  0  0  0  0  0  0
  189.3970  171.9340  139.2190 N   0  0  0  0  0  0  0  0  0  0  0  0
  190.1260  171.8830  141.5040 C   0  0  0  0  0  0  0  0  0  0  0  0
  191.0240  170.8620  141.1690 C   0  0  0  0  0  3  0  0  0  0  0  0
  194.2590  175.5700  144.7290 C   0  0  2  0  0  3  0  0  0  0  0  0
  194.3290  176.9970  146.4350 C   0  0  0  0  0  1  0  0  0  0  0  0
  194.3310  176.9360  145.0400 O   0  0  0  0  0  0  0  0  0  0  0  0
  195.7390  176.4400  142.9420 N   0  0  0  0  0  1  0  0  0  0  0  0
  195.2190  175.2380  143.5770 C   0  0  1  0  0  3  0  0  0  0  0  0
  196.3460  174.2750  143.9590 C   0  0  0  0  0  2  0  0  0  0  0  0
  195.6880  172.6580  142.3280 O   0  0  0  0  0  0  0  0  0  0  0  0
  196.1300  172.8650  143.4880 C   0  0  0  0  0  0  0  0  0  0  0  0
  196.3850  171.7740  144.3230 O   0  0  0  0  0  0  0  0  0  0  0  0
  195.8230  171.6490  145.6240 C   0  0  2  0  0  3  0  0  0  0  0  0
  196.7820  171.2120  146.5230 F   0  0  0  0  0  0  0  0  0  0  0  0
  194.6830  170.6830  145.5930 C   0  0  0  0  0  0  0  0  0  0  0  0
  193.6590  170.9600  144.9900 O   0  0  0  0  0  0  0  0  0  0  0  0
  194.7800  169.3850  146.3220 C   0  0  0  0  0  2  0  0  0  0  0  0
  195.3830  168.4250  145.5060 O   0  0  0  0  0  1  0  0  0  0  0  0
  1  6  1  0  0  0  0
  1  3  2  0  0  0  0
  2 23  1  1  0  0  0
  2  5  1  0  0  0  0
  4  2  1  0  0  0  0
  6  8  1  0  0  0  0
  7  4  1  0  0  0  0
  7  6  1  0  0  0  0
  8 12  1  6  0  0  0
  8  5  1  0  0  0  0
  9 11  2  0  0  0  0
  9 13  1  0  0  0  0
 10 11  1  0  0  0  0
 12 10  2  0  0  0  0
 14 15  1  0  0  0  0
 15  9  1  0  0  0  0
 16 14  2  0  0  0  0
 16 12  1  0  0  0  0
 17 21  1  0  0  0  0
 18 22  1  0  0  0  0
 19 20  1  0  0  0  0
 19 18  2  0  0  0  0
 20 17  2  0  0  0  0
 21  1  1  0  0  0  0
 22 21  2  0  0  0  0
 23 25  1  6  0  0  0
 25 24  1  0  0  0  0
 27 26  1  1  0  0  0
 27 28  1  0  0  0  0
 27 23  1  0  0  0  0
 29 30  2  0  0  0  0
 30 28  1  0  0  0  0
 30 31  1  0  0  0  0
 31 32  1  0  0  0  0
 32 33  1  1  0  0  0
 34 32  1  0  0  0  0
 34 36  1  0  0  0  0
 35 34  2  0  0  0  0
 37 36  1  0  0  0  0
M  END
>  <MODEL>
8

>  <REMARK>
 VINA RESULT:      -6.2      3.618      7.772
  Name = 
  11 active torsions:
  status: ('A' for Active; 'I' for Inactive)
    1  A    between atoms: C_5  and  C_30
    2  A    between atoms: C_8  and  C_31
    3  A    between atoms: C_8  and  C_36
    4  A    between atoms: O_10  and  C_32
    5  A    between atoms: C_11  and  O_13
    6  A    between atoms: C_11  and  C_30
    7  A    between atoms: C_12  and  C_14
    8  A    between atoms: O_13  and  C_31
    9  A    between atoms: C_16  and  C_35
   10  A    between atoms: C_18  and  C_32
   11  A    between atoms: C_32  and  C_36
                            x       y       z     vdW  Elec       q    Type
                         _______ _______ _______ _____ _____    ______ ____

>  <TORSDO>
F 11

$$$$
=
 OpenBabel11042418363D

 37 39  0  0  1  0  0  0  0  0999 V2000
  189.2580  173.0930  140.2620 C   0  0  0  0  0  0  0  0  0  0  0  0
  191.6070  174.5800  143.4590 C   0  0  1  0  0  3  0  0  0  0  0  0
  188.0090  172.9440  140.3680 O   0  0  0  0  0  0  0  0  0  0  0  0
  192.1450  174.0760  142.1210 C   0  0  0  0  0  2  0  0  0  0  0  0
  190.2990  173.8490  143.7650 C   0  0  0  0  0  2  0  0  0  0  0  0
  189.9810  173.7450  141.3220 N   0  0  0  0  0  0  0  0  0  0  0  0
  191.2010  174.3980  141.0530 N   0  0  0  0  0  2  0  0  0  0  0  0
  189.3100  173.9830  142.6060 C   0  0  2  0  0  3  0  0  0  0  0  0
  186.6260  177.6950  143.0070 C   0  0  0  0  0  0  0  0  0  0  0  0
  187.2260  175.2920  142.6470 C   0  0  0  0  0  3  0  0  0  0  0  0
  186.3260  176.4620  142.5970 C   0  0  0  0  0  3  0  0  0  0  0  0
  188.5700  175.2920  142.6310 C   0  0  0  0  0  0  0  0  0  0  0  0
  185.4260  178.9560  142.8310 Cl  0  0  0  0  0  0  0  0  0  0  0  0
  189.0890  177.7260  142.8720 C   0  0  0  0  0  3  0  0  0  0  0  0
  187.8970  178.0120  143.7220 C   0  0  0  0  0  2  0  0  0  0  0  0
  189.3890  176.5060  142.4280 C   0  0  0  0  0  3  0  0  0  0  0  0
  190.8790  171.5440  139.1600 C   0  0  0  0  0  3  0  0  0  0  0  0
  190.3630  172.6240  136.6620 C   0  0  0  0  0  3  0  0  0  0  0  0
  191.2870  171.5910  136.8220 C   0  0  0  0  0  3  0  0  0  0  0  0
  191.5250  171.0770  138.0570 N   0  0  0  0  0  0  0  0  0  0  0  0
  189.9360  172.5750  139.0490 C   0  0  0  0  0  0  0  0  0  0  0  0
  189.6900  173.1150  137.7810 C   0  0  0  0  0  3  0  0  0  0  0  0
  192.6380  174.3750  144.5760 C   0  0  2  0  0  3  0  0  0  0  0  0
  193.5640  172.4180  145.0930 C   0  0  0  0  0  1  0  0  0  0  0  0
  192.3950  173.1660  145.2460 O   0  0  0  0  0  0  0  0  0  0  0  0
  192.2010  176.7920  144.9060 N   0  0  0  0  0  1  0  0  0  0  0  0
  192.5790  175.5500  145.5640 C   0  0  1  0  0  3  0  0  0  0  0  0
  191.7150  175.2860  146.7990 C   0  0  0  0  0  2  0  0  0  0  0  0
  191.3350  177.1650  148.2240 O   0  0  0  0  0  0  0  0  0  0  0  0
  190.9220  176.4770  147.2560 C   0  0  0  0  0  0  0  0  0  0  0  0
  189.7140  176.8220  146.6430 O   0  0  0  0  0  0  0  0  0  0  0  0
  188.4950  176.1320  146.8940 C   0  0  2  0  0  3  0  0  0  0  0  0
  188.1560  175.3410  145.8100 F   0  0  0  0  0  0  0  0  0  0  0  0
  187.4020  177.1170  147.1610 C   0  0  0  0  0  0  0  0  0  0  0  0
  187.6640  178.2970  147.3220 O   0  0  0  0  0  0  0  0  0  0  0  0
  185.9860  176.6560  147.2580 C   0  0  0  0  0  2  0  0  0  0  0  0
  185.3590  176.7830  146.0170 O   0  0  0  0  0  1  0  0  0  0  0  0
  1  3  2  0  0  0  0
  1  6  1  0  0  0  0
  2  5  1  0  0  0  0
  2 23  1  1  0  0  0
  4  2  1  0  0  0  0
  6  8  1  0  0  0  0
  7  6  1  0  0  0  0
  7  4  1  0  0  0  0
  8 12  1  6  0  0  0
  8  5  1  0  0  0  0
  9 15  1  0  0  0  0
 11 10  1  0  0  0  0
 11  9  2  0  0  0  0
 12 10  2  0  0  0  0
 13  9  1  0  0  0  0
 14 15  1  0  0  0  0
 16 12  1  0  0  0  0
 16 14  2  0  0  0  0
 18 19  2  0  0  0  0
 18 22  1  0  0  0  0
 19 20  1  0  0  0  0
 20 17  2  0  0  0  0
 21 17  1  0  0  0  0
 21  1  1  0  0  0  0
 22 21  2  0  0  0  0
 23 25  1  1  0  0  0
 23 27  1  0  0  0  0
 24 25  1  0  0  0  0
 27 26  1  6  0  0  0
 27 28  1  0  0  0  0
 28 30  1  0  0  0  0
 30 29  2  0  0  0  0
 31 32  1  0  0  0  0
 31 30  1  0  0  0  0
 32 33  1  6  0  0  0
 32 34  1  0  0  0  0
 34 36  1  0  0  0  0
 34 35  2  0  0  0  0
 37 36  1  0  0  0  0
M  END
>  <MODEL>
9

>  <REMARK>
 VINA RESULT:      -6.1      2.744      6.008
  Name = 
  11 active torsions:
  status: ('A' for Active; 'I' for Inactive)
    1  A    between atoms: C_5  and  C_30
    2  A    between atoms: C_8  and  C_31
    3  A    between atoms: C_8  and  C_36
    4  A    between atoms: O_10  and  C_32
    5  A    between atoms: C_11  and  O_13
    6  A    between atoms: C_11  and  C_30
    7  A    between atoms: C_12  and  C_14
    8  A    between atoms: O_13  and  C_31
    9  A    between atoms: C_16  and  C_35
   10  A    between atoms: C_18  and  C_32
   11  A    between atoms: C_32  and  C_36
                            x       y       z     vdW  Elec       q    Type
                         _______ _______ _______ _____ _____    ______ ____

>  <TORSDO>
F 11

$$$$
