=
 OpenBabel11042416113D

 60 67  0  0  1  0  0  0  0  0999 V2000
  190.5110  171.1290  142.0550 C   0  0  0  0  0  3  0  0  0  0  0  0
  191.6400  169.7360  140.3840 O   0  0  0  0  0  0  0  0  0  0  0  0
  190.4380  172.1340  141.1710 C   0  0  0  0  0  0  0  0  0  0  0  0
  191.3180  169.8760  141.7770 C   0  0  1  0  0  3  0  0  0  0  0  0
  191.7550  172.2060  137.5990 C   0  0  2  0  0  3  0  0  0  0  0  0
  191.0950  171.9770  139.8590 C   0  0  0  0  0  0  0  0  0  0  0  0
  191.2000  172.9950  138.7870 C   0  0  0  0  0  2  0  0  0  0  0  0
  192.1590  170.8270  138.1350 C   0  0  0  0  0  2  0  0  0  0  0  0
  191.6240  170.8300  139.5110 C   0  0  0  0  0  0  0  0  0  0  0  0
  193.0600  174.7680  141.7060 O   0  0  0  0  0  0  0  0  0  0  0  0
  188.2500  173.2680  141.4490 C   0  0  0  0  0  2  0  0  0  0  0  0
  192.9090  175.1320  142.9410 C   0  0  2  0  0  3  0  0  0  0  0  0
  189.7100  175.5530  142.3230 N   0  0  0  0  0  0  0  0  0  0  0  0
  188.3060  175.6680  142.0700 C   0  0  0  0  0  0  0  0  0  0  0  0
  191.7980  174.4750  142.2470 N   0  0  0  0  0  0  0  0  0  0  0  0
  187.6160  174.6220  141.5980 C   0  0  0  0  0  3  0  0  0  0  0  0
  190.3800  174.4710  142.0710 C   0  0  0  0  0  0  0  0  0  0  0  0
  189.7140  173.3250  141.5050 N   0  0  0  0  0  0  0  0  0  0  0  0
  186.1990  176.9070  142.0650 N   0  0  0  0  0  2  0  0  0  0  0  0
  186.3930  178.4520  145.2790 C   0  0  0  0  0  3  0  0  0  0  0  0
  186.6480  177.8950  144.0980 C   0  0  0  0  0  0  0  0  0  0  0  0
  187.9890  177.6720  143.5530 C   0  0  0  0  0  2  0  0  0  0  0  0
  185.6880  177.4440  143.2250 O   0  0  0  0  0  0  0  0  0  0  0  0
  187.6610  177.0140  142.2050 C   0  0  1  0  0  3  0  0  0  0  0  0
  185.0460  178.6320  145.7520 C   0  0  0  0  0  0  0  0  0  0  0  0
  183.9170  178.7810  146.1490 C   0  0  0  0  0  3  0  0  0  0  0  0
  192.6610  176.6280  143.0130 C   0  0  0  0  0  2  0  0  0  0  0  0
  192.5650  177.0700  144.4710 C   0  0  0  0  0  2  0  0  0  0  0  0
  192.1620  175.9390  145.4270 C   0  0  2  0  0  3  0  0  0  0  0  0
  190.4930  175.1710  147.0970 C   0  0  0  0  0  2  0  0  0  0  0  0
  190.7380  176.1210  145.9370 C   0  0  0  0  0  3  0  0  0  0  0  0
  189.9430  174.8460  145.7250 C   0  0  0  0  0  2  0  0  0  0  0  0
  193.1160  175.7910  146.5740 C   0  0  0  0  0  3  0  0  0  0  0  0
  193.9870  176.7540  146.8710 C   0  0  0  0  0  2  0  0  0  0  0  0
  192.6050  169.9110  142.5890 C   0  0  0  0  0  2  0  0  0  0  0  0
  193.5740  170.9310  142.0140 C   0  0  0  0  0  2  0  0  0  0  0  0
  195.0060  170.5070  142.2850 C   0  0  0  0  0  2  0  0  0  0  0  0
  197.0830  173.5670  146.4110 C   0  0  0  0  0  1  0  0  0  0  0  0
  197.1450  171.5080  143.4050 S   0  0  0  0  0  0  0  0  0  0  0  0
  196.4170  173.6720  145.0520 C   0  0  1  0  0  0  0  0  0  0  0  0
  197.0960  175.5340  143.6330 C   0  0  1  0  0  3  0  0  0  0  0  0
  196.4120  173.9870  141.9250 O   0  0  0  0  0  1  0  0  0  0  0  0
  195.0760  172.9220  145.1020 C   0  0  0  0  0  2  0  0  0  0  0  0
  196.1490  175.1420  144.7510 C   0  0  0  0  0  2  0  0  0  0  0  0
  197.9410  170.5860  144.2840 O   0  0  0  0  0  0  0  0  0  0  0  0
  195.4580  171.0850  143.5430 N   0  0  0  0  0  0  0  0  0  0  0  0
  197.4090  174.2530  142.8740 C   0  0  2  0  0  3  0  0  0  0  0  0
  197.6320  171.3670  141.9890 O   0  0  0  0  0  0  0  0  0  0  0  0
  196.4930  176.6230  142.7620 C   0  0  0  0  0  1  0  0  0  0  0  0
  194.6840  172.2990  143.7670 C   0  0  0  0  0  2  0  0  0  0  0  0
  197.4060  173.1960  143.9740 C   0  0  2  0  0  3  0  0  0  0  0  0
  192.9510  172.9280  137.0020 C   0  0  0  0  0  2  0  0  0  0  0  0
  192.9490  174.4080  137.3840 C   0  0  2  0  0  3  0  0  0  0  0  0
  192.3810  175.3610  135.9340 P   0  0  0  0  0  0  0  0  0  0  0  0
  190.6920  175.3080  135.8460 O   0  0  0  0  0  1  0  0  0  0  0  0
  192.8280  176.7990  136.0650 O   0  0  0  0  0  1  0  0  0  0  0  0
  193.0310  174.7130  134.5140 O   0  0  0  0  0  0  0  0  0  0  0  0
  195.3510  174.8740  136.7010 C   0  0  0  0  0  1  0  0  0  0  0  0
  194.8830  174.0010  138.9460 C   0  0  0  0  0  1  0  0  0  0  0  0
  194.3410  174.8850  137.8380 C   0  0  0  0  0  3  0  0  0  0  0  0
  2  4  1  0  0  0  0
  3 18  1  0  0  0  0
  3  1  2  0  0  0  0
  4  1  1  0  0  0  0
  4 35  1  1  0  0  0
  5 52  1  1  0  0  0
  5  8  1  0  0  0  0
  5  7  1  0  0  0  0
  6  3  1  0  0  0  0
  7  6  1  0  0  0  0
  8  9  1  0  0  0  0
  9  6  2  0  0  0  0
  9  2  1  0  0  0  0
 10 15  1  0  0  0  0
 10 12  1  0  0  0  0
 11 18  1  0  0  0  0
 11 16  1  0  0  0  0
 12 27  1  6  0  0  0
 14 13  1  0  0  0  0
 15 12  1  0  0  0  0
 16 14  2  0  0  0  0
 17 15  1  0  0  0  0
 17 13  2  0  0  0  0
 18 17  1  0  0  0  0
 19 24  1  0  0  0  0
 19 23  1  0  0  0  0
 20 25  1  0  0  0  0
 21 20  2  0  0  0  0
 22 21  1  0  0  0  0
 23 21  1  0  0  0  0
 24 14  1  1  0  0  0
 24 22  1  0  0  0  0
 25 26  3  0  0  0  0
 27 28  1  0  0  0  0
 29 28  1  1  0  0  0
 29 31  1  0  0  0  0
 29 33  1  0  0  0  0
 31 30  1  0  0  0  0
 32 31  1  0  0  0  0
 32 30  1  0  0  0  0
 33 34  2  0  0  0  0
 36 37  1  0  0  0  0
 36 35  1  0  0  0  0
 37 46  1  0  0  0  0
 39 46  1  0  0  0  0
 39 45  2  0  0  0  0
 40 43  1  0  0  0  0
 40 38  1  1  0  0  0
 41 49  1  6  0  0  0
 41 44  1  0  0  0  0
 44 40  1  0  0  0  0
 46 50  1  0  0  0  0
 47 42  1  6  0  0  0
 47 41  1  0  0  0  0
 47 51  1  0  0  0  0
 48 39  2  0  0  0  0
 50 43  1  0  0  0  0
 51 39  1  6  0  0  0
 51 40  1  0  0  0  0
 53 52  1  6  0  0  0
 53 60  1  0  0  0  0
 54 56  1  0  0  0  0
 54 53  1  0  0  0  0
 55 54  1  0  0  0  0
 57 54  2  0  0  0  0
 58 60  1  0  0  0  0
 60 59  1  0  0  0  0
M  END
>  <MODEL>
1

>  <REMARK>
 VINA RESULT:      -7.3      0.000      0.000
  Name = 
  16 active torsions:
  status: ('A' for Active; 'I' for Inactive)
    1  A    between atoms: P_3  and  C_59
    2  A    between atoms: C_5  and  C_49
    3  A    between atoms: C_6  and  C_15
    4  A    between atoms: C_6  and  C_49
    5  A    between atoms: C_9  and  N_45
    6  A    between atoms: C_13  and  N_36
    7  A    between atoms: C_13  and  C_38
    8  A    between atoms: C_15  and  C_27
    9  A    between atoms: C_17  and  C_33
   10  A    between atoms: C_17  and  C_38
   11  A    between atoms: C_21  and  C_34
   12  A    between atoms: C_30  and  C_49
   13  A    between atoms: C_31  and  C_51
   14  A    between atoms: C_35  and  C_57
   15  A    between atoms: C_46  and  C_59
   16  A    between atoms: C_57  and  C_59
                            x       y       z     vdW  Elec       q    Type
                         _______ _______ _______ _____ _____    ______ ____

>  <TORSDO>
F 16

$$$$
=
 OpenBabel11042416113D

 60 67  0  0  1  0  0  0  0  0999 V2000
  195.7620  176.4520  143.6990 C   0  0  0  0  0  3  0  0  0  0  0  0
  197.8380  175.1700  143.4660 O   0  0  0  0  0  0  0  0  0  0  0  0
  195.2750  175.5170  144.5260 C   0  0  0  0  0  0  0  0  0  0  0  0
  197.0520  176.2460  142.9290 C   0  0  1  0  0  3  0  0  0  0  0  0
  196.9420  172.2760  145.6310 C   0  0  2  0  0  3  0  0  0  0  0  0
  196.0610  174.2880  144.7520 C   0  0  0  0  0  0  0  0  0  0  0  0
  195.6600  173.1090  145.5560 C   0  0  0  0  0  2  0  0  0  0  0  0
  197.9410  172.9160  144.6600 C   0  0  0  0  0  2  0  0  0  0  0  0
  197.2710  174.1710  144.2640 C   0  0  0  0  0  0  0  0  0  0  0  0
  192.9080  173.0490  142.9740 O   0  0  0  0  0  0  0  0  0  0  0  0
  193.9880  176.6950  146.2890 C   0  0  0  0  0  2  0  0  0  0  0  0
  191.9870  173.7790  142.4280 C   0  0  2  0  0  3  0  0  0  0  0  0
  191.6790  175.3560  145.2940 N   0  0  0  0  0  0  0  0  0  0  0  0
  191.5960  176.0870  146.5220 C   0  0  0  0  0  0  0  0  0  0  0  0
  192.8130  174.3480  143.4980 N   0  0  0  0  0  0  0  0  0  0  0  0
  192.6860  176.6690  147.0370 C   0  0  0  0  0  3  0  0  0  0  0  0
  192.7950  175.1840  144.6560 C   0  0  0  0  0  0  0  0  0  0  0  0
  194.0200  175.7310  145.1840 N   0  0  0  0  0  0  0  0  0  0  0  0
  189.9020  177.4240  147.6680 N   0  0  0  0  0  2  0  0  0  0  0  0
  186.9970  176.4090  145.8550 C   0  0  0  0  0  3  0  0  0  0  0  0
  188.1820  176.4850  146.4540 C   0  0  0  0  0  0  0  0  0  0  0  0
  189.1760  175.4100  146.4760 C   0  0  0  0  0  2  0  0  0  0  0  0
  188.6440  177.5870  147.1320 O   0  0  0  0  0  0  0  0  0  0  0  0
  190.3070  176.0610  147.2860 C   0  0  1  0  0  3  0  0  0  0  0  0
  186.0730  177.5130  145.8710 C   0  0  0  0  0  0  0  0  0  0  0  0
  185.3000  178.4390  145.8820 C   0  0  0  0  0  3  0  0  0  0  0  0
  190.6260  173.3900  142.9770 C   0  0  0  0  0  2  0  0  0  0  0  0
  190.0580  172.2200  142.1790 C   0  0  0  0  0  2  0  0  0  0  0  0
  190.6740  172.0770  140.7810 C   0  0  2  0  0  3  0  0  0  0  0  0
  189.6810  173.7120  139.1990 C   0  0  0  0  0  2  0  0  0  0  0  0
  189.6320  172.2750  139.6890 C   0  0  0  0  0  3  0  0  0  0  0  0
  188.5840  173.2740  140.1450 C   0  0  0  0  0  2  0  0  0  0  0  0
  191.3850  170.7690  140.5980 C   0  0  0  0  0  3  0  0  0  0  0  0
  192.7050  170.7230  140.4240 C   0  0  0  0  0  2  0  0  0  0  0  0
  196.7300  175.9550  141.4700 C   0  0  0  0  0  2  0  0  0  0  0  0
  196.9260  174.4790  141.1620 C   0  0  0  0  0  2  0  0  0  0  0  0
  197.0370  174.2640  139.6640 C   0  0  0  0  0  2  0  0  0  0  0  0
  192.4090  174.8960  136.6840 C   0  0  0  0  0  1  0  0  0  0  0  0
  195.9840  174.5290  137.2870 S   0  0  0  0  0  0  0  0  0  0  0  0
  193.2530  173.8510  137.3890 C   0  0  1  0  0  0  0  0  0  0  0  0
  193.3270  171.6320  136.3830 C   0  0  1  0  0  3  0  0  0  0  0  0
  195.4500  171.6070  137.5110 O   0  0  0  0  0  1  0  0  0  0  0  0
  193.4140  174.2610  138.8630 C   0  0  0  0  0  2  0  0  0  0  0  0
  192.5280  172.5120  137.3250 C   0  0  0  0  0  2  0  0  0  0  0  0
  196.0340  175.9000  136.6750 O   0  0  0  0  0  0  0  0  0  0  0  0
  195.8090  174.6990  139.0140 N   0  0  0  0  0  0  0  0  0  0  0  0
  194.7560  172.1550  136.4240 C   0  0  2  0  0  3  0  0  0  0  0  0
  197.2490  173.7950  136.9320 O   0  0  0  0  0  0  0  0  0  0  0  0
  193.2060  170.1680  136.7670 C   0  0  0  0  0  1  0  0  0  0  0  0
  194.7410  173.8180  139.4690 C   0  0  0  0  0  2  0  0  0  0  0  0
  194.5640  173.6580  136.6060 C   0  0  2  0  0  3  0  0  0  0  0  0
  196.6540  170.8360  145.2420 C   0  0  0  0  0  2  0  0  0  0  0  0
  195.5070  170.7540  144.2360 C   0  0  2  0  0  3  0  0  0  0  0  0
  194.2160  169.6730  144.9410 P   0  0  0  0  0  0  0  0  0  0  0  0
  192.6920  170.3500  144.6570 O   0  0  0  0  0  1  0  0  0  0  0  0
  194.2860  168.3100  144.2920 O   0  0  0  0  0  0  0  0  0  0  0  0
  194.4430  169.4990  146.6080 O   0  0  0  0  0  1  0  0  0  0  0  0
  197.3520  169.5700  142.9520 C   0  0  0  0  0  1  0  0  0  0  0  0
  196.0560  171.3360  141.8460 C   0  0  0  0  0  1  0  0  0  0  0  0
  195.9800  170.2190  142.8710 C   0  0  0  0  0  3  0  0  0  0  0  0
  1  3  2  0  0  0  0
  2  9  1  0  0  0  0
  3  6  1  0  0  0  0
  3 18  1  0  0  0  0
  4 35  1  6  0  0  0
  4  2  1  0  0  0  0
  4  1  1  0  0  0  0
  5 52  1  6  0  0  0
  6  7  1  0  0  0  0
  7  5  1  0  0  0  0
  8  5  1  0  0  0  0
  9  8  1  0  0  0  0
  9  6  2  0  0  0  0
 10 15  1  0  0  0  0
 11 16  1  0  0  0  0
 12 10  1  0  0  0  0
 12 27  1  1  0  0  0
 12 15  1  0  0  0  0
 13 14  1  0  0  0  0
 14 16  2  0  0  0  0
 15 17  1  0  0  0  0
 17 18  1  0  0  0  0
 17 13  2  0  0  0  0
 18 11  1  0  0  0  0
 20 25  1  0  0  0  0
 20 21  2  0  0  0  0
 21 22  1  0  0  0  0
 21 23  1  0  0  0  0
 22 24  1  0  0  0  0
 23 19  1  0  0  0  0
 24 14  1  6  0  0  0
 24 19  1  0  0  0  0
 25 26  3  0  0  0  0
 28 27  1  0  0  0  0
 29 33  1  1  0  0  0
 29 28  1  0  0  0  0
 30 31  1  0  0  0  0
 30 32  1  0  0  0  0
 31 32  1  0  0  0  0
 31 29  1  0  0  0  0
 34 33  2  0  0  0  0
 36 35  1  0  0  0  0
 37 36  1  0  0  0  0
 39 46  1  0  0  0  0
 40 38  1  6  0  0  0
 40 43  1  0  0  0  0
 41 47  1  0  0  0  0
 41 49  1  1  0  0  0
 41 44  1  0  0  0  0
 43 50  1  0  0  0  0
 44 40  1  0  0  0  0
 45 39  2  0  0  0  0
 46 50  1  0  0  0  0
 46 37  1  0  0  0  0
 47 51  1  0  0  0  0
 47 42  1  1  0  0  0
 48 39  2  0  0  0  0
 51 39  1  1  0  0  0
 51 40  1  0  0  0  0
 53 54  1  0  0  0  0
 53 52  1  1  0  0  0
 54 57  1  0  0  0  0
 55 54  1  0  0  0  0
 56 54  2  0  0  0  0
 59 60  1  0  0  0  0
 60 58  1  0  0  0  0
 60 53  1  0  0  0  0
M  END
>  <MODEL>
2

>  <REMARK>
 VINA RESULT:      -7.2      2.904      7.244
  Name = 
  16 active torsions:
  status: ('A' for Active; 'I' for Inactive)
    1  A    between atoms: P_3  and  C_59
    2  A    between atoms: C_5  and  C_49
    3  A    between atoms: C_6  and  C_15
    4  A    between atoms: C_6  and  C_49
    5  A    between atoms: C_9  and  N_45
    6  A    between atoms: C_13  and  N_36
    7  A    between atoms: C_13  and  C_38
    8  A    between atoms: C_15  and  C_27
    9  A    between atoms: C_17  and  C_33
   10  A    between atoms: C_17  and  C_38
   11  A    between atoms: C_21  and  C_34
   12  A    between atoms: C_30  and  C_49
   13  A    between atoms: C_31  and  C_51
   14  A    between atoms: C_35  and  C_57
   15  A    between atoms: C_46  and  C_59
   16  A    between atoms: C_57  and  C_59
                            x       y       z     vdW  Elec       q    Type
                         _______ _______ _______ _____ _____    ______ ____

>  <TORSDO>
F 16

$$$$
=
 OpenBabel11042416113D

 60 67  0  0  1  0  0  0  0  0999 V2000
  190.6650  170.9240  142.2250 C   0  0  0  0  0  3  0  0  0  0  0  0
  191.1410  170.3350  139.8940 O   0  0  0  0  0  0  0  0  0  0  0  0
  191.0520  172.1840  141.9880 C   0  0  0  0  0  0  0  0  0  0  0  0
  190.8700  169.8190  141.2070 C   0  0  1  0  0  3  0  0  0  0  0  0
  192.3750  173.6500  138.7320 C   0  0  2  0  0  3  0  0  0  0  0  0
  191.6170  172.5190  140.6660 C   0  0  0  0  0  0  0  0  0  0  0  0
  192.1760  173.8240  140.2390 C   0  0  0  0  0  2  0  0  0  0  0  0
  192.1390  172.1670  138.4230 C   0  0  0  0  0  2  0  0  0  0  0  0
  191.6160  171.6360  139.6980 C   0  0  0  0  0  0  0  0  0  0  0  0
  187.8310  173.9330  141.1720 O   0  0  0  0  0  0  0  0  0  0  0  0
  191.8810  173.2050  144.0920 C   0  0  0  0  0  2  0  0  0  0  0  0
  188.1740  175.1640  140.9560 C   0  0  2  0  0  3  0  0  0  0  0  0
  189.7850  175.1150  143.8190 N   0  0  0  0  0  0  0  0  0  0  0  0
  190.5430  175.0690  145.0320 C   0  0  0  0  0  0  0  0  0  0  0  0
  189.0640  174.2980  141.7360 N   0  0  0  0  0  0  0  0  0  0  0  0
  191.4890  174.1360  145.2030 C   0  0  0  0  0  3  0  0  0  0  0  0
  189.9370  174.2500  142.8640 C   0  0  0  0  0  0  0  0  0  0  0  0
  190.8950  173.1820  143.0060 N   0  0  0  0  0  0  0  0  0  0  0  0
  189.7440  177.2990  145.6320 N   0  0  0  0  0  2  0  0  0  0  0  0
  186.8100  176.4200  147.4700 C   0  0  0  0  0  3  0  0  0  0  0  0
  188.0090  176.4570  146.8960 C   0  0  0  0  0  0  0  0  0  0  0  0
  189.0180  175.4010  147.0020 C   0  0  0  0  0  2  0  0  0  0  0  0
  188.4680  177.4900  146.1150 O   0  0  0  0  0  0  0  0  0  0  0  0
  190.1570  175.9850  146.1540 C   0  0  1  0  0  3  0  0  0  0  0  0
  185.8670  177.4950  147.3140 C   0  0  0  0  0  0  0  0  0  0  0  0
  185.0740  178.3960  147.1850 C   0  0  0  0  0  3  0  0  0  0  0  0
  187.4060  176.0870  141.8850 C   0  0  0  0  0  2  0  0  0  0  0  0
  187.4890  177.5240  141.3780 C   0  0  0  0  0  2  0  0  0  0  0  0
  186.1780  178.3050  141.5370 C   0  0  2  0  0  3  0  0  0  0  0  0
  185.4860  179.5310  143.5820 C   0  0  0  0  0  2  0  0  0  0  0  0
  185.6080  178.1590  142.9420 C   0  0  0  0  0  3  0  0  0  0  0  0
  186.6290  178.6160  143.9680 C   0  0  0  0  0  2  0  0  0  0  0  0
  185.1540  177.9210  140.5120 C   0  0  0  0  0  3  0  0  0  0  0  0
  183.8950  178.3480  140.6050 C   0  0  0  0  0  2  0  0  0  0  0  0
  192.0260  168.9310  141.6470 C   0  0  0  0  0  2  0  0  0  0  0  0
  192.2640  169.0650  143.1420 C   0  0  0  0  0  2  0  0  0  0  0  0
  193.4100  168.1680  143.5750 C   0  0  0  0  0  2  0  0  0  0  0  0
  196.9140  171.6800  146.0390 C   0  0  0  0  0  1  0  0  0  0  0  0
  195.8280  169.1570  143.6460 S   0  0  0  0  0  0  0  0  0  0  0  0
  195.7950  171.6160  145.0170 C   0  0  1  0  0  0  0  0  0  0  0  0
  195.9350  173.1560  143.1320 C   0  0  1  0  0  3  0  0  0  0  0  0
  194.6430  171.4100  142.1000 O   0  0  0  0  0  1  0  0  0  0  0  0
  194.5550  170.9990  145.6830 C   0  0  0  0  0  2  0  0  0  0  0  0
  195.4610  173.0330  144.5670 C   0  0  0  0  0  2  0  0  0  0  0  0
  196.8760  168.3290  144.3330 O   0  0  0  0  0  0  0  0  0  0  0  0
  194.3030  168.9040  144.4560 N   0  0  0  0  0  0  0  0  0  0  0  0
  195.9240  171.7450  142.5600 C   0  0  2  0  0  3  0  0  0  0  0  0
  195.7560  168.7440  142.2010 O   0  0  0  0  0  0  0  0  0  0  0  0
  195.0730  174.1320  142.3520 C   0  0  0  0  0  1  0  0  0  0  0  0
  193.6870  170.1990  144.7160 C   0  0  0  0  0  2  0  0  0  0  0  0
  196.3090  170.8870  143.7620 C   0  0  2  0  0  3  0  0  0  0  0  0
  193.7820  174.0700  138.3380 C   0  0  0  0  0  2  0  0  0  0  0  0
  194.1070  173.6360  136.9090 C   0  0  2  0  0  3  0  0  0  0  0  0
  195.9000  173.3080  136.8160 P   0  0  0  0  0  0  0  0  0  0  0  0
  196.5900  174.2640  135.6040 O   0  0  0  0  0  0  0  0  0  0  0  0
  196.5460  173.6400  138.1420 O   0  0  0  0  0  1  0  0  0  0  0  0
  196.1810  171.6770  136.4650 O   0  0  0  0  0  1  0  0  0  0  0  0
  193.4120  176.0500  136.5280 C   0  0  0  0  0  1  0  0  0  0  0  0
  192.4450  174.2810  135.1280 C   0  0  0  0  0  1  0  0  0  0  0  0
  193.6950  174.7040  135.8790 C   0  0  0  0  0  3  0  0  0  0  0  0
  2  4  1  0  0  0  0
  3  1  2  0  0  0  0
  3 18  1  0  0  0  0
  4 35  1  1  0  0  0
  4  1  1  0  0  0  0
  5 52  1  1  0  0  0
  5  7  1  0  0  0  0
  6  3  1  0  0  0  0
  7  6  1  0  0  0  0
  8  5  1  0  0  0  0
  8  9  1  0  0  0  0
  9  2  1  0  0  0  0
  9  6  2  0  0  0  0
 10 15  1  0  0  0  0
 11 16  1  0  0  0  0
 12 10  1  0  0  0  0
 12 15  1  0  0  0  0
 12 27  1  1  0  0  0
 13 14  1  0  0  0  0
 14 16  2  0  0  0  0
 15 17  1  0  0  0  0
 17 18  1  0  0  0  0
 17 13  2  0  0  0  0
 18 11  1  0  0  0  0
 19 23  1  0  0  0  0
 19 24  1  0  0  0  0
 21 22  1  0  0  0  0
 21 20  2  0  0  0  0
 23 21  1  0  0  0  0
 24 14  1  6  0  0  0
 24 22  1  0  0  0  0
 25 20  1  0  0  0  0
 26 25  3  0  0  0  0
 28 29  1  0  0  0  0
 28 27  1  0  0  0  0
 29 33  1  6  0  0  0
 29 31  1  0  0  0  0
 30 32  1  0  0  0  0
 31 30  1  0  0  0  0
 31 32  1  0  0  0  0
 33 34  2  0  0  0  0
 35 36  1  0  0  0  0
 36 37  1  0  0  0  0
 37 46  1  0  0  0  0
 39 45  2  0  0  0  0
 39 46  1  0  0  0  0
 40 43  1  0  0  0  0
 40 38  1  1  0  0  0
 41 49  1  6  0  0  0
 41 44  1  0  0  0  0
 44 40  1  0  0  0  0
 46 50  1  0  0  0  0
 47 42  1  1  0  0  0
 47 41  1  0  0  0  0
 47 51  1  0  0  0  0
 48 39  2  0  0  0  0
 50 43  1  0  0  0  0
 51 39  1  6  0  0  0
 51 40  1  0  0  0  0
 53 52  1  1  0  0  0
 54 53  1  0  0  0  0
 54 56  1  0  0  0  0
 55 54  2  0  0  0  0
 57 54  1  0  0  0  0
 59 60  1  0  0  0  0
 60 58  1  0  0  0  0
 60 53  1  0  0  0  0
M  END
>  <MODEL>
3

>  <REMARK>
 VINA RESULT:      -7.0      2.288      4.091
  Name = 
  16 active torsions:
  status: ('A' for Active; 'I' for Inactive)
    1  A    between atoms: P_3  and  C_59
    2  A    between atoms: C_5  and  C_49
    3  A    between atoms: C_6  and  C_15
    4  A    between atoms: C_6  and  C_49
    5  A    between atoms: C_9  and  N_45
    6  A    between atoms: C_13  and  N_36
    7  A    between atoms: C_13  and  C_38
    8  A    between atoms: C_15  and  C_27
    9  A    between atoms: C_17  and  C_33
   10  A    between atoms: C_17  and  C_38
   11  A    between atoms: C_21  and  C_34
   12  A    between atoms: C_30  and  C_49
   13  A    between atoms: C_31  and  C_51
   14  A    between atoms: C_35  and  C_57
   15  A    between atoms: C_46  and  C_59
   16  A    between atoms: C_57  and  C_59
                            x       y       z     vdW  Elec       q    Type
                         _______ _______ _______ _____ _____    ______ ____

>  <TORSDO>
F 16

$$$$
=
 OpenBabel11042416113D

 60 67  0  0  1  0  0  0  0  0999 V2000
  190.0700  171.3550  141.6420 C   0  0  0  0  0  3  0  0  0  0  0  0
  191.5240  169.9090  140.3000 O   0  0  0  0  0  0  0  0  0  0  0  0
  190.1500  172.3090  140.7040 C   0  0  0  0  0  0  0  0  0  0  0  0
  190.9380  170.1130  141.5960 C   0  0  1  0  0  3  0  0  0  0  0  0
  192.1260  172.2280  137.4490 C   0  0  2  0  0  3  0  0  0  0  0  0
  191.0490  172.1010  139.5520 C   0  0  0  0  0  0  0  0  0  0  0  0
  191.3390  173.0630  138.4620 C   0  0  0  0  0  2  0  0  0  0  0  0
  192.4450  170.8920  138.1320 C   0  0  0  0  0  2  0  0  0  0  0  0
  191.6550  170.9530  139.3780 C   0  0  0  0  0  0  0  0  0  0  0  0
  191.1830  173.8700  143.9590 O   0  0  0  0  0  0  0  0  0  0  0  0
  188.4870  173.8480  139.6950 C   0  0  0  0  0  2  0  0  0  0  0  0
  190.1020  173.8770  144.6750 C   0  0  2  0  0  3  0  0  0  0  0  0
  188.5550  175.2960  142.1470 N   0  0  0  0  0  0  0  0  0  0  0  0
  187.8680  175.8500  141.0200 C   0  0  0  0  0  0  0  0  0  0  0  0
  189.9950  173.7760  143.2160 N   0  0  0  0  0  0  0  0  0  0  0  0
  187.8790  175.2130  139.8420 C   0  0  0  0  0  3  0  0  0  0  0  0
  189.2470  174.2010  142.0760 C   0  0  0  0  0  0  0  0  0  0  0  0
  189.3540  173.4950  140.8240 N   0  0  0  0  0  0  0  0  0  0  0  0
  186.5150  177.5690  139.9320 N   0  0  0  0  0  2  0  0  0  0  0  0
  183.9350  177.9480  142.3730 C   0  0  0  0  0  3  0  0  0  0  0  0
  185.0760  177.7270  141.7260 C   0  0  0  0  0  0  0  0  0  0  0  0
  186.3280  177.3150  142.3620 C   0  0  0  0  0  2  0  0  0  0  0  0
  185.2380  177.8500  140.3670 O   0  0  0  0  0  0  0  0  0  0  0  0
  187.2650  177.2160  141.1490 C   0  0  1  0  0  3  0  0  0  0  0  0
  182.7400  178.3460  141.6770 C   0  0  0  0  0  0  0  0  0  0  0  0
  181.7370  178.6780  141.0920 C   0  0  0  0  0  3  0  0  0  0  0  0
  189.7850  175.2940  145.1190 C   0  0  0  0  0  2  0  0  0  0  0  0
  188.9860  175.2650  146.4190 C   0  0  0  0  0  2  0  0  0  0  0  0
  188.7180  176.6590  147.0020 C   0  0  2  0  0  3  0  0  0  0  0  0
  186.5800  177.9210  146.9750 C   0  0  0  0  0  2  0  0  0  0  0  0
  187.7520  177.4520  146.1310 C   0  0  0  0  0  3  0  0  0  0  0  0
  186.4170  176.7360  146.0490 C   0  0  0  0  0  2  0  0  0  0  0  0
  189.9790  177.4370  147.2320 C   0  0  0  0  0  3  0  0  0  0  0  0
  191.0190  176.8890  147.8580 C   0  0  0  0  0  2  0  0  0  0  0  0
  192.0450  170.2290  142.6350 C   0  0  0  0  0  2  0  0  0  0  0  0
  192.9060  171.4520  142.3660 C   0  0  0  0  0  2  0  0  0  0  0  0
  194.3560  171.0420  142.1740 C   0  0  0  0  0  2  0  0  0  0  0  0
  196.9960  173.5620  146.3420 C   0  0  0  0  0  1  0  0  0  0  0  0
  196.2940  172.6440  142.8870 S   0  0  0  0  0  0  0  0  0  0  0  0
  195.7680  173.6670  145.4560 C   0  0  1  0  0  0  0  0  0  0  0  0
  195.0180  175.9120  144.8750 C   0  0  1  0  0  3  0  0  0  0  0  0
  194.1620  174.7220  142.9700 O   0  0  0  0  0  1  0  0  0  0  0  0
  194.9550  172.3690  145.5870 C   0  0  0  0  0  2  0  0  0  0  0  0
  194.9160  174.8350  145.9380 C   0  0  0  0  0  2  0  0  0  0  0  0
  197.6690  172.0450  142.9680 O   0  0  0  0  0  0  0  0  0  0  0  0
  195.1320  171.4250  143.3440 N   0  0  0  0  0  0  0  0  0  0  0  0
  195.3370  175.1930  143.5720 C   0  0  2  0  0  3  0  0  0  0  0  0
  196.0580  173.1270  141.4810 O   0  0  0  0  0  0  0  0  0  0  0  0
  193.7480  176.7430  144.8140 C   0  0  0  0  0  1  0  0  0  0  0  0
  194.2050  171.9970  144.3120 C   0  0  0  0  0  2  0  0  0  0  0  0
  196.2140  174.0320  144.0290 C   0  0  2  0  0  3  0  0  0  0  0  0
  193.4000  172.9520  137.0510 C   0  0  0  0  0  2  0  0  0  0  0  0
  193.3060  174.4460  137.3590 C   0  0  2  0  0  3  0  0  0  0  0  0
  192.9790  175.3240  135.7930 P   0  0  0  0  0  0  0  0  0  0  0  0
  194.0610  174.7900  134.6060 O   0  0  0  0  0  0  0  0  0  0  0  0
  191.5650  175.0440  135.3400 O   0  0  0  0  0  1  0  0  0  0  0  0
  193.1660  176.9910  136.0040 O   0  0  0  0  0  1  0  0  0  0  0  0
  195.7390  173.9810  137.9280 C   0  0  0  0  0  1  0  0  0  0  0  0
  194.3610  175.2770  139.4920 C   0  0  0  0  0  1  0  0  0  0  0  0
  194.5920  174.9750  138.0220 C   0  0  0  0  0  3  0  0  0  0  0  0
  2  4  1  0  0  0  0
  3 18  1  0  0  0  0
  3  1  2  0  0  0  0
  4  1  1  0  0  0  0
  4 35  1  1  0  0  0
  5 52  1  1  0  0  0
  5  8  1  0  0  0  0
  5  7  1  0  0  0  0
  6  3  1  0  0  0  0
  7  6  1  0  0  0  0
  8  9  1  0  0  0  0
  9  6  2  0  0  0  0
  9  2  1  0  0  0  0
 10 12  1  0  0  0  0
 11 16  1  0  0  0  0
 11 18  1  0  0  0  0
 12 27  1  6  0  0  0
 14 13  1  0  0  0  0
 15 10  1  0  0  0  0
 15 12  1  0  0  0  0
 16 14  2  0  0  0  0
 17 13  2  0  0  0  0
 17 15  1  0  0  0  0
 18 17  1  0  0  0  0
 19 23  1  0  0  0  0
 19 24  1  0  0  0  0
 21 22  1  0  0  0  0
 21 20  2  0  0  0  0
 23 21  1  0  0  0  0
 24 14  1  6  0  0  0
 24 22  1  0  0  0  0
 25 20  1  0  0  0  0
 26 25  3  0  0  0  0
 27 28  1  0  0  0  0
 29 28  1  6  0  0  0
 29 33  1  0  0  0  0
 31 30  1  0  0  0  0
 31 29  1  0  0  0  0
 32 31  1  0  0  0  0
 32 30  1  0  0  0  0
 33 34  2  0  0  0  0
 36 35  1  0  0  0  0
 37 36  1  0  0  0  0
 37 46  1  0  0  0  0
 39 45  2  0  0  0  0
 39 46  1  0  0  0  0
 40 43  1  0  0  0  0
 40 44  1  0  0  0  0
 40 38  1  1  0  0  0
 41 49  1  6  0  0  0
 41 44  1  0  0  0  0
 46 50  1  0  0  0  0
 47 42  1  1  0  0  0
 47 51  1  0  0  0  0
 47 41  1  0  0  0  0
 48 39  2  0  0  0  0
 50 43  1  0  0  0  0
 51 39  1  6  0  0  0
 51 40  1  0  0  0  0
 53 52  1  6  0  0  0
 53 60  1  0  0  0  0
 54 57  1  0  0  0  0
 54 53  1  0  0  0  0
 55 54  2  0  0  0  0
 56 54  1  0  0  0  0
 58 60  1  0  0  0  0
 60 59  1  0  0  0  0
M  END
>  <MODEL>
4

>  <REMARK>
 VINA RESULT:      -6.9      1.675      2.375
  Name = 
  16 active torsions:
  status: ('A' for Active; 'I' for Inactive)
    1  A    between atoms: P_3  and  C_59
    2  A    between atoms: C_5  and  C_49
    3  A    between atoms: C_6  and  C_15
    4  A    between atoms: C_6  and  C_49
    5  A    between atoms: C_9  and  N_45
    6  A    between atoms: C_13  and  N_36
    7  A    between atoms: C_13  and  C_38
    8  A    between atoms: C_15  and  C_27
    9  A    between atoms: C_17  and  C_33
   10  A    between atoms: C_17  and  C_38
   11  A    between atoms: C_21  and  C_34
   12  A    between atoms: C_30  and  C_49
   13  A    between atoms: C_31  and  C_51
   14  A    between atoms: C_35  and  C_57
   15  A    between atoms: C_46  and  C_59
   16  A    between atoms: C_57  and  C_59
                            x       y       z     vdW  Elec       q    Type
                         _______ _______ _______ _____ _____    ______ ____

>  <TORSDO>
F 16

$$$$
=
 OpenBabel11042416113D

 60 67  0  0  1  0  0  0  0  0999 V2000
  194.0580  176.3200  142.7520 C   0  0  0  0  0  3  0  0  0  0  0  0
  195.7450  175.8840  144.4760 O   0  0  0  0  0  0  0  0  0  0  0  0
  193.4130  175.1970  143.0950 C   0  0  0  0  0  0  0  0  0  0  0  0
  195.4270  176.6600  143.3090 C   0  0  1  0  0  3  0  0  0  0  0  0
  194.3920  172.6630  145.7640 C   0  0  2  0  0  3  0  0  0  0  0  0
  194.0190  174.3100  144.1070 C   0  0  0  0  0  0  0  0  0  0  0  0
  193.5110  172.9920  144.5570 C   0  0  0  0  0  2  0  0  0  0  0  0
  195.5140  173.7070  145.7890 C   0  0  0  0  0  2  0  0  0  0  0  0
  195.0970  174.6760  144.7550 C   0  0  0  0  0  0  0  0  0  0  0  0
  191.0430  177.8130  144.3740 O   0  0  0  0  0  0  0  0  0  0  0  0
  192.1100  173.7930  141.5190 C   0  0  0  0  0  2  0  0  0  0  0  0
  190.1420  177.1470  145.0250 C   0  0  2  0  0  3  0  0  0  0  0  0
  189.8020  175.2210  142.3840 N   0  0  0  0  0  0  0  0  0  0  0  0
  189.7060  174.3410  141.2590 C   0  0  0  0  0  0  0  0  0  0  0  0
  190.9550  176.4580  144.0170 N   0  0  0  0  0  0  0  0  0  0  0  0
  190.7950  173.7110  140.7990 C   0  0  0  0  0  3  0  0  0  0  0  0
  190.9280  175.4840  142.9740 C   0  0  0  0  0  0  0  0  0  0  0  0
  192.1490  174.8880  142.4940 N   0  0  0  0  0  0  0  0  0  0  0  0
  187.7710  175.5840  140.4340 N   0  0  0  0  0  2  0  0  0  0  0  0
  187.9490  174.7530  136.9640 C   0  0  0  0  0  3  0  0  0  0  0  0
  188.0230  174.7680  138.2920 C   0  0  0  0  0  0  0  0  0  0  0  0
  188.5810  173.6880  139.1090 C   0  0  0  0  0  2  0  0  0  0  0  0
  187.5890  175.8020  139.0860 O   0  0  0  0  0  0  0  0  0  0  0  0
  188.4030  174.2570  140.5240 C   0  0  1  0  0  3  0  0  0  0  0  0
  187.3920  175.8570  136.2290 C   0  0  0  0  0  0  0  0  0  0  0  0
  186.9230  176.7810  135.6090 C   0  0  0  0  0  3  0  0  0  0  0  0
  188.7650  177.4490  144.4590 C   0  0  0  0  0  2  0  0  0  0  0  0
  187.6890  176.8730  145.3750 C   0  0  0  0  0  2  0  0  0  0  0  0
  186.3560  177.6300  145.3010 C   0  0  2  0  0  3  0  0  0  0  0  0
  184.8170  178.7170  143.6840 C   0  0  0  0  0  2  0  0  0  0  0  0
  186.2750  178.4980  144.0530 C   0  0  0  0  0  3  0  0  0  0  0  0
  185.6490  177.7140  142.9140 C   0  0  0  0  0  2  0  0  0  0  0  0
  186.0930  178.4500  146.5290 C   0  0  0  0  0  3  0  0  0  0  0  0
  184.9560  178.3210  147.2110 C   0  0  0  0  0  2  0  0  0  0  0  0
  196.4840  176.4180  142.2410 C   0  0  0  0  0  2  0  0  0  0  0  0
  195.8560  176.4210  140.8560 C   0  0  0  0  0  2  0  0  0  0  0  0
  196.4910  175.3490  139.9890 C   0  0  0  0  0  2  0  0  0  0  0  0
  193.4330  173.8040  135.6350 C   0  0  0  0  0  1  0  0  0  0  0  0
  196.2900  173.7970  137.8960 S   0  0  0  0  0  0  0  0  0  0  0  0
  193.5880  173.5990  137.1300 C   0  0  1  0  0  0  0  0  0  0  0  0
  193.0610  171.3830  137.9990 C   0  0  1  0  0  3  0  0  0  0  0  0
  194.6290  172.0860  139.6800 O   0  0  0  0  0  1  0  0  0  0  0  0
  193.5000  174.9670  137.8260 C   0  0  0  0  0  2  0  0  0  0  0  0
  192.4460  172.7180  137.6250 C   0  0  0  0  0  2  0  0  0  0  0  0
  197.0260  174.2310  136.6610 O   0  0  0  0  0  0  0  0  0  0  0  0
  195.7460  175.2200  138.7450 N   0  0  0  0  0  0  0  0  0  0  0  0
  194.5150  171.6680  138.3470 C   0  0  2  0  0  3  0  0  0  0  0  0
  197.2170  172.9710  138.7470 O   0  0  0  0  0  0  0  0  0  0  0  0
  192.2860  170.7220  139.1260 C   0  0  0  0  0  1  0  0  0  0  0  0
  194.3410  175.0520  139.0950 C   0  0  0  0  0  2  0  0  0  0  0  0
  194.8780  172.8010  137.3920 C   0  0  2  0  0  3  0  0  0  0  0  0
  194.9590  171.2590  145.6310 C   0  0  0  0  0  2  0  0  0  0  0  0
  195.1690  170.8850  144.1650 C   0  0  2  0  0  3  0  0  0  0  0  0
  194.2870  169.3180  143.8530 P   0  0  0  0  0  0  0  0  0  0  0  0
  194.2140  169.0290  142.1870 O   0  0  0  0  0  0  0  0  0  0  0  0
  195.0200  168.1800  144.5250 O   0  0  0  0  0  1  0  0  0  0  0  0
  192.7140  169.3960  144.4700 O   0  0  0  0  0  1  0  0  0  0  0  0
  197.5410  170.7110  145.0600 C   0  0  0  0  0  1  0  0  0  0  0  0
  197.1300  171.9050  142.9550 C   0  0  0  0  0  1  0  0  0  0  0  0
  196.6630  170.7470  143.8180 C   0  0  0  0  0  3  0  0  0  0  0  0
  1  3  2  0  0  0  0
  1  4  1  0  0  0  0
  2  9  1  0  0  0  0
  3  6  1  0  0  0  0
  4 35  1  6  0  0  0
  4  2  1  0  0  0  0
  5 52  1  6  0  0  0
  5  8  1  0  0  0  0
  6  7  1  0  0  0  0
  6  9  2  0  0  0  0
  7  5  1  0  0  0  0
  9  8  1  0  0  0  0
 10 12  1  0  0  0  0
 11 18  1  0  0  0  0
 12 27  1  6  0  0  0
 13 17  2  0  0  0  0
 14 13  1  0  0  0  0
 15 10  1  0  0  0  0
 15 12  1  0  0  0  0
 16 14  2  0  0  0  0
 16 11  1  0  0  0  0
 17 15  1  0  0  0  0
 18 17  1  0  0  0  0
 18  3  1  0  0  0  0
 19 24  1  0  0  0  0
 20 21  2  0  0  0  0
 21 23  1  0  0  0  0
 21 22  1  0  0  0  0
 22 24  1  0  0  0  0
 23 19  1  0  0  0  0
 24 14  1  6  0  0  0
 25 20  1  0  0  0  0
 26 25  3  0  0  0  0
 27 28  1  0  0  0  0
 29 28  1  1  0  0  0
 29 33  1  0  0  0  0
 30 31  1  0  0  0  0
 31 29  1  0  0  0  0
 32 30  1  0  0  0  0
 32 31  1  0  0  0  0
 33 34  2  0  0  0  0
 36 35  1  0  0  0  0
 37 36  1  0  0  0  0
 39 46  1  0  0  0  0
 39 48  2  0  0  0  0
 40 38  1  6  0  0  0
 40 51  1  0  0  0  0
 40 44  1  0  0  0  0
 40 43  1  0  0  0  0
 41 47  1  0  0  0  0
 41 49  1  1  0  0  0
 43 50  1  0  0  0  0
 44 41  1  0  0  0  0
 45 39  2  0  0  0  0
 46 50  1  0  0  0  0
 46 37  1  0  0  0  0
 47 42  1  1  0  0  0
 51 39  1  1  0  0  0
 51 47  1  0  0  0  0
 53 52  1  1  0  0  0
 54 53  1  0  0  0  0
 54 57  1  0  0  0  0
 54 56  1  0  0  0  0
 55 54  2  0  0  0  0
 59 60  1  0  0  0  0
 60 53  1  0  0  0  0
 60 58  1  0  0  0  0
M  END
>  <MODEL>
5

>  <REMARK>
 VINA RESULT:      -6.8      2.930      7.079
  Name = 
  16 active torsions:
  status: ('A' for Active; 'I' for Inactive)
    1  A    between atoms: P_3  and  C_59
    2  A    between atoms: C_5  and  C_49
    3  A    between atoms: C_6  and  C_15
    4  A    between atoms: C_6  and  C_49
    5  A    between atoms: C_9  and  N_45
    6  A    between atoms: C_13  and  N_36
    7  A    between atoms: C_13  and  C_38
    8  A    between atoms: C_15  and  C_27
    9  A    between atoms: C_17  and  C_33
   10  A    between atoms: C_17  and  C_38
   11  A    between atoms: C_21  and  C_34
   12  A    between atoms: C_30  and  C_49
   13  A    between atoms: C_31  and  C_51
   14  A    between atoms: C_35  and  C_57
   15  A    between atoms: C_46  and  C_59
   16  A    between atoms: C_57  and  C_59
                            x       y       z     vdW  Elec       q    Type
                         _______ _______ _______ _____ _____    ______ ____

>  <TORSDO>
F 16

$$$$
=
 OpenBabel11042416113D

 60 67  0  0  1  0  0  0  0  0999 V2000
  191.4790  170.8870  142.3860 C   0  0  0  0  0  3  0  0  0  0  0  0
  191.6110  169.6740  140.2600 O   0  0  0  0  0  0  0  0  0  0  0  0
  191.6860  172.0430  141.7410 C   0  0  0  0  0  0  0  0  0  0  0  0
  191.6230  169.5470  141.6910 C   0  0  1  0  0  3  0  0  0  0  0  0
  192.2760  172.5710  138.0160 C   0  0  2  0  0  3  0  0  0  0  0  0
  191.9800  172.0100  140.2950 C   0  0  0  0  0  0  0  0  0  0  0  0
  192.3180  173.1630  139.4270 C   0  0  0  0  0  2  0  0  0  0  0  0
  192.1470  171.0520  138.1780 C   0  0  0  0  0  2  0  0  0  0  0  0
  191.9070  170.8860  139.6260 C   0  0  0  0  0  0  0  0  0  0  0  0
  188.0110  172.7280  142.1020 O   0  0  0  0  0  0  0  0  0  0  0  0
  192.8520  173.8780  142.9350 C   0  0  0  0  0  2  0  0  0  0  0  0
  187.8250  173.8460  141.4740 C   0  0  2  0  0  3  0  0  0  0  0  0
  190.3040  175.1210  143.2130 N   0  0  0  0  0  0  0  0  0  0  0  0
  191.4290  175.6530  143.9210 C   0  0  0  0  0  0  0  0  0  0  0  0
  189.1720  173.5010  141.9400 N   0  0  0  0  0  0  0  0  0  0  0  0
  192.6190  175.0440  143.8530 C   0  0  0  0  0  3  0  0  0  0  0  0
  190.3660  174.0240  142.5240 C   0  0  0  0  0  0  0  0  0  0  0  0
  191.6010  173.2830  142.4560 N   0  0  0  0  0  0  0  0  0  0  0  0
  190.3060  177.8000  144.2390 N   0  0  0  0  0  2  0  0  0  0  0  0
  188.5170  177.1100  147.2520 C   0  0  0  0  0  3  0  0  0  0  0  0
  189.3950  177.1490  146.2540 C   0  0  0  0  0  0  0  0  0  0  0  0
  190.6260  176.3590  146.1950 C   0  0  0  0  0  2  0  0  0  0  0  0
  189.2660  177.9320  145.1320 O   0  0  0  0  0  0  0  0  0  0  0  0
  191.2100  176.8100  144.8480 C   0  0  1  0  0  3  0  0  0  0  0  0
  187.3220  177.9130  147.2360 C   0  0  0  0  0  0  0  0  0  0  0  0
  186.3200  178.5850  147.2200 C   0  0  0  0  0  3  0  0  0  0  0  0
  187.2010  174.8670  142.4090 C   0  0  0  0  0  2  0  0  0  0  0  0
  187.2300  176.2490  141.7650 C   0  0  0  0  0  2  0  0  0  0  0  0
  186.0450  177.1370  142.1670 C   0  0  2  0  0  3  0  0  0  0  0  0
  184.5080  178.1360  140.4920 C   0  0  0  0  0  2  0  0  0  0  0  0
  185.8500  178.2870  141.1870 C   0  0  0  0  0  3  0  0  0  0  0  0
  185.7800  177.7540  139.7670 C   0  0  0  0  0  2  0  0  0  0  0  0
  186.1660  177.6560  143.5680 C   0  0  0  0  0  3  0  0  0  0  0  0
  186.0860  178.9610  143.8260 C   0  0  0  0  0  2  0  0  0  0  0  0
  192.9230  168.8860  142.1260 C   0  0  0  0  0  2  0  0  0  0  0  0
  193.3070  169.3320  143.5280 C   0  0  0  0  0  2  0  0  0  0  0  0
  194.7990  169.1580  143.7450 C   0  0  0  0  0  2  0  0  0  0  0  0
  197.0570  173.3930  146.5130 C   0  0  0  0  0  1  0  0  0  0  0  0
  196.9950  170.3340  144.5350 S   0  0  0  0  0  0  0  0  0  0  0  0
  196.4440  173.0190  145.1760 C   0  0  1  0  0  0  0  0  0  0  0  0
  197.3510  174.1230  143.2010 C   0  0  1  0  0  3  0  0  0  0  0  0
  196.5620  172.0970  142.1740 O   0  0  0  0  0  1  0  0  0  0  0  0
  195.0330  172.4610  145.4210 C   0  0  0  0  0  2  0  0  0  0  0  0
  196.3370  174.2740  144.3190 C   0  0  0  0  0  2  0  0  0  0  0  0
  197.6670  169.7620  145.7510 O   0  0  0  0  0  0  0  0  0  0  0  0
  195.2710  170.1380  144.7120 N   0  0  0  0  0  0  0  0  0  0  0  0
  197.5540  172.6260  143.0120 C   0  0  2  0  0  3  0  0  0  0  0  0
  197.5070  169.6150  143.3160 O   0  0  0  0  0  0  0  0  0  0  0  0
  196.8880  174.8350  141.9420 C   0  0  0  0  0  1  0  0  0  0  0  0
  194.6180  171.4040  144.4030 C   0  0  0  0  0  2  0  0  0  0  0  0
  197.4100  172.0820  144.4300 C   0  0  2  0  0  3  0  0  0  0  0  0
  193.5430  172.9310  137.2590 C   0  0  0  0  0  2  0  0  0  0  0  0
  194.7390  173.0390  138.2040 C   0  0  2  0  0  3  0  0  0  0  0  0
  195.3410  174.7610  138.1520 P   0  0  0  0  0  0  0  0  0  0  0  0
  194.5730  175.6680  139.3560 O   0  0  0  0  0  1  0  0  0  0  0  0
  196.8340  174.7840  138.3870 O   0  0  0  0  0  1  0  0  0  0  0  0
  195.0140  175.4530  136.6440 O   0  0  0  0  0  0  0  0  0  0  0  0
  195.9130  171.7990  136.3220 C   0  0  0  0  0  1  0  0  0  0  0  0
  195.6760  170.7200  138.5140 C   0  0  0  0  0  1  0  0  0  0  0  0
  195.8620  172.0580  137.8200 C   0  0  0  0  0  3  0  0  0  0  0  0
  2  4  1  0  0  0  0
  3  1  2  0  0  0  0
  3 18  1  0  0  0  0
  4 35  1  1  0  0  0
  4  1  1  0  0  0  0
  5 52  1  1  0  0  0
  5  8  1  0  0  0  0
  5  7  1  0  0  0  0
  6  3  1  0  0  0  0
  7  6  1  0  0  0  0
  8  9  1  0  0  0  0
  9  2  1  0  0  0  0
  9  6  2  0  0  0  0
 11 16  1  0  0  0  0
 12 15  1  0  0  0  0
 12 10  1  0  0  0  0
 12 27  1  1  0  0  0
 13 14  1  0  0  0  0
 15 10  1  0  0  0  0
 15 17  1  0  0  0  0
 16 14  2  0  0  0  0
 17 13  2  0  0  0  0
 18 17  1  0  0  0  0
 18 11  1  0  0  0  0
 19 24  1  0  0  0  0
 19 23  1  0  0  0  0
 21 20  2  0  0  0  0
 22 21  1  0  0  0  0
 23 21  1  0  0  0  0
 24 14  1  6  0  0  0
 24 22  1  0  0  0  0
 25 20  1  0  0  0  0
 26 25  3  0  0  0  0
 28 27  1  0  0  0  0
 29 28  1  6  0  0  0
 29 33  1  0  0  0  0
 30 31  1  0  0  0  0
 31 29  1  0  0  0  0
 32 30  1  0  0  0  0
 32 31  1  0  0  0  0
 33 34  2  0  0  0  0
 35 36  1  0  0  0  0
 36 37  1  0  0  0  0
 37 46  1  0  0  0  0
 39 46  1  0  0  0  0
 39 45  2  0  0  0  0
 40 43  1  0  0  0  0
 40 38  1  1  0  0  0
 41 49  1  6  0  0  0
 41 44  1  0  0  0  0
 44 40  1  0  0  0  0
 47 42  1  6  0  0  0
 47 41  1  0  0  0  0
 47 51  1  0  0  0  0
 48 39  2  0  0  0  0
 50 46  1  0  0  0  0
 50 43  1  0  0  0  0
 51 39  1  6  0  0  0
 51 40  1  0  0  0  0
 53 52  1  6  0  0  0
 54 53  1  0  0  0  0
 54 56  1  0  0  0  0
 54 55  1  0  0  0  0
 57 54  2  0  0  0  0
 58 60  1  0  0  0  0
 60 53  1  0  0  0  0
 60 59  1  0  0  0  0
M  END
>  <MODEL>
6

>  <REMARK>
 VINA RESULT:      -6.6      1.930      3.810
  Name = 
  16 active torsions:
  status: ('A' for Active; 'I' for Inactive)
    1  A    between atoms: P_3  and  C_59
    2  A    between atoms: C_5  and  C_49
    3  A    between atoms: C_6  and  C_15
    4  A    between atoms: C_6  and  C_49
    5  A    between atoms: C_9  and  N_45
    6  A    between atoms: C_13  and  N_36
    7  A    between atoms: C_13  and  C_38
    8  A    between atoms: C_15  and  C_27
    9  A    between atoms: C_17  and  C_33
   10  A    between atoms: C_17  and  C_38
   11  A    between atoms: C_21  and  C_34
   12  A    between atoms: C_30  and  C_49
   13  A    between atoms: C_31  and  C_51
   14  A    between atoms: C_35  and  C_57
   15  A    between atoms: C_46  and  C_59
   16  A    between atoms: C_57  and  C_59
                            x       y       z     vdW  Elec       q    Type
                         _______ _______ _______ _____ _____    ______ ____

>  <TORSDO>
F 16

$$$$
=
 OpenBabel11042416113D

 60 67  0  0  1  0  0  0  0  0999 V2000
  190.7570  172.2510  143.1450 C   0  0  0  0  0  3  0  0  0  0  0  0
  191.9780  170.3340  142.2270 O   0  0  0  0  0  0  0  0  0  0  0  0
  190.5150  172.6940  141.9040 C   0  0  0  0  0  0  0  0  0  0  0  0
  191.7050  171.0980  143.4130 C   0  0  1  0  0  3  0  0  0  0  0  0
  191.6470  171.1550  138.6100 C   0  0  2  0  0  3  0  0  0  0  0  0
  191.1260  171.9850  140.7630 C   0  0  0  0  0  0  0  0  0  0  0  0
  191.0510  172.3650  139.3320 C   0  0  0  0  0  2  0  0  0  0  0  0
  192.2490  170.2480  139.6900 C   0  0  0  0  0  2  0  0  0  0  0  0
  191.7810  170.8650  140.9480 C   0  0  0  0  0  0  0  0  0  0  0  0
  192.2820  175.5680  143.5540 O   0  0  0  0  0  0  0  0  0  0  0  0
  188.4630  173.6390  140.8800 C   0  0  0  0  0  2  0  0  0  0  0  0
  191.4690  175.9600  144.4840 C   0  0  2  0  0  3  0  0  0  0  0  0
  189.0900  176.0730  142.2210 N   0  0  0  0  0  0  0  0  0  0  0  0
  188.0400  176.0540  141.2480 C   0  0  0  0  0  0  0  0  0  0  0  0
  190.9460  175.1830  143.3560 N   0  0  0  0  0  0  0  0  0  0  0  0
  187.7750  174.9360  140.5620 C   0  0  0  0  0  3  0  0  0  0  0  0
  189.8510  175.0470  142.4510 C   0  0  0  0  0  0  0  0  0  0  0  0
  189.6610  173.8280  141.7060 N   0  0  0  0  0  0  0  0  0  0  0  0
  186.5480  177.1970  139.6870 N   0  0  0  0  0  2  0  0  0  0  0  0
  184.0110  178.2830  141.9550 C   0  0  0  0  0  3  0  0  0  0  0  0
  185.1480  177.9080  141.3750 C   0  0  0  0  0  0  0  0  0  0  0  0
  186.4410  177.8170  142.0550 C   0  0  0  0  0  2  0  0  0  0  0  0
  185.2670  177.5460  140.0550 O   0  0  0  0  0  0  0  0  0  0  0  0
  187.3510  177.3420  140.9130 C   0  0  1  0  0  3  0  0  0  0  0  0
  182.7750  178.3420  141.2210 C   0  0  0  0  0  0  0  0  0  0  0  0
  181.7380  178.3940  140.6070 C   0  0  0  0  0  3  0  0  0  0  0  0
  191.1380  177.4300  144.2970 C   0  0  0  0  0  2  0  0  0  0  0  0
  190.6360  178.0220  145.6110 C   0  0  0  0  0  2  0  0  0  0  0  0
  189.8790  177.0140  146.4860 C   0  0  2  0  0  3  0  0  0  0  0  0
  187.4900  176.3420  146.3910 C   0  0  0  0  0  2  0  0  0  0  0  0
  188.4480  177.4660  146.7470 C   0  0  0  0  0  3  0  0  0  0  0  0
  187.6700  177.5090  145.4440 C   0  0  0  0  0  2  0  0  0  0  0  0
  190.5840  176.7320  147.7780 C   0  0  0  0  0  3  0  0  0  0  0  0
  191.9140  176.7470  147.8520 C   0  0  0  0  0  2  0  0  0  0  0  0
  193.0130  171.6370  143.9760 C   0  0  0  0  0  2  0  0  0  0  0  0
  194.1520  170.6680  143.7050 C   0  0  0  0  0  2  0  0  0  0  0  0
  195.0960  171.2450  142.6650 C   0  0  0  0  0  2  0  0  0  0  0  0
  195.6770  176.7160  142.0130 C   0  0  0  0  0  1  0  0  0  0  0  0
  196.5860  173.3520  143.0780 S   0  0  0  0  0  0  0  0  0  0  0  0
  195.8400  175.3930  141.2880 C   0  0  1  0  0  0  0  0  0  0  0  0
  197.6660  175.2370  139.6800 C   0  0  1  0  0  3  0  0  0  0  0  0
  197.4820  172.9140  140.2710 O   0  0  0  0  0  1  0  0  0  0  0  0
  194.4960  174.6480  141.3140 C   0  0  0  0  0  2  0  0  0  0  0  0
  196.2220  175.6740  139.8390 C   0  0  0  0  0  2  0  0  0  0  0  0
  196.5150  173.9720  144.4440 O   0  0  0  0  0  0  0  0  0  0  0  0
  195.0170  172.6980  142.6840 N   0  0  0  0  0  0  0  0  0  0  0  0
  197.9040  174.1670  140.7360 C   0  0  2  0  0  3  0  0  0  0  0  0
  197.6410  172.2790  143.0870 O   0  0  0  0  0  0  0  0  0  0  0  0
  197.9400  174.7630  138.2640 C   0  0  0  0  0  1  0  0  0  0  0  0
  194.6480  173.1310  141.3430 C   0  0  0  0  0  2  0  0  0  0  0  0
  197.0330  174.6350  141.8980 C   0  0  2  0  0  3  0  0  0  0  0  0
  192.7120  171.6060  137.6240 C   0  0  0  0  0  2  0  0  0  0  0  0
  192.4660  173.0420  137.1640 C   0  0  2  0  0  3  0  0  0  0  0  0
  191.5080  172.9780  135.6120 P   0  0  0  0  0  0  0  0  0  0  0  0
  191.6750  174.4420  134.7810 O   0  0  0  0  0  1  0  0  0  0  0  0
  192.0210  171.8520  134.7450 O   0  0  0  0  0  0  0  0  0  0  0  0
  189.8700  172.7120  135.9420 O   0  0  0  0  0  1  0  0  0  0  0  0
  194.9590  173.1320  137.6450 C   0  0  0  0  0  1  0  0  0  0  0  0
  193.6800  175.2230  137.5100 C   0  0  0  0  0  1  0  0  0  0  0  0
  193.7840  173.8120  136.9600 C   0  0  0  0  0  3  0  0  0  0  0  0
  1  4  1  0  0  0  0
  2  4  1  0  0  0  0
  3  1  2  0  0  0  0
  4 35  1  6  0  0  0
  5 52  1  6  0  0  0
  5  7  1  0  0  0  0
  5  8  1  0  0  0  0
  6  9  2  0  0  0  0
  6  3  1  0  0  0  0
  7  6  1  0  0  0  0
  8  9  1  0  0  0  0
  9  2  1  0  0  0  0
 10 12  1  0  0  0  0
 11 18  1  0  0  0  0
 12 27  1  6  0  0  0
 13 17  2  0  0  0  0
 14 13  1  0  0  0  0
 15 10  1  0  0  0  0
 15 12  1  0  0  0  0
 16 11  1  0  0  0  0
 16 14  2  0  0  0  0
 17 15  1  0  0  0  0
 18  3  1  0  0  0  0
 18 17  1  0  0  0  0
 19 23  1  0  0  0  0
 19 24  1  0  0  0  0
 21 20  2  0  0  0  0
 21 22  1  0  0  0  0
 23 21  1  0  0  0  0
 24 14  1  1  0  0  0
 24 22  1  0  0  0  0
 25 20  1  0  0  0  0
 26 25  3  0  0  0  0
 27 28  1  0  0  0  0
 29 28  1  1  0  0  0
 29 31  1  0  0  0  0
 29 33  1  0  0  0  0
 30 31  1  0  0  0  0
 32 30  1  0  0  0  0
 32 31  1  0  0  0  0
 33 34  2  0  0  0  0
 36 35  1  0  0  0  0
 37 46  1  0  0  0  0
 37 36  1  0  0  0  0
 39 48  2  0  0  0  0
 39 45  2  0  0  0  0
 40 43  1  0  0  0  0
 40 51  1  0  0  0  0
 40 38  1  1  0  0  0
 41 49  1  6  0  0  0
 41 44  1  0  0  0  0
 41 47  1  0  0  0  0
 43 50  1  0  0  0  0
 44 40  1  0  0  0  0
 46 39  1  0  0  0  0
 47 42  1  6  0  0  0
 47 51  1  0  0  0  0
 50 46  1  0  0  0  0
 51 39  1  6  0  0  0
 53 52  1  6  0  0  0
 54 57  1  0  0  0  0
 54 53  1  0  0  0  0
 55 54  1  0  0  0  0
 56 54  2  0  0  0  0
 60 53  1  0  0  0  0
 60 59  1  0  0  0  0
 60 58  1  0  0  0  0
M  END
>  <MODEL>
7

>  <REMARK>
 VINA RESULT:      -6.4      2.096      2.785
  Name = 
  16 active torsions:
  status: ('A' for Active; 'I' for Inactive)
    1  A    between atoms: P_3  and  C_59
    2  A    between atoms: C_5  and  C_49
    3  A    between atoms: C_6  and  C_15
    4  A    between atoms: C_6  and  C_49
    5  A    between atoms: C_9  and  N_45
    6  A    between atoms: C_13  and  N_36
    7  A    between atoms: C_13  and  C_38
    8  A    between atoms: C_15  and  C_27
    9  A    between atoms: C_17  and  C_33
   10  A    between atoms: C_17  and  C_38
   11  A    between atoms: C_21  and  C_34
   12  A    between atoms: C_30  and  C_49
   13  A    between atoms: C_31  and  C_51
   14  A    between atoms: C_35  and  C_57
   15  A    between atoms: C_46  and  C_59
   16  A    between atoms: C_57  and  C_59
                            x       y       z     vdW  Elec       q    Type
                         _______ _______ _______ _____ _____    ______ ____

>  <TORSDO>
F 16

$$$$
=
 OpenBabel11042416113D

 60 67  0  0  1  0  0  0  0  0999 V2000
  191.1350  170.7570  141.1800 C   0  0  0  0  0  3  0  0  0  0  0  0
  190.1880  169.6300  139.2200 O   0  0  0  0  0  0  0  0  0  0  0  0
  191.2470  171.8910  140.4760 C   0  0  0  0  0  0  0  0  0  0  0  0
  190.7610  169.4420  140.5240 C   0  0  1  0  0  3  0  0  0  0  0  0
  190.3420  172.4760  136.8230 C   0  0  2  0  0  3  0  0  0  0  0  0
  190.9150  171.8730  139.0380 C   0  0  0  0  0  0  0  0  0  0  0  0
  191.0530  172.9930  138.0760 C   0  0  0  0  0  2  0  0  0  0  0  0
  190.0450  170.9910  137.0650 C   0  0  0  0  0  2  0  0  0  0  0  0
  190.3930  170.8050  138.4880 C   0  0  0  0  0  0  0  0  0  0  0  0
  188.2270  173.0970  142.3550 O   0  0  0  0  0  0  0  0  0  0  0  0
  193.0760  173.4780  141.0150 C   0  0  0  0  0  2  0  0  0  0  0  0
  187.9640  174.2570  141.8400 C   0  0  2  0  0  3  0  0  0  0  0  0
  191.1110  175.0720  142.3230 N   0  0  0  0  0  0  0  0  0  0  0  0
  192.4960  175.3990  142.4710 C   0  0  0  0  0  0  0  0  0  0  0  0
  189.3110  173.6960  141.6940 N   0  0  0  0  0  0  0  0  0  0  0  0
  193.4360  174.6240  141.9160 C   0  0  0  0  0  3  0  0  0  0  0  0
  190.7050  174.0090  141.7000 C   0  0  0  0  0  0  0  0  0  0  0  0
  191.6640  173.0970  141.1290 N   0  0  0  0  0  0  0  0  0  0  0  0
  191.6830  177.3200  143.7440 N   0  0  0  0  0  2  0  0  0  0  0  0
  192.8680  176.4390  146.9970 C   0  0  0  0  0  3  0  0  0  0  0  0
  192.6890  176.5960  145.6880 C   0  0  0  0  0  0  0  0  0  0  0  0
  193.5640  176.0390  144.6540 C   0  0  0  0  0  2  0  0  0  0  0  0
  191.6530  177.2980  145.1210 O   0  0  0  0  0  0  0  0  0  0  0  0
  192.8730  176.5340  143.3750 C   0  0  1  0  0  3  0  0  0  0  0  0
  191.9600  177.0120  147.9550 C   0  0  0  0  0  0  0  0  0  0  0  0
  191.1990  177.4950  148.7580 C   0  0  0  0  0  3  0  0  0  0  0  0
  187.9610  175.3170  142.9280 C   0  0  0  0  0  2  0  0  0  0  0  0
  186.5770  175.9500  143.0330 C   0  0  0  0  0  2  0  0  0  0  0  0
  186.4240  176.8880  144.2380 C   0  0  2  0  0  3  0  0  0  0  0  0
  185.6120  179.2330  144.1530 C   0  0  0  0  0  2  0  0  0  0  0  0
  186.7960  178.3210  143.8810 C   0  0  0  0  0  3  0  0  0  0  0  0
  185.9320  178.8130  142.7350 C   0  0  0  0  0  2  0  0  0  0  0  0
  187.2070  176.4230  145.4290 C   0  0  0  0  0  3  0  0  0  0  0  0
  188.1820  177.1710  145.9450 C   0  0  0  0  0  2  0  0  0  0  0  0
  191.9990  168.5630  140.4070 C   0  0  0  0  0  2  0  0  0  0  0  0
  192.9060  168.7530  141.6120 C   0  0  0  0  0  2  0  0  0  0  0  0
  194.3150  168.2890  141.2880 C   0  0  0  0  0  2  0  0  0  0  0  0
  197.0200  168.9370  146.0790 C   0  0  0  0  0  1  0  0  0  0  0  0
  196.3470  169.3700  142.5250 S   0  0  0  0  0  0  0  0  0  0  0  0
  195.8290  169.4490  145.2910 C   0  0  1  0  0  0  0  0  0  0  0  0
  195.2660  171.8070  145.5510 C   0  0  1  0  0  3  0  0  0  0  0  0
  194.3760  171.4460  143.3480 O   0  0  0  0  0  1  0  0  0  0  0  0
  194.9170  168.2590  144.9500 C   0  0  0  0  0  2  0  0  0  0  0  0
  195.0530  170.4330  146.1590 C   0  0  0  0  0  2  0  0  0  0  0  0
  197.6700  168.6740  142.3850 O   0  0  0  0  0  0  0  0  0  0  0  0
  195.0840  168.1660  142.5170 N   0  0  0  0  0  0  0  0  0  0  0  0
  195.5660  171.5760  144.0770 C   0  0  2  0  0  3  0  0  0  0  0  0
  196.1880  170.3400  141.3850 O   0  0  0  0  0  0  0  0  0  0  0  0
  194.0640  172.7030  145.7930 C   0  0  0  0  0  1  0  0  0  0  0  0
  194.1770  168.4280  143.6270 C   0  0  0  0  0  2  0  0  0  0  0  0
  196.3400  170.2620  144.0880 C   0  0  2  0  0  3  0  0  0  0  0  0
  191.2300  172.6600  135.6040 C   0  0  0  0  0  2  0  0  0  0  0  0
  192.6210  173.1510  136.0040 C   0  0  2  0  0  3  0  0  0  0  0  0
  192.7940  174.8760  135.4330 P   0  0  0  0  0  0  0  0  0  0  0  0
  194.2060  175.0310  134.5140 O   0  0  0  0  0  0  0  0  0  0  0  0
  191.6020  175.2510  134.5830 O   0  0  0  0  0  1  0  0  0  0  0  0
  192.8750  175.9270  136.7560 O   0  0  0  0  0  1  0  0  0  0  0  0
  193.1770  171.1630  134.5210 C   0  0  0  0  0  1  0  0  0  0  0  0
  194.5510  171.6100  136.5050 C   0  0  0  0  0  1  0  0  0  0  0  0
  193.7330  172.2660  135.4080 C   0  0  0  0  0  3  0  0  0  0  0  0
  2  4  1  0  0  0  0
  3 18  1  0  0  0  0
  3  1  2  0  0  0  0
  4 35  1  6  0  0  0
  4  1  1  0  0  0  0
  5 52  1  6  0  0  0
  5  8  1  0  0  0  0
  5  7  1  0  0  0  0
  6  3  1  0  0  0  0
  7  6  1  0  0  0  0
  8  9  1  0  0  0  0
  9  6  2  0  0  0  0
  9  2  1  0  0  0  0
 11 18  1  0  0  0  0
 11 16  1  0  0  0  0
 12 10  1  0  0  0  0
 12 27  1  1  0  0  0
 13 14  1  0  0  0  0
 15 17  1  0  0  0  0
 15 12  1  0  0  0  0
 15 10  1  0  0  0  0
 16 14  2  0  0  0  0
 17 13  2  0  0  0  0
 18 17  1  0  0  0  0
 19 23  1  0  0  0  0
 20 25  1  0  0  0  0
 21 20  2  0  0  0  0
 22 21  1  0  0  0  0
 23 21  1  0  0  0  0
 24 14  1  6  0  0  0
 24 19  1  0  0  0  0
 24 22  1  0  0  0  0
 25 26  3  0  0  0  0
 27 28  1  0  0  0  0
 29 28  1  6  0  0  0
 29 33  1  0  0  0  0
 31 30  1  0  0  0  0
 31 29  1  0  0  0  0
 32 31  1  0  0  0  0
 32 30  1  0  0  0  0
 33 34  2  0  0  0  0
 35 36  1  0  0  0  0
 37 36  1  0  0  0  0
 37 46  1  0  0  0  0
 40 38  1  1  0  0  0
 40 44  1  0  0  0  0
 41 49  1  6  0  0  0
 41 44  1  0  0  0  0
 43 40  1  0  0  0  0
 45 39  2  0  0  0  0
 46 39  1  0  0  0  0
 46 50  1  0  0  0  0
 47 42  1  6  0  0  0
 47 51  1  0  0  0  0
 47 41  1  0  0  0  0
 48 39  2  0  0  0  0
 50 43  1  0  0  0  0
 51 39  1  6  0  0  0
 51 40  1  0  0  0  0
 53 52  1  6  0  0  0
 54 53  1  0  0  0  0
 54 57  1  0  0  0  0
 55 54  2  0  0  0  0
 56 54  1  0  0  0  0
 58 60  1  0  0  0  0
 60 53  1  0  0  0  0
 60 59  1  0  0  0  0
M  END
>  <MODEL>
8

>  <REMARK>
 VINA RESULT:      -6.3      2.165      4.293
  Name = 
  16 active torsions:
  status: ('A' for Active; 'I' for Inactive)
    1  A    between atoms: P_3  and  C_59
    2  A    between atoms: C_5  and  C_49
    3  A    between atoms: C_6  and  C_15
    4  A    between atoms: C_6  and  C_49
    5  A    between atoms: C_9  and  N_45
    6  A    between atoms: C_13  and  N_36
    7  A    between atoms: C_13  and  C_38
    8  A    between atoms: C_15  and  C_27
    9  A    between atoms: C_17  and  C_33
   10  A    between atoms: C_17  and  C_38
   11  A    between atoms: C_21  and  C_34
   12  A    between atoms: C_30  and  C_49
   13  A    between atoms: C_31  and  C_51
   14  A    between atoms: C_35  and  C_57
   15  A    between atoms: C_46  and  C_59
   16  A    between atoms: C_57  and  C_59
                            x       y       z     vdW  Elec       q    Type
                         _______ _______ _______ _____ _____    ______ ____

>  <TORSDO>
F 16

$$$$
=
 OpenBabel11042416113D

 60 67  0  0  1  0  0  0  0  0999 V2000
  191.1660  170.6740  141.0070 C   0  0  0  0  0  3  0  0  0  0  0  0
  190.5850  169.6600  138.8520 O   0  0  0  0  0  0  0  0  0  0  0  0
  191.5200  171.8040  140.3820 C   0  0  0  0  0  0  0  0  0  0  0  0
  190.8410  169.4050  140.2430 C   0  0  1  0  0  3  0  0  0  0  0  0
  191.4920  172.5150  136.6410 C   0  0  2  0  0  3  0  0  0  0  0  0
  191.5130  171.8340  138.9060 C   0  0  0  0  0  0  0  0  0  0  0  0
  191.9490  172.9520  138.0340 C   0  0  0  0  0  2  0  0  0  0  0  0
  191.0300  171.0580  136.7630 C   0  0  0  0  0  2  0  0  0  0  0  0
  191.0410  170.8230  138.2210 C   0  0  0  0  0  0  0  0  0  0  0  0
  188.3480  172.8990  142.0670 O   0  0  0  0  0  0  0  0  0  0  0  0
  193.2960  173.3400  141.1840 C   0  0  0  0  0  2  0  0  0  0  0  0
  188.1320  174.0930  141.6110 C   0  0  2  0  0  3  0  0  0  0  0  0
  191.2240  174.8540  142.4210 N   0  0  0  0  0  0  0  0  0  0  0  0
  192.5920  175.1620  142.7110 C   0  0  0  0  0  0  0  0  0  0  0  0
  189.4870  173.5350  141.5450 N   0  0  0  0  0  0  0  0  0  0  0  0
  193.5760  174.4200  142.1890 C   0  0  0  0  0  3  0  0  0  0  0  0
  190.8740  173.8380  141.6940 C   0  0  0  0  0  0  0  0  0  0  0  0
  191.8790  172.9610  141.1490 N   0  0  0  0  0  0  0  0  0  0  0  0
  191.9200  177.3340  143.6060 N   0  0  0  0  0  2  0  0  0  0  0  0
  191.4510  176.4600  147.0370 C   0  0  0  0  0  3  0  0  0  0  0  0
  191.8460  176.5430  145.7700 C   0  0  0  0  0  0  0  0  0  0  0  0
  192.8600  175.6840  145.1540 C   0  0  0  0  0  2  0  0  0  0  0  0
  191.3520  177.4430  144.8560 O   0  0  0  0  0  0  0  0  0  0  0  0
  192.8880  176.2300  143.7190 C   0  0  1  0  0  3  0  0  0  0  0  0
  190.4410  177.3360  147.5700 C   0  0  0  0  0  0  0  0  0  0  0  0
  189.5930  178.0700  148.0150 C   0  0  0  0  0  3  0  0  0  0  0  0
  188.0340  175.0770  142.7630 C   0  0  0  0  0  2  0  0  0  0  0  0
  187.2740  176.3240  142.3200 C   0  0  0  0  0  2  0  0  0  0  0  0
  186.4640  176.9790  143.4470 C   0  0  2  0  0  3  0  0  0  0  0  0
  184.3740  178.2740  143.1070 C   0  0  0  0  0  2  0  0  0  0  0  0
  185.8890  178.3210  143.0140 C   0  0  0  0  0  3  0  0  0  0  0  0
  185.0520  178.1480  141.7600 C   0  0  0  0  0  2  0  0  0  0  0  0
  187.2580  177.1310  144.7100 C   0  0  0  0  0  3  0  0  0  0  0  0
  186.7030  176.9130  145.9010 C   0  0  0  0  0  2  0  0  0  0  0  0
  191.9990  168.4250  140.3700 C   0  0  0  0  0  2  0  0  0  0  0  0
  193.3140  169.1700  140.5340 C   0  0  0  0  0  2  0  0  0  0  0  0
  193.9620  168.8090  141.8590 C   0  0  0  0  0  2  0  0  0  0  0  0
  195.4870  172.7150  145.4790 C   0  0  0  0  0  1  0  0  0  0  0  0
  193.4110  170.0660  144.0820 S   0  0  0  0  0  0  0  0  0  0  0  0
  195.7500  171.2750  145.0810 C   0  0  1  0  0  0  0  0  0  0  0  0
  196.3010  169.7180  146.8740 C   0  0  1  0  0  3  0  0  0  0  0  0
  195.3520  168.1660  145.3030 O   0  0  0  0  0  1  0  0  0  0  0  0
  196.1590  171.2410  143.5990 C   0  0  0  0  0  2  0  0  0  0  0  0
  196.9000  170.7360  145.9230 C   0  0  0  0  0  2  0  0  0  0  0  0
  192.3950  171.1690  144.0000 O   0  0  0  0  0  0  0  0  0  0  0  0
  194.3040  170.0240  142.5840 N   0  0  0  0  0  0  0  0  0  0  0  0
  195.0400  169.1980  146.1990 C   0  0  2  0  0  3  0  0  0  0  0  0
  192.6960  168.7670  144.3330 O   0  0  0  0  0  0  0  0  0  0  0  0
  197.3020  168.6280  147.2110 C   0  0  0  0  0  1  0  0  0  0  0  0
  195.7280  169.9640  142.8850 C   0  0  0  0  0  2  0  0  0  0  0  0
  194.5230  170.4240  145.4520 C   0  0  2  0  0  3  0  0  0  0  0  0
  192.6380  172.6400  135.6510 C   0  0  0  0  0  2  0  0  0  0  0  0
  193.9890  172.6220  136.3660 C   0  0  2  0  0  3  0  0  0  0  0  0
  194.7790  174.2480  136.1150 P   0  0  0  0  0  0  0  0  0  0  0  0
  196.2960  174.2640  136.8640 O   0  0  0  0  0  1  0  0  0  0  0  0
  194.9510  174.5070  134.6360 O   0  0  0  0  0  0  0  0  0  0  0  0
  193.8210  175.4750  136.7770 O   0  0  0  0  0  1  0  0  0  0  0  0
  194.2540  170.7170  134.7050 C   0  0  0  0  0  1  0  0  0  0  0  0
  195.2170  170.5010  136.9530 C   0  0  0  0  0  1  0  0  0  0  0  0
  194.8960  171.4900  135.8470 C   0  0  0  0  0  3  0  0  0  0  0  0
  2  4  1  0  0  0  0
  3  1  2  0  0  0  0
  3 18  1  0  0  0  0
  4 35  1  6  0  0  0
  4  1  1  0  0  0  0
  5 52  1  6  0  0  0
  5  8  1  0  0  0  0
  5  7  1  0  0  0  0
  6  3  1  0  0  0  0
  7  6  1  0  0  0  0
  8  9  1  0  0  0  0
  9  2  1  0  0  0  0
  9  6  2  0  0  0  0
 11 16  1  0  0  0  0
 12 10  1  0  0  0  0
 12 27  1  1  0  0  0
 13 14  1  0  0  0  0
 15 12  1  0  0  0  0
 15 17  1  0  0  0  0
 15 10  1  0  0  0  0
 16 14  2  0  0  0  0
 17 13  2  0  0  0  0
 18 11  1  0  0  0  0
 18 17  1  0  0  0  0
 19 24  1  0  0  0  0
 19 23  1  0  0  0  0
 20 25  1  0  0  0  0
 21 20  2  0  0  0  0
 22 21  1  0  0  0  0
 23 21  1  0  0  0  0
 24 14  1  6  0  0  0
 24 22  1  0  0  0  0
 25 26  3  0  0  0  0
 28 27  1  0  0  0  0
 29 28  1  6  0  0  0
 29 33  1  0  0  0  0
 31 30  1  0  0  0  0
 31 29  1  0  0  0  0
 32 31  1  0  0  0  0
 32 30  1  0  0  0  0
 33 34  2  0  0  0  0
 35 36  1  0  0  0  0
 36 37  1  0  0  0  0
 37 46  1  0  0  0  0
 39 48  2  0  0  0  0
 40 51  1  0  0  0  0
 40 38  1  1  0  0  0
 40 44  1  0  0  0  0
 41 49  1  6  0  0  0
 43 40  1  0  0  0  0
 44 41  1  0  0  0  0
 45 39  2  0  0  0  0
 46 50  1  0  0  0  0
 46 39  1  0  0  0  0
 47 42  1  6  0  0  0
 47 41  1  0  0  0  0
 50 43  1  0  0  0  0
 51 39  1  6  0  0  0
 51 47  1  0  0  0  0
 53 52  1  6  0  0  0
 54 53  1  0  0  0  0
 54 57  1  0  0  0  0
 54 55  1  0  0  0  0
 56 54  2  0  0  0  0
 58 60  1  0  0  0  0
 60 53  1  0  0  0  0
 60 59  1  0  0  0  0
M  END
>  <MODEL>
9

>  <REMARK>
 VINA RESULT:      -6.3      2.395      4.612
  Name = 
  16 active torsions:
  status: ('A' for Active; 'I' for Inactive)
    1  A    between atoms: P_3  and  C_59
    2  A    between atoms: C_5  and  C_49
    3  A    between atoms: C_6  and  C_15
    4  A    between atoms: C_6  and  C_49
    5  A    between atoms: C_9  and  N_45
    6  A    between atoms: C_13  and  N_36
    7  A    between atoms: C_13  and  C_38
    8  A    between atoms: C_15  and  C_27
    9  A    between atoms: C_17  and  C_33
   10  A    between atoms: C_17  and  C_38
   11  A    between atoms: C_21  and  C_34
   12  A    between atoms: C_30  and  C_49
   13  A    between atoms: C_31  and  C_51
   14  A    between atoms: C_35  and  C_57
   15  A    between atoms: C_46  and  C_59
   16  A    between atoms: C_57  and  C_59
                            x       y       z     vdW  Elec       q    Type
                         _______ _______ _______ _____ _____    ______ ____

>  <TORSDO>
F 16

$$$$
