=
 OpenBabel11042416213D

 66 75  0  0  1  0  0  0  0  0999 V2000
  192.7190  175.7790  146.0210 C   0  0  2  0  0  3  0  0  0  0  0  0
  192.5790  176.4630  144.7510 N   0  0  0  0  0  0  0  0  0  0  0  0
  191.8130  175.5400  148.3440 C   0  0  0  0  0  1  0  0  0  0  0  0
  187.9900  176.2070  146.8880 C   0  0  0  0  0  0  0  0  0  0  0  0
  191.7310  176.3510  147.0490 C   0  0  2  0  0  3  0  0  0  0  0  0
  187.7100  176.4700  145.5450 C   0  0  0  0  0  0  0  0  0  0  0  0
  191.2310  177.4820  143.1510 O   0  0  0  0  0  0  0  0  0  0  0  0
  194.5460  177.1050  145.3590 C   0  0  0  0  0  2  0  0  0  0  0  0
  193.7390  176.9090  144.2160 O   0  0  0  0  0  0  0  0  0  0  0  0
  186.9930  176.0030  147.7840 F   0  0  0  0  0  0  0  0  0  0  0  0
  191.3070  176.9090  144.2700 C   0  0  0  0  0  0  0  0  0  0  0  0
  189.2700  176.1560  147.3340 N   0  0  0  0  0  0  0  0  0  0  0  0
  188.7830  176.6800  144.6400 C   0  0  0  0  0  0  0  0  0  0  0  0
  190.3270  176.3660  146.4980 C   0  0  0  0  0  0  0  0  0  0  0  0
  190.1050  176.6940  145.1340 C   0  0  0  0  0  0  0  0  0  0  0  0
  194.1340  176.0800  146.4250 C   0  0  2  0  0  3  0  0  0  0  0  0
  186.2730  176.5240  145.1200 C   0  0  0  0  0  2  0  0  0  0  0  0
  185.4000  176.3100  146.2680 N   0  0  0  0  0  2  0  0  0  0  0  0
  184.6200  177.5200  146.3930 C   0  0  0  0  0  2  0  0  0  0  0  0
  185.6970  179.4250  147.5520 C   0  0  0  0  0  1  0  0  0  0  0  0
  185.4990  178.7650  146.2020 C   0  0  2  0  0  3  0  0  0  0  0  0
  184.8040  179.7500  145.2760 C   0  0  0  0  0  2  0  0  0  0  0  0
  185.6480  179.9970  144.0400 C   0  0  0  0  0  2  0  0  0  0  0  0
  185.0690  179.2820  142.8200 C   0  0  0  0  0  2  0  0  0  0  0  0
  186.1410  178.4730  142.1050 C   0  0  0  0  0  2  0  0  0  0  0  0
  185.5130  177.4440  141.1690 C   0  0  0  0  0  2  0  0  0  0  0  0
  185.8110  177.2310  138.7990 F   0  0  0  0  0  0  0  0  0  0  0  0
  187.5040  178.0850  140.0040 F   0  0  0  0  0  0  0  0  0  0  0  0
  186.4780  177.1560  139.9980 C   0  0  0  0  0  3  0  0  0  0  0  0
  194.9590  174.7930  146.2380 C   0  0  0  0  0  2  0  0  0  0  0  0
  194.4560  173.8770  145.0940 C   0  0  1  0  0  3  0  0  0  0  0  0
  197.4400  172.9050  143.1080 C   0  0  0  0  0  2  0  0  0  0  0  0
  196.6710  172.9170  145.3570 O   0  0  0  0  0  0  0  0  0  0  0  0
  196.0770  173.5310  143.1910 C   0  0  2  0  0  3  0  0  0  0  0  0
  195.5610  172.9970  144.5060 C   0  0  2  0  0  3  0  0  0  0  0  0
  197.7560  172.5030  144.5480 C   0  0  1  0  0  3  0  0  0  0  0  0
  197.9360  170.9920  144.6360 C   0  0  0  0  0  2  0  0  0  0  0  0
  197.2400  170.3310  143.6270 O   0  0  0  0  0  1  0  0  0  0  0  0
  195.2270  173.0940  142.0760 N   0  0  0  0  0  2  0  0  0  0  0  0
  196.4710  173.6130  140.1490 O   0  0  0  0  0  0  0  0  0  0  0  0
  196.1190  172.4150  139.4960 C   0  0  0  0  0  2  0  0  0  0  0  0
  195.1880  172.7330  138.3550 C   0  0  0  0  0  2  0  0  0  0  0  0
  195.3620  174.0170  140.9200 C   0  0  1  0  0  0  0  0  0  0  0  0
  194.1190  174.0530  140.1960 O   0  0  0  0  0  0  0  0  0  0  0  0
  194.2510  173.8620  138.7780 C   0  0  1  0  0  3  0  0  0  0  0  0
  194.5430  175.0410  138.1260 O   0  0  0  0  0  1  0  0  0  0  0  0
  194.5930  176.3330  141.2660 O   0  0  0  0  0  1  0  0  0  0  0  0
  196.8040  175.9630  140.8760 O   0  0  0  0  0  1  0  0  0  0  0  0
  195.6500  175.4380  141.4610 C   0  0  0  0  0  3  0  0  0  0  0  0
  192.8170  172.2180  144.5150 O   0  0  0  0  0  1  0  0  0  0  0  0
  193.2520  173.0660  145.5330 C   0  0  0  0  0  2  0  0  0  0  0  0
  188.5130  176.6330  143.1620 C   0  0  0  0  0  2  0  0  0  0  0  0
  189.3570  174.3810  142.6800 C   0  0  1  0  0  3  0  0  0  0  0  0
  188.0930  175.2510  142.6590 C   0  0  2  0  0  3  0  0  0  0  0  0
  188.8370  173.8630  140.2750 C   0  0  2  0  0  3  0  0  0  0  0  0
  188.8500  172.4200  140.7680 C   0  0  2  0  0  3  0  0  0  0  0  0
  188.8590  173.0850  142.8510 O   0  0  0  0  0  0  0  0  0  0  0  0
  190.0150  174.0680  139.5090 O   0  0  0  0  0  0  0  0  0  0  0  0
  189.5900  171.9990  138.3100 C   0  0  2  0  0  3  0  0  0  0  0  0
  189.5140  172.3190  142.0190 O   0  0  0  0  0  0  0  0  0  0  0  0
  188.9120  175.0070  141.3490 C   0  0  2  0  0  3  0  0  0  0  0  0
  190.5570  172.8100  139.1770 C   0  0  2  0  0  3  0  0  0  0  0  0
  189.7610  171.7070  139.7930 C   0  0  1  0  0  3  0  0  0  0  0  0
  190.3970  170.9760  137.5670 C   0  0  2  0  0  3  0  0  0  0  0  0
  189.8560  170.8190  136.2070 C   0  0  0  0  0  2  0  0  0  0  0  0
  189.6020  169.8690  137.2000 O   0  0  0  0  0  0  0  0  0  0  0  0
  1  2  1  6  0  0  0
  1 16  1  0  0  0  0
  1  5  1  0  0  0  0
  4 12  1  0  0  0  0
  4 10  1  0  0  0  0
  5  3  1  1  0  0  0
  6  4  2  0  0  0  0
  7 11  2  0  0  0  0
  8 16  1  0  0  0  0
  9  2  1  0  0  0  0
  9  8  1  0  0  0  0
 11  2  1  0  0  0  0
 11 15  1  0  0  0  0
 13 15  2  0  0  0  0
 13  6  1  0  0  0  0
 14  5  1  0  0  0  0
 14 12  2  0  0  0  0
 15 14  1  0  0  0  0
 16 30  1  6  0  0  0
 17  6  1  0  0  0  0
 17 18  1  0  0  0  0
 18 19  1  0  0  0  0
 21 19  1  0  0  0  0
 21 20  1  1  0  0  0
 22 21  1  0  0  0  0
 23 22  1  0  0  0  0
 24 23  1  0  0  0  0
 25 24  1  0  0  0  0
 26 25  1  0  0  0  0
 27 29  1  0  0  0  0
 29 28  1  0  0  0  0
 29 26  1  0  0  0  0
 31 51  1  1  0  0  0
 31 30  1  0  0  0  0
 32 34  1  0  0  0  0
 32 36  1  0  0  0  0
 34 39  1  6  0  0  0
 34 35  1  0  0  0  0
 35 31  1  1  0  0  0
 35 33  1  0  0  0  0
 36 37  1  6  0  0  0
 36 33  1  0  0  0  0
 38 37  1  0  0  0  0
 40 43  1  0  0  0  0
 41 40  1  0  0  0  0
 42 45  1  0  0  0  0
 42 41  1  0  0  0  0
 43 49  1  1  0  0  0
 43 39  1  0  0  0  0
 44 43  1  0  0  0  0
 45 46  1  6  0  0  0
 45 44  1  0  0  0  0
 47 49  1  0  0  0  0
 48 49  1  0  0  0  0
 50 51  1  0  0  0  0
 52 13  1  0  0  0  0
 53 57  1  6  0  0  0
 54 53  1  0  0  0  0
 54 52  1  1  0  0  0
 55 58  1  6  0  0  0
 55 56  1  0  0  0  0
 55 61  1  0  0  0  0
 56 60  1  1  0  0  0
 59 64  1  6  0  0  0
 59 62  1  0  0  0  0
 59 63  1  0  0  0  0
 60 57  1  0  0  0  0
 61 54  1  0  0  0  0
 61 53  1  0  0  0  0
 62 58  1  0  0  0  0
 62 63  1  0  0  0  0
 63 56  1  0  0  0  0
 65 66  1  0  0  0  0
 65 64  1  0  0  0  0
 66 64  1  0  0  0  0
M  END
>  <MODEL>
1

>  <REMARK>
 VINA RESULT:      -7.1      0.000      0.000
  Name = 
  21 active torsions:
  status: ('A' for Active; 'I' for Inactive)
    1  A    between atoms: C_3  and  C_9
    2  A    between atoms: C_3  and  C_66
    3  A    between atoms: C_5  and  C_58
    4  A    between atoms: C_6  and  C_37
    5  A    between atoms: C_6  and  C_46
    6  A    between atoms: C_9  and  C_45
    7  A    between atoms: C_9  and  C_60
    8  A    between atoms: N_10  and  C_28
    9  A    between atoms: N_10  and  C_32
   10  A    between atoms: C_13  and  C_37
   11  A    between atoms: C_13  and  C_38
   12  A    between atoms: C_20  and  C_22
   13  A    between atoms: C_22  and  N_29
   14  A    between atoms: N_29  and  C_61
   15  A    between atoms: C_32  and  C_59
   16  A    between atoms: C_34  and  C_35
   17  A    between atoms: C_36  and  C_38
   18  A    between atoms: C_36  and  C_50
   19  A    between atoms: C_39  and  C_62
   20  A    between atoms: C_50  and  C_61
   21  A    between atoms: C_54  and  C_58
                            x       y       z     vdW  Elec       q    Type
                         _______ _______ _______ _____ _____    ______ ____

>  <TORSDO>
F 21

$$$$
=
 OpenBabel11042416213D

 66 75  0  0  1  0  0  0  0  0999 V2000
  191.2530  171.6440  137.0070 C   0  0  2  0  0  3  0  0  0  0  0  0
  191.2610  170.7970  138.1830 N   0  0  0  0  0  0  0  0  0  0  0  0
  189.9050  173.2440  135.6290 C   0  0  0  0  0  1  0  0  0  0  0  0
  188.1230  174.6730  139.0880 C   0  0  0  0  0  0  0  0  0  0  0  0
  189.8630  172.2650  136.8040 C   0  0  2  0  0  3  0  0  0  0  0  0
  188.3990  174.1730  140.3630 C   0  0  0  0  0  0  0  0  0  0  0  0
  190.5570  170.3640  140.3580 O   0  0  0  0  0  0  0  0  0  0  0  0
  191.5260  169.3410  136.6140 C   0  0  0  0  0  2  0  0  0  0  0  0
  191.7750  169.5600  137.9870 O   0  0  0  0  0  0  0  0  0  0  0  0
  187.3530  175.7760  138.9210 F   0  0  0  0  0  0  0  0  0  0  0  0
  190.5040  171.1220  139.3530 C   0  0  0  0  0  0  0  0  0  0  0  0
  188.6140  174.0620  137.9810 N   0  0  0  0  0  0  0  0  0  0  0  0
  189.2080  173.0130  140.4930 C   0  0  0  0  0  0  0  0  0  0  0  0
  189.3830  172.9400  138.0650 C   0  0  0  0  0  0  0  0  0  0  0  0
  189.6510  172.3500  139.3290 C   0  0  0  0  0  0  0  0  0  0  0  0
  191.5750  170.6940  135.8900 C   0  0  2  0  0  3  0  0  0  0  0  0
  187.8170  174.8890  141.5450 C   0  0  0  0  0  2  0  0  0  0  0  0
  188.3030  176.2620  141.5900 N   0  0  0  0  0  2  0  0  0  0  0  0
  187.5440  176.9090  142.6350 C   0  0  0  0  0  2  0  0  0  0  0  0
  185.8820  178.1130  141.2480 C   0  0  0  0  0  1  0  0  0  0  0  0
  186.0560  176.9990  142.2610 C   0  0  2  0  0  3  0  0  0  0  0  0
  185.2330  177.3300  143.4950 C   0  0  0  0  0  2  0  0  0  0  0  0
  184.5980  178.7000  143.3530 C   0  0  0  0  0  2  0  0  0  0  0  0
  185.3620  179.7530  144.1550 C   0  0  0  0  0  2  0  0  0  0  0  0
  186.0980  179.1170  145.3250 C   0  0  0  0  0  2  0  0  0  0  0  0
  185.1350  178.7990  146.4650 C   0  0  0  0  0  2  0  0  0  0  0  0
  185.5220  176.5600  147.2360 F   0  0  0  0  0  0  0  0  0  0  0  0
  187.2060  178.0390  147.3980 F   0  0  0  0  0  0  0  0  0  0  0  0
  185.8340  177.8740  147.4870 C   0  0  0  0  0  3  0  0  0  0  0  0
  193.0210  170.9750  135.4380 C   0  0  0  0  0  2  0  0  0  0  0  0
  193.6790  172.1920  136.1340 C   0  0  1  0  0  3  0  0  0  0  0  0
  196.6230  171.3410  138.2330 C   0  0  0  0  0  2  0  0  0  0  0  0
  195.5280  170.6220  136.2490 O   0  0  0  0  0  0  0  0  0  0  0  0
  195.3840  172.1560  137.9950 C   0  0  2  0  0  3  0  0  0  0  0  0
  195.1380  171.9400  136.5210 C   0  0  2  0  0  3  0  0  0  0  0  0
  196.6730  170.3800  137.0450 C   0  0  1  0  0  3  0  0  0  0  0  0
  197.9410  170.6220  136.2360 C   0  0  0  0  0  2  0  0  0  0  0  0
  197.7540  171.6010  135.2640 O   0  0  0  0  0  1  0  0  0  0  0  0
  195.6210  173.5750  138.2860 N   0  0  0  0  0  2  0  0  0  0  0  0
  195.7480  173.5650  140.6340 O   0  0  0  0  0  0  0  0  0  0  0  0
  196.8810  174.4040  140.6610 C   0  0  0  0  0  2  0  0  0  0  0  0
  196.4820  175.7520  141.2020 C   0  0  0  0  0  2  0  0  0  0  0  0
  194.9460  173.9720  139.5500 C   0  0  1  0  0  0  0  0  0  0  0  0
  194.6680  175.3830  139.5140 O   0  0  0  0  0  0  0  0  0  0  0  0
  195.0880  176.1010  140.6850 C   0  0  1  0  0  3  0  0  0  0  0  0
  194.1430  176.0470  141.6870 O   0  0  0  0  0  1  0  0  0  0  0  0
  192.4850  174.0320  139.4290 O   0  0  0  0  0  1  0  0  0  0  0  0
  193.4730  172.5860  140.8820 O   0  0  0  0  0  1  0  0  0  0  0  0
  193.6000  173.2140  139.6420 C   0  0  0  0  0  3  0  0  0  0  0  0
  193.2150  174.5490  136.1050 O   0  0  0  0  0  1  0  0  0  0  0  0
  193.5170  173.4500  135.3030 C   0  0  0  0  0  2  0  0  0  0  0  0
  189.7770  172.6670  141.8410 C   0  0  0  0  0  2  0  0  0  0  0  0
  191.3170  173.1560  143.6870 C   0  0  1  0  0  3  0  0  0  0  0  0
  190.6900  173.7500  142.4190 C   0  0  2  0  0  3  0  0  0  0  0  0
  190.4780  175.2140  144.8640 C   0  0  2  0  0  3  0  0  0  0  0  0
  191.9500  175.3870  145.2290 C   0  0  2  0  0  3  0  0  0  0  0  0
  192.5320  173.8380  143.8010 O   0  0  0  0  0  0  0  0  0  0  0  0
  189.7880  174.8080  146.0350 O   0  0  0  0  0  0  0  0  0  0  0  0
  190.8920  176.5690  147.2910 C   0  0  2  0  0  3  0  0  0  0  0  0
  192.6600  174.1700  145.0590 O   0  0  0  0  0  0  0  0  0  0  0  0
  190.1070  174.0910  143.8290 C   0  0  2  0  0  3  0  0  0  0  0  0
  190.6070  175.0710  147.1510 C   0  0  2  0  0  3  0  0  0  0  0  0
  191.9310  175.6130  146.7250 C   0  0  1  0  0  3  0  0  0  0  0  0
  191.2690  176.8270  148.7190 C   0  0  2  0  0  3  0  0  0  0  0  0
  190.8950  178.2040  149.0840 C   0  0  0  0  0  2  0  0  0  0  0  0
  192.2240  177.8630  148.8160 O   0  0  0  0  0  0  0  0  0  0  0  0
  1  2  1  1  0  0  0
  2 11  1  0  0  0  0
  4  6  1  0  0  0  0
  5  3  1  6  0  0  0
  5  1  1  0  0  0  0
  5 14  1  0  0  0  0
  6 13  2  0  0  0  0
  6 17  1  0  0  0  0
  8  9  1  0  0  0  0
  9  2  1  0  0  0  0
 10  4  1  0  0  0  0
 11  7  2  0  0  0  0
 12 14  1  0  0  0  0
 12  4  2  0  0  0  0
 13 52  1  0  0  0  0
 14 15  2  0  0  0  0
 15 11  1  0  0  0  0
 15 13  1  0  0  0  0
 16 30  1  1  0  0  0
 16  8  1  0  0  0  0
 16  1  1  0  0  0  0
 17 18  1  0  0  0  0
 18 19  1  0  0  0  0
 21 20  1  6  0  0  0
 21 19  1  0  0  0  0
 21 22  1  0  0  0  0
 23 22  1  0  0  0  0
 23 24  1  0  0  0  0
 24 25  1  0  0  0  0
 25 26  1  0  0  0  0
 26 29  1  0  0  0  0
 27 29  1  0  0  0  0
 28 29  1  0  0  0  0
 30 31  1  0  0  0  0
 31 51  1  6  0  0  0
 33 35  1  0  0  0  0
 33 36  1  0  0  0  0
 34 32  1  0  0  0  0
 34 39  1  6  0  0  0
 35 31  1  1  0  0  0
 35 34  1  0  0  0  0
 36 37  1  6  0  0  0
 36 32  1  0  0  0  0
 38 37  1  0  0  0  0
 40 41  1  0  0  0  0
 41 42  1  0  0  0  0
 43 39  1  6  0  0  0
 43 49  1  0  0  0  0
 43 40  1  0  0  0  0
 44 43  1  0  0  0  0
 44 45  1  0  0  0  0
 45 42  1  0  0  0  0
 45 46  1  1  0  0  0
 47 49  1  0  0  0  0
 49 48  1  0  0  0  0
 51 50  1  0  0  0  0
 53 57  1  1  0  0  0
 53 61  1  0  0  0  0
 54 52  1  6  0  0  0
 54 53  1  0  0  0  0
 54 61  1  0  0  0  0
 55 56  1  0  0  0  0
 55 58  1  1  0  0  0
 56 60  1  1  0  0  0
 56 63  1  0  0  0  0
 57 60  1  0  0  0  0
 58 62  1  0  0  0  0
 59 64  1  1  0  0  0
 61 55  1  0  0  0  0
 62 59  1  0  0  0  0
 63 62  1  0  0  0  0
 63 59  1  0  0  0  0
 64 66  1  0  0  0  0
 64 65  1  0  0  0  0
 66 65  1  0  0  0  0
M  END
>  <MODEL>
2

>  <REMARK>
 VINA RESULT:      -6.8      2.528      7.517
  Name = 
  21 active torsions:
  status: ('A' for Active; 'I' for Inactive)
    1  A    between atoms: C_3  and  C_9
    2  A    between atoms: C_3  and  C_66
    3  A    between atoms: C_5  and  C_58
    4  A    between atoms: C_6  and  C_37
    5  A    between atoms: C_6  and  C_46
    6  A    between atoms: C_9  and  C_45
    7  A    between atoms: C_9  and  C_60
    8  A    between atoms: N_10  and  C_28
    9  A    between atoms: N_10  and  C_32
   10  A    between atoms: C_13  and  C_37
   11  A    between atoms: C_13  and  C_38
   12  A    between atoms: C_20  and  C_22
   13  A    between atoms: C_22  and  N_29
   14  A    between atoms: N_29  and  C_61
   15  A    between atoms: C_32  and  C_59
   16  A    between atoms: C_34  and  C_35
   17  A    between atoms: C_36  and  C_38
   18  A    between atoms: C_36  and  C_50
   19  A    between atoms: C_39  and  C_62
   20  A    between atoms: C_50  and  C_61
   21  A    between atoms: C_54  and  C_58
                            x       y       z     vdW  Elec       q    Type
                         _______ _______ _______ _____ _____    ______ ____

>  <TORSDO>
F 21

$$$$
=
 OpenBabel11042416213D

 66 75  0  0  1  0  0  0  0  0999 V2000
  193.0540  175.6220  145.6750 C   0  0  2  0  0  3  0  0  0  0  0  0
  192.8440  176.4390  144.4980 N   0  0  0  0  0  0  0  0  0  0  0  0
  192.2730  175.1180  148.0020 C   0  0  0  0  0  1  0  0  0  0  0  0
  188.3740  175.8990  146.8280 C   0  0  0  0  0  0  0  0  0  0  0  0
  192.1190  176.0650  146.8100 C   0  0  2  0  0  3  0  0  0  0  0  0
  188.0230  176.3050  145.5380 C   0  0  0  0  0  0  0  0  0  0  0  0
  191.4080  177.6140  143.0920 O   0  0  0  0  0  0  0  0  0  0  0  0
  194.8370  177.0320  145.0700 C   0  0  0  0  0  2  0  0  0  0  0  0
  193.9710  176.9540  143.9560 O   0  0  0  0  0  0  0  0  0  0  0  0
  187.4280  175.5870  147.7450 F   0  0  0  0  0  0  0  0  0  0  0  0
  191.5450  176.9210  144.1350 C   0  0  0  0  0  0  0  0  0  0  0  0
  189.6770  175.8130  147.1980 N   0  0  0  0  0  0  0  0  0  0  0  0
  189.0460  176.6250  144.6080 C   0  0  0  0  0  0  0  0  0  0  0  0
  190.6870  176.1250  146.3370 C   0  0  0  0  0  0  0  0  0  0  0  0
  190.3920  176.5990  145.0310 C   0  0  0  0  0  0  0  0  0  0  0  0
  194.4860  175.8920  146.0360 C   0  0  2  0  0  3  0  0  0  0  0  0
  186.5650  176.3890  145.1970 C   0  0  0  0  0  2  0  0  0  0  0  0
  185.7560  176.2280  146.3980 N   0  0  0  0  0  2  0  0  0  0  0  0
  184.7790  177.2910  146.3550 C   0  0  0  0  0  2  0  0  0  0  0  0
  185.7710  179.4680  146.9960 C   0  0  0  0  0  1  0  0  0  0  0  0
  185.4010  178.5900  145.8180 C   0  0  2  0  0  3  0  0  0  0  0  0
  184.3880  179.3300  144.9580 C   0  0  0  0  0  2  0  0  0  0  0  0
  185.0740  179.9590  143.7600 C   0  0  0  0  0  2  0  0  0  0  0  0
  185.9630  178.9500  143.0340 C   0  0  0  0  0  2  0  0  0  0  0  0
  185.1240  177.8850  142.3440 C   0  0  0  0  0  2  0  0  0  0  0  0
  184.8180  178.2820  140.9020 C   0  0  0  0  0  2  0  0  0  0  0  0
  182.8460  177.5610  139.7420 F   0  0  0  0  0  0  0  0  0  0  0  0
  182.6520  178.1190  141.9100 F   0  0  0  0  0  0  0  0  0  0  0  0
  183.2900  178.4190  140.7190 C   0  0  0  0  0  3  0  0  0  0  0  0
  195.3070  174.6420  145.6660 C   0  0  0  0  0  2  0  0  0  0  0  0
  194.5690  173.6520  144.7300 C   0  0  1  0  0  3  0  0  0  0  0  0
  194.9350  172.8320  141.1260 C   0  0  0  0  0  2  0  0  0  0  0  0
  194.8950  174.7180  142.5720 O   0  0  0  0  0  0  0  0  0  0  0  0
  194.6770  172.4000  142.5410 C   0  0  2  0  0  3  0  0  0  0  0  0
  195.1890  173.5790  143.3330 C   0  0  2  0  0  3  0  0  0  0  0  0
  195.0950  174.3490  141.2210 C   0  0  1  0  0  3  0  0  0  0  0  0
  196.4910  174.7520  140.7630 C   0  0  0  0  0  2  0  0  0  0  0  0
  196.6560  176.1340  140.7670 O   0  0  0  0  0  1  0  0  0  0  0  0
  195.4270  171.1810  142.8660 N   0  0  0  0  0  2  0  0  0  0  0  0
  194.9970  168.9070  143.2790 O   0  0  0  0  0  0  0  0  0  0  0  0
  194.3540  169.1630  144.5060 C   0  0  0  0  0  2  0  0  0  0  0  0
  192.8810  168.8850  144.3570 C   0  0  0  0  0  2  0  0  0  0  0  0
  194.6920  169.9730  142.4100 C   0  0  1  0  0  0  0  0  0  0  0  0
  193.2890  170.2810  142.3180 O   0  0  0  0  0  0  0  0  0  0  0  0
  192.4290  169.3320  142.9690 C   0  0  1  0  0  3  0  0  0  0  0  0
  192.1400  168.2580  142.1550 O   0  0  0  0  0  1  0  0  0  0  0  0
  194.3040  169.9310  139.9760 O   0  0  0  0  0  1  0  0  0  0  0  0
  195.4870  168.2340  140.9240 O   0  0  0  0  0  1  0  0  0  0  0  0
  195.2000  169.5980  140.9980 C   0  0  0  0  0  3  0  0  0  0  0  0
  195.6000  171.9470  146.0710 O   0  0  0  0  0  1  0  0  0  0  0  0
  194.4430  172.2840  145.3730 C   0  0  0  0  0  2  0  0  0  0  0  0
  188.6990  176.7380  143.1490 C   0  0  0  0  0  2  0  0  0  0  0  0
  189.3180  174.3770  142.9060 C   0  0  1  0  0  3  0  0  0  0  0  0
  188.2570  175.4160  142.5200 C   0  0  2  0  0  3  0  0  0  0  0  0
  189.4770  173.8730  140.4480 C   0  0  2  0  0  3  0  0  0  0  0  0
  189.1340  172.4550  140.8990 C   0  0  2  0  0  3  0  0  0  0  0  0
  188.6110  173.1700  142.8970 O   0  0  0  0  0  0  0  0  0  0  0  0
  190.8470  173.8880  140.0770 O   0  0  0  0  0  0  0  0  0  0  0  0
  190.5110  171.8680  138.7710 C   0  0  2  0  0  3  0  0  0  0  0  0
  189.3700  172.2960  142.2890 O   0  0  0  0  0  0  0  0  0  0  0  0
  189.3880  175.0230  141.5140 C   0  0  2  0  0  3  0  0  0  0  0  0
  191.2770  172.5570  139.9030 C   0  0  2  0  0  3  0  0  0  0  0  0
  190.1850  171.5950  140.2310 C   0  0  1  0  0  3  0  0  0  0  0  0
  191.3480  170.7210  138.2890 C   0  0  2  0  0  3  0  0  0  0  0  0
  191.8960  171.0390  136.9600 C   0  0  0  0  0  2  0  0  0  0  0  0
  190.8170  170.1630  137.1060 O   0  0  0  0  0  0  0  0  0  0  0  0
  1  2  1  6  0  0  0
  1 16  1  0  0  0  0
  1  5  1  0  0  0  0
  4 12  1  0  0  0  0
  4 10  1  0  0  0  0
  5  3  1  1  0  0  0
  6  4  2  0  0  0  0
  7 11  2  0  0  0  0
  8 16  1  0  0  0  0
  9  2  1  0  0  0  0
  9  8  1  0  0  0  0
 11  2  1  0  0  0  0
 11 15  1  0  0  0  0
 13 15  2  0  0  0  0
 13  6  1  0  0  0  0
 14  5  1  0  0  0  0
 14 12  2  0  0  0  0
 15 14  1  0  0  0  0
 16 30  1  6  0  0  0
 17  6  1  0  0  0  0
 17 18  1  0  0  0  0
 19 18  1  0  0  0  0
 21 19  1  0  0  0  0
 21 20  1  1  0  0  0
 22 21  1  0  0  0  0
 23 22  1  0  0  0  0
 24 23  1  0  0  0  0
 25 24  1  0  0  0  0
 26 25  1  0  0  0  0
 27 29  1  0  0  0  0
 29 26  1  0  0  0  0
 29 28  1  0  0  0  0
 31 51  1  1  0  0  0
 31 30  1  0  0  0  0
 32 36  1  0  0  0  0
 32 34  1  0  0  0  0
 33 35  1  0  0  0  0
 34 39  1  1  0  0  0
 34 35  1  0  0  0  0
 35 31  1  1  0  0  0
 36 37  1  1  0  0  0
 36 33  1  0  0  0  0
 37 38  1  0  0  0  0
 40 41  1  0  0  0  0
 42 41  1  0  0  0  0
 43 49  1  6  0  0  0
 43 39  1  0  0  0  0
 43 40  1  0  0  0  0
 44 43  1  0  0  0  0
 44 45  1  0  0  0  0
 45 46  1  6  0  0  0
 45 42  1  0  0  0  0
 47 49  1  0  0  0  0
 48 49  1  0  0  0  0
 51 50  1  0  0  0  0
 52 13  1  0  0  0  0
 53 57  1  6  0  0  0
 54 53  1  0  0  0  0
 54 52  1  1  0  0  0
 55 58  1  1  0  0  0
 55 56  1  0  0  0  0
 55 61  1  0  0  0  0
 56 60  1  1  0  0  0
 59 64  1  1  0  0  0
 59 62  1  0  0  0  0
 59 63  1  0  0  0  0
 60 57  1  0  0  0  0
 61 54  1  0  0  0  0
 61 53  1  0  0  0  0
 62 58  1  0  0  0  0
 62 63  1  0  0  0  0
 63 56  1  0  0  0  0
 65 66  1  0  0  0  0
 65 64  1  0  0  0  0
 66 64  1  0  0  0  0
M  END
>  <MODEL>
3

>  <REMARK>
 VINA RESULT:      -6.6      1.862      3.085
  Name = 
  21 active torsions:
  status: ('A' for Active; 'I' for Inactive)
    1  A    between atoms: C_3  and  C_9
    2  A    between atoms: C_3  and  C_66
    3  A    between atoms: C_5  and  C_58
    4  A    between atoms: C_6  and  C_37
    5  A    between atoms: C_6  and  C_46
    6  A    between atoms: C_9  and  C_45
    7  A    between atoms: C_9  and  C_60
    8  A    between atoms: N_10  and  C_28
    9  A    between atoms: N_10  and  C_32
   10  A    between atoms: C_13  and  C_37
   11  A    between atoms: C_13  and  C_38
   12  A    between atoms: C_20  and  C_22
   13  A    between atoms: C_22  and  N_29
   14  A    between atoms: N_29  and  C_61
   15  A    between atoms: C_32  and  C_59
   16  A    between atoms: C_34  and  C_35
   17  A    between atoms: C_36  and  C_38
   18  A    between atoms: C_36  and  C_50
   19  A    between atoms: C_39  and  C_62
   20  A    between atoms: C_50  and  C_61
   21  A    between atoms: C_54  and  C_58
                            x       y       z     vdW  Elec       q    Type
                         _______ _______ _______ _____ _____    ______ ____

>  <TORSDO>
F 21

$$$$
=
 OpenBabel11042416213D

 66 75  0  0  1  0  0  0  0  0999 V2000
  189.2490  173.8480  137.9490 C   0  0  2  0  0  3  0  0  0  0  0  0
  189.4010  173.0000  139.1140 N   0  0  0  0  0  0  0  0  0  0  0  0
  187.8080  175.5540  136.8150 C   0  0  0  0  0  1  0  0  0  0  0  0
  186.7890  177.1110  140.5190 C   0  0  0  0  0  0  0  0  0  0  0  0
  187.8990  174.5780  137.9890 C   0  0  2  0  0  3  0  0  0  0  0  0
  187.2490  176.5860  141.7300 C   0  0  0  0  0  0  0  0  0  0  0  0
  189.0640  172.6190  141.3850 O   0  0  0  0  0  0  0  0  0  0  0  0
  189.2650  171.5320  137.5400 C   0  0  0  0  0  2  0  0  0  0  0  0
  189.7720  171.7270  138.8440 O   0  0  0  0  0  0  0  0  0  0  0  0
  186.0920  178.2710  140.4800 F   0  0  0  0  0  0  0  0  0  0  0  0
  188.8920  173.3810  140.3960 C   0  0  0  0  0  0  0  0  0  0  0  0
  187.0250  176.4660  139.3490 N   0  0  0  0  0  0  0  0  0  0  0  0
  187.9740  175.3660  141.7270 C   0  0  0  0  0  0  0  0  0  0  0  0
  187.7060  175.2860  139.3080 C   0  0  0  0  0  0  0  0  0  0  0  0
  188.1490  174.6730  140.5100 C   0  0  0  0  0  0  0  0  0  0  0  0
  189.2910  172.8790  136.8030 C   0  0  2  0  0  3  0  0  0  0  0  0
  186.9450  177.3430  142.9880 C   0  0  0  0  0  2  0  0  0  0  0  0
  185.8420  176.7130  143.7020 N   0  0  0  0  0  2  0  0  0  0  0  0
  185.1730  177.7810  144.4070 C   0  0  0  0  0  2  0  0  0  0  0  0
  185.4350  178.8920  146.6050 C   0  0  0  0  0  1  0  0  0  0  0  0
  185.2210  177.5540  145.9260 C   0  0  2  0  0  3  0  0  0  0  0  0
  186.3850  176.6390  146.2750 C   0  0  0  0  0  2  0  0  0  0  0  0
  187.5200  177.4400  146.8840 C   0  0  0  0  0  2  0  0  0  0  0  0
  188.8450  177.1490  146.1830 C   0  0  0  0  0  2  0  0  0  0  0  0
  189.6040  176.0390  146.8950 C   0  0  0  0  0  2  0  0  0  0  0  0
  190.8120  176.5980  147.6430 C   0  0  0  0  0  2  0  0  0  0  0  0
  193.1730  176.9140  147.3610 F   0  0  0  0  0  0  0  0  0  0  0  0
  192.3590  174.8270  147.1870 F   0  0  0  0  0  0  0  0  0  0  0  0
  192.1090  176.1630  146.9240 C   0  0  0  0  0  3  0  0  0  0  0  0
  190.6500  173.0450  136.0970 C   0  0  0  0  0  2  0  0  0  0  0  0
  191.2030  174.4930  136.1160 C   0  0  1  0  0  3  0  0  0  0  0  0
  194.7210  173.3570  136.4790 C   0  0  0  0  0  2  0  0  0  0  0  0
  193.4310  174.9360  135.2570 O   0  0  0  0  0  0  0  0  0  0  0  0
  193.2640  173.2140  136.8150 C   0  0  2  0  0  3  0  0  0  0  0  0
  192.7070  174.5520  136.3930 C   0  0  2  0  0  3  0  0  0  0  0  0
  194.7620  174.5130  135.4800 C   0  0  1  0  0  3  0  0  0  0  0  0
  195.5940  175.6570  136.0470 C   0  0  0  0  0  2  0  0  0  0  0  0
  195.3380  176.8560  135.3880 O   0  0  0  0  0  1  0  0  0  0  0  0
  193.0740  172.9960  138.2540 N   0  0  0  0  0  2  0  0  0  0  0  0
  194.8890  171.6550  138.9140 O   0  0  0  0  0  0  0  0  0  0  0  0
  195.0670  172.3440  140.1300 C   0  0  0  0  0  2  0  0  0  0  0  0
  194.6550  171.4470  141.2680 C   0  0  0  0  0  2  0  0  0  0  0  0
  193.5070  171.6280  138.6400 C   0  0  1  0  0  0  0  0  0  0  0  0
  192.6950  171.1650  139.7340 O   0  0  0  0  0  0  0  0  0  0  0  0
  193.4380  170.6300  140.8410 C   0  0  1  0  0  3  0  0  0  0  0  0
  193.7550  169.3020  140.6520 O   0  0  0  0  0  1  0  0  0  0  0  0
  192.1850  169.8290  137.5960 O   0  0  0  0  0  1  0  0  0  0  0  0
  194.4200  169.9230  137.1810 O   0  0  0  0  0  1  0  0  0  0  0  0
  193.2790  170.6860  137.4340 C   0  0  0  0  0  3  0  0  0  0  0  0
  190.8580  176.6170  135.0500 O   0  0  0  0  0  1  0  0  0  0  0  0
  190.8240  175.2380  134.8510 C   0  0  0  0  0  2  0  0  0  0  0  0
  188.7460  174.9720  142.9560 C   0  0  0  0  0  2  0  0  0  0  0  0
  190.8930  174.3590  143.9710 C   0  0  1  0  0  3  0  0  0  0  0  0
  190.1090  174.3510  142.6520 C   0  0  2  0  0  3  0  0  0  0  0  0
  192.7110  175.5310  142.6900 C   0  0  2  0  0  3  0  0  0  0  0  0
  193.5590  174.3550  143.1670 C   0  0  2  0  0  3  0  0  0  0  0  0
  191.7750  173.2830  143.8350 O   0  0  0  0  0  0  0  0  0  0  0  0
  193.1100  176.6770  143.4270 O   0  0  0  0  0  0  0  0  0  0  0  0
  195.4380  176.1450  142.9860 C   0  0  2  0  0  3  0  0  0  0  0  0
  192.9400  173.6960  144.2600 O   0  0  0  0  0  0  0  0  0  0  0  0
  191.1630  175.4700  142.9440 C   0  0  2  0  0  3  0  0  0  0  0  0
  194.3530  176.4080  144.0340 C   0  0  2  0  0  3  0  0  0  0  0  0
  194.7890  175.0070  143.7590 C   0  0  1  0  0  3  0  0  0  0  0  0
  196.7650  176.4110  143.6330 C   0  0  2  0  0  3  0  0  0  0  0  0
  197.8460  175.9900  142.7250 C   0  0  0  0  0  2  0  0  0  0  0  0
  197.4860  175.2130  143.8290 O   0  0  0  0  0  0  0  0  0  0  0  0
  1  5  1  0  0  0  0
  1  2  1  1  0  0  0
  2 11  1  0  0  0  0
  4  6  1  0  0  0  0
  5  3  1  6  0  0  0
  5 14  1  0  0  0  0
  6 17  1  0  0  0  0
  8  9  1  0  0  0  0
  9  2  1  0  0  0  0
 10  4  1  0  0  0  0
 11 15  1  0  0  0  0
 11  7  2  0  0  0  0
 12  4  2  0  0  0  0
 13  6  2  0  0  0  0
 13 52  1  0  0  0  0
 14 12  1  0  0  0  0
 14 15  2  0  0  0  0
 15 13  1  0  0  0  0
 16 30  1  1  0  0  0
 16  8  1  0  0  0  0
 16  1  1  0  0  0  0
 17 18  1  0  0  0  0
 18 19  1  0  0  0  0
 19 21  1  0  0  0  0
 21 22  1  0  0  0  0
 21 20  1  1  0  0  0
 22 23  1  0  0  0  0
 24 23  1  0  0  0  0
 24 25  1  0  0  0  0
 25 26  1  0  0  0  0
 29 28  1  0  0  0  0
 29 27  1  0  0  0  0
 29 26  1  0  0  0  0
 30 31  1  0  0  0  0
 31 51  1  6  0  0  0
 32 34  1  0  0  0  0
 33 36  1  0  0  0  0
 33 35  1  0  0  0  0
 34 39  1  1  0  0  0
 35 31  1  6  0  0  0
 35 34  1  0  0  0  0
 36 37  1  1  0  0  0
 36 32  1  0  0  0  0
 38 37  1  0  0  0  0
 39 43  1  0  0  0  0
 40 41  1  0  0  0  0
 41 42  1  0  0  0  0
 43 49  1  6  0  0  0
 43 40  1  0  0  0  0
 43 44  1  0  0  0  0
 44 45  1  0  0  0  0
 45 46  1  6  0  0  0
 45 42  1  0  0  0  0
 48 49  1  0  0  0  0
 49 47  1  0  0  0  0
 51 50  1  0  0  0  0
 53 57  1  6  0  0  0
 54 61  1  0  0  0  0
 54 52  1  1  0  0  0
 54 53  1  0  0  0  0
 55 61  1  0  0  0  0
 55 56  1  0  0  0  0
 55 58  1  1  0  0  0
 56 63  1  0  0  0  0
 56 60  1  1  0  0  0
 57 60  1  0  0  0  0
 58 62  1  0  0  0  0
 59 64  1  1  0  0  0
 59 63  1  0  0  0  0
 59 62  1  0  0  0  0
 61 53  1  0  0  0  0
 63 62  1  0  0  0  0
 64 66  1  0  0  0  0
 65 64  1  0  0  0  0
 65 66  1  0  0  0  0
M  END
>  <MODEL>
4

>  <REMARK>
 VINA RESULT:      -6.3      2.860      7.347
  Name = 
  21 active torsions:
  status: ('A' for Active; 'I' for Inactive)
    1  A    between atoms: C_3  and  C_9
    2  A    between atoms: C_3  and  C_66
    3  A    between atoms: C_5  and  C_58
    4  A    between atoms: C_6  and  C_37
    5  A    between atoms: C_6  and  C_46
    6  A    between atoms: C_9  and  C_45
    7  A    between atoms: C_9  and  C_60
    8  A    between atoms: N_10  and  C_28
    9  A    between atoms: N_10  and  C_32
   10  A    between atoms: C_13  and  C_37
   11  A    between atoms: C_13  and  C_38
   12  A    between atoms: C_20  and  C_22
   13  A    between atoms: C_22  and  N_29
   14  A    between atoms: N_29  and  C_61
   15  A    between atoms: C_32  and  C_59
   16  A    between atoms: C_34  and  C_35
   17  A    between atoms: C_36  and  C_38
   18  A    between atoms: C_36  and  C_50
   19  A    between atoms: C_39  and  C_62
   20  A    between atoms: C_50  and  C_61
   21  A    between atoms: C_54  and  C_58
                            x       y       z     vdW  Elec       q    Type
                         _______ _______ _______ _____ _____    ______ ____

>  <TORSDO>
F 21

$$$$
=
 OpenBabel11042416213D

 66 75  0  0  1  0  0  0  0  0999 V2000
  191.4340  174.7020  144.8730 C   0  0  2  0  0  3  0  0  0  0  0  0
  190.9340  173.3560  144.6740 N   0  0  0  0  0  0  0  0  0  0  0  0
  193.4150  176.0900  145.5230 C   0  0  0  0  0  1  0  0  0  0  0  0
  195.9100  173.3210  143.7080 C   0  0  0  0  0  0  0  0  0  0  0  0
  192.8650  174.6650  145.4300 C   0  0  2  0  0  3  0  0  0  0  0  0
  195.4510  172.1520  143.0970 C   0  0  0  0  0  0  0  0  0  0  0  0
  191.3030  171.1410  144.0620 O   0  0  0  0  0  0  0  0  0  0  0  0
  189.6640  174.0430  146.2760 C   0  0  0  0  0  2  0  0  0  0  0  0
  189.7140  173.1200  145.2070 O   0  0  0  0  0  0  0  0  0  0  0  0
  197.2070  173.6990  143.6090 F   0  0  0  0  0  0  0  0  0  0  0  0
  191.7860  172.2910  144.2400 C   0  0  0  0  0  0  0  0  0  0  0  0
  195.0680  174.1080  144.4230 N   0  0  0  0  0  0  0  0  0  0  0  0
  194.0840  171.7910  143.2270 C   0  0  0  0  0  0  0  0  0  0  0  0
  193.7520  173.7880  144.5810 C   0  0  0  0  0  0  0  0  0  0  0  0
  193.2380  172.5830  144.0330 C   0  0  0  0  0  0  0  0  0  0  0  0
  190.4880  175.2790  145.8870 C   0  0  2  0  0  3  0  0  0  0  0  0
  196.4360  171.3220  142.3290 C   0  0  0  0  0  2  0  0  0  0  0  0
  196.7210  171.9420  141.0420 N   0  0  0  0  0  2  0  0  0  0  0  0
  196.4710  170.9190  140.0530 C   0  0  0  0  0  2  0  0  0  0  0  0
  197.9410  171.9660  138.3580 C   0  0  0  0  0  1  0  0  0  0  0  0
  196.5260  171.4990  138.6320 C   0  0  2  0  0  3  0  0  0  0  0  0
  195.5900  172.6930  138.5250 C   0  0  0  0  0  2  0  0  0  0  0  0
  196.3870  173.9800  138.4260 C   0  0  0  0  0  2  0  0  0  0  0  0
  195.4710  175.2020  138.4150 C   0  0  0  0  0  2  0  0  0  0  0  0
  194.4250  175.1070  139.5160 C   0  0  0  0  0  2  0  0  0  0  0  0
  194.8700  175.8760  140.7580 C   0  0  0  0  0  2  0  0  0  0  0  0
  193.1080  176.9810  141.9540 F   0  0  0  0  0  0  0  0  0  0  0  0
  192.8670  174.7920  141.5000 F   0  0  0  0  0  0  0  0  0  0  0  0
  193.7730  175.7830  141.8410 C   0  0  0  0  0  3  0  0  0  0  0  0
  189.5790  176.2870  145.1600 C   0  0  0  0  0  2  0  0  0  0  0  0
  189.2170  177.5370  146.0000 C   0  0  1  0  0  3  0  0  0  0  0  0
  185.5850  177.1340  145.3360 C   0  0  0  0  0  2  0  0  0  0  0  0
  187.1260  177.0720  147.1450 O   0  0  0  0  0  0  0  0  0  0  0  0
  186.9860  177.3410  144.8360 C   0  0  2  0  0  3  0  0  0  0  0  0
  187.7090  177.7810  146.0860 C   0  0  2  0  0  3  0  0  0  0  0  0
  185.7440  176.9930  146.8500 C   0  0  1  0  0  3  0  0  0  0  0  0
  184.9870  178.1110  147.5560 C   0  0  0  0  0  2  0  0  0  0  0  0
  183.9860  178.6450  146.7480 O   0  0  0  0  0  1  0  0  0  0  0  0
  187.0300  178.3860  143.8070 N   0  0  0  0  0  2  0  0  0  0  0  0
  188.2150  178.3550  141.7760 O   0  0  0  0  0  0  0  0  0  0  0  0
  189.3870  177.8450  142.3690 C   0  0  0  0  0  2  0  0  0  0  0  0
  189.5900  176.4230  141.9150 C   0  0  0  0  0  2  0  0  0  0  0  0
  187.1170  177.7850  142.4510 C   0  0  1  0  0  0  0  0  0  0  0  0
  187.1730  176.3520  142.5710 O   0  0  0  0  0  0  0  0  0  0  0  0
  188.2300  175.7340  141.8210 C   0  0  1  0  0  3  0  0  0  0  0  0
  187.8640  175.5040  140.5110 O   0  0  0  0  0  1  0  0  0  0  0  0
  184.6550  177.7900  142.3300 O   0  0  0  0  0  1  0  0  0  0  0  0
  185.8430  177.5760  140.4010 O   0  0  0  0  0  1  0  0  0  0  0  0
  185.8330  178.1560  141.6700 C   0  0  0  0  0  3  0  0  0  0  0  0
  189.5500  178.6100  148.1240 O   0  0  0  0  0  1  0  0  0  0  0  0
  189.8670  177.4820  147.3690 C   0  0  0  0  0  2  0  0  0  0  0  0
  193.5170  170.7370  142.3170 C   0  0  0  0  0  2  0  0  0  0  0  0
  192.0350  170.3800  140.3950 C   0  0  1  0  0  3  0  0  0  0  0  0
  192.1410  171.0920  141.7500 C   0  0  2  0  0  3  0  0  0  0  0  0
  191.4500  172.6330  139.4450 C   0  0  2  0  0  3  0  0  0  0  0  0
  190.1910  171.9100  138.9770 C   0  0  2  0  0  3  0  0  0  0  0  0
  190.6600  170.1850  140.2340 O   0  0  0  0  0  0  0  0  0  0  0  0
  192.2650  172.8630  138.3060 O   0  0  0  0  0  0  0  0  0  0  0  0
  190.3320  173.7060  137.1000 C   0  0  2  0  0  3  0  0  0  0  0  0
  190.3770  170.5030  138.9990 O   0  0  0  0  0  0  0  0  0  0  0  0
  192.4160  171.8680  140.4200 C   0  0  2  0  0  3  0  0  0  0  0  0
  191.4760  172.6900  137.1500 C   0  0  2  0  0  3  0  0  0  0  0  0
  190.0920  172.2600  137.5080 C   0  0  1  0  0  3  0  0  0  0  0  0
  189.9020  173.8320  135.6690 C   0  0  2  0  0  3  0  0  0  0  0  0
  190.1140  175.2160  135.2140 C   0  0  0  0  0  2  0  0  0  0  0  0
  188.8370  174.7500  135.5360 O   0  0  0  0  0  0  0  0  0  0  0  0
  1  2  1  1  0  0  0
  1  5  1  0  0  0  0
  1 16  1  0  0  0  0
  2  9  1  0  0  0  0
  4 12  1  0  0  0  0
  5  3  1  6  0  0  0
  6 13  1  0  0  0  0
  6  4  2  0  0  0  0
  7 11  2  0  0  0  0
  9  8  1  0  0  0  0
 10  4  1  0  0  0  0
 11  2  1  0  0  0  0
 12 14  2  0  0  0  0
 13 15  2  0  0  0  0
 14  5  1  0  0  0  0
 15 11  1  0  0  0  0
 15 14  1  0  0  0  0
 16 30  1  6  0  0  0
 16  8  1  0  0  0  0
 17  6  1  0  0  0  0
 18 17  1  0  0  0  0
 19 18  1  0  0  0  0
 21 20  1  1  0  0  0
 21 19  1  0  0  0  0
 22 21  1  0  0  0  0
 23 22  1  0  0  0  0
 24 23  1  0  0  0  0
 24 25  1  0  0  0  0
 25 26  1  0  0  0  0
 26 29  1  0  0  0  0
 28 29  1  0  0  0  0
 29 27  1  0  0  0  0
 31 30  1  1  0  0  0
 31 51  1  0  0  0  0
 32 36  1  0  0  0  0
 34 39  1  6  0  0  0
 34 32  1  0  0  0  0
 34 35  1  0  0  0  0
 35 31  1  6  0  0  0
 35 33  1  0  0  0  0
 36 33  1  0  0  0  0
 36 37  1  1  0  0  0
 38 37  1  0  0  0  0
 40 41  1  0  0  0  0
 40 43  1  0  0  0  0
 42 41  1  0  0  0  0
 43 49  1  6  0  0  0
 43 44  1  0  0  0  0
 43 39  1  0  0  0  0
 45 46  1  6  0  0  0
 45 42  1  0  0  0  0
 45 44  1  0  0  0  0
 48 49  1  0  0  0  0
 49 47  1  0  0  0  0
 51 50  1  0  0  0  0
 52 13  1  0  0  0  0
 53 57  1  6  0  0  0
 53 61  1  0  0  0  0
 53 54  1  0  0  0  0
 54 52  1  1  0  0  0
 55 58  1  6  0  0  0
 55 61  1  0  0  0  0
 56 60  1  6  0  0  0
 56 55  1  0  0  0  0
 59 64  1  6  0  0  0
 59 62  1  0  0  0  0
 59 63  1  0  0  0  0
 60 57  1  0  0  0  0
 61 54  1  0  0  0  0
 62 63  1  0  0  0  0
 62 58  1  0  0  0  0
 63 56  1  0  0  0  0
 65 66  1  0  0  0  0
 65 64  1  0  0  0  0
 66 64  1  0  0  0  0
M  END
>  <MODEL>
5

>  <REMARK>
 VINA RESULT:      -6.2      3.207      8.724
  Name = 
  21 active torsions:
  status: ('A' for Active; 'I' for Inactive)
    1  A    between atoms: C_3  and  C_9
    2  A    between atoms: C_3  and  C_66
    3  A    between atoms: C_5  and  C_58
    4  A    between atoms: C_6  and  C_37
    5  A    between atoms: C_6  and  C_46
    6  A    between atoms: C_9  and  C_45
    7  A    between atoms: C_9  and  C_60
    8  A    between atoms: N_10  and  C_28
    9  A    between atoms: N_10  and  C_32
   10  A    between atoms: C_13  and  C_37
   11  A    between atoms: C_13  and  C_38
   12  A    between atoms: C_20  and  C_22
   13  A    between atoms: C_22  and  N_29
   14  A    between atoms: N_29  and  C_61
   15  A    between atoms: C_32  and  C_59
   16  A    between atoms: C_34  and  C_35
   17  A    between atoms: C_36  and  C_38
   18  A    between atoms: C_36  and  C_50
   19  A    between atoms: C_39  and  C_62
   20  A    between atoms: C_50  and  C_61
   21  A    between atoms: C_54  and  C_58
                            x       y       z     vdW  Elec       q    Type
                         _______ _______ _______ _____ _____    ______ ____

>  <TORSDO>
F 21

$$$$
=
 OpenBabel11042416213D

 66 75  0  0  1  0  0  0  0  0999 V2000
  190.5730  172.8830  141.3910 C   0  0  2  0  0  3  0  0  0  0  0  0
  190.5670  173.5200  140.0900 N   0  0  0  0  0  0  0  0  0  0  0  0
  191.2710  170.8590  142.6920 C   0  0  0  0  0  1  0  0  0  0  0  0
  194.6770  170.5650  140.3490 C   0  0  0  0  0  0  0  0  0  0  0  0
  191.1650  171.4690  141.2930 C   0  0  2  0  0  3  0  0  0  0  0  0
  194.9660  171.4340  139.2940 C   0  0  0  0  0  0  0  0  0  0  0  0
  191.5760  173.8960  138.0270 O   0  0  0  0  0  0  0  0  0  0  0  0
  188.4540  173.2840  140.4520 C   0  0  0  0  0  2  0  0  0  0  0  0
  189.3830  174.0690  139.7330 O   0  0  0  0  0  0  0  0  0  0  0  0
  195.5840  169.6510  140.7700 F   0  0  0  0  0  0  0  0  0  0  0  0
  191.6150  173.3050  139.1390 C   0  0  0  0  0  0  0  0  0  0  0  0
  193.4760  170.6100  140.9760 N   0  0  0  0  0  0  0  0  0  0  0  0
  193.9870  172.3760  138.8820 C   0  0  0  0  0  0  0  0  0  0  0  0
  192.5050  171.4910  140.6000 C   0  0  0  0  0  0  0  0  0  0  0  0
  192.7170  172.3610  139.4980 C   0  0  0  0  0  0  0  0  0  0  0  0
  189.1180  172.8220  141.7570 C   0  0  2  0  0  3  0  0  0  0  0  0
  196.3090  171.3250  138.6360 C   0  0  0  0  0  2  0  0  0  0  0  0
  196.1900  171.5680  137.2040 N   0  0  0  0  0  2  0  0  0  0  0  0
  196.3280  170.2740  136.5780 C   0  0  0  0  0  2  0  0  0  0  0  0
  195.9710  171.6860  134.5750 C   0  0  0  0  0  1  0  0  0  0  0  0
  195.7800  170.2940  135.1430 C   0  0  2  0  0  3  0  0  0  0  0  0
  194.2940  169.9730  135.1540 C   0  0  0  0  0  2  0  0  0  0  0  0
  193.4820  171.2230  134.8690 C   0  0  0  0  0  2  0  0  0  0  0  0
  192.2730  171.3250  135.7970 C   0  0  0  0  0  2  0  0  0  0  0  0
  191.9450  169.9730  136.4130 C   0  0  0  0  0  2  0  0  0  0  0  0
  190.4360  169.7780  136.5260 C   0  0  0  0  0  2  0  0  0  0  0  0
  191.1250  169.2080  138.7520 F   0  0  0  0  0  0  0  0  0  0  0  0
  189.6080  170.8480  138.5030 F   0  0  0  0  0  0  0  0  0  0  0  0
  190.0450  169.6280  138.0130 C   0  0  0  0  0  3  0  0  0  0  0  0
  188.8660  173.8730  142.8550 C   0  0  0  0  0  2  0  0  0  0  0  0
  189.1800  175.3280  142.4250 C   0  0  1  0  0  3  0  0  0  0  0  0
  186.9940  178.2200  143.2350 C   0  0  0  0  0  2  0  0  0  0  0  0
  187.9370  177.1170  141.3520 O   0  0  0  0  0  0  0  0  0  0  0  0
  187.8750  177.0870  143.6800 C   0  0  2  0  0  3  0  0  0  0  0  0
  187.9450  176.2320  142.4380 C   0  0  2  0  0  3  0  0  0  0  0  0
  187.0560  178.1660  141.7090 C   0  0  1  0  0  3  0  0  0  0  0  0
  185.6660  177.9060  141.1430 C   0  0  0  0  0  2  0  0  0  0  0  0
  184.6710  178.1590  142.0840 O   0  0  0  0  0  1  0  0  0  0  0  0
  187.2650  176.3500  144.7930 N   0  0  0  0  0  2  0  0  0  0  0  0
  187.8580  175.7790  146.9950 O   0  0  0  0  0  0  0  0  0  0  0  0
  188.9440  174.9790  146.5870 C   0  0  0  0  0  2  0  0  0  0  0  0
  190.2300  175.6660  146.9670 C   0  0  0  0  0  2  0  0  0  0  0  0
  187.7650  176.8600  146.0960 C   0  0  1  0  0  0  0  0  0  0  0  0
  189.0020  177.5630  145.8860 O   0  0  0  0  0  0  0  0  0  0  0  0
  190.0660  177.1710  146.7670 C   0  0  1  0  0  3  0  0  0  0  0  0
  190.0100  177.8430  147.9700 O   0  0  0  0  0  1  0  0  0  0  0  0
  187.0590  178.3540  147.9250 O   0  0  0  0  0  1  0  0  0  0  0  0
  185.4610  177.2760  146.7160 O   0  0  0  0  0  1  0  0  0  0  0  0
  186.7270  177.8600  146.6590 C   0  0  0  0  0  3  0  0  0  0  0  0
  191.4660  176.0640  142.4650 O   0  0  0  0  0  1  0  0  0  0  0  0
  190.3200  175.9050  143.2420 C   0  0  0  0  0  2  0  0  0  0  0  0
  194.3980  173.5150  137.9910 C   0  0  0  0  0  2  0  0  0  0  0  0
  195.8690  174.5280  139.6720 C   0  0  1  0  0  3  0  0  0  0  0  0
  194.6800  174.8150  138.7470 C   0  0  2  0  0  3  0  0  0  0  0  0
  194.4230  175.4100  141.5290 C   0  0  2  0  0  3  0  0  0  0  0  0
  195.5810  176.3830  141.7280 C   0  0  2  0  0  3  0  0  0  0  0  0
  196.4730  175.7790  139.8270 O   0  0  0  0  0  0  0  0  0  0  0  0
  194.4520  174.4790  142.6000 O   0  0  0  0  0  0  0  0  0  0  0  0
  194.7080  176.3080  144.1780 C   0  0  2  0  0  3  0  0  0  0  0  0
  196.7580  175.9050  141.0960 O   0  0  0  0  0  0  0  0  0  0  0  0
  194.4500  174.4870  140.2590 C   0  0  2  0  0  3  0  0  0  0  0  0
  195.2730  174.9980  143.6210 C   0  0  2  0  0  3  0  0  0  0  0  0
  195.8800  176.2980  143.2090 C   0  0  1  0  0  3  0  0  0  0  0  0
  195.2780  176.5000  145.5510 C   0  0  2  0  0  3  0  0  0  0  0  0
  194.1810  176.6870  146.5160 C   0  0  0  0  0  2  0  0  0  0  0  0
  194.9430  177.7700  146.0690 O   0  0  0  0  0  0  0  0  0  0  0  0
  1  2  1  6  0  0  0
  1 16  1  0  0  0  0
  4 10  1  0  0  0  0
  4 12  1  0  0  0  0
  5  1  1  0  0  0  0
  5  3  1  1  0  0  0
  6  4  2  0  0  0  0
  7 11  2  0  0  0  0
  8 16  1  0  0  0  0
  9  2  1  0  0  0  0
  9  8  1  0  0  0  0
 11 15  1  0  0  0  0
 11  2  1  0  0  0  0
 13  6  1  0  0  0  0
 13 15  2  0  0  0  0
 14 12  2  0  0  0  0
 14  5  1  0  0  0  0
 15 14  1  0  0  0  0
 16 30  1  1  0  0  0
 17  6  1  0  0  0  0
 18 17  1  0  0  0  0
 19 18  1  0  0  0  0
 21 20  1  1  0  0  0
 21 22  1  0  0  0  0
 21 19  1  0  0  0  0
 23 22  1  0  0  0  0
 23 24  1  0  0  0  0
 24 25  1  0  0  0  0
 25 26  1  0  0  0  0
 26 29  1  0  0  0  0
 29 28  1  0  0  0  0
 29 27  1  0  0  0  0
 31 30  1  1  0  0  0
 31 51  1  0  0  0  0
 32 34  1  0  0  0  0
 33 36  1  0  0  0  0
 33 35  1  0  0  0  0
 34 39  1  1  0  0  0
 35 31  1  1  0  0  0
 35 34  1  0  0  0  0
 36 37  1  6  0  0  0
 36 32  1  0  0  0  0
 37 38  1  0  0  0  0
 41 42  1  0  0  0  0
 41 40  1  0  0  0  0
 43 39  1  6  0  0  0
 43 49  1  0  0  0  0
 43 40  1  0  0  0  0
 44 43  1  0  0  0  0
 44 45  1  0  0  0  0
 45 42  1  0  0  0  0
 45 46  1  1  0  0  0
 49 48  1  0  0  0  0
 49 47  1  0  0  0  0
 50 51  1  0  0  0  0
 52 13  1  0  0  0  0
 53 57  1  1  0  0  0
 53 61  1  0  0  0  0
 54 52  1  6  0  0  0
 54 53  1  0  0  0  0
 54 61  1  0  0  0  0
 55 56  1  0  0  0  0
 55 58  1  1  0  0  0
 56 60  1  6  0  0  0
 56 63  1  0  0  0  0
 57 60  1  0  0  0  0
 58 62  1  0  0  0  0
 59 64  1  1  0  0  0
 61 55  1  0  0  0  0
 62 59  1  0  0  0  0
 63 62  1  0  0  0  0
 63 59  1  0  0  0  0
 64 66  1  0  0  0  0
 64 65  1  0  0  0  0
 66 65  1  0  0  0  0
M  END
>  <MODEL>
6

>  <REMARK>
 VINA RESULT:      -5.9      3.378     10.304
  Name = 
  21 active torsions:
  status: ('A' for Active; 'I' for Inactive)
    1  A    between atoms: C_3  and  C_9
    2  A    between atoms: C_3  and  C_66
    3  A    between atoms: C_5  and  C_58
    4  A    between atoms: C_6  and  C_37
    5  A    between atoms: C_6  and  C_46
    6  A    between atoms: C_9  and  C_45
    7  A    between atoms: C_9  and  C_60
    8  A    between atoms: N_10  and  C_28
    9  A    between atoms: N_10  and  C_32
   10  A    between atoms: C_13  and  C_37
   11  A    between atoms: C_13  and  C_38
   12  A    between atoms: C_20  and  C_22
   13  A    between atoms: C_22  and  N_29
   14  A    between atoms: N_29  and  C_61
   15  A    between atoms: C_32  and  C_59
   16  A    between atoms: C_34  and  C_35
   17  A    between atoms: C_36  and  C_38
   18  A    between atoms: C_36  and  C_50
   19  A    between atoms: C_39  and  C_62
   20  A    between atoms: C_50  and  C_61
   21  A    between atoms: C_54  and  C_58
                            x       y       z     vdW  Elec       q    Type
                         _______ _______ _______ _____ _____    ______ ____

>  <TORSDO>
F 21

$$$$
=
 OpenBabel11042416213D

 66 75  0  0  1  0  0  0  0  0999 V2000
  191.3180  173.9160  143.9910 C   0  0  2  0  0  3  0  0  0  0  0  0
  190.9460  172.5350  143.7590 N   0  0  0  0  0  0  0  0  0  0  0  0
  192.8080  175.4600  145.2830 C   0  0  0  0  0  1  0  0  0  0  0  0
  195.8200  172.6150  145.1500 C   0  0  0  0  0  0  0  0  0  0  0  0
  192.3420  174.0110  145.1320 C   0  0  2  0  0  3  0  0  0  0  0  0
  195.6720  171.3620  144.5500 C   0  0  0  0  0  0  0  0  0  0  0  0
  191.5250  170.2820  143.6630 O   0  0  0  0  0  0  0  0  0  0  0  0
  189.0970  173.3460  144.5160 C   0  0  0  0  0  2  0  0  0  0  0  0
  189.6130  172.3070  143.7110 O   0  0  0  0  0  0  0  0  0  0  0  0
  197.0260  173.0380  145.5990 F   0  0  0  0  0  0  0  0  0  0  0  0
  191.8890  171.4660  143.8930 C   0  0  0  0  0  0  0  0  0  0  0  0
  194.7550  173.4410  145.3030 N   0  0  0  0  0  0  0  0  0  0  0  0
  194.3900  170.9570  144.0950 C   0  0  0  0  0  0  0  0  0  0  0  0
  193.5060  173.0810  144.8920 C   0  0  0  0  0  0  0  0  0  0  0  0
  193.2810  171.7980  144.3270 C   0  0  0  0  0  0  0  0  0  0  0  0
  190.0230  174.5640  144.3890 C   0  0  2  0  0  3  0  0  0  0  0  0
  196.8880  170.4940  144.4200 C   0  0  0  0  0  2  0  0  0  0  0  0
  197.9410  171.2060  143.7070 N   0  0  0  0  0  2  0  0  0  0  0  0
  197.4690  171.3420  142.3490 C   0  0  0  0  0  2  0  0  0  0  0  0
  196.9630  173.7580  142.1520 C   0  0  0  0  0  1  0  0  0  0  0  0
  197.9330  172.6710  141.7350 C   0  0  2  0  0  3  0  0  0  0  0  0
  197.9260  172.5680  140.2180 C   0  0  0  0  0  2  0  0  0  0  0  0
  197.8800  173.9510  139.5960 C   0  0  0  0  0  2  0  0  0  0  0  0
  197.3210  173.9050  138.1750 C   0  0  0  0  0  2  0  0  0  0  0  0
  196.3260  175.0330  137.9460 C   0  0  0  0  0  2  0  0  0  0  0  0
  196.0200  175.1950  136.4590 C   0  0  0  0  0  2  0  0  0  0  0  0
  197.7560  175.5530  134.8430 F   0  0  0  0  0  0  0  0  0  0  0  0
  196.3530  177.2530  135.2810 F   0  0  0  0  0  0  0  0  0  0  0  0
  197.0320  176.1780  135.8300 C   0  0  0  0  0  3  0  0  0  0  0  0
  189.5540  175.4370  143.2090 C   0  0  0  0  0  2  0  0  0  0  0  0
  188.4030  174.8160  142.3780 C   0  0  1  0  0  3  0  0  0  0  0  0
  186.6700  178.0780  141.9940 C   0  0  0  0  0  2  0  0  0  0  0  0
  187.8970  176.5020  140.7060 O   0  0  0  0  0  0  0  0  0  0  0  0
  187.1470  176.9510  142.8640 C   0  0  2  0  0  3  0  0  0  0  0  0
  187.4160  175.8610  141.8540 C   0  0  2  0  0  3  0  0  0  0  0  0
  187.1680  177.7100  140.5970 C   0  0  1  0  0  3  0  0  0  0  0  0
  185.9830  177.5310  139.6560 C   0  0  0  0  0  2  0  0  0  0  0  0
  184.7930  177.9570  140.2390 O   0  0  0  0  0  1  0  0  0  0  0  0
  186.1080  176.5420  143.8160 N   0  0  0  0  0  2  0  0  0  0  0  0
  186.2930  178.5370  145.0460 O   0  0  0  0  0  0  0  0  0  0  0  0
  184.9410  178.8840  144.8510 C   0  0  0  0  0  2  0  0  0  0  0  0
  184.2060  178.7500  146.1590 C   0  0  0  0  0  2  0  0  0  0  0  0
  186.3600  177.1340  145.1560 C   0  0  1  0  0  0  0  0  0  0  0  0
  185.4370  176.5690  146.1040 O   0  0  0  0  0  0  0  0  0  0  0  0
  184.7470  177.5370  146.9110 C   0  0  1  0  0  3  0  0  0  0  0  0
  185.4890  177.9070  148.0130 O   0  0  0  0  0  1  0  0  0  0  0  0
  187.8340  175.8360  146.6440 O   0  0  0  0  0  1  0  0  0  0  0  0
  188.5130  177.8970  145.9600 O   0  0  0  0  0  1  0  0  0  0  0  0
  187.7960  176.7580  145.5930 C   0  0  0  0  0  3  0  0  0  0  0  0
  188.1740  172.7810  141.1220 O   0  0  0  0  0  1  0  0  0  0  0  0
  188.9440  173.9330  141.2700 C   0  0  0  0  0  2  0  0  0  0  0  0
  194.2830  169.7780  143.1680 C   0  0  0  0  0  2  0  0  0  0  0  0
  193.8330  171.3460  141.3360 C   0  0  1  0  0  3  0  0  0  0  0  0
  194.6470  170.1020  141.7180 C   0  0  2  0  0  3  0  0  0  0  0  0
  193.0380  170.0110  139.3590 C   0  0  2  0  0  3  0  0  0  0  0  0
  193.6170  171.1780  138.5640 C   0  0  2  0  0  3  0  0  0  0  0  0
  194.6130  171.9560  140.3480 O   0  0  0  0  0  0  0  0  0  0  0  0
  191.6230  170.1060  139.2960 O   0  0  0  0  0  0  0  0  0  0  0  0
  191.7580  170.4530  136.8950 C   0  0  2  0  0  3  0  0  0  0  0  0
  193.7960  172.3160  139.3940 O   0  0  0  0  0  0  0  0  0  0  0  0
  193.3190  169.9640  140.9040 C   0  0  2  0  0  3  0  0  0  0  0  0
  191.2810  170.9860  138.2490 C   0  0  2  0  0  3  0  0  0  0  0  0
  192.5030  171.5650  137.6170 C   0  0  1  0  0  3  0  0  0  0  0  0
  190.9240  171.1040  135.8330 C   0  0  2  0  0  3  0  0  0  0  0  0
  191.1230  170.4010  134.5540 C   0  0  0  0  0  2  0  0  0  0  0  0
  191.7330  171.6330  134.8030 O   0  0  0  0  0  0  0  0  0  0  0  0
  1  2  1  1  0  0  0
  1 16  1  0  0  0  0
  1  5  1  0  0  0  0
  2 11  1  0  0  0  0
  4 12  1  0  0  0  0
  4 10  1  0  0  0  0
  5  3  1  6  0  0  0
  6  4  2  0  0  0  0
  7 11  2  0  0  0  0
  9  2  1  0  0  0  0
  9  8  1  0  0  0  0
 11 15  1  0  0  0  0
 13 15  2  0  0  0  0
 13  6  1  0  0  0  0
 14  5  1  0  0  0  0
 14 12  2  0  0  0  0
 15 14  1  0  0  0  0
 16 30  1  6  0  0  0
 16  8  1  0  0  0  0
 17  6  1  0  0  0  0
 18 17  1  0  0  0  0
 19 18  1  0  0  0  0
 21 20  1  6  0  0  0
 21 19  1  0  0  0  0
 22 21  1  0  0  0  0
 23 22  1  0  0  0  0
 24 23  1  0  0  0  0
 25 24  1  0  0  0  0
 26 25  1  0  0  0  0
 27 29  1  0  0  0  0
 28 29  1  0  0  0  0
 29 26  1  0  0  0  0
 31 51  1  6  0  0  0
 31 30  1  0  0  0  0
 32 34  1  0  0  0  0
 33 35  1  0  0  0  0
 34 39  1  1  0  0  0
 35 31  1  1  0  0  0
 35 34  1  0  0  0  0
 36 37  1  6  0  0  0
 36 33  1  0  0  0  0
 36 32  1  0  0  0  0
 37 38  1  0  0  0  0
 40 43  1  0  0  0  0
 41 40  1  0  0  0  0
 41 42  1  0  0  0  0
 42 45  1  0  0  0  0
 43 39  1  6  0  0  0
 43 49  1  0  0  0  0
 43 44  1  0  0  0  0
 44 45  1  0  0  0  0
 45 46  1  1  0  0  0
 49 48  1  0  0  0  0
 49 47  1  0  0  0  0
 50 51  1  0  0  0  0
 52 13  1  0  0  0  0
 53 57  1  6  0  0  0
 53 54  1  0  0  0  0
 54 52  1  1  0  0  0
 55 58  1  1  0  0  0
 55 61  1  0  0  0  0
 56 55  1  0  0  0  0
 56 60  1  1  0  0  0
 59 64  1  6  0  0  0
 59 63  1  0  0  0  0
 59 62  1  0  0  0  0
 60 57  1  0  0  0  0
 61 53  1  0  0  0  0
 61 54  1  0  0  0  0
 62 58  1  0  0  0  0
 63 62  1  0  0  0  0
 63 56  1  0  0  0  0
 65 66  1  0  0  0  0
 65 64  1  0  0  0  0
 66 64  1  0  0  0  0
M  END
>  <MODEL>
7

>  <REMARK>
 VINA RESULT:      -5.7      3.588      9.578
  Name = 
  21 active torsions:
  status: ('A' for Active; 'I' for Inactive)
    1  A    between atoms: C_3  and  C_9
    2  A    between atoms: C_3  and  C_66
    3  A    between atoms: C_5  and  C_58
    4  A    between atoms: C_6  and  C_37
    5  A    between atoms: C_6  and  C_46
    6  A    between atoms: C_9  and  C_45
    7  A    between atoms: C_9  and  C_60
    8  A    between atoms: N_10  and  C_28
    9  A    between atoms: N_10  and  C_32
   10  A    between atoms: C_13  and  C_37
   11  A    between atoms: C_13  and  C_38
   12  A    between atoms: C_20  and  C_22
   13  A    between atoms: C_22  and  N_29
   14  A    between atoms: N_29  and  C_61
   15  A    between atoms: C_32  and  C_59
   16  A    between atoms: C_34  and  C_35
   17  A    between atoms: C_36  and  C_38
   18  A    between atoms: C_36  and  C_50
   19  A    between atoms: C_39  and  C_62
   20  A    between atoms: C_50  and  C_61
   21  A    between atoms: C_54  and  C_58
                            x       y       z     vdW  Elec       q    Type
                         _______ _______ _______ _____ _____    ______ ____

>  <TORSDO>
F 21

$$$$
=
 OpenBabel11042416213D

 66 75  0  0  1  0  0  0  0  0999 V2000
  192.0710  175.6880  145.2990 C   0  0  2  0  0  3  0  0  0  0  0  0
  192.4170  174.3130  145.5960 N   0  0  0  0  0  0  0  0  0  0  0  0
  192.9410  177.9210  144.5700 C   0  0  0  0  0  1  0  0  0  0  0  0
  195.6850  176.0160  142.1150 C   0  0  0  0  0  0  0  0  0  0  0  0
  193.3360  176.5050  144.9940 C   0  0  2  0  0  3  0  0  0  0  0  0
  195.8050  174.6270  142.0240 C   0  0  0  0  0  0  0  0  0  0  0  0
  193.7450  172.4410  145.2070 O   0  0  0  0  0  0  0  0  0  0  0  0
  191.6910  174.9860  147.5120 C   0  0  0  0  0  2  0  0  0  0  0  0
  191.8680  173.8220  146.7310 O   0  0  0  0  0  0  0  0  0  0  0  0
  196.3680  176.8340  141.2790 F   0  0  0  0  0  0  0  0  0  0  0  0
  193.4920  173.6440  144.9290 C   0  0  0  0  0  0  0  0  0  0  0  0
  194.8820  176.5830  143.0500 N   0  0  0  0  0  0  0  0  0  0  0  0
  195.0720  173.8060  142.9200 C   0  0  0  0  0  0  0  0  0  0  0  0
  194.1740  175.8280  143.9370 C   0  0  0  0  0  0  0  0  0  0  0  0
  194.2990  174.4140  143.9320 C   0  0  0  0  0  0  0  0  0  0  0  0
  191.4260  176.1680  146.5680 C   0  0  2  0  0  3  0  0  0  0  0  0
  196.7170  174.0640  140.9740 C   0  0  0  0  0  2  0  0  0  0  0  0
  196.1330  174.2440  139.6510 N   0  0  0  0  0  2  0  0  0  0  0  0
  197.2050  174.7320  138.8160 C   0  0  0  0  0  2  0  0  0  0  0  0
  197.9380  175.2560  136.5090 C   0  0  0  0  0  1  0  0  0  0  0  0
  196.8600  174.5750  137.3270 C   0  0  2  0  0  3  0  0  0  0  0  0
  195.5280  175.2460  137.0320 C   0  0  0  0  0  2  0  0  0  0  0  0
  195.2520  175.2370  135.5400 C   0  0  0  0  0  2  0  0  0  0  0  0
  194.0500  176.1120  135.1910 C   0  0  0  0  0  2  0  0  0  0  0  0
  193.0770  176.1890  136.3580 C   0  0  0  0  0  2  0  0  0  0  0  0
  191.8230  175.3650  136.0760 C   0  0  0  0  0  2  0  0  0  0  0  0
  190.4300  174.3030  137.7160 F   0  0  0  0  0  0  0  0  0  0  0  0
  191.8710  173.0200  136.5620 F   0  0  0  0  0  0  0  0  0  0  0  0
  191.6800  174.2610  137.1480 C   0  0  0  0  0  3  0  0  0  0  0  0
  189.9120  176.2820  146.3100 C   0  0  0  0  0  2  0  0  0  0  0  0
  189.3260  177.6890  146.5860 C   0  0  1  0  0  3  0  0  0  0  0  0
  185.9390  176.7720  145.3680 C   0  0  0  0  0  2  0  0  0  0  0  0
  187.1180  177.0960  147.4060 O   0  0  0  0  0  0  0  0  0  0  0  0
  187.3790  177.0950  145.0920 C   0  0  2  0  0  3  0  0  0  0  0  0
  187.8100  177.7530  146.3810 C   0  0  2  0  0  3  0  0  0  0  0  0
  185.8300  176.8170  146.8920 C   0  0  1  0  0  3  0  0  0  0  0  0
  184.8450  177.9020  147.3090 C   0  0  0  0  0  2  0  0  0  0  0  0
  183.7220  177.9230  146.4860 O   0  0  0  0  0  1  0  0  0  0  0  0
  187.5060  178.0210  143.9610 N   0  0  0  0  0  2  0  0  0  0  0  0
  188.8780  177.7960  142.0640 O   0  0  0  0  0  0  0  0  0  0  0  0
  189.9970  177.3880  142.8170 C   0  0  0  0  0  2  0  0  0  0  0  0
  190.2660  175.9300  142.5480 C   0  0  0  0  0  2  0  0  0  0  0  0
  187.7310  177.2760  142.6950 C   0  0  1  0  0  0  0  0  0  0  0  0
  187.7990  175.8670  142.9810 O   0  0  0  0  0  0  0  0  0  0  0  0
  188.9330  175.1990  142.4060 C   0  0  1  0  0  3  0  0  0  0  0  0
  188.6970  174.8150  141.1030 O   0  0  0  0  0  1  0  0  0  0  0  0
  186.8850  177.8160  140.4440 O   0  0  0  0  0  1  0  0  0  0  0  0
  185.7220  178.5560  142.2550 O   0  0  0  0  0  1  0  0  0  0  0  0
  186.5210  177.5230  141.7620 C   0  0  0  0  0  3  0  0  0  0  0  0
  188.8020  179.0900  148.4660 O   0  0  0  0  0  1  0  0  0  0  0  0
  189.7400  178.1950  147.9540 C   0  0  0  0  0  2  0  0  0  0  0  0
  194.9360  172.3380  142.6230 C   0  0  0  0  0  2  0  0  0  0  0  0
  193.6750  170.4600  141.6750 C   0  0  1  0  0  3  0  0  0  0  0  0
  193.6520  171.9810  141.8730 C   0  0  2  0  0  3  0  0  0  0  0  0
  193.2970  170.9390  139.2360 C   0  0  2  0  0  3  0  0  0  0  0  0
  192.0730  170.0510  139.4350 C   0  0  2  0  0  3  0  0  0  0  0  0
  192.3210  170.1180  141.6050 O   0  0  0  0  0  0  0  0  0  0  0  0
  194.2480  170.2020  138.4830 O   0  0  0  0  0  0  0  0  0  0  0  0
  192.5050  169.5640  136.9160 C   0  0  2  0  0  3  0  0  0  0  0  0
  192.1980  169.2730  140.6160 O   0  0  0  0  0  0  0  0  0  0  0  0
  194.1110  171.3630  140.5110 C   0  0  2  0  0  3  0  0  0  0  0  0
  193.5930  169.1030  137.8900 C   0  0  2  0  0  3  0  0  0  0  0  0
  192.1600  169.0480  138.3050 C   0  0  1  0  0  3  0  0  0  0  0  0
  192.2500  168.4390  135.9570 C   0  0  2  0  0  3  0  0  0  0  0  0
  192.7410  168.8140  134.6210 C   0  0  0  0  0  2  0  0  0  0  0  0
  191.3770  168.8400  134.9220 O   0  0  0  0  0  0  0  0  0  0  0  0
  1  2  1  1  0  0  0
  1 16  1  0  0  0  0
  2  9  1  0  0  0  0
  4 12  1  0  0  0  0
  5  3  1  6  0  0  0
  5  1  1  0  0  0  0
  6  4  2  0  0  0  0
  6 13  1  0  0  0  0
  9  8  1  0  0  0  0
 10  4  1  0  0  0  0
 11  7  2  0  0  0  0
 11  2  1  0  0  0  0
 12 14  2  0  0  0  0
 13 15  2  0  0  0  0
 14  5  1  0  0  0  0
 15 14  1  0  0  0  0
 15 11  1  0  0  0  0
 16 30  1  6  0  0  0
 16  8  1  0  0  0  0
 17  6  1  0  0  0  0
 18 17  1  0  0  0  0
 19 18  1  0  0  0  0
 21 20  1  6  0  0  0
 21 19  1  0  0  0  0
 22 21  1  0  0  0  0
 23 22  1  0  0  0  0
 24 23  1  0  0  0  0
 24 25  1  0  0  0  0
 26 25  1  0  0  0  0
 26 29  1  0  0  0  0
 28 29  1  0  0  0  0
 29 27  1  0  0  0  0
 31 30  1  1  0  0  0
 31 51  1  0  0  0  0
 32 36  1  0  0  0  0
 34 39  1  6  0  0  0
 34 32  1  0  0  0  0
 34 35  1  0  0  0  0
 35 31  1  1  0  0  0
 35 33  1  0  0  0  0
 36 37  1  6  0  0  0
 36 33  1  0  0  0  0
 38 37  1  0  0  0  0
 40 43  1  0  0  0  0
 40 41  1  0  0  0  0
 42 41  1  0  0  0  0
 43 49  1  6  0  0  0
 43 44  1  0  0  0  0
 43 39  1  0  0  0  0
 45 46  1  6  0  0  0
 45 42  1  0  0  0  0
 45 44  1  0  0  0  0
 47 49  1  0  0  0  0
 49 48  1  0  0  0  0
 51 50  1  0  0  0  0
 52 13  1  0  0  0  0
 53 57  1  6  0  0  0
 53 54  1  0  0  0  0
 54 52  1  1  0  0  0
 55 58  1  6  0  0  0
 55 56  1  0  0  0  0
 55 61  1  0  0  0  0
 56 60  1  1  0  0  0
 59 64  1  6  0  0  0
 59 62  1  0  0  0  0
 59 63  1  0  0  0  0
 60 57  1  0  0  0  0
 61 53  1  0  0  0  0
 61 54  1  0  0  0  0
 62 63  1  0  0  0  0
 62 58  1  0  0  0  0
 63 56  1  0  0  0  0
 65 66  1  0  0  0  0
 65 64  1  0  0  0  0
 66 64  1  0  0  0  0
M  END
>  <MODEL>
8

>  <REMARK>
 VINA RESULT:      -5.6      3.328      8.604
  Name = 
  21 active torsions:
  status: ('A' for Active; 'I' for Inactive)
    1  A    between atoms: C_3  and  C_9
    2  A    between atoms: C_3  and  C_66
    3  A    between atoms: C_5  and  C_58
    4  A    between atoms: C_6  and  C_37
    5  A    between atoms: C_6  and  C_46
    6  A    between atoms: C_9  and  C_45
    7  A    between atoms: C_9  and  C_60
    8  A    between atoms: N_10  and  C_28
    9  A    between atoms: N_10  and  C_32
   10  A    between atoms: C_13  and  C_37
   11  A    between atoms: C_13  and  C_38
   12  A    between atoms: C_20  and  C_22
   13  A    between atoms: C_22  and  N_29
   14  A    between atoms: N_29  and  C_61
   15  A    between atoms: C_32  and  C_59
   16  A    between atoms: C_34  and  C_35
   17  A    between atoms: C_36  and  C_38
   18  A    between atoms: C_36  and  C_50
   19  A    between atoms: C_39  and  C_62
   20  A    between atoms: C_50  and  C_61
   21  A    between atoms: C_54  and  C_58
                            x       y       z     vdW  Elec       q    Type
                         _______ _______ _______ _____ _____    ______ ____

>  <TORSDO>
F 21

$$$$
=
 OpenBabel11042416213D

 66 75  0  0  1  0  0  0  0  0999 V2000
  191.0590  175.4900  143.4390 C   0  0  2  0  0  3  0  0  0  0  0  0
  190.9510  174.0470  143.5120 N   0  0  0  0  0  0  0  0  0  0  0  0
  192.3990  177.4940  144.1210 C   0  0  0  0  0  1  0  0  0  0  0  0
  195.8680  175.2490  143.7890 C   0  0  0  0  0  0  0  0  0  0  0  0
  192.2290  175.9850  144.3030 C   0  0  2  0  0  3  0  0  0  0  0  0
  195.8820  173.8970  143.4390 C   0  0  0  0  0  0  0  0  0  0  0  0
  191.9640  171.9560  143.6470 O   0  0  0  0  0  0  0  0  0  0  0  0
  189.1410  174.6550  144.5130 C   0  0  0  0  0  2  0  0  0  0  0  0
  189.7100  173.5850  143.7880 O   0  0  0  0  0  0  0  0  0  0  0  0
  197.0190  175.9560  143.8960 F   0  0  0  0  0  0  0  0  0  0  0  0
  192.1070  173.2070  143.6050 C   0  0  0  0  0  0  0  0  0  0  0  0
  194.6980  175.8900  144.0380 N   0  0  0  0  0  0  0  0  0  0  0  0
  194.6530  173.1920  143.3400 C   0  0  0  0  0  0  0  0  0  0  0  0
  193.5000  175.2440  143.9660 C   0  0  0  0  0  0  0  0  0  0  0  0
  193.4520  173.8550  143.6720 C   0  0  0  0  0  0  0  0  0  0  0  0
  189.7510  175.9670  144.0000 C   0  0  2  0  0  3  0  0  0  0  0  0
  197.2090  173.2460  143.1870 C   0  0  0  0  0  2  0  0  0  0  0  0
  197.9370  173.9690  142.1530 N   0  0  0  0  0  2  0  0  0  0  0  0
  197.6800  173.2540  140.9240 C   0  0  0  0  0  2  0  0  0  0  0  0
  197.1980  175.5170  140.0410 C   0  0  0  0  0  1  0  0  0  0  0  0
  197.8270  174.1800  139.7060 C   0  0  2  0  0  3  0  0  0  0  0  0
  197.0970  173.5830  138.5140 C   0  0  0  0  0  2  0  0  0  0  0  0
  197.4730  174.3210  137.2430 C   0  0  0  0  0  2  0  0  0  0  0  0
  197.4030  173.4020  136.0250 C   0  0  0  0  0  2  0  0  0  0  0  0
  196.6770  172.1070  136.3610 C   0  0  0  0  0  2  0  0  0  0  0  0
  197.0930  170.9870  135.4100 C   0  0  0  0  0  2  0  0  0  0  0  0
  195.7310  169.4260  136.6200 F   0  0  0  0  0  0  0  0  0  0  0  0
  194.8200  170.4740  134.8520 F   0  0  0  0  0  0  0  0  0  0  0  0
  195.9810  169.9150  135.3610 C   0  0  0  0  0  3  0  0  0  0  0  0
  188.9030  176.4960  142.8280 C   0  0  0  0  0  2  0  0  0  0  0  0
  187.5460  175.7710  142.6480 C   0  0  1  0  0  3  0  0  0  0  0  0
  185.5430  178.8240  143.3330 C   0  0  0  0  0  2  0  0  0  0  0  0
  186.3010  177.5130  141.5000 O   0  0  0  0  0  0  0  0  0  0  0  0
  186.4070  177.6960  143.8190 C   0  0  2  0  0  3  0  0  0  0  0  0
  186.3520  176.7290  142.6610 C   0  0  2  0  0  3  0  0  0  0  0  0
  185.4920  178.6290  141.8170 C   0  0  1  0  0  3  0  0  0  0  0  0
  184.0540  178.3860  141.3750 C   0  0  0  0  0  2  0  0  0  0  0  0
  183.9960  177.6310  140.2070 O   0  0  0  0  0  1  0  0  0  0  0  0
  185.8510  177.0910  145.0360 N   0  0  0  0  0  2  0  0  0  0  0  0
  186.3490  176.8200  147.3170 O   0  0  0  0  0  0  0  0  0  0  0  0
  187.3060  175.8130  147.0770 C   0  0  0  0  0  2  0  0  0  0  0  0
  188.6790  176.3600  147.3710 C   0  0  0  0  0  2  0  0  0  0  0  0
  186.4180  177.7350  146.2490 C   0  0  1  0  0  0  0  0  0  0  0  0
  187.7470  178.2060  145.9570 O   0  0  0  0  0  0  0  0  0  0  0  0
  188.7400  177.8170  146.9200 C   0  0  1  0  0  3  0  0  0  0  0  0
  188.7820  178.6830  147.9920 O   0  0  0  0  0  1  0  0  0  0  0  0
  186.0080  179.6730  147.7150 O   0  0  0  0  0  1  0  0  0  0  0  0
  184.2220  178.5610  146.8480 O   0  0  0  0  0  1  0  0  0  0  0  0
  185.5390  178.9560  146.6090 C   0  0  0  0  0  3  0  0  0  0  0  0
  187.3670  173.5500  141.7520 O   0  0  0  0  0  1  0  0  0  0  0  0
  187.5580  174.8880  141.4150 C   0  0  0  0  0  2  0  0  0  0  0  0
  194.6310  171.8550  142.6540 C   0  0  0  0  0  2  0  0  0  0  0  0
  193.4090  172.3620  140.5890 C   0  0  1  0  0  3  0  0  0  0  0  0
  194.7800  171.9420  141.1350 C   0  0  2  0  0  3  0  0  0  0  0  0
  193.5810  170.3580  139.0800 C   0  0  2  0  0  3  0  0  0  0  0  0
  193.4030  171.3970  137.9770 C   0  0  2  0  0  3  0  0  0  0  0  0
  193.7200  173.0270  139.3980 O   0  0  0  0  0  0  0  0  0  0  0  0
  192.3730  169.6200  139.1780 O   0  0  0  0  0  0  0  0  0  0  0  0
  192.3480  169.3510  136.7640 C   0  0  2  0  0  3  0  0  0  0  0  0
  192.8700  172.6040  138.4990 O   0  0  0  0  0  0  0  0  0  0  0  0
  193.7970  170.8760  140.5470 C   0  0  2  0  0  3  0  0  0  0  0  0
  191.6140  169.8490  138.0130 C   0  0  2  0  0  3  0  0  0  0  0  0
  192.2950  170.8300  137.1160 C   0  0  1  0  0  3  0  0  0  0  0  0
  191.3190  169.1200  135.6970 C   0  0  2  0  0  3  0  0  0  0  0  0
  191.9650  168.5270  134.5140 C   0  0  0  0  0  2  0  0  0  0  0  0
  191.6060  169.8770  134.5400 O   0  0  0  0  0  0  0  0  0  0  0  0
  1  2  1  1  0  0  0
  1 16  1  0  0  0  0
  1  5  1  0  0  0  0
  2 11  1  0  0  0  0
  2  9  1  0  0  0  0
  4 10  1  0  0  0  0
  4 12  1  0  0  0  0
  5  3  1  6  0  0  0
  6  4  2  0  0  0  0
  9  8  1  0  0  0  0
 11  7  2  0  0  0  0
 11 15  1  0  0  0  0
 13  6  1  0  0  0  0
 13 15  2  0  0  0  0
 14 12  2  0  0  0  0
 14  5  1  0  0  0  0
 15 14  1  0  0  0  0
 16 30  1  6  0  0  0
 16  8  1  0  0  0  0
 17  6  1  0  0  0  0
 18 17  1  0  0  0  0
 19 18  1  0  0  0  0
 21 20  1  1  0  0  0
 21 19  1  0  0  0  0
 22 21  1  0  0  0  0
 23 22  1  0  0  0  0
 24 25  1  0  0  0  0
 24 23  1  0  0  0  0
 26 25  1  0  0  0  0
 28 29  1  0  0  0  0
 29 26  1  0  0  0  0
 29 27  1  0  0  0  0
 31 51  1  6  0  0  0
 31 30  1  0  0  0  0
 32 34  1  0  0  0  0
 33 36  1  0  0  0  0
 33 35  1  0  0  0  0
 34 39  1  1  0  0  0
 35 31  1  6  0  0  0
 35 34  1  0  0  0  0
 36 37  1  1  0  0  0
 36 32  1  0  0  0  0
 38 37  1  0  0  0  0
 41 40  1  0  0  0  0
 41 42  1  0  0  0  0
 43 39  1  6  0  0  0
 43 49  1  0  0  0  0
 43 40  1  0  0  0  0
 44 43  1  0  0  0  0
 44 45  1  0  0  0  0
 45 42  1  0  0  0  0
 45 46  1  1  0  0  0
 49 48  1  0  0  0  0
 49 47  1  0  0  0  0
 51 50  1  0  0  0  0
 52 13  1  0  0  0  0
 53 57  1  6  0  0  0
 53 54  1  0  0  0  0
 54 52  1  1  0  0  0
 55 58  1  1  0  0  0
 55 61  1  0  0  0  0
 56 60  1  1  0  0  0
 56 55  1  0  0  0  0
 59 64  1  6  0  0  0
 59 63  1  0  0  0  0
 59 62  1  0  0  0  0
 60 57  1  0  0  0  0
 61 53  1  0  0  0  0
 61 54  1  0  0  0  0
 62 58  1  0  0  0  0
 63 56  1  0  0  0  0
 63 62  1  0  0  0  0
 65 66  1  0  0  0  0
 65 64  1  0  0  0  0
 66 64  1  0  0  0  0
M  END
>  <MODEL>
9

>  <REMARK>
 VINA RESULT:      -5.6      3.793      9.855
  Name = 
  21 active torsions:
  status: ('A' for Active; 'I' for Inactive)
    1  A    between atoms: C_3  and  C_9
    2  A    between atoms: C_3  and  C_66
    3  A    between atoms: C_5  and  C_58
    4  A    between atoms: C_6  and  C_37
    5  A    between atoms: C_6  and  C_46
    6  A    between atoms: C_9  and  C_45
    7  A    between atoms: C_9  and  C_60
    8  A    between atoms: N_10  and  C_28
    9  A    between atoms: N_10  and  C_32
   10  A    between atoms: C_13  and  C_37
   11  A    between atoms: C_13  and  C_38
   12  A    between atoms: C_20  and  C_22
   13  A    between atoms: C_22  and  N_29
   14  A    between atoms: N_29  and  C_61
   15  A    between atoms: C_32  and  C_59
   16  A    between atoms: C_34  and  C_35
   17  A    between atoms: C_36  and  C_38
   18  A    between atoms: C_36  and  C_50
   19  A    between atoms: C_39  and  C_62
   20  A    between atoms: C_50  and  C_61
   21  A    between atoms: C_54  and  C_58
                            x       y       z     vdW  Elec       q    Type
                         _______ _______ _______ _____ _____    ______ ____

>  <TORSDO>
F 21

$$$$
