=
 OpenBabel11042415163D

 45 47  0  0  1  0  0  0  0  0999 V2000
  193.5860  170.9510  143.4640 C   0  0  2  0  0  3  0  0  0  0  0  0
  193.3160  168.9690  144.9080 C   0  0  0  0  0  3  0  0  0  0  0  0
  194.6650  169.2800  145.4790 C   0  0  0  0  0  2  0  0  0  0  0  0
  192.8040  169.7620  143.9620 C   0  0  0  0  0  3  0  0  0  0  0  0
  194.2950  171.6760  144.6380 C   0  0  1  0  0  3  0  0  0  0  0  0
  194.7580  170.7720  145.8010 C   0  0  0  0  0  2  0  0  0  0  0  0
  195.3830  172.5550  144.1880 N   0  0  0  0  0  0  0  0  0  0  0  0
  197.1910  172.7840  142.7000 O   0  0  0  0  0  0  0  0  0  0  0  0
  195.5100  173.9050  144.6950 C   0  0  0  0  0  0  0  0  0  0  0  0
  196.6070  174.5190  144.6080 O   0  0  0  0  0  0  0  0  0  0  0  0
  196.3090  172.0400  143.2070 C   0  0  0  0  0  0  0  0  0  0  0  0
  196.4730  170.5530  141.2470 C   0  0  0  0  0  1  0  0  0  0  0  0
  196.2240  170.6210  142.7400 C   0  0  0  0  0  2  0  0  0  0  0  0
  194.3570  174.6010  145.3470 C   0  0  0  0  0  2  0  0  0  0  0  0
  194.7450  176.0000  145.7960 C   0  0  0  0  0  2  0  0  0  0  0  0
  193.8660  176.4490  146.7840 O   0  0  0  0  0  0  0  0  0  0  0  0
  192.8320  175.5120  146.7940 C   0  0  0  0  0  2  0  0  0  0  0  0
  191.7320  176.0390  147.4710 O   0  0  0  0  0  0  0  0  0  0  0  0
  190.6600  175.2300  147.0930 C   0  0  0  0  0  2  0  0  0  0  0  0
  188.2310  175.7240  146.9680 C   0  0  0  0  0  1  0  0  0  0  0  0
  189.5960  176.0650  146.4020 C   0  0  2  0  0  3  0  0  0  0  0  0
  189.6070  175.7630  144.9110 C   0  0  0  0  0  2  0  0  0  0  0  0
  190.2430  176.8770  144.0800 C   0  0  1  0  0  3  0  0  0  0  0  0
  190.1710  178.1080  144.7400 O   0  0  0  0  0  1  0  0  0  0  0  0
  191.6700  176.5640  143.6340 C   0  0  0  0  0  2  0  0  0  0  0  0
  191.6760  175.7030  142.4630 N   0  0  0  0  0  1  0  0  0  0  0  0
  193.3510  172.4810  141.6200 O   0  0  0  0  0  1  0  0  0  0  0  0
  192.6640  171.8920  142.6830 C   0  0  1  0  0  3  0  0  0  0  0  0
  191.5250  171.1480  142.1580 N   0  0  0  0  0  2  0  0  0  0  0  0
  189.5120  172.5770  142.0620 C   0  0  0  0  0  3  0  0  0  0  0  0
  189.3190  172.0870  139.3550 N   0  0  0  0  0  0  0  0  0  0  0  0
  188.4740  173.1530  141.3270 C   0  0  0  0  0  0  0  0  0  0  0  0
  190.4520  171.7540  141.4320 C   0  0  0  0  0  0  0  0  0  0  0  0
  190.3340  171.5190  140.0610 C   0  0  0  0  0  3  0  0  0  0  0  0
  188.3990  172.8900  139.9530 C   0  0  0  0  0  3  0  0  0  0  0  0
  186.5010  176.1020  142.7630 N   0  0  0  0  0  2  0  0  0  0  0  0
  188.4090  176.0870  141.4250 O   0  0  0  0  0  0  0  0  0  0  0  0
  187.5260  173.9930  141.9990 N   0  0  0  0  0  2  0  0  0  0  0  0
  187.5280  175.4250  142.0340 C   0  0  0  0  0  0  0  0  0  0  0  0
  185.1550  178.0560  142.1720 C   0  0  0  0  0  2  0  0  0  0  0  0
  184.4000  179.3320  144.2150 C   0  0  0  0  0  2  0  0  0  0  0  0
  186.4310  177.5530  142.8620 C   0  0  0  0  0  3  0  0  0  0  0  0
  186.5370  177.9830  144.3330 C   0  0  0  0  0  2  0  0  0  0  0  0
  185.8980  179.3500  144.5530 C   0  0  0  0  0  2  0  0  0  0  0  0
  184.0210  178.2760  143.1690 C   0  0  0  0  0  2  0  0  0  0  0  0
  1 28  1  1  0  0  0
  1  4  1  0  0  0  0
  1  5  1  0  0  0  0
  2  3  1  0  0  0  0
  3  6  1  0  0  0  0
  4  2  2  0  0  0  0
  5  7  1  6  0  0  0
  5  6  1  0  0  0  0
  7  9  1  0  0  0  0
  8 11  2  0  0  0  0
  9 14  1  0  0  0  0
 10  9  2  0  0  0  0
 11  7  1  0  0  0  0
 12 13  1  0  0  0  0
 13 11  1  0  0  0  0
 14 15  1  0  0  0  0
 15 16  1  0  0  0  0
 16 17  1  0  0  0  0
 17 18  1  0  0  0  0
 19 18  1  0  0  0  0
 21 20  1  1  0  0  0
 21 19  1  0  0  0  0
 22 21  1  0  0  0  0
 23 24  1  1  0  0  0
 23 22  1  0  0  0  0
 25 23  1  0  0  0  0
 26 25  1  0  0  0  0
 28 27  1  6  0  0  0
 29 28  1  0  0  0  0
 31 35  2  0  0  0  0
 31 34  1  0  0  0  0
 32 38  1  0  0  0  0
 32 30  2  0  0  0  0
 33 30  1  0  0  0  0
 33 29  1  0  0  0  0
 34 33  2  0  0  0  0
 35 32  1  0  0  0  0
 36 42  1  0  0  0  0
 37 39  2  0  0  0  0
 38 39  1  0  0  0  0
 39 36  1  0  0  0  0
 40 42  1  0  0  0  0
 40 45  1  0  0  0  0
 41 44  1  0  0  0  0
 42 43  1  0  0  0  0
 43 44  1  0  0  0  0
 45 41  1  0  0  0  0
M  END
>  <MODEL>
1

>  <REMARK>
 VINA RESULT:      -6.0      0.000      0.000
  Name = 
  17 active torsions:
  status: ('A' for Active; 'I' for Inactive)
    1  A    between atoms: N_1  and  C_10
    2  A    between atoms: N_2  and  C_29
    3  A    between atoms: C_3  and  C_26
    4  A    between atoms: C_5  and  C_11
    5  A    between atoms: C_5  and  O_21
    6  A    between atoms: C_8  and  C_9
    7  A    between atoms: C_8  and  C_13
    8  A    between atoms: C_9  and  C_42
    9  A    between atoms: C_11  and  C_34
   10  A    between atoms: C_19  and  O_21
   11  A    between atoms: C_19  and  O_33
   12  A    between atoms: C_26  and  N_30
   13  A    between atoms: N_30  and  C_37
   14  A    between atoms: N_32  and  C_35
   15  A    between atoms: O_33  and  C_45
   16  A    between atoms: C_39  and  C_44
   17  A    between atoms: C_42  and  C_45
                            x       y       z     vdW  Elec       q    Type
                         _______ _______ _______ _____ _____    ______ ____

>  <TORSDO>
F 17

$$$$
=
 OpenBabel11042415163D

 45 47  0  0  1  0  0  0  0  0999 V2000
  190.2950  175.2510  143.7840 C   0  0  2  0  0  3  0  0  0  0  0  0
  189.2490  177.4470  143.3700 C   0  0  0  0  0  3  0  0  0  0  0  0
  190.5550  178.0700  143.7560 C   0  0  0  0  0  2  0  0  0  0  0  0
  189.1300  176.1160  143.3760 C   0  0  0  0  0  3  0  0  0  0  0  0
  191.6230  175.8040  143.2010 C   0  0  1  0  0  3  0  0  0  0  0  0
  191.7030  177.3390  143.0590 C   0  0  0  0  0  2  0  0  0  0  0  0
  192.8090  175.2760  143.8890 N   0  0  0  0  0  0  0  0  0  0  0  0
  194.9800  174.4140  143.6110 O   0  0  0  0  0  0  0  0  0  0  0  0
  192.8970  175.2820  145.3350 C   0  0  0  0  0  0  0  0  0  0  0  0
  193.7100  174.5230  145.9280 O   0  0  0  0  0  0  0  0  0  0  0  0
  193.8940  174.7720  143.0810 C   0  0  0  0  0  0  0  0  0  0  0  0
  194.8590  175.5270  140.9420 C   0  0  0  0  0  1  0  0  0  0  0  0
  193.7720  174.6960  141.5920 C   0  0  0  0  0  2  0  0  0  0  0  0
  192.0230  176.1710  146.1620 C   0  0  0  0  0  2  0  0  0  0  0  0
  191.1620  175.3580  147.1150 C   0  0  0  0  0  2  0  0  0  0  0  0
  189.9840  176.0490  147.4070 O   0  0  0  0  0  0  0  0  0  0  0  0
  188.9610  175.1350  147.1530 C   0  0  0  0  0  2  0  0  0  0  0  0
  187.8360  175.8120  146.6840 O   0  0  0  0  0  0  0  0  0  0  0  0
  188.1570  177.1650  146.8070 C   0  0  0  0  0  2  0  0  0  0  0  0
  186.2930  178.3640  147.9250 C   0  0  0  0  0  1  0  0  0  0  0  0
  186.9180  178.0160  146.5870 C   0  0  2  0  0  3  0  0  0  0  0  0
  185.9120  177.2360  145.7550 C   0  0  0  0  0  2  0  0  0  0  0  0
  184.9230  178.1370  145.0140 C   0  0  1  0  0  3  0  0  0  0  0  0
  183.8560  178.5070  145.8390 O   0  0  0  0  0  1  0  0  0  0  0  0
  185.5790  179.3560  144.3670 C   0  0  0  0  0  2  0  0  0  0  0  0
  186.0350  179.0520  143.0210 N   0  0  0  0  0  1  0  0  0  0  0  0
  189.6940  173.0200  144.4630 O   0  0  0  0  0  1  0  0  0  0  0  0
  190.0440  173.8010  143.3590 C   0  0  1  0  0  3  0  0  0  0  0  0
  188.9630  173.7510  142.3810 N   0  0  0  0  0  2  0  0  0  0  0  0
  190.3740  173.7410  140.3530 C   0  0  0  0  0  3  0  0  0  0  0  0
  188.3060  172.5780  138.9470 N   0  0  0  0  0  0  0  0  0  0  0  0
  190.5400  173.4410  138.9990 C   0  0  0  0  0  0  0  0  0  0  0  0
  189.1640  173.4530  140.9970 C   0  0  0  0  0  0  0  0  0  0  0  0
  188.1320  172.8660  140.2640 C   0  0  0  0  0  3  0  0  0  0  0  0
  189.4750  172.8490  138.3080 C   0  0  0  0  0  3  0  0  0  0  0  0
  194.1500  173.4220  137.7260 N   0  0  0  0  0  2  0  0  0  0  0  0
  193.0210  171.8710  139.0500 O   0  0  0  0  0  0  0  0  0  0  0  0
  191.7900  173.7450  138.3660 N   0  0  0  0  0  2  0  0  0  0  0  0
  192.9870  172.9600  138.4170 C   0  0  0  0  0  0  0  0  0  0  0  0
  195.6600  172.0790  136.3490 C   0  0  0  0  0  2  0  0  0  0  0  0
  197.9410  173.1400  136.1450 C   0  0  0  0  0  2  0  0  0  0  0  0
  195.4110  172.6960  137.7330 C   0  0  0  0  0  3  0  0  0  0  0  0
  196.5460  173.6210  138.1990 C   0  0  0  0  0  2  0  0  0  0  0  0
  197.8960  173.1390  137.6800 C   0  0  0  0  0  2  0  0  0  0  0  0
  196.5650  172.9580  135.4910 C   0  0  0  0  0  2  0  0  0  0  0  0
  1 28  1  6  0  0  0
  2  4  2  0  0  0  0
  2  3  1  0  0  0  0
  4  1  1  0  0  0  0
  5  1  1  0  0  0  0
  5  7  1  1  0  0  0
  6  5  1  0  0  0  0
  6  3  1  0  0  0  0
  7  9  1  0  0  0  0
  9 10  2  0  0  0  0
  9 14  1  0  0  0  0
 11  8  2  0  0  0  0
 11  7  1  0  0  0  0
 12 13  1  0  0  0  0
 13 11  1  0  0  0  0
 14 15  1  0  0  0  0
 15 16  1  0  0  0  0
 17 16  1  0  0  0  0
 18 19  1  0  0  0  0
 18 17  1  0  0  0  0
 21 19  1  0  0  0  0
 21 20  1  1  0  0  0
 22 21  1  0  0  0  0
 23 22  1  0  0  0  0
 23 24  1  1  0  0  0
 25 23  1  0  0  0  0
 26 25  1  0  0  0  0
 28 27  1  1  0  0  0
 29 28  1  0  0  0  0
 30 33  1  0  0  0  0
 31 34  1  0  0  0  0
 32 30  2  0  0  0  0
 33 29  1  0  0  0  0
 34 33  2  0  0  0  0
 35 31  2  0  0  0  0
 35 32  1  0  0  0  0
 36 42  1  0  0  0  0
 36 39  1  0  0  0  0
 38 39  1  0  0  0  0
 38 32  1  0  0  0  0
 39 37  2  0  0  0  0
 40 42  1  0  0  0  0
 41 44  1  0  0  0  0
 42 43  1  0  0  0  0
 44 43  1  0  0  0  0
 45 41  1  0  0  0  0
 45 40  1  0  0  0  0
M  END
>  <MODEL>
2

>  <REMARK>
 VINA RESULT:      -6.0      3.012      7.098
  Name = 
  17 active torsions:
  status: ('A' for Active; 'I' for Inactive)
    1  A    between atoms: N_1  and  C_10
    2  A    between atoms: N_2  and  C_29
    3  A    between atoms: C_3  and  C_26
    4  A    between atoms: C_5  and  C_11
    5  A    between atoms: C_5  and  O_21
    6  A    between atoms: C_8  and  C_9
    7  A    between atoms: C_8  and  C_13
    8  A    between atoms: C_9  and  C_42
    9  A    between atoms: C_11  and  C_34
   10  A    between atoms: C_19  and  O_21
   11  A    between atoms: C_19  and  O_33
   12  A    between atoms: C_26  and  N_30
   13  A    between atoms: N_30  and  C_37
   14  A    between atoms: N_32  and  C_35
   15  A    between atoms: O_33  and  C_45
   16  A    between atoms: C_39  and  C_44
   17  A    between atoms: C_42  and  C_45
                            x       y       z     vdW  Elec       q    Type
                         _______ _______ _______ _____ _____    ______ ____

>  <TORSDO>
F 17

$$$$
=
 OpenBabel11042415163D

 45 47  0  0  1  0  0  0  0  0999 V2000
  194.5510  173.0510  141.1540 C   0  0  2  0  0  3  0  0  0  0  0  0
  195.1760  170.6970  141.5520 C   0  0  0  0  0  3  0  0  0  0  0  0
  196.4550  171.2040  142.1450 C   0  0  0  0  0  2  0  0  0  0  0  0
  194.2750  171.5700  141.0920 C   0  0  0  0  0  3  0  0  0  0  0  0
  195.2280  173.4290  142.4990 C   0  0  1  0  0  3  0  0  0  0  0  0
  196.1600  172.3570  143.1040 C   0  0  0  0  0  2  0  0  0  0  0  0
  195.8920  174.7390  142.4500 N   0  0  0  0  0  0  0  0  0  0  0  0
  197.2560  176.1670  141.1720 O   0  0  0  0  0  0  0  0  0  0  0  0
  195.6730  175.7260  143.4880 C   0  0  0  0  0  0  0  0  0  0  0  0
  196.4890  176.6710  143.6520 O   0  0  0  0  0  0  0  0  0  0  0  0
  196.7520  175.0220  141.3260 C   0  0  0  0  0  0  0  0  0  0  0  0
  197.7230  174.6060  139.0980 C   0  0  0  0  0  1  0  0  0  0  0  0
  197.0390  173.9770  140.2950 C   0  0  0  0  0  2  0  0  0  0  0  0
  194.4870  175.6450  144.3970 C   0  0  0  0  0  2  0  0  0  0  0  0
  194.9040  175.2570  145.8060 C   0  0  0  0  0  2  0  0  0  0  0  0
  194.4100  176.1840  146.7260 O   0  0  0  0  0  0  0  0  0  0  0  0
  193.0900  176.4100  146.3320 C   0  0  0  0  0  2  0  0  0  0  0  0
  192.3020  176.6480  147.4580 O   0  0  0  0  0  0  0  0  0  0  0  0
  191.2560  175.7290  147.3610 C   0  0  0  0  0  2  0  0  0  0  0  0
  189.5750  177.3180  146.4620 C   0  0  0  0  0  1  0  0  0  0  0  0
  190.3770  176.0640  146.1690 C   0  0  2  0  0  3  0  0  0  0  0  0
  189.4210  174.9110  145.9060 C   0  0  0  0  0  2  0  0  0  0  0  0
  189.8090  174.0790  144.6830 C   0  0  1  0  0  3  0  0  0  0  0  0
  191.0150  174.5210  144.1310 O   0  0  0  0  0  1  0  0  0  0  0  0
  189.8340  172.5760  144.9530 C   0  0  0  0  0  2  0  0  0  0  0  0
  190.3600  171.8480  143.8100 N   0  0  0  0  0  1  0  0  0  0  0  0
  193.4780  174.9110  140.0650 O   0  0  0  0  0  1  0  0  0  0  0  0
  193.2550  173.8330  140.9250 C   0  0  1  0  0  3  0  0  0  0  0  0
  192.2440  172.9600  140.3400 N   0  0  0  0  0  2  0  0  0  0  0  0
  189.9980  173.8010  140.9290 C   0  0  0  0  0  3  0  0  0  0  0  0
  189.3390  173.8540  138.2520 N   0  0  0  0  0  0  0  0  0  0  0  0
  188.7270  174.2260  140.5370 C   0  0  0  0  0  0  0  0  0  0  0  0
  190.9360  173.4030  139.9700 C   0  0  0  0  0  0  0  0  0  0  0  0
  190.5790  173.4370  138.6210 C   0  0  0  0  0  3  0  0  0  0  0  0
  188.4170  174.2450  139.1710 C   0  0  0  0  0  3  0  0  0  0  0  0
  186.7570  176.1070  143.2270 N   0  0  0  0  0  2  0  0  0  0  0  0
  188.6310  176.7650  142.0090 O   0  0  0  0  0  0  0  0  0  0  0  0
  187.7860  174.6290  141.5410 N   0  0  0  0  0  2  0  0  0  0  0  0
  187.7720  175.8760  142.2490 C   0  0  0  0  0  0  0  0  0  0  0  0
  185.8870  178.3920  143.2080 C   0  0  0  0  0  2  0  0  0  0  0  0
  184.2740  178.8010  145.1060 C   0  0  0  0  0  2  0  0  0  0  0  0
  186.6720  177.3370  144.0000 C   0  0  0  0  0  3  0  0  0  0  0  0
  186.0740  177.0460  145.3850 C   0  0  0  0  0  2  0  0  0  0  0  0
  185.4310  178.2950  145.9790 C   0  0  0  0  0  2  0  0  0  0  0  0
  184.4190  178.4360  143.6240 C   0  0  0  0  0  2  0  0  0  0  0  0
  1 28  1  1  0  0  0
  1  5  1  0  0  0  0
  2  3  1  0  0  0  0
  3  6  1  0  0  0  0
  4  1  1  0  0  0  0
  4  2  2  0  0  0  0
  5  7  1  6  0  0  0
  5  6  1  0  0  0  0
  7  9  1  0  0  0  0
  8 11  2  0  0  0  0
  9 10  2  0  0  0  0
  9 14  1  0  0  0  0
 11  7  1  0  0  0  0
 12 13  1  0  0  0  0
 13 11  1  0  0  0  0
 14 15  1  0  0  0  0
 15 16  1  0  0  0  0
 17 16  1  0  0  0  0
 17 18  1  0  0  0  0
 19 18  1  0  0  0  0
 21 20  1  1  0  0  0
 21 19  1  0  0  0  0
 22 21  1  0  0  0  0
 23 24  1  1  0  0  0
 23 25  1  0  0  0  0
 23 22  1  0  0  0  0
 26 25  1  0  0  0  0
 28 27  1  6  0  0  0
 29 28  1  0  0  0  0
 31 34  2  0  0  0  0
 31 35  1  0  0  0  0
 32 30  1  0  0  0  0
 32 38  1  0  0  0  0
 33 29  1  0  0  0  0
 33 30  2  0  0  0  0
 34 33  1  0  0  0  0
 35 32  2  0  0  0  0
 36 42  1  0  0  0  0
 37 39  2  0  0  0  0
 38 39  1  0  0  0  0
 39 36  1  0  0  0  0
 40 45  1  0  0  0  0
 40 42  1  0  0  0  0
 41 44  1  0  0  0  0
 42 43  1  0  0  0  0
 43 44  1  0  0  0  0
 45 41  1  0  0  0  0
M  END
>  <MODEL>
3

>  <REMARK>
 VINA RESULT:      -5.9      2.107      2.571
  Name = 
  17 active torsions:
  status: ('A' for Active; 'I' for Inactive)
    1  A    between atoms: N_1  and  C_10
    2  A    between atoms: N_2  and  C_29
    3  A    between atoms: C_3  and  C_26
    4  A    between atoms: C_5  and  C_11
    5  A    between atoms: C_5  and  O_21
    6  A    between atoms: C_8  and  C_9
    7  A    between atoms: C_8  and  C_13
    8  A    between atoms: C_9  and  C_42
    9  A    between atoms: C_11  and  C_34
   10  A    between atoms: C_19  and  O_21
   11  A    between atoms: C_19  and  O_33
   12  A    between atoms: C_26  and  N_30
   13  A    between atoms: N_30  and  C_37
   14  A    between atoms: N_32  and  C_35
   15  A    between atoms: O_33  and  C_45
   16  A    between atoms: C_39  and  C_44
   17  A    between atoms: C_42  and  C_45
                            x       y       z     vdW  Elec       q    Type
                         _______ _______ _______ _____ _____    ______ ____

>  <TORSDO>
F 17

$$$$
=
 OpenBabel11042415163D

 45 47  0  0  1  0  0  0  0  0999 V2000
  194.5740  170.9430  144.7770 C   0  0  2  0  0  3  0  0  0  0  0  0
  195.2370  169.3590  146.5500 C   0  0  0  0  0  3  0  0  0  0  0  0
  196.6610  169.6710  146.2070 C   0  0  0  0  0  2  0  0  0  0  0  0
  194.2530  169.9650  145.8790 C   0  0  0  0  0  3  0  0  0  0  0  0
  195.7730  171.8450  145.1730 C   0  0  1  0  0  3  0  0  0  0  0  0
  196.8410  171.1830  146.0700 C   0  0  0  0  0  2  0  0  0  0  0  0
  196.3920  172.5060  144.0160 N   0  0  0  0  0  0  0  0  0  0  0  0
  197.0350  172.2580  141.7660 O   0  0  0  0  0  0  0  0  0  0  0  0
  196.7460  173.9090  144.0590 C   0  0  0  0  0  0  0  0  0  0  0  0
  197.5840  174.3810  143.2460 O   0  0  0  0  0  0  0  0  0  0  0  0
  196.6150  171.7200  142.8250 C   0  0  0  0  0  0  0  0  0  0  0  0
  197.6110  169.4680  142.7080 C   0  0  0  0  0  1  0  0  0  0  0  0
  196.3190  170.2530  142.8060 C   0  0  0  0  0  2  0  0  0  0  0  0
  196.1440  174.8310  145.0730 C   0  0  0  0  0  2  0  0  0  0  0  0
  195.7140  176.1410  144.4330 C   0  0  0  0  0  2  0  0  0  0  0  0
  194.3410  176.3290  144.6000 O   0  0  0  0  0  0  0  0  0  0  0  0
  193.7830  176.0080  143.3620 C   0  0  0  0  0  2  0  0  0  0  0  0
  192.3920  175.9940  143.4670 O   0  0  0  0  0  0  0  0  0  0  0  0
  192.1190  176.6470  144.6700 C   0  0  0  0  0  2  0  0  0  0  0  0
  190.6540  178.5580  144.0670 C   0  0  0  0  0  1  0  0  0  0  0  0
  190.6910  177.1660  144.6670 C   0  0  2  0  0  3  0  0  0  0  0  0
  190.1730  177.2260  146.0960 C   0  0  0  0  0  2  0  0  0  0  0  0
  190.8110  176.1770  147.0080 C   0  0  1  0  0  3  0  0  0  0  0  0
  191.4380  176.7740  148.1070 O   0  0  0  0  0  1  0  0  0  0  0  0
  189.8430  175.0800  147.4440 C   0  0  0  0  0  2  0  0  0  0  0  0
  188.5230  175.2900  146.8720 N   0  0  0  0  0  1  0  0  0  0  0  0
  193.3860  173.0210  145.0350 O   0  0  0  0  0  1  0  0  0  0  0  0
  193.3290  171.7640  144.4290 C   0  0  1  0  0  3  0  0  0  0  0  0
  193.2360  171.9370  142.9840 N   0  0  0  0  0  2  0  0  0  0  0  0
  190.9950  172.9710  142.8920 C   0  0  0  0  0  3  0  0  0  0  0  0
  190.6630  171.9700  140.3430 N   0  0  0  0  0  0  0  0  0  0  0  0
  189.8090  173.2220  142.1980 C   0  0  0  0  0  0  0  0  0  0  0  0
  192.0130  172.2140  142.2990 C   0  0  0  0  0  0  0  0  0  0  0  0
  191.8210  171.7170  141.0080 C   0  0  0  0  0  3  0  0  0  0  0  0
  189.6660  172.7040  140.9040 C   0  0  0  0  0  3  0  0  0  0  0  0
  187.4840  176.0230  143.3820 N   0  0  0  0  0  2  0  0  0  0  0  0
  189.2750  176.0940  141.8930 O   0  0  0  0  0  0  0  0  0  0  0  0
  188.7850  174.0010  142.8290 N   0  0  0  0  0  2  0  0  0  0  0  0
  188.5550  175.4060  142.6650 C   0  0  0  0  0  0  0  0  0  0  0  0
  186.1270  177.6770  142.1980 C   0  0  0  0  0  2  0  0  0  0  0  0
  184.6110  178.9480  143.7660 C   0  0  0  0  0  2  0  0  0  0  0  0
  187.1850  177.4440  143.2850 C   0  0  0  0  0  3  0  0  0  0  0  0
  186.7740  177.9880  144.6610 C   0  0  0  0  0  2  0  0  0  0  0  0
  185.9150  179.2410  144.5230 C   0  0  0  0  0  2  0  0  0  0  0  0
  184.7220  177.7730  142.7860 C   0  0  0  0  0  2  0  0  0  0  0  0
  1 28  1  1  0  0  0
  1  5  1  0  0  0  0
  1  4  1  0  0  0  0
  3  2  1  0  0  0  0
  4  2  2  0  0  0  0
  5  7  1  6  0  0  0
  5  6  1  0  0  0  0
  6  3  1  0  0  0  0
  7  9  1  0  0  0  0
  8 11  2  0  0  0  0
  9 14  1  0  0  0  0
 10  9  2  0  0  0  0
 11  7  1  0  0  0  0
 12 13  1  0  0  0  0
 13 11  1  0  0  0  0
 15 16  1  0  0  0  0
 15 14  1  0  0  0  0
 17 18  1  0  0  0  0
 17 16  1  0  0  0  0
 18 19  1  0  0  0  0
 21 20  1  1  0  0  0
 21 19  1  0  0  0  0
 21 22  1  0  0  0  0
 22 23  1  0  0  0  0
 23 25  1  0  0  0  0
 23 24  1  1  0  0  0
 26 25  1  0  0  0  0
 28 27  1  1  0  0  0
 29 28  1  0  0  0  0
 31 35  2  0  0  0  0
 31 34  1  0  0  0  0
 32 38  1  0  0  0  0
 32 30  2  0  0  0  0
 33 30  1  0  0  0  0
 33 29  1  0  0  0  0
 34 33  2  0  0  0  0
 35 32  1  0  0  0  0
 37 39  2  0  0  0  0
 39 38  1  0  0  0  0
 39 36  1  0  0  0  0
 40 45  1  0  0  0  0
 40 42  1  0  0  0  0
 41 44  1  0  0  0  0
 42 36  1  0  0  0  0
 42 43  1  0  0  0  0
 44 43  1  0  0  0  0
 45 41  1  0  0  0  0
M  END
>  <MODEL>
4

>  <REMARK>
 VINA RESULT:      -5.7      1.618      2.316
  Name = 
  17 active torsions:
  status: ('A' for Active; 'I' for Inactive)
    1  A    between atoms: N_1  and  C_10
    2  A    between atoms: N_2  and  C_29
    3  A    between atoms: C_3  and  C_26
    4  A    between atoms: C_5  and  C_11
    5  A    between atoms: C_5  and  O_21
    6  A    between atoms: C_8  and  C_9
    7  A    between atoms: C_8  and  C_13
    8  A    between atoms: C_9  and  C_42
    9  A    between atoms: C_11  and  C_34
   10  A    between atoms: C_19  and  O_21
   11  A    between atoms: C_19  and  O_33
   12  A    between atoms: C_26  and  N_30
   13  A    between atoms: N_30  and  C_37
   14  A    between atoms: N_32  and  C_35
   15  A    between atoms: O_33  and  C_45
   16  A    between atoms: C_39  and  C_44
   17  A    between atoms: C_42  and  C_45
                            x       y       z     vdW  Elec       q    Type
                         _______ _______ _______ _____ _____    ______ ____

>  <TORSDO>
F 17

$$$$
=
 OpenBabel11042415163D

 45 47  0  0  1  0  0  0  0  0999 V2000
  191.2700  172.5660  141.1160 C   0  0  2  0  0  3  0  0  0  0  0  0
  190.4220  170.9030  142.7300 C   0  0  0  0  0  3  0  0  0  0  0  0
  191.2960  171.5510  143.7590 C   0  0  0  0  0  2  0  0  0  0  0  0
  190.4050  171.3880  141.4850 C   0  0  0  0  0  3  0  0  0  0  0  0
  191.2700  173.6260  142.2500 C   0  0  1  0  0  3  0  0  0  0  0  0
  191.1440  173.0700  143.6850 C   0  0  0  0  0  2  0  0  0  0  0  0
  192.3930  174.5680  142.1470 N   0  0  0  0  0  0  0  0  0  0  0  0
  193.0960  176.7830  142.5140 O   0  0  0  0  0  0  0  0  0  0  0  0
  193.7120  174.1170  141.7520 C   0  0  0  0  0  0  0  0  0  0  0  0
  194.5620  174.9370  141.3140 O   0  0  0  0  0  0  0  0  0  0  0  0
  192.1490  175.9530  142.4730 C   0  0  0  0  0  0  0  0  0  0  0  0
  190.8460  177.7870  143.4820 C   0  0  0  0  0  1  0  0  0  0  0  0
  190.7710  176.4320  142.8070 C   0  0  0  0  0  2  0  0  0  0  0  0
  194.0960  172.6740  141.8390 C   0  0  0  0  0  2  0  0  0  0  0  0
  194.9190  172.4000  143.0870 C   0  0  0  0  0  2  0  0  0  0  0  0
  194.7330  173.4240  144.0190 O   0  0  0  0  0  0  0  0  0  0  0  0
  194.4910  172.7680  145.2260 C   0  0  0  0  0  2  0  0  0  0  0  0
  193.7730  173.6090  146.0780 O   0  0  0  0  0  0  0  0  0  0  0  0
  193.8120  174.8590  145.4590 C   0  0  0  0  0  2  0  0  0  0  0  0
  193.7820  176.8860  146.8910 C   0  0  0  0  0  1  0  0  0  0  0  0
  192.9240  175.8370  146.2090 C   0  0  2  0  0  3  0  0  0  0  0  0
  192.1220  175.0880  147.2610 C   0  0  0  0  0  2  0  0  0  0  0  0
  190.6790  175.5810  147.3780 C   0  0  1  0  0  3  0  0  0  0  0  0
  190.5850  176.9460  147.0910 O   0  0  0  0  0  1  0  0  0  0  0  0
  189.6890  174.7650  146.5490 C   0  0  0  0  0  2  0  0  0  0  0  0
  188.8270  175.6320  145.7620 N   0  0  0  0  0  1  0  0  0  0  0  0
  191.4000  172.4770  138.7140 O   0  0  0  0  0  1  0  0  0  0  0  0
  190.8080  173.1570  139.7810 C   0  0  1  0  0  3  0  0  0  0  0  0
  189.3580  173.0490  139.6670 N   0  0  0  0  0  2  0  0  0  0  0  0
  188.0020  175.0510  140.1730 C   0  0  0  0  0  3  0  0  0  0  0  0
  187.3930  175.2900  137.4940 N   0  0  0  0  0  0  0  0  0  0  0  0
  187.1810  176.0940  139.7400 C   0  0  0  0  0  0  0  0  0  0  0  0
  188.5160  174.1290  139.2540 C   0  0  0  0  0  0  0  0  0  0  0  0
  188.1930  174.2690  137.9030 C   0  0  0  0  0  3  0  0  0  0  0  0
  186.8870  176.1940  138.3740 C   0  0  0  0  0  3  0  0  0  0  0  0
  186.2500  177.9800  142.9380 N   0  0  0  0  0  2  0  0  0  0  0  0
  187.5020  176.0350  142.6580 O   0  0  0  0  0  0  0  0  0  0  0  0
  186.6690  177.0240  140.7030 N   0  0  0  0  0  2  0  0  0  0  0  0
  186.8380  176.9630  142.1250 C   0  0  0  0  0  0  0  0  0  0  0  0
  185.9090  179.3550  144.9320 C   0  0  0  0  0  2  0  0  0  0  0  0
  184.2430  178.3160  146.5170 C   0  0  0  0  0  2  0  0  0  0  0  0
  186.3600  177.9910  144.3890 C   0  0  0  0  0  3  0  0  0  0  0  0
  185.5770  176.8100  144.9830 C   0  0  0  0  0  2  0  0  0  0  0  0
  185.1670  177.0930  146.4250 C   0  0  0  0  0  2  0  0  0  0  0  0
  184.4520  179.3300  145.3860 C   0  0  0  0  0  2  0  0  0  0  0  0
  1 28  1  6  0  0  0
  1  4  1  0  0  0  0
  1  5  1  0  0  0  0
  2  3  1  0  0  0  0
  4  2  2  0  0  0  0
  5  7  1  1  0  0  0
  5  6  1  0  0  0  0
  6  3  1  0  0  0  0
  7 11  1  0  0  0  0
  9 14  1  0  0  0  0
  9  7  1  0  0  0  0
 10  9  2  0  0  0  0
 11  8  2  0  0  0  0
 11 13  1  0  0  0  0
 13 12  1  0  0  0  0
 14 15  1  0  0  0  0
 15 16  1  0  0  0  0
 16 17  1  0  0  0  0
 17 18  1  0  0  0  0
 19 18  1  0  0  0  0
 19 21  1  0  0  0  0
 21 20  1  1  0  0  0
 21 22  1  0  0  0  0
 22 23  1  0  0  0  0
 23 24  1  6  0  0  0
 25 23  1  0  0  0  0
 26 25  1  0  0  0  0
 28 27  1  6  0  0  0
 29 28  1  0  0  0  0
 31 34  2  0  0  0  0
 31 35  1  0  0  0  0
 32 30  1  0  0  0  0
 32 38  1  0  0  0  0
 33 29  1  0  0  0  0
 33 30  2  0  0  0  0
 34 33  1  0  0  0  0
 35 32  2  0  0  0  0
 36 42  1  0  0  0  0
 38 39  1  0  0  0  0
 39 37  2  0  0  0  0
 39 36  1  0  0  0  0
 40 45  1  0  0  0  0
 42 40  1  0  0  0  0
 42 43  1  0  0  0  0
 43 44  1  0  0  0  0
 44 41  1  0  0  0  0
 45 41  1  0  0  0  0
M  END
>  <MODEL>
5

>  <REMARK>
 VINA RESULT:      -5.7      2.067      4.100
  Name = 
  17 active torsions:
  status: ('A' for Active; 'I' for Inactive)
    1  A    between atoms: N_1  and  C_10
    2  A    between atoms: N_2  and  C_29
    3  A    between atoms: C_3  and  C_26
    4  A    between atoms: C_5  and  C_11
    5  A    between atoms: C_5  and  O_21
    6  A    between atoms: C_8  and  C_9
    7  A    between atoms: C_8  and  C_13
    8  A    between atoms: C_9  and  C_42
    9  A    between atoms: C_11  and  C_34
   10  A    between atoms: C_19  and  O_21
   11  A    between atoms: C_19  and  O_33
   12  A    between atoms: C_26  and  N_30
   13  A    between atoms: N_30  and  C_37
   14  A    between atoms: N_32  and  C_35
   15  A    between atoms: O_33  and  C_45
   16  A    between atoms: C_39  and  C_44
   17  A    between atoms: C_42  and  C_45
                            x       y       z     vdW  Elec       q    Type
                         _______ _______ _______ _____ _____    ______ ____

>  <TORSDO>
F 17

$$$$
=
 OpenBabel11042415163D

 45 47  0  0  1  0  0  0  0  0999 V2000
  193.8000  173.8330  143.0430 C   0  0  2  0  0  3  0  0  0  0  0  0
  194.7540  171.6230  143.5880 C   0  0  0  0  0  3  0  0  0  0  0  0
  194.7640  172.0530  145.0230 C   0  0  0  0  0  2  0  0  0  0  0  0
  194.2920  172.4620  142.6550 C   0  0  0  0  0  3  0  0  0  0  0  0
  192.9790  173.7730  144.3590 C   0  0  1  0  0  3  0  0  0  0  0  0
  193.4260  172.7020  145.3780 C   0  0  0  0  0  2  0  0  0  0  0  0
  192.8400  175.0870  145.0010 N   0  0  0  0  0  0  0  0  0  0  0  0
  191.4000  176.5040  146.2080 O   0  0  0  0  0  0  0  0  0  0  0  0
  193.9680  175.9890  145.1070 C   0  0  0  0  0  0  0  0  0  0  0  0
  193.7840  177.2190  145.3110 O   0  0  0  0  0  0  0  0  0  0  0  0
  191.5500  175.4420  145.5450 C   0  0  0  0  0  0  0  0  0  0  0  0
  189.5180  174.5570  146.6230 C   0  0  0  0  0  1  0  0  0  0  0  0
  190.3680  174.5440  145.3690 C   0  0  0  0  0  2  0  0  0  0  0  0
  195.3730  175.4950  144.9650 C   0  0  0  0  0  2  0  0  0  0  0  0
  196.1430  176.3220  143.9480 C   0  0  0  0  0  2  0  0  0  0  0  0
  197.3920  175.7470  143.7080 O   0  0  0  0  0  0  0  0  0  0  0  0
  197.5750  175.8520  142.3280 C   0  0  0  0  0  2  0  0  0  0  0  0
  196.9080  174.8060  141.6890 O   0  0  0  0  0  0  0  0  0  0  0  0
  197.9220  174.0270  141.1290 C   0  0  0  0  0  2  0  0  0  0  0  0
  197.9410  171.9280  139.8050 C   0  0  0  0  0  1  0  0  0  0  0  0
  197.4200  173.3510  139.8650 C   0  0  2  0  0  3  0  0  0  0  0  0
  197.9200  174.1170  138.6500 C   0  0  0  0  0  2  0  0  0  0  0  0
  196.9760  174.0210  137.4510 C   0  0  1  0  0  3  0  0  0  0  0  0
  196.2420  175.1990  137.2870 O   0  0  0  0  0  1  0  0  0  0  0  0
  197.6770  173.6130  136.1560 C   0  0  0  0  0  2  0  0  0  0  0  0
  197.6060  172.1750  135.9530 N   0  0  0  0  0  1  0  0  0  0  0  0
  193.8440  174.8550  140.8630 O   0  0  0  0  0  1  0  0  0  0  0  0
  192.9940  174.4430  141.8920 C   0  0  1  0  0  3  0  0  0  0  0  0
  192.0550  173.4590  141.3680 N   0  0  0  0  0  2  0  0  0  0  0  0
  189.7730  174.2890  141.8180 C   0  0  0  0  0  3  0  0  0  0  0  0
  189.1280  173.8910  139.1660 N   0  0  0  0  0  0  0  0  0  0  0  0
  188.4880  174.5940  141.3640 C   0  0  0  0  0  0  0  0  0  0  0  0
  190.7320  173.7830  140.9330 C   0  0  0  0  0  0  0  0  0  0  0  0
  190.3820  173.5890  139.5960 C   0  0  0  0  0  3  0  0  0  0  0  0
  188.1850  174.3840  140.0130 C   0  0  0  0  0  3  0  0  0  0  0  0
  186.6350  176.5970  144.0500 N   0  0  0  0  0  2  0  0  0  0  0  0
  188.7900  176.8640  143.2020 O   0  0  0  0  0  0  0  0  0  0  0  0
  187.5260  175.1120  142.2930 N   0  0  0  0  0  2  0  0  0  0  0  0
  187.7080  176.2190  143.1840 C   0  0  0  0  0  0  0  0  0  0  0  0
  185.5330  178.6390  144.8210 C   0  0  0  0  0  2  0  0  0  0  0  0
  184.9190  178.5120  147.2660 C   0  0  0  0  0  2  0  0  0  0  0  0
  186.7350  177.7000  144.9940 C   0  0  0  0  0  3  0  0  0  0  0  0
  186.8800  177.1550  146.4230 C   0  0  0  0  0  2  0  0  0  0  0  0
  186.4060  178.1760  147.4520 C   0  0  0  0  0  2  0  0  0  0  0  0
  184.4250  178.3320  145.8240 C   0  0  0  0  0  2  0  0  0  0  0  0
  1 28  1  6  0  0  0
  1  5  1  0  0  0  0
  2  3  1  0  0  0  0
  3  6  1  0  0  0  0
  4  1  1  0  0  0  0
  4  2  2  0  0  0  0
  5  7  1  1  0  0  0
  5  6  1  0  0  0  0
  7  9  1  0  0  0  0
  7 11  1  0  0  0  0
  9 10  2  0  0  0  0
 11  8  2  0  0  0  0
 13 11  1  0  0  0  0
 13 12  1  0  0  0  0
 14  9  1  0  0  0  0
 15 14  1  0  0  0  0
 16 15  1  0  0  0  0
 17 16  1  0  0  0  0
 18 17  1  0  0  0  0
 19 18  1  0  0  0  0
 21 20  1  6  0  0  0
 21 19  1  0  0  0  0
 22 21  1  0  0  0  0
 23 24  1  6  0  0  0
 23 22  1  0  0  0  0
 25 23  1  0  0  0  0
 26 25  1  0  0  0  0
 28 27  1  6  0  0  0
 29 28  1  0  0  0  0
 31 34  2  0  0  0  0
 31 35  1  0  0  0  0
 32 30  1  0  0  0  0
 32 38  1  0  0  0  0
 33 29  1  0  0  0  0
 33 30  2  0  0  0  0
 34 33  1  0  0  0  0
 35 32  2  0  0  0  0
 36 42  1  0  0  0  0
 38 39  1  0  0  0  0
 39 37  2  0  0  0  0
 39 36  1  0  0  0  0
 40 42  1  0  0  0  0
 40 45  1  0  0  0  0
 41 44  1  0  0  0  0
 42 43  1  0  0  0  0
 43 44  1  0  0  0  0
 45 41  1  0  0  0  0
M  END
>  <MODEL>
6

>  <REMARK>
 VINA RESULT:      -5.7      2.837      5.627
  Name = 
  17 active torsions:
  status: ('A' for Active; 'I' for Inactive)
    1  A    between atoms: N_1  and  C_10
    2  A    between atoms: N_2  and  C_29
    3  A    between atoms: C_3  and  C_26
    4  A    between atoms: C_5  and  C_11
    5  A    between atoms: C_5  and  O_21
    6  A    between atoms: C_8  and  C_9
    7  A    between atoms: C_8  and  C_13
    8  A    between atoms: C_9  and  C_42
    9  A    between atoms: C_11  and  C_34
   10  A    between atoms: C_19  and  O_21
   11  A    between atoms: C_19  and  O_33
   12  A    between atoms: C_26  and  N_30
   13  A    between atoms: N_30  and  C_37
   14  A    between atoms: N_32  and  C_35
   15  A    between atoms: O_33  and  C_45
   16  A    between atoms: C_39  and  C_44
   17  A    between atoms: C_42  and  C_45
                            x       y       z     vdW  Elec       q    Type
                         _______ _______ _______ _____ _____    ______ ____

>  <TORSDO>
F 17

$$$$
=
 OpenBabel11042415163D

 45 47  0  0  1  0  0  0  0  0999 V2000
  190.8980  176.0910  144.7620 C   0  0  2  0  0  3  0  0  0  0  0  0
  189.7260  176.4390  146.9060 C   0  0  0  0  0  3  0  0  0  0  0  0
  188.9170  175.2180  146.5880 C   0  0  0  0  0  2  0  0  0  0  0  0
  190.6650  176.8450  146.0460 C   0  0  0  0  0  3  0  0  0  0  0  0
  190.8220  174.5590  145.0010 C   0  0  1  0  0  3  0  0  0  0  0  0
  189.8380  174.1000  146.0990 C   0  0  0  0  0  2  0  0  0  0  0  0
  190.6180  173.8000  143.7590 N   0  0  0  0  0  0  0  0  0  0  0  0
  191.2110  171.8660  142.5580 O   0  0  0  0  0  0  0  0  0  0  0  0
  189.6250  174.2110  142.7880 C   0  0  0  0  0  0  0  0  0  0  0  0
  189.6920  173.8070  141.5970 O   0  0  0  0  0  0  0  0  0  0  0  0
  191.4210  172.6190  143.5470 C   0  0  0  0  0  0  0  0  0  0  0  0
  193.8510  172.3270  143.8380 C   0  0  0  0  0  1  0  0  0  0  0  0
  192.4980  172.2370  144.5130 C   0  0  0  0  0  2  0  0  0  0  0  0
  188.5080  175.1320  143.1640 C   0  0  0  0  0  2  0  0  0  0  0  0
  187.9090  175.7960  141.9340 C   0  0  0  0  0  2  0  0  0  0  0  0
  187.6790  177.1500  142.1820 O   0  0  0  0  0  0  0  0  0  0  0  0
  187.2530  177.6710  140.9600 C   0  0  0  0  0  2  0  0  0  0  0  0
  185.9530  177.2380  140.6970 O   0  0  0  0  0  0  0  0  0  0  0  0
  185.1500  178.3530  140.9450 C   0  0  0  0  0  2  0  0  0  0  0  0
  182.6750  178.2740  140.7800 C   0  0  0  0  0  1  0  0  0  0  0  0
  183.8710  177.9270  141.6450 C   0  0  2  0  0  3  0  0  0  0  0  0
  183.7560  178.6590  142.9730 C   0  0  0  0  0  2  0  0  0  0  0  0
  185.0680  178.6850  143.7580 C   0  0  1  0  0  3  0  0  0  0  0  0
  185.5540  179.9900  143.8910 O   0  0  0  0  0  1  0  0  0  0  0  0
  184.9810  177.9810  145.1110 C   0  0  0  0  0  2  0  0  0  0  0  0
  186.1290  177.1150  145.3240 N   0  0  0  0  0  1  0  0  0  0  0  0
  192.2810  177.8930  143.9670 O   0  0  0  0  0  1  0  0  0  0  0  0
  192.2360  176.5090  144.1460 C   0  0  1  0  0  3  0  0  0  0  0  0
  193.3320  176.1070  145.0190 N   0  0  0  0  0  2  0  0  0  0  0  0
  195.0210  176.0130  143.2190 C   0  0  0  0  0  3  0  0  0  0  0  0
  196.8020  174.8590  144.9790 N   0  0  0  0  0  0  0  0  0  0  0  0
  196.3030  175.6720  142.7830 C   0  0  0  0  0  0  0  0  0  0  0  0
  194.6380  175.7710  144.5430 C   0  0  0  0  0  0  0  0  0  0  0  0
  195.5570  175.1850  145.4160 C   0  0  0  0  0  3  0  0  0  0  0  0
  197.1900  175.0890  143.6970 C   0  0  0  0  0  3  0  0  0  0  0  0
  196.9390  175.4690  139.0130 N   0  0  0  0  0  2  0  0  0  0  0  0
  195.9950  173.9030  140.4580 O   0  0  0  0  0  0  0  0  0  0  0  0
  196.6680  175.9320  141.4210 N   0  0  0  0  0  2  0  0  0  0  0  0
  196.5120  175.0430  140.3080 C   0  0  0  0  0  0  0  0  0  0  0  0
  195.3850  174.6540  137.3100 C   0  0  0  0  0  2  0  0  0  0  0  0
  196.1010  175.3270  134.9840 C   0  0  0  0  0  2  0  0  0  0  0  0
  196.8300  174.6280  137.8300 C   0  0  0  0  0  3  0  0  0  0  0  0
  197.8630  175.0640  136.7800 C   0  0  0  0  0  2  0  0  0  0  0  0
  197.4250  174.6560  135.3770 C   0  0  0  0  0  2  0  0  0  0  0  0
  195.2080  175.6690  136.1830 C   0  0  0  0  0  2  0  0  0  0  0  0
  1 28  1  1  0  0  0
  1  5  1  0  0  0  0
  1  4  1  0  0  0  0
  3  2  1  0  0  0  0
  4  2  2  0  0  0  0
  5  7  1  6  0  0  0
  5  6  1  0  0  0  0
  6  3  1  0  0  0  0
  8 11  2  0  0  0  0
  9 14  1  0  0  0  0
  9  7  1  0  0  0  0
 10  9  2  0  0  0  0
 11  7  1  0  0  0  0
 11 13  1  0  0  0  0
 12 13  1  0  0  0  0
 15 16  1  0  0  0  0
 15 14  1  0  0  0  0
 17 16  1  0  0  0  0
 18 19  1  0  0  0  0
 18 17  1  0  0  0  0
 19 21  1  0  0  0  0
 21 20  1  6  0  0  0
 21 22  1  0  0  0  0
 22 23  1  0  0  0  0
 23 24  1  1  0  0  0
 23 25  1  0  0  0  0
 25 26  1  0  0  0  0
 28 27  1  1  0  0  0
 28 29  1  0  0  0  0
 30 33  1  0  0  0  0
 31 34  1  0  0  0  0
 32 30  2  0  0  0  0
 32 35  1  0  0  0  0
 33 29  1  0  0  0  0
 33 34  2  0  0  0  0
 35 31  2  0  0  0  0
 36 39  1  0  0  0  0
 38 32  1  0  0  0  0
 39 37  2  0  0  0  0
 39 38  1  0  0  0  0
 40 42  1  0  0  0  0
 41 44  1  0  0  0  0
 41 45  1  0  0  0  0
 42 36  1  0  0  0  0
 43 42  1  0  0  0  0
 44 43  1  0  0  0  0
 45 40  1  0  0  0  0
M  END
>  <MODEL>
7

>  <REMARK>
 VINA RESULT:      -5.7      3.357      8.473
  Name = 
  17 active torsions:
  status: ('A' for Active; 'I' for Inactive)
    1  A    between atoms: N_1  and  C_10
    2  A    between atoms: N_2  and  C_29
    3  A    between atoms: C_3  and  C_26
    4  A    between atoms: C_5  and  C_11
    5  A    between atoms: C_5  and  O_21
    6  A    between atoms: C_8  and  C_9
    7  A    between atoms: C_8  and  C_13
    8  A    between atoms: C_9  and  C_42
    9  A    between atoms: C_11  and  C_34
   10  A    between atoms: C_19  and  O_21
   11  A    between atoms: C_19  and  O_33
   12  A    between atoms: C_26  and  N_30
   13  A    between atoms: N_30  and  C_37
   14  A    between atoms: N_32  and  C_35
   15  A    between atoms: O_33  and  C_45
   16  A    between atoms: C_39  and  C_44
   17  A    between atoms: C_42  and  C_45
                            x       y       z     vdW  Elec       q    Type
                         _______ _______ _______ _____ _____    ______ ____

>  <TORSDO>
F 17

$$$$
=
 OpenBabel11042415163D

 45 47  0  0  1  0  0  0  0  0999 V2000
  193.7310  174.1190  145.0550 C   0  0  2  0  0  3  0  0  0  0  0  0
  192.4910  175.2880  146.8390 C   0  0  0  0  0  3  0  0  0  0  0  0
  193.5300  176.3650  146.7670 C   0  0  0  0  0  2  0  0  0  0  0  0
  192.5830  174.2320  146.0250 C   0  0  0  0  0  3  0  0  0  0  0  0
  194.0450  175.4950  144.4090 C   0  0  1  0  0  3  0  0  0  0  0  0
  193.7990  176.7270  145.3060 C   0  0  0  0  0  2  0  0  0  0  0  0
  195.3810  175.5440  143.8000 N   0  0  0  0  0  0  0  0  0  0  0  0
  197.6370  174.9160  144.0370 O   0  0  0  0  0  0  0  0  0  0  0  0
  195.5780  176.0950  142.4750 C   0  0  0  0  0  0  0  0  0  0  0  0
  196.7210  176.4720  142.1040 O   0  0  0  0  0  0  0  0  0  0  0  0
  196.4900  175.0050  144.5520 C   0  0  0  0  0  0  0  0  0  0  0  0
  197.0090  173.1790  146.1240 C   0  0  0  0  0  1  0  0  0  0  0  0
  196.3000  174.5060  145.9500 C   0  0  0  0  0  2  0  0  0  0  0  0
  194.4360  176.2450  141.5200 C   0  0  0  0  0  2  0  0  0  0  0  0
  194.1600  174.9410  140.7890 C   0  0  0  0  0  2  0  0  0  0  0  0
  192.7890  174.6800  140.7730 O   0  0  0  0  0  0  0  0  0  0  0  0
  192.6670  173.4420  140.1410 C   0  0  0  0  0  2  0  0  0  0  0  0
  191.6020  173.4800  139.2410 O   0  0  0  0  0  0  0  0  0  0  0  0
  191.9420  172.5620  138.2470 C   0  0  0  0  0  2  0  0  0  0  0  0
  192.9300  173.8450  136.3670 C   0  0  0  0  0  1  0  0  0  0  0  0
  191.6770  173.1590  136.8760 C   0  0  2  0  0  3  0  0  0  0  0  0
  190.5550  174.1800  136.9770 C   0  0  0  0  0  2  0  0  0  0  0  0
  189.1830  173.5980  136.6350 C   0  0  1  0  0  3  0  0  0  0  0  0
  189.3020  172.4460  135.8520 O   0  0  0  0  0  1  0  0  0  0  0  0
  188.3040  173.3550  137.8600 C   0  0  0  0  0  2  0  0  0  0  0  0
  188.1850  174.5590  138.6670 N   0  0  0  0  0  1  0  0  0  0  0  0
  194.3860  172.0390  144.0330 O   0  0  0  0  0  1  0  0  0  0  0  0
  193.4220  173.0500  144.0030 C   0  0  1  0  0  3  0  0  0  0  0  0
  192.1120  172.4640  144.2600 N   0  0  0  0  0  2  0  0  0  0  0  0
  190.2060  173.8300  143.4830 C   0  0  0  0  0  3  0  0  0  0  0  0
  189.5470  171.8480  141.6820 N   0  0  0  0  0  0  0  0  0  0  0  0
  189.1010  173.9950  142.6450 C   0  0  0  0  0  0  0  0  0  0  0  0
  190.9770  172.6640  143.4130 C   0  0  0  0  0  0  0  0  0  0  0  0
  190.6240  171.6740  142.4940 C   0  0  0  0  0  3  0  0  0  0  0  0
  188.7890  172.9750  141.7370 C   0  0  0  0  0  3  0  0  0  0  0  0
  187.2100  177.1010  143.8400 N   0  0  0  0  0  2  0  0  0  0  0  0
  188.4010  175.5120  145.0600 O   0  0  0  0  0  0  0  0  0  0  0  0
  188.3300  175.2000  142.7370 N   0  0  0  0  0  2  0  0  0  0  0  0
  187.9980  175.9130  143.9360 C   0  0  0  0  0  0  0  0  0  0  0  0
  186.0700  179.1440  144.5510 C   0  0  0  0  0  2  0  0  0  0  0  0
  184.0780  178.6490  146.0200 C   0  0  0  0  0  2  0  0  0  0  0  0
  186.8160  177.8810  145.0040 C   0  0  0  0  0  3  0  0  0  0  0  0
  186.0020  177.0070  145.9700 C   0  0  0  0  0  2  0  0  0  0  0  0
  185.0980  177.8610  146.8540 C   0  0  0  0  0  2  0  0  0  0  0  0
  184.5570  178.9540  144.5950 C   0  0  0  0  0  2  0  0  0  0  0  0
  1 28  1  6  0  0  0
  1  4  1  0  0  0  0
  3  2  1  0  0  0  0
  4  2  2  0  0  0  0
  5  7  1  1  0  0  0
  5  1  1  0  0  0  0
  5  6  1  0  0  0  0
  6  3  1  0  0  0  0
  7 11  1  0  0  0  0
  8 11  2  0  0  0  0
  9  7  1  0  0  0  0
 10  9  2  0  0  0  0
 11 13  1  0  0  0  0
 13 12  1  0  0  0  0
 14  9  1  0  0  0  0
 15 14  1  0  0  0  0
 16 15  1  0  0  0  0
 17 16  1  0  0  0  0
 18 17  1  0  0  0  0
 19 18  1  0  0  0  0
 21 20  1  1  0  0  0
 21 22  1  0  0  0  0
 21 19  1  0  0  0  0
 23 24  1  1  0  0  0
 23 22  1  0  0  0  0
 23 25  1  0  0  0  0
 25 26  1  0  0  0  0
 28 27  1  1  0  0  0
 28 29  1  0  0  0  0
 31 35  2  0  0  0  0
 31 34  1  0  0  0  0
 32 38  1  0  0  0  0
 32 30  2  0  0  0  0
 33 30  1  0  0  0  0
 33 29  1  0  0  0  0
 34 33  2  0  0  0  0
 35 32  1  0  0  0  0
 36 39  1  0  0  0  0
 36 42  1  0  0  0  0
 38 39  1  0  0  0  0
 39 37  2  0  0  0  0
 40 45  1  0  0  0  0
 40 42  1  0  0  0  0
 41 44  1  0  0  0  0
 42 43  1  0  0  0  0
 43 44  1  0  0  0  0
 45 41  1  0  0  0  0
M  END
>  <MODEL>
8

>  <REMARK>
 VINA RESULT:      -5.7      2.597      5.271
  Name = 
  17 active torsions:
  status: ('A' for Active; 'I' for Inactive)
    1  A    between atoms: N_1  and  C_10
    2  A    between atoms: N_2  and  C_29
    3  A    between atoms: C_3  and  C_26
    4  A    between atoms: C_5  and  C_11
    5  A    between atoms: C_5  and  O_21
    6  A    between atoms: C_8  and  C_9
    7  A    between atoms: C_8  and  C_13
    8  A    between atoms: C_9  and  C_42
    9  A    between atoms: C_11  and  C_34
   10  A    between atoms: C_19  and  O_21
   11  A    between atoms: C_19  and  O_33
   12  A    between atoms: C_26  and  N_30
   13  A    between atoms: N_30  and  C_37
   14  A    between atoms: N_32  and  C_35
   15  A    between atoms: O_33  and  C_45
   16  A    between atoms: C_39  and  C_44
   17  A    between atoms: C_42  and  C_45
                            x       y       z     vdW  Elec       q    Type
                         _______ _______ _______ _____ _____    ______ ____

>  <TORSDO>
F 17

$$$$
=
 OpenBabel11042415163D

 45 47  0  0  1  0  0  0  0  0999 V2000
  193.8630  171.4440  143.1200 C   0  0  2  0  0  3  0  0  0  0  0  0
  194.1970  171.7350  145.5470 C   0  0  0  0  0  3  0  0  0  0  0  0
  195.6600  171.8900  145.2620 C   0  0  0  0  0  2  0  0  0  0  0  0
  193.3500  171.5320  144.5340 C   0  0  0  0  0  3  0  0  0  0  0  0
  194.9700  172.5020  142.8680 C   0  0  1  0  0  3  0  0  0  0  0  0
  195.8600  172.8420  144.0830 C   0  0  0  0  0  2  0  0  0  0  0  0
  195.7880  172.1970  141.6850 N   0  0  0  0  0  0  0  0  0  0  0  0
  196.9950  170.5270  140.5500 O   0  0  0  0  0  0  0  0  0  0  0  0
  195.9730  173.1760  140.6340 C   0  0  0  0  0  0  0  0  0  0  0  0
  196.9350  173.0710  139.8270 O   0  0  0  0  0  0  0  0  0  0  0  0
  196.3810  170.8840  141.5910 C   0  0  0  0  0  0  0  0  0  0  0  0
  197.6260  169.5350  143.2370 C   0  0  0  0  0  1  0  0  0  0  0  0
  196.2530  169.9000  142.7110 C   0  0  0  0  0  2  0  0  0  0  0  0
  195.0450  174.3400  140.4850 C   0  0  0  0  0  2  0  0  0  0  0  0
  195.7630  175.6510  140.7620 C   0  0  0  0  0  2  0  0  0  0  0  0
  194.9040  176.5420  141.4080 O   0  0  0  0  0  0  0  0  0  0  0  0
  194.8040  176.0590  142.7130 C   0  0  0  0  0  2  0  0  0  0  0  0
  193.5460  176.3710  143.2310 O   0  0  0  0  0  0  0  0  0  0  0  0
  193.2610  175.3360  144.1220 C   0  0  0  0  0  2  0  0  0  0  0  0
  194.6250  175.6760  146.1670 C   0  0  0  0  0  1  0  0  0  0  0  0
  193.2540  175.8630  145.5470 C   0  0  2  0  0  3  0  0  0  0  0  0
  192.2280  175.0930  146.3650 C   0  0  0  0  0  2  0  0  0  0  0  0
  190.7990  175.5950  146.1560 C   0  0  1  0  0  3  0  0  0  0  0  0
  189.8710  174.5580  146.2990 O   0  0  0  0  0  1  0  0  0  0  0  0
  190.4400  176.7910  147.0350 C   0  0  0  0  0  2  0  0  0  0  0  0
  191.2150  176.7870  148.2660 N   0  0  0  0  0  1  0  0  0  0  0  0
  192.2530  170.3280  141.7200 O   0  0  0  0  0  1  0  0  0  0  0  0
  192.7010  171.5850  142.1320 C   0  0  1  0  0  3  0  0  0  0  0  0
  191.5970  172.2980  142.7640 N   0  0  0  0  0  2  0  0  0  0  0  0
  189.5800  173.7220  142.6840 C   0  0  0  0  0  3  0  0  0  0  0  0
  189.7700  173.7990  139.9330 N   0  0  0  0  0  0  0  0  0  0  0  0
  188.6370  174.4390  141.9440 C   0  0  0  0  0  0  0  0  0  0  0  0
  190.6180  173.0430  142.0350 C   0  0  0  0  0  0  0  0  0  0  0  0
  190.6930  173.0960  140.6420 C   0  0  0  0  0  3  0  0  0  0  0  0
  188.7560  174.4640  140.5490 C   0  0  0  0  0  3  0  0  0  0  0  0
  186.5650  176.7980  144.1340 N   0  0  0  0  0  2  0  0  0  0  0  0
  188.8650  176.7330  143.7630 O   0  0  0  0  0  0  0  0  0  0  0  0
  187.5850  175.1250  142.6350 N   0  0  0  0  0  2  0  0  0  0  0  0
  187.7310  176.2390  143.5250 C   0  0  0  0  0  0  0  0  0  0  0  0
  185.3610  178.7860  144.8960 C   0  0  0  0  0  2  0  0  0  0  0  0
  184.8070  178.6650  147.3550 C   0  0  0  0  0  2  0  0  0  0  0  0
  186.6200  177.9220  145.0580 C   0  0  0  0  0  3  0  0  0  0  0  0
  186.8270  177.4110  146.4920 C   0  0  0  0  0  2  0  0  0  0  0  0
  186.3150  178.4210  147.5140 C   0  0  0  0  0  2  0  0  0  0  0  0
  184.2950  178.4320  145.9290 C   0  0  0  0  0  2  0  0  0  0  0  0
  1 28  1  6  0  0  0
  1  4  1  0  0  0  0
  3  2  1  0  0  0  0
  4  2  2  0  0  0  0
  5  7  1  6  0  0  0
  5  1  1  0  0  0  0
  5  6  1  0  0  0  0
  6  3  1  0  0  0  0
  8 11  2  0  0  0  0
  9  7  1  0  0  0  0
 10  9  2  0  0  0  0
 11  7  1  0  0  0  0
 11 13  1  0  0  0  0
 13 12  1  0  0  0  0
 14  9  1  0  0  0  0
 14 15  1  0  0  0  0
 15 16  1  0  0  0  0
 16 17  1  0  0  0  0
 17 18  1  0  0  0  0
 18 19  1  0  0  0  0
 19 21  1  0  0  0  0
 21 20  1  1  0  0  0
 21 22  1  0  0  0  0
 23 24  1  1  0  0  0
 23 22  1  0  0  0  0
 23 25  1  0  0  0  0
 25 26  1  0  0  0  0
 28 27  1  1  0  0  0
 28 29  1  0  0  0  0
 31 35  2  0  0  0  0
 31 34  1  0  0  0  0
 32 38  1  0  0  0  0
 32 30  2  0  0  0  0
 33 30  1  0  0  0  0
 33 29  1  0  0  0  0
 34 33  2  0  0  0  0
 35 32  1  0  0  0  0
 36 42  1  0  0  0  0
 38 39  1  0  0  0  0
 39 37  2  0  0  0  0
 39 36  1  0  0  0  0
 40 42  1  0  0  0  0
 40 45  1  0  0  0  0
 41 44  1  0  0  0  0
 42 43  1  0  0  0  0
 43 44  1  0  0  0  0
 45 41  1  0  0  0  0
M  END
>  <MODEL>
9

>  <REMARK>
 VINA RESULT:      -5.7      2.260      3.192
  Name = 
  17 active torsions:
  status: ('A' for Active; 'I' for Inactive)
    1  A    between atoms: N_1  and  C_10
    2  A    between atoms: N_2  and  C_29
    3  A    between atoms: C_3  and  C_26
    4  A    between atoms: C_5  and  C_11
    5  A    between atoms: C_5  and  O_21
    6  A    between atoms: C_8  and  C_9
    7  A    between atoms: C_8  and  C_13
    8  A    between atoms: C_9  and  C_42
    9  A    between atoms: C_11  and  C_34
   10  A    between atoms: C_19  and  O_21
   11  A    between atoms: C_19  and  O_33
   12  A    between atoms: C_26  and  N_30
   13  A    between atoms: N_30  and  C_37
   14  A    between atoms: N_32  and  C_35
   15  A    between atoms: O_33  and  C_45
   16  A    between atoms: C_39  and  C_44
   17  A    between atoms: C_42  and  C_45
                            x       y       z     vdW  Elec       q    Type
                         _______ _______ _______ _____ _____    ______ ____

>  <TORSDO>
F 17

$$$$
