=
 OpenBabel11042417313D

 39 40  0  0  1  0  0  0  0  0999 V2000
  190.2820  174.1410  145.0980 C   0  0  2  0  0  3  0  0  0  0  0  0
  194.2170  175.8050  144.4990 C   0  0  0  0  0  0  0  0  0  0  0  0
  194.0730  174.5750  145.1590 C   0  0  0  0  0  3  0  0  0  0  0  0
  191.6620  174.7010  144.8970 C   0  0  0  0  0  0  0  0  0  0  0  0
  192.8030  174.0260  145.3580 C   0  0  0  0  0  3  0  0  0  0  0  0
  191.8060  175.9250  144.2370 C   0  0  0  0  0  3  0  0  0  0  0  0
  193.0760  176.4750  144.0410 C   0  0  0  0  0  3  0  0  0  0  0  0
  197.5750  176.8860  143.1030 O   0  0  0  0  0  1  0  0  0  0  0  0
  196.3230  176.2870  143.1180 C   0  0  0  0  0  0  0  0  0  0  0  0
  195.5020  176.4070  144.2890 N   0  0  0  0  0  2  0  0  0  0  0  0
  195.9220  175.6650  142.0970 O   0  0  0  0  0  0  0  0  0  0  0  0
  189.9430  172.9650  144.2240 C   0  0  0  0  0  0  0  0  0  0  0  0
  189.7040  171.8500  144.7670 O   0  0  0  0  0  0  0  0  0  0  0  0
  189.8800  173.1060  142.7990 N   0  0  0  0  0  0  0  0  0  0  0  0
  190.8070  172.6490  142.0180 C   0  0  0  0  0  3  0  0  0  0  0  0
  190.7130  172.8450  140.5420 C   0  0  0  0  0  2  0  0  0  0  0  0
  189.4490  173.6070  140.1600 C   0  0  0  0  0  2  0  0  0  0  0  0
  190.3970  173.8250  137.8260 N   0  0  0  0  0  2  0  0  0  0  0  0
  189.2650  173.6280  138.6770 C   0  0  0  0  0  0  0  0  0  0  0  0
  188.1160  173.4460  138.1840 O   0  0  0  0  0  0  0  0  0  0  0  0
  190.2780  173.8260  136.3750 C   0  0  0  0  0  1  0  0  0  0  0  0
  189.1840  175.2090  145.1570 C   0  0  0  0  0  2  0  0  0  0  0  0
  188.8120  175.6240  146.5770 C   0  0  1  0  0  3  0  0  0  0  0  0
  190.7850  176.4310  147.8230 C   0  0  0  0  0  2  0  0  0  0  0  0
  189.9760  175.4230  147.5080 C   0  0  0  0  0  3  0  0  0  0  0  0
  188.2090  177.5990  145.1720 C   0  0  0  0  0  1  0  0  0  0  0  0
  188.2470  177.0560  146.5920 C   0  0  1  0  0  3  0  0  0  0  0  0
  185.7640  177.1720  146.2510 C   0  0  0  0  0  3  0  0  0  0  0  0
  186.7150  178.4980  147.8840 N   0  0  0  0  0  0  0  0  0  0  0  0
  186.8690  177.1840  147.2670 C   0  0  2  0  0  3  0  0  0  0  0  0
  185.1500  178.3350  146.3620 C   0  0  0  0  0  0  0  0  0  0  0  0
  185.7480  179.1360  147.3670 N   0  0  0  0  0  0  0  0  0  0  0  0
  184.0340  179.1050  144.2850 C   0  0  0  0  0  3  0  0  0  0  0  0
  183.9810  178.7210  145.5600 C   0  0  0  0  0  3  0  0  0  0  0  0
  185.2330  179.1630  143.5820 O   0  0  0  0  0  0  0  0  0  0  0  0
  185.5430  178.0610  142.3060 P   0  0  0  0  0  0  0  0  0  0  0  0
  186.8220  178.4540  141.6020 O   0  0  0  0  0  1  0  0  0  0  0  0
  184.2610  178.0870  141.2040 O   0  0  0  0  0  0  0  0  0  0  0  0
  185.7070  176.5040  142.9420 O   0  0  0  0  0  1  0  0  0  0  0  0
  1 22  1  6  0  0  0
  2  3  1  0  0  0  0
  3  5  2  0  0  0  0
  4  1  1  0  0  0  0
  4  5  1  0  0  0  0
  6  4  2  0  0  0  0
  7  6  1  0  0  0  0
  7  2  2  0  0  0  0
  8  9  1  0  0  0  0
  9 10  1  0  0  0  0
 10  2  1  0  0  0  0
 11  9  2  0  0  0  0
 12 13  2  0  0  0  0
 12  1  1  0  0  0  0
 14 12  1  0  0  0  0
 15 14  2  0  0  0  0
 16 15  1  0  0  0  0
 17 16  1  0  0  0  0
 18 19  1  0  0  0  0
 19 17  1  0  0  0  0
 20 19  2  0  0  0  0
 21 18  1  0  0  0  0
 23 22  1  6  0  0  0
 23 27  1  0  0  0  0
 23 25  1  0  0  0  0
 25 24  2  0  0  0  0
 27 26  1  6  0  0  0
 28 31  2  0  0  0  0
 28 30  1  0  0  0  0
 30 27  1  6  0  0  0
 30 29  1  0  0  0  0
 31 32  1  0  0  0  0
 32 29  2  0  0  0  0
 33 34  2  0  0  0  0
 34 31  1  0  0  0  0
 35 33  1  0  0  0  0
 36 39  1  0  0  0  0
 36 35  1  0  0  0  0
 37 36  1  0  0  0  0
 38 36  2  0  0  0  0
M  END
>  <MODEL>
1

>  <REMARK>
 VINA RESULT:      -7.1      0.000      0.000
  Name = 
  15 active torsions:
  status: ('A' for Active; 'I' for Inactive)
    1  A    between atoms: C_1  and  O_5
    2  A    between atoms: C_2  and  N_21
    3  A    between atoms: O_5  and  P_7
    4  A    between atoms: C_12  and  C_35
    5  A    between atoms: C_13  and  C_15
    6  A    between atoms: C_15  and  C_35
    7  A    between atoms: C_16  and  C_25
    8  A    between atoms: C_16  and  C_37
    9  A    between atoms: C_17  and  C_19
   10  A    between atoms: C_18  and  C_31
   11  A    between atoms: C_18  and  C_35
   12  A    between atoms: C_22  and  C_25
   13  A    between atoms: C_23  and  C_31
   14  A    between atoms: N_28  and  C_32
   15  A    between atoms: C_31  and  C_32
                            x       y       z     vdW  Elec       q    Type
                         _______ _______ _______ _____ _____    ______ ____

>  <TORSDO>
F 15

$$$$
=
 OpenBabel11042417313D

 39 40  0  0  1  0  0  0  0  0999 V2000
  189.8250  175.1230  144.4720 C   0  0  2  0  0  3  0  0  0  0  0  0
  190.6840  171.9940  141.6280 C   0  0  0  0  0  0  0  0  0  0  0  0
  189.7390  171.7750  142.6430 C   0  0  0  0  0  3  0  0  0  0  0  0
  190.1070  174.0200  143.4900 C   0  0  0  0  0  0  0  0  0  0  0  0
  189.4520  172.7810  143.5680 C   0  0  0  0  0  3  0  0  0  0  0  0
  191.0460  174.2400  142.4780 C   0  0  0  0  0  3  0  0  0  0  0  0
  191.3340  173.2310  141.5530 C   0  0  0  0  0  3  0  0  0  0  0  0
  190.7750  169.6790  138.6230 O   0  0  0  0  0  0  0  0  0  0  0  0
  190.3670  170.7490  139.4090 C   0  0  0  0  0  0  0  0  0  0  0  0
  191.0150  170.9800  140.6680 N   0  0  0  0  0  2  0  0  0  0  0  0
  189.4510  171.5080  138.9940 O   0  0  0  0  0  1  0  0  0  0  0  0
  190.2170  174.8220  145.8910 C   0  0  0  0  0  0  0  0  0  0  0  0
  189.3800  174.2560  146.6490 O   0  0  0  0  0  0  0  0  0  0  0  0
  191.5230  175.1580  146.3770 N   0  0  0  0  0  0  0  0  0  0  0  0
  192.3000  175.9850  145.7540 C   0  0  0  0  0  3  0  0  0  0  0  0
  193.6630  176.2820  146.2820 C   0  0  0  0  0  2  0  0  0  0  0  0
  194.5860  175.0760  146.1550 C   0  0  0  0  0  2  0  0  0  0  0  0
  195.6000  176.5120  144.3390 N   0  0  0  0  0  2  0  0  0  0  0  0
  195.6030  175.2910  145.0820 C   0  0  0  0  0  0  0  0  0  0  0  0
  196.4730  174.4040  144.8550 O   0  0  0  0  0  0  0  0  0  0  0  0
  196.5850  176.7840  143.3010 C   0  0  0  0  0  1  0  0  0  0  0  0
  188.4270  175.7350  144.3290 C   0  0  0  0  0  2  0  0  0  0  0  0
  188.4340  177.1470  143.7490 C   0  0  1  0  0  3  0  0  0  0  0  0
  190.5710  178.0460  142.9010 C   0  0  0  0  0  2  0  0  0  0  0  0
  189.7810  177.7880  143.9390 C   0  0  0  0  0  3  0  0  0  0  0  0
  187.4240  175.7510  141.9410 C   0  0  0  0  0  1  0  0  0  0  0  0
  187.9550  177.1330  142.2860 C   0  0  1  0  0  3  0  0  0  0  0  0
  186.4030  178.8810  143.1980 C   0  0  0  0  0  2  0  0  0  0  0  0
  185.7090  177.6270  141.3890 N   0  0  0  0  0  2  0  0  0  0  0  0
  186.9180  178.2200  141.9520 C   0  0  2  0  0  3  0  0  0  0  0  0
  185.1060  178.6370  143.2340 C   0  0  0  0  0  0  0  0  0  0  0  0
  184.6990  177.8660  142.1170 N   0  0  0  0  0  0  0  0  0  0  0  0
  184.2380  178.7280  145.5550 C   0  0  0  0  0  3  0  0  0  0  0  0
  184.2100  179.1350  144.2870 C   0  0  0  0  0  3  0  0  0  0  0  0
  185.1500  177.7800  146.0060 O   0  0  0  0  0  0  0  0  0  0  0  0
  186.1360  178.1050  147.3700 P   0  0  0  0  0  0  0  0  0  0  0  0
  185.6880  177.2470  148.5310 O   0  0  0  0  0  1  0  0  0  0  0  0
  186.0090  179.7370  147.7910 O   0  0  0  0  0  1  0  0  0  0  0  0
  187.7440  177.7450  146.9930 O   0  0  0  0  0  0  0  0  0  0  0  0
  1 22  1  1  0  0  0
  1 12  1  0  0  0  0
  2  3  1  0  0  0  0
  3  5  2  0  0  0  0
  4  5  1  0  0  0  0
  4  1  1  0  0  0  0
  6  4  2  0  0  0  0
  7  2  2  0  0  0  0
  7  6  1  0  0  0  0
  8  9  2  0  0  0  0
  9 10  1  0  0  0  0
 10  2  1  0  0  0  0
 11  9  1  0  0  0  0
 12 14  1  0  0  0  0
 12 13  2  0  0  0  0
 15 16  1  0  0  0  0
 15 14  2  0  0  0  0
 17 16  1  0  0  0  0
 18 19  1  0  0  0  0
 19 17  1  0  0  0  0
 20 19  2  0  0  0  0
 21 18  1  0  0  0  0
 23 25  1  6  0  0  0
 23 22  1  0  0  0  0
 24 25  2  0  0  0  0
 27 26  1  1  0  0  0
 27 23  1  0  0  0  0
 28 31  1  0  0  0  0
 29 30  1  0  0  0  0
 29 32  1  0  0  0  0
 30 27  1  1  0  0  0
 30 28  1  0  0  0  0
 31 34  1  0  0  0  0
 32 31  2  0  0  0  0
 33 35  1  0  0  0  0
 34 33  2  0  0  0  0
 35 36  1  0  0  0  0
 36 38  1  0  0  0  0
 36 37  1  0  0  0  0
 39 36  2  0  0  0  0
M  END
>  <MODEL>
2

>  <REMARK>
 VINA RESULT:      -6.9      2.913      5.939
  Name = 
  15 active torsions:
  status: ('A' for Active; 'I' for Inactive)
    1  A    between atoms: C_1  and  O_5
    2  A    between atoms: C_2  and  N_21
    3  A    between atoms: O_5  and  P_7
    4  A    between atoms: C_12  and  C_35
    5  A    between atoms: C_13  and  C_15
    6  A    between atoms: C_15  and  C_35
    7  A    between atoms: C_16  and  C_25
    8  A    between atoms: C_16  and  C_37
    9  A    between atoms: C_17  and  C_19
   10  A    between atoms: C_18  and  C_31
   11  A    between atoms: C_18  and  C_35
   12  A    between atoms: C_22  and  C_25
   13  A    between atoms: C_23  and  C_31
   14  A    between atoms: N_28  and  C_32
   15  A    between atoms: C_31  and  C_32
                            x       y       z     vdW  Elec       q    Type
                         _______ _______ _______ _____ _____    ______ ____

>  <TORSDO>
F 15

$$$$
=
 OpenBabel11042417313D

 39 40  0  0  1  0  0  0  0  0999 V2000
  188.1870  176.8930  143.2720 C   0  0  2  0  0  3  0  0  0  0  0  0
  189.4130  173.1830  141.4410 C   0  0  0  0  0  0  0  0  0  0  0  0
  188.0570  173.4050  141.7290 C   0  0  0  0  0  3  0  0  0  0  0  0
  188.5920  175.5940  142.6310 C   0  0  0  0  0  0  0  0  0  0  0  0
  187.6490  174.6030  142.3210 C   0  0  0  0  0  3  0  0  0  0  0  0
  189.9420  175.3750  142.3430 C   0  0  0  0  0  3  0  0  0  0  0  0
  190.3500  174.1760  141.7520 C   0  0  0  0  0  3  0  0  0  0  0  0
  190.3500  170.4000  139.0390 O   0  0  0  0  0  1  0  0  0  0  0  0
  189.9370  171.6630  139.4450 C   0  0  0  0  0  0  0  0  0  0  0  0
  189.8720  171.9610  140.8470 N   0  0  0  0  0  2  0  0  0  0  0  0
  189.6450  172.5280  138.5760 O   0  0  0  0  0  0  0  0  0  0  0  0
  187.6840  177.9400  142.3170 C   0  0  0  0  0  0  0  0  0  0  0  0
  188.4660  178.3800  141.4280 O   0  0  0  0  0  0  0  0  0  0  0  0
  186.3380  178.4230  142.4030 N   0  0  0  0  0  0  0  0  0  0  0  0
  185.3290  177.6320  142.5850 C   0  0  0  0  0  3  0  0  0  0  0  0
  183.9420  178.1780  142.6380 C   0  0  0  0  0  2  0  0  0  0  0  0
  183.2840  178.1670  141.2640 C   0  0  0  0  0  2  0  0  0  0  0  0
  180.9470  178.1360  140.3010 N   0  0  0  0  0  2  0  0  0  0  0  0
  181.8310  178.5020  141.3630 C   0  0  0  0  0  0  0  0  0  0  0  0
  181.3890  179.0820  142.3940 O   0  0  0  0  0  0  0  0  0  0  0  0
  179.5190  178.4120  140.3590 C   0  0  0  0  0  1  0  0  0  0  0  0
  189.1990  177.4190  144.2960 C   0  0  0  0  0  2  0  0  0  0  0  0
  188.8800  177.0160  145.7330 C   0  0  1  0  0  3  0  0  0  0  0  0
  186.5080  177.2190  146.3920 C   0  0  0  0  0  2  0  0  0  0  0  0
  187.4730  176.4920  145.8340 C   0  0  0  0  0  3  0  0  0  0  0  0
  189.4850  174.6130  146.0390 C   0  0  0  0  0  1  0  0  0  0  0  0
  189.9440  176.0440  146.2720 C   0  0  1  0  0  3  0  0  0  0  0  0
  191.9350  174.9910  145.1650 C   0  0  0  0  0  3  0  0  0  0  0  0
  192.2940  176.6270  146.7530 N   0  0  0  0  0  0  0  0  0  0  0  0
  191.3540  176.2700  145.6950 C   0  0  2  0  0  3  0  0  0  0  0  0
  193.0220  174.7580  145.8770 C   0  0  0  0  0  0  0  0  0  0  0  0
  193.2250  175.7720  146.8470 N   0  0  0  0  0  0  0  0  0  0  0  0
  195.1800  173.6990  145.2650 C   0  0  0  0  0  3  0  0  0  0  0  0
  193.9100  173.6080  145.6590 C   0  0  0  0  0  3  0  0  0  0  0  0
  195.7930  174.9260  145.0320 O   0  0  0  0  0  0  0  0  0  0  0  0
  195.9030  175.5520  143.4410 P   0  0  0  0  0  0  0  0  0  0  0  0
  194.5230  175.9310  142.9530 O   0  0  0  0  0  1  0  0  0  0  0  0
  196.5640  174.3840  142.4110 O   0  0  0  0  0  0  0  0  0  0  0  0
  196.8930  176.9210  143.4470 O   0  0  0  0  0  1  0  0  0  0  0  0
  1 22  1  6  0  0  0
  2  3  2  0  0  0  0
  2  7  1  0  0  0  0
  3  5  1  0  0  0  0
  4  1  1  0  0  0  0
  5  4  2  0  0  0  0
  6  4  1  0  0  0  0
  7  6  2  0  0  0  0
  8  9  1  0  0  0  0
  9 10  1  0  0  0  0
 10  2  1  0  0  0  0
 11  9  2  0  0  0  0
 12 14  1  0  0  0  0
 12  1  1  0  0  0  0
 13 12  2  0  0  0  0
 14 15  2  0  0  0  0
 15 16  1  0  0  0  0
 17 19  1  0  0  0  0
 17 16  1  0  0  0  0
 18 21  1  0  0  0  0
 18 19  1  0  0  0  0
 19 20  2  0  0  0  0
 23 22  1  6  0  0  0
 23 25  1  0  0  0  0
 23 27  1  0  0  0  0
 25 24  2  0  0  0  0
 27 26  1  6  0  0  0
 28 30  1  0  0  0  0
 28 31  2  0  0  0  0
 29 32  2  0  0  0  0
 30 27  1  1  0  0  0
 30 29  1  0  0  0  0
 31 32  1  0  0  0  0
 33 34  2  0  0  0  0
 34 31  1  0  0  0  0
 35 33  1  0  0  0  0
 36 39  1  0  0  0  0
 36 35  1  0  0  0  0
 37 36  1  0  0  0  0
 38 36  2  0  0  0  0
M  END
>  <MODEL>
3

>  <REMARK>
 VINA RESULT:      -6.8      3.312      7.925
  Name = 
  15 active torsions:
  status: ('A' for Active; 'I' for Inactive)
    1  A    between atoms: C_1  and  O_5
    2  A    between atoms: C_2  and  N_21
    3  A    between atoms: O_5  and  P_7
    4  A    between atoms: C_12  and  C_35
    5  A    between atoms: C_13  and  C_15
    6  A    between atoms: C_15  and  C_35
    7  A    between atoms: C_16  and  C_25
    8  A    between atoms: C_16  and  C_37
    9  A    between atoms: C_17  and  C_19
   10  A    between atoms: C_18  and  C_31
   11  A    between atoms: C_18  and  C_35
   12  A    between atoms: C_22  and  C_25
   13  A    between atoms: C_23  and  C_31
   14  A    between atoms: N_28  and  C_32
   15  A    between atoms: C_31  and  C_32
                            x       y       z     vdW  Elec       q    Type
                         _______ _______ _______ _____ _____    ______ ____

>  <TORSDO>
F 15

$$$$
=
 OpenBabel11042417313D

 39 40  0  0  1  0  0  0  0  0999 V2000
  189.9000  174.4140  144.1920 C   0  0  2  0  0  3  0  0  0  0  0  0
  193.9950  175.7740  144.1700 C   0  0  0  0  0  0  0  0  0  0  0  0
  193.6930  174.4750  144.6080 C   0  0  0  0  0  3  0  0  0  0  0  0
  191.3340  174.8660  144.1890 C   0  0  0  0  0  0  0  0  0  0  0  0
  192.3710  174.0240  144.6190 C   0  0  0  0  0  3  0  0  0  0  0  0
  191.6350  176.1590  143.7500 C   0  0  0  0  0  3  0  0  0  0  0  0
  192.9580  176.6100  143.7410 C   0  0  0  0  0  3  0  0  0  0  0  0
  197.4490  176.9810  143.1660 O   0  0  0  0  0  1  0  0  0  0  0  0
  196.1380  176.5550  142.9990 C   0  0  0  0  0  0  0  0  0  0  0  0
  195.3380  176.2770  144.1570 N   0  0  0  0  0  2  0  0  0  0  0  0
  195.6690  176.4380  141.8350 O   0  0  0  0  0  0  0  0  0  0  0  0
  189.4820  173.6310  142.9780 C   0  0  0  0  0  0  0  0  0  0  0  0
  188.3470  173.8530  142.4700 O   0  0  0  0  0  0  0  0  0  0  0  0
  190.3580  172.6570  142.3970 N   0  0  0  0  0  0  0  0  0  0  0  0
  190.9650  172.8580  141.2710 C   0  0  0  0  0  3  0  0  0  0  0  0
  191.8450  171.8020  140.6910 C   0  0  0  0  0  2  0  0  0  0  0  0
  193.1620  171.6940  141.4490 C   0  0  0  0  0  2  0  0  0  0  0  0
  193.6240  170.6500  143.7050 N   0  0  0  0  0  2  0  0  0  0  0  0
  193.1610  170.5090  142.3600 C   0  0  0  0  0  0  0  0  0  0  0  0
  192.7270  169.3990  141.9440 O   0  0  0  0  0  0  0  0  0  0  0  0
  193.6170  169.5360  144.6420 C   0  0  0  0  0  1  0  0  0  0  0  0
  188.9080  175.5090  144.5980 C   0  0  0  0  0  2  0  0  0  0  0  0
  188.4900  175.4400  146.0650 C   0  0  1  0  0  3  0  0  0  0  0  0
  190.3810  175.2770  147.6460 C   0  0  0  0  0  2  0  0  0  0  0  0
  189.4970  174.6600  146.8640 C   0  0  0  0  0  3  0  0  0  0  0  0
  188.4840  177.8800  145.5280 C   0  0  0  0  0  1  0  0  0  0  0  0
  188.2200  176.8520  146.6170 C   0  0  1  0  0  3  0  0  0  0  0  0
  185.7620  177.0340  146.1470 C   0  0  0  0  0  3  0  0  0  0  0  0
  186.6700  178.3670  147.7980 N   0  0  0  0  0  0  0  0  0  0  0  0
  186.8150  177.0360  147.2170 C   0  0  2  0  0  3  0  0  0  0  0  0
  185.1800  178.2170  146.2020 C   0  0  0  0  0  0  0  0  0  0  0  0
  185.7510  179.0220  147.2190 N   0  0  0  0  0  0  0  0  0  0  0  0
  184.2080  179.1110  144.1020 C   0  0  0  0  0  3  0  0  0  0  0  0
  184.0650  178.6200  145.3320 C   0  0  0  0  0  3  0  0  0  0  0  0
  185.4570  179.2780  143.5140 O   0  0  0  0  0  0  0  0  0  0  0  0
  185.9980  178.1910  142.3050 P   0  0  0  0  0  0  0  0  0  0  0  0
  187.4750  178.4050  142.0590 O   0  0  0  0  0  1  0  0  0  0  0  0
  185.1430  178.4600  140.8700 O   0  0  0  0  0  0  0  0  0  0  0  0
  185.7390  176.6040  142.8250 O   0  0  0  0  0  1  0  0  0  0  0  0
  1 22  1  6  0  0  0
  2  3  1  0  0  0  0
  3  5  2  0  0  0  0
  4  1  1  0  0  0  0
  4  5  1  0  0  0  0
  6  4  2  0  0  0  0
  7  6  1  0  0  0  0
  7  2  2  0  0  0  0
  9  8  1  0  0  0  0
  9 10  1  0  0  0  0
 10  2  1  0  0  0  0
 11  9  2  0  0  0  0
 12  1  1  0  0  0  0
 13 12  2  0  0  0  0
 14 12  1  0  0  0  0
 15 14  2  0  0  0  0
 16 15  1  0  0  0  0
 16 17  1  0  0  0  0
 17 19  1  0  0  0  0
 18 21  1  0  0  0  0
 19 18  1  0  0  0  0
 20 19  2  0  0  0  0
 23 22  1  6  0  0  0
 23 27  1  0  0  0  0
 23 25  1  0  0  0  0
 25 24  2  0  0  0  0
 27 26  1  6  0  0  0
 28 31  2  0  0  0  0
 28 30  1  0  0  0  0
 30 27  1  6  0  0  0
 30 29  1  0  0  0  0
 31 32  1  0  0  0  0
 32 29  2  0  0  0  0
 33 34  2  0  0  0  0
 34 31  1  0  0  0  0
 35 33  1  0  0  0  0
 36 39  1  0  0  0  0
 36 35  1  0  0  0  0
 37 36  1  0  0  0  0
 38 36  2  0  0  0  0
M  END
>  <MODEL>
4

>  <REMARK>
 VINA RESULT:      -6.6      1.669      2.726
  Name = 
  15 active torsions:
  status: ('A' for Active; 'I' for Inactive)
    1  A    between atoms: C_1  and  O_5
    2  A    between atoms: C_2  and  N_21
    3  A    between atoms: O_5  and  P_7
    4  A    between atoms: C_12  and  C_35
    5  A    between atoms: C_13  and  C_15
    6  A    between atoms: C_15  and  C_35
    7  A    between atoms: C_16  and  C_25
    8  A    between atoms: C_16  and  C_37
    9  A    between atoms: C_17  and  C_19
   10  A    between atoms: C_18  and  C_31
   11  A    between atoms: C_18  and  C_35
   12  A    between atoms: C_22  and  C_25
   13  A    between atoms: C_23  and  C_31
   14  A    between atoms: N_28  and  C_32
   15  A    between atoms: C_31  and  C_32
                            x       y       z     vdW  Elec       q    Type
                         _______ _______ _______ _____ _____    ______ ____

>  <TORSDO>
F 15

$$$$
=
 OpenBabel11042417313D

 39 40  0  0  1  0  0  0  0  0999 V2000
  189.8260  174.3870  143.8250 C   0  0  2  0  0  3  0  0  0  0  0  0
  193.9980  175.2450  143.1330 C   0  0  0  0  0  0  0  0  0  0  0  0
  193.6340  174.1910  143.9860 C   0  0  0  0  0  3  0  0  0  0  0  0
  191.2850  174.6670  143.5960 C   0  0  0  0  0  0  0  0  0  0  0  0
  192.2860  173.9040  144.2170 C   0  0  0  0  0  3  0  0  0  0  0  0
  191.6470  175.7150  142.7440 C   0  0  0  0  0  3  0  0  0  0  0  0
  192.9960  176.0030  142.5150 C   0  0  0  0  0  3  0  0  0  0  0  0
  197.4610  176.7940  143.1760 O   0  0  0  0  0  0  0  0  0  0  0  0
  196.1580  176.5470  143.5910 C   0  0  0  0  0  0  0  0  0  0  0  0
  195.3700  175.5790  142.8830 N   0  0  0  0  0  2  0  0  0  0  0  0
  195.6990  177.1620  144.5910 O   0  0  0  0  0  1  0  0  0  0  0  0
  189.1400  173.6530  142.7070 C   0  0  0  0  0  0  0  0  0  0  0  0
  187.9850  174.0240  142.3520 O   0  0  0  0  0  0  0  0  0  0  0  0
  189.7850  172.5580  142.0440 N   0  0  0  0  0  0  0  0  0  0  0  0
  189.9530  171.4080  142.6140 C   0  0  0  0  0  3  0  0  0  0  0  0
  190.6570  170.3070  141.8960 C   0  0  0  0  0  2  0  0  0  0  0  0
  191.5040  170.8410  140.7470 C   0  0  0  0  0  2  0  0  0  0  0  0
  191.0480  169.8300  138.4760 N   0  0  0  0  0  2  0  0  0  0  0  0
  191.7470  169.7810  139.7220 C   0  0  0  0  0  0  0  0  0  0  0  0
  192.5850  168.8650  139.9520 O   0  0  0  0  0  0  0  0  0  0  0  0
  191.2670  168.8390  137.4320 C   0  0  0  0  0  1  0  0  0  0  0  0
  189.0410  175.5930  144.3520 C   0  0  0  0  0  2  0  0  0  0  0  0
  188.5730  175.4340  145.7960 C   0  0  1  0  0  3  0  0  0  0  0  0
  190.3810  175.0950  147.4420 C   0  0  0  0  0  2  0  0  0  0  0  0
  189.5290  174.5670  146.5680 C   0  0  0  0  0  3  0  0  0  0  0  0
  188.5800  177.9020  145.4110 C   0  0  0  0  0  1  0  0  0  0  0  0
  188.3260  176.8110  146.4390 C   0  0  1  0  0  3  0  0  0  0  0  0
  185.8590  177.0160  146.0300 C   0  0  0  0  0  3  0  0  0  0  0  0
  186.8040  178.2730  147.7200 N   0  0  0  0  0  0  0  0  0  0  0  0
  186.9340  176.9680  147.0770 C   0  0  2  0  0  3  0  0  0  0  0  0
  185.2800  178.1960  146.1500 C   0  0  0  0  0  0  0  0  0  0  0  0
  185.8740  178.9530  147.1910 N   0  0  0  0  0  0  0  0  0  0  0  0
  184.2640  179.1560  144.1010 C   0  0  0  0  0  3  0  0  0  0  0  0
  184.1490  178.6390  145.3230 C   0  0  0  0  0  3  0  0  0  0  0  0
  185.4990  179.3140  143.4810 O   0  0  0  0  0  0  0  0  0  0  0  0
  186.0050  178.2190  142.2640 P   0  0  0  0  0  0  0  0  0  0  0  0
  185.2170  178.4730  140.9990 O   0  0  0  0  0  0  0  0  0  0  0  0
  185.7440  176.6300  142.7820 O   0  0  0  0  0  1  0  0  0  0  0  0
  187.6510  178.4470  141.9570 O   0  0  0  0  0  1  0  0  0  0  0  0
  1 22  1  6  0  0  0
  2  3  1  0  0  0  0
  3  5  2  0  0  0  0
  4  1  1  0  0  0  0
  4  5  1  0  0  0  0
  6  4  2  0  0  0  0
  7  6  1  0  0  0  0
  7  2  2  0  0  0  0
  8  9  2  0  0  0  0
  9 11  1  0  0  0  0
 10  2  1  0  0  0  0
 10  9  1  0  0  0  0
 12  1  1  0  0  0  0
 13 12  2  0  0  0  0
 14 15  2  0  0  0  0
 14 12  1  0  0  0  0
 16 15  1  0  0  0  0
 17 16  1  0  0  0  0
 18 19  1  0  0  0  0
 19 20  2  0  0  0  0
 19 17  1  0  0  0  0
 21 18  1  0  0  0  0
 23 22  1  6  0  0  0
 23 27  1  0  0  0  0
 23 25  1  0  0  0  0
 25 24  2  0  0  0  0
 27 26  1  6  0  0  0
 28 31  2  0  0  0  0
 28 30  1  0  0  0  0
 30 27  1  6  0  0  0
 30 29  1  0  0  0  0
 31 32  1  0  0  0  0
 32 29  2  0  0  0  0
 33 34  2  0  0  0  0
 34 31  1  0  0  0  0
 35 33  1  0  0  0  0
 36 38  1  0  0  0  0
 36 35  1  0  0  0  0
 37 36  2  0  0  0  0
 39 36  1  0  0  0  0
M  END
>  <MODEL>
5

>  <REMARK>
 VINA RESULT:      -6.5      1.979      2.273
  Name = 
  15 active torsions:
  status: ('A' for Active; 'I' for Inactive)
    1  A    between atoms: C_1  and  O_5
    2  A    between atoms: C_2  and  N_21
    3  A    between atoms: O_5  and  P_7
    4  A    between atoms: C_12  and  C_35
    5  A    between atoms: C_13  and  C_15
    6  A    between atoms: C_15  and  C_35
    7  A    between atoms: C_16  and  C_25
    8  A    between atoms: C_16  and  C_37
    9  A    between atoms: C_17  and  C_19
   10  A    between atoms: C_18  and  C_31
   11  A    between atoms: C_18  and  C_35
   12  A    between atoms: C_22  and  C_25
   13  A    between atoms: C_23  and  C_31
   14  A    between atoms: N_28  and  C_32
   15  A    between atoms: C_31  and  C_32
                            x       y       z     vdW  Elec       q    Type
                         _______ _______ _______ _____ _____    ______ ____

>  <TORSDO>
F 15

$$$$
=
 OpenBabel11042417313D

 39 40  0  0  1  0  0  0  0  0999 V2000
  188.6550  174.8990  143.5500 C   0  0  2  0  0  3  0  0  0  0  0  0
  192.2380  172.4990  143.4020 C   0  0  0  0  0  0  0  0  0  0  0  0
  191.0980  172.0110  144.0580 C   0  0  0  0  0  3  0  0  0  0  0  0
  189.8920  174.0450  143.5080 C   0  0  0  0  0  0  0  0  0  0  0  0
  189.9320  172.7790  144.1120 C   0  0  0  0  0  3  0  0  0  0  0  0
  191.0270  174.5310  142.8510 C   0  0  0  0  0  3  0  0  0  0  0  0
  192.1930  173.7620  142.8000 C   0  0  0  0  0  3  0  0  0  0  0  0
  195.5900  170.8800  144.1340 O   0  0  0  0  0  0  0  0  0  0  0  0
  194.4270  171.5960  144.3850 C   0  0  0  0  0  0  0  0  0  0  0  0
  193.4580  171.7470  143.3380 N   0  0  0  0  0  2  0  0  0  0  0  0
  194.2340  172.0830  145.5320 O   0  0  0  0  0  1  0  0  0  0  0  0
  188.3650  175.6540  142.2830 C   0  0  0  0  0  0  0  0  0  0  0  0
  188.5700  175.0860  141.1730 O   0  0  0  0  0  0  0  0  0  0  0  0
  187.8520  176.9910  142.3290 N   0  0  0  0  0  0  0  0  0  0  0  0
  186.5820  177.2450  142.3470 C   0  0  0  0  0  3  0  0  0  0  0  0
  186.0950  178.6540  142.3650 C   0  0  0  0  0  2  0  0  0  0  0  0
  184.9140  178.8250  143.3130 C   0  0  0  0  0  2  0  0  0  0  0  0
  184.4190  178.5700  145.7790 N   0  0  0  0  0  2  0  0  0  0  0  0
  185.3660  178.8230  144.7380 C   0  0  0  0  0  0  0  0  0  0  0  0
  186.5830  179.0190  145.0110 O   0  0  0  0  0  0  0  0  0  0  0  0
  184.8110  178.5280  147.1800 C   0  0  0  0  0  1  0  0  0  0  0  0
  188.5320  175.7450  144.8220 C   0  0  0  0  0  2  0  0  0  0  0  0
  189.8760  176.1910  145.3910 C   0  0  1  0  0  3  0  0  0  0  0  0
  190.9470  177.9520  144.0310 C   0  0  0  0  0  2  0  0  0  0  0  0
  190.1450  177.6290  145.0430 C   0  0  0  0  0  3  0  0  0  0  0  0
  188.9090  174.8450  147.2600 C   0  0  0  0  0  1  0  0  0  0  0  0
  189.9490  175.8950  146.9000 C   0  0  1  0  0  3  0  0  0  0  0  0
  192.2700  176.6580  147.4710 C   0  0  0  0  0  2  0  0  0  0  0  0
  192.0080  174.6240  146.4120 N   0  0  0  0  0  2  0  0  0  0  0  0
  191.3460  175.4780  147.3940 C   0  0  2  0  0  3  0  0  0  0  0  0
  193.2570  176.4080  146.6310 C   0  0  0  0  0  0  0  0  0  0  0  0
  193.0790  175.1570  145.9890 N   0  0  0  0  0  0  0  0  0  0  0  0
  195.1810  177.2980  145.3430 C   0  0  0  0  0  3  0  0  0  0  0  0
  194.4000  177.3080  146.4220 C   0  0  0  0  0  3  0  0  0  0  0  0
  194.9690  176.4190  144.2870 O   0  0  0  0  0  0  0  0  0  0  0  0
  196.2150  175.3590  143.7780 P   0  0  0  0  0  0  0  0  0  0  0  0
  195.6800  174.4240  142.7170 O   0  0  0  0  0  0  0  0  0  0  0  0
  196.7720  174.4570  145.0960 O   0  0  0  0  0  1  0  0  0  0  0  0
  197.4900  176.2650  143.1370 O   0  0  0  0  0  1  0  0  0  0  0  0
  1 22  1  1  0  0  0
  2  3  1  0  0  0  0
  3  5  2  0  0  0  0
  4  1  1  0  0  0  0
  4  5  1  0  0  0  0
  6  4  2  0  0  0  0
  7  6  1  0  0  0  0
  7  2  2  0  0  0  0
  8  9  2  0  0  0  0
  9 11  1  0  0  0  0
 10  2  1  0  0  0  0
 10  9  1  0  0  0  0
 12 14  1  0  0  0  0
 12  1  1  0  0  0  0
 13 12  2  0  0  0  0
 14 15  2  0  0  0  0
 15 16  1  0  0  0  0
 16 17  1  0  0  0  0
 17 19  1  0  0  0  0
 18 21  1  0  0  0  0
 19 20  2  0  0  0  0
 19 18  1  0  0  0  0
 23 22  1  1  0  0  0
 23 27  1  0  0  0  0
 24 25  2  0  0  0  0
 25 23  1  0  0  0  0
 27 26  1  6  0  0  0
 29 30  1  0  0  0  0
 30 27  1  6  0  0  0
 30 28  1  0  0  0  0
 31 28  1  0  0  0  0
 32 29  1  0  0  0  0
 32 31  2  0  0  0  0
 33 34  2  0  0  0  0
 34 31  1  0  0  0  0
 35 33  1  0  0  0  0
 36 35  1  0  0  0  0
 36 38  1  0  0  0  0
 37 36  2  0  0  0  0
 39 36  1  0  0  0  0
M  END
>  <MODEL>
6

>  <REMARK>
 VINA RESULT:      -6.5      3.335      7.234
  Name = 
  15 active torsions:
  status: ('A' for Active; 'I' for Inactive)
    1  A    between atoms: C_1  and  O_5
    2  A    between atoms: C_2  and  N_21
    3  A    between atoms: O_5  and  P_7
    4  A    between atoms: C_12  and  C_35
    5  A    between atoms: C_13  and  C_15
    6  A    between atoms: C_15  and  C_35
    7  A    between atoms: C_16  and  C_25
    8  A    between atoms: C_16  and  C_37
    9  A    between atoms: C_17  and  C_19
   10  A    between atoms: C_18  and  C_31
   11  A    between atoms: C_18  and  C_35
   12  A    between atoms: C_22  and  C_25
   13  A    between atoms: C_23  and  C_31
   14  A    between atoms: N_28  and  C_32
   15  A    between atoms: C_31  and  C_32
                            x       y       z     vdW  Elec       q    Type
                         _______ _______ _______ _____ _____    ______ ____

>  <TORSDO>
F 15

$$$$
=
 OpenBabel11042417313D

 39 40  0  0  1  0  0  0  0  0999 V2000
  189.3490  176.0690  145.4130 C   0  0  2  0  0  3  0  0  0  0  0  0
  188.3960  174.8450  141.3860 C   0  0  0  0  0  0  0  0  0  0  0  0
  188.2120  176.1830  141.7710 C   0  0  0  0  0  3  0  0  0  0  0  0
  189.0130  175.6650  144.0040 C   0  0  0  0  0  0  0  0  0  0  0  0
  188.5180  176.5900  143.0720 C   0  0  0  0  0  3  0  0  0  0  0  0
  189.1990  174.3330  143.6200 C   0  0  0  0  0  3  0  0  0  0  0  0
  188.8910  173.9260  142.3190 C   0  0  0  0  0  3  0  0  0  0  0  0
  188.5290  173.4600  137.8570 O   0  0  0  0  0  0  0  0  0  0  0  0
  188.9880  173.7930  139.1250 C   0  0  0  0  0  0  0  0  0  0  0  0
  188.0800  174.3860  140.0640 N   0  0  0  0  0  2  0  0  0  0  0  0
  190.1860  173.5500  139.4340 O   0  0  0  0  0  1  0  0  0  0  0  0
  188.1610  176.3590  146.2880 C   0  0  0  0  0  0  0  0  0  0  0  0
  187.8950  175.5680  147.2370 O   0  0  0  0  0  0  0  0  0  0  0  0
  187.3480  177.5160  146.0590 N   0  0  0  0  0  0  0  0  0  0  0  0
  186.3740  177.8430  146.8470 C   0  0  0  0  0  3  0  0  0  0  0  0
  185.5360  179.0410  146.5520 C   0  0  0  0  0  2  0  0  0  0  0  0
  184.4300  178.7180  145.5550 C   0  0  0  0  0  2  0  0  0  0  0  0
  184.5440  178.0500  143.1190 N   0  0  0  0  0  2  0  0  0  0  0  0
  184.8810  178.9780  144.1530 C   0  0  0  0  0  0  0  0  0  0  0  0
  185.5330  180.0260  143.8870 O   0  0  0  0  0  0  0  0  0  0  0  0
  184.9340  178.2680  141.7330 C   0  0  0  0  0  1  0  0  0  0  0  0
  190.4610  177.1190  145.5060 C   0  0  0  0  0  2  0  0  0  0  0  0
  191.8090  176.5460  145.9360 C   0  0  1  0  0  3  0  0  0  0  0  0
  191.5590  175.2990  148.0530 C   0  0  0  0  0  2  0  0  0  0  0  0
  191.6150  175.2790  146.7240 C   0  0  0  0  0  3  0  0  0  0  0  0
  192.2280  177.2400  143.5740 C   0  0  0  0  0  1  0  0  0  0  0  0
  192.7410  176.3850  144.7220 C   0  0  1  0  0  3  0  0  0  0  0  0
  195.1110  176.1690  143.9280 C   0  0  0  0  0  3  0  0  0  0  0  0
  194.6800  175.9440  146.1840 N   0  0  0  0  0  0  0  0  0  0  0  0
  194.2200  176.6910  145.0170 C   0  0  2  0  0  3  0  0  0  0  0  0
  195.9040  175.2790  144.4960 C   0  0  0  0  0  0  0  0  0  0  0  0
  195.6240  175.1540  145.8790 N   0  0  0  0  0  0  0  0  0  0  0  0
  196.8690  173.2680  143.4120 C   0  0  0  0  0  3  0  0  0  0  0  0
  196.9550  174.5460  143.7770 C   0  0  0  0  0  3  0  0  0  0  0  0
  195.7390  172.5000  143.6760 O   0  0  0  0  0  0  0  0  0  0  0  0
  195.7330  171.3870  144.9790 P   0  0  0  0  0  0  0  0  0  0  0  0
  196.1000  170.0120  144.4680 O   0  0  0  0  0  0  0  0  0  0  0  0
  194.1950  171.3380  145.6800 O   0  0  0  0  0  1  0  0  0  0  0  0
  196.8630  171.8770  146.1360 O   0  0  0  0  0  1  0  0  0  0  0  0
  1 22  1  6  0  0  0
  1 12  1  0  0  0  0
  2  3  2  0  0  0  0
  2  7  1  0  0  0  0
  3  5  1  0  0  0  0
  4  1  1  0  0  0  0
  5  4  2  0  0  0  0
  6  4  1  0  0  0  0
  7  6  2  0  0  0  0
  8  9  2  0  0  0  0
  9 11  1  0  0  0  0
  9 10  1  0  0  0  0
 10  2  1  0  0  0  0
 12 13  2  0  0  0  0
 14 12  1  0  0  0  0
 14 15  2  0  0  0  0
 16 15  1  0  0  0  0
 17 16  1  0  0  0  0
 18 19  1  0  0  0  0
 19 17  1  0  0  0  0
 20 19  2  0  0  0  0
 21 18  1  0  0  0  0
 23 22  1  6  0  0  0
 23 25  1  0  0  0  0
 25 24  2  0  0  0  0
 27 26  1  6  0  0  0
 27 23  1  0  0  0  0
 28 31  2  0  0  0  0
 28 30  1  0  0  0  0
 30 27  1  6  0  0  0
 30 29  1  0  0  0  0
 31 32  1  0  0  0  0
 32 29  2  0  0  0  0
 33 35  1  0  0  0  0
 33 34  2  0  0  0  0
 34 31  1  0  0  0  0
 35 36  1  0  0  0  0
 36 38  1  0  0  0  0
 36 39  1  0  0  0  0
 37 36  2  0  0  0  0
M  END
>  <MODEL>
7

>  <REMARK>
 VINA RESULT:      -6.5      3.241      8.561
  Name = 
  15 active torsions:
  status: ('A' for Active; 'I' for Inactive)
    1  A    between atoms: C_1  and  O_5
    2  A    between atoms: C_2  and  N_21
    3  A    between atoms: O_5  and  P_7
    4  A    between atoms: C_12  and  C_35
    5  A    between atoms: C_13  and  C_15
    6  A    between atoms: C_15  and  C_35
    7  A    between atoms: C_16  and  C_25
    8  A    between atoms: C_16  and  C_37
    9  A    between atoms: C_17  and  C_19
   10  A    between atoms: C_18  and  C_31
   11  A    between atoms: C_18  and  C_35
   12  A    between atoms: C_22  and  C_25
   13  A    between atoms: C_23  and  C_31
   14  A    between atoms: N_28  and  C_32
   15  A    between atoms: C_31  and  C_32
                            x       y       z     vdW  Elec       q    Type
                         _______ _______ _______ _____ _____    ______ ____

>  <TORSDO>
F 15

$$$$
=
 OpenBabel11042417313D

 39 40  0  0  1  0  0  0  0  0999 V2000
  191.6220  174.6770  144.5900 C   0  0  2  0  0  3  0  0  0  0  0  0
  188.4790  176.9360  146.4970 C   0  0  0  0  0  0  0  0  0  0  0  0
  189.2140  177.5100  145.4490 C   0  0  0  0  0  3  0  0  0  0  0  0
  190.5290  175.4810  145.2380 C   0  0  0  0  0  0  0  0  0  0  0  0
  190.2330  176.7880  144.8230 C   0  0  0  0  0  3  0  0  0  0  0  0
  189.7960  174.9070  146.2810 C   0  0  0  0  0  3  0  0  0  0  0  0
  188.7770  175.6310  146.9080 C   0  0  0  0  0  3  0  0  0  0  0  0
  185.1460  178.3290  147.6580 O   0  0  0  0  0  1  0  0  0  0  0  0
  186.0230  177.5090  146.9590 C   0  0  0  0  0  0  0  0  0  0  0  0
  187.4350  177.6510  147.1730 N   0  0  0  0  0  2  0  0  0  0  0  0
  185.5640  176.6450  146.1650 O   0  0  0  0  0  0  0  0  0  0  0  0
  191.1450  173.6070  143.6480 C   0  0  0  0  0  0  0  0  0  0  0  0
  191.8370  172.5590  143.5150 O   0  0  0  0  0  0  0  0  0  0  0  0
  189.9210  173.7640  142.9200 N   0  0  0  0  0  0  0  0  0  0  0  0
  189.8380  174.4990  141.8570 C   0  0  0  0  0  3  0  0  0  0  0  0
  188.5350  174.6560  141.1490 C   0  0  0  0  0  2  0  0  0  0  0  0
  187.4380  175.1260  142.0970 C   0  0  0  0  0  2  0  0  0  0  0  0
  186.5290  177.3260  142.9460 N   0  0  0  0  0  2  0  0  0  0  0  0
  187.1390  176.5760  141.8930 C   0  0  0  0  0  0  0  0  0  0  0  0
  187.4500  177.1340  140.8040 O   0  0  0  0  0  0  0  0  0  0  0  0
  186.2420  178.7470  142.8120 C   0  0  0  0  0  1  0  0  0  0  0  0
  192.7070  174.2100  145.5650 C   0  0  0  0  0  2  0  0  0  0  0  0
  193.9150  175.1410  145.6270 C   0  0  1  0  0  3  0  0  0  0  0  0
  194.2510  177.3420  146.6940 C   0  0  0  0  0  2  0  0  0  0  0  0
  193.7840  176.0990  146.7790 C   0  0  0  0  0  3  0  0  0  0  0  0
  194.9180  172.8720  145.3310 C   0  0  0  0  0  1  0  0  0  0  0  0
  195.2230  174.3290  145.6410 C   0  0  1  0  0  3  0  0  0  0  0  0
  195.7310  175.8040  143.6750 C   0  0  0  0  0  2  0  0  0  0  0  0
  196.8680  173.8050  143.8760 N   0  0  0  0  0  2  0  0  0  0  0  0
  196.3130  174.8740  144.7010 C   0  0  2  0  0  3  0  0  0  0  0  0
  195.9740  175.2530  142.5000 C   0  0  0  0  0  0  0  0  0  0  0  0
  196.6710  174.0270  142.6440 N   0  0  0  0  0  0  0  0  0  0  0  0
  194.4950  175.5420  140.5300 C   0  0  0  0  0  3  0  0  0  0  0  0
  195.5900  175.8610  141.2190 C   0  0  0  0  0  3  0  0  0  0  0  0
  193.5900  174.5890  140.9840 O   0  0  0  0  0  0  0  0  0  0  0  0
  193.5780  173.0140  140.3080 P   0  0  0  0  0  0  0  0  0  0  0  0
  192.1490  172.5800  140.0680 O   0  0  0  0  0  1  0  0  0  0  0  0
  194.3250  171.9310  141.3700 O   0  0  0  0  0  1  0  0  0  0  0  0
  194.4150  173.0310  138.8400 O   0  0  0  0  0  0  0  0  0  0  0  0
  1  4  1  0  0  0  0
  1 22  1  1  0  0  0
  2  7  1  0  0  0  0
  2 10  1  0  0  0  0
  3  2  2  0  0  0  0
  4  6  1  0  0  0  0
  5  4  2  0  0  0  0
  5  3  1  0  0  0  0
  6  7  2  0  0  0  0
  9 10  1  0  0  0  0
  9  8  1  0  0  0  0
 11  9  2  0  0  0  0
 12  1  1  0  0  0  0
 13 12  2  0  0  0  0
 14 12  1  0  0  0  0
 15 14  2  0  0  0  0
 16 15  1  0  0  0  0
 16 17  1  0  0  0  0
 19 17  1  0  0  0  0
 19 18  1  0  0  0  0
 20 19  2  0  0  0  0
 21 18  1  0  0  0  0
 23 22  1  1  0  0  0
 23 27  1  0  0  0  0
 23 25  1  0  0  0  0
 24 25  2  0  0  0  0
 27 26  1  6  0  0  0
 28 30  1  0  0  0  0
 29 30  1  0  0  0  0
 30 27  1  1  0  0  0
 31 32  2  0  0  0  0
 31 28  1  0  0  0  0
 32 29  1  0  0  0  0
 33 35  1  0  0  0  0
 33 34  2  0  0  0  0
 34 31  1  0  0  0  0
 36 35  1  0  0  0  0
 36 38  1  0  0  0  0
 37 36  1  0  0  0  0
 39 36  2  0  0  0  0
M  END
>  <MODEL>
8

>  <REMARK>
 VINA RESULT:      -6.5      2.903      7.991
  Name = 
  15 active torsions:
  status: ('A' for Active; 'I' for Inactive)
    1  A    between atoms: C_1  and  O_5
    2  A    between atoms: C_2  and  N_21
    3  A    between atoms: O_5  and  P_7
    4  A    between atoms: C_12  and  C_35
    5  A    between atoms: C_13  and  C_15
    6  A    between atoms: C_15  and  C_35
    7  A    between atoms: C_16  and  C_25
    8  A    between atoms: C_16  and  C_37
    9  A    between atoms: C_17  and  C_19
   10  A    between atoms: C_18  and  C_31
   11  A    between atoms: C_18  and  C_35
   12  A    between atoms: C_22  and  C_25
   13  A    between atoms: C_23  and  C_31
   14  A    between atoms: N_28  and  C_32
   15  A    between atoms: C_31  and  C_32
                            x       y       z     vdW  Elec       q    Type
                         _______ _______ _______ _____ _____    ______ ____

>  <TORSDO>
F 15

$$$$
=
 OpenBabel11042417313D

 39 40  0  0  1  0  0  0  0  0999 V2000
  190.3510  173.9840  144.4830 C   0  0  2  0  0  3  0  0  0  0  0  0
  187.7310  176.7610  146.4940 C   0  0  0  0  0  0  0  0  0  0  0  0
  188.3780  175.7540  147.2280 C   0  0  0  0  0  3  0  0  0  0  0  0
  189.4450  174.9430  145.2040 C   0  0  0  0  0  0  0  0  0  0  0  0
  189.2290  174.8500  146.5870 C   0  0  0  0  0  3  0  0  0  0  0  0
  188.8030  175.9470  144.4720 C   0  0  0  0  0  3  0  0  0  0  0  0
  187.9500  176.8490  145.1140 C   0  0  0  0  0  3  0  0  0  0  0  0
  184.6950  178.7280  147.6370 O   0  0  0  0  0  1  0  0  0  0  0  0
  185.4080  177.7060  147.0240 C   0  0  0  0  0  0  0  0  0  0  0  0
  186.8400  177.6980  147.1130 N   0  0  0  0  0  2  0  0  0  0  0  0
  184.7840  176.7940  146.4170 O   0  0  0  0  0  0  0  0  0  0  0  0
  189.7110  172.6810  144.0920 C   0  0  0  0  0  0  0  0  0  0  0  0
  189.3790  171.8680  145.0010 O   0  0  0  0  0  0  0  0  0  0  0  0
  189.4680  172.3670  142.7150 N   0  0  0  0  0  0  0  0  0  0  0  0
  189.0170  173.2440  141.8760 C   0  0  0  0  0  3  0  0  0  0  0  0
  188.7520  172.8640  140.4580 C   0  0  0  0  0  2  0  0  0  0  0  0
  189.9090  173.2580  139.5490 C   0  0  0  0  0  2  0  0  0  0  0  0
  190.3080  173.9220  137.1430 N   0  0  0  0  0  2  0  0  0  0  0  0
  189.4080  173.7920  138.2460 C   0  0  0  0  0  0  0  0  0  0  0  0
  188.1900  174.1010  138.1200 O   0  0  0  0  0  0  0  0  0  0  0  0
  189.8670  174.4110  135.8440 C   0  0  0  0  0  1  0  0  0  0  0  0
  191.7300  173.8300  145.1320 C   0  0  0  0  0  2  0  0  0  0  0  0
  192.7950  174.7430  144.5300 C   0  0  1  0  0  3  0  0  0  0  0  0
  192.1900  176.6430  143.0720 C   0  0  0  0  0  2  0  0  0  0  0  0
  192.3140  175.3270  143.2300 C   0  0  0  0  0  3  0  0  0  0  0  0
  192.6220  175.4890  146.9080 C   0  0  0  0  0  1  0  0  0  0  0  0
  193.2440  175.8000  145.5560 C   0  0  1  0  0  3  0  0  0  0  0  0
  195.3070  176.8860  144.6290 C   0  0  0  0  0  2  0  0  0  0  0  0
  195.4440  174.6990  145.3510 N   0  0  0  0  0  2  0  0  0  0  0  0
  194.7710  175.9530  145.6750 C   0  0  2  0  0  3  0  0  0  0  0  0
  196.1360  176.1730  143.8900 C   0  0  0  0  0  0  0  0  0  0  0  0
  196.2060  174.8330  144.3470 N   0  0  0  0  0  0  0  0  0  0  0  0
  196.4540  176.7900  141.5090 C   0  0  0  0  0  3  0  0  0  0  0  0
  196.9020  176.7210  142.7610 C   0  0  0  0  0  3  0  0  0  0  0  0
  195.1840  176.3480  141.1530 O   0  0  0  0  0  0  0  0  0  0  0  0
  194.9830  174.8520  140.3420 P   0  0  0  0  0  0  0  0  0  0  0  0
  195.2370  173.7160  141.3080 O   0  0  0  0  0  1  0  0  0  0  0  0
  196.0710  174.7500  139.0520 O   0  0  0  0  0  0  0  0  0  0  0  0
  193.4020  174.7450  139.7540 O   0  0  0  0  0  1  0  0  0  0  0  0
  1 22  1  1  0  0  0
  1  4  1  0  0  0  0
  2 10  1  0  0  0  0
  2  3  1  0  0  0  0
  4  5  1  0  0  0  0
  5  3  2  0  0  0  0
  6  7  1  0  0  0  0
  6  4  2  0  0  0  0
  7  2  2  0  0  0  0
  9 10  1  0  0  0  0
  9  8  1  0  0  0  0
 11  9  2  0  0  0  0
 12  1  1  0  0  0  0
 12 13  2  0  0  0  0
 14 12  1  0  0  0  0
 15 14  2  0  0  0  0
 16 15  1  0  0  0  0
 17 16  1  0  0  0  0
 18 19  1  0  0  0  0
 19 17  1  0  0  0  0
 20 19  2  0  0  0  0
 21 18  1  0  0  0  0
 23 25  1  6  0  0  0
 23 22  1  0  0  0  0
 23 27  1  0  0  0  0
 24 25  2  0  0  0  0
 27 26  1  1  0  0  0
 28 30  1  0  0  0  0
 29 30  1  0  0  0  0
 30 27  1  6  0  0  0
 31 32  2  0  0  0  0
 31 28  1  0  0  0  0
 32 29  1  0  0  0  0
 33 34  2  0  0  0  0
 34 31  1  0  0  0  0
 35 33  1  0  0  0  0
 36 35  1  0  0  0  0
 36 37  1  0  0  0  0
 38 36  2  0  0  0  0
 39 36  1  0  0  0  0
M  END
>  <MODEL>
9

>  <REMARK>
 VINA RESULT:      -6.5      2.564      7.595
  Name = 
  15 active torsions:
  status: ('A' for Active; 'I' for Inactive)
    1  A    between atoms: C_1  and  O_5
    2  A    between atoms: C_2  and  N_21
    3  A    between atoms: O_5  and  P_7
    4  A    between atoms: C_12  and  C_35
    5  A    between atoms: C_13  and  C_15
    6  A    between atoms: C_15  and  C_35
    7  A    between atoms: C_16  and  C_25
    8  A    between atoms: C_16  and  C_37
    9  A    between atoms: C_17  and  C_19
   10  A    between atoms: C_18  and  C_31
   11  A    between atoms: C_18  and  C_35
   12  A    between atoms: C_22  and  C_25
   13  A    between atoms: C_23  and  C_31
   14  A    between atoms: N_28  and  C_32
   15  A    between atoms: C_31  and  C_32
                            x       y       z     vdW  Elec       q    Type
                         _______ _______ _______ _____ _____    ______ ____

>  <TORSDO>
F 15

$$$$
