=
 OpenBabel11042418243D

 28 30  0  0  1  0  0  0  0  0999 V2000
  188.8720  175.1290  141.2970 N   0  0  0  0  0  2  0  0  0  0  0  0
  186.2500  177.9610  143.0390 C   0  0  0  0  0  0  0  0  0  0  0  0
  186.8020  175.6560  142.5370 C   0  0  0  0  0  3  0  0  0  0  0  0
  187.4250  178.3780  142.4040 C   0  0  0  0  0  3  0  0  0  0  0  0
  185.9420  176.5980  143.1100 C   0  0  0  0  0  3  0  0  0  0  0  0
  187.9800  176.0730  141.8960 C   0  0  0  0  0  0  0  0  0  0  0  0
  188.2840  177.4360  141.8310 C   0  0  0  0  0  3  0  0  0  0  0  0
  185.3480  178.9650  143.6620 C   0  0  0  0  0  2  0  0  0  0  0  0
  185.9290  179.4460  144.9080 N   0  0  0  0  0  2  0  0  0  0  0  0
  187.7410  177.7300  146.2670 O   0  0  0  0  0  0  0  0  0  0  0  0
  185.4790  178.6060  145.9380 N   0  0  0  0  0  0  0  0  0  0  0  0
  186.3940  177.7320  146.6120 C   0  0  0  0  0  0  0  0  0  0  0  0
  184.0510  178.5240  146.2030 C   0  0  0  0  0  1  0  0  0  0  0  0
  185.9890  176.9590  147.5220 O   0  0  0  0  0  1  0  0  0  0  0  0
  189.3880  173.9530  141.9850 C   0  0  2  0  0  3  0  0  0  0  0  0
  189.4610  174.1260  144.4260 N   0  0  0  0  0  0  0  0  0  0  0  0
  191.5040  175.2040  144.6100 C   0  0  0  0  0  0  0  0  0  0  0  0
  192.6710  175.8410  145.1430 N   0  0  0  0  0  0  0  0  0  0  0  0
  194.7950  176.8620  145.2750 C   0  0  0  0  0  2  0  0  0  0  0  0
  192.8880  176.0600  146.5570 C   0  0  0  0  0  2  0  0  0  0  0  0
  194.1460  176.9020  146.6510 C   0  0  0  0  0  2  0  0  0  0  0  0
  193.7340  176.3650  144.3120 C   0  0  0  0  0  2  0  0  0  0  0  0
  190.0250  174.3560  143.2780 C   0  0  0  0  0  0  0  0  0  0  0  0
  190.3880  174.6630  145.3510 C   0  0  0  0  0  0  0  0  0  0  0  0
  190.2400  174.6440  146.6010 O   0  0  0  0  0  0  0  0  0  0  0  0
  191.2980  175.0200  143.3500 N   0  0  0  0  0  0  0  0  0  0  0  0
  190.0660  173.4810  139.6300 C   0  0  0  0  0  1  0  0  0  0  0  0
  190.4000  173.2540  141.0920 C   0  0  0  0  0  2  0  0  0  0  0  0
  1  6  1  0  0  0  0
  1 15  1  0  0  0  0
  2  5  1  0  0  0  0
  2  8  1  0  0  0  0
  3  5  2  0  0  0  0
  4  2  2  0  0  0  0
  6  3  1  0  0  0  0
  7  6  2  0  0  0  0
  7  4  1  0  0  0  0
  8  9  1  0  0  0  0
  9 11  1  0  0  0  0
 10 12  2  0  0  0  0
 11 13  1  0  0  0  0
 11 12  1  0  0  0  0
 12 14  1  0  0  0  0
 15 28  1  6  0  0  0
 15 23  1  0  0  0  0
 16 24  1  0  0  0  0
 17 18  1  0  0  0  0
 17 24  1  0  0  0  0
 18 20  1  0  0  0  0
 19 21  1  0  0  0  0
 20 21  1  0  0  0  0
 22 18  1  0  0  0  0
 22 19  1  0  0  0  0
 23 26  1  0  0  0  0
 23 16  2  0  0  0  0
 24 25  2  0  0  0  0
 26 17  2  0  0  0  0
 27 28  1  0  0  0  0
M  END
>  <MODEL>
1

>  <REMARK>
 VINA RESULT:      -6.6      0.000      0.000
  Name = 
  7 active torsions:
  status: ('A' for Active; 'I' for Inactive)
    1  A    between atoms: C_2  and  C_15
    2  A    between atoms: N_6  and  C_15
    3  A    between atoms: N_6  and  N_16
    4  A    between atoms: N_11  and  C_23
    5  A    between atoms: N_11  and  C_27
    6  A    between atoms: C_18  and  C_27
    7  A    between atoms: C_19  and  C_27
                            x       y       z     vdW  Elec       q    Type
                         _______ _______ _______ _____ _____    ______ ____

>  <TORSDO>
F 7

$$$$
=
 OpenBabel11042418243D

 28 30  0  0  1  0  0  0  0  0999 V2000
  187.9660  177.5870  146.8350 N   0  0  0  0  0  2  0  0  0  0  0  0
  191.0470  174.9390  145.6410 C   0  0  0  0  0  0  0  0  0  0  0  0
  188.9100  175.3080  146.7210 C   0  0  0  0  0  3  0  0  0  0  0  0
  191.1320  176.3040  145.3480 C   0  0  0  0  0  3  0  0  0  0  0  0
  189.9310  174.4400  146.3230 C   0  0  0  0  0  3  0  0  0  0  0  0
  188.9950  176.6790  146.4320 C   0  0  0  0  0  0  0  0  0  0  0  0
  190.1110  177.1720  145.7470 C   0  0  0  0  0  3  0  0  0  0  0  0
  192.1270  174.0170  145.1990 C   0  0  0  0  0  2  0  0  0  0  0  0
  193.3500  174.2990  145.9360 N   0  0  0  0  0  2  0  0  0  0  0  0
  194.5370  176.8630  146.2390 O   0  0  0  0  0  1  0  0  0  0  0  0
  194.3050  174.7550  145.0150 N   0  0  0  0  0  0  0  0  0  0  0  0
  194.8920  176.0550  145.1640 C   0  0  0  0  0  0  0  0  0  0  0  0
  194.5730  173.9570  143.8290 C   0  0  0  0  0  1  0  0  0  0  0  0
  195.7340  176.4770  144.3260 O   0  0  0  0  0  0  0  0  0  0  0  0
  186.5530  177.2370  146.8920 C   0  0  2  0  0  3  0  0  0  0  0  0
  184.7410  178.2420  145.5890 N   0  0  0  0  0  0  0  0  0  0  0  0
  185.5780  177.7940  143.4760 C   0  0  0  0  0  0  0  0  0  0  0  0
  185.7330  177.7190  142.0540 N   0  0  0  0  0  0  0  0  0  0  0  0
  186.6750  177.3110  139.9280 C   0  0  0  0  0  2  0  0  0  0  0  0
  184.7600  178.2330  141.1150 C   0  0  0  0  0  2  0  0  0  0  0  0
  185.2430  177.7940  139.7450 C   0  0  0  0  0  2  0  0  0  0  0  0
  186.8660  177.0840  141.4150 C   0  0  0  0  0  2  0  0  0  0  0  0
  185.8790  177.6170  145.6110 C   0  0  0  0  0  0  0  0  0  0  0  0
  184.4830  178.3910  144.2050 C   0  0  0  0  0  0  0  0  0  0  0  0
  183.4700  178.9630  143.7260 O   0  0  0  0  0  0  0  0  0  0  0  0
  186.4350  177.3240  144.3180 N   0  0  0  0  0  0  0  0  0  0  0  0
  186.6450  179.2430  148.3730 C   0  0  0  0  0  1  0  0  0  0  0  0
  185.9060  177.9550  148.0640 C   0  0  0  0  0  2  0  0  0  0  0  0
  1 15  1  0  0  0  0
  2  5  1  0  0  0  0
  4  2  2  0  0  0  0
  4  7  1  0  0  0  0
  5  3  2  0  0  0  0
  6  3  1  0  0  0  0
  6  1  1  0  0  0  0
  7  6  2  0  0  0  0
  8  2  1  0  0  0  0
  8  9  1  0  0  0  0
 11 12  1  0  0  0  0
 11  9  1  0  0  0  0
 12 10  1  0  0  0  0
 13 11  1  0  0  0  0
 14 12  2  0  0  0  0
 15 28  1  1  0  0  0
 16 23  2  0  0  0  0
 17 24  1  0  0  0  0
 17 26  2  0  0  0  0
 18 17  1  0  0  0  0
 19 22  1  0  0  0  0
 20 18  1  0  0  0  0
 21 19  1  0  0  0  0
 21 20  1  0  0  0  0
 22 18  1  0  0  0  0
 23 15  1  0  0  0  0
 24 16  1  0  0  0  0
 25 24  2  0  0  0  0
 26 23  1  0  0  0  0
 28 27  1  0  0  0  0
M  END
>  <MODEL>
2

>  <REMARK>
 VINA RESULT:      -6.6      2.869      7.968
  Name = 
  7 active torsions:
  status: ('A' for Active; 'I' for Inactive)
    1  A    between atoms: C_2  and  C_15
    2  A    between atoms: N_6  and  C_15
    3  A    between atoms: N_6  and  N_16
    4  A    between atoms: N_11  and  C_23
    5  A    between atoms: N_11  and  C_27
    6  A    between atoms: C_18  and  C_27
    7  A    between atoms: C_19  and  C_27
                            x       y       z     vdW  Elec       q    Type
                         _______ _______ _______ _____ _____    ______ ____

>  <TORSDO>
F 7

$$$$
=
 OpenBabel11042418243D

 28 30  0  0  1  0  0  0  0  0999 V2000
  191.1950  175.0350  144.1990 N   0  0  0  0  0  2  0  0  0  0  0  0
  188.1110  176.4250  141.6530 C   0  0  0  0  0  0  0  0  0  0  0  0
  190.0730  176.8790  143.0000 C   0  0  0  0  0  3  0  0  0  0  0  0
  188.2020  175.0690  141.9820 C   0  0  0  0  0  3  0  0  0  0  0  0
  189.0520  177.3300  142.1590 C   0  0  0  0  0  3  0  0  0  0  0  0
  190.1630  175.5190  143.3350 C   0  0  0  0  0  0  0  0  0  0  0  0
  189.2230  174.6180  142.8250 C   0  0  0  0  0  3  0  0  0  0  0  0
  187.0340  176.8970  140.7430 C   0  0  0  0  0  2  0  0  0  0  0  0
  186.7690  178.3090  140.9810 N   0  0  0  0  0  2  0  0  0  0  0  0
  186.2790  178.8640  143.7240 O   0  0  0  0  0  1  0  0  0  0  0  0
  185.4560  178.4180  141.4620 N   0  0  0  0  0  0  0  0  0  0  0  0
  185.2130  178.6860  142.8500 C   0  0  0  0  0  0  0  0  0  0  0  0
  184.3520  178.1050  140.5680 C   0  0  0  0  0  1  0  0  0  0  0  0
  184.0340  178.7620  143.2900 O   0  0  0  0  0  0  0  0  0  0  0  0
  191.0020  174.7610  145.6170 C   0  0  2  0  0  3  0  0  0  0  0  0
  190.6550  176.7820  146.9550 N   0  0  0  0  0  0  0  0  0  0  0  0
  188.3520  176.9160  146.7420 C   0  0  0  0  0  0  0  0  0  0  0  0
  186.9910  177.3480  146.8550 N   0  0  0  0  0  0  0  0  0  0  0  0
  184.6560  177.4830  146.5330 C   0  0  0  0  0  2  0  0  0  0  0  0
  186.5790  178.5040  147.6210 C   0  0  0  0  0  2  0  0  0  0  0  0
  185.0630  178.4880  147.6030 C   0  0  0  0  0  2  0  0  0  0  0  0
  185.8850  176.6440  146.2420 C   0  0  0  0  0  2  0  0  0  0  0  0
  190.1510  175.8270  146.2330 C   0  0  0  0  0  0  0  0  0  0  0  0
  189.5170  177.5390  147.3240 C   0  0  0  0  0  0  0  0  0  0  0  0
  189.5530  178.5810  148.0310 O   0  0  0  0  0  0  0  0  0  0  0  0
  188.7230  175.8770  146.0720 N   0  0  0  0  0  0  0  0  0  0  0  0
  193.4540  174.4280  145.2960 C   0  0  0  0  0  1  0  0  0  0  0  0
  192.3550  174.7010  146.3060 C   0  0  0  0  0  2  0  0  0  0  0  0
  1 15  1  0  0  0  0
  2  4  2  0  0  0  0
  2  5  1  0  0  0  0
  3  6  1  0  0  0  0
  4  7  1  0  0  0  0
  5  3  2  0  0  0  0
  6  1  1  0  0  0  0
  7  6  2  0  0  0  0
  8  9  1  0  0  0  0
  8  2  1  0  0  0  0
  9 11  1  0  0  0  0
 11 12  1  0  0  0  0
 12 14  2  0  0  0  0
 12 10  1  0  0  0  0
 13 11  1  0  0  0  0
 15 23  1  0  0  0  0
 15 28  1  1  0  0  0
 16 24  1  0  0  0  0
 17 18  1  0  0  0  0
 17 24  1  0  0  0  0
 18 20  1  0  0  0  0
 19 21  1  0  0  0  0
 21 20  1  0  0  0  0
 22 19  1  0  0  0  0
 22 18  1  0  0  0  0
 23 16  2  0  0  0  0
 24 25  2  0  0  0  0
 26 23  1  0  0  0  0
 26 17  2  0  0  0  0
 27 28  1  0  0  0  0
M  END
>  <MODEL>
3

>  <REMARK>
 VINA RESULT:      -6.6      2.260      5.119
  Name = 
  7 active torsions:
  status: ('A' for Active; 'I' for Inactive)
    1  A    between atoms: C_2  and  C_15
    2  A    between atoms: N_6  and  C_15
    3  A    between atoms: N_6  and  N_16
    4  A    between atoms: N_11  and  C_23
    5  A    between atoms: N_11  and  C_27
    6  A    between atoms: C_18  and  C_27
    7  A    between atoms: C_19  and  C_27
                            x       y       z     vdW  Elec       q    Type
                         _______ _______ _______ _____ _____    ______ ____

>  <TORSDO>
F 7

$$$$
=
 OpenBabel11042418243D

 28 30  0  0  1  0  0  0  0  0999 V2000
  190.1900  175.8980  146.7850 N   0  0  0  0  0  2  0  0  0  0  0  0
  186.6930  177.5410  145.0530 C   0  0  0  0  0  0  0  0  0  0  0  0
  187.7310  176.1260  146.7230 C   0  0  0  0  0  3  0  0  0  0  0  0
  187.9560  177.8690  144.5500 C   0  0  0  0  0  3  0  0  0  0  0  0
  186.5820  176.6720  146.1450 C   0  0  0  0  0  3  0  0  0  0  0  0
  188.9990  176.4500  146.2160 C   0  0  0  0  0  0  0  0  0  0  0  0
  189.1050  177.3210  145.1270 C   0  0  0  0  0  3  0  0  0  0  0  0
  185.4740  178.1400  144.4480 C   0  0  0  0  0  2  0  0  0  0  0  0
  185.8410  178.9500  143.2950 N   0  0  0  0  0  2  0  0  0  0  0  0
  187.5110  178.1690  141.1320 O   0  0  0  0  0  1  0  0  0  0  0  0
  185.2940  178.3410  142.1560 N   0  0  0  0  0  0  0  0  0  0  0  0
  186.1380  177.9600  141.0610 C   0  0  0  0  0  0  0  0  0  0  0  0
  183.8470  178.2440  142.0390 C   0  0  0  0  0  1  0  0  0  0  0  0
  185.6460  177.4330  140.0270 O   0  0  0  0  0  0  0  0  0  0  0  0
  191.0200  174.9030  146.1190 C   0  0  2  0  0  3  0  0  0  0  0  0
  192.7820  176.5970  146.2470 N   0  0  0  0  0  0  0  0  0  0  0  0
  194.1430  175.7710  144.5630 C   0  0  0  0  0  0  0  0  0  0  0  0
  195.2220  175.6020  143.6360 N   0  0  0  0  0  0  0  0  0  0  0  0
  196.6100  174.6690  141.9700 C   0  0  0  0  0  2  0  0  0  0  0  0
  196.3440  176.5110  143.5400 C   0  0  0  0  0  2  0  0  0  0  0  0
  197.1400  176.0490  142.3340 C   0  0  0  0  0  2  0  0  0  0  0  0
  195.2750  174.5220  142.6750 C   0  0  0  0  0  2  0  0  0  0  0  0
  192.3140  175.5200  145.6910 C   0  0  0  0  0  0  0  0  0  0  0  0
  193.9920  176.8190  145.5460 C   0  0  0  0  0  0  0  0  0  0  0  0
  194.7850  177.7690  145.7760 O   0  0  0  0  0  0  0  0  0  0  0  0
  193.1330  174.9730  144.6430 N   0  0  0  0  0  0  0  0  0  0  0  0
  189.8980  172.8980  145.1430 C   0  0  0  0  0  1  0  0  0  0  0  0
  190.2730  174.3510  144.9160 C   0  0  0  0  0  2  0  0  0  0  0  0
  2  5  1  0  0  0  0
  4  2  2  0  0  0  0
  4  7  1  0  0  0  0
  5  3  2  0  0  0  0
  6  3  1  0  0  0  0
  6  1  1  0  0  0  0
  7  6  2  0  0  0  0
  8  2  1  0  0  0  0
  9  8  1  0  0  0  0
 11  9  1  0  0  0  0
 12 10  1  0  0  0  0
 12 11  1  0  0  0  0
 13 11  1  0  0  0  0
 14 12  2  0  0  0  0
 15 28  1  6  0  0  0
 15  1  1  0  0  0  0
 17 26  2  0  0  0  0
 17 24  1  0  0  0  0
 18 17  1  0  0  0  0
 19 21  1  0  0  0  0
 19 22  1  0  0  0  0
 20 18  1  0  0  0  0
 21 20  1  0  0  0  0
 22 18  1  0  0  0  0
 23 15  1  0  0  0  0
 23 16  2  0  0  0  0
 24 25  2  0  0  0  0
 24 16  1  0  0  0  0
 26 23  1  0  0  0  0
 28 27  1  0  0  0  0
M  END
>  <MODEL>
4

>  <REMARK>
 VINA RESULT:      -6.5      3.014      4.221
  Name = 
  7 active torsions:
  status: ('A' for Active; 'I' for Inactive)
    1  A    between atoms: C_2  and  C_15
    2  A    between atoms: N_6  and  C_15
    3  A    between atoms: N_6  and  N_16
    4  A    between atoms: N_11  and  C_23
    5  A    between atoms: N_11  and  C_27
    6  A    between atoms: C_18  and  C_27
    7  A    between atoms: C_19  and  C_27
                            x       y       z     vdW  Elec       q    Type
                         _______ _______ _______ _____ _____    ______ ____

>  <TORSDO>
F 7

$$$$
=
 OpenBabel11042418243D

 28 30  0  0  1  0  0  0  0  0999 V2000
  188.5730  175.2040  140.8660 N   0  0  0  0  0  2  0  0  0  0  0  0
  186.1420  177.8720  143.0790 C   0  0  0  0  0  0  0  0  0  0  0  0
  187.9370  177.5060  141.4950 C   0  0  0  0  0  3  0  0  0  0  0  0
  185.9560  176.4900  143.1840 C   0  0  0  0  0  3  0  0  0  0  0  0
  187.1300  178.3800  142.2280 C   0  0  0  0  0  3  0  0  0  0  0  0
  187.7550  176.1180  141.6020 C   0  0  0  0  0  0  0  0  0  0  0  0
  186.7640  175.6160  142.4510 C   0  0  0  0  0  3  0  0  0  0  0  0
  185.2680  178.7990  143.8470 C   0  0  0  0  0  2  0  0  0  0  0  0
  185.9710  179.2750  145.0300 N   0  0  0  0  0  2  0  0  0  0  0  0
  187.9160  177.5660  146.2010 O   0  0  0  0  0  0  0  0  0  0  0  0
  185.6280  178.4320  146.0970 N   0  0  0  0  0  0  0  0  0  0  0  0
  186.6100  177.5600  146.6760 C   0  0  0  0  0  0  0  0  0  0  0  0
  184.2340  178.3420  146.5000 C   0  0  0  0  0  1  0  0  0  0  0  0
  186.2990  176.7850  147.6200 O   0  0  0  0  0  1  0  0  0  0  0  0
  189.2330  174.0490  141.4610 C   0  0  2  0  0  3  0  0  0  0  0  0
  191.6470  174.4540  141.4080 N   0  0  0  0  0  0  0  0  0  0  0  0
  191.9010  175.1580  143.6010 C   0  0  0  0  0  0  0  0  0  0  0  0
  192.4680  175.6280  144.8290 N   0  0  0  0  0  0  0  0  0  0  0  0
  192.6540  176.4180  147.0460 C   0  0  0  0  0  2  0  0  0  0  0  0
  193.8780  175.9020  145.0070 C   0  0  0  0  0  2  0  0  0  0  0  0
  194.0520  176.2070  146.4820 C   0  0  0  0  0  2  0  0  0  0  0  0
  191.6880  175.8390  146.0300 C   0  0  0  0  0  2  0  0  0  0  0  0
  190.5320  174.4620  142.0770 C   0  0  0  0  0  0  0  0  0  0  0  0
  192.5940  174.9040  142.3600 C   0  0  0  0  0  0  0  0  0  0  0  0
  193.8210  175.0580  142.1260 O   0  0  0  0  0  0  0  0  0  0  0  0
  190.6470  174.8980  143.4420 N   0  0  0  0  0  0  0  0  0  0  0  0
  188.2000  172.7660  139.5850 C   0  0  0  0  0  1  0  0  0  0  0  0
  189.4660  172.9980  140.3880 C   0  0  0  0  0  2  0  0  0  0  0  0
  1 15  1  0  0  0  0
  1  6  1  0  0  0  0
  2  4  1  0  0  0  0
  2  8  1  0  0  0  0
  3  6  2  0  0  0  0
  3  5  1  0  0  0  0
  5  2  2  0  0  0  0
  6  7  1  0  0  0  0
  7  4  2  0  0  0  0
  8  9  1  0  0  0  0
  9 11  1  0  0  0  0
 10 12  2  0  0  0  0
 11 13  1  0  0  0  0
 11 12  1  0  0  0  0
 12 14  1  0  0  0  0
 15 28  1  6  0  0  0
 15 23  1  0  0  0  0
 16 23  2  0  0  0  0
 16 24  1  0  0  0  0
 17 18  1  0  0  0  0
 18 20  1  0  0  0  0
 18 22  1  0  0  0  0
 20 21  1  0  0  0  0
 21 19  1  0  0  0  0
 22 19  1  0  0  0  0
 23 26  1  0  0  0  0
 24 17  1  0  0  0  0
 25 24  2  0  0  0  0
 26 17  2  0  0  0  0
 27 28  1  0  0  0  0
M  END
>  <MODEL>
5

>  <REMARK>
 VINA RESULT:      -6.5      1.431      2.018
  Name = 
  7 active torsions:
  status: ('A' for Active; 'I' for Inactive)
    1  A    between atoms: C_2  and  C_15
    2  A    between atoms: N_6  and  C_15
    3  A    between atoms: N_6  and  N_16
    4  A    between atoms: N_11  and  C_23
    5  A    between atoms: N_11  and  C_27
    6  A    between atoms: C_18  and  C_27
    7  A    between atoms: C_19  and  C_27
                            x       y       z     vdW  Elec       q    Type
                         _______ _______ _______ _____ _____    ______ ____

>  <TORSDO>
F 7

$$$$
=
 OpenBabel11042418243D

 28 30  0  0  1  0  0  0  0  0999 V2000
  189.7840  177.0650  146.4960 N   0  0  0  0  0  2  0  0  0  0  0  0
  186.1480  177.4570  144.3620 C   0  0  0  0  0  0  0  0  0  0  0  0
  187.3510  176.6820  146.3170 C   0  0  0  0  0  3  0  0  0  0  0  0
  187.3370  177.9740  143.8380 C   0  0  0  0  0  3  0  0  0  0  0  0
  186.1540  176.8160  145.6060 C   0  0  0  0  0  3  0  0  0  0  0  0
  188.5460  177.1960  145.7900 C   0  0  0  0  0  0  0  0  0  0  0  0
  188.5330  177.8380  144.5480 C   0  0  0  0  0  3  0  0  0  0  0  0
  184.8740  177.6190  143.6110 C   0  0  0  0  0  2  0  0  0  0  0  0
  184.9780  178.7480  142.6980 N   0  0  0  0  0  2  0  0  0  0  0  0
  182.2320  178.5330  141.9990 O   0  0  0  0  0  1  0  0  0  0  0  0
  184.6010  178.2990  141.4230 N   0  0  0  0  0  0  0  0  0  0  0  0
  183.2140  178.1790  141.0790 C   0  0  0  0  0  0  0  0  0  0  0  0
  185.6290  177.8130  140.5170 C   0  0  0  0  0  1  0  0  0  0  0  0
  182.8710  177.7550  139.9430 O   0  0  0  0  0  0  0  0  0  0  0  0
  190.9800  176.4580  145.9260 C   0  0  2  0  0  3  0  0  0  0  0  0
  190.1560  174.1530  145.8760 N   0  0  0  0  0  0  0  0  0  0  0  0
  190.3770  173.7840  143.5990 C   0  0  0  0  0  0  0  0  0  0  0  0
  190.3550  173.1710  142.3040 N   0  0  0  0  0  0  0  0  0  0  0  0
  190.5220  172.8800  139.9670 C   0  0  0  0  0  2  0  0  0  0  0  0
  189.9260  171.8100  142.0710 C   0  0  0  0  0  2  0  0  0  0  0  0
  190.2250  171.5320  140.6100 C   0  0  0  0  0  2  0  0  0  0  0  0
  190.8000  173.8460  141.1030 C   0  0  0  0  0  2  0  0  0  0  0  0
  190.6250  175.1800  145.2330 C   0  0  0  0  0  0  0  0  0  0  0  0
  189.9700  173.1930  144.8520 C   0  0  0  0  0  0  0  0  0  0  0  0
  189.5130  172.0340  145.0360 O   0  0  0  0  0  0  0  0  0  0  0  0
  190.7730  174.9930  143.8150 N   0  0  0  0  0  0  0  0  0  0  0  0
  191.4820  176.7540  148.3530 C   0  0  0  0  0  1  0  0  0  0  0  0
  191.9860  176.1970  147.0350 C   0  0  0  0  0  2  0  0  0  0  0  0
  2  5  1  0  0  0  0
  4  2  2  0  0  0  0
  4  7  1  0  0  0  0
  5  3  2  0  0  0  0
  6  3  1  0  0  0  0
  6  1  1  0  0  0  0
  7  6  2  0  0  0  0
  8  2  1  0  0  0  0
  9  8  1  0  0  0  0
 11  9  1  0  0  0  0
 12 11  1  0  0  0  0
 12 10  1  0  0  0  0
 13 11  1  0  0  0  0
 14 12  2  0  0  0  0
 15  1  1  0  0  0  0
 15 28  1  1  0  0  0
 17 26  2  0  0  0  0
 17 24  1  0  0  0  0
 18 17  1  0  0  0  0
 19 21  1  0  0  0  0
 19 22  1  0  0  0  0
 20 18  1  0  0  0  0
 21 20  1  0  0  0  0
 22 18  1  0  0  0  0
 23 16  2  0  0  0  0
 23 15  1  0  0  0  0
 24 25  2  0  0  0  0
 24 16  1  0  0  0  0
 26 23  1  0  0  0  0
 28 27  1  0  0  0  0
M  END
>  <MODEL>
6

>  <REMARK>
 VINA RESULT:      -6.4      2.828      5.089
  Name = 
  7 active torsions:
  status: ('A' for Active; 'I' for Inactive)
    1  A    between atoms: C_2  and  C_15
    2  A    between atoms: N_6  and  C_15
    3  A    between atoms: N_6  and  N_16
    4  A    between atoms: N_11  and  C_23
    5  A    between atoms: N_11  and  C_27
    6  A    between atoms: C_18  and  C_27
    7  A    between atoms: C_19  and  C_27
                            x       y       z     vdW  Elec       q    Type
                         _______ _______ _______ _____ _____    ______ ____

>  <TORSDO>
F 7

$$$$
=
 OpenBabel11042418243D

 28 30  0  0  1  0  0  0  0  0999 V2000
  191.8400  175.8170  144.6060 N   0  0  0  0  0  2  0  0  0  0  0  0
  188.0080  176.9800  145.9800 C   0  0  0  0  0  0  0  0  0  0  0  0
  189.8030  175.3540  145.9230 C   0  0  0  0  0  3  0  0  0  0  0  0
  188.7490  177.8250  145.1480 C   0  0  0  0  0  3  0  0  0  0  0  0
  188.5380  175.7450  146.3730 C   0  0  0  0  0  3  0  0  0  0  0  0
  190.5470  176.1990  145.0840 C   0  0  0  0  0  0  0  0  0  0  0  0
  190.0130  177.4320  144.6980 C   0  0  0  0  0  3  0  0  0  0  0  0
  186.6710  177.4090  146.4710 C   0  0  0  0  0  2  0  0  0  0  0  0
  185.6270  176.6870  145.7580 N   0  0  0  0  0  2  0  0  0  0  0  0
  185.9580  176.4470  142.9460 O   0  0  0  0  0  1  0  0  0  0  0  0
  185.0040  177.5930  144.8870 N   0  0  0  0  0  0  0  0  0  0  0  0
  185.1840  177.4760  143.4690 C   0  0  0  0  0  0  0  0  0  0  0  0
  184.3040  178.7380  145.4490 C   0  0  0  0  0  1  0  0  0  0  0  0
  184.6440  178.3030  142.6850 O   0  0  0  0  0  0  0  0  0  0  0  0
  193.0900  176.2350  145.2280 C   0  0  2  0  0  3  0  0  0  0  0  0
  195.3780  176.6870  144.4820 N   0  0  0  0  0  0  0  0  0  0  0  0
  195.1780  175.8700  142.3230 C   0  0  0  0  0  0  0  0  0  0  0  0
  195.4680  175.4870  140.9730 N   0  0  0  0  0  0  0  0  0  0  0  0
  195.2310  174.5640  138.8130 C   0  0  0  0  0  2  0  0  0  0  0  0
  196.7530  175.6930  140.3410 C   0  0  0  0  0  2  0  0  0  0  0  0
  196.5610  175.3020  138.8880 C   0  0  0  0  0  2  0  0  0  0  0  0
  194.4860  174.8890  140.0930 C   0  0  0  0  0  2  0  0  0  0  0  0
  194.1930  176.2230  144.2160 C   0  0  0  0  0  0  0  0  0  0  0  0
  196.0800  176.4830  143.2690 C   0  0  0  0  0  0  0  0  0  0  0  0
  197.2880  176.7850  143.0870 O   0  0  0  0  0  0  0  0  0  0  0  0
  194.0290  175.7030  142.8860 N   0  0  0  0  0  0  0  0  0  0  0  0
  193.4450  173.8570  145.8980 C   0  0  0  0  0  1  0  0  0  0  0  0
  193.4160  175.2960  146.3770 C   0  0  0  0  0  2  0  0  0  0  0  0
  1  6  1  0  0  0  0
  1 15  1  0  0  0  0
  2  5  1  0  0  0  0
  2  8  1  0  0  0  0
  3  5  2  0  0  0  0
  4  2  2  0  0  0  0
  6  3  1  0  0  0  0
  7  6  2  0  0  0  0
  7  4  1  0  0  0  0
  9  8  1  0  0  0  0
 10 12  1  0  0  0  0
 11 13  1  0  0  0  0
 11  9  1  0  0  0  0
 12 11  1  0  0  0  0
 14 12  2  0  0  0  0
 15 28  1  1  0  0  0
 17 26  2  0  0  0  0
 17 24  1  0  0  0  0
 18 17  1  0  0  0  0
 19 21  1  0  0  0  0
 19 22  1  0  0  0  0
 20 18  1  0  0  0  0
 21 20  1  0  0  0  0
 22 18  1  0  0  0  0
 23 16  2  0  0  0  0
 23 15  1  0  0  0  0
 24 16  1  0  0  0  0
 25 24  2  0  0  0  0
 26 23  1  0  0  0  0
 27 28  1  0  0  0  0
M  END
>  <MODEL>
7

>  <REMARK>
 VINA RESULT:      -6.4      3.346      5.075
  Name = 
  7 active torsions:
  status: ('A' for Active; 'I' for Inactive)
    1  A    between atoms: C_2  and  C_15
    2  A    between atoms: N_6  and  C_15
    3  A    between atoms: N_6  and  N_16
    4  A    between atoms: N_11  and  C_23
    5  A    between atoms: N_11  and  C_27
    6  A    between atoms: C_18  and  C_27
    7  A    between atoms: C_19  and  C_27
                            x       y       z     vdW  Elec       q    Type
                         _______ _______ _______ _____ _____    ______ ____

>  <TORSDO>
F 7

$$$$
=
 OpenBabel11042418243D

 28 30  0  0  1  0  0  0  0  0999 V2000
  189.6130  176.1940  145.6330 N   0  0  0  0  0  2  0  0  0  0  0  0
  193.3480  174.2000  145.6510 C   0  0  0  0  0  0  0  0  0  0  0  0
  191.0810  174.3820  144.8180 C   0  0  0  0  0  3  0  0  0  0  0  0
  193.1430  175.3300  146.4500 C   0  0  0  0  0  3  0  0  0  0  0  0
  192.3170  173.7300  144.8300 C   0  0  0  0  0  3  0  0  0  0  0  0
  190.8720  175.5140  145.6220 C   0  0  0  0  0  0  0  0  0  0  0  0
  191.9060  175.9810  146.4390 C   0  0  0  0  0  3  0  0  0  0  0  0
  194.6710  173.5210  145.6530 C   0  0  0  0  0  2  0  0  0  0  0  0
  195.7230  174.4860  145.9360 N   0  0  0  0  0  2  0  0  0  0  0  0
  195.4990  176.6080  144.0580 O   0  0  0  0  0  1  0  0  0  0  0  0
  196.5650  174.5370  144.8150 N   0  0  0  0  0  0  0  0  0  0  0  0
  196.4390  175.6020  143.8620 C   0  0  0  0  0  0  0  0  0  0  0  0
  197.4550  173.4170  144.5540 C   0  0  0  0  0  1  0  0  0  0  0  0
  197.1790  175.6390  142.8420 O   0  0  0  0  0  0  0  0  0  0  0  0
  189.3820  177.4790  144.9850 C   0  0  2  0  0  3  0  0  0  0  0  0
  187.0520  177.7320  145.6970 N   0  0  0  0  0  0  0  0  0  0  0  0
  186.0960  177.9310  143.5960 C   0  0  0  0  0  0  0  0  0  0  0  0
  185.1470  178.0900  142.5350 N   0  0  0  0  0  0  0  0  0  0  0  0
  184.2370  178.3720  140.3750 C   0  0  0  0  0  2  0  0  0  0  0  0
  183.7220  178.2290  142.7500 C   0  0  0  0  0  2  0  0  0  0  0  0
  183.0970  178.1990  141.3680 C   0  0  0  0  0  2  0  0  0  0  0  0
  185.5180  178.0880  141.1360 C   0  0  0  0  0  2  0  0  0  0  0  0
  187.9190  177.6670  144.7310 C   0  0  0  0  0  0  0  0  0  0  0  0
  185.8240  177.9060  145.0140 C   0  0  0  0  0  0  0  0  0  0  0  0
  184.7060  178.0280  145.5790 O   0  0  0  0  0  0  0  0  0  0  0  0
  187.3650  177.7910  143.4100 N   0  0  0  0  0  0  0  0  0  0  0  0
  191.2370  178.5930  143.7430 C   0  0  0  0  0  1  0  0  0  0  0  0
  190.1570  177.5300  143.6800 C   0  0  0  0  0  2  0  0  0  0  0  0
  2  8  1  0  0  0  0
  2  4  1  0  0  0  0
  3  5  1  0  0  0  0
  3  6  2  0  0  0  0
  5  2  2  0  0  0  0
  6  1  1  0  0  0  0
  6  7  1  0  0  0  0
  7  4  2  0  0  0  0
  8  9  1  0  0  0  0
 11  9  1  0  0  0  0
 12 10  1  0  0  0  0
 12 11  1  0  0  0  0
 13 11  1  0  0  0  0
 14 12  2  0  0  0  0
 15 28  1  6  0  0  0
 15  1  1  0  0  0  0
 17 24  1  0  0  0  0
 18 20  1  0  0  0  0
 18 17  1  0  0  0  0
 19 22  1  0  0  0  0
 19 21  1  0  0  0  0
 21 20  1  0  0  0  0
 22 18  1  0  0  0  0
 23 15  1  0  0  0  0
 23 16  2  0  0  0  0
 24 25  2  0  0  0  0
 24 16  1  0  0  0  0
 26 17  2  0  0  0  0
 26 23  1  0  0  0  0
 28 27  1  0  0  0  0
M  END
>  <MODEL>
8

>  <REMARK>
 VINA RESULT:      -6.4      3.132      8.476
  Name = 
  7 active torsions:
  status: ('A' for Active; 'I' for Inactive)
    1  A    between atoms: C_2  and  C_15
    2  A    between atoms: N_6  and  C_15
    3  A    between atoms: N_6  and  N_16
    4  A    between atoms: N_11  and  C_23
    5  A    between atoms: N_11  and  C_27
    6  A    between atoms: C_18  and  C_27
    7  A    between atoms: C_19  and  C_27
                            x       y       z     vdW  Elec       q    Type
                         _______ _______ _______ _____ _____    ______ ____

>  <TORSDO>
F 7

$$$$
=
 OpenBabel11042418243D

 28 30  0  0  1  0  0  0  0  0999 V2000
  186.8900  177.7420  145.5520 N   0  0  0  0  0  2  0  0  0  0  0  0
  190.6190  175.9390  146.4320 C   0  0  0  0  0  0  0  0  0  0  0  0
  188.2150  176.0150  146.7200 C   0  0  0  0  0  3  0  0  0  0  0  0
  190.5480  177.0350  145.5650 C   0  0  0  0  0  3  0  0  0  0  0  0
  189.4500  175.4260  147.0050 C   0  0  0  0  0  3  0  0  0  0  0  0
  188.1420  177.1180  145.8540 C   0  0  0  0  0  0  0  0  0  0  0  0
  189.3120  177.6250  145.2810 C   0  0  0  0  0  3  0  0  0  0  0  0
  191.9330  175.3040  146.7170 C   0  0  0  0  0  2  0  0  0  0  0  0
  192.6200  175.0060  145.4690 N   0  0  0  0  0  2  0  0  0  0  0  0
  194.2130  175.0790  143.1170 O   0  0  0  0  0  0  0  0  0  0  0  0
  193.7520  175.8320  145.4010 N   0  0  0  0  0  0  0  0  0  0  0  0
  194.5610  175.8560  144.2170 C   0  0  0  0  0  0  0  0  0  0  0  0
  194.1770  176.5400  146.5980 C   0  0  0  0  0  1  0  0  0  0  0  0
  195.5920  176.5800  144.1600 O   0  0  0  0  0  1  0  0  0  0  0  0
  185.8490  177.1210  144.7440 C   0  0  2  0  0  3  0  0  0  0  0  0
  186.2790  177.5140  142.3660 N   0  0  0  0  0  0  0  0  0  0  0  0
  187.4060  175.5400  141.9140 C   0  0  0  0  0  0  0  0  0  0  0  0
  188.1200  174.4960  141.2420 N   0  0  0  0  0  0  0  0  0  0  0  0
  189.3350  172.5090  140.8590 C   0  0  0  0  0  2  0  0  0  0  0  0
  188.4480  174.5300  139.8330 C   0  0  0  0  0  2  0  0  0  0  0  0
  189.0420  173.1700  139.5190 C   0  0  0  0  0  2  0  0  0  0  0  0
  188.5500  173.2820  141.9010 C   0  0  0  0  0  2  0  0  0  0  0  0
  186.3990  176.7430  143.4050 C   0  0  0  0  0  0  0  0  0  0  0  0
  186.9250  176.7770  141.3440 C   0  0  0  0  0  0  0  0  0  0  0  0
  187.0510  177.1690  140.1540 O   0  0  0  0  0  0  0  0  0  0  0  0
  187.0980  175.5090  143.1670 N   0  0  0  0  0  0  0  0  0  0  0  0
  184.2090  178.5720  145.9410 C   0  0  0  0  0  1  0  0  0  0  0  0
  184.6920  178.0930  144.5850 C   0  0  0  0  0  2  0  0  0  0  0  0
  1  6  1  0  0  0  0
  2  8  1  0  0  0  0
  2  5  1  0  0  0  0
  3  5  2  0  0  0  0
  4  2  2  0  0  0  0
  6  3  1  0  0  0  0
  7  4  1  0  0  0  0
  7  6  2  0  0  0  0
  9  8  1  0  0  0  0
 10 12  2  0  0  0  0
 11  9  1  0  0  0  0
 11 13  1  0  0  0  0
 12 11  1  0  0  0  0
 14 12  1  0  0  0  0
 15 28  1  6  0  0  0
 15  1  1  0  0  0  0
 16 23  2  0  0  0  0
 17 26  2  0  0  0  0
 18 22  1  0  0  0  0
 18 17  1  0  0  0  0
 19 22  1  0  0  0  0
 20 18  1  0  0  0  0
 21 20  1  0  0  0  0
 21 19  1  0  0  0  0
 23 15  1  0  0  0  0
 24 17  1  0  0  0  0
 24 16  1  0  0  0  0
 25 24  2  0  0  0  0
 26 23  1  0  0  0  0
 28 27  1  0  0  0  0
M  END
>  <MODEL>
9

>  <REMARK>
 VINA RESULT:      -6.4      2.560      7.066
  Name = 
  7 active torsions:
  status: ('A' for Active; 'I' for Inactive)
    1  A    between atoms: C_2  and  C_15
    2  A    between atoms: N_6  and  C_15
    3  A    between atoms: N_6  and  N_16
    4  A    between atoms: N_11  and  C_23
    5  A    between atoms: N_11  and  C_27
    6  A    between atoms: C_18  and  C_27
    7  A    between atoms: C_19  and  C_27
                            x       y       z     vdW  Elec       q    Type
                         _______ _______ _______ _____ _____    ______ ____

>  <TORSDO>
F 7

$$$$
