=
 OpenBabel11042416473D

 37 42  0  0  1  0  0  0  0  0999 V2000
  191.3360  170.8100  143.4730 O   0  0  0  0  0  0  0  0  0  0  0  0
  191.7190  172.8880  142.4770 N   0  0  0  0  0  2  0  0  0  0  0  0
  192.1560  171.7210  143.1820 C   0  0  0  0  0  0  0  0  0  0  0  0
  188.8780  175.3620  142.1470 C   0  0  2  0  0  3  0  0  0  0  0  0
  187.8580  176.0680  143.0620 C   0  0  0  0  0  2  0  0  0  0  0  0
  190.1440  173.2380  140.6880 C   0  0  0  0  0  3  0  0  0  0  0  0
  190.3170  173.1520  142.1810 C   0  0  2  0  0  3  0  0  0  0  0  0
  189.1280  173.9160  140.1390 C   0  0  0  0  0  0  0  0  0  0  0  0
  190.1990  174.6870  144.1330 C   0  0  0  0  0  3  0  0  0  0  0  0
  188.1480  174.6440  141.0120 C   0  0  0  0  0  2  0  0  0  0  0  0
  189.8420  174.4230  142.8660 C   0  0  0  0  0  0  0  0  0  0  0  0
  189.6700  175.9030  144.8230 C   0  0  0  0  0  2  0  0  0  0  0  0
  188.9950  174.0300  138.3960 Cl  0  0  0  0  0  0  0  0  0  0  0  0
  188.1680  175.9880  144.5640 C   0  0  1  0  0  3  0  0  0  0  0  0
  187.2660  176.0410  147.2720 O   0  0  0  0  0  0  0  0  0  0  0  0
  187.1830  177.1100  146.6060 C   0  0  0  0  0  0  0  0  0  0  0  0
  187.6020  177.1440  145.2410 N   0  0  0  0  0  2  0  0  0  0  0  0
  186.6690  178.2710  147.1910 O   0  0  0  0  0  0  0  0  0  0  0  0
  185.6710  179.0650  146.5630 C   0  0  0  0  0  2  0  0  0  0  0  0
  184.3650  178.2980  146.4860 C   0  0  0  0  0  1  0  0  0  0  0  0
  193.4900  171.5880  143.5630 O   0  0  0  0  0  0  0  0  0  0  0  0
  196.2350  171.3070  143.8180 C   0  0  0  0  0  1  0  0  0  0  0  0
  194.6110  172.2940  145.6490 C   0  0  1  0  0  3  0  0  0  0  0  0
  193.8510  171.1970  144.8880 C   0  0  2  0  0  3  0  0  0  0  0  0
  195.3640  171.1010  145.0590 C   0  0  1  0  0  0  0  0  0  0  0  0
  193.9080  175.8740  144.5100 C   0  0  1  0  0  3  0  0  0  0  0  0
  195.3390  175.9890  144.9940 C   0  0  0  0  0  2  0  0  0  0  0  0
  193.7460  174.5940  145.3040 C   0  0  2  0  0  3  0  0  0  0  0  0
  193.1020  176.9240  145.1080 N   0  0  0  0  0  1  0  0  0  0  0  0
  195.1790  174.7070  145.7840 C   0  0  1  0  0  3  0  0  0  0  0  0
  194.7780  173.5850  144.8490 C   0  0  1  0  0  3  0  0  0  0  0  0
  194.8530  169.4250  146.8620 C   0  0  0  0  0  3  0  0  0  0  0  0
  196.6230  168.1690  147.9390 C   0  0  0  0  0  3  0  0  0  0  0  0
  197.1580  169.7570  146.1900 C   0  0  0  0  0  3  0  0  0  0  0  0
  195.7980  170.0580  146.0410 C   0  0  0  0  0  0  0  0  0  0  0  0
  195.2650  168.4780  147.8050 C   0  0  0  0  0  3  0  0  0  0  0  0
  197.5690  168.8100  147.1340 C   0  0  0  0  0  3  0  0  0  0  0  0
  2  3  1  0  0  0  0
  3  1  2  0  0  0  0
  3 21  1  0  0  0  0
  4 10  1  6  0  0  0
  4 11  1  0  0  0  0
  4  5  1  0  0  0  0
  5 14  1  0  0  0  0
  6  7  1  0  0  0  0
  7  2  1  6  0  0  0
  7 11  1  0  0  0  0
  8  6  2  0  0  0  0
  8 10  1  0  0  0  0
  9 12  1  0  0  0  0
 11  9  2  0  0  0  0
 13  8  1  0  0  0  0
 14 12  1  0  0  0  0
 14 17  1  1  0  0  0
 16 18  1  0  0  0  0
 16 15  2  0  0  0  0
 17 16  1  0  0  0  0
 19 18  1  0  0  0  0
 20 19  1  0  0  0  0
 23 31  1  6  0  0  0
 24 21  1  6  0  0  0
 24 25  1  0  0  0  0
 24 23  1  0  0  0  0
 25 22  1  6  0  0  0
 25 23  1  0  0  0  0
 25 35  1  0  0  0  0
 26 27  1  0  0  0  0
 26 29  1  1  0  0  0
 26 28  1  0  0  0  0
 27 30  1  0  0  0  0
 28 30  1  0  0  0  0
 31 28  1  0  0  0  0
 31 30  1  0  0  0  0
 32 36  1  0  0  0  0
 34 37  2  0  0  0  0
 35 34  1  0  0  0  0
 35 32  2  0  0  0  0
 36 33  2  0  0  0  0
 37 33  1  0  0  0  0
M  END
>  <MODEL>
1

>  <REMARK>
 VINA RESULT:      -7.2      0.000      0.000
  Name = 
  8 active torsions:
  status: ('A' for Active; 'I' for Inactive)
    1  A    between atoms: O_1  and  C_16
    2  A    between atoms: O_1  and  C_24
    3  A    between atoms: C_8  and  O_25
    4  A    between atoms: C_13  and  O_25
    5  A    between atoms: N_14  and  C_17
    6  A    between atoms: C_23  and  C_33
    7  A    between atoms: C_26  and  C_32
    8  A    between atoms: N_30  and  C_36
                            x       y       z     vdW  Elec       q    Type
                         _______ _______ _______ _____ _____    ______ ____

>  <TORSDO>
F 8

$$$$
=
 OpenBabel11042416473D

 37 42  0  0  1  0  0  0  0  0999 V2000
  192.1140  177.0160  143.3890 O   0  0  0  0  0  0  0  0  0  0  0  0
  191.0920  175.8640  145.1460 N   0  0  0  0  0  2  0  0  0  0  0  0
  191.0470  176.6460  143.9470 C   0  0  0  0  0  0  0  0  0  0  0  0
  194.5370  174.3050  145.1520 C   0  0  2  0  0  3  0  0  0  0  0  0
  195.1690  172.9170  145.3780 C   0  0  0  0  0  2  0  0  0  0  0  0
  193.2280  176.7830  145.7750 C   0  0  0  0  0  3  0  0  0  0  0  0
  192.3340  175.5740  145.8510 C   0  0  2  0  0  3  0  0  0  0  0  0
  194.5580  176.6770  145.8950 C   0  0  0  0  0  0  0  0  0  0  0  0
  192.2990  173.2580  144.9490 C   0  0  0  0  0  3  0  0  0  0  0  0
  195.1950  175.3300  146.0740 C   0  0  0  0  0  2  0  0  0  0  0  0
  193.0170  174.3440  145.2750 C   0  0  0  0  0  0  0  0  0  0  0  0
  192.9870  172.0270  144.4510 C   0  0  0  0  0  2  0  0  0  0  0  0
  195.5630  178.1060  145.7510 Cl  0  0  0  0  0  0  0  0  0  0  0  0
  194.1800  171.7420  145.3590 C   0  0  1  0  0  3  0  0  0  0  0  0
  194.5840  169.4110  146.9570 O   0  0  0  0  0  0  0  0  0  0  0  0
  195.0230  169.3920  145.7730 C   0  0  0  0  0  0  0  0  0  0  0  0
  194.8670  170.5340  144.9280 N   0  0  0  0  0  2  0  0  0  0  0  0
  195.6750  168.2610  145.2770 O   0  0  0  0  0  0  0  0  0  0  0  0
  197.0670  168.2490  144.9830 C   0  0  0  0  0  2  0  0  0  0  0  0
  197.8500  168.8490  146.1350 C   0  0  0  0  0  1  0  0  0  0  0  0
  189.8220  177.0140  143.3930 O   0  0  0  0  0  0  0  0  0  0  0  0
  187.6530  177.8720  141.8980 C   0  0  0  0  0  1  0  0  0  0  0  0
  187.6920  175.7650  143.4860 C   0  0  1  0  0  3  0  0  0  0  0  0
  188.5990  176.8390  144.1070 C   0  0  2  0  0  3  0  0  0  0  0  0
  187.3900  177.2490  143.2700 C   0  0  1  0  0  0  0  0  0  0  0  0
  189.5880  173.1090  141.4980 C   0  0  1  0  0  3  0  0  0  0  0  0
  188.2290  173.0680  140.8310 C   0  0  0  0  0  2  0  0  0  0  0  0
  188.9740  173.7890  142.7030 C   0  0  2  0  0  3  0  0  0  0  0  0
  190.0000  171.7630  141.8550 N   0  0  0  0  0  1  0  0  0  0  0  0
  187.6140  173.7530  142.0340 C   0  0  1  0  0  3  0  0  0  0  0  0
  188.3080  175.0790  142.2690 C   0  0  1  0  0  3  0  0  0  0  0  0
  185.8380  177.1540  145.2460 C   0  0  0  0  0  3  0  0  0  0  0  0
  184.0770  178.7930  145.5330 C   0  0  0  0  0  3  0  0  0  0  0  0
  185.5650  178.9360  143.6270 C   0  0  0  0  0  3  0  0  0  0  0  0
  186.2560  177.8020  144.0750 C   0  0  0  0  0  0  0  0  0  0  0  0
  184.7550  177.6520  145.9760 C   0  0  0  0  0  3  0  0  0  0  0  0
  184.4810  179.4330  144.3570 C   0  0  0  0  0  3  0  0  0  0  0  0
  1  3  2  0  0  0  0
  3  2  1  0  0  0  0
  4 11  1  0  0  0  0
  4  5  1  1  0  0  0
  4 10  1  0  0  0  0
  6  7  1  0  0  0  0
  6  8  2  0  0  0  0
  7  2  1  6  0  0  0
  8 10  1  0  0  0  0
  9 11  2  0  0  0  0
 11  7  1  0  0  0  0
 12  9  1  0  0  0  0
 12 14  1  0  0  0  0
 13  8  1  0  0  0  0
 14 17  1  6  0  0  0
 14  5  1  0  0  0  0
 16 15  2  0  0  0  0
 17 16  1  0  0  0  0
 18 16  1  0  0  0  0
 19 18  1  0  0  0  0
 19 20  1  0  0  0  0
 21  3  1  0  0  0  0
 23 31  1  6  0  0  0
 23 24  1  0  0  0  0
 24 21  1  6  0  0  0
 25 22  1  6  0  0  0
 25 23  1  0  0  0  0
 25 35  1  0  0  0  0
 25 24  1  0  0  0  0
 26 29  1  1  0  0  0
 26 28  1  0  0  0  0
 27 26  1  0  0  0  0
 27 30  1  0  0  0  0
 30 31  1  0  0  0  0
 30 28  1  0  0  0  0
 31 28  1  0  0  0  0
 32 36  1  0  0  0  0
 33 36  2  0  0  0  0
 34 35  1  0  0  0  0
 34 37  2  0  0  0  0
 35 32  2  0  0  0  0
 37 33  1  0  0  0  0
M  END
>  <MODEL>
2

>  <REMARK>
 VINA RESULT:      -6.9      2.859      9.923
  Name = 
  8 active torsions:
  status: ('A' for Active; 'I' for Inactive)
    1  A    between atoms: O_1  and  C_16
    2  A    between atoms: O_1  and  C_24
    3  A    between atoms: C_8  and  O_25
    4  A    between atoms: C_13  and  O_25
    5  A    between atoms: N_14  and  C_17
    6  A    between atoms: C_23  and  C_33
    7  A    between atoms: C_26  and  C_32
    8  A    between atoms: N_30  and  C_36
                            x       y       z     vdW  Elec       q    Type
                         _______ _______ _______ _____ _____    ______ ____

>  <TORSDO>
F 8

$$$$
=
 OpenBabel11042416473D

 37 42  0  0  1  0  0  0  0  0999 V2000
  188.0650  176.0550  140.6690 O   0  0  0  0  0  0  0  0  0  0  0  0
  189.0950  174.4720  142.0430 N   0  0  0  0  0  2  0  0  0  0  0  0
  188.1450  175.5170  141.8050 C   0  0  0  0  0  0  0  0  0  0  0  0
  192.3250  172.6820  141.2310 C   0  0  2  0  0  3  0  0  0  0  0  0
  193.8390  172.9650  141.2830 C   0  0  0  0  0  2  0  0  0  0  0  0
  189.6010  172.8440  140.3410 C   0  0  0  0  0  3  0  0  0  0  0  0
  190.0920  174.0740  141.0580 C   0  0  2  0  0  3  0  0  0  0  0  0
  190.4500  171.9920  139.7520 C   0  0  0  0  0  0  0  0  0  0  0  0
  191.9010  174.6650  142.6570 C   0  0  0  0  0  3  0  0  0  0  0  0
  191.9300  172.2290  139.8260 C   0  0  0  0  0  2  0  0  0  0  0  0
  191.4420  173.8290  141.7130 C   0  0  0  0  0  0  0  0  0  0  0  0
  193.2600  174.4570  143.2450 C   0  0  0  0  0  2  0  0  0  0  0  0
  189.8360  170.5490  138.9710 Cl  0  0  0  0  0  0  0  0  0  0  0  0
  194.2420  174.1980  142.1050 C   0  0  1  0  0  3  0  0  0  0  0  0
  195.9420  176.2860  143.0550 O   0  0  0  0  0  0  0  0  0  0  0  0
  196.3840  175.1050  143.1030 C   0  0  0  0  0  0  0  0  0  0  0  0
  195.5880  174.0170  142.6280 N   0  0  0  0  0  2  0  0  0  0  0  0
  197.6590  174.8450  143.6120 O   0  0  0  0  0  0  0  0  0  0  0  0
  197.9360  173.7250  144.4430 C   0  0  0  0  0  2  0  0  0  0  0  0
  197.1690  173.8380  145.7460 C   0  0  0  0  0  1  0  0  0  0  0  0
  187.3080  175.9540  142.8300 O   0  0  0  0  0  0  0  0  0  0  0  0
  189.3870  177.6930  143.4050 C   0  0  0  0  0  1  0  0  0  0  0  0
  187.3650  177.1280  145.0040 C   0  0  1  0  0  3  0  0  0  0  0  0
  187.6980  175.8610  144.2000 C   0  0  2  0  0  3  0  0  0  0  0  0
  188.8000  176.8600  144.5450 C   0  0  1  0  0  0  0  0  0  0  0  0
  184.4360  179.0310  143.4540 C   0  0  1  0  0  3  0  0  0  0  0  0
  185.0860  180.1130  144.2920 C   0  0  0  0  0  2  0  0  0  0  0  0
  185.1510  177.9730  144.2690 C   0  0  2  0  0  3  0  0  0  0  0  0
  183.0120  178.9820  143.7340 N   0  0  0  0  0  1  0  0  0  0  0  0
  185.8050  179.0560  145.1050 C   0  0  1  0  0  3  0  0  0  0  0  0
  186.6460  178.1970  144.1840 C   0  0  1  0  0  3  0  0  0  0  0  0
  191.0810  176.7910  145.5990 C   0  0  0  0  0  3  0  0  0  0  0  0
  191.5190  175.4160  147.5450 C   0  0  0  0  0  3  0  0  0  0  0  0
  189.2990  175.4710  146.5760 C   0  0  0  0  0  3  0  0  0  0  0  0
  189.7400  176.3810  145.6070 C   0  0  0  0  0  0  0  0  0  0  0  0
  191.9670  176.3130  146.5700 C   0  0  0  0  0  3  0  0  0  0  0  0
  190.1860  174.9930  147.5460 C   0  0  0  0  0  3  0  0  0  0  0  0
  1  3  2  0  0  0  0
  3  2  1  0  0  0  0
  3 21  1  0  0  0  0
  4 10  1  6  0  0  0
  4  5  1  0  0  0  0
  4 11  1  0  0  0  0
  5 14  1  0  0  0  0
  6  7  1  0  0  0  0
  7 11  1  0  0  0  0
  7  2  1  1  0  0  0
  8 10  1  0  0  0  0
  8  6  2  0  0  0  0
  9 12  1  0  0  0  0
 11  9  2  0  0  0  0
 13  8  1  0  0  0  0
 14 17  1  1  0  0  0
 14 12  1  0  0  0  0
 15 16  2  0  0  0  0
 16 18  1  0  0  0  0
 17 16  1  0  0  0  0
 18 19  1  0  0  0  0
 19 20  1  0  0  0  0
 23 31  1  6  0  0  0
 24 21  1  6  0  0  0
 24 25  1  0  0  0  0
 24 23  1  0  0  0  0
 25 22  1  6  0  0  0
 25 23  1  0  0  0  0
 25 35  1  0  0  0  0
 26 29  1  1  0  0  0
 26 28  1  0  0  0  0
 26 27  1  0  0  0  0
 27 30  1  0  0  0  0
 28 30  1  0  0  0  0
 31 28  1  0  0  0  0
 31 30  1  0  0  0  0
 32 35  2  0  0  0  0
 32 36  1  0  0  0  0
 33 37  1  0  0  0  0
 34 37  2  0  0  0  0
 35 34  1  0  0  0  0
 36 33  2  0  0  0  0
M  END
>  <MODEL>
3

>  <REMARK>
 VINA RESULT:      -6.9      3.439      8.250
  Name = 
  8 active torsions:
  status: ('A' for Active; 'I' for Inactive)
    1  A    between atoms: O_1  and  C_16
    2  A    between atoms: O_1  and  C_24
    3  A    between atoms: C_8  and  O_25
    4  A    between atoms: C_13  and  O_25
    5  A    between atoms: N_14  and  C_17
    6  A    between atoms: C_23  and  C_33
    7  A    between atoms: C_26  and  C_32
    8  A    between atoms: N_30  and  C_36
                            x       y       z     vdW  Elec       q    Type
                         _______ _______ _______ _____ _____    ______ ____

>  <TORSDO>
F 8

$$$$
=
 OpenBabel11042416473D

 37 42  0  0  1  0  0  0  0  0999 V2000
  194.9820  176.2610  145.7510 O   0  0  0  0  0  0  0  0  0  0  0  0
  192.9990  175.1320  146.2470 N   0  0  0  0  0  2  0  0  0  0  0  0
  194.3710  175.1620  145.8400 C   0  0  0  0  0  0  0  0  0  0  0  0
  189.6370  176.7470  146.8730 C   0  0  2  0  0  3  0  0  0  0  0  0
  188.4050  177.1860  146.0580 C   0  0  0  0  0  2  0  0  0  0  0  0
  192.3250  176.7690  147.8810 C   0  0  0  0  0  3  0  0  0  0  0  0
  192.2070  176.3390  146.4420 C   0  0  2  0  0  3  0  0  0  0  0  0
  191.3830  177.5190  148.4660 C   0  0  0  0  0  0  0  0  0  0  0  0
  190.4500  175.4260  144.9390 C   0  0  0  0  0  3  0  0  0  0  0  0
  190.1560  177.9220  147.7020 C   0  0  0  0  0  2  0  0  0  0  0  0
  190.7560  176.1130  146.0510 C   0  0  0  0  0  0  0  0  0  0  0  0
  189.0220  175.2690  144.5240 C   0  0  0  0  0  2  0  0  0  0  0  0
  191.5400  177.9530  150.1570 Cl  0  0  0  0  0  0  0  0  0  0  0  0
  188.3390  176.6290  144.6280 C   0  0  1  0  0  3  0  0  0  0  0  0
  187.0890  178.2790  142.6630 O   0  0  0  0  0  0  0  0  0  0  0  0
  186.3870  177.3800  143.2030 C   0  0  0  0  0  0  0  0  0  0  0  0
  186.9500  176.5320  144.2060 N   0  0  0  0  0  2  0  0  0  0  0  0
  185.0500  177.2080  142.8370 O   0  0  0  0  0  0  0  0  0  0  0  0
  184.1330  178.2920  142.7640 C   0  0  0  0  0  2  0  0  0  0  0  0
  184.0640  179.0100  144.0970 C   0  0  0  0  0  1  0  0  0  0  0  0
  195.0400  173.9800  145.5290 O   0  0  0  0  0  0  0  0  0  0  0  0
  197.7610  174.0610  145.0150 C   0  0  0  0  0  1  0  0  0  0  0  0
  196.0660  172.2770  144.0620 C   0  0  1  0  0  3  0  0  0  0  0  0
  195.3230  173.6170  144.1780 C   0  0  2  0  0  3  0  0  0  0  0  0
  196.8230  173.5960  143.8990 C   0  0  1  0  0  0  0  0  0  0  0  0
  195.6910  169.6590  146.8190 C   0  0  1  0  0  3  0  0  0  0  0  0
  197.1700  169.5580  146.5110 C   0  0  0  0  0  2  0  0  0  0  0  0
  195.4610  170.3360  145.4850 C   0  0  2  0  0  3  0  0  0  0  0  0
  195.0950  168.3340  146.8020 N   0  0  0  0  0  1  0  0  0  0  0  0
  196.9420  170.2400  145.1780 C   0  0  1  0  0  3  0  0  0  0  0  0
  196.3020  171.5940  145.4070 C   0  0  1  0  0  3  0  0  0  0  0  0
  197.5010  172.9710  141.5600 C   0  0  0  0  0  3  0  0  0  0  0  0
  197.9410  174.6700  139.8900 C   0  0  0  0  0  3  0  0  0  0  0  0
  197.2670  175.3160  142.1250 C   0  0  0  0  0  3  0  0  0  0  0  0
  197.1840  173.9670  142.4950 C   0  0  0  0  0  0  0  0  0  0  0  0
  197.8730  173.3220  140.2590 C   0  0  0  0  0  3  0  0  0  0  0  0
  197.6400  175.6660  140.8240 C   0  0  0  0  0  3  0  0  0  0  0  0
  1  3  2  0  0  0  0
  3  2  1  0  0  0  0
  4  5  1  6  0  0  0
  4 10  1  0  0  0  0
  6  8  2  0  0  0  0
  7  2  1  1  0  0  0
  7  6  1  0  0  0  0
  8 13  1  0  0  0  0
  9 11  2  0  0  0  0
 10  8  1  0  0  0  0
 11  7  1  0  0  0  0
 11  4  1  0  0  0  0
 12 14  1  0  0  0  0
 12  9  1  0  0  0  0
 14 17  1  1  0  0  0
 14  5  1  0  0  0  0
 15 16  2  0  0  0  0
 16 17  1  0  0  0  0
 18 16  1  0  0  0  0
 19 18  1  0  0  0  0
 19 20  1  0  0  0  0
 21  3  1  0  0  0  0
 23 24  1  0  0  0  0
 23 31  1  1  0  0  0
 24 21  1  1  0  0  0
 25 23  1  0  0  0  0
 25 24  1  0  0  0  0
 25 22  1  1  0  0  0
 26 29  1  6  0  0  0
 27 26  1  0  0  0  0
 28 26  1  0  0  0  0
 30 31  1  0  0  0  0
 30 28  1  0  0  0  0
 30 27  1  0  0  0  0
 31 28  1  0  0  0  0
 32 35  1  0  0  0  0
 33 36  1  0  0  0  0
 33 37  2  0  0  0  0
 34 35  2  0  0  0  0
 35 25  1  0  0  0  0
 36 32  2  0  0  0  0
 37 34  1  0  0  0  0
M  END
>  <MODEL>
4

>  <REMARK>
 VINA RESULT:      -6.8      3.712      5.971
  Name = 
  8 active torsions:
  status: ('A' for Active; 'I' for Inactive)
    1  A    between atoms: O_1  and  C_16
    2  A    between atoms: O_1  and  C_24
    3  A    between atoms: C_8  and  O_25
    4  A    between atoms: C_13  and  O_25
    5  A    between atoms: N_14  and  C_17
    6  A    between atoms: C_23  and  C_33
    7  A    between atoms: C_26  and  C_32
    8  A    between atoms: N_30  and  C_36
                            x       y       z     vdW  Elec       q    Type
                         _______ _______ _______ _____ _____    ______ ____

>  <TORSDO>
F 8

$$$$
=
 OpenBabel11042416473D

 37 42  0  0  1  0  0  0  0  0999 V2000
  186.8170  175.9370  143.2130 O   0  0  0  0  0  0  0  0  0  0  0  0
  187.3570  177.8080  141.9240 N   0  0  0  0  0  2  0  0  0  0  0  0
  187.5870  176.4660  142.3670 C   0  0  0  0  0  0  0  0  0  0  0  0
  183.7830  178.2980  143.0560 C   0  0  2  0  0  3  0  0  0  0  0  0
  182.4220  178.6680  142.4350 C   0  0  0  0  0  2  0  0  0  0  0  0
  186.4710  178.6330  144.0060 C   0  0  0  0  0  3  0  0  0  0  0  0
  186.3350  178.6680  142.5070 C   0  0  2  0  0  3  0  0  0  0  0  0
  185.4360  178.9130  144.8090 C   0  0  0  0  0  0  0  0  0  0  0  0
  184.7100  177.8910  140.7940 C   0  0  0  0  0  3  0  0  0  0  0  0
  184.0920  179.2350  144.2230 C   0  0  0  0  0  2  0  0  0  0  0  0
  184.9440  178.2410  142.0680 C   0  0  0  0  0  0  0  0  0  0  0  0
  183.3240  177.5420  140.3550 C   0  0  0  0  0  2  0  0  0  0  0  0
  185.6280  178.8120  146.5470 Cl  0  0  0  0  0  0  0  0  0  0  0  0
  182.3660  178.5960  140.9020 C   0  0  1  0  0  3  0  0  0  0  0  0
  180.3150  180.5440  140.5160 O   0  0  0  0  0  0  0  0  0  0  0  0
  180.0260  179.3370  140.2860 C   0  0  0  0  0  0  0  0  0  0  0  0
  181.0040  178.3130  140.4750 N   0  0  0  0  0  2  0  0  0  0  0  0
  178.7450  178.9840  139.8520 O   0  0  0  0  0  0  0  0  0  0  0  0
  178.3570  177.6340  139.6350 C   0  0  0  0  0  2  0  0  0  0  0  0
  177.7780  177.0440  140.9070 C   0  0  0  0  0  1  0  0  0  0  0  0
  188.6680  175.7380  141.8750 O   0  0  0  0  0  0  0  0  0  0  0  0
  189.3140  173.7850  143.7310 C   0  0  0  0  0  1  0  0  0  0  0  0
  190.9620  174.8220  141.9500 C   0  0  1  0  0  3  0  0  0  0  0  0
  189.9870  175.9260  142.3880 C   0  0  2  0  0  3  0  0  0  0  0  0
  190.3790  174.8200  143.3640 C   0  0  1  0  0  0  0  0  0  0  0  0
  190.6500  172.4710  138.9540 C   0  0  1  0  0  3  0  0  0  0  0  0
  190.5460  171.4970  140.1100 C   0  0  0  0  0  2  0  0  0  0  0  0
  191.2760  173.4960  139.8760 C   0  0  2  0  0  3  0  0  0  0  0  0
  191.6430  171.9990  138.0040 N   0  0  0  0  0  1  0  0  0  0  0  0
  191.1680  172.5240  141.0340 C   0  0  1  0  0  3  0  0  0  0  0  0
  190.3300  173.7860  141.0230 C   0  0  1  0  0  3  0  0  0  0  0  0
  191.1270  174.8220  145.7640 C   0  0  0  0  0  3  0  0  0  0  0  0
  192.9960  176.1820  146.4910 C   0  0  0  0  0  3  0  0  0  0  0  0
  192.3240  176.1920  144.1630 C   0  0  0  0  0  3  0  0  0  0  0  0
  191.3080  175.2700  144.4480 C   0  0  0  0  0  0  0  0  0  0  0  0
  191.9730  175.2730  146.7830 C   0  0  0  0  0  3  0  0  0  0  0  0
  193.1690  176.6430  145.1820 C   0  0  0  0  0  3  0  0  0  0  0  0
  2  3  1  0  0  0  0
  3  1  2  0  0  0  0
  4  5  1  6  0  0  0
  4 10  1  0  0  0  0
  6  8  2  0  0  0  0
  7  2  1  6  0  0  0
  7  6  1  0  0  0  0
  8 13  1  0  0  0  0
  9 11  2  0  0  0  0
 10  8  1  0  0  0  0
 11  7  1  0  0  0  0
 11  4  1  0  0  0  0
 12  9  1  0  0  0  0
 12 14  1  0  0  0  0
 14 17  1  1  0  0  0
 14  5  1  0  0  0  0
 16 17  1  0  0  0  0
 16 15  2  0  0  0  0
 18 16  1  0  0  0  0
 19 18  1  0  0  0  0
 19 20  1  0  0  0  0
 21  3  1  0  0  0  0
 23 31  1  6  0  0  0
 23 24  1  0  0  0  0
 23 25  1  0  0  0  0
 24 21  1  6  0  0  0
 24 25  1  0  0  0  0
 25 22  1  1  0  0  0
 25 35  1  0  0  0  0
 26 29  1  6  0  0  0
 26 28  1  0  0  0  0
 26 27  1  0  0  0  0
 27 30  1  0  0  0  0
 28 31  1  0  0  0  0
 28 30  1  0  0  0  0
 31 30  1  0  0  0  0
 32 36  1  0  0  0  0
 33 36  2  0  0  0  0
 34 35  1  0  0  0  0
 34 37  2  0  0  0  0
 35 32  2  0  0  0  0
 37 33  1  0  0  0  0
M  END
>  <MODEL>
5

>  <REMARK>
 VINA RESULT:      -6.7      4.843      7.729
  Name = 
  8 active torsions:
  status: ('A' for Active; 'I' for Inactive)
    1  A    between atoms: O_1  and  C_16
    2  A    between atoms: O_1  and  C_24
    3  A    between atoms: C_8  and  O_25
    4  A    between atoms: C_13  and  O_25
    5  A    between atoms: N_14  and  C_17
    6  A    between atoms: C_23  and  C_33
    7  A    between atoms: C_26  and  C_32
    8  A    between atoms: N_30  and  C_36
                            x       y       z     vdW  Elec       q    Type
                         _______ _______ _______ _____ _____    ______ ____

>  <TORSDO>
F 8

$$$$
=
 OpenBabel11042416473D

 37 42  0  0  1  0  0  0  0  0999 V2000
  188.3400  173.4620  142.2020 O   0  0  0  0  0  0  0  0  0  0  0  0
  190.6400  173.0660  142.2760 N   0  0  0  0  0  2  0  0  0  0  0  0
  189.4240  173.5740  142.8340 C   0  0  0  0  0  0  0  0  0  0  0  0
  192.7550  171.8440  139.3890 C   0  0  2  0  0  3  0  0  0  0  0  0
  193.5340  172.4440  138.2020 C   0  0  0  0  0  2  0  0  0  0  0  0
  190.5070  171.0380  140.9820 C   0  0  0  0  0  3  0  0  0  0  0  0
  190.7230  172.5280  140.9240 C   0  0  2  0  0  3  0  0  0  0  0  0
  190.9790  170.2260  140.0280 C   0  0  0  0  0  0  0  0  0  0  0  0
  192.5870  174.0920  140.4200 C   0  0  0  0  0  3  0  0  0  0  0  0
  191.7750  170.7860  138.8850 C   0  0  0  0  0  2  0  0  0  0  0  0
  192.0570  172.8680  140.2790 C   0  0  0  0  0  0  0  0  0  0  0  0
  193.8640  174.4400  139.7230 C   0  0  0  0  0  2  0  0  0  0  0  0
  190.7460  168.4940  140.1620 Cl  0  0  0  0  0  0  0  0  0  0  0  0
  193.7690  173.9590  138.2780 C   0  0  1  0  0  3  0  0  0  0  0  0
  193.8730  174.8820  135.5790 O   0  0  0  0  0  0  0  0  0  0  0  0
  194.9650  174.7740  136.2020 C   0  0  0  0  0  0  0  0  0  0  0  0
  194.9820  174.3020  137.5500 N   0  0  0  0  0  2  0  0  0  0  0  0
  196.1730  175.1040  135.5800 O   0  0  0  0  0  0  0  0  0  0  0  0
  196.8360  176.3400  135.8080 C   0  0  0  0  0  2  0  0  0  0  0  0
  196.2620  177.4170  134.9080 C   0  0  0  0  0  1  0  0  0  0  0  0
  189.4300  174.2080  144.0750 O   0  0  0  0  0  0  0  0  0  0  0  0
  189.0210  174.8180  146.7470 C   0  0  0  0  0  1  0  0  0  0  0  0
  189.9600  176.4700  144.9160 C   0  0  1  0  0  3  0  0  0  0  0  0
  188.9440  175.5400  144.2340 C   0  0  2  0  0  3  0  0  0  0  0  0
  188.7750  175.9110  145.7050 C   0  0  1  0  0  0  0  0  0  0  0  0
  193.7470  176.0520  145.2110 C   0  0  1  0  0  3  0  0  0  0  0  0
  193.3140  175.8810  146.6520 C   0  0  0  0  0  2  0  0  0  0  0  0
  192.4280  176.7270  144.8970 C   0  0  2  0  0  3  0  0  0  0  0  0
  194.8230  177.0250  145.1330 N   0  0  0  0  0  1  0  0  0  0  0  0
  191.9930  176.5520  146.3380 C   0  0  1  0  0  3  0  0  0  0  0  0
  191.2890  175.7880  145.2360 C   0  0  1  0  0  3  0  0  0  0  0  0
  186.9050  176.7810  147.1430 C   0  0  0  0  0  3  0  0  0  0  0  0
  185.5100  178.6180  146.4030 C   0  0  0  0  0  3  0  0  0  0  0  0
  187.3160  177.8270  144.9960 C   0  0  0  0  0  3  0  0  0  0  0  0
  187.6570  176.8720  145.9630 C   0  0  0  0  0  0  0  0  0  0  0  0
  185.8370  177.6570  147.3640 C   0  0  0  0  0  3  0  0  0  0  0  0
  186.2480  178.7010  145.2180 C   0  0  0  0  0  3  0  0  0  0  0  0
  1  3  2  0  0  0  0
  2  3  1  0  0  0  0
  3 21  1  0  0  0  0
  4  5  1  6  0  0  0
  4 11  1  0  0  0  0
  5 14  1  0  0  0  0
  7  6  1  0  0  0  0
  7  2  1  1  0  0  0
  8 13  1  0  0  0  0
  8  6  2  0  0  0  0
 10  4  1  0  0  0  0
 10  8  1  0  0  0  0
 11  9  2  0  0  0  0
 11  7  1  0  0  0  0
 12  9  1  0  0  0  0
 14 17  1  6  0  0  0
 14 12  1  0  0  0  0
 15 16  2  0  0  0  0
 16 17  1  0  0  0  0
 18 19  1  0  0  0  0
 18 16  1  0  0  0  0
 20 19  1  0  0  0  0
 23 31  1  1  0  0  0
 23 25  1  0  0  0  0
 24 21  1  1  0  0  0
 24 23  1  0  0  0  0
 24 25  1  0  0  0  0
 25 35  1  0  0  0  0
 25 22  1  1  0  0  0
 26 29  1  1  0  0  0
 26 27  1  0  0  0  0
 28 26  1  0  0  0  0
 28 31  1  0  0  0  0
 28 30  1  0  0  0  0
 30 27  1  0  0  0  0
 31 30  1  0  0  0  0
 32 36  1  0  0  0  0
 33 36  2  0  0  0  0
 34 37  2  0  0  0  0
 34 35  1  0  0  0  0
 35 32  2  0  0  0  0
 37 33  1  0  0  0  0
M  END
>  <MODEL>
6

>  <REMARK>
 VINA RESULT:      -6.7      4.198      8.922
  Name = 
  8 active torsions:
  status: ('A' for Active; 'I' for Inactive)
    1  A    between atoms: O_1  and  C_16
    2  A    between atoms: O_1  and  C_24
    3  A    between atoms: C_8  and  O_25
    4  A    between atoms: C_13  and  O_25
    5  A    between atoms: N_14  and  C_17
    6  A    between atoms: C_23  and  C_33
    7  A    between atoms: C_26  and  C_32
    8  A    between atoms: N_30  and  C_36
                            x       y       z     vdW  Elec       q    Type
                         _______ _______ _______ _____ _____    ______ ____

>  <TORSDO>
F 8

$$$$
=
 OpenBabel11042416473D

 37 42  0  0  1  0  0  0  0  0999 V2000
  188.0490  173.8350  141.4240 O   0  0  0  0  0  0  0  0  0  0  0  0
  190.1580  173.4490  142.3510 N   0  0  0  0  0  2  0  0  0  0  0  0
  188.8690  174.0730  142.3500 C   0  0  0  0  0  0  0  0  0  0  0  0
  193.0320  171.7460  140.5800 C   0  0  2  0  0  3  0  0  0  0  0  0
  194.1440  172.1140  139.5780 C   0  0  0  0  0  2  0  0  0  0  0  0
  190.3950  171.1840  141.5650 C   0  0  0  0  0  3  0  0  0  0  0  0
  190.6400  172.6350  141.2430 C   0  0  2  0  0  3  0  0  0  0  0  0
  191.1230  170.2100  141.0040 C   0  0  0  0  0  0  0  0  0  0  0  0
  192.5910  174.1520  140.9820 C   0  0  0  0  0  3  0  0  0  0  0  0
  192.2370  170.5510  140.0560 C   0  0  0  0  0  2  0  0  0  0  0  0
  192.1110  172.8990  140.9670 C   0  0  0  0  0  0  0  0  0  0  0  0
  194.0240  174.4100  140.6400 C   0  0  0  0  0  2  0  0  0  0  0  0
  190.8350  168.5400  141.4460 Cl  0  0  0  0  0  0  0  0  0  0  0  0
  194.3660  173.6210  139.3790 C   0  0  1  0  0  3  0  0  0  0  0  0
  195.2100  175.3110  137.2380 O   0  0  0  0  0  0  0  0  0  0  0  0
  196.1050  174.7340  137.9160 C   0  0  0  0  0  0  0  0  0  0  0  0
  195.7480  173.8620  138.9900 N   0  0  0  0  0  2  0  0  0  0  0  0
  197.4570  174.9310  137.6190 O   0  0  0  0  0  0  0  0  0  0  0  0
  197.9380  175.0370  136.2850 C   0  0  0  0  0  2  0  0  0  0  0  0
  197.8370  173.6960  135.5840 C   0  0  0  0  0  1  0  0  0  0  0  0
  188.5140  174.9560  143.3690 O   0  0  0  0  0  0  0  0  0  0  0  0
  189.8720  177.3710  143.3550 C   0  0  0  0  0  1  0  0  0  0  0  0
  188.8110  176.2130  145.4760 C   0  0  1  0  0  3  0  0  0  0  0  0
  189.3180  175.1050  144.5380 C   0  0  2  0  0  3  0  0  0  0  0  0
  190.0220  176.4590  144.5740 C   0  0  1  0  0  0  0  0  0  0  0  0
  185.2130  177.4950  145.5920 C   0  0  1  0  0  3  0  0  0  0  0  0
  185.9800  178.7780  145.3470 C   0  0  0  0  0  2  0  0  0  0  0  0
  186.4840  176.8300  146.0780 C   0  0  2  0  0  3  0  0  0  0  0  0
  184.3000  177.6750  146.7070 N   0  0  0  0  0  1  0  0  0  0  0  0
  187.2530  178.1130  145.8280 C   0  0  1  0  0  3  0  0  0  0  0  0
  187.5310  176.8850  144.9840 C   0  0  1  0  0  3  0  0  0  0  0  0
  191.4300  176.4130  146.6560 C   0  0  0  0  0  3  0  0  0  0  0  0
  193.8480  176.4670  146.5320 C   0  0  0  0  0  3  0  0  0  0  0  0
  192.5320  176.4880  144.4990 C   0  0  0  0  0  3  0  0  0  0  0  0
  191.3540  176.4320  145.2560 C   0  0  0  0  0  0  0  0  0  0  0  0
  192.6750  176.4250  147.2920 C   0  0  0  0  0  3  0  0  0  0  0  0
  193.7760  176.5010  145.1360 C   0  0  0  0  0  3  0  0  0  0  0  0
  1  3  2  0  0  0  0
  3  2  1  0  0  0  0
  3 21  1  0  0  0  0
  4  5  1  6  0  0  0
  4 11  1  0  0  0  0
  7  6  1  0  0  0  0
  7  2  1  1  0  0  0
  8 13  1  0  0  0  0
  8  6  2  0  0  0  0
 10  4  1  0  0  0  0
 10  8  1  0  0  0  0
 11  9  2  0  0  0  0
 11  7  1  0  0  0  0
 12  9  1  0  0  0  0
 14 17  1  1  0  0  0
 14  5  1  0  0  0  0
 14 12  1  0  0  0  0
 15 16  2  0  0  0  0
 16 17  1  0  0  0  0
 18 16  1  0  0  0  0
 19 18  1  0  0  0  0
 20 19  1  0  0  0  0
 23 31  1  6  0  0  0
 24 21  1  6  0  0  0
 24 25  1  0  0  0  0
 24 23  1  0  0  0  0
 25 22  1  6  0  0  0
 25 35  1  0  0  0  0
 25 23  1  0  0  0  0
 26 28  1  0  0  0  0
 26 29  1  1  0  0  0
 27 26  1  0  0  0  0
 27 30  1  0  0  0  0
 30 28  1  0  0  0  0
 31 30  1  0  0  0  0
 31 28  1  0  0  0  0
 32 36  1  0  0  0  0
 33 36  2  0  0  0  0
 34 37  2  0  0  0  0
 34 35  1  0  0  0  0
 35 32  2  0  0  0  0
 37 33  1  0  0  0  0
M  END
>  <MODEL>
7

>  <REMARK>
 VINA RESULT:      -6.6      4.321      8.640
  Name = 
  8 active torsions:
  status: ('A' for Active; 'I' for Inactive)
    1  A    between atoms: O_1  and  C_16
    2  A    between atoms: O_1  and  C_24
    3  A    between atoms: C_8  and  O_25
    4  A    between atoms: C_13  and  O_25
    5  A    between atoms: N_14  and  C_17
    6  A    between atoms: C_23  and  C_33
    7  A    between atoms: C_26  and  C_32
    8  A    between atoms: N_30  and  C_36
                            x       y       z     vdW  Elec       q    Type
                         _______ _______ _______ _____ _____    ______ ____

>  <TORSDO>
F 8

$$$$
=
 OpenBabel11042416473D

 37 42  0  0  1  0  0  0  0  0999 V2000
  192.5360  173.0990  141.6580 O   0  0  0  0  0  0  0  0  0  0  0  0
  191.3090  172.0480  143.3450 N   0  0  0  0  0  2  0  0  0  0  0  0
  192.5420  172.4260  142.7230 C   0  0  0  0  0  0  0  0  0  0  0  0
  188.8950  174.4390  141.6850 C   0  0  2  0  0  3  0  0  0  0  0  0
  187.8590  175.5010  142.1040 C   0  0  0  0  0  2  0  0  0  0  0  0
  190.0610  171.8450  141.2940 C   0  0  0  0  0  3  0  0  0  0  0  0
  190.0090  172.2910  142.7320 C   0  0  2  0  0  3  0  0  0  0  0  0
  189.2310  172.3530  140.3750 C   0  0  0  0  0  0  0  0  0  0  0  0
  189.8230  174.4300  143.9830 C   0  0  0  0  0  3  0  0  0  0  0  0
  188.2430  173.4170  140.7550 C   0  0  0  0  0  2  0  0  0  0  0  0
  189.6160  173.7550  142.8430 C   0  0  0  0  0  0  0  0  0  0  0  0
  189.3680  175.8490  144.1080 C   0  0  0  0  0  2  0  0  0  0  0  0
  189.3600  171.8400  138.7040 Cl  0  0  0  0  0  0  0  0  0  0  0  0
  187.9420  175.9450  143.5720 C   0  0  1  0  0  3  0  0  0  0  0  0
  186.2420  176.8980  145.6580 O   0  0  0  0  0  0  0  0  0  0  0  0
  186.6070  177.7250  144.7770 C   0  0  0  0  0  0  0  0  0  0  0  0
  187.4440  177.3070  143.6980 N   0  0  0  0  0  2  0  0  0  0  0  0
  186.1890  179.0580  144.8390 O   0  0  0  0  0  0  0  0  0  0  0  0
  184.8190  179.4320  144.7680 C   0  0  0  0  0  2  0  0  0  0  0  0
  184.1390  178.7140  143.6180 C   0  0  0  0  0  1  0  0  0  0  0  0
  193.7590  172.0430  143.2830 O   0  0  0  0  0  0  0  0  0  0  0  0
  196.3900  171.8100  144.1180 C   0  0  0  0  0  1  0  0  0  0  0  0
  194.3580  172.5610  145.6240 C   0  0  1  0  0  3  0  0  0  0  0  0
  193.8380  171.5280  144.6120 C   0  0  2  0  0  3  0  0  0  0  0  0
  195.2800  171.4550  145.1080 C   0  0  1  0  0  0  0  0  0  0  0  0
  193.7060  176.1870  144.6100 C   0  0  1  0  0  3  0  0  0  0  0  0
  194.9290  176.3380  145.4900 C   0  0  0  0  0  2  0  0  0  0  0  0
  193.4350  174.8290  145.2230 C   0  0  2  0  0  3  0  0  0  0  0  0
  192.6800  177.1250  145.0310 N   0  0  0  0  0  1  0  0  0  0  0  0
  194.6620  174.9780  146.1010 C   0  0  1  0  0  3  0  0  0  0  0  0
  194.6340  173.9300  145.0070 C   0  0  1  0  0  3  0  0  0  0  0  0
  196.8490  170.0050  146.4320 C   0  0  0  0  0  3  0  0  0  0  0  0
  196.0200  168.1660  147.7740 C   0  0  0  0  0  3  0  0  0  0  0  0
  194.4700  169.5530  146.5330 C   0  0  0  0  0  3  0  0  0  0  0  0
  195.5370  170.3290  146.0590 C   0  0  0  0  0  0  0  0  0  0  0  0
  197.0890  168.9280  147.2920 C   0  0  0  0  0  3  0  0  0  0  0  0
  194.7120  168.4770  147.3920 C   0  0  0  0  0  3  0  0  0  0  0  0
  1  3  2  0  0  0  0
  3 21  1  0  0  0  0
  3  2  1  0  0  0  0
  4 10  1  1  0  0  0
  4  5  1  0  0  0  0
  4 11  1  0  0  0  0
  5 14  1  0  0  0  0
  6  7  1  0  0  0  0
  7 11  1  0  0  0  0
  7  2  1  6  0  0  0
  8 10  1  0  0  0  0
  8  6  2  0  0  0  0
  9 12  1  0  0  0  0
 11  9  2  0  0  0  0
 13  8  1  0  0  0  0
 14 17  1  6  0  0  0
 14 12  1  0  0  0  0
 16 18  1  0  0  0  0
 16 15  2  0  0  0  0
 17 16  1  0  0  0  0
 19 18  1  0  0  0  0
 20 19  1  0  0  0  0
 23 31  1  6  0  0  0
 24 21  1  6  0  0  0
 24 25  1  0  0  0  0
 24 23  1  0  0  0  0
 25 22  1  6  0  0  0
 25 23  1  0  0  0  0
 25 35  1  0  0  0  0
 26 29  1  1  0  0  0
 26 28  1  0  0  0  0
 26 27  1  0  0  0  0
 27 30  1  0  0  0  0
 28 30  1  0  0  0  0
 31 28  1  0  0  0  0
 31 30  1  0  0  0  0
 32 36  1  0  0  0  0
 34 37  2  0  0  0  0
 35 32  2  0  0  0  0
 35 34  1  0  0  0  0
 36 33  2  0  0  0  0
 37 33  1  0  0  0  0
M  END
>  <MODEL>
8

>  <REMARK>
 VINA RESULT:      -6.5      1.263      1.532
  Name = 
  8 active torsions:
  status: ('A' for Active; 'I' for Inactive)
    1  A    between atoms: O_1  and  C_16
    2  A    between atoms: O_1  and  C_24
    3  A    between atoms: C_8  and  O_25
    4  A    between atoms: C_13  and  O_25
    5  A    between atoms: N_14  and  C_17
    6  A    between atoms: C_23  and  C_33
    7  A    between atoms: C_26  and  C_32
    8  A    between atoms: N_30  and  C_36
                            x       y       z     vdW  Elec       q    Type
                         _______ _______ _______ _____ _____    ______ ____

>  <TORSDO>
F 8

$$$$
=
 OpenBabel11042416473D

 37 42  0  0  1  0  0  0  0  0999 V2000
  190.8370  177.4830  143.8620 O   0  0  0  0  0  0  0  0  0  0  0  0
  189.1910  176.3960  145.1140 N   0  0  0  0  0  2  0  0  0  0  0  0
  190.3860  176.4020  144.3250 C   0  0  0  0  0  0  0  0  0  0  0  0
  185.7620  177.9730  145.3390 C   0  0  2  0  0  3  0  0  0  0  0  0
  184.6830  178.5170  144.3810 C   0  0  0  0  0  2  0  0  0  0  0  0
  188.2380  177.8450  146.7860 C   0  0  0  0  0  3  0  0  0  0  0  0
  188.3690  177.5840  145.3080 C   0  0  2  0  0  3  0  0  0  0  0  0
  187.2040  178.5360  147.2840 C   0  0  0  0  0  0  0  0  0  0  0  0
  186.9020  176.8700  143.4340 C   0  0  0  0  0  3  0  0  0  0  0  0
  186.1230  179.0390  146.3730 C   0  0  0  0  0  2  0  0  0  0  0  0
  187.0080  177.4220  144.6520 C   0  0  0  0  0  0  0  0  0  0  0  0
  185.5670  176.7790  142.7660 C   0  0  0  0  0  2  0  0  0  0  0  0
  187.0670  178.7730  149.0140 Cl  0  0  0  0  0  0  0  0  0  0  0  0
  184.8670  178.1280  142.9070 C   0  0  1  0  0  3  0  0  0  0  0  0
  184.4100  178.6480  140.1370 O   0  0  0  0  0  0  0  0  0  0  0  0
  183.4110  178.3530  140.8490 C   0  0  0  0  0  0  0  0  0  0  0  0
  183.5700  178.0970  142.2460 N   0  0  0  0  0  2  0  0  0  0  0  0
  182.1340  178.2810  140.2850 O   0  0  0  0  0  0  0  0  0  0  0  0
  180.9500  178.2910  141.0720 C   0  0  0  0  0  2  0  0  0  0  0  0
  179.9370  179.2520  140.4800 C   0  0  0  0  0  1  0  0  0  0  0  0
  191.0560  175.2100  144.0540 O   0  0  0  0  0  0  0  0  0  0  0  0
  192.2420  172.7860  144.6800 C   0  0  0  0  0  1  0  0  0  0  0  0
  192.7380  174.2320  142.5300 C   0  0  1  0  0  3  0  0  0  0  0  0
  192.4350  175.1970  143.6870 C   0  0  2  0  0  3  0  0  0  0  0  0
  193.0850  173.8450  143.9690 C   0  0  1  0  0  0  0  0  0  0  0  0
  190.1520  173.0950  139.9570 C   0  0  1  0  0  3  0  0  0  0  0  0
  190.6880  171.7660  140.4490 C   0  0  0  0  0  2  0  0  0  0  0  0
  191.3840  173.7900  140.4980 C   0  0  2  0  0  3  0  0  0  0  0  0
  190.1740  173.1240  138.5050 N   0  0  0  0  0  1  0  0  0  0  0  0
  191.9180  172.4620  140.9960 C   0  0  1  0  0  3  0  0  0  0  0  0
  191.4970  173.5280  141.9860 C   0  0  1  0  0  3  0  0  0  0  0  0
  195.0450  173.1690  145.3910 C   0  0  0  0  0  3  0  0  0  0  0  0
  197.2290  174.1650  145.0640 C   0  0  0  0  0  3  0  0  0  0  0  0
  195.3740  174.8280  143.6540 C   0  0  0  0  0  3  0  0  0  0  0  0
  194.5340  173.9330  144.3310 C   0  0  0  0  0  0  0  0  0  0  0  0
  196.3910  173.2810  145.7520 C   0  0  0  0  0  3  0  0  0  0  0  0
  196.7200  174.9390  144.0170 C   0  0  0  0  0  3  0  0  0  0  0  0
  1  3  2  0  0  0  0
  3  2  1  0  0  0  0
  4  5  1  6  0  0  0
  4 10  1  0  0  0  0
  6  8  2  0  0  0  0
  7  2  1  1  0  0  0
  7  6  1  0  0  0  0
  8 13  1  0  0  0  0
  9 11  2  0  0  0  0
 10  8  1  0  0  0  0
 11  7  1  0  0  0  0
 11  4  1  0  0  0  0
 12 14  1  0  0  0  0
 12  9  1  0  0  0  0
 14 17  1  1  0  0  0
 14  5  1  0  0  0  0
 15 16  2  0  0  0  0
 16 17  1  0  0  0  0
 18 16  1  0  0  0  0
 18 19  1  0  0  0  0
 20 19  1  0  0  0  0
 21  3  1  0  0  0  0
 23 31  1  1  0  0  0
 23 24  1  0  0  0  0
 23 25  1  0  0  0  0
 24 25  1  0  0  0  0
 24 21  1  1  0  0  0
 25 35  1  0  0  0  0
 25 22  1  1  0  0  0
 26 29  1  6  0  0  0
 26 27  1  0  0  0  0
 26 28  1  0  0  0  0
 27 30  1  0  0  0  0
 28 30  1  0  0  0  0
 28 31  1  0  0  0  0
 30 31  1  0  0  0  0
 32 36  1  0  0  0  0
 33 36  2  0  0  0  0
 34 37  2  0  0  0  0
 34 35  1  0  0  0  0
 35 32  2  0  0  0  0
 37 33  1  0  0  0  0
M  END
>  <MODEL>
9

>  <REMARK>
 VINA RESULT:      -6.4      3.912      6.230
  Name = 
  8 active torsions:
  status: ('A' for Active; 'I' for Inactive)
    1  A    between atoms: O_1  and  C_16
    2  A    between atoms: O_1  and  C_24
    3  A    between atoms: C_8  and  O_25
    4  A    between atoms: C_13  and  O_25
    5  A    between atoms: N_14  and  C_17
    6  A    between atoms: C_23  and  C_33
    7  A    between atoms: C_26  and  C_32
    8  A    between atoms: N_30  and  C_36
                            x       y       z     vdW  Elec       q    Type
                         _______ _______ _______ _____ _____    ______ ____

>  <TORSDO>
F 8

$$$$
