=
 OpenBabel11042418323D

 37 41  0  0  1  0  0  0  0  0999 V2000
  188.3640  173.6210  141.8420 C   0  0  1  0  0  3  0  0  0  0  0  0
  189.2590  173.1790  143.0100 C   0  0  0  0  0  2  0  0  0  0  0  0
  189.3620  175.1270  144.5670 C   0  0  0  0  0  0  0  0  0  0  0  0
  190.1210  174.3140  143.5580 C   0  0  0  0  0  2  0  0  0  0  0  0
  189.7650  175.1180  145.9320 C   0  0  0  0  0  0  0  0  0  0  0  0
  187.2560  174.5820  142.2930 C   0  0  0  0  0  2  0  0  0  0  0  0
  187.5690  176.6310  145.1490 C   0  0  0  0  0  0  0  0  0  0  0  0
  187.9710  176.6230  146.4690 C   0  0  1  0  0  3  0  0  0  0  0  0
  186.4810  177.4750  145.1010 C   0  0  0  0  0  0  0  0  0  0  0  0
  185.7580  177.8880  144.0590 C   0  0  0  0  0  2  0  0  0  0  0  0
  184.1730  178.9840  145.7260 C   0  0  0  0  0  2  0  0  0  0  0  0
  184.7280  178.9730  144.2820 C   0  0  2  0  0  3  0  0  0  0  0  0
  187.1930  177.4010  147.2550 N   0  0  0  0  0  0  0  0  0  0  0  0
  186.2710  177.9010  146.4010 C   0  0  0  0  0  0  0  0  0  0  0  0
  189.0640  175.8760  146.8880 C   0  0  0  0  0  3  0  0  0  0  0  0
  188.2470  175.9030  144.1620 C   0  0  0  0  0  0  0  0  0  0  0  0
  185.2370  178.6660  146.7550 C   0  0  0  0  0  2  0  0  0  0  0  0
  187.7960  175.9420  142.7310 C   0  0  0  0  0  2  0  0  0  0  0  0
  189.1590  174.1360  140.6260 C   0  0  1  0  0  3  0  0  0  0  0  0
  190.4470  173.3490  140.4290 C   0  0  0  0  0  1  0  0  0  0  0  0
  188.1920  172.8710  138.7040 O   0  0  0  0  0  0  0  0  0  0  0  0
  187.8160  175.1240  138.8990 O   0  0  0  0  0  1  0  0  0  0  0  0
  188.3490  174.0810  139.3670 C   0  0  0  0  0  0  0  0  0  0  0  0
  183.6830  178.8400  143.3650 O   0  0  0  0  0  0  0  0  0  0  0  0
  184.1590  177.9410  142.4060 C   0  0  0  0  0  2  0  0  0  0  0  0
  182.2420  178.1850  140.8340 O   0  0  0  0  0  1  0  0  0  0  0  0
  183.6070  178.2880  141.0680 C   0  0  0  0  0  0  0  0  0  0  0  0
  184.3740  178.6670  140.1440 O   0  0  0  0  0  0  0  0  0  0  0  0
  190.9170  174.2790  146.3910 C   0  0  0  0  0  2  0  0  0  0  0  0
  192.4650  176.6420  146.3810 S   0  0  0  0  0  0  0  0  0  0  0  0
  194.0500  176.5530  145.8270 C   0  0  0  0  0  0  0  0  0  0  0  0
  193.3820  174.4250  145.6490 C   0  0  0  0  0  0  0  0  0  0  0  0
  194.4080  175.3020  145.4710 N   0  0  0  0  0  0  0  0  0  0  0  0
  194.9400  177.6620  145.7650 N   0  0  0  0  0  1  0  0  0  0  0  0
  192.2130  174.9900  146.1560 C   0  0  0  0  0  0  0  0  0  0  0  0
  193.5100  172.9990  145.3250 C   0  0  0  0  0  3  0  0  0  0  0  0
  193.3760  172.5790  144.1100 N   0  0  0  0  0  2  0  0  0  0  0  0
  1 19  1  6  0  0  0
  1  6  1  0  0  0  0
  1  2  1  0  0  0  0
  2  4  1  0  0  0  0
  3  5  1  0  0  0  0
  4  3  1  0  0  0  0
  5 29  1  0  0  0  0
  5 15  2  0  0  0  0
  6 18  1  0  0  0  0
  7  8  1  0  0  0  0
  8 15  1  1  0  0  0
  8 13  1  0  0  0  0
  9  7  2  0  0  0  0
  9 14  1  0  0  0  0
 10 12  1  0  0  0  0
 10  9  1  0  0  0  0
 11 17  1  0  0  0  0
 12 24  1  6  0  0  0
 12 11  1  0  0  0  0
 14 17  1  0  0  0  0
 14 13  2  0  0  0  0
 16  3  2  0  0  0  0
 16  7  1  0  0  0  0
 18 16  1  0  0  0  0
 19 20  1  6  0  0  0
 21 23  2  0  0  0  0
 22 23  1  0  0  0  0
 23 19  1  0  0  0  0
 25 24  1  0  0  0  0
 26 27  1  0  0  0  0
 27 25  1  0  0  0  0
 28 27  2  0  0  0  0
 31 30  1  0  0  0  0
 32 35  2  0  0  0  0
 33 32  1  0  0  0  0
 33 31  2  0  0  0  0
 34 31  1  0  0  0  0
 35 30  1  0  0  0  0
 35 29  1  0  0  0  0
 36 32  1  0  0  0  0
 37 36  2  0  0  0  0
M  END
>  <MODEL>
1

>  <REMARK>
 VINA RESULT:      -8.1      0.000      0.000
  Name = 
  8 active torsions:
  status: ('A' for Active; 'I' for Inactive)
    1  A    between atoms: C_3  and  C_22
    2  A    between atoms: C_7  and  C_14
    3  A    between atoms: C_10  and  C_30
    4  A    between atoms: C_11  and  C_16
    5  A    between atoms: C_14  and  O_23
    6  A    between atoms: C_20  and  O_23
    7  A    between atoms: C_22  and  C_32
    8  A    between atoms: C_30  and  C_34
                            x       y       z     vdW  Elec       q    Type
                         _______ _______ _______ _____ _____    ______ ____

>  <TORSDO>
F 8

$$$$
=
 OpenBabel11042418323D

 37 41  0  0  1  0  0  0  0  0999 V2000
  188.5440  172.8680  141.8430 C   0  0  1  0  0  3  0  0  0  0  0  0
  189.3100  172.7510  143.1690 C   0  0  0  0  0  2  0  0  0  0  0  0
  189.2190  175.0170  144.2130 C   0  0  0  0  0  0  0  0  0  0  0  0
  190.0930  174.0160  143.5140 C   0  0  0  0  0  2  0  0  0  0  0  0
  189.4700  175.3490  145.5750 C   0  0  0  0  0  0  0  0  0  0  0  0
  187.3820  173.8670  141.9320 C   0  0  0  0  0  2  0  0  0  0  0  0
  187.3550  176.5470  144.2270 C   0  0  0  0  0  0  0  0  0  0  0  0
  187.6100  176.8700  145.5440 C   0  0  1  0  0  3  0  0  0  0  0  0
  186.2690  177.3140  143.8640 C   0  0  0  0  0  0  0  0  0  0  0  0
  185.6600  177.4390  142.6840 C   0  0  0  0  0  2  0  0  0  0  0  0
  183.8900  178.8400  143.8650 C   0  0  0  0  0  2  0  0  0  0  0  0
  184.5990  178.5060  142.5310 C   0  0  2  0  0  3  0  0  0  0  0  0
  186.7410  177.7820  146.0340 N   0  0  0  0  0  0  0  0  0  0  0  0
  185.9140  178.0300  144.9940 C   0  0  0  0  0  0  0  0  0  0  0  0
  188.6590  176.2850  146.2420 C   0  0  0  0  0  3  0  0  0  0  0  0
  188.1460  175.6310  143.5200 C   0  0  0  0  0  0  0  0  0  0  0  0
  184.8380  178.8170  145.0450 C   0  0  0  0  0  2  0  0  0  0  0  0
  187.8550  175.3110  142.0830 C   0  0  0  0  0  2  0  0  0  0  0  0
  189.4610  173.1090  140.6290 C   0  0  1  0  0  3  0  0  0  0  0  0
  190.5280  172.0280  140.5140 C   0  0  0  0  0  1  0  0  0  0  0  0
  188.5990  174.3750  138.6570 O   0  0  0  0  0  0  0  0  0  0  0  0
  188.1030  172.1500  138.8980 O   0  0  0  0  0  1  0  0  0  0  0  0
  188.6850  173.1730  139.3480 C   0  0  0  0  0  0  0  0  0  0  0  0
  183.6630  178.1190  141.5700 O   0  0  0  0  0  0  0  0  0  0  0  0
  182.4240  178.4660  142.1170 C   0  0  0  0  0  2  0  0  0  0  0  0
  180.0100  178.2410  141.5450 O   0  0  0  0  0  1  0  0  0  0  0  0
  181.3370  178.1540  141.1480 C   0  0  0  0  0  0  0  0  0  0  0  0
  181.6180  177.8050  139.9720 O   0  0  0  0  0  0  0  0  0  0  0  0
  190.5750  174.6870  146.3390 C   0  0  0  0  0  2  0  0  0  0  0  0
  193.0030  175.4330  145.1040 S   0  0  0  0  0  0  0  0  0  0  0  0
  193.9710  176.5720  145.8730 C   0  0  0  0  0  0  0  0  0  0  0  0
  192.2230  176.4410  147.2640 C   0  0  0  0  0  0  0  0  0  0  0  0
  193.4270  177.0290  147.0200 N   0  0  0  0  0  0  0  0  0  0  0  0
  195.2170  177.0370  145.3670 N   0  0  0  0  0  1  0  0  0  0  0  0
  191.8160  175.5220  146.2980 C   0  0  0  0  0  0  0  0  0  0  0  0
  191.4290  176.7580  148.4570 C   0  0  0  0  0  3  0  0  0  0  0  0
  191.6870  177.8050  149.1690 N   0  0  0  0  0  2  0  0  0  0  0  0
  1 19  1  6  0  0  0
  1  6  1  0  0  0  0
  1  2  1  0  0  0  0
  2  4  1  0  0  0  0
  3  5  1  0  0  0  0
  4  3  1  0  0  0  0
  5 15  2  0  0  0  0
  5 29  1  0  0  0  0
  6 18  1  0  0  0  0
  7  8  1  0  0  0  0
  8 13  1  0  0  0  0
  8 15  1  1  0  0  0
  9  7  2  0  0  0  0
  9 14  1  0  0  0  0
 10  9  1  0  0  0  0
 11 17  1  0  0  0  0
 12 24  1  6  0  0  0
 12 10  1  0  0  0  0
 12 11  1  0  0  0  0
 14 17  1  0  0  0  0
 14 13  2  0  0  0  0
 16  3  2  0  0  0  0
 16  7  1  0  0  0  0
 18 16  1  0  0  0  0
 19 20  1  6  0  0  0
 21 23  2  0  0  0  0
 22 23  1  0  0  0  0
 23 19  1  0  0  0  0
 24 25  1  0  0  0  0
 27 26  1  0  0  0  0
 27 25  1  0  0  0  0
 28 27  2  0  0  0  0
 30 31  1  0  0  0  0
 30 35  1  0  0  0  0
 31 33  2  0  0  0  0
 32 36  1  0  0  0  0
 33 32  1  0  0  0  0
 34 31  1  0  0  0  0
 35 29  1  0  0  0  0
 35 32  2  0  0  0  0
 36 37  2  0  0  0  0
M  END
>  <MODEL>
2

>  <REMARK>
 VINA RESULT:      -7.8      1.455      2.132
  Name = 
  8 active torsions:
  status: ('A' for Active; 'I' for Inactive)
    1  A    between atoms: C_3  and  C_22
    2  A    between atoms: C_7  and  C_14
    3  A    between atoms: C_10  and  C_30
    4  A    between atoms: C_11  and  C_16
    5  A    between atoms: C_14  and  O_23
    6  A    between atoms: C_20  and  O_23
    7  A    between atoms: C_22  and  C_32
    8  A    between atoms: C_30  and  C_34
                            x       y       z     vdW  Elec       q    Type
                         _______ _______ _______ _____ _____    ______ ____

>  <TORSDO>
F 8

$$$$
=
 OpenBabel11042418323D

 37 41  0  0  1  0  0  0  0  0999 V2000
  189.3300  173.0780  140.9720 C   0  0  1  0  0  3  0  0  0  0  0  0
  190.5800  172.7360  141.7960 C   0  0  0  0  0  2  0  0  0  0  0  0
  190.8750  174.6210  143.4060 C   0  0  0  0  0  0  0  0  0  0  0  0
  191.4040  173.9690  142.1610 C   0  0  0  0  0  2  0  0  0  0  0  0
  191.6610  174.6250  144.5930 C   0  0  0  0  0  0  0  0  0  0  0  0
  188.2850  173.8440  141.7970 C   0  0  0  0  0  2  0  0  0  0  0  0
  189.1480  175.8130  144.5950 C   0  0  0  0  0  0  0  0  0  0  0  0
  189.9190  175.8190  145.7390 C   0  0  1  0  0  3  0  0  0  0  0  0
  187.9900  176.4830  144.9270 C   0  0  0  0  0  0  0  0  0  0  0  0
  186.9440  176.8180  144.1720 C   0  0  0  0  0  2  0  0  0  0  0  0
  185.7890  177.6010  146.3040 C   0  0  0  0  0  2  0  0  0  0  0  0
  185.8890  177.7260  144.7660 C   0  0  2  0  0  3  0  0  0  0  0  0
  189.3100  176.4410  146.7740 N   0  0  0  0  0  0  0  0  0  0  0  0
  188.1190  176.8260  146.2620 C   0  0  0  0  0  0  0  0  0  0  0  0
  191.1770  175.2320  145.7670 C   0  0  0  0  0  3  0  0  0  0  0  0
  189.5960  175.2320  143.4010 C   0  0  0  0  0  0  0  0  0  0  0  0
  187.1420  177.4110  146.9570 C   0  0  0  0  0  2  0  0  0  0  0  0
  188.7420  175.2530  142.1670 C   0  0  0  0  0  2  0  0  0  0  0  0
  189.6530  173.7520  139.6240 C   0  0  1  0  0  3  0  0  0  0  0  0
  190.8050  173.0530  138.9150 C   0  0  0  0  0  1  0  0  0  0  0  0
  187.7470  174.9640  138.5620 O   0  0  0  0  0  1  0  0  0  0  0  0
  188.0960  172.7460  138.1000 O   0  0  0  0  0  0  0  0  0  0  0  0
  188.4610  173.7830  138.7170 C   0  0  0  0  0  0  0  0  0  0  0  0
  184.6470  177.4680  144.1790 O   0  0  0  0  0  0  0  0  0  0  0  0
  184.3720  178.6010  143.4090 C   0  0  0  0  0  2  0  0  0  0  0  0
  185.3240  178.0060  141.1850 O   0  0  0  0  0  0  0  0  0  0  0  0
  184.2050  178.2150  141.9810 C   0  0  0  0  0  0  0  0  0  0  0  0
  183.0540  178.0860  141.4890 O   0  0  0  0  0  1  0  0  0  0  0  0
  192.9990  173.9550  144.6350 C   0  0  0  0  0  2  0  0  0  0  0  0
  194.6330  174.9750  142.5700 S   0  0  0  0  0  0  0  0  0  0  0  0
  195.7900  176.1290  142.9650 C   0  0  0  0  0  0  0  0  0  0  0  0
  194.8110  175.7630  144.9440 C   0  0  0  0  0  0  0  0  0  0  0  0
  195.7690  176.4600  144.2740 N   0  0  0  0  0  0  0  0  0  0  0  0
  196.6800  176.7250  142.0290 N   0  0  0  0  0  1  0  0  0  0  0  0
  194.0680  174.8850  144.1550 C   0  0  0  0  0  0  0  0  0  0  0  0
  194.5900  175.9310  146.3850 C   0  0  0  0  0  3  0  0  0  0  0  0
  194.1500  177.0480  146.8650 N   0  0  0  0  0  2  0  0  0  0  0  0
  1 19  1  6  0  0  0
  1  2  1  0  0  0  0
  1  6  1  0  0  0  0
  2  4  1  0  0  0  0
  3  5  1  0  0  0  0
  4  3  1  0  0  0  0
  5 29  1  0  0  0  0
  5 15  2  0  0  0  0
  6 18  1  0  0  0  0
  7  9  2  0  0  0  0
  7  8  1  0  0  0  0
  8 15  1  1  0  0  0
  8 13  1  0  0  0  0
  9 14  1  0  0  0  0
 10 12  1  0  0  0  0
 10  9  1  0  0  0  0
 11 17  1  0  0  0  0
 12 24  1  6  0  0  0
 12 11  1  0  0  0  0
 14 13  2  0  0  0  0
 14 17  1  0  0  0  0
 16  3  2  0  0  0  0
 16  7  1  0  0  0  0
 18 16  1  0  0  0  0
 19 20  1  6  0  0  0
 21 23  1  0  0  0  0
 22 23  2  0  0  0  0
 23 19  1  0  0  0  0
 25 24  1  0  0  0  0
 26 27  2  0  0  0  0
 27 25  1  0  0  0  0
 28 27  1  0  0  0  0
 30 31  1  0  0  0  0
 30 35  1  0  0  0  0
 31 33  2  0  0  0  0
 32 36  1  0  0  0  0
 33 32  1  0  0  0  0
 34 31  1  0  0  0  0
 35 29  1  0  0  0  0
 35 32  2  0  0  0  0
 36 37  2  0  0  0  0
M  END
>  <MODEL>
3

>  <REMARK>
 VINA RESULT:      -7.5      1.676      2.429
  Name = 
  8 active torsions:
  status: ('A' for Active; 'I' for Inactive)
    1  A    between atoms: C_3  and  C_22
    2  A    between atoms: C_7  and  C_14
    3  A    between atoms: C_10  and  C_30
    4  A    between atoms: C_11  and  C_16
    5  A    between atoms: C_14  and  O_23
    6  A    between atoms: C_20  and  O_23
    7  A    between atoms: C_22  and  C_32
    8  A    between atoms: C_30  and  C_34
                            x       y       z     vdW  Elec       q    Type
                         _______ _______ _______ _____ _____    ______ ____

>  <TORSDO>
F 8

$$$$
=
 OpenBabel11042418323D

 37 41  0  0  1  0  0  0  0  0999 V2000
  189.5610  172.4210  141.5630 C   0  0  1  0  0  3  0  0  0  0  0  0
  190.7870  172.0590  142.4140 C   0  0  0  0  0  2  0  0  0  0  0  0
  191.2560  174.0640  143.8250 C   0  0  0  0  0  0  0  0  0  0  0  0
  191.7160  173.2480  142.6510 C   0  0  0  0  0  2  0  0  0  0  0  0
  192.0530  174.1210  145.0030 C   0  0  0  0  0  0  0  0  0  0  0  0
  188.5930  173.3510  142.3090 C   0  0  0  0  0  2  0  0  0  0  0  0
  189.6490  175.5110  144.8920 C   0  0  0  0  0  0  0  0  0  0  0  0
  190.4300  175.5680  146.0270 C   0  0  1  0  0  3  0  0  0  0  0  0
  188.5550  176.3070  145.1580 C   0  0  0  0  0  0  0  0  0  0  0  0
  187.5310  176.6510  144.3750 C   0  0  0  0  0  2  0  0  0  0  0  0
  186.4710  177.7390  146.4210 C   0  0  0  0  0  2  0  0  0  0  0  0
  186.5630  177.6990  144.8770 C   0  0  2  0  0  3  0  0  0  0  0  0
  189.8870  176.3390  146.9950 N   0  0  0  0  0  0  0  0  0  0  0  0
  188.7270  176.7700  146.4500 C   0  0  0  0  0  0  0  0  0  0  0  0
  191.6350  174.8820  146.1110 C   0  0  0  0  0  3  0  0  0  0  0  0
  190.0330  174.7780  143.7610 C   0  0  0  0  0  0  0  0  0  0  0  0
  187.8100  177.5020  147.0860 C   0  0  0  0  0  2  0  0  0  0  0  0
  189.1700  174.7470  142.5340 C   0  0  0  0  0  2  0  0  0  0  0  0
  189.9240  172.9260  140.1540 C   0  0  1  0  0  3  0  0  0  0  0  0
  190.8160  171.9330  139.4200 C   0  0  0  0  0  1  0  0  0  0  0  0
  188.4260  174.4960  138.9200 O   0  0  0  0  0  0  0  0  0  0  0  0
  187.9230  172.2600  139.0070 O   0  0  0  0  0  1  0  0  0  0  0  0
  188.7040  173.1970  139.3280 C   0  0  0  0  0  0  0  0  0  0  0  0
  185.2980  177.4890  144.3230 O   0  0  0  0  0  0  0  0  0  0  0  0
  185.5400  177.1830  142.9810 C   0  0  0  0  0  2  0  0  0  0  0  0
  185.1040  178.4520  140.8820 O   0  0  0  0  0  0  0  0  0  0  0  0
  184.6430  177.9890  142.1080 C   0  0  0  0  0  0  0  0  0  0  0  0
  183.4720  178.2600  142.4790 O   0  0  0  0  0  1  0  0  0  0  0  0
  193.3310  173.3480  145.1090 C   0  0  0  0  0  2  0  0  0  0  0  0
  194.4240  175.6540  143.8960 S   0  0  0  0  0  0  0  0  0  0  0  0
  196.0900  175.8680  143.9490 C   0  0  0  0  0  0  0  0  0  0  0  0
  195.8370  173.9560  145.0850 C   0  0  0  0  0  0  0  0  0  0  0  0
  196.7210  174.8820  144.6210 N   0  0  0  0  0  0  0  0  0  0  0  0
  196.7740  176.9780  143.3790 N   0  0  0  0  0  1  0  0  0  0  0  0
  194.5020  174.2210  144.7810 C   0  0  0  0  0  0  0  0  0  0  0  0
  196.2700  172.7750  145.8410 C   0  0  0  0  0  3  0  0  0  0  0  0
  197.1080  171.9320  145.3340 N   0  0  0  0  0  2  0  0  0  0  0  0
  1 19  1  6  0  0  0
  1  6  1  0  0  0  0
  1  2  1  0  0  0  0
  2  4  1  0  0  0  0
  3  5  1  0  0  0  0
  4  3  1  0  0  0  0
  5 29  1  0  0  0  0
  5 15  2  0  0  0  0
  6 18  1  0  0  0  0
  7  9  2  0  0  0  0
  7  8  1  0  0  0  0
  8 15  1  1  0  0  0
  8 13  1  0  0  0  0
  9 14  1  0  0  0  0
 10 12  1  0  0  0  0
 10  9  1  0  0  0  0
 11 17  1  0  0  0  0
 12 24  1  6  0  0  0
 12 11  1  0  0  0  0
 14 13  2  0  0  0  0
 14 17  1  0  0  0  0
 16  3  2  0  0  0  0
 16  7  1  0  0  0  0
 18 16  1  0  0  0  0
 19 20  1  6  0  0  0
 21 23  2  0  0  0  0
 22 23  1  0  0  0  0
 23 19  1  0  0  0  0
 25 24  1  0  0  0  0
 26 27  2  0  0  0  0
 27 28  1  0  0  0  0
 27 25  1  0  0  0  0
 30 31  1  0  0  0  0
 30 35  1  0  0  0  0
 31 33  2  0  0  0  0
 32 36  1  0  0  0  0
 33 32  1  0  0  0  0
 34 31  1  0  0  0  0
 35 32  2  0  0  0  0
 35 29  1  0  0  0  0
 37 36  2  0  0  0  0
M  END
>  <MODEL>
4

>  <REMARK>
 VINA RESULT:      -7.5      1.754      2.476
  Name = 
  8 active torsions:
  status: ('A' for Active; 'I' for Inactive)
    1  A    between atoms: C_3  and  C_22
    2  A    between atoms: C_7  and  C_14
    3  A    between atoms: C_10  and  C_30
    4  A    between atoms: C_11  and  C_16
    5  A    between atoms: C_14  and  O_23
    6  A    between atoms: C_20  and  O_23
    7  A    between atoms: C_22  and  C_32
    8  A    between atoms: C_30  and  C_34
                            x       y       z     vdW  Elec       q    Type
                         _______ _______ _______ _____ _____    ______ ____

>  <TORSDO>
F 8

$$$$
=
 OpenBabel11042418323D

 37 41  0  0  1  0  0  0  0  0999 V2000
  187.7830  177.8980  144.1130 C   0  0  1  0  0  3  0  0  0  0  0  0
  188.8770  177.2950  145.0070 C   0  0  0  0  0  2  0  0  0  0  0  0
  189.3480  175.0270  144.0760 C   0  0  0  0  0  0  0  0  0  0  0  0
  188.7160  175.7890  145.2060 C   0  0  0  0  0  2  0  0  0  0  0  0
  190.4920  174.2160  144.3210 C   0  0  0  0  0  0  0  0  0  0  0  0
  187.9090  177.4370  142.6540 C   0  0  0  0  0  2  0  0  0  0  0  0
  189.4450  174.3910  141.7520 C   0  0  0  0  0  0  0  0  0  0  0  0
  190.5490  173.6010  141.9990 C   0  0  1  0  0  3  0  0  0  0  0  0
  189.1820  174.2450  140.4080 C   0  0  0  0  0  0  0  0  0  0  0  0
  188.1860  174.7360  139.6680 C   0  0  0  0  0  2  0  0  0  0  0  0
  189.3910  173.8110  137.6220 C   0  0  0  0  0  2  0  0  0  0  0  0
  188.0440  174.2530  138.2410 C   0  0  2  0  0  3  0  0  0  0  0  0
  191.0030  172.9790  140.8880 N   0  0  0  0  0  0  0  0  0  0  0  0
  190.1630  173.4010  139.9170 C   0  0  0  0  0  0  0  0  0  0  0  0
  191.0940  173.4960  143.2730 C   0  0  0  0  0  3  0  0  0  0  0  0
  188.8060  175.1130  142.7690 C   0  0  0  0  0  0  0  0  0  0  0  0
  190.2820  173.1040  138.6210 C   0  0  0  0  0  2  0  0  0  0  0  0
  187.5980  175.9520  142.4740 C   0  0  0  0  0  2  0  0  0  0  0  0
  186.3630  177.7230  144.6850 C   0  0  1  0  0  3  0  0  0  0  0  0
  186.2990  178.1360  146.1490 C   0  0  0  0  0  1  0  0  0  0  0  0
  185.4100  179.8930  143.9000 O   0  0  0  0  0  1  0  0  0  0  0  0
  184.4360  177.9160  143.2660 O   0  0  0  0  0  0  0  0  0  0  0  0
  185.3490  178.5050  143.9070 C   0  0  0  0  0  0  0  0  0  0  0  0
  187.4540  175.2450  137.4550 O   0  0  0  0  0  0  0  0  0  0  0  0
  188.2080  175.2650  136.2770 C   0  0  0  0  0  2  0  0  0  0  0  0
  188.3260  177.5290  135.2470 O   0  0  0  0  0  1  0  0  0  0  0  0
  187.6780  176.3060  135.3540 C   0  0  0  0  0  0  0  0  0  0  0  0
  186.6410  176.0850  134.6770 O   0  0  0  0  0  0  0  0  0  0  0  0
  191.1040  174.1370  145.6850 C   0  0  0  0  0  2  0  0  0  0  0  0
  192.4660  176.6100  145.7660 S   0  0  0  0  0  0  0  0  0  0  0  0
  194.1470  176.5950  145.7320 C   0  0  0  0  0  0  0  0  0  0  0  0
  193.6680  174.4090  145.6990 C   0  0  0  0  0  0  0  0  0  0  0  0
  194.6560  175.3460  145.7000 N   0  0  0  0  0  0  0  0  0  0  0  0
  194.9590  177.7630  145.7650 N   0  0  0  0  0  1  0  0  0  0  0  0
  192.3740  174.9270  145.7380 C   0  0  0  0  0  0  0  0  0  0  0  0
  193.9570  172.9710  145.6560 C   0  0  0  0  0  3  0  0  0  0  0  0
  194.3160  172.3970  144.5550 N   0  0  0  0  0  2  0  0  0  0  0  0
  1 19  1  1  0  0  0
  1  2  1  0  0  0  0
  2  4  1  0  0  0  0
  3  5  1  0  0  0  0
  3  4  1  0  0  0  0
  5 29  1  0  0  0  0
  6  1  1  0  0  0  0
  7  8  1  0  0  0  0
  7 16  1  0  0  0  0
  8 15  1  6  0  0  0
  9  7  2  0  0  0  0
 10  9  1  0  0  0  0
 11 12  1  0  0  0  0
 11 17  1  0  0  0  0
 12 24  1  6  0  0  0
 12 10  1  0  0  0  0
 13  8  1  0  0  0  0
 14  9  1  0  0  0  0
 14 13  2  0  0  0  0
 15  5  2  0  0  0  0
 16  3  2  0  0  0  0
 17 14  1  0  0  0  0
 18  6  1  0  0  0  0
 18 16  1  0  0  0  0
 19 20  1  1  0  0  0
 21 23  1  0  0  0  0
 22 23  2  0  0  0  0
 23 19  1  0  0  0  0
 25 24  1  0  0  0  0
 26 27  1  0  0  0  0
 27 25  1  0  0  0  0
 28 27  2  0  0  0  0
 29 35  1  0  0  0  0
 31 34  1  0  0  0  0
 31 30  1  0  0  0  0
 32 33  1  0  0  0  0
 32 35  2  0  0  0  0
 33 31  2  0  0  0  0
 35 30  1  0  0  0  0
 36 32  1  0  0  0  0
 37 36  2  0  0  0  0
M  END
>  <MODEL>
5

>  <REMARK>
 VINA RESULT:      -7.4      1.953      5.827
  Name = 
  8 active torsions:
  status: ('A' for Active; 'I' for Inactive)
    1  A    between atoms: C_3  and  C_22
    2  A    between atoms: C_7  and  C_14
    3  A    between atoms: C_10  and  C_30
    4  A    between atoms: C_11  and  C_16
    5  A    between atoms: C_14  and  O_23
    6  A    between atoms: C_20  and  O_23
    7  A    between atoms: C_22  and  C_32
    8  A    between atoms: C_30  and  C_34
                            x       y       z     vdW  Elec       q    Type
                         _______ _______ _______ _____ _____    ______ ____

>  <TORSDO>
F 8

$$$$
=
 OpenBabel11042418323D

 37 41  0  0  1  0  0  0  0  0999 V2000
  187.8190  177.7970  143.9270 C   0  0  1  0  0  3  0  0  0  0  0  0
  188.9260  177.1370  144.7620 C   0  0  0  0  0  2  0  0  0  0  0  0
  189.3170  174.8980  143.7320 C   0  0  0  0  0  0  0  0  0  0  0  0
  188.7380  175.6290  144.9090 C   0  0  0  0  0  2  0  0  0  0  0  0
  190.4500  174.0530  143.9100 C   0  0  0  0  0  0  0  0  0  0  0  0
  187.8900  177.3900  142.4480 C   0  0  0  0  0  2  0  0  0  0  0  0
  189.3290  174.3490  141.3840 C   0  0  0  0  0  0  0  0  0  0  0  0
  190.4220  173.5260  141.5660 C   0  0  1  0  0  3  0  0  0  0  0  0
  189.0220  174.2610  140.0440 C   0  0  0  0  0  0  0  0  0  0  0  0
  188.0150  174.8010  139.3550 C   0  0  0  0  0  2  0  0  0  0  0  0
  189.1350  173.9300  137.2380 C   0  0  0  0  0  2  0  0  0  0  0  0
  187.8180  174.3760  137.9160 C   0  0  2  0  0  3  0  0  0  0  0  0
  190.8280  172.9380  140.4180 N   0  0  0  0  0  0  0  0  0  0  0  0
  189.9670  173.4150  139.4900 C   0  0  0  0  0  0  0  0  0  0  0  0
  191.0030  173.3610  142.8170 C   0  0  0  0  0  3  0  0  0  0  0  0
  188.7380  175.0450  142.4470 C   0  0  0  0  0  0  0  0  0  0  0  0
  190.0400  173.1660  138.1820 C   0  0  0  0  0  2  0  0  0  0  0  0
  187.5400  175.9210  142.2220 C   0  0  0  0  0  2  0  0  0  0  0  0
  186.4140  177.6310  144.5360 C   0  0  1  0  0  3  0  0  0  0  0  0
  186.4040  177.9910  146.0160 C   0  0  0  0  0  1  0  0  0  0  0  0
  185.4670  179.8480  143.8860 O   0  0  0  0  0  1  0  0  0  0  0  0
  184.4660  177.9160  143.1630 O   0  0  0  0  0  0  0  0  0  0  0  0
  185.3940  178.4620  143.8190 C   0  0  0  0  0  0  0  0  0  0  0  0
  187.2270  175.4100  137.1860 O   0  0  0  0  0  0  0  0  0  0  0  0
  188.0570  175.5860  136.0760 C   0  0  0  0  0  2  0  0  0  0  0  0
  186.2200  176.6360  134.7620 O   0  0  0  0  0  0  0  0  0  0  0  0
  187.5310  176.6830  135.2180 C   0  0  0  0  0  0  0  0  0  0  0  0
  188.2720  177.6480  134.8970 O   0  0  0  0  0  1  0  0  0  0  0  0
  191.1020  173.9080  145.2500 C   0  0  0  0  0  2  0  0  0  0  0  0
  193.4750  175.1790  144.3940 S   0  0  0  0  0  0  0  0  0  0  0  0
  194.1280  176.3850  145.3660 C   0  0  0  0  0  0  0  0  0  0  0  0
  192.2890  175.8200  146.5100 C   0  0  0  0  0  0  0  0  0  0  0  0
  193.3850  176.6270  146.4670 N   0  0  0  0  0  0  0  0  0  0  0  0
  195.3170  177.1050  145.0600 N   0  0  0  0  0  1  0  0  0  0  0  0
  192.1670  174.9440  145.4320 C   0  0  0  0  0  0  0  0  0  0  0  0
  191.3230  175.8760  147.6130 C   0  0  0  0  0  3  0  0  0  0  0  0
  190.7590  176.9900  147.9460 N   0  0  0  0  0  2  0  0  0  0  0  0
  1 19  1  1  0  0  0
  1  2  1  0  0  0  0
  2  4  1  0  0  0  0
  3  5  1  0  0  0  0
  3  4  1  0  0  0  0
  5 29  1  0  0  0  0
  6  1  1  0  0  0  0
  7  8  1  0  0  0  0
  7 16  1  0  0  0  0
  8 15  1  6  0  0  0
  9  7  2  0  0  0  0
 10  9  1  0  0  0  0
 11 12  1  0  0  0  0
 11 17  1  0  0  0  0
 12 24  1  6  0  0  0
 12 10  1  0  0  0  0
 13  8  1  0  0  0  0
 14  9  1  0  0  0  0
 14 13  2  0  0  0  0
 15  5  2  0  0  0  0
 16  3  2  0  0  0  0
 17 14  1  0  0  0  0
 18 16  1  0  0  0  0
 18  6  1  0  0  0  0
 19 20  1  1  0  0  0
 22 23  2  0  0  0  0
 23 21  1  0  0  0  0
 23 19  1  0  0  0  0
 25 24  1  0  0  0  0
 26 27  2  0  0  0  0
 27 25  1  0  0  0  0
 28 27  1  0  0  0  0
 29 35  1  0  0  0  0
 30 31  1  0  0  0  0
 30 35  1  0  0  0  0
 31 33  2  0  0  0  0
 32 36  1  0  0  0  0
 33 32  1  0  0  0  0
 34 31  1  0  0  0  0
 35 32  2  0  0  0  0
 36 37  2  0  0  0  0
M  END
>  <MODEL>
6

>  <REMARK>
 VINA RESULT:      -7.4      2.177      6.015
  Name = 
  8 active torsions:
  status: ('A' for Active; 'I' for Inactive)
    1  A    between atoms: C_3  and  C_22
    2  A    between atoms: C_7  and  C_14
    3  A    between atoms: C_10  and  C_30
    4  A    between atoms: C_11  and  C_16
    5  A    between atoms: C_14  and  O_23
    6  A    between atoms: C_20  and  O_23
    7  A    between atoms: C_22  and  C_32
    8  A    between atoms: C_30  and  C_34
                            x       y       z     vdW  Elec       q    Type
                         _______ _______ _______ _____ _____    ______ ____

>  <TORSDO>
F 8

$$$$
=
 OpenBabel11042418323D

 37 41  0  0  1  0  0  0  0  0999 V2000
  189.2050  176.1480  146.4070 C   0  0  1  0  0  3  0  0  0  0  0  0
  188.2230  177.1170  145.7330 C   0  0  0  0  0  2  0  0  0  0  0  0
  188.6520  176.9310  143.2820 C   0  0  0  0  0  0  0  0  0  0  0  0
  188.8130  177.7960  144.4990 C   0  0  0  0  0  2  0  0  0  0  0  0
  187.7970  177.3510  142.2230 C   0  0  0  0  0  0  0  0  0  0  0  0
  189.4760  174.9070  145.5440 C   0  0  0  0  0  2  0  0  0  0  0  0
  189.1500  174.9300  142.0310 C   0  0  0  0  0  0  0  0  0  0  0  0
  188.3260  175.3480  141.0060 C   0  0  0  0  0  0  0  0  0  0  0  0
  189.6670  173.7210  141.6190 C   0  0  0  0  0  0  0  0  0  0  0  0
  190.5660  172.9270  142.2010 C   0  0  0  0  0  2  0  0  0  0  0  0
  190.0740  171.2130  140.3810 C   0  0  0  0  0  2  0  0  0  0  0  0
  191.0900  171.7410  141.4210 C   0  0  2  0  0  3  0  0  0  0  0  0
  188.2830  174.4670  139.9810 N   0  0  0  0  0  0  0  0  0  0  0  0
  189.0980  173.4650  140.3830 C   0  0  0  0  0  0  0  0  0  0  0  0
  187.6360  176.5510  141.0760 C   0  0  0  0  0  3  0  0  0  0  0  0
  189.3500  175.7020  143.1840 C   0  0  2  0  0  3  0  0  0  0  0  0
  189.2970  172.3280  139.7150 C   0  0  0  0  0  2  0  0  0  0  0  0
  190.2640  175.2300  144.2760 C   0  0  0  0  0  2  0  0  0  0  0  0
  190.4910  176.8330  146.9090 C   0  0  1  0  0  3  0  0  0  0  0  0
  190.1810  177.9140  147.9340 C   0  0  0  0  0  1  0  0  0  0  0  0
  192.6660  175.6080  146.8760 O   0  0  0  0  0  0  0  0  0  0  0  0
  191.1620  175.2290  148.5650 O   0  0  0  0  0  1  0  0  0  0  0  0
  191.4510  175.8480  147.5040 C   0  0  0  0  0  0  0  0  0  0  0  0
  191.4610  170.7170  142.2960 O   0  0  0  0  0  0  0  0  0  0  0  0
  192.8590  170.7280  142.2880 C   0  0  0  0  0  2  0  0  0  0  0  0
  193.4290  169.8830  144.5610 O   0  0  0  0  0  1  0  0  0  0  0  0
  193.3720  170.9450  143.6680 C   0  0  0  0  0  0  0  0  0  0  0  0
  193.7470  172.0900  144.0320 O   0  0  0  0  0  0  0  0  0  0  0  0
  187.0210  178.6280  142.3170 C   0  0  0  0  0  2  0  0  0  0  0  0
  184.8710  178.2940  140.5160 S   0  0  0  0  0  0  0  0  0  0  0  0
  183.3250  178.1040  141.1480 C   0  0  0  0  0  0  0  0  0  0  0  0
  184.5630  178.2640  143.0050 C   0  0  0  0  0  0  0  0  0  0  0  0
  183.3100  178.1030  142.4980 N   0  0  0  0  0  0  0  0  0  0  0  0
  182.1530  177.9290  140.3600 N   0  0  0  0  0  1  0  0  0  0  0  0
  185.5700  178.3830  142.0480 C   0  0  0  0  0  0  0  0  0  0  0  0
  184.8190  178.3090  144.4500 C   0  0  0  0  0  3  0  0  0  0  0  0
  184.0920  179.0370  145.2310 N   0  0  0  0  0  2  0  0  0  0  0  0
  1 19  1  6  0  0  0
  2  1  1  0  0  0  0
  3  4  1  0  0  0  0
  4  2  1  0  0  0  0
  5 29  1  0  0  0  0
  5  3  2  0  0  0  0
  6  1  1  0  0  0  0
  7 16  1  0  0  0  0
  8 15  2  0  0  0  0
  8  7  1  0  0  0  0
  9  7  2  0  0  0  0
  9 10  1  0  0  0  0
 11 12  1  0  0  0  0
 12 10  1  0  0  0  0
 12 24  1  1  0  0  0
 13 14  2  0  0  0  0
 13  8  1  0  0  0  0
 14  9  1  0  0  0  0
 15  5  1  0  0  0  0
 16  3  1  0  0  0  0
 16 18  1  1  0  0  0
 17 11  1  0  0  0  0
 17 14  1  0  0  0  0
 18  6  1  0  0  0  0
 19 23  1  0  0  0  0
 19 20  1  1  0  0  0
 21 23  2  0  0  0  0
 23 22  1  0  0  0  0
 25 24  1  0  0  0  0
 25 27  1  0  0  0  0
 27 28  2  0  0  0  0
 27 26  1  0  0  0  0
 30 31  1  0  0  0  0
 30 35  1  0  0  0  0
 31 33  2  0  0  0  0
 32 36  1  0  0  0  0
 33 32  1  0  0  0  0
 34 31  1  0  0  0  0
 35 29  1  0  0  0  0
 35 32  2  0  0  0  0
 36 37  2  0  0  0  0
M  END
>  <MODEL>
7

>  <REMARK>
 VINA RESULT:      -7.4      4.695      8.917
  Name = 
  8 active torsions:
  status: ('A' for Active; 'I' for Inactive)
    1  A    between atoms: C_3  and  C_22
    2  A    between atoms: C_7  and  C_14
    3  A    between atoms: C_10  and  C_30
    4  A    between atoms: C_11  and  C_16
    5  A    between atoms: C_14  and  O_23
    6  A    between atoms: C_20  and  O_23
    7  A    between atoms: C_22  and  C_32
    8  A    between atoms: C_30  and  C_34
                            x       y       z     vdW  Elec       q    Type
                         _______ _______ _______ _____ _____    ______ ____

>  <TORSDO>
F 8

$$$$
=
 OpenBabel11042418323D

 37 41  0  0  1  0  0  0  0  0999 V2000
  187.8230  177.7960  144.0680 C   0  0  1  0  0  3  0  0  0  0  0  0
  188.9510  177.2160  144.9340 C   0  0  0  0  0  2  0  0  0  0  0  0
  189.4470  174.9590  143.9890 C   0  0  0  0  0  0  0  0  0  0  0  0
  188.8280  175.7070  145.1350 C   0  0  0  0  0  2  0  0  0  0  0  0
  190.6140  174.1720  144.2040 C   0  0  0  0  0  0  0  0  0  0  0  0
  187.9220  177.3390  142.6060 C   0  0  0  0  0  2  0  0  0  0  0  0
  189.5000  174.3270  141.6620 C   0  0  0  0  0  0  0  0  0  0  0  0
  190.6260  173.5600  141.8810 C   0  0  1  0  0  3  0  0  0  0  0  0
  189.2060  174.1770  140.3240 C   0  0  0  0  0  0  0  0  0  0  0  0
  188.1820  174.6470  139.6100 C   0  0  0  0  0  2  0  0  0  0  0  0
  189.3550  173.7490  137.5340 C   0  0  0  0  0  2  0  0  0  0  0  0
  188.0150  174.1620  138.1870 C   0  0  2  0  0  3  0  0  0  0  0  0
  191.0650  172.9490  140.7580 N   0  0  0  0  0  0  0  0  0  0  0  0
  190.1920  173.3540  139.8080 C   0  0  0  0  0  0  0  0  0  0  0  0
  191.2040  173.4660  143.1400 C   0  0  0  0  0  3  0  0  0  0  0  0
  188.8710  175.0340  142.6960 C   0  0  0  0  0  0  0  0  0  0  0  0
  190.2850  173.0610  138.5100 C   0  0  0  0  0  2  0  0  0  0  0  0
  187.6380  175.8480  142.4320 C   0  0  0  0  0  2  0  0  0  0  0  0
  186.4220  177.5910  144.6760 C   0  0  1  0  0  3  0  0  0  0  0  0
  186.4150  177.8830  146.1700 C   0  0  0  0  0  1  0  0  0  0  0  0
  184.4970  177.8670  143.1100 O   0  0  0  0  0  0  0  0  0  0  0  0
  185.3360  179.6840  144.2280 O   0  0  0  0  0  1  0  0  0  0  0  0
  185.3920  178.4450  144.0010 C   0  0  0  0  0  0  0  0  0  0  0  0
  187.3840  175.1410  137.4170 O   0  0  0  0  0  0  0  0  0  0  0  0
  188.1940  175.2850  136.2860 C   0  0  0  0  0  2  0  0  0  0  0  0
  188.2510  177.5270  135.2030 O   0  0  0  0  0  1  0  0  0  0  0  0
  187.6120  176.3060  135.3730 C   0  0  0  0  0  0  0  0  0  0  0  0
  186.5390  176.0700  134.7600 O   0  0  0  0  0  0  0  0  0  0  0  0
  191.2620  174.1050  145.5520 C   0  0  0  0  0  2  0  0  0  0  0  0
  193.9060  173.1120  145.5190 S   0  0  0  0  0  0  0  0  0  0  0  0
  195.1690  174.2150  145.3970 C   0  0  0  0  0  0  0  0  0  0  0  0
  193.3800  175.5570  145.3230 C   0  0  0  0  0  0  0  0  0  0  0  0
  194.7390  175.4900  145.2960 N   0  0  0  0  0  0  0  0  0  0  0  0
  196.5460  173.8560  145.3720 N   0  0  0  0  0  1  0  0  0  0  0  0
  192.7370  174.3250  145.4380 C   0  0  0  0  0  0  0  0  0  0  0  0
  192.6600  176.8330  145.2390 C   0  0  0  0  0  3  0  0  0  0  0  0
  192.3570  177.3510  144.0950 N   0  0  0  0  0  2  0  0  0  0  0  0
  1 19  1  1  0  0  0
  1  2  1  0  0  0  0
  2  4  1  0  0  0  0
  3  5  1  0  0  0  0
  3  4  1  0  0  0  0
  5 29  1  0  0  0  0
  6  1  1  0  0  0  0
  7  8  1  0  0  0  0
  7 16  1  0  0  0  0
  8 15  1  6  0  0  0
  9  7  2  0  0  0  0
 10  9  1  0  0  0  0
 11 12  1  0  0  0  0
 11 17  1  0  0  0  0
 12 24  1  6  0  0  0
 12 10  1  0  0  0  0
 13  8  1  0  0  0  0
 14  9  1  0  0  0  0
 14 13  2  0  0  0  0
 15  5  2  0  0  0  0
 16  3  2  0  0  0  0
 17 14  1  0  0  0  0
 18  6  1  0  0  0  0
 18 16  1  0  0  0  0
 19 20  1  1  0  0  0
 21 23  2  0  0  0  0
 23 22  1  0  0  0  0
 23 19  1  0  0  0  0
 25 24  1  0  0  0  0
 26 27  1  0  0  0  0
 27 25  1  0  0  0  0
 28 27  2  0  0  0  0
 31 30  1  0  0  0  0
 32 35  2  0  0  0  0
 33 32  1  0  0  0  0
 33 31  2  0  0  0  0
 34 31  1  0  0  0  0
 35 30  1  0  0  0  0
 35 29  1  0  0  0  0
 36 32  1  0  0  0  0
 37 36  2  0  0  0  0
M  END
>  <MODEL>
8

>  <REMARK>
 VINA RESULT:      -7.3      2.109      6.007
  Name = 
  8 active torsions:
  status: ('A' for Active; 'I' for Inactive)
    1  A    between atoms: C_3  and  C_22
    2  A    between atoms: C_7  and  C_14
    3  A    between atoms: C_10  and  C_30
    4  A    between atoms: C_11  and  C_16
    5  A    between atoms: C_14  and  O_23
    6  A    between atoms: C_20  and  O_23
    7  A    between atoms: C_22  and  C_32
    8  A    between atoms: C_30  and  C_34
                            x       y       z     vdW  Elec       q    Type
                         _______ _______ _______ _____ _____    ______ ____

>  <TORSDO>
F 8

$$$$
=
 OpenBabel11042418323D

 37 41  0  0  1  0  0  0  0  0999 V2000
  190.8150  173.1390  139.8770 C   0  0  1  0  0  3  0  0  0  0  0  0
  189.4720  173.8450  140.1110 C   0  0  0  0  0  2  0  0  0  0  0  0
  189.3330  174.2520  142.5690 C   0  0  0  0  0  0  0  0  0  0  0  0
  188.8080  173.4360  141.4240 C   0  0  0  0  0  2  0  0  0  0  0  0
  188.4700  175.1610  143.2450 C   0  0  0  0  0  0  0  0  0  0  0  0
  191.8950  173.6090  140.8620 C   0  0  0  0  0  2  0  0  0  0  0  0
  191.1200  174.9160  144.0460 C   0  0  0  0  0  0  0  0  0  0  0  0
  190.2750  175.7890  144.7010 C   0  0  1  0  0  3  0  0  0  0  0  0
  192.3330  175.0260  144.6900 C   0  0  0  0  0  0  0  0  0  0  0  0
  193.4710  174.3550  144.5020 C   0  0  0  0  0  2  0  0  0  0  0  0
  194.5640  175.9530  146.1580 C   0  0  0  0  0  2  0  0  0  0  0  0
  194.5980  174.5580  145.4900 C   0  0  2  0  0  3  0  0  0  0  0  0
  190.8890  176.4510  145.7070 N   0  0  0  0  0  0  0  0  0  0  0  0
  192.1580  175.9830  145.6740 C   0  0  0  0  0  0  0  0  0  0  0  0
  188.9470  175.9330  144.3210 C   0  0  0  0  0  3  0  0  0  0  0  0
  190.6820  174.1180  142.9800 C   0  0  0  0  0  0  0  0  0  0  0  0
  193.1540  176.4220  146.4440 C   0  0  0  0  0  2  0  0  0  0  0  0
  191.6190  173.1660  142.2970 C   0  0  0  0  0  2  0  0  0  0  0  0
  190.6920  171.6050  139.7960 C   0  0  1  0  0  3  0  0  0  0  0  0
  189.6810  171.1840  138.7380 C   0  0  0  0  0  1  0  0  0  0  0  0
  192.6690  171.2390  138.3150 O   0  0  0  0  0  0  0  0  0  0  0  0
  192.5240  170.1470  140.3260 O   0  0  0  0  0  1  0  0  0  0  0  0
  192.0110  170.9550  139.5050 C   0  0  0  0  0  0  0  0  0  0  0  0
  195.8290  174.3520  144.8640 O   0  0  0  0  0  0  0  0  0  0  0  0
  195.6390  174.7820  143.5470 C   0  0  0  0  0  2  0  0  0  0  0  0
  196.4970  176.7900  142.3490 O   0  0  0  0  0  0  0  0  0  0  0  0
  196.7550  175.6790  143.1410 C   0  0  0  0  0  0  0  0  0  0  0  0
  197.9330  175.4300  143.5050 O   0  0  0  0  0  1  0  0  0  0  0  0
  187.0500  175.3470  142.8080 C   0  0  0  0  0  2  0  0  0  0  0  0
  185.9340  177.4410  144.3410 S   0  0  0  0  0  0  0  0  0  0  0  0
  185.7450  178.9460  143.6160 C   0  0  0  0  0  0  0  0  0  0  0  0
  186.6940  177.7600  141.9720 C   0  0  0  0  0  0  0  0  0  0  0  0
  186.1990  178.9730  142.3460 N   0  0  0  0  0  0  0  0  0  0  0  0
  185.1970  180.0860  144.2680 N   0  0  0  0  0  1  0  0  0  0  0  0
  186.6360  176.7770  142.9600 C   0  0  0  0  0  0  0  0  0  0  0  0
  187.2410  177.5210  140.6320 C   0  0  0  0  0  3  0  0  0  0  0  0
  186.4770  177.5410  139.5890 N   0  0  0  0  0  2  0  0  0  0  0  0
  1 19  1  1  0  0  0
  1  2  1  0  0  0  0
  1  6  1  0  0  0  0
  2  4  1  0  0  0  0
  3 16  2  0  0  0  0
  3  5  1  0  0  0  0
  4  3  1  0  0  0  0
  5 15  2  0  0  0  0
  6 18  1  0  0  0  0
  7  9  2  0  0  0  0
  7  8  1  0  0  0  0
  8 15  1  6  0  0  0
  8 13  1  0  0  0  0
  9 14  1  0  0  0  0
 10  9  1  0  0  0  0
 10 12  1  0  0  0  0
 11 17  1  0  0  0  0
 12 24  1  6  0  0  0
 12 11  1  0  0  0  0
 14 13  2  0  0  0  0
 14 17  1  0  0  0  0
 16  7  1  0  0  0  0
 18 16  1  0  0  0  0
 19 20  1  6  0  0  0
 21 23  2  0  0  0  0
 23 19  1  0  0  0  0
 23 22  1  0  0  0  0
 25 24  1  0  0  0  0
 26 27  2  0  0  0  0
 27 28  1  0  0  0  0
 27 25  1  0  0  0  0
 29 35  1  0  0  0  0
 29  5  1  0  0  0  0
 31 34  1  0  0  0  0
 31 30  1  0  0  0  0
 32 33  1  0  0  0  0
 32 35  2  0  0  0  0
 33 31  2  0  0  0  0
 35 30  1  0  0  0  0
 36 32  1  0  0  0  0
 37 36  2  0  0  0  0
M  END
>  <MODEL>
9

>  <REMARK>
 VINA RESULT:      -6.9      4.416      7.819
  Name = 
  8 active torsions:
  status: ('A' for Active; 'I' for Inactive)
    1  A    between atoms: C_3  and  C_22
    2  A    between atoms: C_7  and  C_14
    3  A    between atoms: C_10  and  C_30
    4  A    between atoms: C_11  and  C_16
    5  A    between atoms: C_14  and  O_23
    6  A    between atoms: C_20  and  O_23
    7  A    between atoms: C_22  and  C_32
    8  A    between atoms: C_30  and  C_34
                            x       y       z     vdW  Elec       q    Type
                         _______ _______ _______ _____ _____    ______ ____

>  <TORSDO>
F 8

$$$$
