=
 OpenBabel11042418473D

 44 49  0  0  1  0  0  0  0  0999 V2000
  187.8350  175.5180  140.4470 C   0  0  0  0  0  0  0  0  0  0  0  0
  188.4920  174.1860  138.5270 C   0  0  0  0  0  0  0  0  0  0  0  0
  186.1050  177.9100  144.3630 C   0  0  1  0  0  3  0  0  0  0  0  0
  187.1680  176.5720  140.9360 C   0  0  0  0  0  3  0  0  0  0  0  0
  189.2020  173.5740  140.7370 N   0  0  0  0  0  0  0  0  0  0  0  0
  187.0560  177.3910  146.6050 C   0  0  0  0  0  3  0  0  0  0  0  0
  186.2870  178.3190  147.1850 C   0  0  0  0  0  3  0  0  0  0  0  0
  187.3670  177.4690  145.1280 C   0  0  1  0  0  3  0  0  0  0  0  0
  187.8150  175.2770  139.0760 C   0  0  0  0  0  3  0  0  0  0  0  0
  185.6570  179.3370  146.3920 N   0  0  0  0  0  2  0  0  0  0  0  0
  185.6050  179.2030  144.9670 C   0  0  0  0  0  0  0  0  0  0  0  0
  185.7640  178.7070  142.1110 O   0  0  0  0  0  0  0  0  0  0  0  0
  185.0880  180.1150  144.2710 O   0  0  0  0  0  0  0  0  0  0  0  0
  190.3130  173.2460  145.5510 C   0  0  0  0  0  1  0  0  0  0  0  0
  189.2000  173.3230  139.3990 C   0  0  0  0  0  0  0  0  0  0  0  0
  188.0340  176.2260  144.5430 C   0  0  0  0  0  0  0  0  0  0  0  0
  188.5510  174.6340  141.2890 C   0  0  0  0  0  0  0  0  0  0  0  0
  187.1550  176.8430  142.3450 N   0  0  0  0  0  0  0  0  0  0  0  0
  188.6100  174.8330  142.6200 C   0  0  0  0  0  0  0  0  0  0  0  0
  186.3460  177.8960  142.8820 C   0  0  0  0  0  0  0  0  0  0  0  0
  188.9450  175.3970  145.3150 N   0  0  0  0  0  0  0  0  0  0  0  0
  187.9120  175.9840  143.2190 C   0  0  0  0  0  0  0  0  0  0  0  0
  189.3560  173.9520  143.4670 N   0  0  0  0  0  0  0  0  0  0  0  0
  189.5090  174.2000  144.7300 C   0  0  0  0  0  0  0  0  0  0  0  0
  190.2860  171.3220  140.0200 O   0  0  0  0  0  1  0  0  0  0  0  0
  189.9200  172.1060  138.9250 C   0  0  0  0  0  2  0  0  0  0  0  0
  189.4860  175.8490  146.5950 C   0  0  0  0  0  2  0  0  0  0  0  0
  190.7040  176.7210  146.3690 C   0  0  0  0  0  2  0  0  0  0  0  0
  191.7360  176.4160  147.4350 C   0  0  0  0  0  2  0  0  0  0  0  0
  192.8830  175.6380  146.8210 C   0  0  0  0  0  2  0  0  0  0  0  0
  194.7490  177.2750  145.9820 O   0  0  0  0  0  1  0  0  0  0  0  0
  195.9350  175.5180  144.6710 O   0  0  0  0  0  1  0  0  0  0  0  0
  193.9860  176.9050  144.9170 N   0  0  0  0  0  0  0  0  0  0  0  0
  194.6590  175.8240  144.1790 C   0  0  2  0  0  0  0  0  0  0  0  0
  192.9590  175.9230  145.3200 C   0  0  1  0  0  3  0  0  0  0  0  0
  193.6400  174.7810  144.5910 C   0  0  0  0  0  2  0  0  0  0  0  0
  195.7760  176.1810  142.0880 O   0  0  0  0  0  1  0  0  0  0  0  0
  194.6790  176.0730  142.7000 C   0  0  0  0  0  0  0  0  0  0  0  0
  193.4880  176.1140  141.9840 O   0  0  0  0  0  0  0  0  0  0  0  0
  188.4130  174.0100  137.1040 N   0  0  0  0  0  2  0  0  0  0  0  0
  189.3490  174.5280  136.1170 C   0  0  0  0  0  2  0  0  0  0  0  0
  188.7380  175.6840  135.4030 C   0  0  0  0  0  0  0  0  0  0  0  0
  189.6030  176.6450  134.6630 C   0  0  0  0  0  1  0  0  0  0  0  0
  187.5280  175.8240  135.3940 O   0  0  0  0  0  0  0  0  0  0  0  0
  1  4  2  0  0  0  0
  1 17  1  0  0  0  0
  2  9  2  0  0  0  0
  2 15  1  0  0  0  0
  3 20  1  6  0  0  0
  3 11  1  0  0  0  0
  3  8  1  0  0  0  0
  4 18  1  0  0  0  0
  5 17  1  0  0  0  0
  6  7  2  0  0  0  0
  8  6  1  1  0  0  0
  9  1  1  0  0  0  0
 10  7  1  0  0  0  0
 11 10  1  0  0  0  0
 12 20  2  0  0  0  0
 13 11  2  0  0  0  0
 15  5  2  0  0  0  0
 16  8  1  0  0  0  0
 16 21  1  0  0  0  0
 17 19  2  0  0  0  0
 18 20  1  0  0  0  0
 18 22  1  0  0  0  0
 19 22  1  0  0  0  0
 19 23  1  0  0  0  0
 21 27  1  0  0  0  0
 22 16  2  0  0  0  0
 23 24  2  0  0  0  0
 24 21  1  0  0  0  0
 24 14  1  0  0  0  0
 26 15  1  0  0  0  0
 26 25  1  0  0  0  0
 28 27  1  0  0  0  0
 28 29  1  0  0  0  0
 30 29  1  0  0  0  0
 33 35  1  0  0  0  0
 33 31  1  0  0  0  0
 34 36  1  0  0  0  0
 34 32  1  1  0  0  0
 34 33  1  0  0  0  0
 35 30  1  1  0  0  0
 36 35  1  0  0  0  0
 37 38  1  0  0  0  0
 38 34  1  0  0  0  0
 39 38  2  0  0  0  0
 40  2  1  0  0  0  0
 41 40  1  0  0  0  0
 42 41  1  0  0  0  0
 43 42  1  0  0  0  0
 44 42  2  0  0  0  0
M  END
>  <MODEL>
1

>  <REMARK>
 VINA RESULT:      -7.8      0.000      0.000
  Name = 
  10 active torsions:
  status: ('A' for Active; 'I' for Inactive)
    1  A    between atoms: C_2  and  N_32
    2  A    between atoms: C_5  and  C_11
    3  A    between atoms: C_5  and  N_36
    4  A    between atoms: C_6  and  C_15
    5  A    between atoms: C_6  and  N_32
    6  A    between atoms: C_11  and  C_24
    7  A    between atoms: C_24  and  C_40
    8  A    between atoms: CA_25  and  C_43
    9  A    between atoms: C_26  and  C_37
   10  A    between atoms: C_35  and  C_40
                            x       y       z     vdW  Elec       q    Type
                         _______ _______ _______ _____ _____    ______ ____

>  <TORSDO>
F 10

$$$$
=
 OpenBabel11042418473D

 44 49  0  0  1  0  0  0  0  0999 V2000
  188.3020  176.8470  143.6120 C   0  0  0  0  0  0  0  0  0  0  0  0
  186.4480  178.4100  143.4960 C   0  0  0  0  0  0  0  0  0  0  0  0
  191.7310  173.3730  144.0820 C   0  0  1  0  0  3  0  0  0  0  0  0
  189.3640  176.3770  144.2790 C   0  0  0  0  0  3  0  0  0  0  0  0
  186.8050  176.8100  141.7440 N   0  0  0  0  0  0  0  0  0  0  0  0
  192.2160  171.8940  142.1390 C   0  0  0  0  0  3  0  0  0  0  0  0
  193.1840  171.2640  142.8150 C   0  0  0  0  0  3  0  0  0  0  0  0
  191.7780  173.2820  142.5460 C   0  0  1  0  0  3  0  0  0  0  0  0
  187.5650  177.8960  144.1570 C   0  0  0  0  0  3  0  0  0  0  0  0
  193.7400  171.8520  144.0020 N   0  0  0  0  0  2  0  0  0  0  0  0
  193.0770  172.9560  144.6290 C   0  0  0  0  0  0  0  0  0  0  0  0
  191.5780  175.2460  145.5960 O   0  0  0  0  0  0  0  0  0  0  0  0
  193.5870  173.4960  145.6450 O   0  0  0  0  0  0  0  0  0  0  0  0
  188.4470  173.3580  138.5970 C   0  0  0  0  0  1  0  0  0  0  0  0
  186.0750  177.8380  142.2560 C   0  0  0  0  0  0  0  0  0  0  0  0
  190.5060  173.7820  141.8630 C   0  0  0  0  0  0  0  0  0  0  0  0
  187.8980  176.2970  142.3710 C   0  0  0  0  0  0  0  0  0  0  0  0
  190.1360  175.2870  143.7550 N   0  0  0  0  0  0  0  0  0  0  0  0
  188.5860  175.2910  141.7990 C   0  0  0  0  0  0  0  0  0  0  0  0
  191.1970  174.7050  144.5220 C   0  0  0  0  0  0  0  0  0  0  0  0
  190.1530  173.4040  140.5040 N   0  0  0  0  0  0  0  0  0  0  0  0
  189.7740  174.7390  142.4740 C   0  0  0  0  0  0  0  0  0  0  0  0
  188.1910  174.7540  140.5320 N   0  0  0  0  0  0  0  0  0  0  0  0
  188.9110  173.8630  139.9230 C   0  0  0  0  0  0  0  0  0  0  0  0
  185.0880  178.0720  140.1250 O   0  0  0  0  0  1  0  0  0  0  0  0
  184.8760  178.2810  141.4880 C   0  0  0  0  0  2  0  0  0  0  0  0
  191.1180  172.7510  139.6210 C   0  0  0  0  0  2  0  0  0  0  0  0
  191.9380  173.7910  138.8840 C   0  0  0  0  0  2  0  0  0  0  0  0
  193.3950  173.3800  138.9090 C   0  0  0  0  0  2  0  0  0  0  0  0
  194.2520  174.5750  139.2760 C   0  0  0  0  0  2  0  0  0  0  0  0
  196.7250  175.2090  139.8670 O   0  0  0  0  0  1  0  0  0  0  0  0
  196.0660  177.1660  141.2630 O   0  0  0  0  0  1  0  0  0  0  0  0
  196.1070  174.7760  141.0000 N   0  0  0  0  0  0  0  0  0  0  0  0
  195.6620  175.9330  141.7930 C   0  0  2  0  0  0  0  0  0  0  0  0
  194.6850  174.4710  140.7400 C   0  0  1  0  0  3  0  0  0  0  0  0
  194.1940  175.6690  141.5290 C   0  0  0  0  0  2  0  0  0  0  0  0
  196.0930  176.8270  143.9760 O   0  0  0  0  0  1  0  0  0  0  0  0
  196.0320  175.8040  143.2410 C   0  0  0  0  0  0  0  0  0  0  0  0
  196.2380  174.5470  143.7980 O   0  0  0  0  0  0  0  0  0  0  0  0
  185.7450  179.4890  144.1330 N   0  0  0  0  0  2  0  0  0  0  0  0
  184.5970  179.3680  145.0190 C   0  0  0  0  0  2  0  0  0  0  0  0
  185.0150  178.7320  146.3000 C   0  0  0  0  0  0  0  0  0  0  0  0
  184.7980  177.2740  146.5130 C   0  0  0  0  0  1  0  0  0  0  0  0
  185.5660  179.3960  147.1590 O   0  0  0  0  0  0  0  0  0  0  0  0
  1  9  1  0  0  0  0
  1  4  2  0  0  0  0
  2 40  1  0  0  0  0
  2  9  2  0  0  0  0
  3 20  1  6  0  0  0
  3 11  1  0  0  0  0
  5 15  2  0  0  0  0
  5 17  1  0  0  0  0
  6  7  2  0  0  0  0
  7 10  1  0  0  0  0
  8  6  1  1  0  0  0
  8  3  1  0  0  0  0
 10 11  1  0  0  0  0
 11 13  2  0  0  0  0
 14 24  1  0  0  0  0
 15  2  1  0  0  0  0
 16 22  2  0  0  0  0
 16  8  1  0  0  0  0
 17  1  1  0  0  0  0
 18  4  1  0  0  0  0
 18 20  1  0  0  0  0
 19 17  2  0  0  0  0
 19 22  1  0  0  0  0
 20 12  2  0  0  0  0
 21 16  1  0  0  0  0
 22 18  1  0  0  0  0
 23 19  1  0  0  0  0
 24 21  1  0  0  0  0
 24 23  2  0  0  0  0
 25 26  1  0  0  0  0
 26 15  1  0  0  0  0
 27 21  1  0  0  0  0
 28 29  1  0  0  0  0
 28 27  1  0  0  0  0
 29 30  1  0  0  0  0
 31 33  1  0  0  0  0
 33 34  1  0  0  0  0
 34 32  1  6  0  0  0
 34 38  1  0  0  0  0
 35 30  1  6  0  0  0
 35 33  1  0  0  0  0
 35 36  1  0  0  0  0
 36 34  1  0  0  0  0
 38 39  2  0  0  0  0
 38 37  1  0  0  0  0
 40 41  1  0  0  0  0
 41 42  1  0  0  0  0
 42 43  1  0  0  0  0
 42 44  2  0  0  0  0
M  END
>  <MODEL>
2

>  <REMARK>
 VINA RESULT:      -7.4      2.564      7.196
  Name = 
  10 active torsions:
  status: ('A' for Active; 'I' for Inactive)
    1  A    between atoms: C_2  and  N_32
    2  A    between atoms: C_5  and  C_11
    3  A    between atoms: C_5  and  N_36
    4  A    between atoms: C_6  and  C_15
    5  A    between atoms: C_6  and  N_32
    6  A    between atoms: C_11  and  C_24
    7  A    between atoms: C_24  and  C_40
    8  A    between atoms: CA_25  and  C_43
    9  A    between atoms: C_26  and  C_37
   10  A    between atoms: C_35  and  C_40
                            x       y       z     vdW  Elec       q    Type
                         _______ _______ _______ _____ _____    ______ ____

>  <TORSDO>
F 10

$$$$
=
 OpenBabel11042418473D

 44 49  0  0  1  0  0  0  0  0999 V2000
  189.3600  173.3740  140.5120 C   0  0  0  0  0  0  0  0  0  0  0  0
  190.6500  171.4430  139.8040 C   0  0  0  0  0  0  0  0  0  0  0  0
  186.3610  176.9600  141.9940 C   0  0  1  0  0  3  0  0  0  0  0  0
  188.5680  174.4040  140.1870 C   0  0  0  0  0  3  0  0  0  0  0  0
  190.5250  172.0420  142.1250 N   0  0  0  0  0  0  0  0  0  0  0  0
  186.4500  177.6950  144.3710 C   0  0  0  0  0  3  0  0  0  0  0  0
  185.5290  178.6400  144.1500 C   0  0  0  0  0  3  0  0  0  0  0  0
  187.2660  177.1400  143.2270 C   0  0  1  0  0  3  0  0  0  0  0  0
  189.8280  172.5320  139.5070 C   0  0  0  0  0  3  0  0  0  0  0  0
  185.2280  179.0590  142.8100 N   0  0  0  0  0  2  0  0  0  0  0  0
  185.6850  178.2800  141.6990 C   0  0  0  0  0  0  0  0  0  0  0  0
  186.8480  176.5670  139.6630 O   0  0  0  0  0  0  0  0  0  0  0  0
  185.4540  178.6690  140.5250 O   0  0  0  0  0  0  0  0  0  0  0  0
  189.8490  174.1480  146.5550 C   0  0  0  0  0  1  0  0  0  0  0  0
  190.9980  171.2100  141.1570 C   0  0  0  0  0  0  0  0  0  0  0  0
  188.0920  175.9000  143.5660 C   0  0  0  0  0  0  0  0  0  0  0  0
  189.7250  173.1090  141.8540 C   0  0  0  0  0  0  0  0  0  0  0  0
  188.0550  175.2830  141.1990 N   0  0  0  0  0  0  0  0  0  0  0  0
  189.3080  173.9020  142.8600 C   0  0  0  0  0  0  0  0  0  0  0  0
  187.1140  176.3100  140.8690 C   0  0  0  0  0  0  0  0  0  0  0  0
  188.6650  175.6850  144.8850 N   0  0  0  0  0  0  0  0  0  0  0  0
  188.4470  175.0630  142.5670 C   0  0  0  0  0  0  0  0  0  0  0  0
  189.6990  173.6480  144.2120 N   0  0  0  0  0  0  0  0  0  0  0  0
  189.3950  174.4690  145.1690 C   0  0  0  0  0  0  0  0  0  0  0  0
  191.0110  168.9660  141.8870 O   0  0  0  0  0  1  0  0  0  0  0  0
  191.8330  170.0530  141.5900 C   0  0  0  0  0  2  0  0  0  0  0  0
  188.7170  176.7570  145.8760 C   0  0  0  0  0  2  0  0  0  0  0  0
  190.0720  177.4340  145.8430 C   0  0  0  0  0  2  0  0  0  0  0  0
  190.3040  178.0110  144.4630 C   0  0  0  0  0  2  0  0  0  0  0  0
  191.7420  177.7700  144.0480 C   0  0  0  0  0  2  0  0  0  0  0  0
  192.4820  175.5780  142.8170 O   0  0  0  0  0  1  0  0  0  0  0  0
  194.8950  175.8910  143.3560 O   0  0  0  0  0  1  0  0  0  0  0  0
  192.6790  175.4120  144.1540 N   0  0  0  0  0  0  0  0  0  0  0  0
  194.0920  175.6590  144.4810 C   0  0  2  0  0  0  0  0  0  0  0  0
  192.3450  176.6460  144.8930 C   0  0  1  0  0  3  0  0  0  0  0  0
  193.7930  176.9430  145.2250 C   0  0  0  0  0  2  0  0  0  0  0  0
  193.9510  173.6200  145.7330 O   0  0  0  0  0  1  0  0  0  0  0  0
  194.6660  174.5890  145.3610 C   0  0  0  0  0  0  0  0  0  0  0  0
  196.0110  174.6220  145.7120 O   0  0  0  0  0  0  0  0  0  0  0  0
  191.0820  170.6250  138.7050 N   0  0  0  0  0  2  0  0  0  0  0  0
  190.3370  170.3530  137.4860 C   0  0  0  0  0  2  0  0  0  0  0  0
  191.0000  171.0220  136.3310 C   0  0  0  0  0  0  0  0  0  0  0  0
  190.3560  171.0030  134.9880 C   0  0  0  0  0  1  0  0  0  0  0  0
  192.0510  171.6170  136.4930 O   0  0  0  0  0  0  0  0  0  0  0  0
  1 17  1  0  0  0  0
  2 15  1  0  0  0  0
  3 20  1  6  0  0  0
  3  8  1  0  0  0  0
  4  1  2  0  0  0  0
  4 18  1  0  0  0  0
  7  6  2  0  0  0  0
  8 16  1  0  0  0  0
  8  6  1  1  0  0  0
  9  2  2  0  0  0  0
  9  1  1  0  0  0  0
 10  7  1  0  0  0  0
 11  3  1  0  0  0  0
 11 10  1  0  0  0  0
 12 20  2  0  0  0  0
 13 11  2  0  0  0  0
 15 26  1  0  0  0  0
 15  5  2  0  0  0  0
 16 21  1  0  0  0  0
 17  5  1  0  0  0  0
 17 19  2  0  0  0  0
 18 22  1  0  0  0  0
 19 23  1  0  0  0  0
 20 18  1  0  0  0  0
 21 24  1  0  0  0  0
 21 27  1  0  0  0  0
 22 19  1  0  0  0  0
 22 16  2  0  0  0  0
 23 24  2  0  0  0  0
 24 14  1  0  0  0  0
 26 25  1  0  0  0  0
 28 27  1  0  0  0  0
 29 28  1  0  0  0  0
 30 29  1  0  0  0  0
 31 33  1  0  0  0  0
 33 34  1  0  0  0  0
 33 35  1  0  0  0  0
 34 32  1  6  0  0  0
 34 36  1  0  0  0  0
 34 38  1  0  0  0  0
 35 30  1  6  0  0  0
 35 36  1  0  0  0  0
 38 39  2  0  0  0  0
 38 37  1  0  0  0  0
 40  2  1  0  0  0  0
 41 40  1  0  0  0  0
 42 44  2  0  0  0  0
 42 41  1  0  0  0  0
 43 42  1  0  0  0  0
M  END
>  <MODEL>
3

>  <REMARK>
 VINA RESULT:      -7.1      2.290      3.165
  Name = 
  10 active torsions:
  status: ('A' for Active; 'I' for Inactive)
    1  A    between atoms: C_2  and  N_32
    2  A    between atoms: C_5  and  C_11
    3  A    between atoms: C_5  and  N_36
    4  A    between atoms: C_6  and  C_15
    5  A    between atoms: C_6  and  N_32
    6  A    between atoms: C_11  and  C_24
    7  A    between atoms: C_24  and  C_40
    8  A    between atoms: CA_25  and  C_43
    9  A    between atoms: C_26  and  C_37
   10  A    between atoms: C_35  and  C_40
                            x       y       z     vdW  Elec       q    Type
                         _______ _______ _______ _____ _____    ______ ____

>  <TORSDO>
F 10

$$$$
=
 OpenBabel11042418473D

 44 49  0  0  1  0  0  0  0  0999 V2000
  188.4750  174.3530  139.5340 C   0  0  0  0  0  0  0  0  0  0  0  0
  189.2120  172.8960  137.7370 C   0  0  0  0  0  0  0  0  0  0  0  0
  186.5810  176.9950  143.2060 C   0  0  1  0  0  3  0  0  0  0  0  0
  187.7840  175.4320  139.9230 C   0  0  0  0  0  3  0  0  0  0  0  0
  189.8390  172.4440  140.0090 N   0  0  0  0  0  0  0  0  0  0  0  0
  187.4470  176.6380  145.5130 C   0  0  0  0  0  3  0  0  0  0  0  0
  186.6510  177.5980  145.9980 C   0  0  0  0  0  3  0  0  0  0  0  0
  187.8140  176.6170  144.0480 C   0  0  1  0  0  3  0  0  0  0  0  0
  188.5100  174.0170  138.1830 C   0  0  0  0  0  3  0  0  0  0  0  0
  186.0470  178.5540  145.1130 N   0  0  0  0  0  2  0  0  0  0  0  0
  186.0510  178.3220  143.7000 C   0  0  0  0  0  0  0  0  0  0  0  0
  186.3250  177.6330  140.8930 O   0  0  0  0  0  0  0  0  0  0  0  0
  185.5580  179.1800  142.9230 O   0  0  0  0  0  0  0  0  0  0  0  0
  190.7630  172.4550  144.8740 C   0  0  0  0  0  1  0  0  0  0  0  0
  189.8910  172.1010  138.6930 C   0  0  0  0  0  0  0  0  0  0  0  0
  188.5100  175.3420  143.5750 C   0  0  0  0  0  0  0  0  0  0  0  0
  189.1620  173.5340  140.4620 C   0  0  0  0  0  0  0  0  0  0  0  0
  187.7150  175.7990  141.3090 N   0  0  0  0  0  0  0  0  0  0  0  0
  189.1680  173.8240  141.7770 C   0  0  0  0  0  0  0  0  0  0  0  0
  186.8800  176.8800  141.7400 C   0  0  0  0  0  0  0  0  0  0  0  0
  189.3950  174.5750  144.4380 N   0  0  0  0  0  0  0  0  0  0  0  0
  188.4410  175.0090  142.2680 C   0  0  0  0  0  0  0  0  0  0  0  0
  189.8850  173.0100  142.7110 N   0  0  0  0  0  0  0  0  0  0  0  0
  189.9880  173.3450  143.9590 C   0  0  0  0  0  0  0  0  0  0  0  0
  190.3440  169.8540  139.2550 O   0  0  0  0  0  1  0  0  0  0  0  0
  190.6350  170.8600  138.3320 C   0  0  0  0  0  2  0  0  0  0  0  0
  189.8830  175.1180  145.7040 C   0  0  0  0  0  2  0  0  0  0  0  0
  191.1240  175.9550  145.4690 C   0  0  0  0  0  2  0  0  0  0  0  0
  192.1640  175.6000  146.5100 C   0  0  0  0  0  2  0  0  0  0  0  0
  193.3740  174.9890  145.8300 C   0  0  0  0  0  2  0  0  0  0  0  0
  195.0140  176.9560  145.2790 O   0  0  0  0  0  1  0  0  0  0  0  0
  196.4700  175.5560  143.8200 O   0  0  0  0  0  1  0  0  0  0  0  0
  194.3400  176.6230  144.1440 N   0  0  0  0  0  0  0  0  0  0  0  0
  195.1780  175.7440  143.3120 C   0  0  2  0  0  0  0  0  0  0  0  0
  193.4500  175.4680  144.3790 C   0  0  1  0  0  3  0  0  0  0  0  0
  194.3040  174.5290  143.5500 C   0  0  0  0  0  2  0  0  0  0  0  0
  196.1460  176.8950  141.4450 O   0  0  0  0  0  1  0  0  0  0  0  0
  195.2030  176.1770  141.8760 C   0  0  0  0  0  0  0  0  0  0  0  0
  194.2250  175.7300  140.9950 O   0  0  0  0  0  0  0  0  0  0  0  0
  189.1910  172.6230  136.3270 N   0  0  0  0  0  2  0  0  0  0  0  0
  189.7560  173.4570  135.2770 C   0  0  0  0  0  2  0  0  0  0  0  0
  191.1900  173.7340  135.5720 C   0  0  0  0  0  0  0  0  0  0  0  0
  191.6160  175.1020  135.9780 C   0  0  0  0  0  1  0  0  0  0  0  0
  192.0090  172.8330  135.5180 O   0  0  0  0  0  0  0  0  0  0  0  0
  1  4  2  0  0  0  0
  1 17  1  0  0  0  0
  2  9  2  0  0  0  0
  2 15  1  0  0  0  0
  3 20  1  6  0  0  0
  3 11  1  0  0  0  0
  3  8  1  0  0  0  0
  4 18  1  0  0  0  0
  5 17  1  0  0  0  0
  6  7  2  0  0  0  0
  8  6  1  1  0  0  0
  9  1  1  0  0  0  0
 10  7  1  0  0  0  0
 11 10  1  0  0  0  0
 12 20  2  0  0  0  0
 13 11  2  0  0  0  0
 15  5  2  0  0  0  0
 16  8  1  0  0  0  0
 16 21  1  0  0  0  0
 17 19  2  0  0  0  0
 18 20  1  0  0  0  0
 18 22  1  0  0  0  0
 19 22  1  0  0  0  0
 19 23  1  0  0  0  0
 21 27  1  0  0  0  0
 22 16  2  0  0  0  0
 23 24  2  0  0  0  0
 24 21  1  0  0  0  0
 24 14  1  0  0  0  0
 26 15  1  0  0  0  0
 26 25  1  0  0  0  0
 28 27  1  0  0  0  0
 28 29  1  0  0  0  0
 30 29  1  0  0  0  0
 33 35  1  0  0  0  0
 33 31  1  0  0  0  0
 34 36  1  0  0  0  0
 34 32  1  1  0  0  0
 34 33  1  0  0  0  0
 35 30  1  1  0  0  0
 36 35  1  0  0  0  0
 37 38  1  0  0  0  0
 38 34  1  0  0  0  0
 39 38  2  0  0  0  0
 40  2  1  0  0  0  0
 41 42  1  0  0  0  0
 41 40  1  0  0  0  0
 42 43  1  0  0  0  0
 44 42  2  0  0  0  0
M  END
>  <MODEL>
4

>  <REMARK>
 VINA RESULT:      -7.0      1.474      1.709
  Name = 
  10 active torsions:
  status: ('A' for Active; 'I' for Inactive)
    1  A    between atoms: C_2  and  N_32
    2  A    between atoms: C_5  and  C_11
    3  A    between atoms: C_5  and  N_36
    4  A    between atoms: C_6  and  C_15
    5  A    between atoms: C_6  and  N_32
    6  A    between atoms: C_11  and  C_24
    7  A    between atoms: C_24  and  C_40
    8  A    between atoms: CA_25  and  C_43
    9  A    between atoms: C_26  and  C_37
   10  A    between atoms: C_35  and  C_40
                            x       y       z     vdW  Elec       q    Type
                         _______ _______ _______ _____ _____    ______ ____

>  <TORSDO>
F 10

$$$$
=
 OpenBabel11042418473D

 44 49  0  0  1  0  0  0  0  0999 V2000
  189.8660  175.5810  143.0140 C   0  0  0  0  0  0  0  0  0  0  0  0
  187.7650  176.2940  144.0000 C   0  0  0  0  0  0  0  0  0  0  0  0
  194.1160  174.5840  140.7810 C   0  0  1  0  0  3  0  0  0  0  0  0
  190.5110  174.9640  142.0160 C   0  0  0  0  0  3  0  0  0  0  0  0
  189.8500  176.7960  145.0770 N   0  0  0  0  0  0  0  0  0  0  0  0
  196.2390  174.9060  142.0410 C   0  0  0  0  0  3  0  0  0  0  0  0
  196.9610  174.4550  141.0090 C   0  0  0  0  0  3  0  0  0  0  0  0
  194.7790  174.5410  142.1700 C   0  0  1  0  0  3  0  0  0  0  0  0
  188.4750  175.6540  142.9830 C   0  0  0  0  0  3  0  0  0  0  0  0
  196.3320  173.7110  139.9540 N   0  0  0  0  0  2  0  0  0  0  0  0
  194.9040  173.6950  139.8460 C   0  0  0  0  0  0  0  0  0  0  0  0
  192.0040  173.7550  139.9600 O   0  0  0  0  0  0  0  0  0  0  0  0
  194.3530  173.0100  138.9460 O   0  0  0  0  0  0  0  0  0  0  0  0
  194.5420  177.1670  146.6130 C   0  0  0  0  0  1  0  0  0  0  0  0
  188.4910  176.8730  145.0690 C   0  0  0  0  0  0  0  0  0  0  0  0
  194.0120  175.3180  143.2390 C   0  0  0  0  0  0  0  0  0  0  0  0
  190.5600  176.1740  144.0960 C   0  0  0  0  0  0  0  0  0  0  0  0
  191.9440  174.8830  142.0080 N   0  0  0  0  0  0  0  0  0  0  0  0
  191.9030  176.1180  144.1770 C   0  0  0  0  0  0  0  0  0  0  0  0
  192.6400  174.3310  140.8850 C   0  0  0  0  0  0  0  0  0  0  0  0
  194.6390  175.7720  144.4700 N   0  0  0  0  0  0  0  0  0  0  0  0
  192.6720  175.4390  143.1190 C   0  0  0  0  0  0  0  0  0  0  0  0
  192.6010  176.6960  145.2840 N   0  0  0  0  0  0  0  0  0  0  0  0
  193.8810  176.5500  145.4250 C   0  0  0  0  0  0  0  0  0  0  0  0
  188.7160  177.7130  147.2630 O   0  0  0  0  0  1  0  0  0  0  0  0
  187.8370  177.6170  146.1830 C   0  0  0  0  0  2  0  0  0  0  0  0
  195.9530  175.2820  144.8800 C   0  0  0  0  0  2  0  0  0  0  0  0
  195.8030  174.0530  145.7540 C   0  0  0  0  0  2  0  0  0  0  0  0
  197.1050  173.2810  145.7500 C   0  0  0  0  0  2  0  0  0  0  0  0
  196.8130  171.7950  145.6730 C   0  0  0  0  0  2  0  0  0  0  0  0
  196.6680  170.0130  143.7580 O   0  0  0  0  0  1  0  0  0  0  0  0
  195.1510  168.5110  145.0430 O   0  0  0  0  0  1  0  0  0  0  0  0
  195.4480  170.6020  143.8950 N   0  0  0  0  0  0  0  0  0  0  0  0
  194.5730  169.7420  144.7070 C   0  0  2  0  0  0  0  0  0  0  0  0
  195.4520  171.5680  145.0120 C   0  0  1  0  0  3  0  0  0  0  0  0
  194.5720  170.6950  145.8850 C   0  0  0  0  0  2  0  0  0  0  0  0
  192.3260  170.4470  144.2560 O   0  0  0  0  0  1  0  0  0  0  0  0
  193.2170  169.5690  144.0910 C   0  0  0  0  0  0  0  0  0  0  0  0
  192.9560  168.4750  143.2730 O   0  0  0  0  0  0  0  0  0  0  0  0
  186.3330  176.3250  143.8850 N   0  0  0  0  0  2  0  0  0  0  0  0
  185.5640  177.0390  142.8770 C   0  0  0  0  0  2  0  0  0  0  0  0
  185.9920  178.4660  142.8350 C   0  0  0  0  0  0  0  0  0  0  0  0
  185.5550  179.4070  143.9030 C   0  0  0  0  0  1  0  0  0  0  0  0
  186.7290  178.8550  141.9470 O   0  0  0  0  0  0  0  0  0  0  0  0
  1 17  1  0  0  0  0
  2 15  1  0  0  0  0
  3 11  1  6  0  0  0
  3 20  1  0  0  0  0
  3  8  1  0  0  0  0
  4  1  2  0  0  0  0
  7  6  2  0  0  0  0
  8  6  1  6  0  0  0
  8 16  1  0  0  0  0
  9  1  1  0  0  0  0
  9  2  2  0  0  0  0
 10  7  1  0  0  0  0
 11 10  1  0  0  0  0
 12 20  2  0  0  0  0
 13 11  2  0  0  0  0
 15  5  2  0  0  0  0
 15 26  1  0  0  0  0
 16 21  1  0  0  0  0
 17 19  2  0  0  0  0
 17  5  1  0  0  0  0
 18  4  1  0  0  0  0
 18 22  1  0  0  0  0
 19 23  1  0  0  0  0
 20 18  1  0  0  0  0
 21 27  1  0  0  0  0
 21 24  1  0  0  0  0
 22 16  2  0  0  0  0
 22 19  1  0  0  0  0
 23 24  2  0  0  0  0
 24 14  1  0  0  0  0
 26 25  1  0  0  0  0
 27 28  1  0  0  0  0
 29 28  1  0  0  0  0
 30 29  1  0  0  0  0
 31 33  1  0  0  0  0
 33 34  1  0  0  0  0
 33 35  1  0  0  0  0
 34 32  1  1  0  0  0
 34 36  1  0  0  0  0
 35 30  1  1  0  0  0
 35 36  1  0  0  0  0
 38 37  1  0  0  0  0
 38 34  1  0  0  0  0
 39 38  2  0  0  0  0
 40  2  1  0  0  0  0
 41 40  1  0  0  0  0
 42 41  1  0  0  0  0
 42 43  1  0  0  0  0
 44 42  2  0  0  0  0
M  END
>  <MODEL>
5

>  <REMARK>
 VINA RESULT:      -6.7      3.431      7.571
  Name = 
  10 active torsions:
  status: ('A' for Active; 'I' for Inactive)
    1  A    between atoms: C_2  and  N_32
    2  A    between atoms: C_5  and  C_11
    3  A    between atoms: C_5  and  N_36
    4  A    between atoms: C_6  and  C_15
    5  A    between atoms: C_6  and  N_32
    6  A    between atoms: C_11  and  C_24
    7  A    between atoms: C_24  and  C_40
    8  A    between atoms: CA_25  and  C_43
    9  A    between atoms: C_26  and  C_37
   10  A    between atoms: C_35  and  C_40
                            x       y       z     vdW  Elec       q    Type
                         _______ _______ _______ _____ _____    ______ ____

>  <TORSDO>
F 10

$$$$
=
 OpenBabel11042418473D

 44 49  0  0  1  0  0  0  0  0999 V2000
  188.9750  174.9460  143.3640 C   0  0  0  0  0  0  0  0  0  0  0  0
  187.8720  176.9960  144.0550 C   0  0  0  0  0  0  0  0  0  0  0  0
  190.7680  170.5690  142.0730 C   0  0  1  0  0  3  0  0  0  0  0  0
  189.7090  173.8750  143.6890 C   0  0  0  0  0  3  0  0  0  0  0  0
  187.7630  176.2630  141.7720 N   0  0  0  0  0  0  0  0  0  0  0  0
  190.8410  169.9650  139.6580 C   0  0  0  0  0  3  0  0  0  0  0  0
  191.4280  168.7940  139.9330 C   0  0  0  0  0  3  0  0  0  0  0  0
  190.9250  171.1110  140.6400 C   0  0  1  0  0  3  0  0  0  0  0  0
  188.6420  175.8700  144.3520 C   0  0  0  0  0  3  0  0  0  0  0  0
  192.0480  168.5760  141.2100 N   0  0  0  0  0  2  0  0  0  0  0  0
  191.7970  169.4820  142.2900 C   0  0  0  0  0  0  0  0  0  0  0  0
  191.1920  171.5480  144.2370 O   0  0  0  0  0  0  0  0  0  0  0  0
  192.3720  169.3120  143.3960 O   0  0  0  0  0  0  0  0  0  0  0  0
  188.2680  174.0850  137.3550 C   0  0  0  0  0  1  0  0  0  0  0  0
  187.4320  177.1800  142.7220 C   0  0  0  0  0  0  0  0  0  0  0  0
  190.0100  172.2940  140.3300 C   0  0  0  0  0  0  0  0  0  0  0  0
  188.5150  175.1610  142.0420 C   0  0  0  0  0  0  0  0  0  0  0  0
  190.0580  172.8960  142.7000 N   0  0  0  0  0  0  0  0  0  0  0  0
  188.8210  174.3030  141.0500 C   0  0  0  0  0  0  0  0  0  0  0  0
  190.7390  171.6920  143.0680 C   0  0  0  0  0  0  0  0  0  0  0  0
  189.6730  172.6800  138.9690 N   0  0  0  0  0  0  0  0  0  0  0  0
  189.6400  173.1120  141.3390 C   0  0  0  0  0  0  0  0  0  0  0  0
  188.3760  174.5350  139.7090 N   0  0  0  0  0  0  0  0  0  0  0  0
  188.7590  173.7750  138.7310 C   0  0  0  0  0  0  0  0  0  0  0  0
  186.2010  178.1700  140.9670 O   0  0  0  0  0  1  0  0  0  0  0  0
  186.5700  178.3230  142.3050 C   0  0  0  0  0  2  0  0  0  0  0  0
  190.3980  172.1360  137.8220 C   0  0  0  0  0  2  0  0  0  0  0  0
  191.4290  173.1340  137.3350 C   0  0  0  0  0  2  0  0  0  0  0  0
  192.7220  172.9200  138.0920 C   0  0  0  0  0  2  0  0  0  0  0  0
  193.0650  174.1730  138.8740 C   0  0  0  0  0  2  0  0  0  0  0  0
  195.4570  174.8940  139.6620 O   0  0  0  0  0  1  0  0  0  0  0  0
  194.5960  176.4330  141.4230 O   0  0  0  0  0  1  0  0  0  0  0  0
  194.8730  174.1710  140.6570 N   0  0  0  0  0  0  0  0  0  0  0  0
  194.3090  175.0830  141.6650 C   0  0  2  0  0  0  0  0  0  0  0  0
  193.4910  173.7970  140.2950 C   0  0  1  0  0  3  0  0  0  0  0  0
  192.8770  174.7460  141.3060 C   0  0  0  0  0  2  0  0  0  0  0  0
  195.7090  175.1500  143.6110 O   0  0  0  0  0  0  0  0  0  0  0  0
  194.6750  174.6790  143.0630 C   0  0  0  0  0  0  0  0  0  0  0  0
  193.8370  173.8400  143.7880 O   0  0  0  0  0  1  0  0  0  0  0  0
  187.5740  177.8930  145.1370 N   0  0  0  0  0  2  0  0  0  0  0  0
  186.7790  177.5880  146.3170 C   0  0  0  0  0  2  0  0  0  0  0  0
  185.3910  178.0970  146.1340 C   0  0  0  0  0  0  0  0  0  0  0  0
  185.1580  179.4020  145.4540 C   0  0  0  0  0  1  0  0  0  0  0  0
  184.4430  177.4290  146.5070 O   0  0  0  0  0  0  0  0  0  0  0  0
  1  4  2  0  0  0  0
  1  9  1  0  0  0  0
  2  9  2  0  0  0  0
  2 40  1  0  0  0  0
  3 11  1  1  0  0  0
  3 20  1  0  0  0  0
  5 17  1  0  0  0  0
  5 15  2  0  0  0  0
  6  7  2  0  0  0  0
  7 10  1  0  0  0  0
  8  6  1  6  0  0  0
  8  3  1  0  0  0  0
 10 11  1  0  0  0  0
 11 13  2  0  0  0  0
 14 24  1  0  0  0  0
 15  2  1  0  0  0  0
 16  8  1  0  0  0  0
 16 22  2  0  0  0  0
 17  1  1  0  0  0  0
 18 20  1  0  0  0  0
 18  4  1  0  0  0  0
 19 22  1  0  0  0  0
 19 17  2  0  0  0  0
 20 12  2  0  0  0  0
 21 16  1  0  0  0  0
 22 18  1  0  0  0  0
 23 19  1  0  0  0  0
 24 21  1  0  0  0  0
 24 23  2  0  0  0  0
 25 26  1  0  0  0  0
 26 15  1  0  0  0  0
 27 21  1  0  0  0  0
 28 27  1  0  0  0  0
 28 29  1  0  0  0  0
 29 30  1  0  0  0  0
 31 33  1  0  0  0  0
 33 34  1  0  0  0  0
 34 32  1  6  0  0  0
 34 38  1  0  0  0  0
 35 30  1  6  0  0  0
 35 33  1  0  0  0  0
 35 36  1  0  0  0  0
 36 34  1  0  0  0  0
 38 37  2  0  0  0  0
 38 39  1  0  0  0  0
 40 41  1  0  0  0  0
 42 41  1  0  0  0  0
 42 44  2  0  0  0  0
 43 42  1  0  0  0  0
M  END
>  <MODEL>
6

>  <REMARK>
 VINA RESULT:      -6.6      2.557      7.844
  Name = 
  10 active torsions:
  status: ('A' for Active; 'I' for Inactive)
    1  A    between atoms: C_2  and  N_32
    2  A    between atoms: C_5  and  C_11
    3  A    between atoms: C_5  and  N_36
    4  A    between atoms: C_6  and  C_15
    5  A    between atoms: C_6  and  N_32
    6  A    between atoms: C_11  and  C_24
    7  A    between atoms: C_24  and  C_40
    8  A    between atoms: CA_25  and  C_43
    9  A    between atoms: C_26  and  C_37
   10  A    between atoms: C_35  and  C_40
                            x       y       z     vdW  Elec       q    Type
                         _______ _______ _______ _____ _____    ______ ____

>  <TORSDO>
F 10

$$$$
=
 OpenBabel11042418473D

 44 49  0  0  1  0  0  0  0  0999 V2000
  191.4650  171.9220  140.9560 C   0  0  0  0  0  0  0  0  0  0  0  0
  189.8320  171.5770  139.1930 C   0  0  0  0  0  0  0  0  0  0  0  0
  195.0750  172.7940  144.1590 C   0  0  1  0  0  3  0  0  0  0  0  0
  192.4800  171.4430  141.6860 C   0  0  0  0  0  3  0  0  0  0  0  0
  189.9420  173.6710  140.3600 N   0  0  0  0  0  0  0  0  0  0  0  0
  195.0020  174.8830  145.5120 C   0  0  0  0  0  3  0  0  0  0  0  0
  196.1180  174.5400  146.1650 C   0  0  0  0  0  3  0  0  0  0  0  0
  194.1570  173.8280  144.8370 C   0  0  1  0  0  3  0  0  0  0  0  0
  190.8880  171.1140  139.9800 C   0  0  0  0  0  3  0  0  0  0  0  0
  196.5850  173.1820  146.1400 N   0  0  0  0  0  2  0  0  0  0  0  0
  196.0380  172.2570  145.1940 C   0  0  0  0  0  0  0  0  0  0  0  0
  194.6580  170.5960  143.2530 O   0  0  0  0  0  0  0  0  0  0  0  0
  196.4190  171.0580  145.1990 O   0  0  0  0  0  0  0  0  0  0  0  0
  190.7870  177.4770  143.4120 C   0  0  0  0  0  1  0  0  0  0  0  0
  189.3600  172.8950  139.4050 C   0  0  0  0  0  0  0  0  0  0  0  0
  193.0620  174.3690  143.9180 C   0  0  0  0  0  0  0  0  0  0  0  0
  190.9700  173.2360  141.1390 C   0  0  0  0  0  0  0  0  0  0  0  0
  193.1090  172.2540  142.6900 N   0  0  0  0  0  0  0  0  0  0  0  0
  191.4870  174.0510  142.0780 C   0  0  0  0  0  0  0  0  0  0  0  0
  194.2690  171.7890  143.3880 C   0  0  0  0  0  0  0  0  0  0  0  0
  192.3760  175.6240  144.1820 N   0  0  0  0  0  0  0  0  0  0  0  0
  192.5950  173.5790  142.9270 C   0  0  0  0  0  0  0  0  0  0  0  0
  190.9670  175.3690  142.2790 N   0  0  0  0  0  0  0  0  0  0  0  0
  191.3840  176.1170  143.2530 C   0  0  0  0  0  0  0  0  0  0  0  0
  188.8130  174.1310  137.4700 O   0  0  0  0  0  1  0  0  0  0  0  0
  188.2690  173.5050  138.5930 C   0  0  0  0  0  2  0  0  0  0  0  0
  192.4980  176.3010  145.4720 C   0  0  0  0  0  2  0  0  0  0  0  0
  191.5780  175.6570  146.4890 C   0  0  0  0  0  2  0  0  0  0  0  0
  190.6010  176.6940  146.9990 C   0  0  0  0  0  2  0  0  0  0  0  0
  189.1900  176.2920  146.6160 C   0  0  0  0  0  2  0  0  0  0  0  0
  187.7080  176.3670  144.4570 O   0  0  0  0  0  1  0  0  0  0  0  0
  185.5640  176.4030  145.7270 O   0  0  0  0  0  1  0  0  0  0  0  0
  187.5820  177.5550  145.1100 N   0  0  0  0  0  0  0  0  0  0  0  0
  186.3470  177.5510  145.9100 C   0  0  2  0  0  0  0  0  0  0  0  0
  188.3420  177.5440  146.3760 C   0  0  1  0  0  3  0  0  0  0  0  0
  187.0890  177.5130  147.2290 C   0  0  0  0  0  2  0  0  0  0  0  0
  184.5470  179.0380  146.4570 O   0  0  0  0  0  1  0  0  0  0  0  0
  185.5450  178.8050  145.7220 C   0  0  0  0  0  0  0  0  0  0  0  0
  185.9410  179.7520  144.7850 O   0  0  0  0  0  0  0  0  0  0  0  0
  189.3010  170.6760  138.2080 N   0  0  0  0  0  2  0  0  0  0  0  0
  189.9970  170.1720  137.0340 C   0  0  0  0  0  2  0  0  0  0  0  0
  190.1970  171.2770  136.0550 C   0  0  0  0  0  0  0  0  0  0  0  0
  191.4890  172.0160  136.0200 C   0  0  0  0  0  1  0  0  0  0  0  0
  189.3180  171.5520  135.2570 O   0  0  0  0  0  0  0  0  0  0  0  0
  1 17  1  0  0  0  0
  1  4  2  0  0  0  0
  2 15  1  0  0  0  0
  2  9  2  0  0  0  0
  3 20  1  1  0  0  0
  3  8  1  0  0  0  0
  3 11  1  0  0  0  0
  4 18  1  0  0  0  0
  5 17  1  0  0  0  0
  6  7  2  0  0  0  0
  8  6  1  6  0  0  0
  9  1  1  0  0  0  0
 10  7  1  0  0  0  0
 11 13  2  0  0  0  0
 11 10  1  0  0  0  0
 12 20  2  0  0  0  0
 15  5  2  0  0  0  0
 16 21  1  0  0  0  0
 16  8  1  0  0  0  0
 17 19  2  0  0  0  0
 18 22  1  0  0  0  0
 18 20  1  0  0  0  0
 19 23  1  0  0  0  0
 19 22  1  0  0  0  0
 21 27  1  0  0  0  0
 22 16  2  0  0  0  0
 23 24  2  0  0  0  0
 24 14  1  0  0  0  0
 24 21  1  0  0  0  0
 25 26  1  0  0  0  0
 26 15  1  0  0  0  0
 27 28  1  0  0  0  0
 28 29  1  0  0  0  0
 30 29  1  0  0  0  0
 31 33  1  0  0  0  0
 33 34  1  0  0  0  0
 33 35  1  0  0  0  0
 34 32  1  6  0  0  0
 34 36  1  0  0  0  0
 35 30  1  6  0  0  0
 35 36  1  0  0  0  0
 38 34  1  0  0  0  0
 38 37  1  0  0  0  0
 39 38  2  0  0  0  0
 40  2  1  0  0  0  0
 41 40  1  0  0  0  0
 42 41  1  0  0  0  0
 43 42  1  0  0  0  0
 44 42  2  0  0  0  0
M  END
>  <MODEL>
7

>  <REMARK>
 VINA RESULT:      -6.6      2.903      7.179
  Name = 
  10 active torsions:
  status: ('A' for Active; 'I' for Inactive)
    1  A    between atoms: C_2  and  N_32
    2  A    between atoms: C_5  and  C_11
    3  A    between atoms: C_5  and  N_36
    4  A    between atoms: C_6  and  C_15
    5  A    between atoms: C_6  and  N_32
    6  A    between atoms: C_11  and  C_24
    7  A    between atoms: C_24  and  C_40
    8  A    between atoms: CA_25  and  C_43
    9  A    between atoms: C_26  and  C_37
   10  A    between atoms: C_35  and  C_40
                            x       y       z     vdW  Elec       q    Type
                         _______ _______ _______ _____ _____    ______ ____

>  <TORSDO>
F 10

$$$$
=
 OpenBabel11042418473D

 44 49  0  0  1  0  0  0  0  0999 V2000
  190.4310  175.1930  144.2920 C   0  0  0  0  0  0  0  0  0  0  0  0
  192.4250  174.1480  143.3840 C   0  0  0  0  0  0  0  0  0  0  0  0
  186.6600  177.7390  146.1210 C   0  0  1  0  0  3  0  0  0  0  0  0
  189.7200  175.5640  145.3650 C   0  0  0  0  0  3  0  0  0  0  0  0
  190.7530  175.0600  141.9230 N   0  0  0  0  0  0  0  0  0  0  0  0
  184.8360  178.4540  144.5830 C   0  0  0  0  0  3  0  0  0  0  0  0
  184.1500  178.9990  145.5950 C   0  0  0  0  0  3  0  0  0  0  0  0
  185.8670  177.3820  144.8490 C   0  0  1  0  0  3  0  0  0  0  0  0
  191.6500  174.5450  144.4750 C   0  0  0  0  0  3  0  0  0  0  0  0
  184.4620  178.6520  146.9530 N   0  0  0  0  0  2  0  0  0  0  0  0
  185.6800  177.9590  147.2500 C   0  0  0  0  0  0  0  0  0  0  0  0
  188.1490  176.4570  147.5210 O   0  0  0  0  0  0  0  0  0  0  0  0
  185.9330  177.6200  148.4360 O   0  0  0  0  0  0  0  0  0  0  0  0
  186.7380  176.9990  139.7710 C   0  0  0  0  0  1  0  0  0  0  0  0
  191.9450  174.4210  142.0800 C   0  0  0  0  0  0  0  0  0  0  0  0
  186.7520  177.0290  143.6550 C   0  0  0  0  0  0  0  0  0  0  0  0
  189.9830  175.4520  142.9750 C   0  0  0  0  0  0  0  0  0  0  0  0
  188.4670  176.2460  145.2140 N   0  0  0  0  0  0  0  0  0  0  0  0
  188.8050  176.0640  142.7470 C   0  0  0  0  0  0  0  0  0  0  0  0
  187.7640  176.7500  146.3560 C   0  0  0  0  0  0  0  0  0  0  0  0
  186.2670  177.0840  142.2850 N   0  0  0  0  0  0  0  0  0  0  0  0
  187.9660  176.4840  143.8850 C   0  0  0  0  0  0  0  0  0  0  0  0
  188.3420  176.3030  141.4140 N   0  0  0  0  0  0  0  0  0  0  0  0
  187.1620  176.7900  141.1870 C   0  0  0  0  0  0  0  0  0  0  0  0
  193.6170  175.1020  140.5600 O   0  0  0  0  0  1  0  0  0  0  0  0
  192.7100  174.0800  140.8470 C   0  0  0  0  0  2  0  0  0  0  0  0
  184.8430  177.2140  141.9870 C   0  0  0  0  0  2  0  0  0  0  0  0
  184.5290  178.6290  141.5450 C   0  0  0  0  0  2  0  0  0  0  0  0
  183.5550  178.5810  140.3870 C   0  0  0  0  0  2  0  0  0  0  0  0
  182.2590  177.9360  140.8410 C   0  0  0  0  0  2  0  0  0  0  0  0
  180.0150  177.5270  139.5530 O   0  0  0  0  0  1  0  0  0  0  0  0
  178.6560  177.3600  141.6350 O   0  0  0  0  0  1  0  0  0  0  0  0
  179.9510  178.7450  140.1570 N   0  0  0  0  0  0  0  0  0  0  0  0
  179.2020  178.6320  141.4190 C   0  0  2  0  0  0  0  0  0  0  0  0
  181.1650  178.9990  140.9590 C   0  0  1  0  0  3  0  0  0  0  0  0
  180.4280  178.8640  142.2770 C   0  0  0  0  0  2  0  0  0  0  0  0
  177.6920  179.9850  142.6990 O   0  0  0  0  0  1  0  0  0  0  0  0
  178.1710  179.7110  141.5640 C   0  0  0  0  0  0  0  0  0  0  0  0
  177.7900  180.4660  140.4600 O   0  0  0  0  0  0  0  0  0  0  0  0
  193.6710  173.4900  143.6650 N   0  0  0  0  0  2  0  0  0  0  0  0
  194.6840  173.9280  144.6120 C   0  0  0  0  0  2  0  0  0  0  0  0
  195.6010  174.9010  143.9530 C   0  0  0  0  0  0  0  0  0  0  0  0
  195.5910  176.3320  144.3650 C   0  0  0  0  0  1  0  0  0  0  0  0
  196.3850  174.5190  143.1020 O   0  0  0  0  0  0  0  0  0  0  0  0
  1  9  1  0  0  0  0
  1  4  2  0  0  0  0
  2 40  1  0  0  0  0
  2  9  2  0  0  0  0
  3 20  1  1  0  0  0
  3 11  1  0  0  0  0
  5 15  2  0  0  0  0
  5 17  1  0  0  0  0
  6  7  2  0  0  0  0
  7 10  1  0  0  0  0
  8  6  1  6  0  0  0
  8  3  1  0  0  0  0
 10 11  1  0  0  0  0
 11 13  2  0  0  0  0
 14 24  1  0  0  0  0
 15  2  1  0  0  0  0
 16 22  2  0  0  0  0
 16  8  1  0  0  0  0
 17  1  1  0  0  0  0
 18  4  1  0  0  0  0
 18 20  1  0  0  0  0
 19 17  2  0  0  0  0
 19 22  1  0  0  0  0
 20 12  2  0  0  0  0
 21 16  1  0  0  0  0
 22 18  1  0  0  0  0
 23 19  1  0  0  0  0
 24 23  2  0  0  0  0
 24 21  1  0  0  0  0
 25 26  1  0  0  0  0
 26 15  1  0  0  0  0
 27 21  1  0  0  0  0
 28 27  1  0  0  0  0
 29 30  1  0  0  0  0
 29 28  1  0  0  0  0
 31 33  1  0  0  0  0
 33 35  1  0  0  0  0
 33 34  1  0  0  0  0
 34 38  1  0  0  0  0
 34 32  1  1  0  0  0
 34 36  1  0  0  0  0
 35 30  1  1  0  0  0
 35 36  1  0  0  0  0
 38 37  1  0  0  0  0
 39 38  2  0  0  0  0
 40 41  1  0  0  0  0
 42 43  1  0  0  0  0
 42 41  1  0  0  0  0
 44 42  2  0  0  0  0
M  END
>  <MODEL>
8

>  <REMARK>
 VINA RESULT:      -6.4      3.844      9.169
  Name = 
  10 active torsions:
  status: ('A' for Active; 'I' for Inactive)
    1  A    between atoms: C_2  and  N_32
    2  A    between atoms: C_5  and  C_11
    3  A    between atoms: C_5  and  N_36
    4  A    between atoms: C_6  and  C_15
    5  A    between atoms: C_6  and  N_32
    6  A    between atoms: C_11  and  C_24
    7  A    between atoms: C_24  and  C_40
    8  A    between atoms: CA_25  and  C_43
    9  A    between atoms: C_26  and  C_37
   10  A    between atoms: C_35  and  C_40
                            x       y       z     vdW  Elec       q    Type
                         _______ _______ _______ _____ _____    ______ ____

>  <TORSDO>
F 10

$$$$
=
 OpenBabel11042418473D

 44 49  0  0  1  0  0  0  0  0999 V2000
  188.4100  176.7840  143.7400 C   0  0  0  0  0  0  0  0  0  0  0  0
  186.5970  178.3960  143.6430 C   0  0  0  0  0  0  0  0  0  0  0  0
  191.7530  173.2220  144.1770 C   0  0  1  0  0  3  0  0  0  0  0  0
  189.4690  176.2890  144.3930 C   0  0  0  0  0  3  0  0  0  0  0  0
  186.8850  176.7770  141.8940 N   0  0  0  0  0  0  0  0  0  0  0  0
  192.1690  171.7210  142.2350 C   0  0  0  0  0  3  0  0  0  0  0  0
  193.1300  171.0690  142.9010 C   0  0  0  0  0  3  0  0  0  0  0  0
  191.7740  173.1220  142.6410 C   0  0  1  0  0  3  0  0  0  0  0  0
  187.7110  177.8550  144.2890 C   0  0  0  0  0  3  0  0  0  0  0  0
  193.7190  171.6480  144.0750 N   0  0  0  0  0  2  0  0  0  0  0  0
  193.0960  172.7720  144.7060 C   0  0  0  0  0  0  0  0  0  0  0  0
  191.6720  175.1070  145.6820 O   0  0  0  0  0  0  0  0  0  0  0  0
  193.6350  173.3040  145.7110 O   0  0  0  0  0  0  0  0  0  0  0  0
  188.3860  173.2660  138.7430 C   0  0  0  0  0  1  0  0  0  0  0  0
  186.1900  177.8270  142.4110 C   0  0  0  0  0  0  0  0  0  0  0  0
  190.5060  173.6520  141.9750 C   0  0  0  0  0  0  0  0  0  0  0  0
  187.9740  176.2390  142.5080 C   0  0  0  0  0  0  0  0  0  0  0  0
  190.2050  175.1770  143.8640 N   0  0  0  0  0  0  0  0  0  0  0  0
  188.6250  175.2110  141.9310 C   0  0  0  0  0  0  0  0  0  0  0  0
  191.2610  174.5710  144.6170 C   0  0  0  0  0  0  0  0  0  0  0  0
  190.1220  173.2770  140.6230 N   0  0  0  0  0  0  0  0  0  0  0  0
  189.8090  174.6320  142.5910 C   0  0  0  0  0  0  0  0  0  0  0  0
  188.1980  174.6780  140.6730 N   0  0  0  0  0  0  0  0  0  0  0  0
  188.8840  173.7660  140.0590 C   0  0  0  0  0  0  0  0  0  0  0  0
  185.1610  178.0420  140.2980 O   0  0  0  0  0  1  0  0  0  0  0  0
  184.9920  178.2980  141.6590 C   0  0  0  0  0  2  0  0  0  0  0  0
  191.0550  172.5940  139.7300 C   0  0  0  0  0  2  0  0  0  0  0  0
  191.9090  173.6060  138.9930 C   0  0  0  0  0  2  0  0  0  0  0  0
  191.8840  173.2910  137.5130 C   0  0  0  0  0  2  0  0  0  0  0  0
  193.3040  173.2260  136.9850 C   0  0  0  0  0  2  0  0  0  0  0  0
  195.2720  174.5150  138.1390 O   0  0  0  0  0  1  0  0  0  0  0  0
  196.7590  174.3700  136.1450 O   0  0  0  0  0  1  0  0  0  0  0  0
  194.7730  175.2920  137.1390 N   0  0  0  0  0  0  0  0  0  0  0  0
  195.6170  175.1570  135.9410 C   0  0  2  0  0  0  0  0  0  0  0  0
  193.7050  174.5840  136.4050 C   0  0  1  0  0  3  0  0  0  0  0  0
  194.5570  174.4050  135.1630 C   0  0  0  0  0  2  0  0  0  0  0  0
  197.1640  176.8230  135.1820 O   0  0  0  0  0  1  0  0  0  0  0  0
  195.9590  176.4850  135.3350 C   0  0  0  0  0  0  0  0  0  0  0  0
  194.9490  177.3210  134.8720 O   0  0  0  0  0  0  0  0  0  0  0  0
  185.9340  179.4960  144.2840 N   0  0  0  0  0  2  0  0  0  0  0  0
  184.7840  179.4130  145.1730 C   0  0  0  0  0  2  0  0  0  0  0  0
  185.1560  178.6640  146.4060 C   0  0  0  0  0  0  0  0  0  0  0  0
  184.7970  177.2250  146.5410 C   0  0  0  0  0  1  0  0  0  0  0  0
  185.7860  179.2180  147.2900 O   0  0  0  0  0  0  0  0  0  0  0  0
  1  9  1  0  0  0  0
  1  4  2  0  0  0  0
  2 40  1  0  0  0  0
  2  9  2  0  0  0  0
  3 20  1  6  0  0  0
  3 11  1  0  0  0  0
  5 15  2  0  0  0  0
  5 17  1  0  0  0  0
  6  7  2  0  0  0  0
  7 10  1  0  0  0  0
  8  6  1  1  0  0  0
  8  3  1  0  0  0  0
 10 11  1  0  0  0  0
 11 13  2  0  0  0  0
 14 24  1  0  0  0  0
 15  2  1  0  0  0  0
 16 22  2  0  0  0  0
 16  8  1  0  0  0  0
 17  1  1  0  0  0  0
 18  4  1  0  0  0  0
 18 20  1  0  0  0  0
 19 17  2  0  0  0  0
 19 22  1  0  0  0  0
 20 12  2  0  0  0  0
 21 16  1  0  0  0  0
 22 18  1  0  0  0  0
 23 19  1  0  0  0  0
 24 21  1  0  0  0  0
 24 23  2  0  0  0  0
 25 26  1  0  0  0  0
 26 15  1  0  0  0  0
 27 21  1  0  0  0  0
 28 27  1  0  0  0  0
 29 28  1  0  0  0  0
 30 29  1  0  0  0  0
 33 31  1  0  0  0  0
 34 32  1  1  0  0  0
 34 33  1  0  0  0  0
 35 30  1  1  0  0  0
 35 33  1  0  0  0  0
 36 34  1  0  0  0  0
 36 35  1  0  0  0  0
 37 38  1  0  0  0  0
 38 34  1  0  0  0  0
 39 38  2  0  0  0  0
 40 41  1  0  0  0  0
 41 42  1  0  0  0  0
 42 43  1  0  0  0  0
 42 44  2  0  0  0  0
M  END
>  <MODEL>
9

>  <REMARK>
 VINA RESULT:      -6.4      3.434      8.016
  Name = 
  10 active torsions:
  status: ('A' for Active; 'I' for Inactive)
    1  A    between atoms: C_2  and  N_32
    2  A    between atoms: C_5  and  C_11
    3  A    between atoms: C_5  and  N_36
    4  A    between atoms: C_6  and  C_15
    5  A    between atoms: C_6  and  N_32
    6  A    between atoms: C_11  and  C_24
    7  A    between atoms: C_24  and  C_40
    8  A    between atoms: CA_25  and  C_43
    9  A    between atoms: C_26  and  C_37
   10  A    between atoms: C_35  and  C_40
                            x       y       z     vdW  Elec       q    Type
                         _______ _______ _______ _____ _____    ______ ____

>  <TORSDO>
F 10

$$$$
