=
 OpenBabel11042416203D

 66 70  0  0  1  0  0  0  0  0999 V2000
  189.1340  174.4200  143.0900 C   0  0  0  0  0  2  0  0  0  0  0  0
  188.1170  173.8670  142.1200 C   0  0  2  0  0  3  0  0  0  0  0  0
  190.3500  173.4220  141.2510 C   0  0  2  0  0  3  0  0  0  0  0  0
  190.4210  173.7100  142.7480 C   0  0  0  0  0  2  0  0  0  0  0  0
  188.8900  173.5930  140.8500 C   0  0  0  0  0  2  0  0  0  0  0  0
  192.0470  171.7450  140.4200 C   0  0  0  0  0  0  0  0  0  0  0  0
  190.7550  172.0530  140.9740 N   0  0  0  0  0  2  0  0  0  0  0  0
  192.2500  170.6180  139.7750 N   0  0  0  0  0  0  0  0  0  0  0  0
  191.2750  169.5810  139.5640 C   0  0  0  0  0  0  0  0  0  0  0  0
  191.2810  168.5230  140.2580 O   0  0  0  0  0  0  0  0  0  0  0  0
  190.1730  169.8040  138.5800 C   0  0  0  0  0  2  0  0  0  0  0  0
  190.6790  169.6840  137.1470 C   0  0  0  0  0  2  0  0  0  0  0  0
  189.8650  170.4600  136.2650 O   0  0  0  0  0  0  0  0  0  0  0  0
  190.4060  171.2170  135.2170 C   0  0  0  0  0  0  0  0  0  0  0  0
  191.5240  170.9230  134.7210 O   0  0  0  0  0  0  0  0  0  0  0  0
  189.7260  172.3350  134.7570 O   0  0  0  0  0  1  0  0  0  0  0  0
  194.2570  172.4760  140.9840 C   0  0  0  0  0  3  0  0  0  0  0  0
  193.0850  172.7270  140.5060 N   0  0  0  0  0  0  0  0  0  0  0  0
  195.2760  173.5700  140.9930 C   0  0  0  0  0  2  0  0  0  0  0  0
  195.6740  174.0010  139.6200 C   0  0  0  0  0  0  0  0  0  0  0  0
  196.2390  173.0900  138.6430 C   0  0  0  0  0  3  0  0  0  0  0  0
  195.3020  175.1220  139.0930 N   0  0  0  0  0  0  0  0  0  0  0  0
  196.2050  173.7420  137.4890 C   0  0  0  0  0  0  0  0  0  0  0  0
  195.6730  175.1280  137.6790 C   0  0  1  0  0  3  0  0  0  0  0  0
  191.5100  175.7150  135.6730 C   0  0  0  0  0  2  0  0  0  0  0  0
  192.0760  174.5540  136.4570 C   0  0  0  0  0  2  0  0  0  0  0  0
  193.6330  176.7860  134.9510 C   0  0  0  0  0  0  0  0  0  0  0  0
  193.7970  177.9620  134.5260 O   0  0  0  0  0  0  0  0  0  0  0  0
  192.4220  176.0160  134.5130 C   0  0  0  0  0  2  0  0  0  0  0  0
  194.6270  176.2300  135.8190 N   0  0  0  0  0  0  0  0  0  0  0  0
  194.4800  175.3870  136.8040 C   0  0  0  0  0  0  0  0  0  0  0  0
  193.1860  174.9850  137.2870 N   0  0  0  0  0  2  0  0  0  0  0  0
  196.7080  173.1800  136.1940 C   0  0  0  0  0  2  0  0  0  0  0  0
  195.7330  172.3660  135.6310 O   0  0  0  0  0  0  0  0  0  0  0  0
  196.2690  170.7610  135.7660 P   0  0  0  0  0  0  0  0  0  0  0  0
  195.9380  170.1500  137.1140 O   0  0  0  0  0  1  0  0  0  0  0  0
  197.9410  170.6930  135.5100 O   0  0  0  0  0  1  0  0  0  0  0  0
  195.5020  169.8280  134.5740 O   0  0  0  0  0  0  0  0  0  0  0  0
  187.0580  174.7970  141.8990 O   0  0  0  0  0  0  0  0  0  0  0  0
  187.3810  176.7330  140.6730 O   0  0  0  0  0  0  0  0  0  0  0  0
  187.3030  176.1650  141.8050 C   0  0  0  0  0  0  0  0  0  0  0  0
  188.3850  178.2630  143.0980 S   0  0  0  0  0  0  0  0  0  0  0  0
  187.3750  176.9860  143.0370 C   0  0  1  0  0  3  0  0  0  0  0  0
  185.0200  178.4020  143.3910 O   0  0  0  0  0  1  0  0  0  0  0  0
  186.3490  178.6310  146.2270 C   0  0  0  0  0  2  0  0  0  0  0  0
  185.1490  177.4020  144.3700 C   0  0  1  0  0  3  0  0  0  0  0  0
  187.5360  177.6830  145.9920 C   0  0  0  0  0  2  0  0  0  0  0  0
  186.4850  176.6150  144.2060 C   0  0  2  0  0  3  0  0  0  0  0  0
  187.1690  176.4400  145.4360 O   0  0  0  0  0  0  0  0  0  0  0  0
  183.9990  178.9320  145.8600 O   0  0  0  0  0  1  0  0  0  0  0  0
  185.0360  177.9990  145.7840 C   0  0  2  0  0  3  0  0  0  0  0  0
  190.0050  177.5490  142.7790 C   0  0  0  0  0  2  0  0  0  0  0  0
  190.8910  177.8030  143.9870 C   0  0  0  0  0  2  0  0  0  0  0  0
  192.2840  177.2070  143.8320 C   0  0  0  0  0  2  0  0  0  0  0  0
  192.8990  176.6850  145.1370 C   0  0  2  0  0  3  0  0  0  0  0  0
  194.3780  176.4010  144.9700 C   0  0  0  0  0  2  0  0  0  0  0  0
  194.7310  176.3310  143.4970 C   0  0  0  0  0  1  0  0  0  0  0  0
  192.1890  175.4070  145.5780 C   0  0  0  0  0  2  0  0  0  0  0  0
  193.0710  174.4900  146.4150 C   0  0  0  0  0  2  0  0  0  0  0  0
  193.5150  173.3460  145.5710 C   0  0  0  0  0  0  0  0  0  0  0  0
  192.6880  172.4370  145.0410 N   0  0  0  0  0  0  0  0  0  0  0  0
  194.8260  173.0280  145.2950 C   0  0  0  0  0  3  0  0  0  0  0  0
  193.5250  171.5730  144.4410 C   0  0  0  0  0  0  0  0  0  0  0  0
  194.8190  171.8840  144.5880 N   0  0  0  0  0  2  0  0  0  0  0  0
  193.0570  170.3080  143.8170 C   0  0  0  0  0  2  0  0  0  0  0  0
  193.6560  169.1070  144.5230 C   0  0  0  0  0  1  0  0  0  0  0  0
  2 39  1  6  0  0  0
  2  1  1  0  0  0  0
  3  7  1  1  0  0  0
  3  4  1  0  0  0  0
  4  1  1  0  0  0  0
  5  3  1  0  0  0  0
  5  2  1  0  0  0  0
  6 18  1  0  0  0  0
  6  7  1  0  0  0  0
  8  6  2  0  0  0  0
  9  8  1  0  0  0  0
  9 10  2  0  0  0  0
 11  9  1  0  0  0  0
 12 11  1  0  0  0  0
 13 12  1  0  0  0  0
 14 13  1  0  0  0  0
 15 14  2  0  0  0  0
 16 14  1  0  0  0  0
 17 19  1  0  0  0  0
 18 17  2  0  0  0  0
 20 19  1  0  0  0  0
 21 20  1  0  0  0  0
 22 20  2  0  0  0  0
 23 24  1  0  0  0  0
 23 21  2  0  0  0  0
 24 31  1  6  0  0  0
 24 22  1  0  0  0  0
 25 26  1  0  0  0  0
 26 32  1  0  0  0  0
 27 30  1  0  0  0  0
 28 27  2  0  0  0  0
 29 27  1  0  0  0  0
 29 25  1  0  0  0  0
 30 31  2  0  0  0  0
 31 32  1  0  0  0  0
 33 23  1  0  0  0  0
 34 35  1  0  0  0  0
 34 33  1  0  0  0  0
 35 36  1  0  0  0  0
 37 35  1  0  0  0  0
 38 35  2  0  0  0  0
 40 41  2  0  0  0  0
 41 39  1  0  0  0  0
 43 41  1  6  0  0  0
 43 42  1  0  0  0  0
 46 44  1  6  0  0  0
 46 51  1  0  0  0  0
 47 45  1  0  0  0  0
 48 43  1  6  0  0  0
 48 46  1  0  0  0  0
 48 49  1  0  0  0  0
 49 47  1  0  0  0  0
 51 50  1  6  0  0  0
 51 45  1  0  0  0  0
 52 42  1  0  0  0  0
 52 53  1  0  0  0  0
 54 53  1  0  0  0  0
 55 54  1  6  0  0  0
 55 58  1  0  0  0  0
 56 55  1  0  0  0  0
 57 56  1  0  0  0  0
 58 59  1  0  0  0  0
 60 59  1  0  0  0  0
 61 60  1  0  0  0  0
 62 60  2  0  0  0  0
 63 64  1  0  0  0  0
 63 61  2  0  0  0  0
 64 62  1  0  0  0  0
 65 63  1  0  0  0  0
 65 66  1  0  0  0  0
M  END
>  <MODEL>
1

>  <REMARK>
 VINA RESULT:      -5.1      0.000      0.000
  Name = 
  26 active torsions:
  status: ('A' for Active; 'I' for Inactive)
    1  A    between atoms: C_2  and  O_50
    2  A    between atoms: C_3  and  O_65
    3  A    between atoms: C_4  and  C_36
    4  A    between atoms: C_4  and  C_48
    5  A    between atoms: C_5  and  C_7
    6  A    between atoms: C_5  and  C_21
    7  A    between atoms: P_10  and  O_55
    8  A    between atoms: C_11  and  N_44
    9  A    between atoms: C_12  and  C_54
   10  A    between atoms: C_18  and  C_53
   11  A    between atoms: C_21  and  C_53
   12  A    between atoms: C_28  and  C_49
   13  A    between atoms: C_30  and  C_47
   14  A    between atoms: C_30  and  O_55
   15  A    between atoms: C_31  and  C_60
   16  A    between atoms: C_32  and  N_43
   17  A    between atoms: C_33  and  C_54
   18  A    between atoms: C_36  and  C_53
   19  A    between atoms: C_37  and  C_42
   20  A    between atoms: C_37  and  O_50
   21  A    between atoms: S_38  and  C_48
   22  A    between atoms: C_40  and  C_57
   23  A    between atoms: C_40  and  C_59
   24  A    between atoms: C_42  and  C_45
   25  A    between atoms: C_57  and  O_65
   26  A    between atoms: N_58  and  C_59
                            x       y       z     vdW  Elec       q    Type
                         _______ _______ _______ _____ _____    ______ ____

>  <TORSDO>
F 26

$$$$
=
 OpenBabel11042416203D

 66 70  0  0  1  0  0  0  0  0999 V2000
  189.8020  175.3600  141.9690 C   0  0  0  0  0  2  0  0  0  0  0  0
  188.9700  174.6720  140.9130 C   0  0  2  0  0  3  0  0  0  0  0  0
  187.4800  175.8670  142.4280 C   0  0  2  0  0  3  0  0  0  0  0  0
  188.8970  176.4220  142.5430 C   0  0  0  0  0  2  0  0  0  0  0  0
  187.5530  174.7080  141.4400 C   0  0  0  0  0  2  0  0  0  0  0  0
  186.0990  177.9620  142.7160 C   0  0  0  0  0  0  0  0  0  0  0  0
  186.5760  176.8760  141.9000 N   0  0  0  0  0  2  0  0  0  0  0  0
  184.9880  178.5930  142.4090 N   0  0  0  0  0  0  0  0  0  0  0  0
  184.1530  178.3230  141.2690 C   0  0  0  0  0  0  0  0  0  0  0  0
  184.5760  178.4940  140.0890 O   0  0  0  0  0  0  0  0  0  0  0  0
  182.7980  177.7290  141.4810 C   0  0  0  0  0  2  0  0  0  0  0  0
  181.7700  178.8040  141.8190 C   0  0  0  0  0  2  0  0  0  0  0  0
  180.5180  178.5060  141.2000 O   0  0  0  0  0  0  0  0  0  0  0  0
  179.3660  178.2100  141.9420 C   0  0  0  0  0  0  0  0  0  0  0  0
  178.6980  177.1710  141.7060 O   0  0  0  0  0  0  0  0  0  0  0  0
  178.9270  179.1010  142.9110 O   0  0  0  0  0  1  0  0  0  0  0  0
  186.3570  178.0160  145.0960 C   0  0  0  0  0  3  0  0  0  0  0  0
  186.8070  178.2850  143.9160 N   0  0  0  0  0  0  0  0  0  0  0  0
  187.1970  178.3680  146.2810 C   0  0  0  0  0  2  0  0  0  0  0  0
  188.1730  177.2950  146.6370 C   0  0  0  0  0  0  0  0  0  0  0  0
  188.0470  175.9300  146.1610 C   0  0  0  0  0  3  0  0  0  0  0  0
  189.3370  177.5350  147.1480 N   0  0  0  0  0  0  0  0  0  0  0  0
  189.2070  175.3500  146.4400 C   0  0  0  0  0  0  0  0  0  0  0  0
  190.1130  176.2970  147.1620 C   0  0  1  0  0  3  0  0  0  0  0  0
  194.4180  176.1220  145.3930 C   0  0  0  0  0  2  0  0  0  0  0  0
  193.9350  176.1080  146.8240 C   0  0  0  0  0  2  0  0  0  0  0  0
  192.4490  177.1840  144.3130 C   0  0  0  0  0  0  0  0  0  0  0  0
  192.1450  177.1800  143.0890 O   0  0  0  0  0  0  0  0  0  0  0  0
  193.8870  177.3520  144.7070 C   0  0  0  0  0  2  0  0  0  0  0  0
  191.3970  177.0490  145.2760 N   0  0  0  0  0  0  0  0  0  0  0  0
  191.4220  176.4670  146.4440 C   0  0  0  0  0  0  0  0  0  0  0  0
  192.5470  175.6920  146.8960 N   0  0  0  0  0  2  0  0  0  0  0  0
  189.5220  173.9170  146.1340 C   0  0  0  0  0  2  0  0  0  0  0  0
  189.8210  173.7850  144.7840 O   0  0  0  0  0  0  0  0  0  0  0  0
  189.9060  172.1240  144.4410 P   0  0  0  0  0  0  0  0  0  0  0  0
  191.3340  171.6260  144.3340 O   0  0  0  0  0  1  0  0  0  0  0  0
  189.0830  171.7940  143.0000 O   0  0  0  0  0  0  0  0  0  0  0  0
  189.1540  171.2680  145.7010 O   0  0  0  0  0  1  0  0  0  0  0  0
  189.4160  173.3330  140.6990 O   0  0  0  0  0  0  0  0  0  0  0  0
  191.1270  173.9900  139.2860 O   0  0  0  0  0  0  0  0  0  0  0  0
  190.5140  173.0560  139.8880 C   0  0  0  0  0  0  0  0  0  0  0  0
  192.0070  171.1010  140.9780 S   0  0  0  0  0  0  0  0  0  0  0  0
  191.0340  171.6710  139.8030 C   0  0  1  0  0  3  0  0  0  0  0  0
  192.7400  171.5590  137.6230 O   0  0  0  0  0  1  0  0  0  0  0  0
  190.0120  172.3300  136.2730 C   0  0  0  0  0  2  0  0  0  0  0  0
  191.6160  170.7420  137.4150 C   0  0  1  0  0  3  0  0  0  0  0  0
  189.1070  172.1930  137.5090 C   0  0  0  0  0  2  0  0  0  0  0  0
  190.6280  170.8180  138.6180 C   0  0  2  0  0  3  0  0  0  0  0  0
  189.2800  170.9800  138.2080 O   0  0  0  0  0  0  0  0  0  0  0  0
  191.8230  171.3230  135.0690 O   0  0  0  0  0  1  0  0  0  0  0  0
  190.9060  171.1090  136.1000 C   0  0  2  0  0  3  0  0  0  0  0  0
  193.3950  172.2450  140.9860 C   0  0  0  0  0  2  0  0  0  0  0  0
  194.1650  172.0610  142.2830 C   0  0  0  0  0  2  0  0  0  0  0  0
  195.6400  171.7630  142.0550 C   0  0  0  0  0  2  0  0  0  0  0  0
  196.2630  172.5120  140.8690 C   0  0  2  0  0  3  0  0  0  0  0  0
  197.5870  171.8950  140.4660 C   0  0  0  0  0  2  0  0  0  0  0  0
  197.4410  171.1670  139.1450 C   0  0  0  0  0  1  0  0  0  0  0  0
  196.4820  173.9790  141.2310 C   0  0  0  0  0  2  0  0  0  0  0  0
  197.3380  174.7240  140.2160 C   0  0  0  0  0  2  0  0  0  0  0  0
  196.5100  175.0220  139.0140 C   0  0  0  0  0  0  0  0  0  0  0  0
  195.1760  175.1330  139.0280 N   0  0  0  0  0  0  0  0  0  0  0  0
  196.9930  175.1400  137.7290 C   0  0  0  0  0  3  0  0  0  0  0  0
  194.8700  175.3220  137.7330 C   0  0  0  0  0  0  0  0  0  0  0  0
  195.9350  175.3140  136.9190 N   0  0  0  0  0  2  0  0  0  0  0  0
  193.4700  175.3720  137.2400 C   0  0  0  0  0  2  0  0  0  0  0  0
  193.3510  176.3010  136.0480 C   0  0  0  0  0  1  0  0  0  0  0  0
  1  4  1  0  0  0  0
  2 39  1  1  0  0  0
  2  5  1  0  0  0  0
  2  1  1  0  0  0  0
  3  7  1  6  0  0  0
  3  4  1  0  0  0  0
  5  3  1  0  0  0  0
  6 18  1  0  0  0  0
  7  6  1  0  0  0  0
  8  6  2  0  0  0  0
  9 11  1  0  0  0  0
  9  8  1  0  0  0  0
 10  9  2  0  0  0  0
 11 12  1  0  0  0  0
 13 12  1  0  0  0  0
 13 14  1  0  0  0  0
 14 16  1  0  0  0  0
 15 14  2  0  0  0  0
 17 19  1  0  0  0  0
 18 17  2  0  0  0  0
 19 20  1  0  0  0  0
 20 22  2  0  0  0  0
 21 23  2  0  0  0  0
 21 20  1  0  0  0  0
 22 24  1  0  0  0  0
 23 24  1  0  0  0  0
 24 31  1  6  0  0  0
 25 26  1  0  0  0  0
 26 32  1  0  0  0  0
 27 29  1  0  0  0  0
 27 30  1  0  0  0  0
 28 27  2  0  0  0  0
 29 25  1  0  0  0  0
 30 31  2  0  0  0  0
 31 32  1  0  0  0  0
 33 23  1  0  0  0  0
 34 33  1  0  0  0  0
 35 34  1  0  0  0  0
 35 38  1  0  0  0  0
 36 35  1  0  0  0  0
 37 35  2  0  0  0  0
 40 41  2  0  0  0  0
 41 39  1  0  0  0  0
 42 52  1  0  0  0  0
 43 41  1  1  0  0  0
 43 42  1  0  0  0  0
 45 47  1  0  0  0  0
 46 44  1  1  0  0  0
 46 48  1  0  0  0  0
 47 49  1  0  0  0  0
 48 43  1  1  0  0  0
 49 48  1  0  0  0  0
 51 50  1  6  0  0  0
 51 45  1  0  0  0  0
 51 46  1  0  0  0  0
 52 53  1  0  0  0  0
 54 53  1  0  0  0  0
 55 56  1  1  0  0  0
 55 58  1  0  0  0  0
 55 54  1  0  0  0  0
 57 56  1  0  0  0  0
 59 58  1  0  0  0  0
 60 61  1  0  0  0  0
 60 59  1  0  0  0  0
 62 60  2  0  0  0  0
 63 61  2  0  0  0  0
 64 62  1  0  0  0  0
 64 63  1  0  0  0  0
 65 63  1  0  0  0  0
 66 65  1  0  0  0  0
M  END
>  <MODEL>
2

>  <REMARK>
 VINA RESULT:      -5.0      3.726      9.825
  Name = 
  26 active torsions:
  status: ('A' for Active; 'I' for Inactive)
    1  A    between atoms: C_2  and  O_50
    2  A    between atoms: C_3  and  O_65
    3  A    between atoms: C_4  and  C_36
    4  A    between atoms: C_4  and  C_48
    5  A    between atoms: C_5  and  C_7
    6  A    between atoms: C_5  and  C_21
    7  A    between atoms: P_10  and  O_55
    8  A    between atoms: C_11  and  N_44
    9  A    between atoms: C_12  and  C_54
   10  A    between atoms: C_18  and  C_53
   11  A    between atoms: C_21  and  C_53
   12  A    between atoms: C_28  and  C_49
   13  A    between atoms: C_30  and  C_47
   14  A    between atoms: C_30  and  O_55
   15  A    between atoms: C_31  and  C_60
   16  A    between atoms: C_32  and  N_43
   17  A    between atoms: C_33  and  C_54
   18  A    between atoms: C_36  and  C_53
   19  A    between atoms: C_37  and  C_42
   20  A    between atoms: C_37  and  O_50
   21  A    between atoms: S_38  and  C_48
   22  A    between atoms: C_40  and  C_57
   23  A    between atoms: C_40  and  C_59
   24  A    between atoms: C_42  and  C_45
   25  A    between atoms: C_57  and  O_65
   26  A    between atoms: N_58  and  C_59
                            x       y       z     vdW  Elec       q    Type
                         _______ _______ _______ _____ _____    ______ ____

>  <TORSDO>
F 26

$$$$
=
 OpenBabel11042416203D

 66 70  0  0  1  0  0  0  0  0999 V2000
  189.5870  175.3020  142.0260 C   0  0  0  0  0  2  0  0  0  0  0  0
  188.7650  174.5790  140.9840 C   0  0  2  0  0  3  0  0  0  0  0  0
  187.2570  175.7660  142.4870 C   0  0  2  0  0  3  0  0  0  0  0  0
  188.6620  176.3530  142.5870 C   0  0  0  0  0  2  0  0  0  0  0  0
  187.3500  174.5940  141.5180 C   0  0  0  0  0  2  0  0  0  0  0  0
  185.8180  177.8250  142.7520 C   0  0  0  0  0  0  0  0  0  0  0  0
  186.3290  176.7470  141.9470 N   0  0  0  0  0  2  0  0  0  0  0  0
  184.6920  178.4240  142.4340 N   0  0  0  0  0  0  0  0  0  0  0  0
  183.8710  178.1240  141.2910 C   0  0  0  0  0  0  0  0  0  0  0  0
  184.3840  177.9020  140.1550 O   0  0  0  0  0  0  0  0  0  0  0  0
  182.3970  177.9660  141.4720 C   0  0  0  0  0  2  0  0  0  0  0  0
  181.6470  179.2090  141.0050 C   0  0  0  0  0  2  0  0  0  0  0  0
  180.3340  178.8610  140.5610 O   0  0  0  0  0  0  0  0  0  0  0  0
  179.2950  178.5640  141.4530 C   0  0  0  0  0  0  0  0  0  0  0  0
  178.7510  179.4720  142.1320 O   0  0  0  0  0  1  0  0  0  0  0  0
  178.9000  177.2460  141.6320 O   0  0  0  0  0  0  0  0  0  0  0  0
  186.2520  177.6340  145.1000 C   0  0  0  0  0  3  0  0  0  0  0  0
  186.5090  178.1740  143.9550 N   0  0  0  0  0  0  0  0  0  0  0  0
  187.0610  178.0510  146.2860 C   0  0  0  0  0  2  0  0  0  0  0  0
  188.1170  177.0580  146.6430 C   0  0  0  0  0  0  0  0  0  0  0  0
  188.0990  175.6870  146.1690 C   0  0  0  0  0  3  0  0  0  0  0  0
  189.2580  177.3890  147.1560 N   0  0  0  0  0  0  0  0  0  0  0  0
  189.3000  175.2000  146.4490 C   0  0  0  0  0  0  0  0  0  0  0  0
  190.1290  176.2160  147.1710 C   0  0  1  0  0  3  0  0  0  0  0  0
  194.4630  176.4470  145.4800 C   0  0  0  0  0  2  0  0  0  0  0  0
  193.9490  176.5160  146.8990 C   0  0  0  0  0  2  0  0  0  0  0  0
  192.3960  177.1130  144.2710 C   0  0  0  0  0  0  0  0  0  0  0  0
  192.1280  176.9400  143.0510 O   0  0  0  0  0  0  0  0  0  0  0  0
  193.7890  177.5150  144.6610 C   0  0  0  0  0  2  0  0  0  0  0  0
  191.3480  176.9360  145.2310 N   0  0  0  0  0  0  0  0  0  0  0  0
  191.4200  176.4870  146.4540 C   0  0  0  0  0  0  0  0  0  0  0  0
  192.6280  175.9240  146.9980 N   0  0  0  0  0  2  0  0  0  0  0  0
  189.7260  173.7960  146.1440 C   0  0  0  0  0  2  0  0  0  0  0  0
  189.9050  173.6520  144.7740 O   0  0  0  0  0  0  0  0  0  0  0  0
  191.4560  173.0050  144.5280 P   0  0  0  0  0  0  0  0  0  0  0  0
  192.3750  173.2350  145.7120 O   0  0  0  0  0  1  0  0  0  0  0  0
  192.1440  173.6820  143.1380 O   0  0  0  0  0  0  0  0  0  0  0  0
  191.3180  171.3280  144.3000 O   0  0  0  0  0  1  0  0  0  0  0  0
  189.2390  173.2470  140.7900 O   0  0  0  0  0  0  0  0  0  0  0  0
  191.3150  173.8410  139.9600 O   0  0  0  0  0  0  0  0  0  0  0  0
  190.3810  172.9860  140.0360 C   0  0  0  0  0  0  0  0  0  0  0  0
  190.8340  170.3490  140.3230 S   0  0  0  0  0  0  0  0  0  0  0  0
  190.5540  171.6600  139.3980 C   0  0  1  0  0  3  0  0  0  0  0  0
  192.6400  172.6580  137.8730 O   0  0  0  0  0  1  0  0  0  0  0  0
  190.1580  174.0980  136.5980 C   0  0  0  0  0  2  0  0  0  0  0  0
  191.6460  172.1030  137.0500 C   0  0  1  0  0  3  0  0  0  0  0  0
  189.0530  173.3590  137.3710 C   0  0  0  0  0  2  0  0  0  0  0  0
  190.4480  171.5650  137.8890 C   0  0  2  0  0  3  0  0  0  0  0  0
  189.1920  171.9560  137.3590 O   0  0  0  0  0  0  0  0  0  0  0  0
  192.2400  173.8200  135.4430 O   0  0  0  0  0  1  0  0  0  0  0  0
  191.1660  173.1240  136.0030 C   0  0  2  0  0  3  0  0  0  0  0  0
  192.3380  170.7640  141.2180 C   0  0  0  0  0  2  0  0  0  0  0  0
  193.4940  170.7960  140.2320 C   0  0  0  0  0  2  0  0  0  0  0  0
  194.4820  171.9190  140.5190 C   0  0  0  0  0  2  0  0  0  0  0  0
  195.2670  171.7540  141.8270 C   0  0  2  0  0  3  0  0  0  0  0  0
  195.6450  173.1000  142.4120 C   0  0  0  0  0  2  0  0  0  0  0  0
  197.0800  173.0710  142.9000 C   0  0  0  0  0  1  0  0  0  0  0  0
  196.5360  170.9410  141.5800 C   0  0  0  0  0  2  0  0  0  0  0  0
  196.3390  169.4460  141.7890 C   0  0  0  0  0  2  0  0  0  0  0  0
  196.2160  169.1770  143.2480 C   0  0  0  0  0  0  0  0  0  0  0  0
  195.1680  168.5670  143.8160 N   0  0  0  0  0  0  0  0  0  0  0  0
  197.1160  169.5880  144.2080 C   0  0  0  0  0  3  0  0  0  0  0  0
  195.4570  168.6170  145.1280 C   0  0  0  0  0  0  0  0  0  0  0  0
  196.6110  169.2400  145.4040 N   0  0  0  0  0  2  0  0  0  0  0  0
  194.5050  168.1670  146.1750 C   0  0  0  0  0  2  0  0  0  0  0  0
  194.8260  168.8120  147.5090 C   0  0  0  0  0  1  0  0  0  0  0  0
  1  4  1  0  0  0  0
  2 39  1  1  0  0  0
  2  5  1  0  0  0  0
  2  1  1  0  0  0  0
  3  7  1  6  0  0  0
  3  4  1  0  0  0  0
  5  3  1  0  0  0  0
  6 18  1  0  0  0  0
  7  6  1  0  0  0  0
  8  6  2  0  0  0  0
  9 11  1  0  0  0  0
  9  8  1  0  0  0  0
 10  9  2  0  0  0  0
 12 11  1  0  0  0  0
 13 12  1  0  0  0  0
 13 14  1  0  0  0  0
 14 16  2  0  0  0  0
 14 15  1  0  0  0  0
 17 19  1  0  0  0  0
 18 17  2  0  0  0  0
 19 20  1  0  0  0  0
 20 22  2  0  0  0  0
 21 23  2  0  0  0  0
 21 20  1  0  0  0  0
 22 24  1  0  0  0  0
 23 24  1  0  0  0  0
 24 31  1  6  0  0  0
 25 26  1  0  0  0  0
 26 32  1  0  0  0  0
 27 29  1  0  0  0  0
 27 30  1  0  0  0  0
 28 27  2  0  0  0  0
 29 25  1  0  0  0  0
 30 31  2  0  0  0  0
 31 32  1  0  0  0  0
 33 23  1  0  0  0  0
 34 33  1  0  0  0  0
 35 34  1  0  0  0  0
 35 36  1  0  0  0  0
 37 35  2  0  0  0  0
 38 35  1  0  0  0  0
 40 41  2  0  0  0  0
 41 39  1  0  0  0  0
 42 52  1  0  0  0  0
 43 41  1  1  0  0  0
 43 42  1  0  0  0  0
 45 47  1  0  0  0  0
 46 44  1  1  0  0  0
 46 48  1  0  0  0  0
 48 43  1  1  0  0  0
 49 47  1  0  0  0  0
 49 48  1  0  0  0  0
 51 50  1  1  0  0  0
 51 45  1  0  0  0  0
 51 46  1  0  0  0  0
 53 54  1  0  0  0  0
 53 52  1  0  0  0  0
 55 54  1  6  0  0  0
 55 56  1  0  0  0  0
 56 57  1  0  0  0  0
 58 59  1  0  0  0  0
 58 55  1  0  0  0  0
 59 60  1  0  0  0  0
 60 61  1  0  0  0  0
 60 62  2  0  0  0  0
 61 63  2  0  0  0  0
 62 64  1  0  0  0  0
 63 64  1  0  0  0  0
 63 65  1  0  0  0  0
 65 66  1  0  0  0  0
M  END
>  <MODEL>
3

>  <REMARK>
 VINA RESULT:      -4.9      3.985      9.369
  Name = 
  26 active torsions:
  status: ('A' for Active; 'I' for Inactive)
    1  A    between atoms: C_2  and  O_50
    2  A    between atoms: C_3  and  O_65
    3  A    between atoms: C_4  and  C_36
    4  A    between atoms: C_4  and  C_48
    5  A    between atoms: C_5  and  C_7
    6  A    between atoms: C_5  and  C_21
    7  A    between atoms: P_10  and  O_55
    8  A    between atoms: C_11  and  N_44
    9  A    between atoms: C_12  and  C_54
   10  A    between atoms: C_18  and  C_53
   11  A    between atoms: C_21  and  C_53
   12  A    between atoms: C_28  and  C_49
   13  A    between atoms: C_30  and  C_47
   14  A    between atoms: C_30  and  O_55
   15  A    between atoms: C_31  and  C_60
   16  A    between atoms: C_32  and  N_43
   17  A    between atoms: C_33  and  C_54
   18  A    between atoms: C_36  and  C_53
   19  A    between atoms: C_37  and  C_42
   20  A    between atoms: C_37  and  O_50
   21  A    between atoms: S_38  and  C_48
   22  A    between atoms: C_40  and  C_57
   23  A    between atoms: C_40  and  C_59
   24  A    between atoms: C_42  and  C_45
   25  A    between atoms: C_57  and  O_65
   26  A    between atoms: N_58  and  C_59
                            x       y       z     vdW  Elec       q    Type
                         _______ _______ _______ _____ _____    ______ ____

>  <TORSDO>
F 26

$$$$
=
 OpenBabel11042416203D

 66 70  0  0  1  0  0  0  0  0999 V2000
  189.6760  175.4070  142.0460 C   0  0  0  0  0  2  0  0  0  0  0  0
  188.7880  174.7600  141.0100 C   0  0  2  0  0  3  0  0  0  0  0  0
  187.3880  175.9740  142.5930 C   0  0  2  0  0  3  0  0  0  0  0  0
  188.8240  176.4860  142.6670 C   0  0  0  0  0  2  0  0  0  0  0  0
  187.3920  174.8290  141.5870 C   0  0  0  0  0  2  0  0  0  0  0  0
  186.0140  178.0580  142.9810 C   0  0  0  0  0  0  0  0  0  0  0  0
  186.4970  177.0170  142.1120 N   0  0  0  0  0  2  0  0  0  0  0  0
  184.9110  178.7130  142.6960 N   0  0  0  0  0  0  0  0  0  0  0  0
  184.0900  178.5130  141.5320 C   0  0  0  0  0  0  0  0  0  0  0  0
  184.5550  178.6710  140.3650 O   0  0  0  0  0  0  0  0  0  0  0  0
  182.6940  178.0070  141.7000 C   0  0  0  0  0  2  0  0  0  0  0  0
  181.8350  178.3410  140.4850 C   0  0  0  0  0  2  0  0  0  0  0  0
  180.8210  179.2830  140.8370 O   0  0  0  0  0  0  0  0  0  0  0  0
  179.4630  179.0560  140.5740 C   0  0  0  0  0  0  0  0  0  0  0  0
  178.7690  179.9200  139.9800 O   0  0  0  0  0  0  0  0  0  0  0  0
  178.8630  177.8880  141.0240 O   0  0  0  0  0  1  0  0  0  0  0  0
  186.2690  177.9190  145.3580 C   0  0  0  0  0  3  0  0  0  0  0  0
  186.7070  178.3070  144.2080 N   0  0  0  0  0  0  0  0  0  0  0  0
  187.0930  178.2050  146.5730 C   0  0  0  0  0  2  0  0  0  0  0  0
  188.1340  177.1640  146.8230 C   0  0  0  0  0  0  0  0  0  0  0  0
  187.9830  175.7850  146.3960 C   0  0  0  0  0  3  0  0  0  0  0  0
  189.3460  177.4430  147.1760 N   0  0  0  0  0  0  0  0  0  0  0  0
  189.1840  175.2390  146.5360 C   0  0  0  0  0  0  0  0  0  0  0  0
  190.1500  176.2240  147.1160 C   0  0  1  0  0  3  0  0  0  0  0  0
  193.4580  177.5030  144.0970 C   0  0  0  0  0  2  0  0  0  0  0  0
  191.9680  177.3250  143.9160 C   0  0  0  0  0  2  0  0  0  0  0  0
  193.7960  176.0690  146.0970 C   0  0  0  0  0  0  0  0  0  0  0  0
  194.7780  176.0690  146.8890 O   0  0  0  0  0  0  0  0  0  0  0  0
  194.0460  176.2220  144.6260 C   0  0  0  0  0  2  0  0  0  0  0  0
  192.4820  175.9000  146.6420 N   0  0  0  0  0  0  0  0  0  0  0  0
  191.3510  176.4060  146.2330 C   0  0  0  0  0  0  0  0  0  0  0  0
  191.2820  177.3980  145.1920 N   0  0  0  0  0  2  0  0  0  0  0  0
  189.4940  173.8060  146.2230 C   0  0  0  0  0  2  0  0  0  0  0  0
  189.9300  173.7030  144.9070 O   0  0  0  0  0  0  0  0  0  0  0  0
  189.8500  172.0640  144.4730 P   0  0  0  0  0  0  0  0  0  0  0  0
  191.2140  171.4760  144.1680 O   0  0  0  0  0  1  0  0  0  0  0  0
  188.8410  171.8770  143.1270 O   0  0  0  0  0  0  0  0  0  0  0  0
  189.1890  171.1880  145.7680 O   0  0  0  0  0  1  0  0  0  0  0  0
  189.1860  173.4120  140.7610 O   0  0  0  0  0  0  0  0  0  0  0  0
  190.8600  174.0370  139.2910 O   0  0  0  0  0  0  0  0  0  0  0  0
  190.2060  173.1110  139.8620 C   0  0  0  0  0  0  0  0  0  0  0  0
  191.6640  170.9930  140.6540 S   0  0  0  0  0  0  0  0  0  0  0  0
  190.6020  171.7000  139.6420 C   0  0  1  0  0  3  0  0  0  0  0  0
  191.5270  169.1470  139.0950 O   0  0  0  0  0  1  0  0  0  0  0  0
  191.7850  170.5460  136.2950 C   0  0  0  0  0  2  0  0  0  0  0  0
  190.4980  169.5020  138.2070 C   0  0  1  0  0  3  0  0  0  0  0  0
  191.0930  171.8730  136.6470 C   0  0  0  0  0  2  0  0  0  0  0  0
  189.9860  170.9490  138.4790 C   0  0  2  0  0  3  0  0  0  0  0  0
  189.8480  171.7120  137.2910 O   0  0  0  0  0  0  0  0  0  0  0  0
  191.6730  168.1660  136.5590 O   0  0  0  0  0  1  0  0  0  0  0  0
  190.9560  169.3500  136.7460 C   0  0  2  0  0  3  0  0  0  0  0  0
  193.1280  172.0320  140.5410 C   0  0  0  0  0  2  0  0  0  0  0  0
  193.9980  171.5180  139.4060 C   0  0  0  0  0  2  0  0  0  0  0  0
  194.2100  172.5550  138.3110 C   0  0  0  0  0  2  0  0  0  0  0  0
  194.7900  173.8880  138.8030 C   0  0  2  0  0  3  0  0  0  0  0  0
  194.2890  175.0450  137.9630 C   0  0  0  0  0  2  0  0  0  0  0  0
  194.3400  174.6810  136.4920 C   0  0  0  0  0  1  0  0  0  0  0  0
  196.3150  173.8500  138.7480 C   0  0  0  0  0  2  0  0  0  0  0  0
  196.9550  175.2170  138.9510 C   0  0  0  0  0  2  0  0  0  0  0  0
  197.0350  175.4980  140.4110 C   0  0  0  0  0  0  0  0  0  0  0  0
  197.7360  174.7620  141.2820 N   0  0  0  0  0  0  0  0  0  0  0  0
  196.3410  176.4930  141.0640 C   0  0  0  0  0  3  0  0  0  0  0  0
  197.4530  175.3340  142.4650 C   0  0  0  0  0  0  0  0  0  0  0  0
  196.6030  176.3660  142.3770 N   0  0  0  0  0  2  0  0  0  0  0  0
  197.9150  174.7680  143.7580 C   0  0  0  0  0  2  0  0  0  0  0  0
  197.8180  173.2540  143.7480 C   0  0  0  0  0  1  0  0  0  0  0  0
  1  4  1  0  0  0  0
  2 39  1  1  0  0  0
  2  5  1  0  0  0  0
  2  1  1  0  0  0  0
  3  7  1  6  0  0  0
  3  4  1  0  0  0  0
  5  3  1  0  0  0  0
  6 18  1  0  0  0  0
  7  6  1  0  0  0  0
  8  6  2  0  0  0  0
  9 11  1  0  0  0  0
  9  8  1  0  0  0  0
 10  9  2  0  0  0  0
 12 13  1  0  0  0  0
 12 11  1  0  0  0  0
 14 13  1  0  0  0  0
 14 16  1  0  0  0  0
 15 14  2  0  0  0  0
 17 19  1  0  0  0  0
 18 17  2  0  0  0  0
 19 20  1  0  0  0  0
 20 22  2  0  0  0  0
 21 23  2  0  0  0  0
 21 20  1  0  0  0  0
 23 24  1  0  0  0  0
 24 31  1  6  0  0  0
 24 22  1  0  0  0  0
 25 29  1  0  0  0  0
 26 25  1  0  0  0  0
 26 32  1  0  0  0  0
 27 30  1  0  0  0  0
 27 28  2  0  0  0  0
 29 27  1  0  0  0  0
 31 30  2  0  0  0  0
 32 31  1  0  0  0  0
 33 23  1  0  0  0  0
 34 33  1  0  0  0  0
 35 34  1  0  0  0  0
 35 38  1  0  0  0  0
 36 35  1  0  0  0  0
 37 35  2  0  0  0  0
 40 41  2  0  0  0  0
 41 39  1  0  0  0  0
 43 41  1  1  0  0  0
 43 42  1  0  0  0  0
 45 47  1  0  0  0  0
 45 51  1  0  0  0  0
 46 48  1  0  0  0  0
 46 44  1  1  0  0  0
 47 49  1  0  0  0  0
 48 43  1  1  0  0  0
 49 48  1  0  0  0  0
 51 50  1  1  0  0  0
 51 46  1  0  0  0  0
 52 42  1  0  0  0  0
 53 52  1  0  0  0  0
 54 55  1  0  0  0  0
 54 53  1  0  0  0  0
 55 56  1  6  0  0  0
 57 56  1  0  0  0  0
 58 55  1  0  0  0  0
 58 59  1  0  0  0  0
 59 60  1  0  0  0  0
 60 62  2  0  0  0  0
 60 61  1  0  0  0  0
 61 63  2  0  0  0  0
 62 64  1  0  0  0  0
 63 65  1  0  0  0  0
 64 63  1  0  0  0  0
 66 65  1  0  0  0  0
M  END
>  <MODEL>
4

>  <REMARK>
 VINA RESULT:      -4.9      3.954      9.828
  Name = 
  26 active torsions:
  status: ('A' for Active; 'I' for Inactive)
    1  A    between atoms: C_2  and  O_50
    2  A    between atoms: C_3  and  O_65
    3  A    between atoms: C_4  and  C_36
    4  A    between atoms: C_4  and  C_48
    5  A    between atoms: C_5  and  C_7
    6  A    between atoms: C_5  and  C_21
    7  A    between atoms: P_10  and  O_55
    8  A    between atoms: C_11  and  N_44
    9  A    between atoms: C_12  and  C_54
   10  A    between atoms: C_18  and  C_53
   11  A    between atoms: C_21  and  C_53
   12  A    between atoms: C_28  and  C_49
   13  A    between atoms: C_30  and  C_47
   14  A    between atoms: C_30  and  O_55
   15  A    between atoms: C_31  and  C_60
   16  A    between atoms: C_32  and  N_43
   17  A    between atoms: C_33  and  C_54
   18  A    between atoms: C_36  and  C_53
   19  A    between atoms: C_37  and  C_42
   20  A    between atoms: C_37  and  O_50
   21  A    between atoms: S_38  and  C_48
   22  A    between atoms: C_40  and  C_57
   23  A    between atoms: C_40  and  C_59
   24  A    between atoms: C_42  and  C_45
   25  A    between atoms: C_57  and  O_65
   26  A    between atoms: N_58  and  C_59
                            x       y       z     vdW  Elec       q    Type
                         _______ _______ _______ _____ _____    ______ ____

>  <TORSDO>
F 26

$$$$
=
 OpenBabel11042416203D

 66 70  0  0  1  0  0  0  0  0999 V2000
  189.7990  172.1590  143.3120 C   0  0  0  0  0  2  0  0  0  0  0  0
  190.5770  173.4500  143.2180 C   0  0  2  0  0  3  0  0  0  0  0  0
  189.1810  173.2290  141.2310 C   0  0  2  0  0  3  0  0  0  0  0  0
  188.6550  172.3240  142.3420 C   0  0  0  0  0  2  0  0  0  0  0  0
  190.4430  173.8870  141.7760 C   0  0  0  0  0  2  0  0  0  0  0  0
  187.9520  174.6660  139.5560 C   0  0  0  0  0  0  0  0  0  0  0  0
  188.2120  174.2660  140.9140 N   0  0  0  0  0  2  0  0  0  0  0  0
  187.4420  175.8480  139.2920 N   0  0  0  0  0  0  0  0  0  0  0  0
  187.0700  176.8420  140.2630 C   0  0  0  0  0  0  0  0  0  0  0  0
  186.4160  177.8730  139.9290 O   0  0  0  0  0  0  0  0  0  0  0  0
  187.3690  176.6020  141.7060 C   0  0  0  0  0  2  0  0  0  0  0  0
  187.2890  177.8950  142.5110 C   0  0  0  0  0  2  0  0  0  0  0  0
  186.2750  177.7950  143.5120 O   0  0  0  0  0  0  0  0  0  0  0  0
  186.0160  178.8290  144.4220 C   0  0  0  0  0  0  0  0  0  0  0  0
  186.1210  178.6380  145.6610 O   0  0  0  0  0  1  0  0  0  0  0  0
  185.5850  180.0620  143.9540 O   0  0  0  0  0  0  0  0  0  0  0  0
  189.1470  174.1430  137.5480 C   0  0  0  0  0  3  0  0  0  0  0  0
  188.3420  173.7910  138.4940 N   0  0  0  0  0  0  0  0  0  0  0  0
  189.5120  173.1350  136.5060 C   0  0  0  0  0  2  0  0  0  0  0  0
  190.9580  173.1840  136.1360 C   0  0  0  0  0  0  0  0  0  0  0  0
  191.9370  173.9440  136.8910 C   0  0  0  0  0  3  0  0  0  0  0  0
  191.5070  172.3560  135.3080 N   0  0  0  0  0  0  0  0  0  0  0  0
  193.1190  173.5370  136.4480 C   0  0  0  0  0  0  0  0  0  0  0  0
  192.9560  172.5390  135.3450 C   0  0  1  0  0  3  0  0  0  0  0  0
  194.3970  168.1660  136.0490 C   0  0  0  0  0  2  0  0  0  0  0  0
  193.1450  168.8810  136.5020 C   0  0  0  0  0  2  0  0  0  0  0  0
  195.8650  170.1330  135.6610 C   0  0  0  0  0  0  0  0  0  0  0  0
  196.9300  170.1780  134.9850 O   0  0  0  0  0  0  0  0  0  0  0  0
  195.6010  168.9350  136.5250 C   0  0  0  0  0  2  0  0  0  0  0  0
  194.9640  171.2430  135.5860 N   0  0  0  0  0  0  0  0  0  0  0  0
  193.6610  171.2500  135.6570 C   0  0  0  0  0  0  0  0  0  0  0  0
  192.8830  170.0390  135.6680 N   0  0  0  0  0  2  0  0  0  0  0  0
  194.4280  174.0720  136.9440 C   0  0  0  0  0  2  0  0  0  0  0  0
  194.7000  173.5420  138.2000 O   0  0  0  0  0  0  0  0  0  0  0  0
  196.2940  173.9690  138.5980 P   0  0  0  0  0  0  0  0  0  0  0  0
  196.9340  172.9920  139.5640 O   0  0  0  0  0  1  0  0  0  0  0  0
  196.3200  175.5240  139.2660 O   0  0  0  0  0  1  0  0  0  0  0  0
  197.2270  173.9770  137.1790 O   0  0  0  0  0  0  0  0  0  0  0  0
  191.9430  173.2550  143.5820 O   0  0  0  0  0  0  0  0  0  0  0  0
  193.0450  173.5200  145.5990 O   0  0  0  0  0  0  0  0  0  0  0  0
  192.5540  174.0440  144.5540 C   0  0  0  0  0  0  0  0  0  0  0  0
  193.8200  176.0210  143.2380 S   0  0  0  0  0  0  0  0  0  0  0  0
  192.7210  175.4980  144.3220 C   0  0  1  0  0  3  0  0  0  0  0  0
  193.5200  176.2320  146.8700 O   0  0  0  0  0  1  0  0  0  0  0  0
  190.5710  175.2750  147.3650 C   0  0  0  0  0  2  0  0  0  0  0  0
  192.3280  176.8860  146.5180 C   0  0  1  0  0  3  0  0  0  0  0  0
  190.1580  175.0640  145.8990 C   0  0  0  0  0  2  0  0  0  0  0  0
  191.8450  176.4600  145.0980 C   0  0  2  0  0  3  0  0  0  0  0  0
  190.4590  176.1580  145.0610 O   0  0  0  0  0  0  0  0  0  0  0  0
  191.7370  176.7370  148.8650 O   0  0  0  0  0  1  0  0  0  0  0  0
  191.2310  176.6330  147.5670 C   0  0  2  0  0  3  0  0  0  0  0  0
  195.3750  175.3440  143.8370 C   0  0  0  0  0  2  0  0  0  0  0  0
  195.8850  174.3330  142.8230 C   0  0  0  0  0  2  0  0  0  0  0  0
  196.8070  173.2920  143.4410 C   0  0  0  0  0  2  0  0  0  0  0  0
  196.0920  172.2490  144.3120 C   0  0  2  0  0  3  0  0  0  0  0  0
  196.7530  172.1240  145.6690 C   0  0  0  0  0  2  0  0  0  0  0  0
  196.9110  173.4940  146.2990 C   0  0  0  0  0  1  0  0  0  0  0  0
  196.1060  170.8880  143.6190 C   0  0  0  0  0  2  0  0  0  0  0  0
  195.6980  170.9580  142.1540 C   0  0  0  0  0  2  0  0  0  0  0  0
  194.2860  170.5030  142.0260 C   0  0  0  0  0  0  0  0  0  0  0  0
  193.5720  170.5740  140.8960 N   0  0  0  0  0  0  0  0  0  0  0  0
  193.5090  170.0310  143.0610 C   0  0  0  0  0  3  0  0  0  0  0  0
  192.3590  170.1340  141.2710 C   0  0  0  0  0  0  0  0  0  0  0  0
  192.2760  169.8160  142.5700 N   0  0  0  0  0  2  0  0  0  0  0  0
  191.1840  170.1560  140.3620 C   0  0  0  0  0  2  0  0  0  0  0  0
  191.3890  171.1570  139.2410 C   0  0  0  0  0  1  0  0  0  0  0  0
  2  1  1  0  0  0  0
  2 39  1  6  0  0  0
  3  7  1  1  0  0  0
  3  5  1  0  0  0  0
  3  4  1  0  0  0  0
  4  1  1  0  0  0  0
  5  2  1  0  0  0  0
  6  7  1  0  0  0  0
  8  6  2  0  0  0  0
  8  9  1  0  0  0  0
  9 11  1  0  0  0  0
 10  9  2  0  0  0  0
 11 12  1  0  0  0  0
 12 13  1  0  0  0  0
 13 14  1  0  0  0  0
 14 15  1  0  0  0  0
 16 14  2  0  0  0  0
 17 18  2  0  0  0  0
 18  6  1  0  0  0  0
 19 17  1  0  0  0  0
 20 19  1  0  0  0  0
 20 21  1  0  0  0  0
 22 24  1  0  0  0  0
 22 20  2  0  0  0  0
 23 21  2  0  0  0  0
 23 33  1  0  0  0  0
 24 31  1  1  0  0  0
 24 23  1  0  0  0  0
 25 26  1  0  0  0  0
 25 29  1  0  0  0  0
 27 29  1  0  0  0  0
 28 27  2  0  0  0  0
 30 31  2  0  0  0  0
 30 27  1  0  0  0  0
 31 32  1  0  0  0  0
 32 26  1  0  0  0  0
 33 34  1  0  0  0  0
 34 35  1  0  0  0  0
 35 37  1  0  0  0  0
 35 36  1  0  0  0  0
 38 35  2  0  0  0  0
 39 41  1  0  0  0  0
 41 40  2  0  0  0  0
 42 52  1  0  0  0  0
 43 42  1  6  0  0  0
 43 41  1  0  0  0  0
 45 51  1  0  0  0  0
 46 44  1  1  0  0  0
 46 51  1  0  0  0  0
 47 45  1  0  0  0  0
 48 43  1  1  0  0  0
 48 46  1  0  0  0  0
 49 48  1  0  0  0  0
 49 47  1  0  0  0  0
 51 50  1  1  0  0  0
 53 54  1  0  0  0  0
 53 52  1  0  0  0  0
 55 54  1  6  0  0  0
 55 56  1  0  0  0  0
 56 57  1  0  0  0  0
 58 55  1  0  0  0  0
 59 58  1  0  0  0  0
 60 59  1  0  0  0  0
 60 62  2  0  0  0  0
 61 63  2  0  0  0  0
 61 60  1  0  0  0  0
 63 64  1  0  0  0  0
 64 62  1  0  0  0  0
 65 63  1  0  0  0  0
 66 65  1  0  0  0  0
M  END
>  <MODEL>
5

>  <REMARK>
 VINA RESULT:      -4.8      2.982      6.494
  Name = 
  26 active torsions:
  status: ('A' for Active; 'I' for Inactive)
    1  A    between atoms: C_2  and  O_50
    2  A    between atoms: C_3  and  O_65
    3  A    between atoms: C_4  and  C_36
    4  A    between atoms: C_4  and  C_48
    5  A    between atoms: C_5  and  C_7
    6  A    between atoms: C_5  and  C_21
    7  A    between atoms: P_10  and  O_55
    8  A    between atoms: C_11  and  N_44
    9  A    between atoms: C_12  and  C_54
   10  A    between atoms: C_18  and  C_53
   11  A    between atoms: C_21  and  C_53
   12  A    between atoms: C_28  and  C_49
   13  A    between atoms: C_30  and  C_47
   14  A    between atoms: C_30  and  O_55
   15  A    between atoms: C_31  and  C_60
   16  A    between atoms: C_32  and  N_43
   17  A    between atoms: C_33  and  C_54
   18  A    between atoms: C_36  and  C_53
   19  A    between atoms: C_37  and  C_42
   20  A    between atoms: C_37  and  O_50
   21  A    between atoms: S_38  and  C_48
   22  A    between atoms: C_40  and  C_57
   23  A    between atoms: C_40  and  C_59
   24  A    between atoms: C_42  and  C_45
   25  A    between atoms: C_57  and  O_65
   26  A    between atoms: N_58  and  C_59
                            x       y       z     vdW  Elec       q    Type
                         _______ _______ _______ _____ _____    ______ ____

>  <TORSDO>
F 26

$$$$
=
 OpenBabel11042416203D

 66 70  0  0  1  0  0  0  0  0999 V2000
  188.2070  173.8840  141.9610 C   0  0  0  0  0  2  0  0  0  0  0  0
  188.3910  174.4860  140.5880 C   0  0  2  0  0  3  0  0  0  0  0  0
  189.9220  172.6040  140.8310 C   0  0  2  0  0  3  0  0  0  0  0  0
  188.8000  172.5000  141.8610 C   0  0  0  0  0  2  0  0  0  0  0  0
  189.6900  173.9070  140.0750 C   0  0  0  0  0  2  0  0  0  0  0  0
  190.8410  170.4480  139.8890 C   0  0  0  0  0  0  0  0  0  0  0  0
  189.8560  171.4980  139.8900 N   0  0  0  0  0  2  0  0  0  0  0  0
  191.0460  169.7210  138.8140 N   0  0  0  0  0  0  0  0  0  0  0  0
  190.3400  169.8450  137.5660 C   0  0  0  0  0  0  0  0  0  0  0  0
  189.0970  170.0790  137.5360 O   0  0  0  0  0  0  0  0  0  0  0  0
  191.1080  169.8020  136.2850 C   0  0  0  0  0  2  0  0  0  0  0  0
  191.9420  171.0640  136.0980 C   0  0  0  0  0  2  0  0  0  0  0  0
  191.3460  172.1620  136.7920 O   0  0  0  0  0  0  0  0  0  0  0  0
  192.1060  173.1100  137.4900 C   0  0  0  0  0  0  0  0  0  0  0  0
  191.9900  174.3370  137.2410 O   0  0  0  0  0  0  0  0  0  0  0  0
  193.0370  172.6860  138.4270 O   0  0  0  0  0  1  0  0  0  0  0  0
  191.5480  169.2530  141.8410 C   0  0  0  0  0  3  0  0  0  0  0  0
  191.6570  170.2690  141.0510 N   0  0  0  0  0  0  0  0  0  0  0  0
  192.4770  169.1510  143.0070 C   0  0  0  0  0  2  0  0  0  0  0  0
  193.5460  170.1940  142.9890 C   0  0  0  0  0  0  0  0  0  0  0  0
  194.7810  170.0670  143.7390 C   0  0  0  0  0  3  0  0  0  0  0  0
  193.5960  171.1430  142.1110 N   0  0  0  0  0  0  0  0  0  0  0  0
  195.5780  171.0180  143.2720 C   0  0  0  0  0  0  0  0  0  0  0  0
  194.8720  171.8420  142.2410 C   0  0  1  0  0  3  0  0  0  0  0  0
  197.5710  172.6090  138.5230 C   0  0  0  0  0  2  0  0  0  0  0  0
  196.6360  173.5280  139.2740 C   0  0  0  0  0  2  0  0  0  0  0  0
  196.6000  170.4190  139.1840 C   0  0  0  0  0  0  0  0  0  0  0  0
  197.1420  169.2820  139.1120 O   0  0  0  0  0  0  0  0  0  0  0  0
  196.8050  171.3960  138.0640 C   0  0  0  0  0  2  0  0  0  0  0  0
  195.7920  170.7170  140.3290 N   0  0  0  0  0  0  0  0  0  0  0  0
  195.6200  171.8580  140.9390 C   0  0  0  0  0  0  0  0  0  0  0  0
  196.3900  173.0300  140.6140 N   0  0  0  0  0  2  0  0  0  0  0  0
  196.9680  171.2680  143.7740 C   0  0  0  0  0  2  0  0  0  0  0  0
  196.9430  171.4140  145.1560 O   0  0  0  0  0  0  0  0  0  0  0  0
  196.4940  173.0170  145.4900 P   0  0  0  0  0  0  0  0  0  0  0  0
  197.1860  173.5680  146.7220 O   0  0  0  0  0  1  0  0  0  0  0  0
  194.8170  173.1100  145.6940 O   0  0  0  0  0  1  0  0  0  0  0  0
  196.9330  173.9920  144.1710 O   0  0  0  0  0  0  0  0  0  0  0  0
  188.4420  175.9100  140.6540 O   0  0  0  0  0  0  0  0  0  0  0  0
  186.3080  176.7080  140.2450 O   0  0  0  0  0  0  0  0  0  0  0  0
  187.3220  176.6600  141.0070 C   0  0  0  0  0  0  0  0  0  0  0  0
  188.1940  178.6400  142.6060 S   0  0  0  0  0  0  0  0  0  0  0  0
  187.2700  177.3280  142.3280 C   0  0  1  0  0  3  0  0  0  0  0  0
  184.9410  178.7190  142.8860 O   0  0  0  0  0  1  0  0  0  0  0  0
  186.1910  178.3730  145.7460 C   0  0  0  0  0  2  0  0  0  0  0  0
  185.0170  177.5500  143.6610 C   0  0  1  0  0  3  0  0  0  0  0  0
  187.3620  177.4520  145.3650 C   0  0  0  0  0  2  0  0  0  0  0  0
  186.3380  176.7690  143.3850 C   0  0  2  0  0  3  0  0  0  0  0  0
  186.9810  176.3460  144.5760 O   0  0  0  0  0  0  0  0  0  0  0  0
  183.8610  178.8050  145.3840 O   0  0  0  0  0  1  0  0  0  0  0  0
  184.8770  177.8730  145.1590 C   0  0  2  0  0  3  0  0  0  0  0  0
  189.8710  178.0590  142.3120 C   0  0  0  0  0  2  0  0  0  0  0  0
  190.4710  177.6240  143.6390 C   0  0  0  0  0  2  0  0  0  0  0  0
  191.9830  177.7980  143.6870 C   0  0  0  0  0  2  0  0  0  0  0  0
  192.7780  176.5710  143.2200 C   0  0  2  0  0  3  0  0  0  0  0  0
  191.8640  175.5260  142.6140 C   0  0  0  0  0  2  0  0  0  0  0  0
  192.1630  174.1640  143.2100 C   0  0  0  0  0  1  0  0  0  0  0  0
  193.5340  175.9560  144.3950 C   0  0  0  0  0  2  0  0  0  0  0  0
  193.5450  176.8450  145.6310 C   0  0  0  0  0  2  0  0  0  0  0  0
  192.4750  176.3880  146.5610 C   0  0  0  0  0  0  0  0  0  0  0  0
  191.4990  175.5350  146.2250 N   0  0  0  0  0  0  0  0  0  0  0  0
  192.3000  176.8410  147.8500 C   0  0  0  0  0  3  0  0  0  0  0  0
  190.7420  175.4820  147.3350 C   0  0  0  0  0  0  0  0  0  0  0  0
  191.1810  176.2690  148.3270 N   0  0  0  0  0  2  0  0  0  0  0  0
  189.4530  174.7460  147.3890 C   0  0  0  0  0  2  0  0  0  0  0  0
  189.3190  173.8070  146.2050 C   0  0  0  0  0  1  0  0  0  0  0  0
  2 39  1  1  0  0  0
  2  1  1  0  0  0  0
  3  7  1  6  0  0  0
  3  4  1  0  0  0  0
  4  1  1  0  0  0  0
  5  2  1  0  0  0  0
  5  3  1  0  0  0  0
  6  7  1  0  0  0  0
  6 18  1  0  0  0  0
  8  6  2  0  0  0  0
  9  8  1  0  0  0  0
 10  9  2  0  0  0  0
 11  9  1  0  0  0  0
 12 11  1  0  0  0  0
 12 13  1  0  0  0  0
 13 14  1  0  0  0  0
 14 16  1  0  0  0  0
 15 14  2  0  0  0  0
 17 19  1  0  0  0  0
 18 17  2  0  0  0  0
 20 19  1  0  0  0  0
 20 21  1  0  0  0  0
 22 24  1  0  0  0  0
 22 20  2  0  0  0  0
 23 21  2  0  0  0  0
 23 33  1  0  0  0  0
 24 31  1  6  0  0  0
 24 23  1  0  0  0  0
 25 26  1  0  0  0  0
 26 32  1  0  0  0  0
 27 30  1  0  0  0  0
 28 27  2  0  0  0  0
 29 25  1  0  0  0  0
 29 27  1  0  0  0  0
 30 31  2  0  0  0  0
 32 31  1  0  0  0  0
 33 34  1  0  0  0  0
 34 35  1  0  0  0  0
 35 37  1  0  0  0  0
 35 36  1  0  0  0  0
 38 35  2  0  0  0  0
 39 41  1  0  0  0  0
 40 41  2  0  0  0  0
 43 41  1  6  0  0  0
 43 42  1  0  0  0  0
 46 44  1  6  0  0  0
 46 51  1  0  0  0  0
 47 45  1  0  0  0  0
 48 43  1  1  0  0  0
 48 46  1  0  0  0  0
 48 49  1  0  0  0  0
 49 47  1  0  0  0  0
 51 50  1  6  0  0  0
 51 45  1  0  0  0  0
 52 42  1  0  0  0  0
 52 53  1  0  0  0  0
 53 54  1  0  0  0  0
 55 56  1  1  0  0  0
 55 54  1  0  0  0  0
 55 58  1  0  0  0  0
 56 57  1  0  0  0  0
 58 59  1  0  0  0  0
 59 60  1  0  0  0  0
 60 62  2  0  0  0  0
 61 60  1  0  0  0  0
 61 63  2  0  0  0  0
 62 64  1  0  0  0  0
 63 65  1  0  0  0  0
 63 64  1  0  0  0  0
 66 65  1  0  0  0  0
M  END
>  <MODEL>
6

>  <REMARK>
 VINA RESULT:      -4.8      3.086      4.952
  Name = 
  26 active torsions:
  status: ('A' for Active; 'I' for Inactive)
    1  A    between atoms: C_2  and  O_50
    2  A    between atoms: C_3  and  O_65
    3  A    between atoms: C_4  and  C_36
    4  A    between atoms: C_4  and  C_48
    5  A    between atoms: C_5  and  C_7
    6  A    between atoms: C_5  and  C_21
    7  A    between atoms: P_10  and  O_55
    8  A    between atoms: C_11  and  N_44
    9  A    between atoms: C_12  and  C_54
   10  A    between atoms: C_18  and  C_53
   11  A    between atoms: C_21  and  C_53
   12  A    between atoms: C_28  and  C_49
   13  A    between atoms: C_30  and  C_47
   14  A    between atoms: C_30  and  O_55
   15  A    between atoms: C_31  and  C_60
   16  A    between atoms: C_32  and  N_43
   17  A    between atoms: C_33  and  C_54
   18  A    between atoms: C_36  and  C_53
   19  A    between atoms: C_37  and  C_42
   20  A    between atoms: C_37  and  O_50
   21  A    between atoms: S_38  and  C_48
   22  A    between atoms: C_40  and  C_57
   23  A    between atoms: C_40  and  C_59
   24  A    between atoms: C_42  and  C_45
   25  A    between atoms: C_57  and  O_65
   26  A    between atoms: N_58  and  C_59
                            x       y       z     vdW  Elec       q    Type
                         _______ _______ _______ _____ _____    ______ ____

>  <TORSDO>
F 26

$$$$
=
 OpenBabel11042416203D

 66 70  0  0  1  0  0  0  0  0999 V2000
  191.1400  176.7200  146.8970 C   0  0  0  0  0  2  0  0  0  0  0  0
  191.9060  176.6890  145.5970 C   0  0  2  0  0  3  0  0  0  0  0  0
  189.8770  175.3630  145.3410 C   0  0  2  0  0  3  0  0  0  0  0  0
  189.7350  176.3110  146.5280 C   0  0  0  0  0  2  0  0  0  0  0  0
  191.2880  175.5620  144.8000 C   0  0  0  0  0  2  0  0  0  0  0  0
  189.2460  175.5550  142.9020 C   0  0  0  0  0  0  0  0  0  0  0  0
  188.9230  175.7020  144.2970 N   0  0  0  0  0  2  0  0  0  0  0  0
  188.6020  176.2440  141.9880 N   0  0  0  0  0  0  0  0  0  0  0  0
  187.5280  177.1710  142.2320 C   0  0  0  0  0  0  0  0  0  0  0  0
  187.6870  178.4160  142.0740 O   0  0  0  0  0  0  0  0  0  0  0  0
  186.1730  176.6450  142.5760 C   0  0  0  0  0  2  0  0  0  0  0  0
  185.5720  177.3960  143.7600 C   0  0  0  0  0  2  0  0  0  0  0  0
  185.9610  176.7810  144.9890 O   0  0  0  0  0  0  0  0  0  0  0  0
  185.5640  177.2810  146.2360 C   0  0  0  0  0  0  0  0  0  0  0  0
  186.3740  177.3340  147.1970 O   0  0  0  0  0  1  0  0  0  0  0  0
  184.2460  177.6700  146.4310 O   0  0  0  0  0  0  0  0  0  0  0  0
  191.0330  174.8810  141.4560 C   0  0  0  0  0  3  0  0  0  0  0  0
  190.3430  174.7130  142.5350 N   0  0  0  0  0  0  0  0  0  0  0  0
  192.1790  173.9610  141.1890 C   0  0  0  0  0  2  0  0  0  0  0  0
  192.6520  174.0220  139.7730 C   0  0  0  0  0  0  0  0  0  0  0  0
  194.0530  173.9310  139.4080 C   0  0  0  0  0  3  0  0  0  0  0  0
  191.8660  173.8790  138.7560 N   0  0  0  0  0  0  0  0  0  0  0  0
  194.0650  173.7460  138.0950 C   0  0  0  0  0  0  0  0  0  0  0  0
  192.6740  173.7690  137.5440 C   0  0  1  0  0  3  0  0  0  0  0  0
  192.4790  169.9730  134.8510 C   0  0  0  0  0  2  0  0  0  0  0  0
  192.8140  171.4080  134.5170 C   0  0  0  0  0  2  0  0  0  0  0  0
  191.1820  170.3390  136.9390 C   0  0  0  0  0  0  0  0  0  0  0  0
  190.9060  169.4920  137.8320 O   0  0  0  0  0  0  0  0  0  0  0  0
  191.1210  169.9240  135.4980 C   0  0  0  0  0  2  0  0  0  0  0  0
  191.5240  171.6690  137.3430 N   0  0  0  0  0  0  0  0  0  0  0  0
  192.3570  172.5090  136.7900 C   0  0  0  0  0  0  0  0  0  0  0  0
  193.2230  172.1320  135.7050 N   0  0  0  0  0  2  0  0  0  0  0  0
  195.3160  173.6110  137.2800 C   0  0  0  0  0  2  0  0  0  0  0  0
  195.9830  174.8290  137.2470 O   0  0  0  0  0  0  0  0  0  0  0  0
  195.7470  175.4970  135.7040 P   0  0  0  0  0  0  0  0  0  0  0  0
  194.4800  176.3250  135.6170 O   0  0  0  0  0  1  0  0  0  0  0  0
  195.6960  174.2610  134.5480 O   0  0  0  0  0  0  0  0  0  0  0  0
  197.0570  176.5170  135.3460 O   0  0  0  0  0  1  0  0  0  0  0  0
  193.2980  176.4670  145.8250 O   0  0  0  0  0  0  0  0  0  0  0  0
  193.4370  174.4120  146.8810 O   0  0  0  0  0  0  0  0  0  0  0  0
  193.8160  175.1790  145.9440 C   0  0  0  0  0  0  0  0  0  0  0  0
  194.4990  173.1830  144.2740 S   0  0  0  0  0  0  0  0  0  0  0  0
  194.7440  174.6620  144.9110 C   0  0  1  0  0  3  0  0  0  0  0  0
  194.4110  176.2010  142.6320 O   0  0  0  0  0  1  0  0  0  0  0  0
  197.1000  174.7020  142.0150 C   0  0  0  0  0  2  0  0  0  0  0  0
  195.6760  176.4250  143.2000 C   0  0  1  0  0  3  0  0  0  0  0  0
  197.2950  174.0260  143.3830 C   0  0  0  0  0  2  0  0  0  0  0  0
  195.8950  175.5430  144.4670 C   0  0  2  0  0  3  0  0  0  0  0  0
  197.1630  174.9070  144.4760 O   0  0  0  0  0  0  0  0  0  0  0  0
  196.4660  176.7430  140.9290 O   0  0  0  0  0  1  0  0  0  0  0  0
  196.7920  176.1860  142.1680 C   0  0  2  0  0  3  0  0  0  0  0  0
  194.5430  172.0850  145.6980 C   0  0  0  0  0  2  0  0  0  0  0  0
  195.8360  171.2870  145.6520 C   0  0  0  0  0  2  0  0  0  0  0  0
  195.6010  169.7970  145.4440 C   0  0  0  0  0  2  0  0  0  0  0  0
  196.0840  169.2620  144.0900 C   0  0  2  0  0  3  0  0  0  0  0  0
  197.0640  170.2190  143.4410 C   0  0  0  0  0  2  0  0  0  0  0  0
  197.2480  169.8640  141.9790 C   0  0  0  0  0  1  0  0  0  0  0  0
  194.8970  169.0490  143.1540 C   0  0  0  0  0  2  0  0  0  0  0  0
  193.5570  169.0460  143.8780 C   0  0  0  0  0  2  0  0  0  0  0  0
  192.5130  169.5800  142.9610 C   0  0  0  0  0  0  0  0  0  0  0  0
  191.6450  170.5440  143.2880 N   0  0  0  0  0  0  0  0  0  0  0  0
  192.2500  169.1000  141.6960 C   0  0  0  0  0  3  0  0  0  0  0  0
  190.8620  170.6360  142.1990 C   0  0  0  0  0  0  0  0  0  0  0  0
  191.1830  169.7710  141.2280 N   0  0  0  0  0  2  0  0  0  0  0  0
  189.6580  171.5040  142.1500 C   0  0  0  0  0  2  0  0  0  0  0  0
  189.2490  171.9360  143.5460 C   0  0  0  0  0  1  0  0  0  0  0  0
  2 39  1  1  0  0  0
  2  1  1  0  0  0  0
  3  7  1  6  0  0  0
  3  4  1  0  0  0  0
  4  1  1  0  0  0  0
  5  3  1  0  0  0  0
  5  2  1  0  0  0  0
  6  7  1  0  0  0  0
  8  9  1  0  0  0  0
  8  6  2  0  0  0  0
  9 11  1  0  0  0  0
 10  9  2  0  0  0  0
 11 12  1  0  0  0  0
 12 13  1  0  0  0  0
 13 14  1  0  0  0  0
 14 16  2  0  0  0  0
 14 15  1  0  0  0  0
 17 18  2  0  0  0  0
 18  6  1  0  0  0  0
 19 17  1  0  0  0  0
 20 19  1  0  0  0  0
 21 20  1  0  0  0  0
 22 20  2  0  0  0  0
 23 21  2  0  0  0  0
 24 31  1  1  0  0  0
 24 23  1  0  0  0  0
 24 22  1  0  0  0  0
 25 29  1  0  0  0  0
 26 25  1  0  0  0  0
 26 32  1  0  0  0  0
 27 30  1  0  0  0  0
 27 28  2  0  0  0  0
 29 27  1  0  0  0  0
 31 30  2  0  0  0  0
 32 31  1  0  0  0  0
 33 23  1  0  0  0  0
 34 33  1  0  0  0  0
 35 34  1  0  0  0  0
 36 35  1  0  0  0  0
 37 35  2  0  0  0  0
 38 35  1  0  0  0  0
 39 41  1  0  0  0  0
 41 40  2  0  0  0  0
 42 52  1  0  0  0  0
 43 42  1  6  0  0  0
 43 41  1  0  0  0  0
 45 51  1  0  0  0  0
 45 47  1  0  0  0  0
 46 44  1  6  0  0  0
 46 48  1  0  0  0  0
 47 49  1  0  0  0  0
 48 49  1  0  0  0  0
 48 43  1  6  0  0  0
 51 50  1  6  0  0  0
 51 46  1  0  0  0  0
 53 52  1  0  0  0  0
 54 53  1  0  0  0  0
 55 58  1  6  0  0  0
 55 54  1  0  0  0  0
 56 55  1  0  0  0  0
 57 56  1  0  0  0  0
 58 59  1  0  0  0  0
 60 61  1  0  0  0  0
 60 59  1  0  0  0  0
 62 60  2  0  0  0  0
 63 61  2  0  0  0  0
 64 62  1  0  0  0  0
 64 63  1  0  0  0  0
 65 63  1  0  0  0  0
 65 66  1  0  0  0  0
M  END
>  <MODEL>
7

>  <REMARK>
 VINA RESULT:      -4.7      3.170      7.600
  Name = 
  26 active torsions:
  status: ('A' for Active; 'I' for Inactive)
    1  A    between atoms: C_2  and  O_50
    2  A    between atoms: C_3  and  O_65
    3  A    between atoms: C_4  and  C_36
    4  A    between atoms: C_4  and  C_48
    5  A    between atoms: C_5  and  C_7
    6  A    between atoms: C_5  and  C_21
    7  A    between atoms: P_10  and  O_55
    8  A    between atoms: C_11  and  N_44
    9  A    between atoms: C_12  and  C_54
   10  A    between atoms: C_18  and  C_53
   11  A    between atoms: C_21  and  C_53
   12  A    between atoms: C_28  and  C_49
   13  A    between atoms: C_30  and  C_47
   14  A    between atoms: C_30  and  O_55
   15  A    between atoms: C_31  and  C_60
   16  A    between atoms: C_32  and  N_43
   17  A    between atoms: C_33  and  C_54
   18  A    between atoms: C_36  and  C_53
   19  A    between atoms: C_37  and  C_42
   20  A    between atoms: C_37  and  O_50
   21  A    between atoms: S_38  and  C_48
   22  A    between atoms: C_40  and  C_57
   23  A    between atoms: C_40  and  C_59
   24  A    between atoms: C_42  and  C_45
   25  A    between atoms: C_57  and  O_65
   26  A    between atoms: N_58  and  C_59
                            x       y       z     vdW  Elec       q    Type
                         _______ _______ _______ _____ _____    ______ ____

>  <TORSDO>
F 26

$$$$
=
 OpenBabel11042416203D

 66 70  0  0  1  0  0  0  0  0999 V2000
  187.9560  173.8680  142.1730 C   0  0  0  0  0  2  0  0  0  0  0  0
  188.7540  174.9040  141.4170 C   0  0  2  0  0  3  0  0  0  0  0  0
  189.6760  172.6990  140.9360 C   0  0  2  0  0  3  0  0  0  0  0  0
  188.2550  172.5640  141.4760 C   0  0  0  0  0  2  0  0  0  0  0  0
  190.0080  174.1860  140.9690 C   0  0  0  0  0  2  0  0  0  0  0  0
  190.6180  171.1560  139.1720 C   0  0  0  0  0  0  0  0  0  0  0  0
  189.7470  172.2340  139.5600 N   0  0  0  0  0  2  0  0  0  0  0  0
  191.0110  171.0280  137.9250 N   0  0  0  0  0  0  0  0  0  0  0  0
  190.6320  171.8800  136.8290 C   0  0  0  0  0  0  0  0  0  0  0  0
  189.4450  171.8970  136.3910 O   0  0  0  0  0  0  0  0  0  0  0  0
  191.6310  172.8390  136.2690 C   0  0  0  0  0  2  0  0  0  0  0  0
  191.3410  174.2670  136.7210 C   0  0  0  0  0  2  0  0  0  0  0  0
  192.4350  174.7800  137.4830 O   0  0  0  0  0  0  0  0  0  0  0  0
  193.2510  173.9560  138.2710 C   0  0  0  0  0  0  0  0  0  0  0  0
  193.0370  173.8270  139.5030 O   0  0  0  0  0  1  0  0  0  0  0  0
  194.3420  173.3200  137.6960 O   0  0  0  0  0  0  0  0  0  0  0  0
  190.5640  169.1520  140.4810 C   0  0  0  0  0  3  0  0  0  0  0  0
  191.1200  170.2780  140.1830 N   0  0  0  0  0  0  0  0  0  0  0  0
  191.1950  168.2970  141.5330 C   0  0  0  0  0  2  0  0  0  0  0  0
  192.4020  168.9310  142.1450 C   0  0  0  0  0  0  0  0  0  0  0  0
  193.3940  168.1760  142.8860 C   0  0  0  0  0  3  0  0  0  0  0  0
  192.8110  170.1190  141.8400 N   0  0  0  0  0  0  0  0  0  0  0  0
  194.4270  168.9950  143.0310 C   0  0  0  0  0  0  0  0  0  0  0  0
  194.1250  170.3370  142.4420 C   0  0  1  0  0  3  0  0  0  0  0  0
  196.8940  170.9320  138.7440 C   0  0  0  0  0  2  0  0  0  0  0  0
  196.5150  169.6840  139.5060 C   0  0  0  0  0  2  0  0  0  0  0  0
  196.4300  172.6300  140.4980 C   0  0  0  0  0  0  0  0  0  0  0  0
  196.2700  173.8720  140.3440 O   0  0  0  0  0  0  0  0  0  0  0  0
  197.4910  171.9290  139.7010 C   0  0  0  0  0  2  0  0  0  0  0  0
  195.6020  171.9480  141.4460 N   0  0  0  0  0  0  0  0  0  0  0  0
  195.1400  170.7280  141.4060 C   0  0  0  0  0  0  0  0  0  0  0  0
  195.2840  169.8870  140.2480 N   0  0  0  0  0  2  0  0  0  0  0  0
  195.6880  168.6340  143.7570 C   0  0  0  0  0  2  0  0  0  0  0  0
  195.4320  168.5530  145.1200 O   0  0  0  0  0  0  0  0  0  0  0  0
  195.9130  170.0240  145.8170 P   0  0  0  0  0  0  0  0  0  0  0  0
  196.5230  169.8430  147.1930 O   0  0  0  0  0  1  0  0  0  0  0  0
  194.5860  171.0690  145.9190 O   0  0  0  0  0  1  0  0  0  0  0  0
  197.0880  170.7400  144.8220 O   0  0  0  0  0  0  0  0  0  0  0  0
  189.0600  176.0240  142.2470 O   0  0  0  0  0  0  0  0  0  0  0  0
  188.8010  178.0550  141.1690 O   0  0  0  0  0  0  0  0  0  0  0  0
  188.4220  177.2500  142.0740 C   0  0  0  0  0  0  0  0  0  0  0  0
  187.3660  178.5860  144.1570 S   0  0  0  0  0  0  0  0  0  0  0  0
  187.2260  177.5790  142.8850 C   0  0  1  0  0  3  0  0  0  0  0  0
  185.9180  178.6130  140.6730 O   0  0  0  0  0  1  0  0  0  0  0  0
  183.6750  178.7310  142.8670 C   0  0  0  0  0  2  0  0  0  0  0  0
  185.1900  177.5460  141.2240 C   0  0  1  0  0  3  0  0  0  0  0  0
  184.4210  177.9840  143.9850 C   0  0  0  0  0  2  0  0  0  0  0  0
  185.8950  176.9710  142.4900 C   0  0  2  0  0  3  0  0  0  0  0  0
  184.9970  176.7660  143.5690 O   0  0  0  0  0  0  0  0  0  0  0  0
  183.2030  178.7410  140.5170 O   0  0  0  0  0  1  0  0  0  0  0  0
  183.7480  177.9730  141.5480 C   0  0  2  0  0  3  0  0  0  0  0  0
  188.5830  177.7860  145.2120 C   0  0  0  0  0  2  0  0  0  0  0  0
  188.1600  176.3420  145.4290 C   0  0  0  0  0  2  0  0  0  0  0  0
  188.7240  175.7500  146.7130 C   0  0  0  0  0  2  0  0  0  0  0  0
  190.0490  174.9960  146.5350 C   0  0  2  0  0  3  0  0  0  0  0  0
  190.9050  175.0920  147.7820 C   0  0  0  0  0  2  0  0  0  0  0  0
  192.0700  176.0310  147.5420 C   0  0  0  0  0  1  0  0  0  0  0  0
  190.8240  175.5670  145.3500 C   0  0  0  0  0  2  0  0  0  0  0  0
  191.4100  174.4930  144.4440 C   0  0  0  0  0  2  0  0  0  0  0  0
  192.5150  175.0900  143.6430 C   0  0  0  0  0  0  0  0  0  0  0  0
  193.8100  174.7920  143.8080 N   0  0  0  0  0  0  0  0  0  0  0  0
  192.3620  176.0780  142.6950 C   0  0  0  0  0  3  0  0  0  0  0  0
  194.4270  175.6130  142.9410 C   0  0  0  0  0  0  0  0  0  0  0  0
  193.5910  176.4140  142.2670 N   0  0  0  0  0  2  0  0  0  0  0  0
  195.9060  175.7280  142.8630 C   0  0  0  0  0  2  0  0  0  0  0  0
  196.4060  176.8490  143.7540 C   0  0  0  0  0  1  0  0  0  0  0  0
  2  1  1  0  0  0  0
  2 39  1  1  0  0  0
  3  7  1  6  0  0  0
  3  5  1  0  0  0  0
  3  4  1  0  0  0  0
  4  1  1  0  0  0  0
  5  2  1  0  0  0  0
  6  7  1  0  0  0  0
  6 18  1  0  0  0  0
  8  6  2  0  0  0  0
  9  8  1  0  0  0  0
 10  9  2  0  0  0  0
 11 12  1  0  0  0  0
 11  9  1  0  0  0  0
 12 13  1  0  0  0  0
 13 14  1  0  0  0  0
 14 15  1  0  0  0  0
 16 14  2  0  0  0  0
 17 19  1  0  0  0  0
 18 17  2  0  0  0  0
 19 20  1  0  0  0  0
 20 21  1  0  0  0  0
 21 23  2  0  0  0  0
 22 20  2  0  0  0  0
 22 24  1  0  0  0  0
 23 33  1  0  0  0  0
 24 31  1  6  0  0  0
 24 23  1  0  0  0  0
 25 26  1  0  0  0  0
 25 29  1  0  0  0  0
 26 32  1  0  0  0  0
 27 30  1  0  0  0  0
 28 27  2  0  0  0  0
 29 27  1  0  0  0  0
 31 30  2  0  0  0  0
 32 31  1  0  0  0  0
 33 34  1  0  0  0  0
 34 35  1  0  0  0  0
 35 37  1  0  0  0  0
 35 36  1  0  0  0  0
 38 35  2  0  0  0  0
 40 41  2  0  0  0  0
 41 39  1  0  0  0  0
 42 52  1  0  0  0  0
 43 41  1  6  0  0  0
 43 42  1  0  0  0  0
 45 47  1  0  0  0  0
 46 44  1  1  0  0  0
 46 51  1  0  0  0  0
 46 48  1  0  0  0  0
 48 43  1  1  0  0  0
 48 49  1  0  0  0  0
 49 47  1  0  0  0  0
 51 50  1  6  0  0  0
 51 45  1  0  0  0  0
 52 53  1  0  0  0  0
 53 54  1  0  0  0  0
 55 58  1  6  0  0  0
 55 54  1  0  0  0  0
 55 56  1  0  0  0  0
 57 56  1  0  0  0  0
 59 58  1  0  0  0  0
 60 61  1  0  0  0  0
 60 59  1  0  0  0  0
 62 60  2  0  0  0  0
 63 61  2  0  0  0  0
 64 62  1  0  0  0  0
 64 63  1  0  0  0  0
 65 63  1  0  0  0  0
 65 66  1  0  0  0  0
M  END
>  <MODEL>
8

>  <REMARK>
 VINA RESULT:      -4.5      3.119      5.521
  Name = 
  26 active torsions:
  status: ('A' for Active; 'I' for Inactive)
    1  A    between atoms: C_2  and  O_50
    2  A    between atoms: C_3  and  O_65
    3  A    between atoms: C_4  and  C_36
    4  A    between atoms: C_4  and  C_48
    5  A    between atoms: C_5  and  C_7
    6  A    between atoms: C_5  and  C_21
    7  A    between atoms: P_10  and  O_55
    8  A    between atoms: C_11  and  N_44
    9  A    between atoms: C_12  and  C_54
   10  A    between atoms: C_18  and  C_53
   11  A    between atoms: C_21  and  C_53
   12  A    between atoms: C_28  and  C_49
   13  A    between atoms: C_30  and  C_47
   14  A    between atoms: C_30  and  O_55
   15  A    between atoms: C_31  and  C_60
   16  A    between atoms: C_32  and  N_43
   17  A    between atoms: C_33  and  C_54
   18  A    between atoms: C_36  and  C_53
   19  A    between atoms: C_37  and  C_42
   20  A    between atoms: C_37  and  O_50
   21  A    between atoms: S_38  and  C_48
   22  A    between atoms: C_40  and  C_57
   23  A    between atoms: C_40  and  C_59
   24  A    between atoms: C_42  and  C_45
   25  A    between atoms: C_57  and  O_65
   26  A    between atoms: N_58  and  C_59
                            x       y       z     vdW  Elec       q    Type
                         _______ _______ _______ _____ _____    ______ ____

>  <TORSDO>
F 26

$$$$
=
 OpenBabel11042416203D

 66 70  0  0  1  0  0  0  0  0999 V2000
  190.2200  177.2250  143.0950 C   0  0  0  0  0  2  0  0  0  0  0  0
  190.2300  176.1200  142.0650 C   0  0  2  0  0  3  0  0  0  0  0  0
  187.9780  176.3200  142.9780 C   0  0  2  0  0  3  0  0  0  0  0  0
  188.7660  177.5990  143.2480 C   0  0  0  0  0  2  0  0  0  0  0  0
  188.9410  175.3610  142.2880 C   0  0  0  0  0  2  0  0  0  0  0  0
  187.0080  176.5250  140.6550 C   0  0  0  0  0  0  0  0  0  0  0  0
  186.8610  176.5850  142.0850 N   0  0  0  0  0  2  0  0  0  0  0  0
  186.1750  177.1680  139.8670 N   0  0  0  0  0  0  0  0  0  0  0  0
  185.0500  177.9570  140.2950 C   0  0  0  0  0  0  0  0  0  0  0  0
  185.2110  179.0380  140.9330 O   0  0  0  0  0  0  0  0  0  0  0  0
  183.6730  177.5470  139.8860 C   0  0  0  0  0  2  0  0  0  0  0  0
  182.6140  178.2530  140.7260 C   0  0  0  0  0  2  0  0  0  0  0  0
  181.3280  177.6760  140.4930 O   0  0  0  0  0  0  0  0  0  0  0  0
  180.1930  178.4550  140.2310 C   0  0  0  0  0  0  0  0  0  0  0  0
  179.1110  177.9180  139.8800 O   0  0  0  0  0  0  0  0  0  0  0  0
  180.2780  179.8370  140.3060 O   0  0  0  0  0  1  0  0  0  0  0  0
  188.0150  174.7690  139.3750 C   0  0  0  0  0  3  0  0  0  0  0  0
  188.1300  175.8270  140.1060 N   0  0  0  0  0  0  0  0  0  0  0  0
  189.2550  174.1400  138.8260 C   0  0  0  0  0  2  0  0  0  0  0  0
  189.4140  172.7150  139.2450 C   0  0  0  0  0  0  0  0  0  0  0  0
  189.4670  171.6190  138.2960 C   0  0  0  0  0  3  0  0  0  0  0  0
  189.7930  172.3620  140.4290 N   0  0  0  0  0  0  0  0  0  0  0  0
  189.8830  170.5690  138.9910 C   0  0  0  0  0  0  0  0  0  0  0  0
  190.0600  170.9250  140.4340 C   0  0  1  0  0  3  0  0  0  0  0  0
  194.6120  170.6810  141.3910 C   0  0  0  0  0  2  0  0  0  0  0  0
  193.8790  170.7250  140.0700 C   0  0  0  0  0  2  0  0  0  0  0  0
  192.7770  169.8420  142.8420 C   0  0  0  0  0  0  0  0  0  0  0  0
  192.7040  169.8950  144.1000 O   0  0  0  0  0  0  0  0  0  0  0  0
  194.0960  169.5210  142.2010 C   0  0  0  0  0  2  0  0  0  0  0  0
  191.5860  170.0710  142.0810 N   0  0  0  0  0  0  0  0  0  0  0  0
  191.4540  170.6320  140.9090 C   0  0  0  0  0  0  0  0  0  0  0  0
  192.5490  171.2800  140.2370 N   0  0  0  0  0  2  0  0  0  0  0  0
  190.0710  169.2000  138.4100 C   0  0  0  0  0  2  0  0  0  0  0  0
  190.3440  169.3060  137.0510 O   0  0  0  0  0  0  0  0  0  0  0  0
  192.0030  169.0170  136.8410 P   0  0  0  0  0  0  0  0  0  0  0  0
  192.5910  168.1720  137.9550 O   0  0  0  0  0  1  0  0  0  0  0  0
  192.8330  170.4890  136.7490 O   0  0  0  0  0  1  0  0  0  0  0  0
  192.2300  168.1770  135.3820 O   0  0  0  0  0  0  0  0  0  0  0  0
  191.3700  175.2770  142.2270 O   0  0  0  0  0  0  0  0  0  0  0  0
  192.7960  177.0480  142.6540 O   0  0  0  0  0  0  0  0  0  0  0  0
  192.6060  175.7940  142.6050 C   0  0  0  0  0  0  0  0  0  0  0  0
  193.2960  173.4130  143.6520 S   0  0  0  0  0  0  0  0  0  0  0  0
  193.6810  174.8780  143.0520 C   0  0  1  0  0  3  0  0  0  0  0  0
  195.0900  174.1300  140.7880 O   0  0  0  0  0  1  0  0  0  0  0  0
  197.0170  173.2020  143.0870 C   0  0  0  0  0  2  0  0  0  0  0  0
  195.8870  174.9290  141.6250 C   0  0  1  0  0  3  0  0  0  0  0  0
  196.2520  173.8090  144.2750 C   0  0  0  0  0  2  0  0  0  0  0  0
  195.1210  175.3340  142.9210 C   0  0  2  0  0  3  0  0  0  0  0  0
  195.9030  175.1640  144.0920 O   0  0  0  0  0  0  0  0  0  0  0  0
  197.7610  173.6040  140.8440 O   0  0  0  0  0  1  0  0  0  0  0  0
  197.2070  174.2190  141.9690 C   0  0  2  0  0  3  0  0  0  0  0  0
  192.2290  173.7860  145.0520 C   0  0  0  0  0  2  0  0  0  0  0  0
  190.8300  173.2780  144.7420 C   0  0  0  0  0  2  0  0  0  0  0  0
  189.8160  173.6540  145.8140 C   0  0  0  0  0  2  0  0  0  0  0  0
  189.8250  175.1380  146.2030 C   0  0  2  0  0  3  0  0  0  0  0  0
  190.2810  175.3250  147.6360 C   0  0  0  0  0  2  0  0  0  0  0  0
  191.5700  176.1230  147.6720 C   0  0  0  0  0  1  0  0  0  0  0  0
  188.4290  175.7330  146.0380 C   0  0  0  0  0  2  0  0  0  0  0  0
  187.7600  176.0650  147.3650 C   0  0  0  0  0  2  0  0  0  0  0  0
  186.6980  177.0820  147.1270 C   0  0  0  0  0  0  0  0  0  0  0  0
  186.6230  177.8510  146.0340 N   0  0  0  0  0  0  0  0  0  0  0  0
  185.7120  177.4220  148.0270 C   0  0  0  0  0  3  0  0  0  0  0  0
  185.5750  178.6510  146.2920 C   0  0  0  0  0  0  0  0  0  0  0  0
  185.0130  178.4360  147.4890 N   0  0  0  0  0  2  0  0  0  0  0  0
  185.1870  179.7740  145.4010 C   0  0  0  0  0  2  0  0  0  0  0  0
  185.5580  179.4710  143.9610 C   0  0  0  0  0  1  0  0  0  0  0  0
  1  4  1  0  0  0  0
  2 39  1  1  0  0  0
  2  5  1  0  0  0  0
  2  1  1  0  0  0  0
  3  7  1  6  0  0  0
  3  4  1  0  0  0  0
  5  3  1  0  0  0  0
  6  7  1  0  0  0  0
  8  9  1  0  0  0  0
  8  6  2  0  0  0  0
  9 10  2  0  0  0  0
 11  9  1  0  0  0  0
 11 12  1  0  0  0  0
 13 12  1  0  0  0  0
 14 16  1  0  0  0  0
 14 13  1  0  0  0  0
 15 14  2  0  0  0  0
 17 18  2  0  0  0  0
 18  6  1  0  0  0  0
 19 20  1  0  0  0  0
 19 17  1  0  0  0  0
 20 22  2  0  0  0  0
 21 23  2  0  0  0  0
 21 20  1  0  0  0  0
 22 24  1  0  0  0  0
 23 24  1  0  0  0  0
 24 31  1  6  0  0  0
 25 29  1  0  0  0  0
 26 32  1  0  0  0  0
 26 25  1  0  0  0  0
 27 28  2  0  0  0  0
 29 27  1  0  0  0  0
 30 27  1  0  0  0  0
 31 30  2  0  0  0  0
 32 31  1  0  0  0  0
 33 23  1  0  0  0  0
 34 33  1  0  0  0  0
 35 34  1  0  0  0  0
 35 36  1  0  0  0  0
 37 35  1  0  0  0  0
 38 35  2  0  0  0  0
 39 41  1  0  0  0  0
 41 40  2  0  0  0  0
 42 52  1  0  0  0  0
 43 41  1  6  0  0  0
 43 42  1  0  0  0  0
 45 47  1  0  0  0  0
 46 44  1  6  0  0  0
 46 51  1  0  0  0  0
 46 48  1  0  0  0  0
 48 43  1  1  0  0  0
 48 49  1  0  0  0  0
 49 47  1  0  0  0  0
 51 50  1  6  0  0  0
 51 45  1  0  0  0  0
 53 52  1  0  0  0  0
 53 54  1  0  0  0  0
 55 54  1  1  0  0  0
 55 56  1  0  0  0  0
 56 57  1  0  0  0  0
 58 55  1  0  0  0  0
 58 59  1  0  0  0  0
 60 59  1  0  0  0  0
 60 62  2  0  0  0  0
 61 63  2  0  0  0  0
 61 60  1  0  0  0  0
 63 64  1  0  0  0  0
 64 62  1  0  0  0  0
 65 63  1  0  0  0  0
 66 65  1  0  0  0  0
M  END
>  <MODEL>
9

>  <REMARK>
 VINA RESULT:      -4.3      3.726      8.622
  Name = 
  26 active torsions:
  status: ('A' for Active; 'I' for Inactive)
    1  A    between atoms: C_2  and  O_50
    2  A    between atoms: C_3  and  O_65
    3  A    between atoms: C_4  and  C_36
    4  A    between atoms: C_4  and  C_48
    5  A    between atoms: C_5  and  C_7
    6  A    between atoms: C_5  and  C_21
    7  A    between atoms: P_10  and  O_55
    8  A    between atoms: C_11  and  N_44
    9  A    between atoms: C_12  and  C_54
   10  A    between atoms: C_18  and  C_53
   11  A    between atoms: C_21  and  C_53
   12  A    between atoms: C_28  and  C_49
   13  A    between atoms: C_30  and  C_47
   14  A    between atoms: C_30  and  O_55
   15  A    between atoms: C_31  and  C_60
   16  A    between atoms: C_32  and  N_43
   17  A    between atoms: C_33  and  C_54
   18  A    between atoms: C_36  and  C_53
   19  A    between atoms: C_37  and  C_42
   20  A    between atoms: C_37  and  O_50
   21  A    between atoms: S_38  and  C_48
   22  A    between atoms: C_40  and  C_57
   23  A    between atoms: C_40  and  C_59
   24  A    between atoms: C_42  and  C_45
   25  A    between atoms: C_57  and  O_65
   26  A    between atoms: N_58  and  C_59
                            x       y       z     vdW  Elec       q    Type
                         _______ _______ _______ _____ _____    ______ ____

>  <TORSDO>
F 26

$$$$
