=
 OpenBabel11042417563D

 55 57  0  0  1  0  0  0  0  0999 V2000
  192.7240  173.3240  143.8550 N   0  0  0  0  0  0  0  0  0  0  0  0
  193.0710  174.3120  144.6240 C   0  0  0  0  0  0  0  0  0  0  0  0
  193.5390  176.2350  143.2230 C   0  0  0  0  0  2  0  0  0  0  0  0
  193.9840  175.3360  144.1020 C   0  0  0  0  0  0  0  0  0  0  0  0
  195.4520  175.1830  144.3100 C   0  0  0  0  0  2  0  0  0  0  0  0
  196.1450  176.1970  143.6370 O   0  0  0  0  0  0  0  0  0  0  0  0
  197.2180  175.5360  143.0330 C   0  0  0  0  0  2  0  0  0  0  0  0
  196.7900  174.9860  141.6860 C   0  0  0  0  0  2  0  0  0  0  0  0
  196.3190  176.0690  140.8370 N   0  0  0  0  0  2  0  0  0  0  0  0
  195.2610  175.5190  140.0130 C   0  0  0  0  0  2  0  0  0  0  0  0
  195.3410  174.0040  140.0410 C   0  0  0  0  0  2  0  0  0  0  0  0
  192.4420  172.9930  138.6880 C   0  0  1  0  0  3  0  0  0  0  0  0
  192.6110  171.5900  138.0760 C   0  0  1  0  0  3  0  0  0  0  0  0
  194.0690  171.1750  137.8370 C   0  0  2  0  0  3  0  0  0  0  0  0
  193.5680  173.9320  138.2580 C   0  0  0  0  0  2  0  0  0  0  0  0
  195.0300  171.8850  138.7920 C   0  0  0  0  0  2  0  0  0  0  0  0
  194.4260  171.4310  136.5070 O   0  0  0  0  0  1  0  0  0  0  0  0
  194.9500  173.4170  138.6990 C   0  0  2  0  0  3  0  0  0  0  0  0
  188.8610  174.1260  139.0110 O   0  0  0  0  0  1  0  0  0  0  0  0
  191.1100  173.5610  138.3240 C   0  0  0  0  0  0  0  0  0  0  0  0
  190.0920  173.6500  139.3190 N   0  0  0  0  0  2  0  0  0  0  0  0
  190.8760  173.9300  137.1400 O   0  0  0  0  0  0  0  0  0  0  0  0
  192.3950  170.1650  139.9870 O   0  0  0  0  0  0  0  0  0  0  0  0
  191.9010  170.5600  138.8940 C   0  0  0  0  0  0  0  0  0  0  0  0
  190.6850  170.0510  138.4380 O   0  0  0  0  0  0  0  0  0  0  0  0
  190.5420  168.6920  138.0510 C   0  0  0  0  0  1  0  0  0  0  0  0
  192.5890  174.4110  146.0430 C   0  0  0  0  0  2  0  0  0  0  0  0
  189.9780  177.1450  146.2830 C   0  0  0  0  0  3  0  0  0  0  0  0
  191.2670  175.0970  146.1350 C   0  0  0  0  0  0  0  0  0  0  0  0
  191.2120  176.4930  146.1860 C   0  0  0  0  0  3  0  0  0  0  0  0
  190.0840  174.3510  146.1940 C   0  0  0  0  0  3  0  0  0  0  0  0
  188.8500  175.0030  146.2920 C   0  0  0  0  0  3  0  0  0  0  0  0
  188.7930  176.4040  146.3390 C   0  0  0  0  0  0  0  0  0  0  0  0
  187.3220  178.0390  147.3250 N   0  0  0  0  0  0  0  0  0  0  0  0
  187.5140  177.1130  146.4400 C   0  0  0  0  0  3  0  0  0  0  0  0
  186.0790  178.7360  147.4390 C   0  0  0  0  0  0  0  0  0  0  0  0
  184.8450  178.1270  146.8780 C   0  0  0  0  0  1  0  0  0  0  0  0
  186.0150  179.8600  148.0070 O   0  0  0  0  0  0  0  0  0  0  0  0
  191.8580  172.2150  144.2500 C   0  0  0  0  0  2  0  0  0  0  0  0
  191.3120  171.5100  143.0230 C   0  0  0  0  0  2  0  0  0  0  0  0
  189.8360  171.8270  142.8730 C   0  0  0  0  0  2  0  0  0  0  0  0
  188.4300  173.8870  142.4500 C   0  0  0  0  0  0  0  0  0  0  0  0
  187.4780  173.1740  142.0290 O   0  0  0  0  0  0  0  0  0  0  0  0
  189.6360  173.2690  142.9080 N   0  0  0  0  0  2  0  0  0  0  0  0
  189.5210  177.5120  142.5880 C   0  0  0  0  0  0  0  0  0  0  0  0
  188.2860  175.3530  142.5000 C   0  0  0  0  0  0  0  0  0  0  0  0
  188.5890  178.4140  142.0570 O   0  0  0  0  0  0  0  0  0  0  0  0
  185.2330  177.1340  141.5200 O   0  0  0  0  0  1  0  0  0  0  0  0
  186.9130  175.9160  142.6760 C   0  0  0  0  0  2  0  0  0  0  0  0
  189.3650  176.0810  142.5470 N   0  0  0  0  0  0  0  0  0  0  0  0
  186.6150  177.0240  141.6850 C   0  0  2  0  0  3  0  0  0  0  0  0
  187.1740  178.3450  142.1880 C   0  0  1  0  0  3  0  0  0  0  0  0
  190.6250  177.9740  142.9780 O   0  0  0  0  0  0  0  0  0  0  0  0
  185.7790  179.7200  143.5760 O   0  0  0  0  0  1  0  0  0  0  0  0
  186.7290  178.6970  143.6090 C   0  0  0  0  0  2  0  0  0  0  0  0
  1 39  1  0  0  0  0
  1  2  2  0  0  0  0
  2 27  1  0  0  0  0
  3  4  2  0  0  0  0
  4  5  1  0  0  0  0
  4  2  1  0  0  0  0
  6  5  1  0  0  0  0
  7  6  1  0  0  0  0
  8  7  1  0  0  0  0
  9  8  1  0  0  0  0
 10 11  1  0  0  0  0
 10  9  1  0  0  0  0
 12 20  1  6  0  0  0
 13 12  1  0  0  0  0
 13 24  1  1  0  0  0
 14 17  1  6  0  0  0
 14 13  1  0  0  0  0
 14 16  1  0  0  0  0
 15 12  1  0  0  0  0
 15 18  1  0  0  0  0
 18 16  1  0  0  0  0
 18 11  1  1  0  0  0
 19 21  1  0  0  0  0
 20 21  1  0  0  0  0
 22 20  2  0  0  0  0
 24 23  2  0  0  0  0
 25 24  1  0  0  0  0
 26 25  1  0  0  0  0
 27 29  1  0  0  0  0
 28 33  1  0  0  0  0
 29 30  1  0  0  0  0
 29 31  2  0  0  0  0
 30 28  2  0  0  0  0
 31 32  1  0  0  0  0
 32 33  2  0  0  0  0
 33 35  1  0  0  0  0
 34 36  1  0  0  0  0
 35 34  2  0  0  0  0
 36 38  2  0  0  0  0
 37 36  1  0  0  0  0
 40 39  1  0  0  0  0
 41 44  1  0  0  0  0
 41 40  1  0  0  0  0
 42 46  1  0  0  0  0
 42 44  1  0  0  0  0
 43 42  2  0  0  0  0
 45 53  2  0  0  0  0
 46 50  2  0  0  0  0
 46 49  1  0  0  0  0
 47 52  1  0  0  0  0
 47 45  1  0  0  0  0
 50 45  1  0  0  0  0
 51 48  1  1  0  0  0
 51 52  1  0  0  0  0
 51 49  1  0  0  0  0
 52 55  1  1  0  0  0
 54 55  1  0  0  0  0
M  END
>  <MODEL>
1

>  <REMARK>
 VINA RESULT:      -6.0      0.000      0.000
  Name = 
  22 active torsions:
  status: ('A' for Active; 'I' for Inactive)
    1  A    between atoms: C_1  and  N_6
    2  A    between atoms: C_2  and  C_18
    3  A    between atoms: C_2  and  C_20
    4  A    between atoms: C_4  and  C_19
    5  A    between atoms: O_8  and  C_15
    6  A    between atoms: O_8  and  C_45
    7  A    between atoms: N_9  and  C_20
    8  A    between atoms: C_10  and  C_15
    9  A    between atoms: C_10  and  N_55
   10  A    between atoms: C_11  and  C_30
   11  A    between atoms: C_12  and  C_37
   12  A    between atoms: C_16  and  C_54
   13  A    between atoms: C_18  and  N_33
   14  A    between atoms: O_22  and  C_37
   15  A    between atoms: C_28  and  C_53
   16  A    between atoms: C_36  and  C_41
   17  A    between atoms: C_36  and  N_55
   18  A    between atoms: C_41  and  C_49
   19  A    between atoms: C_45  and  C_52
   20  A    between atoms: C_46  and  C_52
   21  A    between atoms: C_46  and  C_54
   22  A    between atoms: C_48  and  C_50
                            x       y       z     vdW  Elec       q    Type
                         _______ _______ _______ _____ _____    ______ ____

>  <TORSDO>
F 22

$$$$
=
 OpenBabel11042417563D

 55 57  0  0  1  0  0  0  0  0999 V2000
  187.5600  176.2390  143.5910 N   0  0  0  0  0  0  0  0  0  0  0  0
  186.9540  177.2200  144.1900 C   0  0  0  0  0  0  0  0  0  0  0  0
  185.2920  176.6840  145.8710 C   0  0  0  0  0  2  0  0  0  0  0  0
  186.5410  177.0550  145.5890 C   0  0  0  0  0  0  0  0  0  0  0  0
  187.4080  177.5910  146.6770 C   0  0  0  0  0  2  0  0  0  0  0  0
  188.6350  176.9170  146.6950 O   0  0  0  0  0  0  0  0  0  0  0  0
  188.3060  175.6170  147.0930 C   0  0  0  0  0  2  0  0  0  0  0  0
  189.5500  174.7500  147.0950 C   0  0  0  0  0  2  0  0  0  0  0  0
  189.6970  174.0940  145.8050 N   0  0  0  0  0  2  0  0  0  0  0  0
  191.0460  174.3700  145.3510 C   0  0  0  0  0  2  0  0  0  0  0  0
  191.0610  175.6910  144.6050 C   0  0  0  0  0  2  0  0  0  0  0  0
  194.3250  175.3110  143.9290 C   0  0  1  0  0  3  0  0  0  0  0  0
  195.1490  175.4630  145.2220 C   0  0  1  0  0  3  0  0  0  0  0  0
  194.3990  176.1490  146.3730 C   0  0  2  0  0  3  0  0  0  0  0  0
  193.3130  176.4440  143.7730 C   0  0  0  0  0  2  0  0  0  0  0  0
  192.8860  175.9600  146.2610 C   0  0  0  0  0  2  0  0  0  0  0  0
  194.7200  177.5120  146.4070 O   0  0  0  0  0  1  0  0  0  0  0  0
  192.3080  176.4870  144.9390 C   0  0  2  0  0  3  0  0  0  0  0  0
  196.7220  173.9190  141.3740 O   0  0  0  0  0  1  0  0  0  0  0  0
  195.2300  175.2400  142.7430 C   0  0  0  0  0  0  0  0  0  0  0  0
  195.8670  174.0050  142.4210 N   0  0  0  0  0  2  0  0  0  0  0  0
  195.4530  176.2710  142.0490 O   0  0  0  0  0  0  0  0  0  0  0  0
  196.9060  174.0470  146.0190 O   0  0  0  0  0  0  0  0  0  0  0  0
  195.6970  174.1460  145.6650 C   0  0  0  0  0  0  0  0  0  0  0  0
  194.8560  173.0330  145.6910 O   0  0  0  0  0  0  0  0  0  0  0  0
  195.3570  171.7130  145.5420 C   0  0  0  0  0  1  0  0  0  0  0  0
  186.6370  178.5020  143.4750 C   0  0  0  0  0  2  0  0  0  0  0  0
  184.0690  178.0810  140.7220 C   0  0  0  0  0  3  0  0  0  0  0  0
  185.3260  178.4320  142.7640 C   0  0  0  0  0  0  0  0  0  0  0  0
  185.2930  178.1370  141.3980 C   0  0  0  0  0  3  0  0  0  0  0  0
  184.1330  178.6830  143.4520 C   0  0  0  0  0  3  0  0  0  0  0  0
  182.9100  178.6270  142.7750 C   0  0  0  0  0  3  0  0  0  0  0  0
  182.8740  178.3280  141.4060 C   0  0  0  0  0  0  0  0  0  0  0  0
  180.4700  178.1980  141.2890 N   0  0  0  0  0  0  0  0  0  0  0  0
  181.6070  178.2610  140.6710 C   0  0  0  0  0  3  0  0  0  0  0  0
  179.2260  178.1270  140.5870 C   0  0  0  0  0  0  0  0  0  0  0  0
  178.1800  177.1780  141.0480 C   0  0  0  0  0  1  0  0  0  0  0  0
  179.0060  178.8560  139.5820 O   0  0  0  0  0  0  0  0  0  0  0  0
  187.9920  176.2440  142.1950 C   0  0  0  0  0  2  0  0  0  0  0  0
  188.7780  174.9850  141.8810 C   0  0  0  0  0  2  0  0  0  0  0  0
  187.8290  173.9080  141.3910 C   0  0  0  0  0  2  0  0  0  0  0  0
  188.6850  173.0590  139.1670 C   0  0  0  0  0  0  0  0  0  0  0  0
  188.1840  174.0530  138.5730 O   0  0  0  0  0  0  0  0  0  0  0  0
  188.5580  172.9370  140.5860 N   0  0  0  0  0  2  0  0  0  0  0  0
  190.4340  169.7660  138.4950 C   0  0  0  0  0  0  0  0  0  0  0  0
  189.4270  172.0410  138.4020 C   0  0  0  0  0  0  0  0  0  0  0  0
  190.4540  169.3910  137.1440 O   0  0  0  0  0  0  0  0  0  0  0  0
  189.6090  171.9780  134.7390 O   0  0  0  0  0  1  0  0  0  0  0  0
  189.9400  172.4160  137.0490 C   0  0  0  0  0  2  0  0  0  0  0  0
  189.7360  170.9230  138.9940 N   0  0  0  0  0  0  0  0  0  0  0  0
  189.6080  171.3760  135.9990 C   0  0  2  0  0  3  0  0  0  0  0  0
  190.6340  170.2530  136.0270 C   0  0  1  0  0  3  0  0  0  0  0  0
  190.9180  168.9620  139.3330 O   0  0  0  0  0  0  0  0  0  0  0  0
  192.5390  170.6240  134.6160 O   0  0  0  0  0  1  0  0  0  0  0  0
  192.0800  170.7420  135.9300 C   0  0  0  0  0  2  0  0  0  0  0  0
  1  2  2  0  0  0  0
  2  4  1  0  0  0  0
  4  3  2  0  0  0  0
  4  5  1  0  0  0  0
  5  6  1  0  0  0  0
  6  7  1  0  0  0  0
  7  8  1  0  0  0  0
  9  8  1  0  0  0  0
 10  9  1  0  0  0  0
 11 10  1  0  0  0  0
 12 20  1  6  0  0  0
 12 13  1  0  0  0  0
 13 24  1  1  0  0  0
 13 14  1  0  0  0  0
 14 17  1  6  0  0  0
 15 12  1  0  0  0  0
 15 18  1  0  0  0  0
 16 14  1  0  0  0  0
 18 11  1  6  0  0  0
 18 16  1  0  0  0  0
 19 21  1  0  0  0  0
 21 20  1  0  0  0  0
 22 20  2  0  0  0  0
 24 25  1  0  0  0  0
 24 23  2  0  0  0  0
 26 25  1  0  0  0  0
 27  2  1  0  0  0  0
 28 30  2  0  0  0  0
 28 33  1  0  0  0  0
 29 31  2  0  0  0  0
 29 27  1  0  0  0  0
 30 29  1  0  0  0  0
 32 31  1  0  0  0  0
 33 32  2  0  0  0  0
 35 34  2  0  0  0  0
 35 33  1  0  0  0  0
 36 37  1  0  0  0  0
 36 34  1  0  0  0  0
 38 36  2  0  0  0  0
 39  1  1  0  0  0  0
 40 39  1  0  0  0  0
 41 40  1  0  0  0  0
 42 44  1  0  0  0  0
 43 42  2  0  0  0  0
 44 41  1  0  0  0  0
 45 50  1  0  0  0  0
 45 53  2  0  0  0  0
 46 50  2  0  0  0  0
 46 42  1  0  0  0  0
 47 45  1  0  0  0  0
 49 46  1  0  0  0  0
 51 48  1  6  0  0  0
 51 52  1  0  0  0  0
 51 49  1  0  0  0  0
 52 55  1  1  0  0  0
 52 47  1  0  0  0  0
 54 55  1  0  0  0  0
M  END
>  <MODEL>
2

>  <REMARK>
 VINA RESULT:      -5.7      3.172      8.246
  Name = 
  22 active torsions:
  status: ('A' for Active; 'I' for Inactive)
    1  A    between atoms: C_1  and  N_6
    2  A    between atoms: C_2  and  C_18
    3  A    between atoms: C_2  and  C_20
    4  A    between atoms: C_4  and  C_19
    5  A    between atoms: O_8  and  C_15
    6  A    between atoms: O_8  and  C_45
    7  A    between atoms: N_9  and  C_20
    8  A    between atoms: C_10  and  C_15
    9  A    between atoms: C_10  and  N_55
   10  A    between atoms: C_11  and  C_30
   11  A    between atoms: C_12  and  C_37
   12  A    between atoms: C_16  and  C_54
   13  A    between atoms: C_18  and  N_33
   14  A    between atoms: O_22  and  C_37
   15  A    between atoms: C_28  and  C_53
   16  A    between atoms: C_36  and  C_41
   17  A    between atoms: C_36  and  N_55
   18  A    between atoms: C_41  and  C_49
   19  A    between atoms: C_45  and  C_52
   20  A    between atoms: C_46  and  C_52
   21  A    between atoms: C_46  and  C_54
   22  A    between atoms: C_48  and  C_50
                            x       y       z     vdW  Elec       q    Type
                         _______ _______ _______ _____ _____    ______ ____

>  <TORSDO>
F 22

$$$$
=
 OpenBabel11042417563D

 55 57  0  0  1  0  0  0  0  0999 V2000
  192.7780  173.2920  144.1360 N   0  0  0  0  0  0  0  0  0  0  0  0
  193.0880  174.1490  145.0640 C   0  0  0  0  0  0  0  0  0  0  0  0
  193.7920  176.2730  144.1300 C   0  0  0  0  0  2  0  0  0  0  0  0
  194.1170  175.1580  144.7860 C   0  0  0  0  0  0  0  0  0  0  0  0
  195.5550  174.8050  144.9580 C   0  0  0  0  0  2  0  0  0  0  0  0
  196.3640  175.7180  144.2700 O   0  0  0  0  0  0  0  0  0  0  0  0
  197.4440  174.9500  143.8240 C   0  0  0  0  0  2  0  0  0  0  0  0
  196.9350  173.7410  143.0620 C   0  0  0  0  0  2  0  0  0  0  0  0
  197.9360  172.6860  143.0840 N   0  0  0  0  0  2  0  0  0  0  0  0
  197.8390  171.9960  141.8120 C   0  0  0  0  0  2  0  0  0  0  0  0
  197.2210  172.9270  140.7850 C   0  0  0  0  0  2  0  0  0  0  0  0
  194.7520  173.8080  138.6910 C   0  0  1  0  0  3  0  0  0  0  0  0
  193.5230  172.9100  138.9240 C   0  0  1  0  0  3  0  0  0  0  0  0
  193.8210  171.6150  139.6910 C   0  0  2  0  0  3  0  0  0  0  0  0
  196.0330  172.9840  138.5680 C   0  0  0  0  0  2  0  0  0  0  0  0
  195.0430  171.7570  140.5990 C   0  0  0  0  0  2  0  0  0  0  0  0
  194.0030  170.5580  138.7900 O   0  0  0  0  0  1  0  0  0  0  0  0
  196.3150  172.1620  139.8390 C   0  0  2  0  0  3  0  0  0  0  0  0
  193.2360  176.3430  136.3500 O   0  0  0  0  0  1  0  0  0  0  0  0
  194.5510  174.6590  137.4810 C   0  0  0  0  0  0  0  0  0  0  0  0
  193.4660  175.5840  137.4480 N   0  0  0  0  0  2  0  0  0  0  0  0
  195.3160  174.5400  136.4830 O   0  0  0  0  0  0  0  0  0  0  0  0
  192.6730  174.4200  140.5760 O   0  0  0  0  0  0  0  0  0  0  0  0
  192.4230  173.6710  139.5900 C   0  0  0  0  0  0  0  0  0  0  0  0
  191.1210  173.5510  139.1010 O   0  0  0  0  0  0  0  0  0  0  0  0
  190.8590  173.2160  137.7470 C   0  0  0  0  0  1  0  0  0  0  0  0
  192.4460  174.1070  146.4200 C   0  0  0  0  0  2  0  0  0  0  0  0
  190.3420  177.1580  147.2050 C   0  0  0  0  0  3  0  0  0  0  0  0
  191.2780  175.0320  146.5120 C   0  0  0  0  0  0  0  0  0  0  0  0
  191.4340  176.2890  147.1040 C   0  0  0  0  0  3  0  0  0  0  0  0
  190.0230  174.6400  146.0300 C   0  0  0  0  0  3  0  0  0  0  0  0
  188.9320  175.5090  146.1310 C   0  0  0  0  0  3  0  0  0  0  0  0
  189.0880  176.7720  146.7210 C   0  0  0  0  0  0  0  0  0  0  0  0
  186.7430  177.2810  146.9500 N   0  0  0  0  0  0  0  0  0  0  0  0
  187.9620  177.7040  146.8390 C   0  0  0  0  0  3  0  0  0  0  0  0
  185.6340  178.1770  147.0610 C   0  0  0  0  0  0  0  0  0  0  0  0
  184.3360  177.8140  146.4350 C   0  0  0  0  0  1  0  0  0  0  0  0
  185.7420  179.2700  147.6790 O   0  0  0  0  0  0  0  0  0  0  0  0
  191.8060  172.2110  144.2820 C   0  0  0  0  0  2  0  0  0  0  0  0
  191.7020  171.4180  142.9940 C   0  0  0  0  0  2  0  0  0  0  0  0
  190.4120  171.7780  142.2820 C   0  0  0  0  0  2  0  0  0  0  0  0
  189.0790  173.8720  141.7930 C   0  0  0  0  0  0  0  0  0  0  0  0
  188.4250  173.2700  140.8970 O   0  0  0  0  0  0  0  0  0  0  0  0
  190.0790  173.1720  142.5390 N   0  0  0  0  0  2  0  0  0  0  0  0
  189.7360  177.4050  142.9920 C   0  0  0  0  0  0  0  0  0  0  0  0
  188.7910  175.2860  142.0910 C   0  0  0  0  0  0  0  0  0  0  0  0
  188.9230  178.3770  142.3910 O   0  0  0  0  0  0  0  0  0  0  0  0
  186.0130  177.1560  140.5940 O   0  0  0  0  0  1  0  0  0  0  0  0
  187.3810  175.7600  141.9420 C   0  0  0  0  0  2  0  0  0  0  0  0
  189.7340  176.0150  142.6160 N   0  0  0  0  0  0  0  0  0  0  0  0
  187.2880  177.0500  141.1530 C   0  0  2  0  0  3  0  0  0  0  0  0
  187.5460  178.2430  142.0610 C   0  0  1  0  0  3  0  0  0  0  0  0
  190.6270  177.7990  143.7890 O   0  0  0  0  0  0  0  0  0  0  0  0
  186.0090  179.4860  143.4220 O   0  0  0  0  0  1  0  0  0  0  0  0
  186.6690  178.2590  143.3140 C   0  0  0  0  0  2  0  0  0  0  0  0
  1 39  1  0  0  0  0
  1  2  2  0  0  0  0
  2 27  1  0  0  0  0
  3  4  2  0  0  0  0
  4  5  1  0  0  0  0
  4  2  1  0  0  0  0
  6  5  1  0  0  0  0
  7  6  1  0  0  0  0
  8  9  1  0  0  0  0
  8  7  1  0  0  0  0
 10  9  1  0  0  0  0
 11 10  1  0  0  0  0
 12 20  1  6  0  0  0
 12 13  1  0  0  0  0
 13 24  1  1  0  0  0
 13 14  1  0  0  0  0
 14 17  1  6  0  0  0
 14 16  1  0  0  0  0
 15 12  1  0  0  0  0
 15 18  1  0  0  0  0
 18 16  1  0  0  0  0
 18 11  1  1  0  0  0
 19 21  1  0  0  0  0
 21 20  1  0  0  0  0
 22 20  2  0  0  0  0
 24 23  2  0  0  0  0
 25 24  1  0  0  0  0
 26 25  1  0  0  0  0
 27 29  1  0  0  0  0
 29 30  2  0  0  0  0
 30 28  1  0  0  0  0
 31 32  2  0  0  0  0
 31 29  1  0  0  0  0
 32 33  1  0  0  0  0
 33 35  1  0  0  0  0
 33 28  2  0  0  0  0
 34 36  1  0  0  0  0
 35 34  2  0  0  0  0
 36 38  2  0  0  0  0
 37 36  1  0  0  0  0
 40 39  1  0  0  0  0
 41 44  1  0  0  0  0
 41 40  1  0  0  0  0
 42 46  1  0  0  0  0
 42 44  1  0  0  0  0
 43 42  2  0  0  0  0
 45 53  2  0  0  0  0
 46 50  2  0  0  0  0
 47 45  1  0  0  0  0
 49 46  1  0  0  0  0
 50 45  1  0  0  0  0
 51 48  1  1  0  0  0
 51 49  1  0  0  0  0
 51 52  1  0  0  0  0
 52 47  1  0  0  0  0
 52 55  1  1  0  0  0
 55 54  1  0  0  0  0
M  END
>  <MODEL>
3

>  <REMARK>
 VINA RESULT:      -5.6      1.581      2.136
  Name = 
  22 active torsions:
  status: ('A' for Active; 'I' for Inactive)
    1  A    between atoms: C_1  and  N_6
    2  A    between atoms: C_2  and  C_18
    3  A    between atoms: C_2  and  C_20
    4  A    between atoms: C_4  and  C_19
    5  A    between atoms: O_8  and  C_15
    6  A    between atoms: O_8  and  C_45
    7  A    between atoms: N_9  and  C_20
    8  A    between atoms: C_10  and  C_15
    9  A    between atoms: C_10  and  N_55
   10  A    between atoms: C_11  and  C_30
   11  A    between atoms: C_12  and  C_37
   12  A    between atoms: C_16  and  C_54
   13  A    between atoms: C_18  and  N_33
   14  A    between atoms: O_22  and  C_37
   15  A    between atoms: C_28  and  C_53
   16  A    between atoms: C_36  and  C_41
   17  A    between atoms: C_36  and  N_55
   18  A    between atoms: C_41  and  C_49
   19  A    between atoms: C_45  and  C_52
   20  A    between atoms: C_46  and  C_52
   21  A    between atoms: C_46  and  C_54
   22  A    between atoms: C_48  and  C_50
                            x       y       z     vdW  Elec       q    Type
                         _______ _______ _______ _____ _____    ______ ____

>  <TORSDO>
F 22

$$$$
=
 OpenBabel11042417563D

 55 57  0  0  1  0  0  0  0  0999 V2000
  188.5940  175.8420  143.1090 N   0  0  0  0  0  0  0  0  0  0  0  0
  188.2730  176.6740  144.0550 C   0  0  0  0  0  0  0  0  0  0  0  0
  187.2910  176.5800  146.2700 C   0  0  0  0  0  2  0  0  0  0  0  0
  188.2700  176.2040  145.4460 C   0  0  0  0  0  0  0  0  0  0  0  0
  189.4980  175.5750  146.0090 C   0  0  0  0  0  2  0  0  0  0  0  0
  189.3440  174.1850  146.0730 O   0  0  0  0  0  0  0  0  0  0  0  0
  190.2520  173.6960  145.1290 C   0  0  0  0  0  2  0  0  0  0  0  0
  189.8960  172.2680  144.7640 C   0  0  0  0  0  2  0  0  0  0  0  0
  191.0760  171.5740  144.2710 N   0  0  0  0  0  2  0  0  0  0  0  0
  192.1770  172.5130  144.3630 C   0  0  0  0  0  2  0  0  0  0  0  0
  193.4550  171.7560  144.6730 C   0  0  0  0  0  2  0  0  0  0  0  0
  194.3370  174.9930  144.6400 C   0  0  1  0  0  3  0  0  0  0  0  0
  195.8710  175.1180  144.6750 C   0  0  1  0  0  3  0  0  0  0  0  0
  196.5990  173.8480  145.1360 C   0  0  2  0  0  3  0  0  0  0  0  0
  193.8290  174.0200  145.7030 C   0  0  0  0  0  2  0  0  0  0  0  0
  195.7840  172.5860  144.8490 C   0  0  0  0  0  2  0  0  0  0  0  0
  196.8970  173.9370  146.5010 O   0  0  0  0  0  1  0  0  0  0  0  0
  194.3960  172.6030  145.5070 C   0  0  2  0  0  3  0  0  0  0  0  0
  191.8990  177.8380  144.2260 O   0  0  0  0  0  1  0  0  0  0  0  0
  193.7030  176.3350  144.8030 C   0  0  0  0  0  0  0  0  0  0  0  0
  192.4780  176.6170  144.1280 N   0  0  0  0  0  2  0  0  0  0  0  0
  194.2610  177.2230  145.5060 O   0  0  0  0  0  0  0  0  0  0  0  0
  197.0870  176.6340  143.2770 O   0  0  0  0  0  0  0  0  0  0  0  0
  196.4010  175.5760  143.3550 C   0  0  0  0  0  0  0  0  0  0  0  0
  196.1360  174.8150  142.2150 O   0  0  0  0  0  0  0  0  0  0  0  0
  195.4700  175.3650  141.0890 C   0  0  0  0  0  1  0  0  0  0  0  0
  187.8720  178.0890  143.7550 C   0  0  0  0  0  2  0  0  0  0  0  0
  184.0960  178.3230  143.5470 C   0  0  0  0  0  3  0  0  0  0  0  0
  186.4900  178.1680  143.1960 C   0  0  0  0  0  0  0  0  0  0  0  0
  185.3960  178.2600  144.0620 C   0  0  0  0  0  3  0  0  0  0  0  0
  186.2810  178.1280  141.8120 C   0  0  0  0  0  3  0  0  0  0  0  0
  184.9820  178.1910  141.2980 C   0  0  0  0  0  3  0  0  0  0  0  0
  183.8840  178.2870  142.1660 C   0  0  0  0  0  0  0  0  0  0  0  0
  181.5770  178.9730  142.3060 N   0  0  0  0  0  0  0  0  0  0  0  0
  182.5110  178.3560  141.6550 C   0  0  0  0  0  3  0  0  0  0  0  0
  180.2330  179.0440  141.8240 C   0  0  0  0  0  0  0  0  0  0  0  0
  179.9840  179.4220  140.4080 C   0  0  0  0  0  1  0  0  0  0  0  0
  179.2570  178.7950  142.5820 O   0  0  0  0  0  0  0  0  0  0  0  0
  188.6030  176.1550  141.6820 C   0  0  0  0  0  2  0  0  0  0  0  0
  188.1900  174.9400  140.8730 C   0  0  0  0  0  2  0  0  0  0  0  0
  188.2030  173.7120  141.7640 C   0  0  0  0  0  2  0  0  0  0  0  0
  190.3720  172.6940  140.9530 C   0  0  0  0  0  0  0  0  0  0  0  0
  191.0240  173.6750  141.4050 O   0  0  0  0  0  0  0  0  0  0  0  0
  188.9520  172.6430  141.1190 N   0  0  0  0  0  2  0  0  0  0  0  0
  192.9770  169.9880  140.4590 C   0  0  0  0  0  0  0  0  0  0  0  0
  191.0770  171.5860  140.2830 C   0  0  0  0  0  0  0  0  0  0  0  0
  192.5650  168.9370  139.6280 O   0  0  0  0  0  0  0  0  0  0  0  0
  189.5890  169.5330  137.6320 O   0  0  0  0  0  1  0  0  0  0  0  0
  190.6680  171.2360  138.8890 C   0  0  0  0  0  2  0  0  0  0  0  0
  192.1190  171.0690  140.8690 N   0  0  0  0  0  0  0  0  0  0  0  0
  190.4500  169.7470  138.7110 C   0  0  2  0  0  3  0  0  0  0  0  0
  191.7760  169.0480  138.4500 C   0  0  1  0  0  3  0  0  0  0  0  0
  194.1090  169.8950  141.0020 O   0  0  0  0  0  0  0  0  0  0  0  0
  193.7870  168.9870  137.1420 O   0  0  0  0  0  1  0  0  0  0  0  0
  192.5760  169.6650  137.3010 C   0  0  0  0  0  2  0  0  0  0  0  0
  1  2  2  0  0  0  0
  2  4  1  0  0  0  0
  4  5  1  0  0  0  0
  4  3  2  0  0  0  0
  5  6  1  0  0  0  0
  7  6  1  0  0  0  0
  8  7  1  0  0  0  0
  9 10  1  0  0  0  0
  9  8  1  0  0  0  0
 10 11  1  0  0  0  0
 12 13  1  0  0  0  0
 12 20  1  1  0  0  0
 12 15  1  0  0  0  0
 13 24  1  6  0  0  0
 13 14  1  0  0  0  0
 14 17  1  1  0  0  0
 16 14  1  0  0  0  0
 16 18  1  0  0  0  0
 18 11  1  6  0  0  0
 18 15  1  0  0  0  0
 20 22  2  0  0  0  0
 21 19  1  0  0  0  0
 21 20  1  0  0  0  0
 23 24  2  0  0  0  0
 25 24  1  0  0  0  0
 26 25  1  0  0  0  0
 27  2  1  0  0  0  0
 28 30  1  0  0  0  0
 29 27  1  0  0  0  0
 29 30  2  0  0  0  0
 31 29  1  0  0  0  0
 32 31  2  0  0  0  0
 32 33  1  0  0  0  0
 33 28  2  0  0  0  0
 35 33  1  0  0  0  0
 35 34  2  0  0  0  0
 36 34  1  0  0  0  0
 36 38  2  0  0  0  0
 37 36  1  0  0  0  0
 39  1  1  0  0  0  0
 40 39  1  0  0  0  0
 40 41  1  0  0  0  0
 42 44  1  0  0  0  0
 42 43  2  0  0  0  0
 44 41  1  0  0  0  0
 45 50  1  0  0  0  0
 45 53  2  0  0  0  0
 46 50  2  0  0  0  0
 46 42  1  0  0  0  0
 47 45  1  0  0  0  0
 49 46  1  0  0  0  0
 51 48  1  6  0  0  0
 51 49  1  0  0  0  0
 52 55  1  6  0  0  0
 52 51  1  0  0  0  0
 52 47  1  0  0  0  0
 54 55  1  0  0  0  0
M  END
>  <MODEL>
4

>  <REMARK>
 VINA RESULT:      -5.6      2.746      7.619
  Name = 
  22 active torsions:
  status: ('A' for Active; 'I' for Inactive)
    1  A    between atoms: C_1  and  N_6
    2  A    between atoms: C_2  and  C_18
    3  A    between atoms: C_2  and  C_20
    4  A    between atoms: C_4  and  C_19
    5  A    between atoms: O_8  and  C_15
    6  A    between atoms: O_8  and  C_45
    7  A    between atoms: N_9  and  C_20
    8  A    between atoms: C_10  and  C_15
    9  A    between atoms: C_10  and  N_55
   10  A    between atoms: C_11  and  C_30
   11  A    between atoms: C_12  and  C_37
   12  A    between atoms: C_16  and  C_54
   13  A    between atoms: C_18  and  N_33
   14  A    between atoms: O_22  and  C_37
   15  A    between atoms: C_28  and  C_53
   16  A    between atoms: C_36  and  C_41
   17  A    between atoms: C_36  and  N_55
   18  A    between atoms: C_41  and  C_49
   19  A    between atoms: C_45  and  C_52
   20  A    between atoms: C_46  and  C_52
   21  A    between atoms: C_46  and  C_54
   22  A    between atoms: C_48  and  C_50
                            x       y       z     vdW  Elec       q    Type
                         _______ _______ _______ _____ _____    ______ ____

>  <TORSDO>
F 22

$$$$
=
 OpenBabel11042417563D

 55 57  0  0  1  0  0  0  0  0999 V2000
  186.2020  176.8130  143.5320 N   0  0  0  0  0  0  0  0  0  0  0  0
  187.2210  176.7180  144.3340 C   0  0  0  0  0  0  0  0  0  0  0  0
  185.7440  176.7280  146.2560 C   0  0  0  0  0  2  0  0  0  0  0  0
  186.9830  176.6100  145.7780 C   0  0  0  0  0  0  0  0  0  0  0  0
  188.1380  176.6760  146.7180 C   0  0  0  0  0  2  0  0  0  0  0  0
  188.3510  175.4270  147.3120 O   0  0  0  0  0  0  0  0  0  0  0  0
  189.7360  175.2470  147.2450 C   0  0  0  0  0  2  0  0  0  0  0  0
  190.4280  176.5950  147.2120 C   0  0  0  0  0  2  0  0  0  0  0  0
  191.7820  176.4690  147.7310 N   0  0  0  0  0  2  0  0  0  0  0  0
  192.4630  175.5120  146.8820 C   0  0  0  0  0  2  0  0  0  0  0  0
  193.1540  176.2510  145.7510 C   0  0  0  0  0  2  0  0  0  0  0  0
  194.1830  173.4300  144.2540 C   0  0  1  0  0  3  0  0  0  0  0  0
  194.6440  173.7380  142.8170 C   0  0  1  0  0  3  0  0  0  0  0  0
  194.1520  175.0840  142.2690 C   0  0  2  0  0  3  0  0  0  0  0  0
  192.8250  174.0620  144.5540 C   0  0  0  0  0  2  0  0  0  0  0  0
  193.8850  176.0930  143.3870 C   0  0  0  0  0  2  0  0  0  0  0  0
  192.9970  174.8930  141.4990 O   0  0  0  0  0  1  0  0  0  0  0  0
  192.8590  175.5950  144.4160 C   0  0  2  0  0  3  0  0  0  0  0  0
  194.5530  170.0940  145.9690 O   0  0  0  0  0  1  0  0  0  0  0  0
  194.1430  171.9540  144.4810 C   0  0  0  0  0  0  0  0  0  0  0  0
  194.5420  171.4300  145.7450 N   0  0  0  0  0  2  0  0  0  0  0  0
  193.7890  171.1760  143.5520 O   0  0  0  0  0  0  0  0  0  0  0  0
  196.7680  172.8020  143.3990 O   0  0  0  0  0  0  0  0  0  0  0  0
  196.1300  173.6360  142.6980 C   0  0  0  0  0  0  0  0  0  0  0  0
  196.7990  174.4670  141.7980 O   0  0  0  0  0  0  0  0  0  0  0  0
  197.7150  175.4580  142.2360 C   0  0  0  0  0  1  0  0  0  0  0  0
  188.6310  176.7540  143.8210 C   0  0  0  0  0  2  0  0  0  0  0  0
  189.6200  174.1100  141.2940 C   0  0  0  0  0  3  0  0  0  0  0  0
  189.0430  175.4450  143.2340 C   0  0  0  0  0  0  0  0  0  0  0  0
  189.2460  175.3360  141.8540 C   0  0  0  0  0  3  0  0  0  0  0  0
  189.2030  174.3200  144.0520 C   0  0  0  0  0  3  0  0  0  0  0  0
  189.5770  173.0940  143.4910 C   0  0  0  0  0  3  0  0  0  0  0  0
  189.7850  172.9850  142.1080 C   0  0  0  0  0  0  0  0  0  0  0  0
  190.2130  171.5650  140.2070 N   0  0  0  0  0  0  0  0  0  0  0  0
  190.1790  171.7130  141.4940 C   0  0  0  0  0  3  0  0  0  0  0  0
  190.5900  170.3300  139.5930 C   0  0  0  0  0  0  0  0  0  0  0  0
  190.7830  170.2750  138.1200 C   0  0  0  0  0  1  0  0  0  0  0  0
  190.7590  169.2880  140.2820 O   0  0  0  0  0  0  0  0  0  0  0  0
  186.2860  176.9660  142.0810 C   0  0  0  0  0  2  0  0  0  0  0  0
  185.7860  178.3370  141.6660 C   0  0  0  0  0  2  0  0  0  0  0  0
  184.8050  178.1890  140.5180 C   0  0  0  0  0  2  0  0  0  0  0  0
  182.2790  178.1120  140.3930 C   0  0  0  0  0  0  0  0  0  0  0  0
  182.3310  177.1710  139.5530 O   0  0  0  0  0  0  0  0  0  0  0  0
  183.4880  178.6540  140.9310 N   0  0  0  0  0  2  0  0  0  0  0  0
  179.3350  180.4860  140.6060 C   0  0  0  0  0  0  0  0  0  0  0  0
  180.9740  178.6280  140.8420 C   0  0  0  0  0  0  0  0  0  0  0  0
  178.1320  179.8780  140.9930 O   0  0  0  0  0  0  0  0  0  0  0  0
  178.3970  176.5480  142.4200 O   0  0  0  0  0  1  0  0  0  0  0  0
  180.2850  177.9130  141.9600 C   0  0  0  0  0  2  0  0  0  0  0  0
  180.5550  179.7620  140.3590 N   0  0  0  0  0  0  0  0  0  0  0  0
  178.8290  177.6300  141.6500 C   0  0  2  0  0  3  0  0  0  0  0  0
  177.9770  178.8500  141.9650 C   0  0  1  0  0  3  0  0  0  0  0  0
  179.3020  181.7070  140.3040 O   0  0  0  0  0  0  0  0  0  0  0  0
  178.1110  178.3460  144.3080 O   0  0  0  0  0  1  0  0  0  0  0  0
  178.1800  179.3900  143.3820 C   0  0  0  0  0  2  0  0  0  0  0  0
  1  2  2  0  0  0  0
  2  4  1  0  0  0  0
  4  3  2  0  0  0  0
  4  5  1  0  0  0  0
  5  6  1  0  0  0  0
  7  6  1  0  0  0  0
  8  7  1  0  0  0  0
  8  9  1  0  0  0  0
 10  9  1  0  0  0  0
 11 10  1  0  0  0  0
 12 20  1  6  0  0  0
 12 15  1  0  0  0  0
 13 24  1  1  0  0  0
 13 12  1  0  0  0  0
 14 17  1  1  0  0  0
 14 13  1  0  0  0  0
 14 16  1  0  0  0  0
 16 18  1  0  0  0  0
 18 15  1  0  0  0  0
 18 11  1  1  0  0  0
 20 21  1  0  0  0  0
 21 19  1  0  0  0  0
 22 20  2  0  0  0  0
 24 23  2  0  0  0  0
 25 26  1  0  0  0  0
 25 24  1  0  0  0  0
 27  2  1  0  0  0  0
 28 30  2  0  0  0  0
 28 33  1  0  0  0  0
 29 27  1  0  0  0  0
 29 31  2  0  0  0  0
 30 29  1  0  0  0  0
 32 31  1  0  0  0  0
 33 32  2  0  0  0  0
 34 35  2  0  0  0  0
 35 33  1  0  0  0  0
 36 34  1  0  0  0  0
 36 38  2  0  0  0  0
 37 36  1  0  0  0  0
 39  1  1  0  0  0  0
 40 39  1  0  0  0  0
 41 44  1  0  0  0  0
 41 40  1  0  0  0  0
 42 46  1  0  0  0  0
 42 44  1  0  0  0  0
 43 42  2  0  0  0  0
 45 47  1  0  0  0  0
 46 49  1  0  0  0  0
 47 52  1  0  0  0  0
 50 45  1  0  0  0  0
 50 46  2  0  0  0  0
 51 49  1  0  0  0  0
 51 52  1  0  0  0  0
 51 48  1  1  0  0  0
 52 55  1  1  0  0  0
 53 45  2  0  0  0  0
 55 54  1  0  0  0  0
M  END
>  <MODEL>
5

>  <REMARK>
 VINA RESULT:      -5.6      4.194      8.086
  Name = 
  22 active torsions:
  status: ('A' for Active; 'I' for Inactive)
    1  A    between atoms: C_1  and  N_6
    2  A    between atoms: C_2  and  C_18
    3  A    between atoms: C_2  and  C_20
    4  A    between atoms: C_4  and  C_19
    5  A    between atoms: O_8  and  C_15
    6  A    between atoms: O_8  and  C_45
    7  A    between atoms: N_9  and  C_20
    8  A    between atoms: C_10  and  C_15
    9  A    between atoms: C_10  and  N_55
   10  A    between atoms: C_11  and  C_30
   11  A    between atoms: C_12  and  C_37
   12  A    between atoms: C_16  and  C_54
   13  A    between atoms: C_18  and  N_33
   14  A    between atoms: O_22  and  C_37
   15  A    between atoms: C_28  and  C_53
   16  A    between atoms: C_36  and  C_41
   17  A    between atoms: C_36  and  N_55
   18  A    between atoms: C_41  and  C_49
   19  A    between atoms: C_45  and  C_52
   20  A    between atoms: C_46  and  C_52
   21  A    between atoms: C_46  and  C_54
   22  A    between atoms: C_48  and  C_50
                            x       y       z     vdW  Elec       q    Type
                         _______ _______ _______ _____ _____    ______ ____

>  <TORSDO>
F 22

$$$$
=
 OpenBabel11042417563D

 55 57  0  0  1  0  0  0  0  0999 V2000
  188.9330  175.7430  143.4590 N   0  0  0  0  0  0  0  0  0  0  0  0
  188.5080  176.5480  144.3870 C   0  0  0  0  0  0  0  0  0  0  0  0
  187.2460  176.3830  146.4500 C   0  0  0  0  0  2  0  0  0  0  0  0
  188.3240  176.0320  145.7490 C   0  0  0  0  0  0  0  0  0  0  0  0
  189.4690  175.3800  146.4460 C   0  0  0  0  0  2  0  0  0  0  0  0
  189.2850  173.9930  146.4860 O   0  0  0  0  0  0  0  0  0  0  0  0
  190.1800  173.5000  145.5320 C   0  0  0  0  0  2  0  0  0  0  0  0
  189.5950  172.2710  144.8650 C   0  0  0  0  0  2  0  0  0  0  0  0
  190.6200  171.5990  144.0810 N   0  0  0  0  0  2  0  0  0  0  0  0
  191.8630  172.3010  144.3350 C   0  0  0  0  0  2  0  0  0  0  0  0
  193.0100  171.3080  144.3170 C   0  0  0  0  0  2  0  0  0  0  0  0
  194.6280  174.2140  144.7580 C   0  0  1  0  0  3  0  0  0  0  0  0
  196.1500  173.9750  144.7360 C   0  0  1  0  0  3  0  0  0  0  0  0
  196.5640  172.5130  144.9510 C   0  0  2  0  0  3  0  0  0  0  0  0
  193.9180  173.2210  145.6760 C   0  0  0  0  0  2  0  0  0  0  0  0
  195.4710  171.5390  144.5070 C   0  0  0  0  0  2  0  0  0  0  0  0
  196.8890  172.3020  146.2970 O   0  0  0  0  0  1  0  0  0  0  0  0
  194.1340  171.7640  145.2280 C   0  0  2  0  0  3  0  0  0  0  0  0
  194.3030  177.2900  146.9130 O   0  0  0  0  0  1  0  0  0  0  0  0
  194.3300  175.6200  145.1650 C   0  0  0  0  0  0  0  0  0  0  0  0
  194.5970  176.0330  146.5040 N   0  0  0  0  0  2  0  0  0  0  0  0
  193.8150  176.4270  144.3410 O   0  0  0  0  0  0  0  0  0  0  0  0
  196.7090  173.8420  142.4130 O   0  0  0  0  0  0  0  0  0  0  0  0
  196.7570  174.5130  143.4810 C   0  0  0  0  0  0  0  0  0  0  0  0
  197.3690  175.7670  143.5060 O   0  0  0  0  0  0  0  0  0  0  0  0
  197.0390  176.7780  142.5650 C   0  0  0  0  0  1  0  0  0  0  0  0
  188.1680  177.9800  144.0900 C   0  0  0  0  0  2  0  0  0  0  0  0
  184.9050  177.8670  142.1680 C   0  0  0  0  0  3  0  0  0  0  0  0
  186.7270  178.1490  143.7430 C   0  0  0  0  0  0  0  0  0  0  0  0
  186.2530  177.7020  142.5060 C   0  0  0  0  0  3  0  0  0  0  0  0
  185.8510  178.7740  144.6400 C   0  0  0  0  0  3  0  0  0  0  0  0
  184.5030  178.9390  144.3010 C   0  0  0  0  0  3  0  0  0  0  0  0
  184.0270  178.4870  143.0620 C   0  0  0  0  0  0  0  0  0  0  0  0
  182.1840  178.2640  141.5230 N   0  0  0  0  0  0  0  0  0  0  0  0
  182.6190  178.6450  142.6820 C   0  0  0  0  0  3  0  0  0  0  0  0
  180.8160  178.4170  141.1360 C   0  0  0  0  0  0  0  0  0  0  0  0
  179.8470  179.0100  142.0930 C   0  0  0  0  0  1  0  0  0  0  0  0
  180.4210  178.0530  139.9950 O   0  0  0  0  0  0  0  0  0  0  0  0
  189.1240  176.1040  142.0560 C   0  0  0  0  0  2  0  0  0  0  0  0
  188.3030  175.1960  141.1610 C   0  0  0  0  0  2  0  0  0  0  0  0
  188.3300  173.7830  141.7140 C   0  0  0  0  0  2  0  0  0  0  0  0
  189.1000  172.3790  139.7550 C   0  0  0  0  0  0  0  0  0  0  0  0
  187.9840  172.5270  139.1850 O   0  0  0  0  0  0  0  0  0  0  0  0
  189.3440  173.0020  141.0190 N   0  0  0  0  0  2  0  0  0  0  0  0
  190.6590  169.5000  137.8480 C   0  0  0  0  0  0  0  0  0  0  0  0
  190.1620  171.5920  139.1020 C   0  0  0  0  0  0  0  0  0  0  0  0
  191.8270  169.8380  137.1500 O   0  0  0  0  0  0  0  0  0  0  0  0
  193.3770  173.0010  138.0370 O   0  0  0  0  0  1  0  0  0  0  0  0
  191.5740  172.0550  139.2600 C   0  0  0  0  0  2  0  0  0  0  0  0
  189.8440  170.4540  138.5540 N   0  0  0  0  0  0  0  0  0  0  0  0
  192.3170  172.0980  137.9390 C   0  0  2  0  0  3  0  0  0  0  0  0
  192.8540  170.7180  137.5920 C   0  0  1  0  0  3  0  0  0  0  0  0
  190.2170  168.3300  137.7160 O   0  0  0  0  0  0  0  0  0  0  0  0
  194.0580  168.7870  138.3550 O   0  0  0  0  0  1  0  0  0  0  0  0
  193.6850  170.0860  138.7100 C   0  0  0  0  0  2  0  0  0  0  0  0
  1  2  2  0  0  0  0
  2  4  1  0  0  0  0
  4  5  1  0  0  0  0
  4  3  2  0  0  0  0
  5  6  1  0  0  0  0
  7  6  1  0  0  0  0
  8  7  1  0  0  0  0
  9 10  1  0  0  0  0
  9  8  1  0  0  0  0
 11 10  1  0  0  0  0
 12 20  1  1  0  0  0
 12 15  1  0  0  0  0
 13 24  1  6  0  0  0
 13 12  1  0  0  0  0
 13 14  1  0  0  0  0
 14 17  1  1  0  0  0
 16 14  1  0  0  0  0
 16 18  1  0  0  0  0
 18 11  1  6  0  0  0
 18 15  1  0  0  0  0
 20 21  1  0  0  0  0
 21 19  1  0  0  0  0
 22 20  2  0  0  0  0
 23 24  2  0  0  0  0
 24 25  1  0  0  0  0
 26 25  1  0  0  0  0
 27  2  1  0  0  0  0
 28 30  2  0  0  0  0
 28 33  1  0  0  0  0
 29 27  1  0  0  0  0
 29 31  2  0  0  0  0
 30 29  1  0  0  0  0
 32 31  1  0  0  0  0
 33 32  2  0  0  0  0
 34 35  2  0  0  0  0
 35 33  1  0  0  0  0
 36 34  1  0  0  0  0
 36 37  1  0  0  0  0
 38 36  2  0  0  0  0
 39  1  1  0  0  0  0
 40 41  1  0  0  0  0
 40 39  1  0  0  0  0
 42 44  1  0  0  0  0
 43 42  2  0  0  0  0
 44 41  1  0  0  0  0
 45 50  1  0  0  0  0
 46 49  1  0  0  0  0
 46 42  1  0  0  0  0
 47 52  1  0  0  0  0
 47 45  1  0  0  0  0
 50 46  2  0  0  0  0
 51 48  1  1  0  0  0
 51 49  1  0  0  0  0
 52 51  1  0  0  0  0
 52 55  1  1  0  0  0
 53 45  2  0  0  0  0
 54 55  1  0  0  0  0
M  END
>  <MODEL>
6

>  <REMARK>
 VINA RESULT:      -5.4      2.774      7.729
  Name = 
  22 active torsions:
  status: ('A' for Active; 'I' for Inactive)
    1  A    between atoms: C_1  and  N_6
    2  A    between atoms: C_2  and  C_18
    3  A    between atoms: C_2  and  C_20
    4  A    between atoms: C_4  and  C_19
    5  A    between atoms: O_8  and  C_15
    6  A    between atoms: O_8  and  C_45
    7  A    between atoms: N_9  and  C_20
    8  A    between atoms: C_10  and  C_15
    9  A    between atoms: C_10  and  N_55
   10  A    between atoms: C_11  and  C_30
   11  A    between atoms: C_12  and  C_37
   12  A    between atoms: C_16  and  C_54
   13  A    between atoms: C_18  and  N_33
   14  A    between atoms: O_22  and  C_37
   15  A    between atoms: C_28  and  C_53
   16  A    between atoms: C_36  and  C_41
   17  A    between atoms: C_36  and  N_55
   18  A    between atoms: C_41  and  C_49
   19  A    between atoms: C_45  and  C_52
   20  A    between atoms: C_46  and  C_52
   21  A    between atoms: C_46  and  C_54
   22  A    between atoms: C_48  and  C_50
                            x       y       z     vdW  Elec       q    Type
                         _______ _______ _______ _____ _____    ______ ____

>  <TORSDO>
F 22

$$$$
=
 OpenBabel11042417563D

 55 57  0  0  1  0  0  0  0  0999 V2000
  191.1630  175.9340  144.6490 N   0  0  0  0  0  0  0  0  0  0  0  0
  190.1100  176.1640  145.3750 C   0  0  0  0  0  0  0  0  0  0  0  0
  188.6090  175.2660  147.0540 C   0  0  0  0  0  2  0  0  0  0  0  0
  189.4400  175.0380  146.0370 C   0  0  0  0  0  0  0  0  0  0  0  0
  189.9170  173.6490  145.7810 C   0  0  0  0  0  2  0  0  0  0  0  0
  189.6400  173.2770  144.4600 O   0  0  0  0  0  0  0  0  0  0  0  0
  190.5400  172.2400  144.1990 C   0  0  0  0  0  2  0  0  0  0  0  0
  190.1980  171.5830  142.8770 C   0  0  0  0  0  2  0  0  0  0  0  0
  191.2200  170.6070  142.5310 N   0  0  0  0  0  2  0  0  0  0  0  0
  192.4220  170.9960  143.2420 C   0  0  0  0  0  2  0  0  0  0  0  0
  193.5340  171.2540  142.2420 C   0  0  0  0  0  2  0  0  0  0  0  0
  195.6130  173.2710  143.9350 C   0  0  1  0  0  3  0  0  0  0  0  0
  197.0350  173.1640  143.3530 C   0  0  1  0  0  3  0  0  0  0  0  0
  197.2720  171.9200  142.4860 C   0  0  2  0  0  3  0  0  0  0  0  0
  195.0030  171.8920  144.1820 C   0  0  0  0  0  2  0  0  0  0  0  0
  195.9770  171.4110  141.8520 C   0  0  0  0  0  2  0  0  0  0  0  0
  197.8720  170.9110  143.2500 O   0  0  0  0  0  1  0  0  0  0  0  0
  194.8940  171.0680  142.8870 C   0  0  2  0  0  3  0  0  0  0  0  0
  194.6340  175.8490  146.5040 O   0  0  0  0  0  1  0  0  0  0  0  0
  195.6260  174.0780  145.1920 C   0  0  0  0  0  0  0  0  0  0  0  0
  194.6270  175.0760  145.3920 N   0  0  0  0  0  2  0  0  0  0  0  0
  196.5300  173.9010  146.0550 O   0  0  0  0  0  0  0  0  0  0  0  0
  197.3240  174.4310  141.3440 O   0  0  0  0  0  0  0  0  0  0  0  0
  197.4010  174.4030  142.6040 C   0  0  0  0  0  0  0  0  0  0  0  0
  197.8200  175.5290  143.3150 O   0  0  0  0  0  0  0  0  0  0  0  0
  197.2070  176.7970  143.1350 C   0  0  0  0  0  1  0  0  0  0  0  0
  189.5430  177.5470  145.5220 C   0  0  0  0  0  2  0  0  0  0  0  0
  187.3690  177.7940  142.4290 C   0  0  0  0  0  3  0  0  0  0  0  0
  188.3550  177.7570  144.6440 C   0  0  0  0  0  0  0  0  0  0  0  0
  188.4750  177.5880  143.2610 C   0  0  0  0  0  3  0  0  0  0  0  0
  187.1260  178.1440  145.1940 C   0  0  0  0  0  3  0  0  0  0  0  0
  186.0210  178.3500  144.3610 C   0  0  0  0  0  3  0  0  0  0  0  0
  186.1400  178.1780  142.9750 C   0  0  0  0  0  0  0  0  0  0  0  0
  183.7890  178.0930  142.4440 N   0  0  0  0  0  0  0  0  0  0  0  0
  184.9980  178.3850  142.0790 C   0  0  0  0  0  3  0  0  0  0  0  0
  182.6660  178.2840  141.5810 C   0  0  0  0  0  0  0  0  0  0  0  0
  182.7740  177.9080  140.1470 C   0  0  0  0  0  1  0  0  0  0  0  0
  181.5880  178.7700  142.0170 O   0  0  0  0  0  0  0  0  0  0  0  0
  191.9070  176.9450  143.9020 C   0  0  0  0  0  2  0  0  0  0  0  0
  192.2260  176.4430  142.5070 C   0  0  0  0  0  2  0  0  0  0  0  0
  192.5160  174.9540  142.5610 C   0  0  0  0  0  2  0  0  0  0  0  0
  192.6470  174.0580  140.1990 C   0  0  0  0  0  0  0  0  0  0  0  0
  193.8610  174.3940  140.1190 O   0  0  0  0  0  0  0  0  0  0  0  0
  191.9200  174.2940  141.4080 N   0  0  0  0  0  2  0  0  0  0  0  0
  189.9050  173.2740  137.7060 C   0  0  0  0  0  0  0  0  0  0  0  0
  191.9900  173.3930  139.0600 C   0  0  0  0  0  0  0  0  0  0  0  0
  190.3660  172.7540  136.4880 O   0  0  0  0  0  0  0  0  0  0  0  0
  193.8050  171.5890  136.4320 O   0  0  0  0  0  1  0  0  0  0  0  0
  192.6890  172.2330  138.4270 C   0  0  0  0  0  2  0  0  0  0  0  0
  190.7710  173.7390  138.7580 N   0  0  0  0  0  0  0  0  0  0  0  0
  192.7360  172.3450  136.9160 C   0  0  2  0  0  3  0  0  0  0  0  0
  191.4370  171.8360  136.3100 C   0  0  1  0  0  3  0  0  0  0  0  0
  188.6700  173.4910  137.8190 O   0  0  0  0  0  0  0  0  0  0  0  0
  189.6810  170.3760  137.0510 O   0  0  0  0  0  1  0  0  0  0  0  0
  191.0510  170.4320  136.7820 C   0  0  0  0  0  2  0  0  0  0  0  0
  1  2  2  0  0  0  0
  2 27  1  0  0  0  0
  2  4  1  0  0  0  0
  4  3  2  0  0  0  0
  5  4  1  0  0  0  0
  6  5  1  0  0  0  0
  7  6  1  0  0  0  0
  8  7  1  0  0  0  0
  9  8  1  0  0  0  0
  9 10  1  0  0  0  0
 11 10  1  0  0  0  0
 12 15  1  0  0  0  0
 12 20  1  1  0  0  0
 13 24  1  6  0  0  0
 13 12  1  0  0  0  0
 14 17  1  1  0  0  0
 14 13  1  0  0  0  0
 16 14  1  0  0  0  0
 16 18  1  0  0  0  0
 18 11  1  6  0  0  0
 18 15  1  0  0  0  0
 20 21  1  0  0  0  0
 20 22  2  0  0  0  0
 21 19  1  0  0  0  0
 23 24  2  0  0  0  0
 24 25  1  0  0  0  0
 26 25  1  0  0  0  0
 28 33  2  0  0  0  0
 28 30  1  0  0  0  0
 29 31  1  0  0  0  0
 29 27  1  0  0  0  0
 30 29  2  0  0  0  0
 32 31  2  0  0  0  0
 33 32  1  0  0  0  0
 35 34  2  0  0  0  0
 35 33  1  0  0  0  0
 36 38  2  0  0  0  0
 36 34  1  0  0  0  0
 37 36  1  0  0  0  0
 39  1  1  0  0  0  0
 40 41  1  0  0  0  0
 40 39  1  0  0  0  0
 42 44  1  0  0  0  0
 43 42  2  0  0  0  0
 44 41  1  0  0  0  0
 45 53  2  0  0  0  0
 45 50  1  0  0  0  0
 46 42  1  0  0  0  0
 47 45  1  0  0  0  0
 49 46  1  0  0  0  0
 50 46  2  0  0  0  0
 51 48  1  6  0  0  0
 51 49  1  0  0  0  0
 52 47  1  0  0  0  0
 52 55  1  1  0  0  0
 52 51  1  0  0  0  0
 55 54  1  0  0  0  0
M  END
>  <MODEL>
7

>  <REMARK>
 VINA RESULT:      -5.1      2.650      6.996
  Name = 
  22 active torsions:
  status: ('A' for Active; 'I' for Inactive)
    1  A    between atoms: C_1  and  N_6
    2  A    between atoms: C_2  and  C_18
    3  A    between atoms: C_2  and  C_20
    4  A    between atoms: C_4  and  C_19
    5  A    between atoms: O_8  and  C_15
    6  A    between atoms: O_8  and  C_45
    7  A    between atoms: N_9  and  C_20
    8  A    between atoms: C_10  and  C_15
    9  A    between atoms: C_10  and  N_55
   10  A    between atoms: C_11  and  C_30
   11  A    between atoms: C_12  and  C_37
   12  A    between atoms: C_16  and  C_54
   13  A    between atoms: C_18  and  N_33
   14  A    between atoms: O_22  and  C_37
   15  A    between atoms: C_28  and  C_53
   16  A    between atoms: C_36  and  C_41
   17  A    between atoms: C_36  and  N_55
   18  A    between atoms: C_41  and  C_49
   19  A    between atoms: C_45  and  C_52
   20  A    between atoms: C_46  and  C_52
   21  A    between atoms: C_46  and  C_54
   22  A    between atoms: C_48  and  C_50
                            x       y       z     vdW  Elec       q    Type
                         _______ _______ _______ _____ _____    ______ ____

>  <TORSDO>
F 22

$$$$
=
 OpenBabel11042417563D

 55 57  0  0  1  0  0  0  0  0999 V2000
  186.1710  177.0540  143.5710 N   0  0  0  0  0  0  0  0  0  0  0  0
  187.4090  176.9820  143.9620 C   0  0  0  0  0  0  0  0  0  0  0  0
  186.7050  176.6810  146.2620 C   0  0  0  0  0  2  0  0  0  0  0  0
  187.6980  176.8920  145.3980 C   0  0  0  0  0  0  0  0  0  0  0  0
  189.0270  177.3360  145.9070 C   0  0  0  0  0  2  0  0  0  0  0  0
  189.7890  176.2300  146.3020 O   0  0  0  0  0  0  0  0  0  0  0  0
  191.1050  176.7020  146.3030 C   0  0  0  0  0  2  0  0  0  0  0  0
  191.9440  175.8840  147.2650 C   0  0  0  0  0  2  0  0  0  0  0  0
  193.3340  175.8870  146.8340 N   0  0  0  0  0  2  0  0  0  0  0  0
  193.3310  176.2320  145.4270 C   0  0  0  0  0  2  0  0  0  0  0  0
  194.7000  176.7590  145.0380 C   0  0  0  0  0  2  0  0  0  0  0  0
  194.7480  173.5090  144.2060 C   0  0  1  0  0  3  0  0  0  0  0  0
  196.1820  173.0840  143.8370 C   0  0  1  0  0  3  0  0  0  0  0  0
  197.1260  174.2520  143.5180 C   0  0  2  0  0  3  0  0  0  0  0  0
  194.3460  174.8020  143.4970 C   0  0  0  0  0  2  0  0  0  0  0  0
  196.6990  175.5400  144.2240 C   0  0  0  0  0  2  0  0  0  0  0  0
  197.1880  174.4520  142.1330 O   0  0  0  0  0  1  0  0  0  0  0  0
  195.2690  175.9760  143.8710 C   0  0  2  0  0  3  0  0  0  0  0  0
  191.5890  171.4530  144.2140 O   0  0  0  0  0  1  0  0  0  0  0  0
  193.7850  172.4110  143.8930 C   0  0  0  0  0  0  0  0  0  0  0  0
  192.4720  172.4530  144.4490 N   0  0  0  0  0  2  0  0  0  0  0  0
  194.1390  171.4390  143.1700 O   0  0  0  0  0  0  0  0  0  0  0  0
  197.0090  172.6740  146.0450 O   0  0  0  0  0  0  0  0  0  0  0  0
  196.7700  172.2090  144.8950 C   0  0  0  0  0  0  0  0  0  0  0  0
  197.0420  170.8730  144.5990 O   0  0  0  0  0  0  0  0  0  0  0  0
  196.9110  169.8500  145.5740 C   0  0  0  0  0  1  0  0  0  0  0  0
  188.5460  177.0260  142.9830 C   0  0  0  0  0  2  0  0  0  0  0  0
  190.7570  174.1010  142.0300 C   0  0  0  0  0  3  0  0  0  0  0  0
  188.9800  175.6590  142.5720 C   0  0  0  0  0  0  0  0  0  0  0  0
  190.3420  175.3770  142.4260 C   0  0  0  0  0  3  0  0  0  0  0  0
  188.0310  174.6630  142.3090 C   0  0  0  0  0  3  0  0  0  0  0  0
  188.4470  173.3870  141.9130 C   0  0  0  0  0  3  0  0  0  0  0  0
  189.8120  173.1030  141.7700 C   0  0  0  0  0  0  0  0  0  0  0  0
  191.2110  171.6280  140.4730 N   0  0  0  0  0  0  0  0  0  0  0  0
  190.2760  171.7740  141.3580 C   0  0  0  0  0  3  0  0  0  0  0  0
  191.6700  170.3400  140.0570 C   0  0  0  0  0  0  0  0  0  0  0  0
  193.0190  170.2060  139.4490 C   0  0  0  0  0  1  0  0  0  0  0  0
  190.9470  169.3170  140.1970 O   0  0  0  0  0  0  0  0  0  0  0  0
  185.7350  177.1870  142.1830 C   0  0  0  0  0  2  0  0  0  0  0  0
  184.9440  178.4680  141.9990 C   0  0  0  0  0  2  0  0  0  0  0  0
  183.5920  178.3280  142.6740 C   0  0  0  0  0  2  0  0  0  0  0  0
  181.2400  178.9760  142.0070 C   0  0  0  0  0  0  0  0  0  0  0  0
  181.0000  179.3830  143.1770 O   0  0  0  0  0  0  0  0  0  0  0  0
  182.5310  178.4520  141.6850 N   0  0  0  0  0  2  0  0  0  0  0  0
  178.8390  177.7760  139.3330 C   0  0  0  0  0  0  0  0  0  0  0  0
  180.2010  179.0700  140.9660 C   0  0  0  0  0  0  0  0  0  0  0  0
  177.7230  178.6030  139.1490 O   0  0  0  0  0  0  0  0  0  0  0  0
  177.9090  181.9150  140.6300 O   0  0  0  0  0  1  0  0  0  0  0  0
  179.7620  180.4330  140.5350 C   0  0  0  0  0  2  0  0  0  0  0  0
  179.8260  177.9790  140.3620 N   0  0  0  0  0  0  0  0  0  0  0  0
  178.2530  180.5680  140.5010 C   0  0  2  0  0  3  0  0  0  0  0  0
  177.7050  180.0250  139.1900 C   0  0  1  0  0  3  0  0  0  0  0  0
  178.8950  176.7110  138.6640 O   0  0  0  0  0  0  0  0  0  0  0  0
  177.7920  181.8570  137.6410 O   0  0  0  0  0  1  0  0  0  0  0  0
  178.3740  180.6260  137.9520 C   0  0  0  0  0  2  0  0  0  0  0  0
  1  2  2  0  0  0  0
  2  4  1  0  0  0  0
  4  5  1  0  0  0  0
  4  3  2  0  0  0  0
  5  6  1  0  0  0  0
  6  7  1  0  0  0  0
  7  8  1  0  0  0  0
  9  8  1  0  0  0  0
 10  9  1  0  0  0  0
 11 10  1  0  0  0  0
 12 20  1  6  0  0  0
 13 12  1  0  0  0  0
 13 24  1  1  0  0  0
 14 17  1  6  0  0  0
 14 13  1  0  0  0  0
 14 16  1  0  0  0  0
 15 18  1  0  0  0  0
 15 12  1  0  0  0  0
 18 16  1  0  0  0  0
 18 11  1  1  0  0  0
 19 21  1  0  0  0  0
 20 21  1  0  0  0  0
 22 20  2  0  0  0  0
 24 23  2  0  0  0  0
 25 24  1  0  0  0  0
 25 26  1  0  0  0  0
 27  2  1  0  0  0  0
 28 30  1  0  0  0  0
 29 27  1  0  0  0  0
 30 29  2  0  0  0  0
 31 29  1  0  0  0  0
 32 31  2  0  0  0  0
 33 32  1  0  0  0  0
 33 28  2  0  0  0  0
 34 35  2  0  0  0  0
 35 33  1  0  0  0  0
 36 38  2  0  0  0  0
 36 34  1  0  0  0  0
 37 36  1  0  0  0  0
 39  1  1  0  0  0  0
 40 39  1  0  0  0  0
 40 41  1  0  0  0  0
 42 43  2  0  0  0  0
 44 42  1  0  0  0  0
 44 41  1  0  0  0  0
 45 50  1  0  0  0  0
 46 42  1  0  0  0  0
 47 52  1  0  0  0  0
 47 45  1  0  0  0  0
 49 46  1  0  0  0  0
 50 46  2  0  0  0  0
 51 49  1  0  0  0  0
 51 48  1  6  0  0  0
 52 55  1  6  0  0  0
 52 51  1  0  0  0  0
 53 45  2  0  0  0  0
 54 55  1  0  0  0  0
M  END
>  <MODEL>
8

>  <REMARK>
 VINA RESULT:      -5.0      4.656      8.266
  Name = 
  22 active torsions:
  status: ('A' for Active; 'I' for Inactive)
    1  A    between atoms: C_1  and  N_6
    2  A    between atoms: C_2  and  C_18
    3  A    between atoms: C_2  and  C_20
    4  A    between atoms: C_4  and  C_19
    5  A    between atoms: O_8  and  C_15
    6  A    between atoms: O_8  and  C_45
    7  A    between atoms: N_9  and  C_20
    8  A    between atoms: C_10  and  C_15
    9  A    between atoms: C_10  and  N_55
   10  A    between atoms: C_11  and  C_30
   11  A    between atoms: C_12  and  C_37
   12  A    between atoms: C_16  and  C_54
   13  A    between atoms: C_18  and  N_33
   14  A    between atoms: O_22  and  C_37
   15  A    between atoms: C_28  and  C_53
   16  A    between atoms: C_36  and  C_41
   17  A    between atoms: C_36  and  N_55
   18  A    between atoms: C_41  and  C_49
   19  A    between atoms: C_45  and  C_52
   20  A    between atoms: C_46  and  C_52
   21  A    between atoms: C_46  and  C_54
   22  A    between atoms: C_48  and  C_50
                            x       y       z     vdW  Elec       q    Type
                         _______ _______ _______ _____ _____    ______ ____

>  <TORSDO>
F 22

$$$$
=
 OpenBabel11042417563D

 55 57  0  0  1  0  0  0  0  0999 V2000
  192.5410  171.6010  142.4280 N   0  0  0  0  0  0  0  0  0  0  0  0
  192.8880  171.4380  141.1860 C   0  0  0  0  0  0  0  0  0  0  0  0
  194.1760  173.3170  140.3590 C   0  0  0  0  0  2  0  0  0  0  0  0
  194.1440  172.0330  140.7140 C   0  0  0  0  0  0  0  0  0  0  0  0
  195.2820  171.1430  140.3430 C   0  0  0  0  0  2  0  0  0  0  0  0
  196.4880  171.8510  140.4020 O   0  0  0  0  0  0  0  0  0  0  0  0
  196.8050  171.8760  141.7640 C   0  0  0  0  0  2  0  0  0  0  0  0
  196.5110  170.5240  142.3840 C   0  0  0  0  0  2  0  0  0  0  0  0
  195.7450  170.6980  143.6090 N   0  0  0  0  0  2  0  0  0  0  0  0
  196.0850  172.0080  144.1280 C   0  0  0  0  0  2  0  0  0  0  0  0
  194.9050  172.5590  144.9060 C   0  0  0  0  0  2  0  0  0  0  0  0
  192.7870  175.0890  145.5180 C   0  0  1  0  0  3  0  0  0  0  0  0
  193.1170  176.2820  144.6020 C   0  0  1  0  0  3  0  0  0  0  0  0
  194.5160  176.2270  143.9720 C   0  0  2  0  0  3  0  0  0  0  0  0
  194.0410  174.5380  146.1960 C   0  0  0  0  0  2  0  0  0  0  0  0
  195.0250  174.7920  143.8350 C   0  0  0  0  0  2  0  0  0  0  0  0
  195.4110  176.9930  144.7290 O   0  0  0  0  0  1  0  0  0  0  0  0
  195.0790  174.0420  145.1740 C   0  0  2  0  0  3  0  0  0  0  0  0
  191.1480  176.9150  148.3790 O   0  0  0  0  0  1  0  0  0  0  0  0
  191.7640  175.4810  146.5330 C   0  0  0  0  0  0  0  0  0  0  0  0
  192.0400  176.5600  147.4240 N   0  0  0  0  0  2  0  0  0  0  0  0
  190.6780  174.8440  146.6230 O   0  0  0  0  0  0  0  0  0  0  0  0
  192.1660  175.8250  142.4540 O   0  0  0  0  0  0  0  0  0  0  0  0
  192.0730  176.4510  143.5470 C   0  0  0  0  0  0  0  0  0  0  0  0
  190.9930  177.3000  143.7900 O   0  0  0  0  0  0  0  0  0  0  0  0
  190.3190  177.9720  142.7360 C   0  0  0  0  0  1  0  0  0  0  0  0
  192.0190  170.6870  140.2190 C   0  0  0  0  0  2  0  0  0  0  0  0
  190.3340  173.8200  138.9140 C   0  0  0  0  0  3  0  0  0  0  0  0
  191.0420  171.5860  139.5360 C   0  0  0  0  0  0  0  0  0  0  0  0
  191.2510  172.9690  139.5420 C   0  0  0  0  0  3  0  0  0  0  0  0
  189.9080  171.0550  138.9110 C   0  0  0  0  0  3  0  0  0  0  0  0
  188.9920  171.9070  138.2830 C   0  0  0  0  0  3  0  0  0  0  0  0
  189.2020  173.2930  138.2850 C   0  0  0  0  0  0  0  0  0  0  0  0
  187.6010  175.0960  138.3110 N   0  0  0  0  0  0  0  0  0  0  0  0
  188.2590  174.2090  137.6340 C   0  0  0  0  0  3  0  0  0  0  0  0
  186.6740  175.9920  137.6910 C   0  0  0  0  0  0  0  0  0  0  0  0
  186.4970  175.9550  136.2160 C   0  0  0  0  0  1  0  0  0  0  0  0
  186.0080  176.8130  138.3780 O   0  0  0  0  0  0  0  0  0  0  0  0
  191.3050  171.1040  143.0280 C   0  0  0  0  0  2  0  0  0  0  0  0
  190.6130  172.2080  143.8040 C   0  0  0  0  0  2  0  0  0  0  0  0
  189.9340  173.1570  142.8350 C   0  0  0  0  0  2  0  0  0  0  0  0
  188.2960  175.0820  142.9350 C   0  0  0  0  0  0  0  0  0  0  0  0
  188.0930  174.9990  141.6930 O   0  0  0  0  0  0  0  0  0  0  0  0
  189.1960  174.1720  143.5730 N   0  0  0  0  0  2  0  0  0  0  0  0
  187.2990  177.0560  146.0120 C   0  0  0  0  0  0  0  0  0  0  0  0
  187.5820  176.0950  143.7330 C   0  0  0  0  0  0  0  0  0  0  0  0
  186.8190  178.3440  145.7380 O   0  0  0  0  0  0  0  0  0  0  0  0
  185.9320  179.0340  142.2840 O   0  0  0  0  0  1  0  0  0  0  0  0
  186.4830  176.8620  143.0700 C   0  0  0  0  0  2  0  0  0  0  0  0
  187.8310  176.1690  145.0090 N   0  0  0  0  0  0  0  0  0  0  0  0
  186.6000  178.3540  143.3050 C   0  0  2  0  0  3  0  0  0  0  0  0
  185.9890  178.7250  144.6470 C   0  0  1  0  0  3  0  0  0  0  0  0
  187.4170  176.7190  147.2190 O   0  0  0  0  0  0  0  0  0  0  0  0
  183.8850  179.0010  145.7680 O   0  0  0  0  0  1  0  0  0  0  0  0
  184.5590  178.2140  144.8320 C   0  0  0  0  0  2  0  0  0  0  0  0
  1 39  1  0  0  0  0
  2  1  2  0  0  0  0
  3  4  2  0  0  0  0
  4  2  1  0  0  0  0
  5  6  1  0  0  0  0
  5  4  1  0  0  0  0
  6  7  1  0  0  0  0
  7  8  1  0  0  0  0
  8  9  1  0  0  0  0
  9 10  1  0  0  0  0
 10 11  1  0  0  0  0
 12 15  1  0  0  0  0
 12 20  1  1  0  0  0
 13 24  1  6  0  0  0
 13 12  1  0  0  0  0
 14 13  1  0  0  0  0
 14 17  1  1  0  0  0
 16 14  1  0  0  0  0
 16 18  1  0  0  0  0
 18 11  1  6  0  0  0
 18 15  1  0  0  0  0
 20 22  2  0  0  0  0
 20 21  1  0  0  0  0
 21 19  1  0  0  0  0
 23 24  2  0  0  0  0
 24 25  1  0  0  0  0
 26 25  1  0  0  0  0
 27  2  1  0  0  0  0
 28 30  1  0  0  0  0
 29 30  2  0  0  0  0
 29 27  1  0  0  0  0
 31 29  1  0  0  0  0
 32 33  1  0  0  0  0
 32 31  2  0  0  0  0
 33 28  2  0  0  0  0
 35 33  1  0  0  0  0
 35 34  2  0  0  0  0
 36 34  1  0  0  0  0
 36 38  2  0  0  0  0
 37 36  1  0  0  0  0
 39 40  1  0  0  0  0
 41 44  1  0  0  0  0
 41 40  1  0  0  0  0
 42 44  1  0  0  0  0
 42 46  1  0  0  0  0
 43 42  2  0  0  0  0
 45 53  2  0  0  0  0
 46 50  2  0  0  0  0
 47 45  1  0  0  0  0
 49 51  1  0  0  0  0
 49 46  1  0  0  0  0
 50 45  1  0  0  0  0
 51 48  1  6  0  0  0
 51 52  1  0  0  0  0
 52 55  1  1  0  0  0
 52 47  1  0  0  0  0
 55 54  1  0  0  0  0
M  END
>  <MODEL>
9

>  <REMARK>
 VINA RESULT:      -5.0      2.548      6.551
  Name = 
  22 active torsions:
  status: ('A' for Active; 'I' for Inactive)
    1  A    between atoms: C_1  and  N_6
    2  A    between atoms: C_2  and  C_18
    3  A    between atoms: C_2  and  C_20
    4  A    between atoms: C_4  and  C_19
    5  A    between atoms: O_8  and  C_15
    6  A    between atoms: O_8  and  C_45
    7  A    between atoms: N_9  and  C_20
    8  A    between atoms: C_10  and  C_15
    9  A    between atoms: C_10  and  N_55
   10  A    between atoms: C_11  and  C_30
   11  A    between atoms: C_12  and  C_37
   12  A    between atoms: C_16  and  C_54
   13  A    between atoms: C_18  and  N_33
   14  A    between atoms: O_22  and  C_37
   15  A    between atoms: C_28  and  C_53
   16  A    between atoms: C_36  and  C_41
   17  A    between atoms: C_36  and  N_55
   18  A    between atoms: C_41  and  C_49
   19  A    between atoms: C_45  and  C_52
   20  A    between atoms: C_46  and  C_52
   21  A    between atoms: C_46  and  C_54
   22  A    between atoms: C_48  and  C_50
                            x       y       z     vdW  Elec       q    Type
                         _______ _______ _______ _____ _____    ______ ____

>  <TORSDO>
F 22

$$$$
