=
 OpenBabel11042417293D

 39 43  0  0  1  0  0  0  0  0999 V2000
  190.8720  176.0470  147.6720 C   0  0  0  0  0  3  0  0  0  0  0  0
  187.6330  175.3180  142.4060 S   0  0  0  0  0  0  0  0  0  0  0  0
  190.1280  175.8020  143.0890 C   0  0  2  0  0  3  0  0  0  0  0  0
  188.8910  176.0780  143.4100 C   0  0  2  0  0  3  0  0  0  0  0  0
  190.0590  176.4200  145.3170 C   0  0  0  0  0  0  0  0  0  0  0  0
  191.8590  175.2740  147.3430 C   0  0  0  0  0  0  0  0  0  0  0  0
  192.9750  174.6640  145.3290 C   0  0  2  0  0  3  0  0  0  0  0  0
  190.3910  177.0490  146.6670 C   0  0  1  0  0  3  0  0  0  0  0  0
  192.7790  174.5350  146.8050 C   0  0  0  0  0  3  0  0  0  0  0  0
  188.8310  176.4530  144.8110 C   0  0  0  0  0  0  0  0  0  0  0  0
  189.3680  178.5260  148.2540 O   0  0  0  0  0  0  0  0  0  0  0  0
  187.6920  177.0510  145.5330 C   0  0  0  0  0  0  0  0  0  0  0  0
  188.9430  174.2110  141.7610 C   0  0  2  0  0  3  0  0  0  0  0  0
  190.2910  174.9160  141.9100 C   0  0  0  0  0  2  0  0  0  0  0  0
  189.2110  177.7950  147.2390 C   0  0  0  0  0  0  0  0  0  0  0  0
  191.6410  174.5630  144.5820 C   0  0  0  0  0  2  0  0  0  0  0  0
  187.9050  177.6750  146.6550 N   0  0  0  0  0  0  0  0  0  0  0  0
  191.0490  175.9440  144.2660 C   0  0  1  0  0  3  0  0  0  0  0  0
  193.8620  175.0450  141.0440 O   0  0  0  0  0  1  0  0  0  0  0  0
  194.4070  172.8270  140.9620 O   0  0  0  0  0  0  0  0  0  0  0  0
  195.8060  175.3080  144.8110 C   0  0  0  0  0  2  0  0  0  0  0  0
  193.5290  172.4380  144.6710 O   0  0  0  0  0  0  0  0  0  0  0  0
  195.4760  176.2280  143.6380 C   0  0  0  0  0  2  0  0  0  0  0  0
  196.1420  176.8230  141.2830 C   0  0  0  0  0  1  0  0  0  0  0  0
  196.7190  173.3800  142.5750 C   0  0  0  0  0  2  0  0  0  0  0  0
  195.3010  173.9610  144.5550 N   0  0  0  0  0  0  0  0  0  0  0  0
  196.2780  175.8130  142.4110 C   0  0  2  0  0  3  0  0  0  0  0  0
  196.1840  172.9580  143.9540 C   0  0  0  0  0  2  0  0  0  0  0  0
  193.9320  173.6230  144.8360 C   0  0  0  0  0  0  0  0  0  0  0  0
  195.9270  174.4560  141.9890 N   0  0  0  0  0  0  0  0  0  0  0  0
  194.6950  174.1410  141.3140 C   0  0  0  0  0  0  0  0  0  0  0  0
  188.6900  173.8340  140.3410 C   0  0  0  0  0  0  0  0  0  0  0  0
  188.2490  174.6950  139.5310 O   0  0  0  0  0  0  0  0  0  0  0  0
  190.0710  172.0750  139.3520 C   0  0  0  0  0  0  0  0  0  0  0  0
  188.9790  172.4920  139.9220 N   0  0  0  0  0  0  0  0  0  0  0  0
  190.1990  170.6980  139.0200 N   0  0  0  0  0  1  0  0  0  0  0  0
  191.1450  172.9650  139.0500 N   0  0  0  0  0  1  0  0  0  0  0  0
  186.3360  176.9780  144.9680 C   0  0  0  0  0  3  0  0  0  0  0  0
  185.2470  176.9790  145.7280 C   0  0  0  0  0  2  0  0  0  0  0  0
  3 14  1  1  0  0  0
  3  4  1  0  0  0  0
  3 18  1  0  0  0  0
  4  2  1  1  0  0  0
  4 10  1  0  0  0  0
  5  8  1  0  0  0  0
  6  1  2  0  0  0  0
  7 29  1  6  0  0  0
  7  9  1  0  0  0  0
  8 15  1  0  0  0  0
  8  1  1  1  0  0  0
  9  6  2  0  0  0  0
 10  5  2  0  0  0  0
 10 12  1  0  0  0  0
 12 17  2  0  0  0  0
 13 32  1  6  0  0  0
 13 14  1  0  0  0  0
 13  2  1  0  0  0  0
 15 11  2  0  0  0  0
 16  7  1  0  0  0  0
 17 15  1  0  0  0  0
 18 16  1  1  0  0  0
 18  5  1  0  0  0  0
 19 31  1  0  0  0  0
 20 31  2  0  0  0  0
 22 29  2  0  0  0  0
 23 21  1  0  0  0  0
 25 28  1  0  0  0  0
 26 21  1  0  0  0  0
 26 29  1  0  0  0  0
 27 24  1  6  0  0  0
 27 23  1  0  0  0  0
 28 26  1  0  0  0  0
 30 27  1  0  0  0  0
 30 25  1  0  0  0  0
 31 30  1  0  0  0  0
 33 32  2  0  0  0  0
 34 35  2  0  0  0  0
 35 32  1  0  0  0  0
 36 34  1  0  0  0  0
 37 34  1  0  0  0  0
 38 12  1  0  0  0  0
 38 39  2  0  0  0  0
M  END
>  <MODEL>
1

>  <REMARK>
 VINA RESULT:      -8.0      0.000      0.000
  Name = 
  4 active torsions:
  status: ('A' for Active; 'I' for Inactive)
    1  A    between atoms: N_9  and  C_25
    2  A    between atoms: C_15  and  C_35
    3  A    between atoms: C_24  and  C_31
    4  A    between atoms: C_25  and  C_27
                            x       y       z     vdW  Elec       q    Type
                         _______ _______ _______ _____ _____    ______ ____

>  <TORSDO>
F 4

$$$$
=
 OpenBabel11042417293D

 39 43  0  0  1  0  0  0  0  0999 V2000
  189.7540  175.9150  147.2450 C   0  0  0  0  0  3  0  0  0  0  0  0
  188.4110  174.6910  141.2910 S   0  0  0  0  0  0  0  0  0  0  0  0
  190.5020  175.4900  142.6750 C   0  0  2  0  0  3  0  0  0  0  0  0
  189.2030  175.6180  142.5870 C   0  0  2  0  0  3  0  0  0  0  0  0
  189.6770  176.1390  144.7370 C   0  0  0  0  0  0  0  0  0  0  0  0
  190.8730  175.2620  147.2780 C   0  0  0  0  0  0  0  0  0  0  0  0
  192.6190  174.7530  145.7400 C   0  0  2  0  0  3  0  0  0  0  0  0
  189.5020  176.8310  146.0860 C   0  0  1  0  0  3  0  0  0  0  0  0
  191.9900  174.6300  147.0900 C   0  0  0  0  0  3  0  0  0  0  0  0
  188.6710  176.0120  143.8790 C   0  0  0  0  0  0  0  0  0  0  0  0
  187.8810  178.2030  147.1970 O   0  0  0  0  0  0  0  0  0  0  0  0
  187.3060  176.4800  144.1830 C   0  0  0  0  0  0  0  0  0  0  0  0
  189.9700  173.7390  141.1420 C   0  0  2  0  0  3  0  0  0  0  0  0
  191.1180  174.6060  141.6550 C   0  0  0  0  0  2  0  0  0  0  0  0
  188.1280  177.4380  146.2260 C   0  0  0  0  0  0  0  0  0  0  0  0
  191.6030  174.4750  144.6280 C   0  0  0  0  0  2  0  0  0  0  0  0
  187.0890  177.1480  145.2790 N   0  0  0  0  0  0  0  0  0  0  0  0
  190.9900  175.7660  144.0680 C   0  0  1  0  0  3  0  0  0  0  0  0
  194.2450  174.5530  141.6640 O   0  0  0  0  0  0  0  0  0  0  0  0
  195.1050  172.4840  142.1110 O   0  0  0  0  0  1  0  0  0  0  0  0
  195.3770  175.7850  145.5690 C   0  0  0  0  0  2  0  0  0  0  0  0
  193.5990  172.5790  145.6330 O   0  0  0  0  0  0  0  0  0  0  0  0
  195.1500  176.4210  144.2000 C   0  0  0  0  0  2  0  0  0  0  0  0
  196.1630  176.7170  141.9130 C   0  0  0  0  0  1  0  0  0  0  0  0
  196.9640  173.6960  143.9350 C   0  0  0  0  0  2  0  0  0  0  0  0
  195.1260  174.3460  145.5060 N   0  0  0  0  0  0  0  0  0  0  0  0
  196.2230  175.9520  143.2250 C   0  0  2  0  0  3  0  0  0  0  0  0
  196.2410  173.4260  145.2650 C   0  0  0  0  0  2  0  0  0  0  0  0
  193.7910  173.8270  145.6240 C   0  0  0  0  0  0  0  0  0  0  0  0
  196.1540  174.5020  143.0270 N   0  0  0  0  0  0  0  0  0  0  0  0
  195.1320  173.8670  142.2390 C   0  0  0  0  0  0  0  0  0  0  0  0
  190.2140  173.3060  139.7360 C   0  0  0  0  0  0  0  0  0  0  0  0
  189.2500  172.9060  139.0260 O   0  0  0  0  0  0  0  0  0  0  0  0
  192.4480  172.4380  139.2550 C   0  0  0  0  0  0  0  0  0  0  0  0
  191.5490  173.3760  139.2140 N   0  0  0  0  0  0  0  0  0  0  0  0
  193.7220  172.6720  138.6680 N   0  0  0  0  0  1  0  0  0  0  0  0
  192.1900  171.1800  139.8750 N   0  0  0  0  0  1  0  0  0  0  0  0
  186.2090  176.2310  143.2350 C   0  0  0  0  0  3  0  0  0  0  0  0
  185.6800  177.1930  142.4890 C   0  0  0  0  0  2  0  0  0  0  0  0
  1  6  2  0  0  0  0
  3 14  1  1  0  0  0
  3 18  1  0  0  0  0
  4  2  1  1  0  0  0
  4  3  1  0  0  0  0
  4 10  1  0  0  0  0
  5  8  1  0  0  0  0
  7 29  1  1  0  0  0
  7  9  1  0  0  0  0
  8 15  1  0  0  0  0
  8  1  1  1  0  0  0
  9  6  2  0  0  0  0
 10 12  1  0  0  0  0
 10  5  2  0  0  0  0
 12 17  2  0  0  0  0
 13 32  1  6  0  0  0
 13  2  1  0  0  0  0
 13 14  1  0  0  0  0
 15 11  2  0  0  0  0
 16  7  1  0  0  0  0
 17 15  1  0  0  0  0
 18 16  1  1  0  0  0
 18  5  1  0  0  0  0
 19 31  2  0  0  0  0
 20 31  1  0  0  0  0
 23 21  1  0  0  0  0
 25 28  1  0  0  0  0
 26 21  1  0  0  0  0
 26 29  1  0  0  0  0
 27 24  1  6  0  0  0
 27 23  1  0  0  0  0
 28 26  1  0  0  0  0
 29 22  2  0  0  0  0
 30 27  1  0  0  0  0
 30 25  1  0  0  0  0
 31 30  1  0  0  0  0
 33 32  2  0  0  0  0
 34 37  1  0  0  0  0
 35 34  2  0  0  0  0
 35 32  1  0  0  0  0
 36 34  1  0  0  0  0
 38 12  1  0  0  0  0
 39 38  2  0  0  0  0
M  END
>  <MODEL>
2

>  <REMARK>
 VINA RESULT:      -7.7      1.317      1.555
  Name = 
  4 active torsions:
  status: ('A' for Active; 'I' for Inactive)
    1  A    between atoms: N_9  and  C_25
    2  A    between atoms: C_15  and  C_35
    3  A    between atoms: C_24  and  C_31
    4  A    between atoms: C_25  and  C_27
                            x       y       z     vdW  Elec       q    Type
                         _______ _______ _______ _____ _____    ______ ____

>  <TORSDO>
F 4

$$$$
=
 OpenBabel11042417293D

 39 43  0  0  1  0  0  0  0  0999 V2000
  187.8290  176.2850  147.5630 C   0  0  0  0  0  3  0  0  0  0  0  0
  186.1690  177.6410  141.7190 S   0  0  0  0  0  0  0  0  0  0  0  0
  188.3850  177.0540  143.0110 C   0  0  2  0  0  3  0  0  0  0  0  0
  187.2610  177.7140  143.1220 C   0  0  2  0  0  3  0  0  0  0  0  0
  187.8840  177.2960  145.2570 C   0  0  0  0  0  0  0  0  0  0  0  0
  188.5700  175.2630  147.2700 C   0  0  0  0  0  0  0  0  0  0  0  0
  189.9600  174.6070  145.4500 C   0  0  2  0  0  3  0  0  0  0  0  0
  187.9990  177.5380  146.7590 C   0  0  1  0  0  3  0  0  0  0  0  0
  189.3210  174.3290  146.7730 C   0  0  0  0  0  3  0  0  0  0  0  0
  186.9280  177.8600  144.5270 C   0  0  0  0  0  0  0  0  0  0  0  0
  187.0900  179.0200  148.4080 O   0  0  0  0  0  0  0  0  0  0  0  0
  185.8810  178.7160  145.1160 C   0  0  0  0  0  0  0  0  0  0  0  0
  187.1870  176.2430  141.1120 C   0  0  2  0  0  3  0  0  0  0  0  0
  188.5860  176.3660  141.7120 C   0  0  0  0  0  2  0  0  0  0  0  0
  187.0050  178.5680  147.2350 C   0  0  0  0  0  0  0  0  0  0  0  0
  188.9350  175.1250  144.4370 C   0  0  0  0  0  2  0  0  0  0  0  0
  185.9510  179.0340  146.3770 N   0  0  0  0  0  0  0  0  0  0  0  0
  188.9270  176.6580  144.3540 C   0  0  1  0  0  3  0  0  0  0  0  0
  192.1590  175.3130  141.7130 O   0  0  0  0  0  1  0  0  0  0  0  0
  191.9670  173.0980  141.1840 O   0  0  0  0  0  0  0  0  0  0  0  0
  192.8670  174.2100  145.7540 C   0  0  0  0  0  2  0  0  0  0  0  0
  189.9450  172.4740  144.3790 O   0  0  0  0  0  0  0  0  0  0  0  0
  193.2140  175.3630  144.8150 C   0  0  0  0  0  2  0  0  0  0  0  0
  194.7060  176.0360  142.9010 C   0  0  0  0  0  1  0  0  0  0  0  0
  193.7410  172.4700  143.3550 C   0  0  0  0  0  2  0  0  0  0  0  0
  192.0590  173.2130  145.0540 N   0  0  0  0  0  0  0  0  0  0  0  0
  194.1700  174.8810  143.7310 C   0  0  2  0  0  3  0  0  0  0  0  0
  192.7140  172.0630  144.4250 C   0  0  0  0  0  2  0  0  0  0  0  0
  190.6370  173.3760  144.9290 C   0  0  0  0  0  0  0  0  0  0  0  0
  193.5460  173.8440  142.9060 N   0  0  0  0  0  0  0  0  0  0  0  0
  192.5400  174.1300  141.9180 C   0  0  0  0  0  0  0  0  0  0  0  0
  187.2430  176.2140  139.6220 C   0  0  0  0  0  0  0  0  0  0  0  0
  186.7450  177.1630  138.9560 O   0  0  0  0  0  0  0  0  0  0  0  0
  187.8800  174.8340  137.7070 C   0  0  0  0  0  0  0  0  0  0  0  0
  187.8890  175.1060  138.9790 N   0  0  0  0  0  0  0  0  0  0  0  0
  188.5950  173.6990  137.2350 N   0  0  0  0  0  1  0  0  0  0  0  0
  187.1700  175.6450  136.7730 N   0  0  0  0  0  1  0  0  0  0  0  0
  184.7920  179.2400  144.2780 C   0  0  0  0  0  3  0  0  0  0  0  0
  183.5120  179.0310  144.5610 C   0  0  0  0  0  2  0  0  0  0  0  0
  3 14  1  6  0  0  0
  3  4  1  0  0  0  0
  3 18  1  0  0  0  0
  4  2  1  6  0  0  0
  4 10  1  0  0  0  0
  5  8  1  0  0  0  0
  6  1  2  0  0  0  0
  7 29  1  6  0  0  0
  7  9  1  0  0  0  0
  8 15  1  0  0  0  0
  8  1  1  1  0  0  0
  9  6  2  0  0  0  0
 10 12  1  0  0  0  0
 10  5  2  0  0  0  0
 12 17  2  0  0  0  0
 13 32  1  6  0  0  0
 13 14  1  0  0  0  0
 13  2  1  0  0  0  0
 15 11  2  0  0  0  0
 16  7  1  0  0  0  0
 17 15  1  0  0  0  0
 18 16  1  6  0  0  0
 18  5  1  0  0  0  0
 19 31  1  0  0  0  0
 20 31  2  0  0  0  0
 22 29  2  0  0  0  0
 23 21  1  0  0  0  0
 25 28  1  0  0  0  0
 26 21  1  0  0  0  0
 27 24  1  6  0  0  0
 27 23  1  0  0  0  0
 28 26  1  0  0  0  0
 29 26  1  0  0  0  0
 30 25  1  0  0  0  0
 30 27  1  0  0  0  0
 31 30  1  0  0  0  0
 33 32  2  0  0  0  0
 34 35  2  0  0  0  0
 35 32  1  0  0  0  0
 36 34  1  0  0  0  0
 37 34  1  0  0  0  0
 38 39  2  0  0  0  0
 38 12  1  0  0  0  0
M  END
>  <MODEL>
3

>  <REMARK>
 VINA RESULT:      -7.6      2.334      2.933
  Name = 
  4 active torsions:
  status: ('A' for Active; 'I' for Inactive)
    1  A    between atoms: N_9  and  C_25
    2  A    between atoms: C_15  and  C_35
    3  A    between atoms: C_24  and  C_31
    4  A    between atoms: C_25  and  C_27
                            x       y       z     vdW  Elec       q    Type
                         _______ _______ _______ _____ _____    ______ ____

>  <TORSDO>
F 4

$$$$
=
 OpenBabel11042417293D

 39 43  0  0  1  0  0  0  0  0999 V2000
  186.3220  177.8450  145.8170 C   0  0  0  0  0  3  0  0  0  0  0  0
  187.0690  175.7340  140.0080 S   0  0  0  0  0  0  0  0  0  0  0  0
  188.6100  176.4600  142.0130 C   0  0  2  0  0  3  0  0  0  0  0  0
  187.4970  176.7610  141.3970 C   0  0  2  0  0  3  0  0  0  0  0  0
  187.2340  177.6010  143.4810 C   0  0  0  0  0  0  0  0  0  0  0  0
  187.1830  177.0510  146.3710 C   0  0  0  0  0  0  0  0  0  0  0  0
  189.2270  176.0070  145.7330 C   0  0  2  0  0  3  0  0  0  0  0  0
  186.7190  178.5520  144.5570 C   0  0  1  0  0  3  0  0  0  0  0  0
  188.1290  176.2350  146.7210 C   0  0  0  0  0  3  0  0  0  0  0  0
  186.6180  177.4650  142.3120 C   0  0  0  0  0  0  0  0  0  0  0  0
  185.1290  180.3350  144.7580 O   0  0  0  0  0  0  0  0  0  0  0  0
  185.3690  178.1800  141.9860 C   0  0  0  0  0  0  0  0  0  0  0  0
  188.3330  174.5510  140.6070 C   0  0  2  0  0  3  0  0  0  0  0  0
  189.3620  175.3180  141.4350 C   0  0  0  0  0  2  0  0  0  0  0  0
  185.5530  179.3730  144.0630 C   0  0  0  0  0  0  0  0  0  0  0  0
  188.6640  175.6790  144.3460 C   0  0  0  0  0  2  0  0  0  0  0  0
  184.9060  179.0670  142.8180 N   0  0  0  0  0  0  0  0  0  0  0  0
  188.5910  176.9180  143.4430 C   0  0  1  0  0  3  0  0  0  0  0  0
  191.8930  174.5160  142.5760 O   0  0  0  0  0  0  0  0  0  0  0  0
  192.0810  172.5230  143.6780 O   0  0  0  0  0  1  0  0  0  0  0  0
  192.0720  176.5190  146.3170 C   0  0  0  0  0  2  0  0  0  0  0  0
  189.6650  173.7540  146.3860 O   0  0  0  0  0  0  0  0  0  0  0  0
  192.4130  176.8090  144.8580 C   0  0  0  0  0  2  0  0  0  0  0  0
  194.0960  176.3460  143.0420 C   0  0  0  0  0  1  0  0  0  0  0  0
  193.5440  173.8600  145.7580 C   0  0  0  0  0  2  0  0  0  0  0  0
  191.5260  175.1690  146.4510 N   0  0  0  0  0  0  0  0  0  0  0  0
  193.5870  175.9440  144.4180 C   0  0  2  0  0  3  0  0  0  0  0  0
  192.4190  174.0570  146.7870 C   0  0  0  0  0  2  0  0  0  0  0  0
  190.1340  174.9120  146.2040 C   0  0  0  0  0  0  0  0  0  0  0  0
  193.2480  174.5210  144.4910 N   0  0  0  0  0  0  0  0  0  0  0  0
  192.3870  173.8720  143.5390 C   0  0  0  0  0  0  0  0  0  0  0  0
  188.9850  173.8290  139.4770 C   0  0  0  0  0  0  0  0  0  0  0  0
  188.3100  173.5130  138.4590 O   0  0  0  0  0  0  0  0  0  0  0  0
  190.9160  172.4180  139.9890 C   0  0  0  0  0  0  0  0  0  0  0  0
  190.3860  173.5290  139.5680 N   0  0  0  0  0  0  0  0  0  0  0  0
  192.3310  172.2830  139.9940 N   0  0  0  0  0  1  0  0  0  0  0  0
  190.1130  171.3310  140.4470 N   0  0  0  0  0  1  0  0  0  0  0  0
  184.6780  177.9230  140.7130 C   0  0  0  0  0  3  0  0  0  0  0  0
  183.4110  178.2640  140.5090 C   0  0  0  0  0  2  0  0  0  0  0  0
  1  6  2  0  0  0  0
  2 13  1  0  0  0  0
  3 14  1  1  0  0  0
  3 18  1  0  0  0  0
  4  2  1  1  0  0  0
  4  3  1  0  0  0  0
  4 10  1  0  0  0  0
  5  8  1  0  0  0  0
  6  9  2  0  0  0  0
  7 29  1  1  0  0  0
  7  9  1  0  0  0  0
  8  1  1  1  0  0  0
 10  5  2  0  0  0  0
 12 10  1  0  0  0  0
 12 17  2  0  0  0  0
 13 32  1  6  0  0  0
 13 14  1  0  0  0  0
 15  8  1  0  0  0  0
 15 11  2  0  0  0  0
 16  7  1  0  0  0  0
 17 15  1  0  0  0  0
 18  5  1  0  0  0  0
 18 16  1  1  0  0  0
 19 31  2  0  0  0  0
 21 26  1  0  0  0  0
 23 21  1  0  0  0  0
 25 28  1  0  0  0  0
 26 28  1  0  0  0  0
 27 24  1  6  0  0  0
 27 30  1  0  0  0  0
 27 23  1  0  0  0  0
 29 22  2  0  0  0  0
 29 26  1  0  0  0  0
 30 25  1  0  0  0  0
 31 20  1  0  0  0  0
 31 30  1  0  0  0  0
 32 35  1  0  0  0  0
 33 32  2  0  0  0  0
 34 36  1  0  0  0  0
 34 37  1  0  0  0  0
 35 34  2  0  0  0  0
 38 12  1  0  0  0  0
 39 38  2  0  0  0  0
M  END
>  <MODEL>
4

>  <REMARK>
 VINA RESULT:      -7.4      2.524      3.748
  Name = 
  4 active torsions:
  status: ('A' for Active; 'I' for Inactive)
    1  A    between atoms: N_9  and  C_25
    2  A    between atoms: C_15  and  C_35
    3  A    between atoms: C_24  and  C_31
    4  A    between atoms: C_25  and  C_27
                            x       y       z     vdW  Elec       q    Type
                         _______ _______ _______ _____ _____    ______ ____

>  <TORSDO>
F 4

$$$$
=
 OpenBabel11042417293D

 39 43  0  0  1  0  0  0  0  0999 V2000
  189.7990  173.2670  145.4280 C   0  0  0  0  0  3  0  0  0  0  0  0
  185.9610  177.9000  143.8310 S   0  0  0  0  0  0  0  0  0  0  0  0
  188.0280  176.6550  142.7820 C   0  0  2  0  0  3  0  0  0  0  0  0
  187.5510  177.1060  143.9130 C   0  0  2  0  0  3  0  0  0  0  0  0
  188.9980  175.4750  144.5200 C   0  0  0  0  0  0  0  0  0  0  0  0
  189.7480  172.6400  144.2960 C   0  0  0  0  0  0  0  0  0  0  0  0
  189.4830  173.2350  142.0040 C   0  0  2  0  0  3  0  0  0  0  0  0
  190.0050  174.7510  145.4070 C   0  0  1  0  0  3  0  0  0  0  0  0
  189.6290  172.2060  143.0790 C   0  0  0  0  0  3  0  0  0  0  0  0
  188.1410  176.3640  145.0120 C   0  0  0  0  0  0  0  0  0  0  0  0
  190.8700  174.9160  147.6360 O   0  0  0  0  0  0  0  0  0  0  0  0
  188.0640  176.6780  146.4510 C   0  0  0  0  0  0  0  0  0  0  0  0
  185.7810  177.1670  142.1610 C   0  0  2  0  0  3  0  0  0  0  0  0
  187.1750  176.9040  141.5940 C   0  0  0  0  0  2  0  0  0  0  0  0
  189.9770  175.2730  146.8230 C   0  0  0  0  0  0  0  0  0  0  0  0
  188.4020  174.2590  142.3620 C   0  0  0  0  0  2  0  0  0  0  0  0
  188.9390  176.1610  147.2650 N   0  0  0  0  0  0  0  0  0  0  0  0
  188.9920  175.5240  143.0010 C   0  0  1  0  0  3  0  0  0  0  0  0
  192.2890  174.3650  138.8190 O   0  0  0  0  0  1  0  0  0  0  0  0
  190.7020  173.8740  137.2500 O   0  0  0  0  0  0  0  0  0  0  0  0
  191.0640  170.9470  141.0220 C   0  0  0  0  0  2  0  0  0  0  0  0
  188.1950  172.9930  140.0100 O   0  0  0  0  0  0  0  0  0  0  0  0
  192.3270  171.7830  140.8360 C   0  0  0  0  0  2  0  0  0  0  0  0
  194.2290  172.2510  139.2530 C   0  0  0  0  0  1  0  0  0  0  0  0
  190.9440  171.0950  137.9380 C   0  0  0  0  0  2  0  0  0  0  0  0
  189.9740  171.4890  140.2120 N   0  0  0  0  0  0  0  0  0  0  0  0
  192.8620  171.6070  139.4200 C   0  0  2  0  0  3  0  0  0  0  0  0
  189.7310  170.9490  138.8710 C   0  0  0  0  0  2  0  0  0  0  0  0
  189.1730  172.5800  140.6930 C   0  0  0  0  0  0  0  0  0  0  0  0
  191.8950  172.0860  138.4300 N   0  0  0  0  0  0  0  0  0  0  0  0
  191.6530  173.4830  138.1850 C   0  0  0  0  0  0  0  0  0  0  0  0
  184.9930  178.0530  141.2570 C   0  0  0  0  0  0  0  0  0  0  0  0
  185.4680  178.3920  140.1390 O   0  0  0  0  0  0  0  0  0  0  0  0
  182.5640  178.2600  141.0670 C   0  0  0  0  0  0  0  0  0  0  0  0
  183.6900  178.4830  141.6780 N   0  0  0  0  0  0  0  0  0  0  0  0
  181.3560  178.7440  141.6390 N   0  0  0  0  0  1  0  0  0  0  0  0
  182.5100  177.5410  139.8350 N   0  0  0  0  0  1  0  0  0  0  0  0
  187.0350  177.6000  146.9550 C   0  0  0  0  0  3  0  0  0  0  0  0
  185.9420  177.1760  147.5770 C   0  0  0  0  0  2  0  0  0  0  0  0
  3 14  1  6  0  0  0
  3 18  1  0  0  0  0
  3  4  1  0  0  0  0
  4  2  1  6  0  0  0
  4 10  1  0  0  0  0
  5 10  2  0  0  0  0
  5  8  1  0  0  0  0
  6  1  2  0  0  0  0
  7 29  1  6  0  0  0
  7 16  1  0  0  0  0
  7  9  1  0  0  0  0
  8  1  1  1  0  0  0
  8 15  1  0  0  0  0
  9  6  2  0  0  0  0
 10 12  1  0  0  0  0
 12 38  1  0  0  0  0
 12 17  2  0  0  0  0
 13 32  1  6  0  0  0
 13  2  1  0  0  0  0
 14 13  1  0  0  0  0
 15 17  1  0  0  0  0
 15 11  2  0  0  0  0
 18 16  1  6  0  0  0
 18  5  1  0  0  0  0
 20 31  2  0  0  0  0
 22 29  2  0  0  0  0
 23 21  1  0  0  0  0
 25 30  1  0  0  0  0
 25 28  1  0  0  0  0
 26 29  1  0  0  0  0
 26 21  1  0  0  0  0
 27 24  1  1  0  0  0
 27 23  1  0  0  0  0
 28 26  1  0  0  0  0
 30 27  1  0  0  0  0
 31 30  1  0  0  0  0
 31 19  1  0  0  0  0
 32 35  1  0  0  0  0
 33 32  2  0  0  0  0
 34 36  1  0  0  0  0
 34 35  2  0  0  0  0
 37 34  1  0  0  0  0
 38 39  2  0  0  0  0
M  END
>  <MODEL>
5

>  <REMARK>
 VINA RESULT:      -7.4      3.282      5.550
  Name = 
  4 active torsions:
  status: ('A' for Active; 'I' for Inactive)
    1  A    between atoms: N_9  and  C_25
    2  A    between atoms: C_15  and  C_35
    3  A    between atoms: C_24  and  C_31
    4  A    between atoms: C_25  and  C_27
                            x       y       z     vdW  Elec       q    Type
                         _______ _______ _______ _____ _____    ______ ____

>  <TORSDO>
F 4

$$$$
=
 OpenBabel11042417293D

 39 43  0  0  1  0  0  0  0  0999 V2000
  187.6290  176.4160  146.6220 C   0  0  0  0  0  3  0  0  0  0  0  0
  186.9840  175.9740  140.4460 S   0  0  0  0  0  0  0  0  0  0  0  0
  188.9590  176.1790  142.1730 C   0  0  2  0  0  3  0  0  0  0  0  0
  187.7460  176.6010  141.9270 C   0  0  2  0  0  3  0  0  0  0  0  0
  187.9840  176.8390  144.1640 C   0  0  0  0  0  0  0  0  0  0  0  0
  188.5660  175.5290  146.7330 C   0  0  0  0  0  0  0  0  0  0  0  0
  190.3800  174.7590  145.3950 C   0  0  2  0  0  3  0  0  0  0  0  0
  187.7550  177.4490  145.5430 C   0  0  1  0  0  3  0  0  0  0  0  0
  189.5410  174.6790  146.6290 C   0  0  0  0  0  3  0  0  0  0  0  0
  187.1170  177.0050  143.1710 C   0  0  0  0  0  0  0  0  0  0  0  0
  186.3090  179.0610  146.5700 O   0  0  0  0  0  0  0  0  0  0  0  0
  185.8510  177.7420  143.3390 C   0  0  0  0  0  0  0  0  0  0  0  0
  188.3120  174.7120  140.4040 C   0  0  2  0  0  3  0  0  0  0  0  0
  189.5240  175.2590  141.1550 C   0  0  0  0  0  2  0  0  0  0  0  0
  186.5350  178.3360  145.5650 C   0  0  0  0  0  0  0  0  0  0  0  0
  189.5110  174.8000  144.1340 C   0  0  0  0  0  2  0  0  0  0  0  0
  185.6150  178.3580  144.4620 N   0  0  0  0  0  0  0  0  0  0  0  0
  189.2760  176.2330  143.6390 C   0  0  1  0  0  3  0  0  0  0  0  0
  192.9850  174.8680  141.8590 O   0  0  0  0  0  0  0  0  0  0  0  0
  193.2680  172.6050  142.0000 O   0  0  0  0  0  1  0  0  0  0  0  0
  193.2270  175.0890  146.0940 C   0  0  0  0  0  2  0  0  0  0  0  0
  190.9070  172.4630  145.0140 O   0  0  0  0  0  0  0  0  0  0  0  0
  193.5110  175.9870  144.8930 C   0  0  0  0  0  2  0  0  0  0  0  0
  195.1460  176.4130  143.0260 C   0  0  0  0  0  1  0  0  0  0  0  0
  194.7590  172.9860  144.4260 C   0  0  0  0  0  2  0  0  0  0  0  0
  192.7260  173.7900  145.6470 N   0  0  0  0  0  0  0  0  0  0  0  0
  194.6950  175.4420  144.1050 C   0  0  2  0  0  3  0  0  0  0  0  0
  193.6620  172.6780  145.4600 C   0  0  0  0  0  2  0  0  0  0  0  0
  191.3350  173.6060  145.3370 C   0  0  0  0  0  0  0  0  0  0  0  0
  194.4010  174.1110  143.5690 N   0  0  0  0  0  0  0  0  0  0  0  0
  193.5290  173.8960  142.4450 C   0  0  0  0  0  0  0  0  0  0  0  0
  188.6700  174.3420  139.0040 C   0  0  0  0  0  0  0  0  0  0  0  0
  187.8440  174.5370  138.0720 O   0  0  0  0  0  0  0  0  0  0  0  0
  190.2830  172.5270  138.7150 C   0  0  0  0  0  0  0  0  0  0  0  0
  189.9700  173.7890  138.7500 N   0  0  0  0  0  0  0  0  0  0  0  0
  191.6240  172.1530  138.4260 N   0  0  0  0  0  1  0  0  0  0  0  0
  189.3150  171.5080  138.9610 N   0  0  0  0  0  1  0  0  0  0  0  0
  184.8840  177.8170  142.2340 C   0  0  0  0  0  3  0  0  0  0  0  0
  183.6540  178.2910  142.3940 C   0  0  0  0  0  2  0  0  0  0  0  0
  1  6  2  0  0  0  0
  3 14  1  1  0  0  0
  3 18  1  0  0  0  0
  4  2  1  1  0  0  0
  4  3  1  0  0  0  0
  4 10  1  0  0  0  0
  5  8  1  0  0  0  0
  7 29  1  6  0  0  0
  7  9  1  0  0  0  0
  8 15  1  0  0  0  0
  8  1  1  1  0  0  0
  9  6  2  0  0  0  0
 10 12  1  0  0  0  0
 10  5  2  0  0  0  0
 12 17  2  0  0  0  0
 13 32  1  6  0  0  0
 13  2  1  0  0  0  0
 13 14  1  0  0  0  0
 15 11  2  0  0  0  0
 16  7  1  0  0  0  0
 17 15  1  0  0  0  0
 18 16  1  1  0  0  0
 18  5  1  0  0  0  0
 19 31  2  0  0  0  0
 20 31  1  0  0  0  0
 22 29  2  0  0  0  0
 23 21  1  0  0  0  0
 25 28  1  0  0  0  0
 26 21  1  0  0  0  0
 27 24  1  6  0  0  0
 27 23  1  0  0  0  0
 28 26  1  0  0  0  0
 29 26  1  0  0  0  0
 30 27  1  0  0  0  0
 30 25  1  0  0  0  0
 31 30  1  0  0  0  0
 33 32  2  0  0  0  0
 34 35  2  0  0  0  0
 34 37  1  0  0  0  0
 35 32  1  0  0  0  0
 36 34  1  0  0  0  0
 38 39  2  0  0  0  0
 38 12  1  0  0  0  0
M  END
>  <MODEL>
6

>  <REMARK>
 VINA RESULT:      -7.4      1.826      2.497
  Name = 
  4 active torsions:
  status: ('A' for Active; 'I' for Inactive)
    1  A    between atoms: N_9  and  C_25
    2  A    between atoms: C_15  and  C_35
    3  A    between atoms: C_24  and  C_31
    4  A    between atoms: C_25  and  C_27
                            x       y       z     vdW  Elec       q    Type
                         _______ _______ _______ _____ _____    ______ ____

>  <TORSDO>
F 4

$$$$
=
 OpenBabel11042417293D

 39 43  0  0  1  0  0  0  0  0999 V2000
  194.1180  172.5580  144.9000 C   0  0  0  0  0  3  0  0  0  0  0  0
  189.4910  176.7130  145.1740 S   0  0  0  0  0  0  0  0  0  0  0  0
  190.7760  175.3730  143.3100 C   0  0  2  0  0  3  0  0  0  0  0  0
  190.9480  175.9980  144.4450 C   0  0  2  0  0  3  0  0  0  0  0  0
  192.6800  174.5470  144.3320 C   0  0  0  0  0  0  0  0  0  0  0  0
  193.5310  171.7410  144.0830 C   0  0  0  0  0  0  0  0  0  0  0  0
  191.9770  171.9190  142.2860 C   0  0  2  0  0  3  0  0  0  0  0  0
  194.0910  174.0220  144.5800 C   0  0  1  0  0  3  0  0  0  0  0  0
  192.8170  171.0990  143.2110 C   0  0  0  0  0  3  0  0  0  0  0  0
  192.1320  175.4790  145.1040 C   0  0  0  0  0  0  0  0  0  0  0  0
  196.0110  174.6010  145.8920 O   0  0  0  0  0  0  0  0  0  0  0  0
  192.8210  176.0360  146.2830 C   0  0  0  0  0  0  0  0  0  0  0  0
  188.5150  175.6950  144.0050 C   0  0  2  0  0  3  0  0  0  0  0  0
  189.3870  175.3830  142.7890 C   0  0  0  0  0  2  0  0  0  0  0  0
  194.7810  174.7810  145.6860 C   0  0  0  0  0  0  0  0  0  0  0  0
  191.1530  172.9550  143.0580 C   0  0  0  0  0  2  0  0  0  0  0  0
  194.0560  175.6980  146.5210 N   0  0  0  0  0  0  0  0  0  0  0  0
  191.8330  174.3300  143.0880 C   0  0  1  0  0  3  0  0  0  0  0  0
  189.4330  174.1660  139.4970 O   0  0  0  0  0  1  0  0  0  0  0  0
  187.9260  172.4480  139.4910 O   0  0  0  0  0  0  0  0  0  0  0  0
  192.5780  171.3100  139.4630 C   0  0  0  0  0  2  0  0  0  0  0  0
  190.0660  170.5150  142.0130 O   0  0  0  0  0  0  0  0  0  0  0  0
  192.3470  172.7500  139.0100 C   0  0  0  0  0  2  0  0  0  0  0  0
  191.2520  174.1620  137.2350 C   0  0  0  0  0  1  0  0  0  0  0  0
  189.8470  170.8250  138.1010 C   0  0  0  0  0  2  0  0  0  0  0  0
  191.3690  170.7770  140.0890 N   0  0  0  0  0  0  0  0  0  0  0  0
  191.3530  172.7780  137.8560 C   0  0  2  0  0  3  0  0  0  0  0  0
  190.4110  170.0160  139.2810 C   0  0  0  0  0  2  0  0  0  0  0  0
  191.0810  171.0360  141.4720 C   0  0  0  0  0  0  0  0  0  0  0  0
  190.0490  172.2590  138.2760 N   0  0  0  0  0  0  0  0  0  0  0  0
  189.1390  173.0060  139.1040 C   0  0  0  0  0  0  0  0  0  0  0  0
  187.2560  176.3830  143.5990 C   0  0  0  0  0  0  0  0  0  0  0  0
  186.4860  175.8410  142.7600 O   0  0  0  0  0  0  0  0  0  0  0  0
  186.1160  177.8570  145.1810 C   0  0  0  0  0  0  0  0  0  0  0  0
  186.9400  177.6490  144.1970 N   0  0  0  0  0  0  0  0  0  0  0  0
  185.9350  179.1820  145.6660 N   0  0  0  0  0  1  0  0  0  0  0  0
  185.3870  176.7910  145.7870 N   0  0  0  0  0  1  0  0  0  0  0  0
  192.1340  176.9980  147.1580 C   0  0  0  0  0  3  0  0  0  0  0  0
  191.5660  176.6390  148.3040 C   0  0  0  0  0  2  0  0  0  0  0  0
  3 14  1  1  0  0  0
  3  4  1  0  0  0  0
  4 10  1  1  0  0  0
  4  2  1  0  0  0  0
  5  8  1  0  0  0  0
  5 10  2  0  0  0  0
  6  1  2  0  0  0  0
  7 29  1  1  0  0  0
  7 16  1  0  0  0  0
  7  9  1  0  0  0  0
  8  1  1  1  0  0  0
  8 15  1  0  0  0  0
  9  6  2  0  0  0  0
 10 12  1  0  0  0  0
 12 17  2  0  0  0  0
 12 38  1  0  0  0  0
 13 32  1  6  0  0  0
 13  2  1  0  0  0  0
 14 13  1  0  0  0  0
 15 11  2  0  0  0  0
 15 17  1  0  0  0  0
 18 16  1  1  0  0  0
 18  3  1  0  0  0  0
 18  5  1  0  0  0  0
 21 26  1  0  0  0  0
 23 21  1  0  0  0  0
 25 30  1  0  0  0  0
 25 28  1  0  0  0  0
 26 29  1  0  0  0  0
 27 24  1  1  0  0  0
 27 30  1  0  0  0  0
 27 23  1  0  0  0  0
 28 26  1  0  0  0  0
 29 22  2  0  0  0  0
 30 31  1  0  0  0  0
 31 20  2  0  0  0  0
 31 19  1  0  0  0  0
 32 35  1  0  0  0  0
 33 32  2  0  0  0  0
 34 36  1  0  0  0  0
 34 37  1  0  0  0  0
 35 34  2  0  0  0  0
 38 39  2  0  0  0  0
M  END
>  <MODEL>
7

>  <REMARK>
 VINA RESULT:      -7.1      2.689      6.061
  Name = 
  4 active torsions:
  status: ('A' for Active; 'I' for Inactive)
    1  A    between atoms: N_9  and  C_25
    2  A    between atoms: C_15  and  C_35
    3  A    between atoms: C_24  and  C_31
    4  A    between atoms: C_25  and  C_27
                            x       y       z     vdW  Elec       q    Type
                         _______ _______ _______ _____ _____    ______ ____

>  <TORSDO>
F 4

$$$$
=
 OpenBabel11042417293D

 39 43  0  0  1  0  0  0  0  0999 V2000
  186.7380  177.6460  144.9430 C   0  0  0  0  0  3  0  0  0  0  0  0
  192.6590  176.4140  146.4180 S   0  0  0  0  0  0  0  0  0  0  0  0
  190.6010  175.1050  145.4320 C   0  0  2  0  0  3  0  0  0  0  0  0
  190.9290  176.0150  146.3110 C   0  0  2  0  0  3  0  0  0  0  0  0
  188.7540  176.4360  145.8450 C   0  0  0  0  0  0  0  0  0  0  0  0
  186.7560  177.0710  143.7820 C   0  0  0  0  0  0  0  0  0  0  0  0
  187.8700  175.2110  142.7950 C   0  0  2  0  0  3  0  0  0  0  0  0
  187.3290  176.9110  146.1070 C   0  0  1  0  0  3  0  0  0  0  0  0
  186.9490  176.3840  142.6990 C   0  0  0  0  0  3  0  0  0  0  0  0
  189.7820  176.8670  146.5690 C   0  0  0  0  0  0  0  0  0  0  0  0
  186.1230  178.1080  147.7980 O   0  0  0  0  0  0  0  0  0  0  0  0
  189.6310  177.8700  147.6400 C   0  0  0  0  0  0  0  0  0  0  0  0
  192.8680  175.5380  144.8220 C   0  0  2  0  0  3  0  0  0  0  0  0
  191.7370  174.5220  144.6750 C   0  0  0  0  0  2  0  0  0  0  0  0
  187.2500  177.7850  147.3350 C   0  0  0  0  0  0  0  0  0  0  0  0
  189.1860  175.5950  143.4790 C   0  0  0  0  0  2  0  0  0  0  0  0
  188.4390  178.2690  147.9780 N   0  0  0  0  0  0  0  0  0  0  0  0
  189.1790  175.2620  144.9770 C   0  0  1  0  0  3  0  0  0  0  0  0
  191.9970  173.7890  142.3040 O   0  0  0  0  0  1  0  0  0  0  0  0
  191.8200  174.0640  140.0420 O   0  0  0  0  0  0  0  0  0  0  0  0
  188.0200  172.2980  142.3590 C   0  0  0  0  0  2  0  0  0  0  0  0
  188.2600  175.4190  140.4500 O   0  0  0  0  0  0  0  0  0  0  0  0
  189.2990  172.1500  143.1800 C   0  0  0  0  0  2  0  0  0  0  0  0
  191.5710  171.0650  143.2080 C   0  0  0  0  0  1  0  0  0  0  0  0
  189.9370  171.8960  139.9690 C   0  0  0  0  0  2  0  0  0  0  0  0
  188.2380  173.2200  141.2460 N   0  0  0  0  0  0  0  0  0  0  0  0
  190.3580  171.4200  142.3640 C   0  0  2  0  0  3  0  0  0  0  0  0
  188.6210  172.6920  139.9330 C   0  0  0  0  0  2  0  0  0  0  0  0
  188.1330  174.6400  141.4360 C   0  0  0  0  0  0  0  0  0  0  0  0
  190.7170  172.1850  141.1670 N   0  0  0  0  0  0  0  0  0  0  0  0
  191.5360  173.3670  141.2100 C   0  0  0  0  0  0  0  0  0  0  0  0
  194.2000  174.8740  144.7330 C   0  0  0  0  0  0  0  0  0  0  0  0
  194.2940  173.6280  144.9070 O   0  0  0  0  0  0  0  0  0  0  0  0
  195.7570  176.0280  143.2430 C   0  0  0  0  0  0  0  0  0  0  0  0
  195.3500  175.6750  144.4270 N   0  0  0  0  0  0  0  0  0  0  0  0
  196.9140  176.8470  143.1220 N   0  0  0  0  0  1  0  0  0  0  0  0
  195.0730  175.6140  142.0610 N   0  0  0  0  0  1  0  0  0  0  0  0
  190.8140  178.3820  148.3490 C   0  0  0  0  0  3  0  0  0  0  0  0
  191.1910  177.9170  149.5330 C   0  0  0  0  0  2  0  0  0  0  0  0
  3 14  1  6  0  0  0
  3  4  1  0  0  0  0
  4  2  1  6  0  0  0
  4 10  1  0  0  0  0
  5  8  1  0  0  0  0
  5 10  2  0  0  0  0
  6  1  2  0  0  0  0
  7 29  1  6  0  0  0
  7 16  1  0  0  0  0
  8  1  1  6  0  0  0
  8 15  1  0  0  0  0
  9  7  1  0  0  0  0
  9  6  2  0  0  0  0
 10 12  1  0  0  0  0
 12 17  2  0  0  0  0
 12 38  1  0  0  0  0
 13 32  1  1  0  0  0
 13  2  1  0  0  0  0
 14 13  1  0  0  0  0
 15 11  2  0  0  0  0
 15 17  1  0  0  0  0
 18 16  1  6  0  0  0
 18  3  1  0  0  0  0
 18  5  1  0  0  0  0
 20 31  2  0  0  0  0
 21 23  1  0  0  0  0
 22 29  2  0  0  0  0
 25 30  1  0  0  0  0
 26 29  1  0  0  0  0
 26 21  1  0  0  0  0
 27 23  1  0  0  0  0
 27 24  1  1  0  0  0
 28 25  1  0  0  0  0
 28 26  1  0  0  0  0
 30 31  1  0  0  0  0
 30 27  1  0  0  0  0
 31 19  1  0  0  0  0
 32 33  2  0  0  0  0
 34 35  2  0  0  0  0
 35 32  1  0  0  0  0
 36 34  1  0  0  0  0
 37 34  1  0  0  0  0
 38 39  2  0  0  0  0
M  END
>  <MODEL>
8

>  <REMARK>
 VINA RESULT:      -6.9      2.084      5.922
  Name = 
  4 active torsions:
  status: ('A' for Active; 'I' for Inactive)
    1  A    between atoms: N_9  and  C_25
    2  A    between atoms: C_15  and  C_35
    3  A    between atoms: C_24  and  C_31
    4  A    between atoms: C_25  and  C_27
                            x       y       z     vdW  Elec       q    Type
                         _______ _______ _______ _____ _____    ______ ____

>  <TORSDO>
F 4

$$$$
=
 OpenBabel11042417293D

 39 43  0  0  1  0  0  0  0  0999 V2000
  193.5450  173.8390  137.9820 C   0  0  0  0  0  3  0  0  0  0  0  0
  188.4370  174.7840  141.4130 S   0  0  0  0  0  0  0  0  0  0  0  0
  190.8140  173.7020  141.7420 C   0  0  2  0  0  3  0  0  0  0  0  0
  189.8420  173.8320  140.8770 C   0  0  2  0  0  3  0  0  0  0  0  0
  191.6730  173.4170  139.6140 C   0  0  0  0  0  0  0  0  0  0  0  0
  194.3940  174.2520  138.8700 C   0  0  0  0  0  0  0  0  0  0  0  0
  194.5370  174.2600  141.2480 C   0  0  2  0  0  3  0  0  0  0  0  0
  192.4660  172.8960  138.4190 C   0  0  1  0  0  3  0  0  0  0  0  0
  195.0810  174.6260  139.9050 C   0  0  0  0  0  3  0  0  0  0  0  0
  190.3710  173.6700  139.5350 C   0  0  0  0  0  0  0  0  0  0  0  0
  192.0350  171.9840  136.2450 O   0  0  0  0  0  0  0  0  0  0  0  0
  189.6080  173.5160  138.2820 C   0  0  0  0  0  0  0  0  0  0  0  0
  189.4830  175.3830  142.7930 C   0  0  2  0  0  3  0  0  0  0  0  0
  190.5770  174.3500  143.0560 C   0  0  0  0  0  2  0  0  0  0  0  0
  191.5690  172.5940  137.2440 C   0  0  0  0  0  0  0  0  0  0  0  0
  193.0580  174.6400  141.3680 C   0  0  0  0  0  2  0  0  0  0  0  0
  190.1930  173.0050  137.2370 N   0  0  0  0  0  0  0  0  0  0  0  0
  192.1300  173.4560  141.0630 C   0  0  1  0  0  3  0  0  0  0  0  0
  193.0080  173.3850  145.2720 O   0  0  0  0  0  0  0  0  0  0  0  0
  193.9660  175.3080  146.0510 O   0  0  0  0  0  1  0  0  0  0  0  0
  196.4550  172.7250  142.8790 C   0  0  0  0  0  2  0  0  0  0  0  0
  195.2130  176.1570  142.5290 O   0  0  0  0  0  0  0  0  0  0  0  0
  195.3610  171.8950  143.5470 C   0  0  0  0  0  2  0  0  0  0  0  0
  194.5730  170.9920  145.7620 C   0  0  0  0  0  1  0  0  0  0  0  0
  196.5550  174.1390  145.6250 C   0  0  0  0  0  2  0  0  0  0  0  0
  196.2410  174.1470  143.1410 N   0  0  0  0  0  0  0  0  0  0  0  0
  195.5060  171.9660  145.0620 C   0  0  2  0  0  3  0  0  0  0  0  0
  196.9160  174.7840  144.2760 C   0  0  0  0  0  2  0  0  0  0  0  0
  195.3370  174.9160  142.3320 C   0  0  0  0  0  0  0  0  0  0  0  0
  195.3380  173.3400  145.5400 N   0  0  0  0  0  0  0  0  0  0  0  0
  194.0570  173.9920  145.6130 C   0  0  0  0  0  0  0  0  0  0  0  0
  188.6760  175.6330  144.0220 C   0  0  0  0  0  0  0  0  0  0  0  0
  187.5630  176.2220  143.9340 O   0  0  0  0  0  0  0  0  0  0  0  0
  189.7820  175.8890  146.1870 C   0  0  0  0  0  0  0  0  0  0  0  0
  189.1810  175.1730  145.2840 N   0  0  0  0  0  0  0  0  0  0  0  0
  190.2020  175.2710  147.3970 N   0  0  0  0  0  1  0  0  0  0  0  0
  190.0310  177.2810  145.9960 N   0  0  0  0  0  1  0  0  0  0  0  0
  188.1890  173.8990  138.2260 C   0  0  0  0  0  3  0  0  0  0  0  0
  187.7570  174.9280  137.5080 C   0  0  0  0  0  2  0  0  0  0  0  0
  1  6  2  0  0  0  0
  2 13  1  0  0  0  0
  3 14  1  6  0  0  0
  4 10  1  6  0  0  0
  4  2  1  0  0  0  0
  4  3  1  0  0  0  0
  5 18  1  0  0  0  0
  6  9  2  0  0  0  0
  7 16  1  0  0  0  0
  7 29  1  1  0  0  0
  8  1  1  6  0  0  0
  8  5  1  0  0  0  0
  9  7  1  0  0  0  0
 10  5  2  0  0  0  0
 11 15  2  0  0  0  0
 12 10  1  0  0  0  0
 13 14  1  0  0  0  0
 13 32  1  1  0  0  0
 15  8  1  0  0  0  0
 17 15  1  0  0  0  0
 17 12  2  0  0  0  0
 18 16  1  6  0  0  0
 18  3  1  0  0  0  0
 19 31  2  0  0  0  0
 21 26  1  0  0  0  0
 21 23  1  0  0  0  0
 23 27  1  0  0  0  0
 26 28  1  0  0  0  0
 27 30  1  0  0  0  0
 27 24  1  1  0  0  0
 28 25  1  0  0  0  0
 29 22  2  0  0  0  0
 29 26  1  0  0  0  0
 30 31  1  0  0  0  0
 30 25  1  0  0  0  0
 31 20  1  0  0  0  0
 32 35  1  0  0  0  0
 33 32  2  0  0  0  0
 34 36  1  0  0  0  0
 35 34  2  0  0  0  0
 37 34  1  0  0  0  0
 38 12  1  0  0  0  0
 39 38  2  0  0  0  0
M  END
>  <MODEL>
9

>  <REMARK>
 VINA RESULT:      -6.6      2.270      6.545
  Name = 
  4 active torsions:
  status: ('A' for Active; 'I' for Inactive)
    1  A    between atoms: N_9  and  C_25
    2  A    between atoms: C_15  and  C_35
    3  A    between atoms: C_24  and  C_31
    4  A    between atoms: C_25  and  C_27
                            x       y       z     vdW  Elec       q    Type
                         _______ _______ _______ _____ _____    ______ ____

>  <TORSDO>
F 4

$$$$
