=
 OpenBabel11042417033D

 44 46  0  0  1  0  0  0  0  0999 V2000
  193.4210  176.2420  143.9650 C   0  0  0  0  0  0  0  0  0  0  0  0
  194.1940  176.0780  145.1270 C   0  0  0  0  0  0  0  0  0  0  0  0
  191.3330  175.8930  145.3050 N   0  0  0  0  0  0  0  0  0  0  0  0
  196.1630  176.1340  143.8440 N   0  0  0  0  0  0  0  0  0  0  0  0
  196.1740  176.4290  141.3950 C   0  0  0  0  0  1  0  0  0  0  0  0
  193.5490  175.8730  146.4590 C   0  0  0  0  0  2  0  0  0  0  0  0
  192.1140  176.4000  146.4490 C   0  0  2  0  0  3  0  0  0  0  0  0
  191.4200  176.1110  147.7710 C   0  0  0  0  0  1  0  0  0  0  0  0
  191.9130  176.3210  144.0210 C   0  0  1  0  0  3  0  0  0  0  0  0
  194.0720  176.3580  142.7370 C   0  0  0  0  0  3  0  0  0  0  0  0
  195.4620  176.3030  142.6930 C   0  0  0  0  0  0  0  0  0  0  0  0
  195.5480  176.0190  145.0230 N   0  0  0  0  0  0  0  0  0  0  0  0
  191.4150  177.7150  143.6550 C   0  0  0  0  0  2  0  0  0  0  0  0
  189.8950  177.7570  143.7120 C   0  0  0  0  0  2  0  0  0  0  0  0
  188.1380  178.3410  141.9680 C   0  0  0  0  0  2  0  0  0  0  0  0
  187.8780  175.7400  143.1410 C   0  0  0  0  0  2  0  0  0  0  0  0
  186.8450  177.9030  142.5870 C   0  0  0  0  0  0  0  0  0  0  0  0
  185.9480  178.8040  142.8640 N   0  0  0  0  0  0  0  0  0  0  0  0
  186.5880  176.4310  142.7170 C   0  0  0  0  0  2  0  0  0  0  0  0
  188.9210  176.0280  142.2350 O   0  0  0  0  0  0  0  0  0  0  0  0
  189.2830  177.3950  142.3540 C   0  0  2  0  0  3  0  0  0  0  0  0
  184.6390  178.5850  143.4110 C   0  0  0  0  0  0  0  0  0  0  0  0
  183.7040  178.0970  142.7210 O   0  0  0  0  0  0  0  0  0  0  0  0
  184.3910  178.9120  144.8450 C   0  0  0  0  0  2  0  0  0  0  0  0
  185.6560  179.2220  146.9050 N   0  0  0  0  0  1  0  0  0  0  0  0
  185.5190  178.3900  145.7210 C   0  0  1  0  0  3  0  0  0  0  0  0
  185.2070  176.9690  146.1410 C   0  0  0  0  0  1  0  0  0  0  0  0
  191.2380  174.4320  145.3150 C   0  0  0  0  0  2  0  0  0  0  0  0
  190.8460  173.9870  144.0500 O   0  0  0  0  0  0  0  0  0  0  0  0
  191.6130  172.8450  143.8040 C   0  0  1  0  0  3  0  0  0  0  0  0
  192.6810  172.6870  144.8790 C   0  0  0  0  0  2  0  0  0  0  0  0
  193.8210  171.8130  144.3700 C   0  0  0  0  0  2  0  0  0  0  0  0
  195.2050  172.3520  144.7340 C   0  0  1  0  0  3  0  0  0  0  0  0
  195.9410  171.4340  145.6950 C   0  0  0  0  0  1  0  0  0  0  0  0
  196.0180  172.6180  143.5440 C   0  0  0  0  0  0  0  0  0  0  0  0
  196.6560  172.8290  142.6000 N   0  0  0  0  0  0  0  0  0  0  0  0
  190.7110  171.6160  143.7650 C   0  0  0  0  0  2  0  0  0  0  0  0
  189.5170  171.8810  142.9700 N   0  0  0  0  0  2  0  0  0  0  0  0
  189.8880  171.7770  141.5660 C   0  0  0  0  0  2  0  0  0  0  0  0
  189.1120  172.7520  140.7470 C   0  0  0  0  0  3  0  0  0  0  0  0
  189.4690  173.0280  139.5330 N   0  0  0  0  0  0  0  0  0  0  0  0
  188.8910  173.9240  137.2500 C   0  0  0  0  0  1  0  0  0  0  0  0
  188.7520  173.9680  138.7290 C   0  0  0  0  0  0  0  0  0  0  0  0
  188.0060  174.8380  139.2550 O   0  0  0  0  0  0  0  0  0  0  0  0
  1  9  1  0  0  0  0
  1  2  1  0  0  0  0
  2  6  1  0  0  0  0
  3 28  1  0  0  0  0
  3  7  1  0  0  0  0
  4 12  1  0  0  0  0
  5 11  1  0  0  0  0
  7  6  1  0  0  0  0
  7  8  1  1  0  0  0
  9 13  1  1  0  0  0
  9  3  1  0  0  0  0
 10  1  2  0  0  0  0
 11 10  1  0  0  0  0
 11  4  2  0  0  0  0
 12  2  2  0  0  0  0
 13 14  1  0  0  0  0
 15 21  1  0  0  0  0
 15 17  1  0  0  0  0
 17 19  1  0  0  0  0
 17 18  2  0  0  0  0
 18 22  1  0  0  0  0
 19 16  1  0  0  0  0
 20 21  1  0  0  0  0
 20 16  1  0  0  0  0
 21 14  1  1  0  0  0
 22 24  1  0  0  0  0
 23 22  2  0  0  0  0
 24 26  1  0  0  0  0
 26 27  1  1  0  0  0
 26 25  1  0  0  0  0
 29 28  1  0  0  0  0
 30 37  1  1  0  0  0
 30 29  1  0  0  0  0
 30 31  1  0  0  0  0
 32 33  1  0  0  0  0
 32 31  1  0  0  0  0
 33 34  1  1  0  0  0
 35 33  1  0  0  0  0
 36 35  3  0  0  0  0
 38 37  1  0  0  0  0
 39 38  1  0  0  0  0
 40 39  1  0  0  0  0
 41 40  2  0  0  0  0
 42 43  1  0  0  0  0
 43 44  2  0  0  0  0
 43 41  1  0  0  0  0
M  END
>  <MODEL>
1

>  <REMARK>
 VINA RESULT:      -6.5      0.000      0.000
  Name = 
  18 active torsions:
  status: ('A' for Active; 'I' for Inactive)
    1  A    between atoms: C_1  and  C_4
    2  A    between atoms: C_2  and  C_44
    3  A    between atoms: C_4  and  C_18
    4  A    between atoms: C_8  and  C_27
    5  A    between atoms: C_8  and  N_28
    6  A    between atoms: N_9  and  C_42
    7  A    between atoms: C_11  and  C_29
    8  A    between atoms: C_11  and  C_43
    9  A    between atoms: C_12  and  C_18
   10  A    between atoms: C_12  and  C_19
   11  A    between atoms: C_17  and  N_22
   12  A    between atoms: C_19  and  C_25
   13  A    between atoms: C_19  and  O_36
   14  A    between atoms: C_24  and  C_29
   15  A    between atoms: C_25  and  N_30
   16  A    between atoms: C_27  and  C_32
   17  A    between atoms: N_30  and  C_44
   18  A    between atoms: O_36  and  C_42
                            x       y       z     vdW  Elec       q    Type
                         _______ _______ _______ _____ _____    ______ ____

>  <TORSDO>
F 18

$$$$
=
 OpenBabel11042417033D

 44 46  0  0  1  0  0  0  0  0999 V2000
  193.0660  175.9460  144.2290 C   0  0  0  0  0  0  0  0  0  0  0  0
  193.6200  175.9760  145.5190 C   0  0  0  0  0  0  0  0  0  0  0  0
  190.7640  175.9310  145.2160 N   0  0  0  0  0  0  0  0  0  0  0  0
  195.7760  175.7180  144.6190 N   0  0  0  0  0  0  0  0  0  0  0  0
  196.2190  175.5460  142.1980 C   0  0  0  0  0  1  0  0  0  0  0  0
  192.7470  176.0480  146.7300 C   0  0  0  0  0  2  0  0  0  0  0  0
  191.3740  176.6150  146.3710 C   0  0  2  0  0  3  0  0  0  0  0  0
  190.4500  176.6050  147.5790 C   0  0  0  0  0  1  0  0  0  0  0  0
  191.5790  176.0890  144.0000 C   0  0  1  0  0  3  0  0  0  0  0  0
  193.9210  175.8050  143.1350 C   0  0  0  0  0  3  0  0  0  0  0  0
  195.2920  175.6930  143.3500 C   0  0  0  0  0  0  0  0  0  0  0  0
  194.9640  175.8480  145.6700 N   0  0  0  0  0  0  0  0  0  0  0  0
  191.2470  177.4060  143.3080 C   0  0  0  0  0  2  0  0  0  0  0  0
  189.7620  177.7070  143.4450 C   0  0  0  0  0  2  0  0  0  0  0  0
  187.8990  178.4440  141.8770 C   0  0  0  0  0  2  0  0  0  0  0  0
  187.5990  175.8170  142.9800 C   0  0  0  0  0  2  0  0  0  0  0  0
  186.6410  178.0490  142.5880 C   0  0  0  0  0  0  0  0  0  0  0  0
  185.8190  178.9820  142.9700 N   0  0  0  0  0  0  0  0  0  0  0  0
  186.3180  176.5880  142.6910 C   0  0  0  0  0  2  0  0  0  0  0  0
  188.5770  176.0860  141.9990 O   0  0  0  0  0  0  0  0  0  0  0  0
  189.0210  177.4280  142.1330 C   0  0  2  0  0  3  0  0  0  0  0  0
  184.5500  178.8090  143.6190 C   0  0  0  0  0  0  0  0  0  0  0  0
  183.5480  178.3530  143.0050 O   0  0  0  0  0  0  0  0  0  0  0  0
  184.4270  179.1450  145.0670 C   0  0  0  0  0  2  0  0  0  0  0  0
  185.7460  179.1900  147.1160 N   0  0  0  0  0  1  0  0  0  0  0  0
  185.5250  178.4690  145.8730 C   0  0  1  0  0  3  0  0  0  0  0  0
  185.1100  177.0470  146.1870 C   0  0  0  0  0  1  0  0  0  0  0  0
  190.5690  174.5030  145.4690 C   0  0  0  0  0  2  0  0  0  0  0  0
  190.1360  173.8800  144.2960 O   0  0  0  0  0  0  0  0  0  0  0  0
  190.5160  172.5410  144.4230 C   0  0  1  0  0  3  0  0  0  0  0  0
  189.8260  171.6960  143.3590 C   0  0  0  0  0  2  0  0  0  0  0  0
  189.0440  172.5860  142.4000 C   0  0  0  0  0  2  0  0  0  0  0  0
  189.6200  172.6030  140.9840 C   0  0  1  0  0  3  0  0  0  0  0  0
  188.5980  173.0580  139.9560 C   0  0  0  0  0  1  0  0  0  0  0  0
  190.8380  173.4140  140.8990 C   0  0  0  0  0  0  0  0  0  0  0  0
  191.8050  174.0490  140.8330 N   0  0  0  0  0  0  0  0  0  0  0  0
  192.0300  172.4210  144.3000 C   0  0  0  0  0  2  0  0  0  0  0  0
  192.3890  171.2730  143.4760 N   0  0  0  0  0  2  0  0  0  0  0  0
  193.7700  171.4490  143.0500 C   0  0  0  0  0  2  0  0  0  0  0  0
  194.6450  171.7400  144.2220 C   0  0  0  0  0  3  0  0  0  0  0  0
  195.6040  170.9330  144.5490 N   0  0  0  0  0  0  0  0  0  0  0  0
  196.8510  172.5730  146.0000 C   0  0  0  0  0  1  0  0  0  0  0  0
  196.4500  171.1790  145.6750 C   0  0  0  0  0  0  0  0  0  0  0  0
  196.8660  170.2310  146.3940 O   0  0  0  0  0  0  0  0  0  0  0  0
  1  2  1  0  0  0  0
  2 12  2  0  0  0  0
  2  6  1  0  0  0  0
  3 28  1  0  0  0  0
  3  7  1  0  0  0  0
  4 12  1  0  0  0  0
  5 11  1  0  0  0  0
  7  6  1  0  0  0  0
  7  8  1  1  0  0  0
  9 13  1  1  0  0  0
  9  1  1  0  0  0  0
  9  3  1  0  0  0  0
 10 11  1  0  0  0  0
 10  1  2  0  0  0  0
 11  4  2  0  0  0  0
 13 14  1  0  0  0  0
 15 21  1  0  0  0  0
 15 17  1  0  0  0  0
 17 19  1  0  0  0  0
 17 18  2  0  0  0  0
 18 22  1  0  0  0  0
 19 16  1  0  0  0  0
 20 21  1  0  0  0  0
 20 16  1  0  0  0  0
 21 14  1  1  0  0  0
 22 24  1  0  0  0  0
 23 22  2  0  0  0  0
 24 26  1  0  0  0  0
 26 27  1  1  0  0  0
 26 25  1  0  0  0  0
 29 30  1  0  0  0  0
 29 28  1  0  0  0  0
 30 31  1  6  0  0  0
 32 31  1  0  0  0  0
 33 34  1  6  0  0  0
 33 32  1  0  0  0  0
 35 33  1  0  0  0  0
 36 35  3  0  0  0  0
 37 30  1  0  0  0  0
 38 37  1  0  0  0  0
 39 38  1  0  0  0  0
 39 40  1  0  0  0  0
 40 41  2  0  0  0  0
 41 43  1  0  0  0  0
 43 42  1  0  0  0  0
 43 44  2  0  0  0  0
M  END
>  <MODEL>
2

>  <REMARK>
 VINA RESULT:      -6.4      1.554      4.254
  Name = 
  18 active torsions:
  status: ('A' for Active; 'I' for Inactive)
    1  A    between atoms: C_1  and  C_4
    2  A    between atoms: C_2  and  C_44
    3  A    between atoms: C_4  and  C_18
    4  A    between atoms: C_8  and  C_27
    5  A    between atoms: C_8  and  N_28
    6  A    between atoms: N_9  and  C_42
    7  A    between atoms: C_11  and  C_29
    8  A    between atoms: C_11  and  C_43
    9  A    between atoms: C_12  and  C_18
   10  A    between atoms: C_12  and  C_19
   11  A    between atoms: C_17  and  N_22
   12  A    between atoms: C_19  and  C_25
   13  A    between atoms: C_19  and  O_36
   14  A    between atoms: C_24  and  C_29
   15  A    between atoms: C_25  and  N_30
   16  A    between atoms: C_27  and  C_32
   17  A    between atoms: N_30  and  C_44
   18  A    between atoms: O_36  and  C_42
                            x       y       z     vdW  Elec       q    Type
                         _______ _______ _______ _____ _____    ______ ____

>  <TORSDO>
F 18

$$$$
=
 OpenBabel11042417033D

 44 46  0  0  1  0  0  0  0  0999 V2000
  192.7910  175.9020  144.6340 C   0  0  0  0  0  0  0  0  0  0  0  0
  193.0400  175.4930  145.9550 C   0  0  0  0  0  0  0  0  0  0  0  0
  190.3670  175.3330  144.9160 N   0  0  0  0  0  0  0  0  0  0  0  0
  195.3510  175.7640  145.6210 N   0  0  0  0  0  0  0  0  0  0  0  0
  196.3280  176.5430  143.4940 C   0  0  0  0  0  1  0  0  0  0  0  0
  191.9280  175.0380  146.8430 C   0  0  0  0  0  2  0  0  0  0  0  0
  190.5880  175.5860  146.3510 C   0  0  2  0  0  3  0  0  0  0  0  0
  189.4410  175.0520  147.1950 C   0  0  0  0  0  1  0  0  0  0  0  0
  191.3860  175.9990  144.0860 C   0  0  1  0  0  3  0  0  0  0  0  0
  193.8720  176.2480  143.8240 C   0  0  0  0  0  3  0  0  0  0  0  0
  195.1630  176.1750  144.3400 C   0  0  0  0  0  0  0  0  0  0  0  0
  194.3220  175.4280  146.4010 N   0  0  0  0  0  0  0  0  0  0  0  0
  190.9910  177.4470  143.8230 C   0  0  0  0  0  2  0  0  0  0  0  0
  189.4770  177.5930  143.8740 C   0  0  0  0  0  2  0  0  0  0  0  0
  187.7850  178.5710  142.2470 C   0  0  0  0  0  2  0  0  0  0  0  0
  187.3560  175.8280  142.9510 C   0  0  0  0  0  2  0  0  0  0  0  0
  186.4600  178.1120  142.7730 C   0  0  0  0  0  0  0  0  0  0  0  0
  185.6110  179.0030  143.1950 N   0  0  0  0  0  0  0  0  0  0  0  0
  186.1160  176.6570  142.6450 C   0  0  0  0  0  2  0  0  0  0  0  0
  188.4290  176.2050  142.1150 O   0  0  0  0  0  0  0  0  0  0  0  0
  188.8670  177.5070  142.4710 C   0  0  2  0  0  3  0  0  0  0  0  0
  184.2830  178.7720  143.6880 C   0  0  0  0  0  0  0  0  0  0  0  0
  183.3150  178.5520  142.9110 O   0  0  0  0  0  0  0  0  0  0  0  0
  184.0510  178.7570  145.1610 C   0  0  0  0  0  2  0  0  0  0  0  0
  185.4910  179.1780  147.0830 N   0  0  0  0  0  1  0  0  0  0  0  0
  185.3140  178.3480  145.9030 C   0  0  1  0  0  3  0  0  0  0  0  0
  185.1970  176.8980  146.3240 C   0  0  0  0  0  1  0  0  0  0  0  0
  190.3690  173.9030  144.6060 C   0  0  0  0  0  2  0  0  0  0  0  0
  190.3790  173.7300  143.2200 O   0  0  0  0  0  0  0  0  0  0  0  0
  191.2840  172.6920  142.9810 C   0  0  1  0  0  3  0  0  0  0  0  0
  191.6800  172.0290  144.2940 C   0  0  0  0  0  2  0  0  0  0  0  0
  193.0700  171.4120  144.1790 C   0  0  0  0  0  2  0  0  0  0  0  0
  194.1980  172.4150  144.4130 C   0  0  1  0  0  3  0  0  0  0  0  0
  195.1230  171.9850  145.5380 C   0  0  0  0  0  1  0  0  0  0  0  0
  194.9600  172.6770  143.1870 C   0  0  0  0  0  0  0  0  0  0  0  0
  195.5550  172.8840  142.2160 N   0  0  0  0  0  0  0  0  0  0  0  0
  190.6620  171.6720  142.0350 C   0  0  0  0  0  2  0  0  0  0  0  0
  191.3950  171.6250  140.7760 N   0  0  0  0  0  2  0  0  0  0  0  0
  191.0900  172.8440  140.0400 C   0  0  0  0  0  2  0  0  0  0  0  0
  192.3390  173.4560  139.5030 C   0  0  0  0  0  3  0  0  0  0  0  0
  192.9680  174.3700  140.1710 N   0  0  0  0  0  0  0  0  0  0  0  0
  194.6590  174.6300  138.3200 C   0  0  0  0  0  1  0  0  0  0  0  0
  194.1610  174.9840  139.6750 C   0  0  0  0  0  0  0  0  0  0  0  0
  194.7990  175.8180  140.3720 O   0  0  0  0  0  0  0  0  0  0  0  0
  1  2  1  0  0  0  0
  2 12  2  0  0  0  0
  2  6  1  0  0  0  0
  3  7  1  0  0  0  0
  4 12  1  0  0  0  0
  5 11  1  0  0  0  0
  7  6  1  0  0  0  0
  7  8  1  1  0  0  0
  9 13  1  1  0  0  0
  9  1  1  0  0  0  0
  9  3  1  0  0  0  0
 10 11  1  0  0  0  0
 10  1  2  0  0  0  0
 11  4  2  0  0  0  0
 13 14  1  0  0  0  0
 15 21  1  0  0  0  0
 15 17  1  0  0  0  0
 17 18  2  0  0  0  0
 18 22  1  0  0  0  0
 19 17  1  0  0  0  0
 19 16  1  0  0  0  0
 20 21  1  0  0  0  0
 20 16  1  0  0  0  0
 21 14  1  1  0  0  0
 22 24  1  0  0  0  0
 23 22  2  0  0  0  0
 24 26  1  0  0  0  0
 26 27  1  1  0  0  0
 26 25  1  0  0  0  0
 28  3  1  0  0  0  0
 29 28  1  0  0  0  0
 30 37  1  6  0  0  0
 30 29  1  0  0  0  0
 30 31  1  0  0  0  0
 32 31  1  0  0  0  0
 32 33  1  0  0  0  0
 33 34  1  1  0  0  0
 35 33  1  0  0  0  0
 36 35  3  0  0  0  0
 38 37  1  0  0  0  0
 39 38  1  0  0  0  0
 40 39  1  0  0  0  0
 40 41  2  0  0  0  0
 42 43  1  0  0  0  0
 43 41  1  0  0  0  0
 43 44  2  0  0  0  0
M  END
>  <MODEL>
3

>  <REMARK>
 VINA RESULT:      -6.4      1.715      2.157
  Name = 
  18 active torsions:
  status: ('A' for Active; 'I' for Inactive)
    1  A    between atoms: C_1  and  C_4
    2  A    between atoms: C_2  and  C_44
    3  A    between atoms: C_4  and  C_18
    4  A    between atoms: C_8  and  C_27
    5  A    between atoms: C_8  and  N_28
    6  A    between atoms: N_9  and  C_42
    7  A    between atoms: C_11  and  C_29
    8  A    between atoms: C_11  and  C_43
    9  A    between atoms: C_12  and  C_18
   10  A    between atoms: C_12  and  C_19
   11  A    between atoms: C_17  and  N_22
   12  A    between atoms: C_19  and  C_25
   13  A    between atoms: C_19  and  O_36
   14  A    between atoms: C_24  and  C_29
   15  A    between atoms: C_25  and  N_30
   16  A    between atoms: C_27  and  C_32
   17  A    between atoms: N_30  and  C_44
   18  A    between atoms: O_36  and  C_42
                            x       y       z     vdW  Elec       q    Type
                         _______ _______ _______ _____ _____    ______ ____

>  <TORSDO>
F 18

$$$$
=
 OpenBabel11042417033D

 44 46  0  0  1  0  0  0  0  0999 V2000
  190.9190  175.4830  144.9690 C   0  0  0  0  0  0  0  0  0  0  0  0
  190.0630  174.4220  145.3100 C   0  0  0  0  0  0  0  0  0  0  0  0
  191.1520  174.5520  142.6550 N   0  0  0  0  0  0  0  0  0  0  0  0
  190.0510  175.1290  147.5520 N   0  0  0  0  0  0  0  0  0  0  0  0
  191.2830  177.1110  148.3520 C   0  0  0  0  0  1  0  0  0  0  0  0
  189.6630  173.4000  144.2960 C   0  0  0  0  0  2  0  0  0  0  0  0
  189.8230  173.9540  142.8810 C   0  0  2  0  0  3  0  0  0  0  0  0
  189.5070  172.8890  141.8420 C   0  0  0  0  0  1  0  0  0  0  0  0
  191.3880  175.6980  143.5490 C   0  0  1  0  0  3  0  0  0  0  0  0
  191.3200  176.3690  145.9700 C   0  0  0  0  0  3  0  0  0  0  0  0
  190.8700  176.1770  147.2730 C   0  0  0  0  0  0  0  0  0  0  0  0
  189.6660  174.2750  146.6010 N   0  0  0  0  0  0  0  0  0  0  0  0
  190.7910  176.9670  142.9520 C   0  0  0  0  0  2  0  0  0  0  0  0
  189.3150  177.0670  143.3080 C   0  0  0  0  0  2  0  0  0  0  0  0
  187.5870  178.5930  142.2320 C   0  0  0  0  0  2  0  0  0  0  0  0
  186.7670  175.8700  142.5740 C   0  0  0  0  0  2  0  0  0  0  0  0
  186.3090  178.2590  142.9390 C   0  0  0  0  0  0  0  0  0  0  0  0
  185.7350  179.1780  143.6590 N   0  0  0  0  0  0  0  0  0  0  0  0
  185.6750  176.9290  142.6610 C   0  0  0  0  0  2  0  0  0  0  0  0
  187.7300  176.2220  141.6060 O   0  0  0  0  0  0  0  0  0  0  0  0
  188.4660  177.3460  142.0620 C   0  0  2  0  0  3  0  0  0  0  0  0
  184.4930  179.0730  144.3710 C   0  0  0  0  0  0  0  0  0  0  0  0
  183.3830  179.0660  143.7730 O   0  0  0  0  0  0  0  0  0  0  0  0
  184.5200  178.9310  145.8560 C   0  0  0  0  0  2  0  0  0  0  0  0
  186.2030  178.8820  147.6180 N   0  0  0  0  0  1  0  0  0  0  0  0
  185.8430  178.3410  146.3170 C   0  0  1  0  0  3  0  0  0  0  0  0
  185.7080  176.8360  146.4220 C   0  0  0  0  0  1  0  0  0  0  0  0
  192.2280  173.5790  142.8430 C   0  0  0  0  0  2  0  0  0  0  0  0
  192.9820  173.4920  141.6700 O   0  0  0  0  0  0  0  0  0  0  0  0
  194.2740  173.8870  142.0300 C   0  0  1  0  0  3  0  0  0  0  0  0
  195.1490  172.6630  142.2730 C   0  0  0  0  0  2  0  0  0  0  0  0
  195.9770  172.8470  143.5400 C   0  0  0  0  0  2  0  0  0  0  0  0
  195.7390  171.7550  144.5820 C   0  0  1  0  0  3  0  0  0  0  0  0
  194.4110  171.9270  145.2990 C   0  0  0  0  0  1  0  0  0  0  0  0
  195.8450  170.4130  144.0010 C   0  0  0  0  0  0  0  0  0  0  0  0
  195.9330  169.3510  143.5470 N   0  0  0  0  0  0  0  0  0  0  0  0
  194.8710  174.7590  140.9310 C   0  0  0  0  0  2  0  0  0  0  0  0
  194.9140  176.1550  141.3490 N   0  0  0  0  0  2  0  0  0  0  0  0
  196.2330  176.4080  141.9100 C   0  0  0  0  0  2  0  0  0  0  0  0
  196.1450  176.6020  143.3870 C   0  0  0  0  0  3  0  0  0  0  0  0
  195.0100  176.4930  144.0010 N   0  0  0  0  0  0  0  0  0  0  0  0
  194.8420  175.5040  146.3120 C   0  0  0  0  0  1  0  0  0  0  0  0
  194.8920  176.6860  145.4130 C   0  0  0  0  0  0  0  0  0  0  0  0
  194.8240  177.8440  145.9070 O   0  0  0  0  0  0  0  0  0  0  0  0
  1  2  2  0  0  0  0
  1 10  1  0  0  0  0
  2 12  1  0  0  0  0
  3 28  1  0  0  0  0
  3  7  1  0  0  0  0
  3  9  1  0  0  0  0
  6  2  1  0  0  0  0
  7  8  1  6  0  0  0
  7  6  1  0  0  0  0
  9 13  1  6  0  0  0
  9  1  1  0  0  0  0
 10 11  2  0  0  0  0
 11  4  1  0  0  0  0
 11  5  1  0  0  0  0
 12  4  2  0  0  0  0
 13 14  1  0  0  0  0
 15 17  1  0  0  0  0
 16 19  1  0  0  0  0
 17 18  2  0  0  0  0
 18 22  1  0  0  0  0
 19 17  1  0  0  0  0
 20 21  1  0  0  0  0
 20 16  1  0  0  0  0
 21 15  1  0  0  0  0
 21 14  1  1  0  0  0
 22 24  1  0  0  0  0
 23 22  2  0  0  0  0
 24 26  1  0  0  0  0
 26 27  1  1  0  0  0
 26 25  1  0  0  0  0
 29 30  1  0  0  0  0
 29 28  1  0  0  0  0
 30 37  1  6  0  0  0
 30 31  1  0  0  0  0
 31 32  1  0  0  0  0
 32 33  1  0  0  0  0
 33 34  1  6  0  0  0
 35 33  1  0  0  0  0
 36 35  3  0  0  0  0
 37 38  1  0  0  0  0
 38 39  1  0  0  0  0
 39 40  1  0  0  0  0
 40 41  2  0  0  0  0
 41 43  1  0  0  0  0
 43 44  2  0  0  0  0
 43 42  1  0  0  0  0
M  END
>  <MODEL>
4

>  <REMARK>
 VINA RESULT:      -6.0      1.832      4.859
  Name = 
  18 active torsions:
  status: ('A' for Active; 'I' for Inactive)
    1  A    between atoms: C_1  and  C_4
    2  A    between atoms: C_2  and  C_44
    3  A    between atoms: C_4  and  C_18
    4  A    between atoms: C_8  and  C_27
    5  A    between atoms: C_8  and  N_28
    6  A    between atoms: N_9  and  C_42
    7  A    between atoms: C_11  and  C_29
    8  A    between atoms: C_11  and  C_43
    9  A    between atoms: C_12  and  C_18
   10  A    between atoms: C_12  and  C_19
   11  A    between atoms: C_17  and  N_22
   12  A    between atoms: C_19  and  C_25
   13  A    between atoms: C_19  and  O_36
   14  A    between atoms: C_24  and  C_29
   15  A    between atoms: C_25  and  N_30
   16  A    between atoms: C_27  and  C_32
   17  A    between atoms: N_30  and  C_44
   18  A    between atoms: O_36  and  C_42
                            x       y       z     vdW  Elec       q    Type
                         _______ _______ _______ _____ _____    ______ ____

>  <TORSDO>
F 18

$$$$
=
 OpenBabel11042417033D

 44 46  0  0  1  0  0  0  0  0999 V2000
  189.6370  175.3190  144.6990 C   0  0  0  0  0  0  0  0  0  0  0  0
  189.9160  174.1690  145.4560 C   0  0  0  0  0  0  0  0  0  0  0  0
  189.8080  173.9750  142.5920 N   0  0  0  0  0  0  0  0  0  0  0  0
  190.0270  175.4630  147.4150 N   0  0  0  0  0  0  0  0  0  0  0  0
  189.6600  177.9020  147.4470 C   0  0  0  0  0  1  0  0  0  0  0  0
  190.0940  172.8390  144.7980 C   0  0  0  0  0  2  0  0  0  0  0  0
  189.4200  172.8230  143.4260 C   0  0  2  0  0  3  0  0  0  0  0  0
  189.6760  171.5050  142.7110 C   0  0  0  0  0  1  0  0  0  0  0  0
  189.4030  175.2500  143.2080 C   0  0  1  0  0  3  0  0  0  0  0  0
  189.5520  176.5480  145.3540 C   0  0  0  0  0  3  0  0  0  0  0  0
  189.7500  176.6040  146.7310 C   0  0  0  0  0  0  0  0  0  0  0  0
  190.1130  174.2840  146.7960 N   0  0  0  0  0  0  0  0  0  0  0  0
  187.9550  175.5710  142.8570 C   0  0  0  0  0  2  0  0  0  0  0  0
  187.8170  175.7900  141.3580 C   0  0  0  0  0  2  0  0  0  0  0  0
  187.9850  178.1620  142.2580 C   0  0  0  0  0  2  0  0  0  0  0  0
  185.6740  177.6260  140.6520 C   0  0  0  0  0  2  0  0  0  0  0  0
  186.6090  178.4600  142.7690 C   0  0  0  0  0  0  0  0  0  0  0  0
  186.4460  178.6710  144.0430 N   0  0  0  0  0  0  0  0  0  0  0  0
  185.5100  178.6510  141.7660 C   0  0  0  0  0  2  0  0  0  0  0  0
  186.9570  177.7200  140.0720 O   0  0  0  0  0  0  0  0  0  0  0  0
  187.9290  177.2770  141.0060 C   0  0  2  0  0  3  0  0  0  0  0  0
  185.2260  179.0150  144.7170 C   0  0  0  0  0  0  0  0  0  0  0  0
  184.7200  180.1660  144.6270 O   0  0  0  0  0  0  0  0  0  0  0  0
  184.5230  177.9710  145.5170 C   0  0  0  0  0  2  0  0  0  0  0  0
  186.2120  176.7910  146.8210 N   0  0  0  0  0  1  0  0  0  0  0  0
  185.1730  177.8070  146.8820 C   0  0  1  0  0  3  0  0  0  0  0  0
  185.7880  179.1260  147.3030 C   0  0  0  0  0  1  0  0  0  0  0  0
  191.2500  174.0090  142.3450 C   0  0  0  0  0  2  0  0  0  0  0  0
  191.6720  175.3380  142.2530 O   0  0  0  0  0  0  0  0  0  0  0  0
  192.9760  175.2800  141.7550 C   0  0  1  0  0  3  0  0  0  0  0  0
  193.9660  175.7380  142.8190 C   0  0  0  0  0  2  0  0  0  0  0  0
  193.2270  176.1660  144.0820 C   0  0  0  0  0  2  0  0  0  0  0  0
  194.1560  176.4320  145.2660 C   0  0  1  0  0  3  0  0  0  0  0  0
  193.3990  176.5100  146.5800 C   0  0  0  0  0  1  0  0  0  0  0  0
  195.2350  175.4420  145.3470 C   0  0  0  0  0  0  0  0  0  0  0  0
  196.0840  174.6560  145.4130 N   0  0  0  0  0  0  0  0  0  0  0  0
  193.2950  173.8590  141.3060 C   0  0  0  0  0  2  0  0  0  0  0  0
  193.9740  173.8670  140.0160 N   0  0  0  0  0  2  0  0  0  0  0  0
  193.0070  174.2790  139.0090 C   0  0  0  0  0  2  0  0  0  0  0  0
  191.9700  173.2240  138.8190 C   0  0  0  0  0  3  0  0  0  0  0  0
  190.7130  173.5320  138.7780 N   0  0  0  0  0  0  0  0  0  0  0  0
  188.4200  172.6660  139.3630 C   0  0  0  0  0  1  0  0  0  0  0  0
  189.6960  172.5410  138.6100 C   0  0  0  0  0  0  0  0  0  0  0  0
  189.8660  171.5610  137.8360 O   0  0  0  0  0  0  0  0  0  0  0  0
  1 10  2  0  0  0  0
  1  2  1  0  0  0  0
  2 12  2  0  0  0  0
  3  9  1  0  0  0  0
  3  7  1  0  0  0  0
  6  2  1  0  0  0  0
  7  8  1  6  0  0  0
  7  6  1  0  0  0  0
  9 13  1  1  0  0  0
  9  1  1  0  0  0  0
 10 11  1  0  0  0  0
 11  4  2  0  0  0  0
 11  5  1  0  0  0  0
 12  4  1  0  0  0  0
 14 13  1  0  0  0  0
 15 17  1  0  0  0  0
 16 19  1  0  0  0  0
 17 18  2  0  0  0  0
 18 22  1  0  0  0  0
 19 17  1  0  0  0  0
 20 16  1  0  0  0  0
 20 21  1  0  0  0  0
 21 14  1  1  0  0  0
 21 15  1  0  0  0  0
 22 24  1  0  0  0  0
 23 22  2  0  0  0  0
 24 26  1  0  0  0  0
 25 26  1  0  0  0  0
 26 27  1  6  0  0  0
 28  3  1  0  0  0  0
 29 28  1  0  0  0  0
 30 37  1  1  0  0  0
 30 29  1  0  0  0  0
 30 31  1  0  0  0  0
 31 32  1  0  0  0  0
 32 33  1  0  0  0  0
 33 35  1  0  0  0  0
 33 34  1  1  0  0  0
 35 36  3  0  0  0  0
 38 37  1  0  0  0  0
 39 38  1  0  0  0  0
 40 39  1  0  0  0  0
 41 40  2  0  0  0  0
 43 41  1  0  0  0  0
 43 42  1  0  0  0  0
 44 43  2  0  0  0  0
M  END
>  <MODEL>
5

>  <REMARK>
 VINA RESULT:      -5.8      2.075      4.133
  Name = 
  18 active torsions:
  status: ('A' for Active; 'I' for Inactive)
    1  A    between atoms: C_1  and  C_4
    2  A    between atoms: C_2  and  C_44
    3  A    between atoms: C_4  and  C_18
    4  A    between atoms: C_8  and  C_27
    5  A    between atoms: C_8  and  N_28
    6  A    between atoms: N_9  and  C_42
    7  A    between atoms: C_11  and  C_29
    8  A    between atoms: C_11  and  C_43
    9  A    between atoms: C_12  and  C_18
   10  A    between atoms: C_12  and  C_19
   11  A    between atoms: C_17  and  N_22
   12  A    between atoms: C_19  and  C_25
   13  A    between atoms: C_19  and  O_36
   14  A    between atoms: C_24  and  C_29
   15  A    between atoms: C_25  and  N_30
   16  A    between atoms: C_27  and  C_32
   17  A    between atoms: N_30  and  C_44
   18  A    between atoms: O_36  and  C_42
                            x       y       z     vdW  Elec       q    Type
                         _______ _______ _______ _____ _____    ______ ____

>  <TORSDO>
F 18

$$$$
=
 OpenBabel11042417033D

 44 46  0  0  1  0  0  0  0  0999 V2000
  189.6270  175.3420  144.5950 C   0  0  0  0  0  0  0  0  0  0  0  0
  189.9040  174.1860  145.3430 C   0  0  0  0  0  0  0  0  0  0  0  0
  189.7500  174.0030  142.4810 N   0  0  0  0  0  0  0  0  0  0  0  0
  190.0590  175.4720  147.3040 N   0  0  0  0  0  0  0  0  0  0  0  0
  189.7210  177.9160  147.3500 C   0  0  0  0  0  1  0  0  0  0  0  0
  190.0560  172.8570  144.6780 C   0  0  0  0  0  2  0  0  0  0  0  0
  189.3610  172.8530  143.3170 C   0  0  2  0  0  3  0  0  0  0  0  0
  189.5910  171.5350  142.5940 C   0  0  0  0  0  1  0  0  0  0  0  0
  189.3690  175.2810  143.1070 C   0  0  1  0  0  3  0  0  0  0  0  0
  189.5660  176.5700  145.2540 C   0  0  0  0  0  3  0  0  0  0  0  0
  189.7860  176.6190  146.6280 C   0  0  0  0  0  0  0  0  0  0  0  0
  190.1230  174.2950  146.6800 N   0  0  0  0  0  0  0  0  0  0  0  0
  187.9190  175.6190  142.7790 C   0  0  0  0  0  2  0  0  0  0  0  0
  187.7800  175.9400  141.2980 C   0  0  0  0  0  2  0  0  0  0  0  0
  187.8540  178.2450  142.3710 C   0  0  0  0  0  2  0  0  0  0  0  0
  185.5390  177.7170  140.7680 C   0  0  0  0  0  2  0  0  0  0  0  0
  186.4750  178.4370  142.9260 C   0  0  0  0  0  0  0  0  0  0  0  0
  186.3300  178.5450  144.2150 N   0  0  0  0  0  0  0  0  0  0  0  0
  185.3480  178.6470  141.9590 C   0  0  0  0  0  2  0  0  0  0  0  0
  186.8030  177.9160  140.1750 O   0  0  0  0  0  0  0  0  0  0  0  0
  187.8140  177.4530  141.0570 C   0  0  2  0  0  3  0  0  0  0  0  0
  185.1090  178.7770  144.9340 C   0  0  0  0  0  0  0  0  0  0  0  0
  184.4380  179.8330  144.7780 O   0  0  0  0  0  0  0  0  0  0  0  0
  184.6050  177.7250  145.8620 C   0  0  0  0  0  2  0  0  0  0  0  0
  186.3360  176.7910  147.3020 N   0  0  0  0  0  1  0  0  0  0  0  0
  185.3050  177.8120  147.2090 C   0  0  1  0  0  3  0  0  0  0  0  0
  185.9410  179.1800  147.3520 C   0  0  0  0  0  1  0  0  0  0  0  0
  191.1880  174.0210  142.2120 C   0  0  0  0  0  2  0  0  0  0  0  0
  191.6040  175.3400  142.0120 O   0  0  0  0  0  0  0  0  0  0  0  0
  193.0010  175.2890  141.9850 C   0  0  1  0  0  3  0  0  0  0  0  0
  193.5840  176.4490  142.7830 C   0  0  0  0  0  2  0  0  0  0  0  0
  193.4190  176.2000  144.2780 C   0  0  0  0  0  2  0  0  0  0  0  0
  194.6970  176.4490  145.0780 C   0  0  1  0  0  3  0  0  0  0  0  0
  194.9410  175.3700  146.1180 C   0  0  0  0  0  1  0  0  0  0  0  0
  195.8660  176.6030  144.2060 C   0  0  0  0  0  0  0  0  0  0  0  0
  196.7860  176.7260  143.5120 N   0  0  0  0  0  0  0  0  0  0  0  0
  193.4790  173.9580  142.5520 C   0  0  0  0  0  2  0  0  0  0  0  0
  194.8250  173.6520  142.0810 N   0  0  0  0  0  2  0  0  0  0  0  0
  195.5690  173.0920  143.2000 C   0  0  0  0  0  2  0  0  0  0  0  0
  194.7010  172.1820  144.0010 C   0  0  0  0  0  3  0  0  0  0  0  0
  194.8340  170.8960  143.9150 N   0  0  0  0  0  0  0  0  0  0  0  0
  194.5310  169.3880  145.9100 C   0  0  0  0  0  1  0  0  0  0  0  0
  194.0080  169.9980  144.6600 C   0  0  0  0  0  0  0  0  0  0  0  0
  192.8430  169.7120  144.2710 O   0  0  0  0  0  0  0  0  0  0  0  0
  1 10  2  0  0  0  0
  1  2  1  0  0  0  0
  2 12  2  0  0  0  0
  3  9  1  0  0  0  0
  3  7  1  0  0  0  0
  6  2  1  0  0  0  0
  7  8  1  6  0  0  0
  7  6  1  0  0  0  0
  9 13  1  1  0  0  0
  9  1  1  0  0  0  0
 10 11  1  0  0  0  0
 11  4  2  0  0  0  0
 11  5  1  0  0  0  0
 12  4  1  0  0  0  0
 14 13  1  0  0  0  0
 15 17  1  0  0  0  0
 16 19  1  0  0  0  0
 17 18  2  0  0  0  0
 18 22  1  0  0  0  0
 19 17  1  0  0  0  0
 20 16  1  0  0  0  0
 20 21  1  0  0  0  0
 21 14  1  1  0  0  0
 21 15  1  0  0  0  0
 22 24  1  0  0  0  0
 23 22  2  0  0  0  0
 24 26  1  0  0  0  0
 26 25  1  0  0  0  0
 26 27  1  6  0  0  0
 28  3  1  0  0  0  0
 29 28  1  0  0  0  0
 30 29  1  0  0  0  0
 30 37  1  1  0  0  0
 30 31  1  0  0  0  0
 31 32  1  0  0  0  0
 32 33  1  0  0  0  0
 33 34  1  1  0  0  0
 35 33  1  0  0  0  0
 36 35  3  0  0  0  0
 38 37  1  0  0  0  0
 38 39  1  0  0  0  0
 39 40  1  0  0  0  0
 41 40  2  0  0  0  0
 41 43  1  0  0  0  0
 43 42  1  0  0  0  0
 44 43  2  0  0  0  0
M  END
>  <MODEL>
6

>  <REMARK>
 VINA RESULT:      -5.7      2.019      4.992
  Name = 
  18 active torsions:
  status: ('A' for Active; 'I' for Inactive)
    1  A    between atoms: C_1  and  C_4
    2  A    between atoms: C_2  and  C_44
    3  A    between atoms: C_4  and  C_18
    4  A    between atoms: C_8  and  C_27
    5  A    between atoms: C_8  and  N_28
    6  A    between atoms: N_9  and  C_42
    7  A    between atoms: C_11  and  C_29
    8  A    between atoms: C_11  and  C_43
    9  A    between atoms: C_12  and  C_18
   10  A    between atoms: C_12  and  C_19
   11  A    between atoms: C_17  and  N_22
   12  A    between atoms: C_19  and  C_25
   13  A    between atoms: C_19  and  O_36
   14  A    between atoms: C_24  and  C_29
   15  A    between atoms: C_25  and  N_30
   16  A    between atoms: C_27  and  C_32
   17  A    between atoms: N_30  and  C_44
   18  A    between atoms: O_36  and  C_42
                            x       y       z     vdW  Elec       q    Type
                         _______ _______ _______ _____ _____    ______ ____

>  <TORSDO>
F 18

$$$$
=
 OpenBabel11042417033D

 44 46  0  0  1  0  0  0  0  0999 V2000
  189.4910  174.2360  143.5820 C   0  0  0  0  0  0  0  0  0  0  0  0
  189.4870  172.8310  143.5580 C   0  0  0  0  0  0  0  0  0  0  0  0
  189.5760  174.2790  141.0790 N   0  0  0  0  0  0  0  0  0  0  0  0
  189.6810  172.7730  145.9000 N   0  0  0  0  0  0  0  0  0  0  0  0
  189.7770  174.8020  147.3000 C   0  0  0  0  0  1  0  0  0  0  0  0
  189.4640  172.0830  142.2650 C   0  0  0  0  0  2  0  0  0  0  0  0
  188.9120  172.9640  141.1440 C   0  0  2  0  0  3  0  0  0  0  0  0
  188.9730  172.2420  139.8070 C   0  0  0  0  0  1  0  0  0  0  0  0
  189.3690  175.0510  142.3160 C   0  0  1  0  0  3  0  0  0  0  0  0
  189.5870  174.8850  144.8140 C   0  0  0  0  0  3  0  0  0  0  0  0
  189.6800  174.1300  145.9790 C   0  0  0  0  0  0  0  0  0  0  0  0
  189.5940  172.1450  144.7270 N   0  0  0  0  0  0  0  0  0  0  0  0
  188.0400  175.7950  142.2590 C   0  0  0  0  0  2  0  0  0  0  0  0
  187.6420  176.0430  140.8120 C   0  0  0  0  0  2  0  0  0  0  0  0
  187.6760  178.3930  141.7830 C   0  0  0  0  0  2  0  0  0  0  0  0
  185.2660  177.6740  140.4120 C   0  0  0  0  0  2  0  0  0  0  0  0
  186.3420  178.5360  142.4490 C   0  0  0  0  0  0  0  0  0  0  0  0
  186.3010  178.6930  143.7400 N   0  0  0  0  0  0  0  0  0  0  0  0
  185.1260  178.6440  141.5770 C   0  0  0  0  0  2  0  0  0  0  0  0
  186.4630  177.9130  139.7030 O   0  0  0  0  0  0  0  0  0  0  0  0
  187.5700  177.5430  140.5100 C   0  0  2  0  0  3  0  0  0  0  0  0
  185.1350  178.8920  144.5540 C   0  0  0  0  0  0  0  0  0  0  0  0
  184.2900  179.7910  144.2940 O   0  0  0  0  0  0  0  0  0  0  0  0
  184.9000  177.9870  145.7160 C   0  0  0  0  0  2  0  0  0  0  0  0
  185.6390  178.4830  147.9850 N   0  0  0  0  0  1  0  0  0  0  0  0
  186.0780  178.0260  146.6760 C   0  0  1  0  0  3  0  0  0  0  0  0
  186.6650  176.6350  146.8030 C   0  0  0  0  0  1  0  0  0  0  0  0
  191.0140  174.1530  140.8380 C   0  0  0  0  0  2  0  0  0  0  0  0
  191.6990  175.0660  141.6430 O   0  0  0  0  0  0  0  0  0  0  0  0
  192.9670  174.5100  141.8380 C   0  0  1  0  0  3  0  0  0  0  0  0
  192.9080  172.9960  141.6770 C   0  0  0  0  0  2  0  0  0  0  0  0
  193.9770  172.3290  142.5340 C   0  0  0  0  0  2  0  0  0  0  0  0
  194.1160  172.9540  143.9220 C   0  0  1  0  0  3  0  0  0  0  0  0
  193.1160  172.3800  144.9110 C   0  0  0  0  0  1  0  0  0  0  0  0
  195.4830  172.8360  144.4400 C   0  0  0  0  0  0  0  0  0  0  0  0
  196.5630  172.7480  144.8500 N   0  0  0  0  0  0  0  0  0  0  0  0
  193.9530  175.1140  140.8450 C   0  0  0  0  0  2  0  0  0  0  0  0
  194.5670  176.3160  141.3970 N   0  0  0  0  0  2  0  0  0  0  0  0
  195.6600  175.8970  142.2630 C   0  0  0  0  0  2  0  0  0  0  0  0
  195.5010  176.4840  143.6250 C   0  0  0  0  0  3  0  0  0  0  0  0
  194.4060  176.3150  144.2950 N   0  0  0  0  0  0  0  0  0  0  0  0
  193.1640  176.3290  146.4880 C   0  0  0  0  0  1  0  0  0  0  0  0
  194.2210  176.8770  145.5970 C   0  0  0  0  0  0  0  0  0  0  0  0
  194.9370  177.8330  146.0000 O   0  0  0  0  0  0  0  0  0  0  0  0
  1 10  1  0  0  0  0
  2  1  2  0  0  0  0
  2 12  1  0  0  0  0
  3  7  1  0  0  0  0
  3  9  1  0  0  0  0
  4 11  1  0  0  0  0
  6  2  1  0  0  0  0
  7  8  1  6  0  0  0
  7  6  1  0  0  0  0
  9 13  1  6  0  0  0
  9  1  1  0  0  0  0
 10 11  2  0  0  0  0
 11  5  1  0  0  0  0
 12  4  2  0  0  0  0
 14 13  1  0  0  0  0
 15 17  1  0  0  0  0
 16 19  1  0  0  0  0
 17 18  2  0  0  0  0
 18 22  1  0  0  0  0
 19 17  1  0  0  0  0
 20 16  1  0  0  0  0
 20 21  1  0  0  0  0
 21 14  1  1  0  0  0
 21 15  1  0  0  0  0
 22 24  1  0  0  0  0
 23 22  2  0  0  0  0
 24 26  1  0  0  0  0
 26 27  1  1  0  0  0
 26 25  1  0  0  0  0
 28  3  1  0  0  0  0
 28 29  1  0  0  0  0
 29 30  1  0  0  0  0
 30 37  1  6  0  0  0
 31 30  1  0  0  0  0
 31 32  1  0  0  0  0
 32 33  1  0  0  0  0
 33 35  1  0  0  0  0
 33 34  1  1  0  0  0
 35 36  3  0  0  0  0
 37 38  1  0  0  0  0
 38 39  1  0  0  0  0
 39 40  1  0  0  0  0
 40 41  2  0  0  0  0
 41 43  1  0  0  0  0
 43 44  2  0  0  0  0
 43 42  1  0  0  0  0
M  END
>  <MODEL>
7

>  <REMARK>
 VINA RESULT:      -5.6      2.003      5.330
  Name = 
  18 active torsions:
  status: ('A' for Active; 'I' for Inactive)
    1  A    between atoms: C_1  and  C_4
    2  A    between atoms: C_2  and  C_44
    3  A    between atoms: C_4  and  C_18
    4  A    between atoms: C_8  and  C_27
    5  A    between atoms: C_8  and  N_28
    6  A    between atoms: N_9  and  C_42
    7  A    between atoms: C_11  and  C_29
    8  A    between atoms: C_11  and  C_43
    9  A    between atoms: C_12  and  C_18
   10  A    between atoms: C_12  and  C_19
   11  A    between atoms: C_17  and  N_22
   12  A    between atoms: C_19  and  C_25
   13  A    between atoms: C_19  and  O_36
   14  A    between atoms: C_24  and  C_29
   15  A    between atoms: C_25  and  N_30
   16  A    between atoms: C_27  and  C_32
   17  A    between atoms: N_30  and  C_44
   18  A    between atoms: O_36  and  C_42
                            x       y       z     vdW  Elec       q    Type
                         _______ _______ _______ _____ _____    ______ ____

>  <TORSDO>
F 18

$$$$
=
 OpenBabel11042417033D

 44 46  0  0  1  0  0  0  0  0999 V2000
  193.8750  175.2660  144.0350 C   0  0  0  0  0  0  0  0  0  0  0  0
  193.4140  176.1850  144.9920 C   0  0  0  0  0  0  0  0  0  0  0  0
  191.9430  175.8430  142.5490 N   0  0  0  0  0  0  0  0  0  0  0  0
  195.0610  175.4620  146.5060 N   0  0  0  0  0  0  0  0  0  0  0  0
  196.7100  173.7060  145.9730 C   0  0  0  0  0  1  0  0  0  0  0  0
  192.2100  177.0300  144.7300 C   0  0  0  0  0  2  0  0  0  0  0  0
  191.9540  177.1520  143.2280 C   0  0  2  0  0  3  0  0  0  0  0  0
  190.6770  177.9320  142.9570 C   0  0  0  0  0  1  0  0  0  0  0  0
  193.2430  175.1620  142.6670 C   0  0  1  0  0  3  0  0  0  0  0  0
  194.9600  174.4500  144.3570 C   0  0  0  0  0  3  0  0  0  0  0  0
  195.5510  174.5630  145.6130 C   0  0  0  0  0  0  0  0  0  0  0  0
  194.0220  176.2440  146.2070 N   0  0  0  0  0  0  0  0  0  0  0  0
  194.1940  175.6430  141.5770 C   0  0  0  0  0  2  0  0  0  0  0  0
  194.8900  174.4550  140.9290 C   0  0  0  0  0  2  0  0  0  0  0  0
  192.9860  174.1710  139.2670 C   0  0  0  0  0  2  0  0  0  0  0  0
  194.9300  172.0660  139.2700 C   0  0  0  0  0  2  0  0  0  0  0  0
  192.5690  172.7410  139.4260 C   0  0  0  0  0  0  0  0  0  0  0  0
  191.3720  172.4840  139.8660 N   0  0  0  0  0  0  0  0  0  0  0  0
  193.4980  171.6750  138.9260 C   0  0  0  0  0  2  0  0  0  0  0  0
  195.2390  173.3400  138.7480 O   0  0  0  0  0  0  0  0  0  0  0  0
  194.5010  174.3280  139.4520 C   0  0  2  0  0  3  0  0  0  0  0  0
  190.7710  171.1920  140.0430 C   0  0  0  0  0  0  0  0  0  0  0  0
  190.1070  170.6380  139.1250 O   0  0  0  0  0  0  0  0  0  0  0  0
  190.9680  170.4730  141.3340 C   0  0  0  0  0  2  0  0  0  0  0  0
  189.6780  171.5100  143.1240 N   0  0  0  0  0  1  0  0  0  0  0  0
  190.9900  171.4510  142.4980 C   0  0  1  0  0  3  0  0  0  0  0  0
  192.0100  170.9890  143.5190 C   0  0  0  0  0  1  0  0  0  0  0  0
  190.9000  174.9630  143.0780 C   0  0  0  0  0  2  0  0  0  0  0  0
  189.8340  174.9160  142.1760 O   0  0  0  0  0  0  0  0  0  0  0  0
  188.6970  174.6930  142.9560 C   0  0  1  0  0  3  0  0  0  0  0  0
  188.9630  175.0980  144.4010 C   0  0  0  0  0  2  0  0  0  0  0  0
  187.9680  176.1640  144.8450 C   0  0  0  0  0  2  0  0  0  0  0  0
  187.9710  176.4030  146.3550 C   0  0  1  0  0  3  0  0  0  0  0  0
  189.1260  177.2880  146.7910 C   0  0  0  0  0  1  0  0  0  0  0  0
  186.6930  176.9480  146.8240 C   0  0  0  0  0  0  0  0  0  0  0  0
  185.6800  177.3740  147.1920 N   0  0  0  0  0  0  0  0  0  0  0  0
  187.5200  175.4810  142.3900 C   0  0  0  0  0  2  0  0  0  0  0  0
  187.8280  175.9740  141.0540 N   0  0  0  0  0  2  0  0  0  0  0  0
  187.1060  177.2240  140.8660 C   0  0  0  0  0  2  0  0  0  0  0  0
  186.3190  177.5600  142.0870 C   0  0  0  0  0  3  0  0  0  0  0  0
  185.6530  178.6690  142.1610 N   0  0  0  0  0  0  0  0  0  0  0  0
  185.5590  179.7770  144.4220 C   0  0  0  0  0  1  0  0  0  0  0  0
  184.9000  179.0240  143.3230 C   0  0  0  0  0  0  0  0  0  0  0  0
  183.6850  178.7040  143.4330 O   0  0  0  0  0  0  0  0  0  0  0  0
  1 10  2  0  0  0  0
  1  2  1  0  0  0  0
  2 12  2  0  0  0  0
  3  9  1  0  0  0  0
  3 28  1  0  0  0  0
  3  7  1  0  0  0  0
  6  2  1  0  0  0  0
  7  8  1  1  0  0  0
  7  6  1  0  0  0  0
  9 13  1  6  0  0  0
  9  1  1  0  0  0  0
 10 11  1  0  0  0  0
 11  5  1  0  0  0  0
 11  4  2  0  0  0  0
 12  4  1  0  0  0  0
 14 13  1  0  0  0  0
 15 17  1  0  0  0  0
 15 21  1  0  0  0  0
 17 18  2  0  0  0  0
 18 22  1  0  0  0  0
 19 16  1  0  0  0  0
 19 17  1  0  0  0  0
 20 16  1  0  0  0  0
 20 21  1  0  0  0  0
 21 14  1  1  0  0  0
 22 24  1  0  0  0  0
 23 22  2  0  0  0  0
 24 26  1  0  0  0  0
 26 25  1  0  0  0  0
 26 27  1  1  0  0  0
 29 30  1  0  0  0  0
 29 28  1  0  0  0  0
 30 37  1  6  0  0  0
 30 31  1  0  0  0  0
 31 32  1  0  0  0  0
 32 33  1  0  0  0  0
 33 34  1  6  0  0  0
 33 35  1  0  0  0  0
 35 36  3  0  0  0  0
 38 37  1  0  0  0  0
 39 38  1  0  0  0  0
 39 40  1  0  0  0  0
 40 41  2  0  0  0  0
 41 43  1  0  0  0  0
 43 44  2  0  0  0  0
 43 42  1  0  0  0  0
M  END
>  <MODEL>
8

>  <REMARK>
 VINA RESULT:      -5.6      2.463      7.009
  Name = 
  18 active torsions:
  status: ('A' for Active; 'I' for Inactive)
    1  A    between atoms: C_1  and  C_4
    2  A    between atoms: C_2  and  C_44
    3  A    between atoms: C_4  and  C_18
    4  A    between atoms: C_8  and  C_27
    5  A    between atoms: C_8  and  N_28
    6  A    between atoms: N_9  and  C_42
    7  A    between atoms: C_11  and  C_29
    8  A    between atoms: C_11  and  C_43
    9  A    between atoms: C_12  and  C_18
   10  A    between atoms: C_12  and  C_19
   11  A    between atoms: C_17  and  N_22
   12  A    between atoms: C_19  and  C_25
   13  A    between atoms: C_19  and  O_36
   14  A    between atoms: C_24  and  C_29
   15  A    between atoms: C_25  and  N_30
   16  A    between atoms: C_27  and  C_32
   17  A    between atoms: N_30  and  C_44
   18  A    between atoms: O_36  and  C_42
                            x       y       z     vdW  Elec       q    Type
                         _______ _______ _______ _____ _____    ______ ____

>  <TORSDO>
F 18

$$$$
=
 OpenBabel11042417033D

 44 46  0  0  1  0  0  0  0  0999 V2000
  192.0210  171.2820  143.6010 C   0  0  0  0  0  0  0  0  0  0  0  0
  191.6530  170.3810  142.5880 C   0  0  0  0  0  0  0  0  0  0  0  0
  190.7400  173.1010  142.4490 N   0  0  0  0  0  0  0  0  0  0  0  0
  193.0660  168.7430  143.5080 N   0  0  0  0  0  0  0  0  0  0  0  0
  194.4110  169.1060  145.5440 C   0  0  0  0  0  1  0  0  0  0  0  0
  190.7450  170.8000  141.4770 C   0  0  0  0  0  2  0  0  0  0  0  0
  189.9140  172.0140  141.8910 C   0  0  2  0  0  3  0  0  0  0  0  0
  189.0560  172.5030  140.7340 C   0  0  0  0  0  1  0  0  0  0  0  0
  191.4390  172.6740  143.6730 C   0  0  1  0  0  3  0  0  0  0  0  0
  192.9280  170.8630  144.5750 C   0  0  0  0  0  3  0  0  0  0  0  0
  193.4470  169.5730  144.5140 C   0  0  0  0  0  0  0  0  0  0  0  0
  192.2010  169.1370  142.5710 N   0  0  0  0  0  0  0  0  0  0  0  0
  190.5290  172.8350  144.8860 C   0  0  0  0  0  2  0  0  0  0  0  0
  190.2550  174.3100  145.1410 C   0  0  0  0  0  2  0  0  0  0  0  0
  188.9320  174.9120  147.2280 C   0  0  0  0  0  2  0  0  0  0  0  0
  190.8580  176.8630  146.3980 C   0  0  0  0  0  2  0  0  0  0  0  0
  188.5340  176.3400  147.0120 C   0  0  0  0  0  0  0  0  0  0  0  0
  187.2700  176.6280  146.9040 N   0  0  0  0  0  0  0  0  0  0  0  0
  189.6040  177.3890  147.0840 C   0  0  0  0  0  2  0  0  0  0  0  0
  191.2640  175.6380  146.9690 O   0  0  0  0  0  0  0  0  0  0  0  0
  190.3200  174.6300  146.6380 C   0  0  2  0  0  3  0  0  0  0  0  0
  186.6870  177.9300  146.7420 C   0  0  0  0  0  0  0  0  0  0  0  0
  186.5470  178.7200  147.7150 O   0  0  0  0  0  0  0  0  0  0  0  0
  186.2680  178.3700  145.3800 C   0  0  0  0  0  2  0  0  0  0  0  0
  183.8940  178.7440  145.7890 N   0  0  0  0  0  1  0  0  0  0  0  0
  184.8500  177.9120  145.0770 C   0  0  1  0  0  3  0  0  0  0  0  0
  184.5970  178.0240  143.5880 C   0  0  0  0  0  1  0  0  0  0  0  0
  191.7290  173.5840  141.4860 C   0  0  0  0  0  2  0  0  0  0  0  0
  191.5410  174.9530  141.2780 O   0  0  0  0  0  0  0  0  0  0  0  0
  191.7820  175.5540  142.5170 C   0  0  1  0  0  3  0  0  0  0  0  0
  193.2610  175.8870  142.6600 C   0  0  0  0  0  2  0  0  0  0  0  0
  193.7200  175.6560  144.0960 C   0  0  0  0  0  2  0  0  0  0  0  0
  195.1560  175.1420  144.1970 C   0  0  1  0  0  3  0  0  0  0  0  0
  195.3030  173.7410  143.6300 C   0  0  0  0  0  1  0  0  0  0  0  0
  196.1110  176.0600  143.5670 C   0  0  0  0  0  0  0  0  0  0  0  0
  196.8630  176.7890  143.0720 N   0  0  0  0  0  0  0  0  0  0  0  0
  190.9360  176.8150  142.6510 C   0  0  0  0  0  2  0  0  0  0  0  0
  189.5180  176.4790  142.7060 N   0  0  0  0  0  2  0  0  0  0  0  0
  188.7880  177.6940  143.0380 C   0  0  0  0  0  2  0  0  0  0  0  0
  187.8370  178.0460  141.9450 C   0  0  0  0  0  3  0  0  0  0  0  0
  187.4380  177.1490  141.1000 N   0  0  0  0  0  0  0  0  0  0  0  0
  186.6540  176.7370  138.7410 C   0  0  0  0  0  1  0  0  0  0  0  0
  186.5370  177.4600  140.0340 C   0  0  0  0  0  0  0  0  0  0  0  0
  185.6470  178.3430  140.1730 O   0  0  0  0  0  0  0  0  0  0  0  0
  1  9  1  0  0  0  0
  1 10  1  0  0  0  0
  2  1  2  0  0  0  0
  3  9  1  0  0  0  0
  4 11  1  0  0  0  0
  6  7  1  0  0  0  0
  6  2  1  0  0  0  0
  7  8  1  6  0  0  0
  7  3  1  0  0  0  0
  9 13  1  1  0  0  0
 11 10  2  0  0  0  0
 11  5  1  0  0  0  0
 12  2  1  0  0  0  0
 12  4  2  0  0  0  0
 13 14  1  0  0  0  0
 16 20  1  0  0  0  0
 16 19  1  0  0  0  0
 17 19  1  0  0  0  0
 17 15  1  0  0  0  0
 18 17  2  0  0  0  0
 21 14  1  6  0  0  0
 21 20  1  0  0  0  0
 21 15  1  0  0  0  0
 22 18  1  0  0  0  0
 22 23  2  0  0  0  0
 24 22  1  0  0  0  0
 26 27  1  6  0  0  0
 26 24  1  0  0  0  0
 26 25  1  0  0  0  0
 28  3  1  0  0  0  0
 29 28  1  0  0  0  0
 29 30  1  0  0  0  0
 30 37  1  6  0  0  0
 30 31  1  0  0  0  0
 31 32  1  0  0  0  0
 32 33  1  0  0  0  0
 33 34  1  6  0  0  0
 35 33  1  0  0  0  0
 36 35  3  0  0  0  0
 37 38  1  0  0  0  0
 38 39  1  0  0  0  0
 40 39  1  0  0  0  0
 41 40  2  0  0  0  0
 42 43  1  0  0  0  0
 43 44  2  0  0  0  0
 43 41  1  0  0  0  0
M  END
>  <MODEL>
9

>  <REMARK>
 VINA RESULT:      -5.5      2.305      5.154
  Name = 
  18 active torsions:
  status: ('A' for Active; 'I' for Inactive)
    1  A    between atoms: C_1  and  C_4
    2  A    between atoms: C_2  and  C_44
    3  A    between atoms: C_4  and  C_18
    4  A    between atoms: C_8  and  C_27
    5  A    between atoms: C_8  and  N_28
    6  A    between atoms: N_9  and  C_42
    7  A    between atoms: C_11  and  C_29
    8  A    between atoms: C_11  and  C_43
    9  A    between atoms: C_12  and  C_18
   10  A    between atoms: C_12  and  C_19
   11  A    between atoms: C_17  and  N_22
   12  A    between atoms: C_19  and  C_25
   13  A    between atoms: C_19  and  O_36
   14  A    between atoms: C_24  and  C_29
   15  A    between atoms: C_25  and  N_30
   16  A    between atoms: C_27  and  C_32
   17  A    between atoms: N_30  and  C_44
   18  A    between atoms: O_36  and  C_42
                            x       y       z     vdW  Elec       q    Type
                         _______ _______ _______ _____ _____    ______ ____

>  <TORSDO>
F 18

$$$$
