=
 OpenBabel11042417283D

 29 32  0  0  1  0  0  0  0  0999 V2000
  187.1330  176.9010  141.5560 C   0  0  0  0  0  3  0  0  0  0  0  0
  189.2700  175.9220  144.4270 C   0  0  0  0  0  0  0  0  0  0  0  0
  191.2240  175.4130  145.8110 N   0  0  0  0  0  0  0  0  0  0  0  0
  187.7060  176.9090  142.8340 C   0  0  0  0  0  0  0  0  0  0  0  0
  188.8870  176.8800  145.3800 C   0  0  0  0  0  0  0  0  0  0  0  0
  187.3290  177.8630  143.8010 C   0  0  0  0  0  0  0  0  0  0  0  0
  187.9230  177.8390  145.0660 C   0  0  0  0  0  3  0  0  0  0  0  0
  190.8960  176.2970  146.7090 C   0  0  0  0  0  0  0  0  0  0  0  0
  189.0350  174.9840  142.1820 C   0  0  0  0  0  3  0  0  0  0  0  0
  188.6770  175.9290  143.1510 C   0  0  0  0  0  0  0  0  0  0  0  0
  190.2750  174.8770  144.8330 C   0  0  0  0  0  2  0  0  0  0  0  0
  189.4910  176.8540  146.7520 C   0  0  0  0  0  2  0  0  0  0  0  0
  187.5050  175.9680  140.6390 N   0  0  0  0  0  0  0  0  0  0  0  0
  188.4370  175.0160  140.9160 C   0  0  0  0  0  0  0  0  0  0  0  0
  189.2670  173.9960  137.8200 N   0  0  0  0  0  2  0  0  0  0  0  0
  188.2150  174.0840  138.6870 O   0  0  0  0  0  0  0  0  0  0  0  0
  190.2830  173.1690  138.4710 C   0  0  2  0  0  3  0  0  0  0  0  0
  188.7870  174.0510  139.9150 N   0  0  0  0  0  0  0  0  0  0  0  0
  190.0350  173.3390  139.9320 C   0  0  0  0  0  2  0  0  0  0  0  0
  191.6100  174.5020  136.9290 N   0  0  0  0  0  1  0  0  0  0  0  0
  191.6700  173.6800  138.1240 C   0  0  0  0  0  2  0  0  0  0  0  0
  191.8610  176.7160  147.6260 O   0  0  0  0  0  0  0  0  0  0  0  0
  191.5240  177.3870  148.8320 C   0  0  0  0  0  1  0  0  0  0  0  0
  186.3190  178.9250  143.5080 C   0  0  0  0  0  2  0  0  0  0  0  0
  185.7090  179.4380  144.8030 C   0  0  0  0  0  2  0  0  0  0  0  0
  184.4590  178.6470  145.1510 C   0  0  0  0  0  2  0  0  0  0  0  0
  184.8380  176.6410  146.3840 O   0  0  0  0  0  0  0  0  0  0  0  0
  184.6500  177.8860  146.4190 C   0  0  0  0  0  0  0  0  0  0  0  0
  184.5900  178.5430  147.6400 O   0  0  0  0  0  1  0  0  0  0  0  0
  1  4  1  0  0  0  0
  2 11  1  0  0  0  0
  2  5  1  0  0  0  0
  3  8  2  0  0  0  0
  4 10  1  0  0  0  0
  4  6  2  0  0  0  0
  5 12  1  0  0  0  0
  6  7  1  0  0  0  0
  7  5  2  0  0  0  0
  8 12  1  0  0  0  0
  8 22  1  0  0  0  0
  9 10  1  0  0  0  0
 10  2  2  0  0  0  0
 11  3  1  0  0  0  0
 13 14  1  0  0  0  0
 13  1  2  0  0  0  0
 14  9  2  0  0  0  0
 15 17  1  0  0  0  0
 15 16  1  0  0  0  0
 16 18  1  0  0  0  0
 17 21  1  1  0  0  0
 17 19  1  0  0  0  0
 18 19  1  0  0  0  0
 18 14  1  0  0  0  0
 20 21  1  0  0  0  0
 22 23  1  0  0  0  0
 24  6  1  0  0  0  0
 24 25  1  0  0  0  0
 25 26  1  0  0  0  0
 26 28  1  0  0  0  0
 27 28  2  0  0  0  0
 28 29  1  0  0  0  0
M  END
>  <MODEL>
1

>  <REMARK>
 VINA RESULT:      -6.9      0.000      0.000
  Name = 
  7 active torsions:
  status: ('A' for Active; 'I' for Inactive)
    1  A    between atoms: C_2  and  C_16
    2  A    between atoms: C_2  and  C_17
    3  A    between atoms: O_6  and  C_13
    4  A    between atoms: C_11  and  C_24
    5  A    between atoms: C_15  and  C_18
    6  A    between atoms: C_17  and  C_24
    7  A    between atoms: N_23  and  C_27
                            x       y       z     vdW  Elec       q    Type
                         _______ _______ _______ _____ _____    ______ ____

>  <TORSDO>
F 7

$$$$
=
 OpenBabel11042417283D

 29 32  0  0  1  0  0  0  0  0999 V2000
  190.3290  173.6200  144.5770 C   0  0  0  0  0  3  0  0  0  0  0  0
  187.8870  176.2450  143.6220 C   0  0  0  0  0  0  0  0  0  0  0  0
  185.8990  177.3690  142.7390 N   0  0  0  0  0  0  0  0  0  0  0  0
  189.4280  174.6860  144.6940 C   0  0  0  0  0  0  0  0  0  0  0  0
  187.6140  176.8210  144.8740 C   0  0  0  0  0  0  0  0  0  0  0  0
  189.1480  175.2760  145.9440 C   0  0  0  0  0  0  0  0  0  0  0  0
  188.2440  176.3390  146.0220 C   0  0  0  0  0  3  0  0  0  0  0  0
  185.6190  177.9140  143.8890 C   0  0  0  0  0  0  0  0  0  0  0  0
  189.0940  174.5890  142.2920 C   0  0  0  0  0  3  0  0  0  0  0  0
  188.7990  175.1780  143.5270 C   0  0  0  0  0  0  0  0  0  0  0  0
  187.2230  176.8370  142.4070 C   0  0  0  0  0  2  0  0  0  0  0  0
  186.6690  177.9800  144.9750 C   0  0  0  0  0  2  0  0  0  0  0  0
  190.5910  173.0710  143.3620 N   0  0  0  0  0  0  0  0  0  0  0  0
  189.9990  173.5220  142.2230 C   0  0  0  0  0  0  0  0  0  0  0  0
  189.3210  171.8450  139.3860 N   0  0  0  0  0  2  0  0  0  0  0  0
  189.8310  171.6880  140.6430 O   0  0  0  0  0  0  0  0  0  0  0  0
  190.1530  172.8430  138.7130 C   0  0  2  0  0  3  0  0  0  0  0  0
  190.3180  172.9110  140.9660 N   0  0  0  0  0  0  0  0  0  0  0  0
  190.7190  173.6740  139.8160 C   0  0  0  0  0  2  0  0  0  0  0  0
  188.2220  174.3130  138.5690 N   0  0  0  0  0  1  0  0  0  0  0  0
  189.2980  173.7070  137.8060 C   0  0  0  0  0  2  0  0  0  0  0  0
  184.3400  178.4310  144.0970 O   0  0  0  0  0  0  0  0  0  0  0  0
  183.8830  178.8380  145.3780 C   0  0  0  0  0  1  0  0  0  0  0  0
  189.7770  174.7810  147.2070 C   0  0  0  0  0  2  0  0  0  0  0  0
  190.8470  175.7550  147.6740 C   0  0  0  0  0  2  0  0  0  0  0  0
  192.2220  175.2900  147.2220 C   0  0  0  0  0  2  0  0  0  0  0  0
  192.3260  176.7620  145.3490 O   0  0  0  0  0  0  0  0  0  0  0  0
  192.8870  176.3360  146.3930 C   0  0  0  0  0  0  0  0  0  0  0  0
  194.1380  176.8170  146.7520 O   0  0  0  0  0  1  0  0  0  0  0  0
  1  4  1  0  0  0  0
  2  5  1  0  0  0  0
  3  8  2  0  0  0  0
  4  6  2  0  0  0  0
  5 12  1  0  0  0  0
  5  7  2  0  0  0  0
  6  7  1  0  0  0  0
  6 24  1  0  0  0  0
  8 22  1  0  0  0  0
  8 12  1  0  0  0  0
  9 10  1  0  0  0  0
 10  2  2  0  0  0  0
 10  4  1  0  0  0  0
 11  3  1  0  0  0  0
 11  2  1  0  0  0  0
 13  1  2  0  0  0  0
 14  9  2  0  0  0  0
 14 13  1  0  0  0  0
 15 16  1  0  0  0  0
 16 18  1  0  0  0  0
 17 21  1  6  0  0  0
 17 15  1  0  0  0  0
 17 19  1  0  0  0  0
 18 14  1  0  0  0  0
 19 18  1  0  0  0  0
 21 20  1  0  0  0  0
 22 23  1  0  0  0  0
 24 25  1  0  0  0  0
 26 25  1  0  0  0  0
 27 28  2  0  0  0  0
 28 29  1  0  0  0  0
 28 26  1  0  0  0  0
M  END
>  <MODEL>
2

>  <REMARK>
 VINA RESULT:      -6.9      1.925      5.207
  Name = 
  7 active torsions:
  status: ('A' for Active; 'I' for Inactive)
    1  A    between atoms: C_2  and  C_16
    2  A    between atoms: C_2  and  C_17
    3  A    between atoms: O_6  and  C_13
    4  A    between atoms: C_11  and  C_24
    5  A    between atoms: C_15  and  C_18
    6  A    between atoms: C_17  and  C_24
    7  A    between atoms: N_23  and  C_27
                            x       y       z     vdW  Elec       q    Type
                         _______ _______ _______ _____ _____    ______ ____

>  <TORSDO>
F 7

$$$$
=
 OpenBabel11042417283D

 29 32  0  0  1  0  0  0  0  0999 V2000
  189.1980  176.8400  146.7650 C   0  0  0  0  0  3  0  0  0  0  0  0
  189.1530  174.8720  143.6200 C   0  0  0  0  0  0  0  0  0  0  0  0
  189.1360  174.2710  141.2460 N   0  0  0  0  0  0  0  0  0  0  0  0
  189.5870  175.9260  145.7780 C   0  0  0  0  0  0  0  0  0  0  0  0
  190.3220  174.1080  143.7700 C   0  0  0  0  0  0  0  0  0  0  0  0
  190.7560  175.1500  145.9170 C   0  0  0  0  0  0  0  0  0  0  0  0
  191.1120  174.2470  144.9110 C   0  0  0  0  0  3  0  0  0  0  0  0
  190.2210  173.5590  141.3550 C   0  0  0  0  0  0  0  0  0  0  0  0
  187.6160  176.5520  144.5070 C   0  0  0  0  0  3  0  0  0  0  0  0
  188.7780  175.7820  144.6260 C   0  0  0  0  0  0  0  0  0  0  0  0
  188.3070  174.6460  142.3950 C   0  0  0  0  0  2  0  0  0  0  0  0
  190.7060  173.1140  142.7160 C   0  0  0  0  0  2  0  0  0  0  0  0
  188.0630  177.5740  146.6160 N   0  0  0  0  0  0  0  0  0  0  0  0
  187.2670  177.4570  145.5180 C   0  0  0  0  0  0  0  0  0  0  0  0
  185.2950  179.8440  144.2020 N   0  0  0  0  0  2  0  0  0  0  0  0
  186.1470  179.5910  145.2390 O   0  0  0  0  0  0  0  0  0  0  0  0
  184.2130  178.8640  144.2940 C   0  0  2  0  0  3  0  0  0  0  0  0
  186.0770  178.2490  145.4150 N   0  0  0  0  0  0  0  0  0  0  0  0
  184.8150  177.6970  145.0040 C   0  0  0  0  0  2  0  0  0  0  0  0
  184.9290  178.2510  142.0530 N   0  0  0  0  0  1  0  0  0  0  0  0
  183.7700  178.4450  142.9050 C   0  0  0  0  0  2  0  0  0  0  0  0
  190.9210  173.2160  140.1970 O   0  0  0  0  0  0  0  0  0  0  0  0
  190.4060  173.4630  138.8970 C   0  0  0  0  0  1  0  0  0  0  0  0
  191.6500  175.2790  147.1090 C   0  0  0  0  0  2  0  0  0  0  0  0
  192.6990  176.3510  146.8620 C   0  0  0  0  0  2  0  0  0  0  0  0
  194.0060  175.7210  146.4090 C   0  0  0  0  0  2  0  0  0  0  0  0
  194.8250  177.8780  145.8070 O   0  0  0  0  0  1  0  0  0  0  0  0
  194.7630  176.6530  145.5250 C   0  0  0  0  0  0  0  0  0  0  0  0
  195.3750  176.1760  144.3740 O   0  0  0  0  0  0  0  0  0  0  0  0
  2  5  2  0  0  0  0
  2 10  1  0  0  0  0
  3  8  2  0  0  0  0
  3 11  1  0  0  0  0
  4  6  1  0  0  0  0
  4  1  2  0  0  0  0
  5  7  1  0  0  0  0
  6 24  1  0  0  0  0
  7  6  2  0  0  0  0
  8 12  1  0  0  0  0
  9 10  2  0  0  0  0
  9 14  1  0  0  0  0
 10  4  1  0  0  0  0
 11  2  1  0  0  0  0
 12  5  1  0  0  0  0
 13  1  1  0  0  0  0
 14 13  2  0  0  0  0
 15 17  1  0  0  0  0
 15 16  1  0  0  0  0
 16 18  1  0  0  0  0
 17 21  1  6  0  0  0
 17 19  1  0  0  0  0
 18 14  1  0  0  0  0
 19 18  1  0  0  0  0
 20 21  1  0  0  0  0
 22  8  1  0  0  0  0
 23 22  1  0  0  0  0
 25 24  1  0  0  0  0
 26 25  1  0  0  0  0
 28 27  1  0  0  0  0
 28 26  1  0  0  0  0
 29 28  2  0  0  0  0
M  END
>  <MODEL>
3

>  <REMARK>
 VINA RESULT:      -6.8      2.687      7.478
  Name = 
  7 active torsions:
  status: ('A' for Active; 'I' for Inactive)
    1  A    between atoms: C_2  and  C_16
    2  A    between atoms: C_2  and  C_17
    3  A    between atoms: O_6  and  C_13
    4  A    between atoms: C_11  and  C_24
    5  A    between atoms: C_15  and  C_18
    6  A    between atoms: C_17  and  C_24
    7  A    between atoms: N_23  and  C_27
                            x       y       z     vdW  Elec       q    Type
                         _______ _______ _______ _____ _____    ______ ____

>  <TORSDO>
F 7

$$$$
=
 OpenBabel11042417283D

 29 32  0  0  1  0  0  0  0  0999 V2000
  190.3220  177.0390  146.4300 C   0  0  0  0  0  3  0  0  0  0  0  0
  189.3280  175.0670  143.4490 C   0  0  0  0  0  0  0  0  0  0  0  0
  188.3320  174.4220  141.3070 N   0  0  0  0  0  0  0  0  0  0  0  0
  190.4280  176.2680  145.2650 C   0  0  0  0  0  0  0  0  0  0  0  0
  190.5860  174.7220  142.9290 C   0  0  0  0  0  0  0  0  0  0  0  0
  191.6850  175.9110  144.7340 C   0  0  0  0  0  0  0  0  0  0  0  0
  191.7520  175.1400  143.5710 C   0  0  0  0  0  3  0  0  0  0  0  0
  189.4860  174.0970  140.7970 C   0  0  0  0  0  0  0  0  0  0  0  0
  188.0040  176.1930  145.1670 C   0  0  0  0  0  3  0  0  0  0  0  0
  189.2440  175.8380  144.6220 C   0  0  0  0  0  0  0  0  0  0  0  0
  188.1010  174.5450  142.7480 C   0  0  0  0  0  2  0  0  0  0  0  0
  190.6790  173.8720  141.6970 C   0  0  0  0  0  2  0  0  0  0  0  0
  189.1010  177.3660  146.9310 N   0  0  0  0  0  0  0  0  0  0  0  0
  187.9450  176.9680  146.3320 C   0  0  0  0  0  0  0  0  0  0  0  0
  185.5530  179.1150  147.3220 N   0  0  0  0  0  2  0  0  0  0  0  0
  186.5920  178.3610  147.7860 O   0  0  0  0  0  0  0  0  0  0  0  0
  184.6030  178.1910  146.7010 C   0  0  2  0  0  3  0  0  0  0  0  0
  186.6840  177.3340  146.9060 N   0  0  0  0  0  0  0  0  0  0  0  0
  185.4300  177.0220  146.2780 C   0  0  0  0  0  2  0  0  0  0  0  0
  184.9830  179.5100  144.6940 N   0  0  0  0  0  1  0  0  0  0  0  0
  183.9680  178.8370  145.4840 C   0  0  0  0  0  2  0  0  0  0  0  0
  189.5970  173.9620  139.4130 O   0  0  0  0  0  0  0  0  0  0  0  0
  188.4670  173.9870  138.5530 C   0  0  0  0  0  1  0  0  0  0  0  0
  192.9640  176.3540  145.3700 C   0  0  0  0  0  2  0  0  0  0  0  0
  193.6350  175.1810  146.0660 C   0  0  0  0  0  2  0  0  0  0  0  0
  195.1460  175.2750  145.9280 C   0  0  0  0  0  2  0  0  0  0  0  0
  195.3750  174.3360  143.7490 O   0  0  0  0  0  0  0  0  0  0  0  0
  195.5430  175.3380  144.4930 C   0  0  0  0  0  0  0  0  0  0  0  0
  196.1280  176.4890  143.9830 O   0  0  0  0  0  1  0  0  0  0  0  0
  1 13  1  0  0  0  0
  2 10  1  0  0  0  0
  3 11  1  0  0  0  0
  4  1  2  0  0  0  0
  5  2  2  0  0  0  0
  5  7  1  0  0  0  0
  6  4  1  0  0  0  0
  6 24  1  0  0  0  0
  7  6  2  0  0  0  0
  8  3  2  0  0  0  0
  8 12  1  0  0  0  0
  9 14  1  0  0  0  0
 10  9  2  0  0  0  0
 10  4  1  0  0  0  0
 11  2  1  0  0  0  0
 12  5  1  0  0  0  0
 14 18  1  0  0  0  0
 14 13  2  0  0  0  0
 15 16  1  0  0  0  0
 17 21  1  6  0  0  0
 17 15  1  0  0  0  0
 18 16  1  0  0  0  0
 19 17  1  0  0  0  0
 19 18  1  0  0  0  0
 20 21  1  0  0  0  0
 22  8  1  0  0  0  0
 23 22  1  0  0  0  0
 24 25  1  0  0  0  0
 26 25  1  0  0  0  0
 27 28  2  0  0  0  0
 28 26  1  0  0  0  0
 29 28  1  0  0  0  0
M  END
>  <MODEL>
4

>  <REMARK>
 VINA RESULT:      -6.8      3.132      8.219
  Name = 
  7 active torsions:
  status: ('A' for Active; 'I' for Inactive)
    1  A    between atoms: C_2  and  C_16
    2  A    between atoms: C_2  and  C_17
    3  A    between atoms: O_6  and  C_13
    4  A    between atoms: C_11  and  C_24
    5  A    between atoms: C_15  and  C_18
    6  A    between atoms: C_17  and  C_24
    7  A    between atoms: N_23  and  C_27
                            x       y       z     vdW  Elec       q    Type
                         _______ _______ _______ _____ _____    ______ ____

>  <TORSDO>
F 7

$$$$
=
 OpenBabel11042417283D

 29 32  0  0  1  0  0  0  0  0999 V2000
  189.2130  175.2770  144.5240 C   0  0  0  0  0  3  0  0  0  0  0  0
  187.2380  177.0110  141.9060 C   0  0  0  0  0  0  0  0  0  0  0  0
  185.6940  177.4460  140.0550 N   0  0  0  0  0  0  0  0  0  0  0  0
  188.3070  176.1640  143.9290 C   0  0  0  0  0  0  0  0  0  0  0  0
  186.5050  177.9190  142.6860 C   0  0  0  0  0  0  0  0  0  0  0  0
  187.5670  177.0830  144.7000 C   0  0  0  0  0  0  0  0  0  0  0  0
  186.6720  177.9530  144.0710 C   0  0  0  0  0  3  0  0  0  0  0  0
  184.9930  178.2900  140.7570 C   0  0  0  0  0  0  0  0  0  0  0  0
  188.8950  175.2200  141.7710 C   0  0  0  0  0  3  0  0  0  0  0  0
  188.1460  176.1320  142.5240 C   0  0  0  0  0  0  0  0  0  0  0  0
  187.0600  177.0510  140.4110 C   0  0  0  0  0  2  0  0  0  0  0  0
  185.5610  178.8810  142.0270 C   0  0  0  0  0  2  0  0  0  0  0  0
  189.9230  174.4030  143.7620 N   0  0  0  0  0  0  0  0  0  0  0  0
  189.7870  174.3490  142.4090 C   0  0  0  0  0  0  0  0  0  0  0  0
  190.5560  171.3180  141.1690 N   0  0  0  0  0  2  0  0  0  0  0  0
  190.8810  172.1970  142.1630 O   0  0  0  0  0  0  0  0  0  0  0  0
  190.7950  172.0060  139.9000 C   0  0  2  0  0  3  0  0  0  0  0  0
  190.5660  173.4130  141.6530 N   0  0  0  0  0  0  0  0  0  0  0  0
  190.6470  173.4560  140.2190 C   0  0  0  0  0  2  0  0  0  0  0  0
  188.5220  172.3410  139.1020 N   0  0  0  0  0  1  0  0  0  0  0  0
  189.7480  171.5960  138.8810 C   0  0  0  0  0  2  0  0  0  0  0  0
  183.7160  178.6370  140.3140 O   0  0  0  0  0  0  0  0  0  0  0  0
  182.5460  178.3480  141.0650 C   0  0  0  0  0  1  0  0  0  0  0  0
  187.6920  177.1430  146.1890 C   0  0  0  0  0  2  0  0  0  0  0  0
  186.4890  176.4820  146.8410 C   0  0  0  0  0  2  0  0  0  0  0  0
  185.9580  177.3430  147.9760 C   0  0  0  0  0  2  0  0  0  0  0  0
  184.2530  178.5200  146.7960 O   0  0  0  0  0  0  0  0  0  0  0  0
  185.3290  178.5860  147.4460 C   0  0  0  0  0  0  0  0  0  0  0  0
  185.9450  179.8150  147.6400 O   0  0  0  0  0  1  0  0  0  0  0  0
  2 10  2  0  0  0  0
  2  5  1  0  0  0  0
  3 11  1  0  0  0  0
  3  8  2  0  0  0  0
  4  1  1  0  0  0  0
  4  6  2  0  0  0  0
  5  7  2  0  0  0  0
  6 24  1  0  0  0  0
  7  6  1  0  0  0  0
  8 12  1  0  0  0  0
  9 14  2  0  0  0  0
  9 10  1  0  0  0  0
 10  4  1  0  0  0  0
 11  2  1  0  0  0  0
 12  5  1  0  0  0  0
 13  1  2  0  0  0  0
 14 13  1  0  0  0  0
 15 16  1  0  0  0  0
 17 21  1  6  0  0  0
 17 19  1  0  0  0  0
 17 15  1  0  0  0  0
 18 16  1  0  0  0  0
 18 14  1  0  0  0  0
 19 18  1  0  0  0  0
 21 20  1  0  0  0  0
 22  8  1  0  0  0  0
 22 23  1  0  0  0  0
 24 25  1  0  0  0  0
 25 26  1  0  0  0  0
 27 28  2  0  0  0  0
 28 29  1  0  0  0  0
 28 26  1  0  0  0  0
M  END
>  <MODEL>
5

>  <REMARK>
 VINA RESULT:      -6.8      2.468      4.854
  Name = 
  7 active torsions:
  status: ('A' for Active; 'I' for Inactive)
    1  A    between atoms: C_2  and  C_16
    2  A    between atoms: C_2  and  C_17
    3  A    between atoms: O_6  and  C_13
    4  A    between atoms: C_11  and  C_24
    5  A    between atoms: C_15  and  C_18
    6  A    between atoms: C_17  and  C_24
    7  A    between atoms: N_23  and  C_27
                            x       y       z     vdW  Elec       q    Type
                         _______ _______ _______ _____ _____    ______ ____

>  <TORSDO>
F 7

$$$$
=
 OpenBabel11042417283D

 29 32  0  0  1  0  0  0  0  0999 V2000
  190.2290  173.7970  144.4080 C   0  0  0  0  0  3  0  0  0  0  0  0
  187.8930  176.5850  143.6740 C   0  0  0  0  0  0  0  0  0  0  0  0
  185.9530  177.8550  142.8870 N   0  0  0  0  0  0  0  0  0  0  0  0
  189.3690  174.8840  144.6130 C   0  0  0  0  0  0  0  0  0  0  0  0
  187.6380  177.0640  144.9690 C   0  0  0  0  0  0  0  0  0  0  0  0
  189.1070  175.3770  145.9080 C   0  0  0  0  0  0  0  0  0  0  0  0
  188.2440  176.4640  146.0740 C   0  0  0  0  0  3  0  0  0  0  0  0
  185.6900  178.3110  144.0790 C   0  0  0  0  0  0  0  0  0  0  0  0
  189.0410  175.0000  142.2100 C   0  0  0  0  0  3  0  0  0  0  0  0
  188.7640  175.4950  143.4900 C   0  0  0  0  0  0  0  0  0  0  0  0
  187.2570  177.3020  142.5120 C   0  0  0  0  0  2  0  0  0  0  0  0
  186.7380  178.2470  145.1670 C   0  0  0  0  0  2  0  0  0  0  0  0
  190.4750  173.3420  143.1510 N   0  0  0  0  0  0  0  0  0  0  0  0
  189.9050  173.9090  142.0530 C   0  0  0  0  0  0  0  0  0  0  0  0
  191.8700  172.5360  139.6930 N   0  0  0  0  0  2  0  0  0  0  0  0
  191.3560  173.7280  140.1160 O   0  0  0  0  0  0  0  0  0  0  0  0
  190.7320  171.6670  139.3900 C   0  0  2  0  0  3  0  0  0  0  0  0
  190.2050  173.3940  140.7490 N   0  0  0  0  0  0  0  0  0  0  0  0
  189.6230  172.1790  140.2470 C   0  0  0  0  0  2  0  0  0  0  0  0
  190.7610  170.0170  141.1760 N   0  0  0  0  0  1  0  0  0  0  0  0
  191.0550  170.2350  139.7710 C   0  0  0  0  0  2  0  0  0  0  0  0
  184.4310  178.8590  144.3280 O   0  0  0  0  0  0  0  0  0  0  0  0
  183.8410  178.8510  145.6190 C   0  0  0  0  0  1  0  0  0  0  0  0
  189.7120  174.7540  147.1250 C   0  0  0  0  0  2  0  0  0  0  0  0
  190.8050  175.6520  147.6820 C   0  0  0  0  0  2  0  0  0  0  0  0
  192.1670  175.2130  147.1680 C   0  0  0  0  0  2  0  0  0  0  0  0
  193.8980  176.8260  146.8780 O   0  0  0  0  0  1  0  0  0  0  0  0
  192.8350  176.3220  146.4290 C   0  0  0  0  0  0  0  0  0  0  0  0
  192.2710  176.8210  145.2630 O   0  0  0  0  0  0  0  0  0  0  0  0
  1  4  1  0  0  0  0
  2  5  1  0  0  0  0
  3  8  2  0  0  0  0
  4  6  2  0  0  0  0
  5 12  1  0  0  0  0
  5  7  2  0  0  0  0
  6  7  1  0  0  0  0
  6 24  1  0  0  0  0
  8 22  1  0  0  0  0
  8 12  1  0  0  0  0
  9 10  1  0  0  0  0
 10  2  2  0  0  0  0
 10  4  1  0  0  0  0
 11  3  1  0  0  0  0
 11  2  1  0  0  0  0
 13  1  2  0  0  0  0
 14  9  2  0  0  0  0
 14 13  1  0  0  0  0
 15 16  1  0  0  0  0
 16 18  1  0  0  0  0
 17 15  1  0  0  0  0
 17 21  1  1  0  0  0
 17 19  1  0  0  0  0
 18 14  1  0  0  0  0
 19 18  1  0  0  0  0
 21 20  1  0  0  0  0
 22 23  1  0  0  0  0
 24 25  1  0  0  0  0
 26 25  1  0  0  0  0
 28 27  1  0  0  0  0
 28 26  1  0  0  0  0
 29 28  2  0  0  0  0
M  END
>  <MODEL>
6

>  <REMARK>
 VINA RESULT:      -6.7      2.137      5.293
  Name = 
  7 active torsions:
  status: ('A' for Active; 'I' for Inactive)
    1  A    between atoms: C_2  and  C_16
    2  A    between atoms: C_2  and  C_17
    3  A    between atoms: O_6  and  C_13
    4  A    between atoms: C_11  and  C_24
    5  A    between atoms: C_15  and  C_18
    6  A    between atoms: C_17  and  C_24
    7  A    between atoms: N_23  and  C_27
                            x       y       z     vdW  Elec       q    Type
                         _______ _______ _______ _____ _____    ______ ____

>  <TORSDO>
F 7

$$$$
=
 OpenBabel11042417283D

 29 32  0  0  1  0  0  0  0  0999 V2000
  190.4290  175.1720  142.6060 C   0  0  0  0  0  3  0  0  0  0  0  0
  187.2290  177.0200  142.9420 C   0  0  0  0  0  0  0  0  0  0  0  0
  184.8530  177.5330  143.2360 N   0  0  0  0  0  0  0  0  0  0  0  0
  189.4670  176.0610  143.1030 C   0  0  0  0  0  0  0  0  0  0  0  0
  187.5060  177.8270  144.0580 C   0  0  0  0  0  0  0  0  0  0  0  0
  189.7330  176.8800  144.2200 C   0  0  0  0  0  0  0  0  0  0  0  0
  188.7500  177.7560  144.6870 C   0  0  0  0  0  3  0  0  0  0  0  0
  185.0800  178.2840  144.2760 C   0  0  0  0  0  0  0  0  0  0  0  0
  187.9650  175.3250  141.3440 C   0  0  0  0  0  3  0  0  0  0  0  0
  188.2110  176.1370  142.4570 C   0  0  0  0  0  0  0  0  0  0  0  0
  185.8920  177.1740  142.2670 C   0  0  0  0  0  2  0  0  0  0  0  0
  186.4740  178.7940  144.5570 C   0  0  0  0  0  2  0  0  0  0  0  0
  190.1560  174.3970  141.5230 N   0  0  0  0  0  0  0  0  0  0  0  0
  188.9560  174.4470  140.8840 C   0  0  0  0  0  0  0  0  0  0  0  0
  188.9440  173.6990  137.6040 N   0  0  0  0  0  2  0  0  0  0  0  0
  188.1350  174.1090  138.6250 O   0  0  0  0  0  0  0  0  0  0  0  0
  189.5000  172.4040  137.9970 C   0  0  2  0  0  3  0  0  0  0  0  0
  188.7230  173.6130  139.7420 N   0  0  0  0  0  0  0  0  0  0  0  0
  189.4840  172.4190  139.4890 C   0  0  0  0  0  2  0  0  0  0  0  0
  191.0400  172.8400  136.1670 N   0  0  0  0  0  1  0  0  0  0  0  0
  190.9280  172.2790  137.5010 C   0  0  0  0  0  2  0  0  0  0  0  0
  184.0150  178.6060  145.1190 O   0  0  0  0  0  0  0  0  0  0  0  0
  184.0620  178.3850  146.5210 C   0  0  0  0  0  1  0  0  0  0  0  0
  191.0400  176.8240  144.9440 C   0  0  0  0  0  2  0  0  0  0  0  0
  190.8040  176.6880  146.4400 C   0  0  0  0  0  2  0  0  0  0  0  0
  190.9950  175.2450  146.8790 C   0  0  0  0  0  2  0  0  0  0  0  0
  188.7770  174.6630  147.5300 O   0  0  0  0  0  1  0  0  0  0  0  0
  189.7290  174.4740  146.7280 C   0  0  0  0  0  0  0  0  0  0  0  0
  189.6080  173.5230  145.7230 O   0  0  0  0  0  0  0  0  0  0  0  0
  1  4  1  0  0  0  0
  2  5  1  0  0  0  0
  3  8  2  0  0  0  0
  4  6  2  0  0  0  0
  5 12  1  0  0  0  0
  5  7  2  0  0  0  0
  6  7  1  0  0  0  0
  6 24  1  0  0  0  0
  8 12  1  0  0  0  0
  8 22  1  0  0  0  0
  9 10  1  0  0  0  0
 10  2  2  0  0  0  0
 10  4  1  0  0  0  0
 11  2  1  0  0  0  0
 11  3  1  0  0  0  0
 13  1  2  0  0  0  0
 14  9  2  0  0  0  0
 14 13  1  0  0  0  0
 15 17  1  0  0  0  0
 15 16  1  0  0  0  0
 16 18  1  0  0  0  0
 17 21  1  1  0  0  0
 17 19  1  0  0  0  0
 18 14  1  0  0  0  0
 19 18  1  0  0  0  0
 20 21  1  0  0  0  0
 22 23  1  0  0  0  0
 24 25  1  0  0  0  0
 25 26  1  0  0  0  0
 28 26  1  0  0  0  0
 28 27  1  0  0  0  0
 29 28  2  0  0  0  0
M  END
>  <MODEL>
7

>  <REMARK>
 VINA RESULT:      -6.7      1.766      4.450
  Name = 
  7 active torsions:
  status: ('A' for Active; 'I' for Inactive)
    1  A    between atoms: C_2  and  C_16
    2  A    between atoms: C_2  and  C_17
    3  A    between atoms: O_6  and  C_13
    4  A    between atoms: C_11  and  C_24
    5  A    between atoms: C_15  and  C_18
    6  A    between atoms: C_17  and  C_24
    7  A    between atoms: N_23  and  C_27
                            x       y       z     vdW  Elec       q    Type
                         _______ _______ _______ _____ _____    ______ ____

>  <TORSDO>
F 7

$$$$
=
 OpenBabel11042417283D

 29 32  0  0  1  0  0  0  0  0999 V2000
  190.4010  175.1350  142.4380 C   0  0  0  0  0  3  0  0  0  0  0  0
  187.2480  176.9430  143.1840 C   0  0  0  0  0  0  0  0  0  0  0  0
  184.9020  177.4250  143.6950 N   0  0  0  0  0  0  0  0  0  0  0  0
  189.4840  175.9700  143.0880 C   0  0  0  0  0  0  0  0  0  0  0  0
  187.6090  177.6320  144.3530 C   0  0  0  0  0  0  0  0  0  0  0  0
  189.8340  176.6700  144.2610 C   0  0  0  0  0  0  0  0  0  0  0  0
  188.8920  177.4960  144.8830 C   0  0  0  0  0  3  0  0  0  0  0  0
  185.2070  178.0660  144.7870 C   0  0  0  0  0  0  0  0  0  0  0  0
  187.8560  175.4180  141.3740 C   0  0  0  0  0  3  0  0  0  0  0  0
  188.1860  176.1120  142.5440 C   0  0  0  0  0  0  0  0  0  0  0  0
  185.8680  177.1650  142.6240 C   0  0  0  0  0  2  0  0  0  0  0  0
  186.6220  178.5440  145.0190 C   0  0  0  0  0  2  0  0  0  0  0  0
  190.0460  174.4740  141.3040 N   0  0  0  0  0  0  0  0  0  0  0  0
  188.8040  174.5900  140.7590 C   0  0  0  0  0  0  0  0  0  0  0  0
  188.7280  174.0980  137.4320 N   0  0  0  0  0  2  0  0  0  0  0  0
  187.9650  174.5200  138.4830 O   0  0  0  0  0  0  0  0  0  0  0  0
  189.1300  172.7220  137.7250 C   0  0  2  0  0  3  0  0  0  0  0  0
  188.4860  173.8770  139.5570 N   0  0  0  0  0  0  0  0  0  0  0  0
  189.1060  172.6270  139.2140 C   0  0  0  0  0  2  0  0  0  0  0  0
  191.4120  173.5570  137.6260 N   0  0  0  0  0  1  0  0  0  0  0  0
  190.5380  172.4720  137.2170 C   0  0  0  0  0  2  0  0  0  0  0  0
  184.2070  178.3020  145.7310 O   0  0  0  0  0  0  0  0  0  0  0  0
  184.4940  178.5140  147.1060 C   0  0  0  0  0  1  0  0  0  0  0  0
  191.1880  176.5400  144.8820 C   0  0  0  0  0  2  0  0  0  0  0  0
  191.0620  176.4440  146.3940 C   0  0  0  0  0  2  0  0  0  0  0  0
  192.0710  175.4520  146.9490 C   0  0  0  0  0  2  0  0  0  0  0  0
  194.1590  175.0400  145.8740 O   0  0  0  0  0  0  0  0  0  0  0  0
  193.4580  175.8330  146.5570 C   0  0  0  0  0  0  0  0  0  0  0  0
  193.9900  177.0470  146.9700 O   0  0  0  0  0  1  0  0  0  0  0  0
  1  4  1  0  0  0  0
  2  5  1  0  0  0  0
  3  8  2  0  0  0  0
  4  6  2  0  0  0  0
  5  7  2  0  0  0  0
  5 12  1  0  0  0  0
  6 24  1  0  0  0  0
  6  7  1  0  0  0  0
  8 12  1  0  0  0  0
  8 22  1  0  0  0  0
  9 10  1  0  0  0  0
 10  4  1  0  0  0  0
 10  2  2  0  0  0  0
 11  2  1  0  0  0  0
 11  3  1  0  0  0  0
 13  1  2  0  0  0  0
 14 13  1  0  0  0  0
 14  9  2  0  0  0  0
 15 17  1  0  0  0  0
 15 16  1  0  0  0  0
 16 18  1  0  0  0  0
 17 21  1  1  0  0  0
 17 19  1  0  0  0  0
 18 14  1  0  0  0  0
 19 18  1  0  0  0  0
 21 20  1  0  0  0  0
 22 23  1  0  0  0  0
 24 25  1  0  0  0  0
 25 26  1  0  0  0  0
 27 28  2  0  0  0  0
 28 26  1  0  0  0  0
 28 29  1  0  0  0  0
M  END
>  <MODEL>
8

>  <REMARK>
 VINA RESULT:      -6.6      1.659      4.965
  Name = 
  7 active torsions:
  status: ('A' for Active; 'I' for Inactive)
    1  A    between atoms: C_2  and  C_16
    2  A    between atoms: C_2  and  C_17
    3  A    between atoms: O_6  and  C_13
    4  A    between atoms: C_11  and  C_24
    5  A    between atoms: C_15  and  C_18
    6  A    between atoms: C_17  and  C_24
    7  A    between atoms: N_23  and  C_27
                            x       y       z     vdW  Elec       q    Type
                         _______ _______ _______ _____ _____    ______ ____

>  <TORSDO>
F 7

$$$$
=
 OpenBabel11042417283D

 29 32  0  0  1  0  0  0  0  0999 V2000
  189.3780  176.7870  145.7980 C   0  0  0  0  0  3  0  0  0  0  0  0
  189.2440  174.0180  143.3310 C   0  0  0  0  0  0  0  0  0  0  0  0
  189.2860  172.7670  141.2270 N   0  0  0  0  0  0  0  0  0  0  0  0
  189.6920  175.5880  145.1450 C   0  0  0  0  0  0  0  0  0  0  0  0
  190.2800  173.1950  143.8020 C   0  0  0  0  0  0  0  0  0  0  0  0
  190.7270  174.7500  145.6090 C   0  0  0  0  0  0  0  0  0  0  0  0
  191.0110  173.5610  144.9330 C   0  0  0  0  0  3  0  0  0  0  0  0
  190.2490  171.9910  141.6360 C   0  0  0  0  0  0  0  0  0  0  0  0
  187.9120  176.0540  143.5610 C   0  0  0  0  0  3  0  0  0  0  0  0
  188.9420  175.2170  144.0040 C   0  0  0  0  0  0  0  0  0  0  0  0
  188.4500  173.5530  142.1390 C   0  0  0  0  0  2  0  0  0  0  0  0
  190.5810  171.9010  143.1080 C   0  0  0  0  0  2  0  0  0  0  0  0
  188.3710  177.5780  145.3390 N   0  0  0  0  0  0  0  0  0  0  0  0
  187.6350  177.2460  144.2430 C   0  0  0  0  0  0  0  0  0  0  0  0
  184.4870  177.9960  143.3230 N   0  0  0  0  0  2  0  0  0  0  0  0
  185.7300  177.7330  142.8210 O   0  0  0  0  0  0  0  0  0  0  0  0
  184.6190  179.1690  144.1870 C   0  0  2  0  0  3  0  0  0  0  0  0
  186.5800  178.1120  143.8070 N   0  0  0  0  0  0  0  0  0  0  0  0
  186.0400  179.1520  144.6410 C   0  0  0  0  0  2  0  0  0  0  0  0
  184.3420  178.2590  146.4240 N   0  0  0  0  0  1  0  0  0  0  0  0
  183.6960  179.0400  145.3840 C   0  0  0  0  0  2  0  0  0  0  0  0
  190.9610  171.2480  140.6930 O   0  0  0  0  0  0  0  0  0  0  0  0
  190.8150  169.8420  140.5650 C   0  0  0  0  0  1  0  0  0  0  0  0
  191.5550  175.1080  146.8010 C   0  0  0  0  0  2  0  0  0  0  0  0
  193.0320  175.0510  146.4470 C   0  0  0  0  0  2  0  0  0  0  0  0
  193.5300  176.4230  146.0210 C   0  0  0  0  0  2  0  0  0  0  0  0
  195.2100  176.4100  144.3290 O   0  0  0  0  0  1  0  0  0  0  0  0
  193.9810  176.4050  144.6000 C   0  0  0  0  0  0  0  0  0  0  0  0
  193.0460  176.4140  143.5740 O   0  0  0  0  0  0  0  0  0  0  0  0
  2  5  2  0  0  0  0
  2 10  1  0  0  0  0
  3  8  2  0  0  0  0
  3 11  1  0  0  0  0
  4  6  1  0  0  0  0
  4  1  2  0  0  0  0
  5  7  1  0  0  0  0
  6 24  1  0  0  0  0
  7  6  2  0  0  0  0
  8 12  1  0  0  0  0
  9 10  2  0  0  0  0
  9 14  1  0  0  0  0
 10  4  1  0  0  0  0
 11  2  1  0  0  0  0
 12  5  1  0  0  0  0
 13  1  1  0  0  0  0
 14 13  2  0  0  0  0
 15 17  1  0  0  0  0
 16 15  1  0  0  0  0
 16 18  1  0  0  0  0
 17 19  1  0  0  0  0
 17 21  1  1  0  0  0
 18 14  1  0  0  0  0
 18 19  1  0  0  0  0
 21 20  1  0  0  0  0
 22  8  1  0  0  0  0
 23 22  1  0  0  0  0
 25 24  1  0  0  0  0
 26 25  1  0  0  0  0
 27 28  1  0  0  0  0
 28 26  1  0  0  0  0
 29 28  2  0  0  0  0
M  END
>  <MODEL>
9

>  <REMARK>
 VINA RESULT:      -6.5      2.950      7.473
  Name = 
  7 active torsions:
  status: ('A' for Active; 'I' for Inactive)
    1  A    between atoms: C_2  and  C_16
    2  A    between atoms: C_2  and  C_17
    3  A    between atoms: O_6  and  C_13
    4  A    between atoms: C_11  and  C_24
    5  A    between atoms: C_15  and  C_18
    6  A    between atoms: C_17  and  C_24
    7  A    between atoms: N_23  and  C_27
                            x       y       z     vdW  Elec       q    Type
                         _______ _______ _______ _____ _____    ______ ____

>  <TORSDO>
F 7

$$$$
