=
 OpenBabel11042416083D

 34 36  0  0  1  0  0  0  0  0999 V2000
  191.2720  176.4620  148.0500 Cl  0  0  0  0  0  0  0  0  0  0  0  0
  193.0770  176.6830  142.8090 Cl  0  0  0  0  0  0  0  0  0  0  0  0
  191.8300  176.8160  144.0410 C   0  0  0  0  0  0  0  0  0  0  0  0
  189.7560  177.2450  145.8850 C   0  0  0  0  0  0  0  0  0  0  0  0
  189.5550  177.4950  144.5290 C   0  0  0  0  0  3  0  0  0  0  0  0
  190.5860  177.2880  143.6160 C   0  0  0  0  0  3  0  0  0  0  0  0
  192.0480  176.5420  145.4180 C   0  0  0  0  0  0  0  0  0  0  0  0
  191.0060  176.7800  146.3340 C   0  0  0  0  0  0  0  0  0  0  0  0
  193.2630  176.0550  145.9270 O   0  0  0  0  0  0  0  0  0  0  0  0
  193.5010  174.7080  146.3020 C   0  0  0  0  0  2  0  0  0  0  0  0
  193.7890  173.8840  145.0660 C   0  0  0  0  0  2  0  0  0  0  0  0
  192.6930  173.0150  144.8120 O   0  0  0  0  0  0  0  0  0  0  0  0
  191.0430  173.7970  141.1810 S   0  0  0  0  0  0  0  0  0  0  0  0
  189.3940  173.0060  143.1840 C   0  0  0  0  0  3  0  0  0  0  0  0
  189.7630  172.6460  141.7770 C   0  0  1  0  0  3  0  0  0  0  0  0
  189.8930  173.5320  145.5050 C   0  0  0  0  0  1  0  0  0  0  0  0
  191.7720  173.2260  143.7780 C   0  0  0  0  0  0  0  0  0  0  0  0
  192.1810  173.3660  142.5080 C   0  0  0  0  0  3  0  0  0  0  0  0
  190.3280  173.2540  144.1090 C   0  0  0  0  0  0  0  0  0  0  0  0
  187.3440  172.8940  141.7160 N   0  0  0  0  0  1  0  0  0  0  0  0
  188.5310  172.7230  140.8960 C   0  0  0  0  0  2  0  0  0  0  0  0
  188.6360  177.5050  146.8360 C   0  0  0  0  0  2  0  0  0  0  0  0
  187.6640  176.3360  146.8340 C   0  0  0  0  0  2  0  0  0  0  0  0
  186.2490  176.8290  146.5910 C   0  0  0  0  0  2  0  0  0  0  0  0
  185.6740  179.1830  145.7470 C   0  0  1  0  0  3  0  0  0  0  0  0
  184.8070  178.7350  146.7640 O   0  0  0  0  0  0  0  0  0  0  0  0
  186.1480  178.3270  146.8800 C   0  0  1  0  0  3  0  0  0  0  0  0
  186.4380  178.1260  143.5670 N   0  0  0  0  0  2  0  0  0  0  0  0
  184.1870  178.1450  144.1930 O   0  0  0  0  0  0  0  0  0  0  0  0
  185.3750  178.4650  144.4620 C   0  0  0  0  0  0  0  0  0  0  0  0
  186.2120  177.4200  142.3150 C   0  0  2  0  0  3  0  0  0  0  0  0
  186.3710  176.0460  142.5100 O   0  0  0  0  0  1  0  0  0  0  0  0
  187.1760  177.9000  141.2790 C   0  0  0  0  0  3  0  0  0  0  0  0
  186.9370  177.7560  140.0900 O   0  0  0  0  0  0  0  0  0  0  0  0
  2  3  1  0  0  0  0
  3  7  1  0  0  0  0
  4  8  1  0  0  0  0
  4 22  1  0  0  0  0
  5  4  2  0  0  0  0
  6  3  2  0  0  0  0
  6  5  1  0  0  0  0
  7  9  1  0  0  0  0
  7  8  2  0  0  0  0
  8  1  1  0  0  0  0
  9 10  1  0  0  0  0
 11 10  1  0  0  0  0
 12 11  1  0  0  0  0
 13 15  1  0  0  0  0
 13 18  1  0  0  0  0
 14 19  2  0  0  0  0
 15 21  1  6  0  0  0
 15 14  1  0  0  0  0
 17 19  1  0  0  0  0
 17 12  1  0  0  0  0
 18 17  2  0  0  0  0
 19 16  1  0  0  0  0
 21 20  1  0  0  0  0
 23 22  1  0  0  0  0
 24 23  1  0  0  0  0
 25 30  1  6  0  0  0
 25 26  1  0  0  0  0
 25 27  1  0  0  0  0
 26 27  1  0  0  0  0
 27 24  1  6  0  0  0
 28 30  1  0  0  0  0
 29 30  2  0  0  0  0
 31 32  1  1  0  0  0
 31 28  1  0  0  0  0
 33 31  1  0  0  0  0
 34 33  2  0  0  0  0
M  END
>  <MODEL>
1

>  <REMARK>
 VINA RESULT:      -6.2      0.000      0.000
  Name = 
  13 active torsions:
  status: ('A' for Active; 'I' for Inactive)
    1  A    between atoms: C_3  and  C_19
    2  A    between atoms: C_5  and  C_11
    3  A    between atoms: C_5  and  C_22
    4  A    between atoms: C_7  and  N_9
    5  A    between atoms: C_7  and  C_17
    6  A    between atoms: C_8  and  O_12
    7  A    between atoms: C_8  and  C_28
    8  A    between atoms: C_11  and  C_20
    9  A    between atoms: O_12  and  C_32
   10  A    between atoms: C_14  and  C_26
   11  A    between atoms: C_20  and  C_23
   12  A    between atoms: O_21  and  C_25
   13  A    between atoms: O_21  and  C_28
                            x       y       z     vdW  Elec       q    Type
                         _______ _______ _______ _____ _____    ______ ____

>  <TORSDO>
F 13

$$$$
=
 OpenBabel11042416083D

 34 36  0  0  1  0  0  0  0  0999 V2000
  190.9490  177.3960  142.9100 Cl  0  0  0  0  0  0  0  0  0  0  0  0
  191.2200  171.8690  142.5300 Cl  0  0  0  0  0  0  0  0  0  0  0  0
  190.7260  173.3600  143.3180 C   0  0  0  0  0  0  0  0  0  0  0  0
  189.7020  175.6280  144.6190 C   0  0  0  0  0  0  0  0  0  0  0  0
  189.3810  174.3510  145.0750 C   0  0  0  0  0  3  0  0  0  0  0  0
  189.8850  173.2270  144.4250 C   0  0  0  0  0  3  0  0  0  0  0  0
  191.0740  174.6550  142.8480 C   0  0  0  0  0  0  0  0  0  0  0  0
  190.5390  175.7830  143.4980 C   0  0  0  0  0  0  0  0  0  0  0  0
  191.9220  174.8780  141.7510 O   0  0  0  0  0  0  0  0  0  0  0  0
  193.1820  174.2540  141.5610 C   0  0  0  0  0  2  0  0  0  0  0  0
  194.2790  175.1770  142.0420 C   0  0  0  0  0  2  0  0  0  0  0  0
  194.7800  174.7070  143.2870 O   0  0  0  0  0  0  0  0  0  0  0  0
  194.2130  177.1220  146.5070 S   0  0  0  0  0  0  0  0  0  0  0  0
  192.8030  174.8080  146.3870 C   0  0  0  0  0  3  0  0  0  0  0  0
  192.5970  176.2820  146.5550 C   0  0  1  0  0  3  0  0  0  0  0  0
  193.7030  172.8420  145.2740 C   0  0  0  0  0  1  0  0  0  0  0  0
  194.3570  175.2120  144.5230 C   0  0  0  0  0  0  0  0  0  0  0  0
  194.5980  176.4860  144.8670 C   0  0  0  0  0  3  0  0  0  0  0  0
  193.6030  174.3190  145.4340 C   0  0  0  0  0  0  0  0  0  0  0  0
  191.1390  175.3800  148.2810 N   0  0  0  0  0  1  0  0  0  0  0  0
  191.9020  176.5480  147.8770 C   0  0  0  0  0  2  0  0  0  0  0  0
  189.1220  176.8090  145.3240 C   0  0  0  0  0  2  0  0  0  0  0  0
  188.1490  176.3510  146.3990 C   0  0  0  0  0  2  0  0  0  0  0  0
  186.7320  176.7520  146.0300 C   0  0  0  0  0  2  0  0  0  0  0  0
  186.0370  178.9610  144.9250 C   0  0  1  0  0  3  0  0  0  0  0  0
  185.1970  178.5910  145.9950 O   0  0  0  0  0  0  0  0  0  0  0  0
  186.5570  178.2650  146.1460 C   0  0  1  0  0  3  0  0  0  0  0  0
  186.8510  177.6780  142.8900 N   0  0  0  0  0  2  0  0  0  0  0  0
  184.5960  177.6960  143.5030 O   0  0  0  0  0  0  0  0  0  0  0  0
  185.7710  178.0850  143.7350 C   0  0  0  0  0  0  0  0  0  0  0  0
  186.6560  176.8200  141.7310 C   0  0  2  0  0  3  0  0  0  0  0  0
  187.4730  175.6910  141.8330 O   0  0  0  0  0  1  0  0  0  0  0  0
  186.9850  177.5710  140.4820 C   0  0  0  0  0  3  0  0  0  0  0  0
  186.3720  177.3600  139.4470 O   0  0  0  0  0  0  0  0  0  0  0  0
  1  8  1  0  0  0  0
  2  3  1  0  0  0  0
  3  6  1  0  0  0  0
  4  5  1  0  0  0  0
  4 22  1  0  0  0  0
  6  5  2  0  0  0  0
  7  3  2  0  0  0  0
  7  8  1  0  0  0  0
  8  4  2  0  0  0  0
  9  7  1  0  0  0  0
 10  9  1  0  0  0  0
 10 11  1  0  0  0  0
 11 12  1  0  0  0  0
 12 17  1  0  0  0  0
 13 15  1  0  0  0  0
 14 15  1  0  0  0  0
 15 21  1  1  0  0  0
 16 19  1  0  0  0  0
 17 18  2  0  0  0  0
 17 19  1  0  0  0  0
 18 13  1  0  0  0  0
 19 14  2  0  0  0  0
 21 20  1  0  0  0  0
 22 23  1  0  0  0  0
 24 23  1  0  0  0  0
 25 30  1  6  0  0  0
 25 26  1  0  0  0  0
 25 27  1  0  0  0  0
 26 27  1  0  0  0  0
 27 24  1  6  0  0  0
 28 30  1  0  0  0  0
 29 30  2  0  0  0  0
 31 32  1  1  0  0  0
 31 28  1  0  0  0  0
 33 31  1  0  0  0  0
 34 33  2  0  0  0  0
M  END
>  <MODEL>
2

>  <REMARK>
 VINA RESULT:      -6.0      2.452      3.894
  Name = 
  13 active torsions:
  status: ('A' for Active; 'I' for Inactive)
    1  A    between atoms: C_3  and  C_19
    2  A    between atoms: C_5  and  C_11
    3  A    between atoms: C_5  and  C_22
    4  A    between atoms: C_7  and  N_9
    5  A    between atoms: C_7  and  C_17
    6  A    between atoms: C_8  and  O_12
    7  A    between atoms: C_8  and  C_28
    8  A    between atoms: C_11  and  C_20
    9  A    between atoms: O_12  and  C_32
   10  A    between atoms: C_14  and  C_26
   11  A    between atoms: C_20  and  C_23
   12  A    between atoms: O_21  and  C_25
   13  A    between atoms: O_21  and  C_28
                            x       y       z     vdW  Elec       q    Type
                         _______ _______ _______ _____ _____    ______ ____

>  <TORSDO>
F 13

$$$$
=
 OpenBabel11042416083D

 34 36  0  0  1  0  0  0  0  0999 V2000
  191.1950  177.1330  147.7080 Cl  0  0  0  0  0  0  0  0  0  0  0  0
  193.2420  172.8550  144.8320 Cl  0  0  0  0  0  0  0  0  0  0  0  0
  191.9210  173.7970  145.5070 C   0  0  0  0  0  0  0  0  0  0  0  0
  189.6840  175.2660  146.3570 C   0  0  0  0  0  0  0  0  0  0  0  0
  189.5200  174.1240  145.5740 C   0  0  0  0  0  3  0  0  0  0  0  0
  190.6300  173.4000  145.1480 C   0  0  0  0  0  3  0  0  0  0  0  0
  192.1050  174.9490  146.3160 C   0  0  0  0  0  0  0  0  0  0  0  0
  190.9770  175.6880  146.7200 C   0  0  0  0  0  0  0  0  0  0  0  0
  193.3650  175.4090  146.7320 O   0  0  0  0  0  0  0  0  0  0  0  0
  194.0780  176.4760  146.1270 C   0  0  0  0  0  2  0  0  0  0  0  0
  194.8120  175.9650  144.9080 C   0  0  0  0  0  2  0  0  0  0  0  0
  194.3100  176.6140  143.7470 O   0  0  0  0  0  0  0  0  0  0  0  0
  192.9480  174.3840  140.6340 S   0  0  0  0  0  0  0  0  0  0  0  0
  191.1210  175.4520  142.3310 C   0  0  0  0  0  3  0  0  0  0  0  0
  191.5240  174.1340  141.7430 C   0  0  1  0  0  3  0  0  0  0  0  0
  191.5470  177.5520  143.4800 C   0  0  0  0  0  1  0  0  0  0  0  0
  193.4730  175.9840  142.8180 C   0  0  0  0  0  0  0  0  0  0  0  0
  193.9620  175.0920  141.9430 C   0  0  0  0  0  3  0  0  0  0  0  0
  192.0240  176.2940  142.8430 C   0  0  0  0  0  0  0  0  0  0  0  0
  189.9370  172.2960  141.5970 N   0  0  0  0  0  1  0  0  0  0  0  0
  190.3550  173.5420  140.9790 C   0  0  0  0  0  2  0  0  0  0  0  0
  188.4720  176.0310  146.7720 C   0  0  0  0  0  2  0  0  0  0  0  0
  187.6260  176.3730  145.5560 C   0  0  0  0  0  2  0  0  0  0  0  0
  187.1960  177.8280  145.6060 C   0  0  0  0  0  2  0  0  0  0  0  0
  184.7500  178.5890  145.7650 C   0  0  1  0  0  3  0  0  0  0  0  0
  184.9040  177.1940  145.9080 O   0  0  0  0  0  0  0  0  0  0  0  0
  185.9340  177.9830  146.4540 C   0  0  1  0  0  3  0  0  0  0  0  0
  184.6250  178.0750  143.2810 N   0  0  0  0  0  2  0  0  0  0  0  0
  185.4070  180.1320  144.0660 O   0  0  0  0  0  0  0  0  0  0  0  0
  184.9580  178.9850  144.3330 C   0  0  0  0  0  0  0  0  0  0  0  0
  184.7930  178.4080  141.8750 C   0  0  2  0  0  3  0  0  0  0  0  0
  183.6170  178.1250  141.1760 O   0  0  0  0  0  1  0  0  0  0  0  0
  185.9260  177.6230  141.2980 C   0  0  0  0  0  3  0  0  0  0  0  0
  186.5420  176.8210  141.9820 O   0  0  0  0  0  0  0  0  0  0  0  0
  2  3  1  0  0  0  0
  3  7  1  0  0  0  0
  4  8  1  0  0  0  0
  4 22  1  0  0  0  0
  5  4  2  0  0  0  0
  6  3  2  0  0  0  0
  6  5  1  0  0  0  0
  7  8  2  0  0  0  0
  7  9  1  0  0  0  0
  8  1  1  0  0  0  0
 10  9  1  0  0  0  0
 11 10  1  0  0  0  0
 12 11  1  0  0  0  0
 13 15  1  0  0  0  0
 13 18  1  0  0  0  0
 14 19  2  0  0  0  0
 15 21  1  6  0  0  0
 15 14  1  0  0  0  0
 17 19  1  0  0  0  0
 17 12  1  0  0  0  0
 18 17  2  0  0  0  0
 19 16  1  0  0  0  0
 21 20  1  0  0  0  0
 23 24  1  0  0  0  0
 23 22  1  0  0  0  0
 25 30  1  6  0  0  0
 25 26  1  0  0  0  0
 25 27  1  0  0  0  0
 26 27  1  0  0  0  0
 27 24  1  6  0  0  0
 28 30  1  0  0  0  0
 29 30  2  0  0  0  0
 31 32  1  6  0  0  0
 31 28  1  0  0  0  0
 33 31  1  0  0  0  0
 33 34  2  0  0  0  0
M  END
>  <MODEL>
3

>  <REMARK>
 VINA RESULT:      -6.0      1.839      2.572
  Name = 
  13 active torsions:
  status: ('A' for Active; 'I' for Inactive)
    1  A    between atoms: C_3  and  C_19
    2  A    between atoms: C_5  and  C_11
    3  A    between atoms: C_5  and  C_22
    4  A    between atoms: C_7  and  N_9
    5  A    between atoms: C_7  and  C_17
    6  A    between atoms: C_8  and  O_12
    7  A    between atoms: C_8  and  C_28
    8  A    between atoms: C_11  and  C_20
    9  A    between atoms: O_12  and  C_32
   10  A    between atoms: C_14  and  C_26
   11  A    between atoms: C_20  and  C_23
   12  A    between atoms: O_21  and  C_25
   13  A    between atoms: O_21  and  C_28
                            x       y       z     vdW  Elec       q    Type
                         _______ _______ _______ _____ _____    ______ ____

>  <TORSDO>
F 13

$$$$
=
 OpenBabel11042416083D

 34 36  0  0  1  0  0  0  0  0999 V2000
  187.1360  176.6580  143.7520 Cl  0  0  0  0  0  0  0  0  0  0  0  0
  186.8890  177.1020  138.2280 Cl  0  0  0  0  0  0  0  0  0  0  0  0
  186.2300  177.3050  139.8450 C   0  0  0  0  0  0  0  0  0  0  0  0
  185.0950  177.8690  142.3500 C   0  0  0  0  0  0  0  0  0  0  0  0
  184.4560  178.2770  141.1810 C   0  0  0  0  0  3  0  0  0  0  0  0
  185.0230  178.0020  139.9390 C   0  0  0  0  0  3  0  0  0  0  0  0
  186.8870  176.8700  141.0260 C   0  0  0  0  0  0  0  0  0  0  0  0
  186.3170  177.1760  142.2760 C   0  0  0  0  0  0  0  0  0  0  0  0
  188.0960  176.1540  141.0200 O   0  0  0  0  0  0  0  0  0  0  0  0
  188.2140  174.7670  140.7510 C   0  0  0  0  0  2  0  0  0  0  0  0
  189.4870  174.2400  141.3740 C   0  0  0  0  0  2  0  0  0  0  0  0
  189.7860  174.9880  142.5460 O   0  0  0  0  0  0  0  0  0  0  0  0
  193.7670  175.6140  143.0760 S   0  0  0  0  0  0  0  0  0  0  0  0
  192.2970  174.8700  145.2310 C   0  0  0  0  0  3  0  0  0  0  0  0
  193.2470  175.9420  144.7910 C   0  0  1  0  0  3  0  0  0  0  0  0
  190.3300  173.4610  144.9870 C   0  0  0  0  0  1  0  0  0  0  0  0
  191.0670  175.0530  143.1080 C   0  0  0  0  0  0  0  0  0  0  0  0
  192.0760  175.6530  142.4580 C   0  0  0  0  0  3  0  0  0  0  0  0
  191.2810  174.4770  144.4560 C   0  0  0  0  0  0  0  0  0  0  0  0
  194.4750  177.2000  146.4720 N   0  0  0  0  0  1  0  0  0  0  0  0
  194.4510  175.9610  145.7140 C   0  0  0  0  0  2  0  0  0  0  0  0
  184.4710  178.2060  143.6640 C   0  0  0  0  0  2  0  0  0  0  0  0
  185.0170  179.5270  144.1800 C   0  0  0  0  0  2  0  0  0  0  0  0
  185.5310  179.3640  145.5990 C   0  0  0  0  0  2  0  0  0  0  0  0
  185.6330  177.4260  147.2780 C   0  0  1  0  0  3  0  0  0  0  0  0
  184.7640  178.4610  147.6820 O   0  0  0  0  0  0  0  0  0  0  0  0
  184.8150  178.2100  146.2990 C   0  0  1  0  0  3  0  0  0  0  0  0
  188.0960  177.2060  146.6980 N   0  0  0  0  0  2  0  0  0  0  0  0
  187.3340  178.8230  148.2040 O   0  0  0  0  0  0  0  0  0  0  0  0
  187.0610  177.8630  147.4360 C   0  0  0  0  0  0  0  0  0  0  0  0
  189.4950  177.5930  146.8000 C   0  0  2  0  0  3  0  0  0  0  0  0
  190.0530  177.6990  145.5240 O   0  0  0  0  0  1  0  0  0  0  0  0
  190.2460  176.5770  147.5980 C   0  0  0  0  0  3  0  0  0  0  0  0
  191.3800  176.8060  147.9890 O   0  0  0  0  0  0  0  0  0  0  0  0
  2  3  1  0  0  0  0
  3  6  2  0  0  0  0
  3  7  1  0  0  0  0
  4 22  1  0  0  0  0
  5  4  2  0  0  0  0
  6  5  1  0  0  0  0
  7  8  2  0  0  0  0
  8  4  1  0  0  0  0
  8  1  1  0  0  0  0
  9  7  1  0  0  0  0
 10  9  1  0  0  0  0
 10 11  1  0  0  0  0
 11 12  1  0  0  0  0
 12 17  1  0  0  0  0
 13 15  1  0  0  0  0
 15 14  1  0  0  0  0
 15 21  1  1  0  0  0
 17 19  1  0  0  0  0
 18 13  1  0  0  0  0
 18 17  2  0  0  0  0
 19 16  1  0  0  0  0
 19 14  2  0  0  0  0
 21 20  1  0  0  0  0
 22 23  1  0  0  0  0
 23 24  1  0  0  0  0
 25 30  1  6  0  0  0
 25 26  1  0  0  0  0
 27 24  1  6  0  0  0
 27 25  1  0  0  0  0
 27 26  1  0  0  0  0
 28 31  1  0  0  0  0
 28 30  1  0  0  0  0
 30 29  2  0  0  0  0
 31 32  1  6  0  0  0
 31 33  1  0  0  0  0
 33 34  2  0  0  0  0
M  END
>  <MODEL>
4

>  <REMARK>
 VINA RESULT:      -5.9      2.965      5.563
  Name = 
  13 active torsions:
  status: ('A' for Active; 'I' for Inactive)
    1  A    between atoms: C_3  and  C_19
    2  A    between atoms: C_5  and  C_11
    3  A    between atoms: C_5  and  C_22
    4  A    between atoms: C_7  and  N_9
    5  A    between atoms: C_7  and  C_17
    6  A    between atoms: C_8  and  O_12
    7  A    between atoms: C_8  and  C_28
    8  A    between atoms: C_11  and  C_20
    9  A    between atoms: O_12  and  C_32
   10  A    between atoms: C_14  and  C_26
   11  A    between atoms: C_20  and  C_23
   12  A    between atoms: O_21  and  C_25
   13  A    between atoms: O_21  and  C_28
                            x       y       z     vdW  Elec       q    Type
                         _______ _______ _______ _____ _____    ______ ____

>  <TORSDO>
F 13

$$$$
=
 OpenBabel11042416083D

 34 36  0  0  1  0  0  0  0  0999 V2000
  189.7560  174.5440  147.0260 Cl  0  0  0  0  0  0  0  0  0  0  0  0
  193.0470  176.1810  142.8720 Cl  0  0  0  0  0  0  0  0  0  0  0  0
  191.7020  176.4000  143.9810 C   0  0  0  0  0  0  0  0  0  0  0  0
  189.6320  177.0000  145.7820 C   0  0  0  0  0  0  0  0  0  0  0  0
  190.0410  177.9430  144.8400 C   0  0  0  0  0  3  0  0  0  0  0  0
  191.0710  177.6470  143.9510 C   0  0  0  0  0  3  0  0  0  0  0  0
  191.2890  175.4230  144.9250 C   0  0  0  0  0  0  0  0  0  0  0  0
  190.2630  175.7430  145.8350 C   0  0  0  0  0  0  0  0  0  0  0  0
  191.8600  174.1430  145.0140 O   0  0  0  0  0  0  0  0  0  0  0  0
  191.7630  173.1410  144.0150 C   0  0  0  0  0  2  0  0  0  0  0  0
  190.6710  172.1640  144.3860 C   0  0  0  0  0  2  0  0  0  0  0  0
  189.5010  172.4530  143.6300 O   0  0  0  0  0  0  0  0  0  0  0  0
  190.2740  172.1040  139.6550 S   0  0  0  0  0  0  0  0  0  0  0  0
  188.4370  173.9390  140.4390 C   0  0  0  0  0  3  0  0  0  0  0  0
  188.5860  172.7740  139.5090 C   0  0  1  0  0  3  0  0  0  0  0  0
  188.6040  175.0440  142.5980 C   0  0  0  0  0  1  0  0  0  0  0  0
  189.5180  172.6670  142.2460 C   0  0  0  0  0  0  0  0  0  0  0  0
  190.0930  171.7830  141.4180 C   0  0  0  0  0  3  0  0  0  0  0  0
  188.8520  173.8770  141.7080 C   0  0  0  0  0  0  0  0  0  0  0  0
  189.2000  172.5260  137.1680 N   0  0  0  0  0  1  0  0  0  0  0  0
  188.3180  173.2260  138.0850 C   0  0  0  0  0  2  0  0  0  0  0  0
  188.5440  177.3640  146.7360 C   0  0  0  0  0  2  0  0  0  0  0  0
  187.3470  176.4470  146.5400 C   0  0  0  0  0  2  0  0  0  0  0  0
  186.2840  177.1400  145.7080 C   0  0  0  0  0  2  0  0  0  0  0  0
  184.5540  179.0170  145.9730 C   0  0  1  0  0  3  0  0  0  0  0  0
  183.9960  177.7290  146.1090 O   0  0  0  0  0  0  0  0  0  0  0  0
  185.3010  177.8860  146.6100 C   0  0  1  0  0  3  0  0  0  0  0  0
  184.4170  178.3960  143.5140 N   0  0  0  0  0  2  0  0  0  0  0  0
  185.5400  180.3160  144.2300 O   0  0  0  0  0  0  0  0  0  0  0  0
  184.8790  179.2880  144.5330 C   0  0  0  0  0  0  0  0  0  0  0  0
  184.6890  178.6130  142.1010 C   0  0  2  0  0  3  0  0  0  0  0  0
  183.7320  177.9540  141.3260 O   0  0  0  0  0  1  0  0  0  0  0  0
  186.0530  178.1040  141.7620 C   0  0  0  0  0  3  0  0  0  0  0  0
  186.1950  177.0370  141.1860 O   0  0  0  0  0  0  0  0  0  0  0  0
  2  3  1  0  0  0  0
  3  7  1  0  0  0  0
  4  8  1  0  0  0  0
  4 22  1  0  0  0  0
  5  4  2  0  0  0  0
  6  3  2  0  0  0  0
  6  5  1  0  0  0  0
  7  9  1  0  0  0  0
  7  8  2  0  0  0  0
  8  1  1  0  0  0  0
 10 11  1  0  0  0  0
 10  9  1  0  0  0  0
 12 11  1  0  0  0  0
 13 18  1  0  0  0  0
 14 19  2  0  0  0  0
 15 21  1  6  0  0  0
 15 13  1  0  0  0  0
 15 14  1  0  0  0  0
 17 12  1  0  0  0  0
 18 17  2  0  0  0  0
 19 17  1  0  0  0  0
 19 16  1  0  0  0  0
 20 21  1  0  0  0  0
 23 22  1  0  0  0  0
 24 23  1  0  0  0  0
 25 30  1  6  0  0  0
 25 26  1  0  0  0  0
 25 27  1  0  0  0  0
 26 27  1  0  0  0  0
 27 24  1  6  0  0  0
 28 30  1  0  0  0  0
 29 30  2  0  0  0  0
 31 32  1  6  0  0  0
 31 28  1  0  0  0  0
 33 31  1  0  0  0  0
 34 33  2  0  0  0  0
M  END
>  <MODEL>
5

>  <REMARK>
 VINA RESULT:      -5.7      1.805      2.315
  Name = 
  13 active torsions:
  status: ('A' for Active; 'I' for Inactive)
    1  A    between atoms: C_3  and  C_19
    2  A    between atoms: C_5  and  C_11
    3  A    between atoms: C_5  and  C_22
    4  A    between atoms: C_7  and  N_9
    5  A    between atoms: C_7  and  C_17
    6  A    between atoms: C_8  and  O_12
    7  A    between atoms: C_8  and  C_28
    8  A    between atoms: C_11  and  C_20
    9  A    between atoms: O_12  and  C_32
   10  A    between atoms: C_14  and  C_26
   11  A    between atoms: C_20  and  C_23
   12  A    between atoms: O_21  and  C_25
   13  A    between atoms: O_21  and  C_28
                            x       y       z     vdW  Elec       q    Type
                         _______ _______ _______ _____ _____    ______ ____

>  <TORSDO>
F 13

$$$$
=
 OpenBabel11042416083D

 34 36  0  0  1  0  0  0  0  0999 V2000
  190.0570  176.8590  143.1740 Cl  0  0  0  0  0  0  0  0  0  0  0  0
  194.1740  176.3300  146.8530 Cl  0  0  0  0  0  0  0  0  0  0  0  0
  192.4760  176.3680  146.4000 C   0  0  0  0  0  0  0  0  0  0  0  0
  189.7290  176.2210  145.8350 C   0  0  0  0  0  0  0  0  0  0  0  0
  190.1970  175.9700  147.1240 C   0  0  0  0  0  3  0  0  0  0  0  0
  191.5600  176.0380  147.4020 C   0  0  0  0  0  3  0  0  0  0  0  0
  192.0160  176.6400  145.0840 C   0  0  0  0  0  0  0  0  0  0  0  0
  190.6380  176.5440  144.8100 C   0  0  0  0  0  0  0  0  0  0  0  0
  192.8670  176.9900  144.0240 O   0  0  0  0  0  0  0  0  0  0  0  0
  193.9670  176.2140  143.5780 C   0  0  0  0  0  2  0  0  0  0  0  0
  193.7530  175.8170  142.1350 C   0  0  0  0  0  2  0  0  0  0  0  0
  193.5650  174.4100  142.0540 O   0  0  0  0  0  0  0  0  0  0  0  0
  190.0420  172.5390  142.8310 S   0  0  0  0  0  0  0  0  0  0  0  0
  190.4560  173.4830  140.3220 C   0  0  0  0  0  3  0  0  0  0  0  0
  189.4620  173.5630  141.4400 C   0  0  1  0  0  3  0  0  0  0  0  0
  192.6930  173.6030  139.3760 C   0  0  0  0  0  1  0  0  0  0  0  0
  192.3070  173.8130  141.9090 C   0  0  0  0  0  0  0  0  0  0  0  0
  191.5860  173.4530  142.9820 C   0  0  0  0  0  3  0  0  0  0  0  0
  191.7680  173.6180  140.5420 C   0  0  0  0  0  0  0  0  0  0  0  0
  188.1650  172.8110  139.5250 N   0  0  0  0  0  1  0  0  0  0  0  0
  188.1110  173.0770  140.9520 C   0  0  0  0  0  2  0  0  0  0  0  0
  188.2650  176.1120  145.5690 C   0  0  0  0  0  2  0  0  0  0  0  0
  187.4790  176.3980  146.8380 C   0  0  0  0  0  2  0  0  0  0  0  0
  186.9690  177.8280  146.8300 C   0  0  0  0  0  2  0  0  0  0  0  0
  184.5240  178.2930  146.2050 C   0  0  1  0  0  3  0  0  0  0  0  0
  184.7670  176.9380  146.5080 O   0  0  0  0  0  0  0  0  0  0  0  0
  185.5020  177.8740  147.2580 C   0  0  1  0  0  3  0  0  0  0  0  0
  185.2040  177.6330  143.8490 N   0  0  0  0  0  2  0  0  0  0  0  0
  185.4950  179.8130  144.6400 O   0  0  0  0  0  0  0  0  0  0  0  0
  185.1090  178.6350  144.8660 C   0  0  0  0  0  0  0  0  0  0  0  0
  185.7500  177.9080  142.5280 C   0  0  2  0  0  3  0  0  0  0  0  0
  184.7110  178.1320  141.6220 O   0  0  0  0  0  1  0  0  0  0  0  0
  186.5810  176.7530  142.0710 C   0  0  0  0  0  3  0  0  0  0  0  0
  186.5180  175.6750  142.6410 O   0  0  0  0  0  0  0  0  0  0  0  0
  1  8  1  0  0  0  0
  3  2  1  0  0  0  0
  3  6  1  0  0  0  0
  4  5  1  0  0  0  0
  5  6  2  0  0  0  0
  7  3  2  0  0  0  0
  8  7  1  0  0  0  0
  8  4  2  0  0  0  0
  9  7  1  0  0  0  0
 10  9  1  0  0  0  0
 11 10  1  0  0  0  0
 12 11  1  0  0  0  0
 13 18  1  0  0  0  0
 14 19  2  0  0  0  0
 14 15  1  0  0  0  0
 15 21  1  6  0  0  0
 15 13  1  0  0  0  0
 16 19  1  0  0  0  0
 17 12  1  0  0  0  0
 17 18  2  0  0  0  0
 19 17  1  0  0  0  0
 20 21  1  0  0  0  0
 22  4  1  0  0  0  0
 22 23  1  0  0  0  0
 24 23  1  0  0  0  0
 25 30  1  6  0  0  0
 25 26  1  0  0  0  0
 25 27  1  0  0  0  0
 26 27  1  0  0  0  0
 27 24  1  6  0  0  0
 28 30  1  0  0  0  0
 29 30  2  0  0  0  0
 31 32  1  6  0  0  0
 31 28  1  0  0  0  0
 33 31  1  0  0  0  0
 33 34  2  0  0  0  0
M  END
>  <MODEL>
6

>  <REMARK>
 VINA RESULT:      -5.7      1.807      2.676
  Name = 
  13 active torsions:
  status: ('A' for Active; 'I' for Inactive)
    1  A    between atoms: C_3  and  C_19
    2  A    between atoms: C_5  and  C_11
    3  A    between atoms: C_5  and  C_22
    4  A    between atoms: C_7  and  N_9
    5  A    between atoms: C_7  and  C_17
    6  A    between atoms: C_8  and  O_12
    7  A    between atoms: C_8  and  C_28
    8  A    between atoms: C_11  and  C_20
    9  A    between atoms: O_12  and  C_32
   10  A    between atoms: C_14  and  C_26
   11  A    between atoms: C_20  and  C_23
   12  A    between atoms: O_21  and  C_25
   13  A    between atoms: O_21  and  C_28
                            x       y       z     vdW  Elec       q    Type
                         _______ _______ _______ _____ _____    ______ ____

>  <TORSDO>
F 13

$$$$
=
 OpenBabel11042416083D

 34 36  0  0  1  0  0  0  0  0999 V2000
  189.1010  177.8920  144.0190 Cl  0  0  0  0  0  0  0  0  0  0  0  0
  183.6500  178.6770  143.3520 Cl  0  0  0  0  0  0  0  0  0  0  0  0
  185.0540  178.1500  144.2690 C   0  0  0  0  0  0  0  0  0  0  0  0
  187.1860  177.4210  145.9450 C   0  0  0  0  0  0  0  0  0  0  0  0
  185.8750  177.3810  146.4170 C   0  0  0  0  0  3  0  0  0  0  0  0
  184.8190  177.7480  145.5870 C   0  0  0  0  0  3  0  0  0  0  0  0
  186.3820  178.1840  143.7680 C   0  0  0  0  0  0  0  0  0  0  0  0
  187.4440  177.8340  144.6250 C   0  0  0  0  0  0  0  0  0  0  0  0
  186.7050  178.5630  142.4550 O   0  0  0  0  0  0  0  0  0  0  0  0
  186.2720  177.8860  141.2870 C   0  0  0  0  0  2  0  0  0  0  0  0
  187.4490  177.1890  140.6420 C   0  0  0  0  0  2  0  0  0  0  0  0
  187.8300  176.0720  141.4350 O   0  0  0  0  0  0  0  0  0  0  0  0
  188.5810  172.9800  138.9070 S   0  0  0  0  0  0  0  0  0  0  0  0
  189.9340  173.0600  141.2570 C   0  0  0  0  0  3  0  0  0  0  0  0
  190.1780  172.9610  139.7820 C   0  0  1  0  0  3  0  0  0  0  0  0
  188.9450  174.0540  143.2440 C   0  0  0  0  0  1  0  0  0  0  0  0
  188.3140  174.8750  140.8910 C   0  0  0  0  0  0  0  0  0  0  0  0
  188.1150  174.5760  139.5990 C   0  0  0  0  0  3  0  0  0  0  0  0
  189.0850  173.9590  141.7640 C   0  0  0  0  0  0  0  0  0  0  0  0
  190.1620  170.8540  138.5650 N   0  0  0  0  0  1  0  0  0  0  0  0
  190.9320  171.6800  139.4790 C   0  0  0  0  0  2  0  0  0  0  0  0
  188.2940  177.0470  146.8730 C   0  0  0  0  0  2  0  0  0  0  0  0
  188.5610  175.5530  146.7930 C   0  0  0  0  0  2  0  0  0  0  0  0
  190.0310  175.2950  146.5130 C   0  0  0  0  0  2  0  0  0  0  0  0
  192.3620  175.5750  147.5490 C   0  0  1  0  0  3  0  0  0  0  0  0
  191.6490  176.7880  147.4590 O   0  0  0  0  0  0  0  0  0  0  0  0
  190.8770  175.6450  147.7360 C   0  0  1  0  0  3  0  0  0  0  0  0
  192.9750  176.1200  145.1450 N   0  0  0  0  0  2  0  0  0  0  0  0
  193.1170  173.9410  145.9800 O   0  0  0  0  0  0  0  0  0  0  0  0
  192.8310  175.1510  146.1880 C   0  0  0  0  0  0  0  0  0  0  0  0
  193.4380  175.7700  143.8110 C   0  0  2  0  0  3  0  0  0  0  0  0
  194.7990  176.0580  143.6900 O   0  0  0  0  0  1  0  0  0  0  0  0
  192.6650  176.5380  142.7870 C   0  0  0  0  0  3  0  0  0  0  0  0
  191.5880  176.1290  142.3820 O   0  0  0  0  0  0  0  0  0  0  0  0
  1  8  1  0  0  0  0
  2  3  1  0  0  0  0
  3  6  1  0  0  0  0
  4  5  1  0  0  0  0
  4 22  1  0  0  0  0
  6  5  2  0  0  0  0
  7  3  2  0  0  0  0
  7  8  1  0  0  0  0
  8  4  2  0  0  0  0
  9  7  1  0  0  0  0
 10  9  1  0  0  0  0
 11 10  1  0  0  0  0
 11 12  1  0  0  0  0
 13 18  1  0  0  0  0
 13 15  1  0  0  0  0
 14 19  2  0  0  0  0
 15 21  1  1  0  0  0
 15 14  1  0  0  0  0
 17 12  1  0  0  0  0
 17 19  1  0  0  0  0
 18 17  2  0  0  0  0
 19 16  1  0  0  0  0
 20 21  1  0  0  0  0
 23 22  1  0  0  0  0
 24 23  1  0  0  0  0
 25 30  1  6  0  0  0
 25 27  1  0  0  0  0
 26 25  1  0  0  0  0
 26 27  1  0  0  0  0
 27 24  1  6  0  0  0
 28 30  1  0  0  0  0
 29 30  2  0  0  0  0
 31 32  1  1  0  0  0
 31 28  1  0  0  0  0
 33 31  1  0  0  0  0
 34 33  2  0  0  0  0
M  END
>  <MODEL>
7

>  <REMARK>
 VINA RESULT:      -5.6      2.888      6.017
  Name = 
  13 active torsions:
  status: ('A' for Active; 'I' for Inactive)
    1  A    between atoms: C_3  and  C_19
    2  A    between atoms: C_5  and  C_11
    3  A    between atoms: C_5  and  C_22
    4  A    between atoms: C_7  and  N_9
    5  A    between atoms: C_7  and  C_17
    6  A    between atoms: C_8  and  O_12
    7  A    between atoms: C_8  and  C_28
    8  A    between atoms: C_11  and  C_20
    9  A    between atoms: O_12  and  C_32
   10  A    between atoms: C_14  and  C_26
   11  A    between atoms: C_20  and  C_23
   12  A    between atoms: O_21  and  C_25
   13  A    between atoms: O_21  and  C_28
                            x       y       z     vdW  Elec       q    Type
                         _______ _______ _______ _____ _____    ______ ____

>  <TORSDO>
F 13

$$$$
=
 OpenBabel11042416083D

 34 36  0  0  1  0  0  0  0  0999 V2000
  190.2190  172.8420  145.2080 Cl  0  0  0  0  0  0  0  0  0  0  0  0
  195.1140  175.2810  146.1360 Cl  0  0  0  0  0  0  0  0  0  0  0  0
  193.3560  175.2490  146.1400 C   0  0  0  0  0  0  0  0  0  0  0  0
  190.5590  175.3130  146.3820 C   0  0  0  0  0  0  0  0  0  0  0  0
  191.3300  176.3770  146.8450 C   0  0  0  0  0  3  0  0  0  0  0  0
  192.7180  176.3430  146.7290 C   0  0  0  0  0  3  0  0  0  0  0  0
  192.5860  174.1620  145.6490 C   0  0  0  0  0  0  0  0  0  0  0  0
  191.1860  174.1970  145.7940 C   0  0  0  0  0  0  0  0  0  0  0  0
  193.1460  173.0310  145.0330 O   0  0  0  0  0  0  0  0  0  0  0  0
  193.2470  172.8400  143.6310 C   0  0  0  0  0  2  0  0  0  0  0  0
  194.2550  173.8120  143.0600 C   0  0  0  0  0  2  0  0  0  0  0  0
  193.5950  174.7200  142.1880 O   0  0  0  0  0  0  0  0  0  0  0  0
  190.2910  173.4930  140.1630 S   0  0  0  0  0  0  0  0  0  0  0  0
  189.9330  175.0090  142.3830 C   0  0  0  0  0  3  0  0  0  0  0  0
  189.5040  173.7010  141.7920 C   0  0  1  0  0  3  0  0  0  0  0  0
  191.5820  176.6650  143.0550 C   0  0  0  0  0  1  0  0  0  0  0  0
  192.2700  174.5500  141.7650 C   0  0  0  0  0  0  0  0  0  0  0  0
  191.9520  173.6280  140.8450 C   0  0  0  0  0  3  0  0  0  0  0  0
  191.2150  175.3880  142.3840 C   0  0  0  0  0  0  0  0  0  0  0  0
  187.4440  174.9750  142.0120 N   0  0  0  0  0  1  0  0  0  0  0  0
  187.9930  173.6780  141.6570 C   0  0  0  0  0  2  0  0  0  0  0  0
  189.0780  175.3740  146.5470 C   0  0  0  0  0  2  0  0  0  0  0  0
  188.4430  176.0450  145.3400 C   0  0  0  0  0  2  0  0  0  0  0  0
  187.8480  177.3850  145.7360 C   0  0  0  0  0  2  0  0  0  0  0  0
  185.5090  177.8440  146.6850 C   0  0  1  0  0  3  0  0  0  0  0  0
  185.7390  176.4780  146.4240 O   0  0  0  0  0  0  0  0  0  0  0  0
  186.8510  177.2090  146.8810 C   0  0  1  0  0  3  0  0  0  0  0  0
  184.8100  177.9120  144.2440 N   0  0  0  0  0  2  0  0  0  0  0  0
  185.5880  179.8200  145.3470 O   0  0  0  0  0  0  0  0  0  0  0  0
  185.3180  178.5900  145.3960 C   0  0  0  0  0  0  0  0  0  0  0  0
  184.5920  178.5850  142.9730 C   0  0  2  0  0  3  0  0  0  0  0  0
  183.2230  178.6650  142.7060 O   0  0  0  0  0  1  0  0  0  0  0  0
  185.2780  177.8350  141.8770 C   0  0  0  0  0  3  0  0  0  0  0  0
  185.3310  178.2930  140.7460 O   0  0  0  0  0  0  0  0  0  0  0  0
  1  8  1  0  0  0  0
  2  3  1  0  0  0  0
  3  6  1  0  0  0  0
  4 22  1  0  0  0  0
  4  5  1  0  0  0  0
  6  5  2  0  0  0  0
  7  8  1  0  0  0  0
  7  3  2  0  0  0  0
  8  4  2  0  0  0  0
  9  7  1  0  0  0  0
 10  9  1  0  0  0  0
 11 10  1  0  0  0  0
 12 11  1  0  0  0  0
 13 18  1  0  0  0  0
 13 15  1  0  0  0  0
 14 19  2  0  0  0  0
 15 21  1  6  0  0  0
 15 14  1  0  0  0  0
 17 12  1  0  0  0  0
 17 19  1  0  0  0  0
 18 17  2  0  0  0  0
 19 16  1  0  0  0  0
 21 20  1  0  0  0  0
 23 24  1  0  0  0  0
 23 22  1  0  0  0  0
 25 30  1  6  0  0  0
 25 27  1  0  0  0  0
 26 25  1  0  0  0  0
 26 27  1  0  0  0  0
 27 24  1  6  0  0  0
 28 30  1  0  0  0  0
 29 30  2  0  0  0  0
 31 32  1  6  0  0  0
 31 28  1  0  0  0  0
 33 31  1  0  0  0  0
 34 33  2  0  0  0  0
M  END
>  <MODEL>
8

>  <REMARK>
 VINA RESULT:      -5.6      1.914      2.641
  Name = 
  13 active torsions:
  status: ('A' for Active; 'I' for Inactive)
    1  A    between atoms: C_3  and  C_19
    2  A    between atoms: C_5  and  C_11
    3  A    between atoms: C_5  and  C_22
    4  A    between atoms: C_7  and  N_9
    5  A    between atoms: C_7  and  C_17
    6  A    between atoms: C_8  and  O_12
    7  A    between atoms: C_8  and  C_28
    8  A    between atoms: C_11  and  C_20
    9  A    between atoms: O_12  and  C_32
   10  A    between atoms: C_14  and  C_26
   11  A    between atoms: C_20  and  C_23
   12  A    between atoms: O_21  and  C_25
   13  A    between atoms: O_21  and  C_28
                            x       y       z     vdW  Elec       q    Type
                         _______ _______ _______ _____ _____    ______ ____

>  <TORSDO>
F 13

$$$$
=
 OpenBabel11042416083D

 34 36  0  0  1  0  0  0  0  0999 V2000
  191.9120  176.4240  147.6420 Cl  0  0  0  0  0  0  0  0  0  0  0  0
  193.3740  176.0660  142.3040 Cl  0  0  0  0  0  0  0  0  0  0  0  0
  192.2360  175.8790  143.6290 C   0  0  0  0  0  0  0  0  0  0  0  0
  190.2330  175.6780  145.5870 C   0  0  0  0  0  0  0  0  0  0  0  0
  189.9430  175.4000  144.2530 C   0  0  0  0  0  3  0  0  0  0  0  0
  190.9350  175.5050  143.2820 C   0  0  0  0  0  3  0  0  0  0  0  0
  192.5530  176.1520  144.9870 C   0  0  0  0  0  0  0  0  0  0  0  0
  191.5340  176.0660  145.9560 C   0  0  0  0  0  0  0  0  0  0  0  0
  193.8350  176.5200  145.4230 O   0  0  0  0  0  0  0  0  0  0  0  0
  194.8060  175.6220  145.9350 C   0  0  0  0  0  2  0  0  0  0  0  0
  195.8190  175.3070  144.8570 C   0  0  0  0  0  2  0  0  0  0  0  0
  195.3800  174.1780  144.1110 O   0  0  0  0  0  0  0  0  0  0  0  0
  197.2910  170.6410  144.7040 S   0  0  0  0  0  0  0  0  0  0  0  0
  194.8130  170.9430  145.7660 C   0  0  0  0  0  3  0  0  0  0  0  0
  196.2080  170.5710  146.1670 C   0  0  1  0  0  3  0  0  0  0  0  0
  193.1540  172.3670  144.7020 C   0  0  0  0  0  1  0  0  0  0  0  0
  195.6680  172.8580  144.4790 C   0  0  0  0  0  0  0  0  0  0  0  0
  196.9160  172.3740  144.3940 C   0  0  0  0  0  3  0  0  0  0  0  0
  194.5690  172.0120  145.0010 C   0  0  0  0  0  0  0  0  0  0  0  0
  194.9410  168.9150  147.4210 N   0  0  0  0  0  1  0  0  0  0  0  0
  196.2080  169.1740  146.7600 C   0  0  0  0  0  2  0  0  0  0  0  0
  189.1370  175.5810  146.5950 C   0  0  0  0  0  2  0  0  0  0  0  0
  188.4780  176.9370  146.7860 C   0  0  0  0  0  2  0  0  0  0  0  0
  187.1490  176.9840  146.0550 C   0  0  0  0  0  2  0  0  0  0  0  0
  184.9350  178.2000  146.5100 C   0  0  1  0  0  3  0  0  0  0  0  0
  184.8050  176.7960  146.5160 O   0  0  0  0  0  0  0  0  0  0  0  0
  186.0140  177.3000  147.0290 C   0  0  1  0  0  3  0  0  0  0  0  0
  184.6340  177.9160  144.0040 N   0  0  0  0  0  2  0  0  0  0  0  0
  185.6690  179.8080  144.9060 O   0  0  0  0  0  0  0  0  0  0  0  0
  185.1140  178.6950  145.1040 C   0  0  0  0  0  0  0  0  0  0  0  0
  184.7680  178.3500  142.6220 C   0  0  2  0  0  3  0  0  0  0  0  0
  183.6250  177.9970  141.9000 O   0  0  0  0  0  1  0  0  0  0  0  0
  185.9720  177.7170  142.0040 C   0  0  0  0  0  3  0  0  0  0  0  0
  187.0960  178.0300  142.3630 O   0  0  0  0  0  0  0  0  0  0  0  0
  2  3  1  0  0  0  0
  3  7  1  0  0  0  0
  4  8  1  0  0  0  0
  4 22  1  0  0  0  0
  5  4  2  0  0  0  0
  6  3  2  0  0  0  0
  6  5  1  0  0  0  0
  7  9  1  0  0  0  0
  7  8  2  0  0  0  0
  8  1  1  0  0  0  0
  9 10  1  0  0  0  0
 11 10  1  0  0  0  0
 12 17  1  0  0  0  0
 12 11  1  0  0  0  0
 13 15  1  0  0  0  0
 14 15  1  0  0  0  0
 15 21  1  6  0  0  0
 16 19  1  0  0  0  0
 17 19  1  0  0  0  0
 18 17  2  0  0  0  0
 18 13  1  0  0  0  0
 19 14  2  0  0  0  0
 21 20  1  0  0  0  0
 22 23  1  0  0  0  0
 24 23  1  0  0  0  0
 25 30  1  6  0  0  0
 25 26  1  0  0  0  0
 25 27  1  0  0  0  0
 26 27  1  0  0  0  0
 27 24  1  6  0  0  0
 28 30  1  0  0  0  0
 29 30  2  0  0  0  0
 31 32  1  6  0  0  0
 31 28  1  0  0  0  0
 33 34  2  0  0  0  0
 33 31  1  0  0  0  0
M  END
>  <MODEL>
9

>  <REMARK>
 VINA RESULT:      -5.6      3.051      3.959
  Name = 
  13 active torsions:
  status: ('A' for Active; 'I' for Inactive)
    1  A    between atoms: C_3  and  C_19
    2  A    between atoms: C_5  and  C_11
    3  A    between atoms: C_5  and  C_22
    4  A    between atoms: C_7  and  N_9
    5  A    between atoms: C_7  and  C_17
    6  A    between atoms: C_8  and  O_12
    7  A    between atoms: C_8  and  C_28
    8  A    between atoms: C_11  and  C_20
    9  A    between atoms: O_12  and  C_32
   10  A    between atoms: C_14  and  C_26
   11  A    between atoms: C_20  and  C_23
   12  A    between atoms: O_21  and  C_25
   13  A    between atoms: O_21  and  C_28
                            x       y       z     vdW  Elec       q    Type
                         _______ _______ _______ _____ _____    ______ ____

>  <TORSDO>
F 13

$$$$
