=
 OpenBabel11042418273D

 28 31  0  0  1  0  0  0  0  0999 V2000
  187.2540  176.4120  141.5170 N   0  0  0  0  0  0  0  0  0  0  0  0
  185.1650  178.5200  143.7360 C   0  0  0  0  0  3  0  0  0  0  0  0
  187.4060  176.3040  140.0770 C   0  0  0  0  0  3  0  0  0  0  0  0
  187.8920  175.6340  142.4640 C   0  0  0  0  0  0  0  0  0  0  0  0
  185.8320  177.4890  147.7170 C   0  0  0  0  0  3  0  0  0  0  0  0
  185.7790  178.0600  140.6510 C   0  0  0  0  0  3  0  0  0  0  0  0
  186.6930  176.8260  144.1630 C   0  0  0  0  0  0  0  0  0  0  0  0
  184.6240  178.9230  146.1440 C   0  0  0  0  0  3  0  0  0  0  0  0
  186.0390  177.6140  143.1500 C   0  0  0  0  0  0  0  0  0  0  0  0
  187.6170  175.8420  143.8350 C   0  0  0  0  0  3  0  0  0  0  0  0
  186.3530  177.3710  141.8240 C   0  0  0  0  0  0  0  0  0  0  0  0
  185.2910  178.2790  145.1040 C   0  0  1  0  0  3  0  0  0  0  0  0
  186.4770  177.3680  139.4780 C   0  0  0  0  0  3  0  0  0  0  0  0
  184.9030  178.5190  147.4630 C   0  0  0  0  0  3  0  0  0  0  0  0
  186.4970  176.8470  146.6590 C   0  0  0  0  0  3  0  0  0  0  0  0
  186.2030  177.2670  145.3640 C   0  0  0  0  0  0  0  0  0  0  0  0
  190.3030  174.8830  142.0700 N   0  0  0  0  0  2  0  0  0  0  0  0
  188.8960  174.6140  142.0720 C   0  0  0  0  0  0  0  0  0  0  0  0
  188.5060  173.4710  141.7170 O   0  0  0  0  0  0  0  0  0  0  0  0
  190.9110  176.0730  142.6440 C   0  0  0  0  0  2  0  0  0  0  0  0
  192.3990  175.6120  143.5780 S   0  0  0  0  0  0  0  0  0  0  0  0
  192.0500  176.8030  144.9050 C   0  0  0  0  0  2  0  0  0  0  0  0
  191.9340  176.0750  146.2320 C   0  0  0  0  0  2  0  0  0  0  0  0
  189.9650  177.1690  147.1440 C   0  0  0  0  0  2  0  0  0  0  0  0
  190.5120  176.0500  146.6850 C   0  0  0  0  0  0  0  0  0  0  0  0
  189.7460  174.7930  146.6830 C   0  0  0  0  0  0  0  0  0  0  0  0
  188.9690  174.5220  147.6370 O   0  0  0  0  0  1  0  0  0  0  0  0
  189.8730  173.8920  145.6310 O   0  0  0  0  0  0  0  0  0  0  0  0
  1 11  1  0  0  0  0
  1  4  1  0  0  0  0
  3  1  1  0  0  0  0
  4 10  2  0  0  0  0
  6 11  2  0  0  0  0
  7 16  2  0  0  0  0
  8 14  2  0  0  0  0
  9  2  2  0  0  0  0
  9  7  1  0  0  0  0
 10  7  1  0  0  0  0
 11  9  1  0  0  0  0
 12  2  1  6  0  0  0
 12 16  1  0  0  0  0
 12  8  1  0  0  0  0
 13  3  2  0  0  0  0
 13  6  1  0  0  0  0
 14  5  1  0  0  0  0
 15  5  2  0  0  0  0
 16 15  1  0  0  0  0
 17 18  1  0  0  0  0
 17 20  1  0  0  0  0
 18  4  1  0  0  0  0
 19 18  2  0  0  0  0
 20 21  1  0  0  0  0
 21 22  1  0  0  0  0
 22 23  1  0  0  0  0
 23 25  1  0  0  0  0
 25 24  2  0  0  0  0
 26 25  1  0  0  0  0
 26 27  1  0  0  0  0
 28 26  2  0  0  0  0
M  END
>  <MODEL>
1

>  <REMARK>
 VINA RESULT:      -7.2      0.000      0.000
  Name = 
  7 active torsions:
  status: ('A' for Active; 'I' for Inactive)
    1  A    between atoms: C_4  and  C_18
    2  A    between atoms: C_4  and  S_25
    3  A    between atoms: C_5  and  C_23
    4  A    between atoms: C_12  and  C_27
    5  A    between atoms: N_17  and  C_26
    6  A    between atoms: C_18  and  C_27
    7  A    between atoms: S_25  and  C_26
                            x       y       z     vdW  Elec       q    Type
                         _______ _______ _______ _____ _____    ______ ____

>  <TORSDO>
F 7

$$$$
=
 OpenBabel11042418273D

 28 31  0  0  0  0  0  0  0  0999 V2000
  190.4500  176.4430  145.6330 N   0  0  0  0  0  0  0  0  0  0  0  0
  186.9980  176.6140  146.9710 C   0  0  0  0  0  3  0  0  0  0  0  0
  191.6610  175.7610  146.0510 C   0  0  0  0  0  3  0  0  0  0  0  0
  190.3280  177.3040  144.5600 C   0  0  0  0  0  0  0  0  0  0  0  0
  184.6890  179.1690  144.6270 C   0  0  0  0  0  3  0  0  0  0  0  0
  189.7970  175.2300  147.5680 C   0  0  0  0  0  3  0  0  0  0  0  0
  188.0290  177.6270  145.1560 C   0  0  0  0  0  0  0  0  0  0  0  0
  184.7720  177.6800  146.5670 C   0  0  0  0  0  3  0  0  0  0  0  0
  188.1920  176.7310  146.2720 C   0  0  0  0  0  0  0  0  0  0  0  0
  189.0820  177.9170  144.2970 C   0  0  0  0  0  3  0  0  0  0  0  0
  189.4330  176.1550  146.4770 C   0  0  0  0  0  0  0  0  0  0  0  0
  186.1130  177.4390  146.2770 C   0  0  0  0  0  0  0  0  0  0  0  0
  191.2760  174.9490  147.2940 C   0  0  0  0  0  3  0  0  0  0  0  0
  184.0580  178.5560  145.7290 C   0  0  0  0  0  3  0  0  0  0  0  0
  186.0420  178.9180  144.3460 C   0  0  0  0  0  2  0  0  0  0  0  0
  186.7260  178.0470  145.1910 C   0  0  0  0  0  0  0  0  0  0  0  0
  191.8660  176.6340  142.6310 N   0  0  0  0  0  2  0  0  0  0  0  0
  191.4700  177.5630  143.6480 C   0  0  0  0  0  0  0  0  0  0  0  0
  192.1280  178.6290  143.7720 O   0  0  0  0  0  0  0  0  0  0  0  0
  191.0880  175.4720  142.2350 C   0  0  0  0  0  2  0  0  0  0  0  0
  191.9340  173.9560  142.7700 S   0  0  0  0  0  0  0  0  0  0  0  0
  190.3740  173.0600  143.0180 C   0  0  0  0  0  2  0  0  0  0  0  0
  189.2730  174.0350  143.3980 C   0  0  0  0  0  2  0  0  0  0  0  0
  188.0090  172.9630  141.6210 C   0  0  0  0  0  2  0  0  0  0  0  0
  188.2150  174.0560  142.3460 C   0  0  0  0  0  0  0  0  0  0  0  0
  187.4550  175.2870  142.0710 C   0  0  0  0  0  0  0  0  0  0  0  0
  186.4700  175.5980  142.7920 O   0  0  0  0  0  1  0  0  0  0  0  0
  187.8140  176.1150  141.0130 O   0  0  0  0  0  0  0  0  0  0  0  0
  1  3  1  0  0  0  0
  1 11  1  0  0  0  0
  3 13  2  0  0  0  0
  4  1  1  0  0  0  0
  5 14  2  0  0  0  0
  7 16  2  0  0  0  0
  7  9  1  0  0  0  0
  9 11  1  0  0  0  0
  9  2  2  0  0  0  0
 10  4  2  0  0  0  0
 10  7  1  0  0  0  0
 11  6  2  0  0  0  0
 12  8  2  0  0  0  0
 12  2  1  0  0  0  0
 13  6  1  0  0  0  0
 14  8  1  0  0  0  0
 15  5  1  0  0  0  0
 15 16  1  0  0  0  0
 16 12  1  0  0  0  0
 17 18  1  0  0  0  0
 18 19  2  0  0  0  0
 18  4  1  0  0  0  0
 20 17  1  0  0  0  0
 20 21  1  0  0  0  0
 21 22  1  0  0  0  0
 22 23  1  0  0  0  0
 24 25  2  0  0  0  0
 25 23  1  0  0  0  0
 26 25  1  0  0  0  0
 26 27  1  0  0  0  0
 28 26  2  0  0  0  0
M  END
>  <MODEL>
2

>  <REMARK>
 VINA RESULT:      -7.0      2.349      4.796
  Name = 
  7 active torsions:
  status: ('A' for Active; 'I' for Inactive)
    1  A    between atoms: C_4  and  C_18
    2  A    between atoms: C_4  and  S_25
    3  A    between atoms: C_5  and  C_23
    4  A    between atoms: C_12  and  C_27
    5  A    between atoms: N_17  and  C_26
    6  A    between atoms: C_18  and  C_27
    7  A    between atoms: S_25  and  C_26
                            x       y       z     vdW  Elec       q    Type
                         _______ _______ _______ _____ _____    ______ ____

>  <TORSDO>
F 7

$$$$
=
 OpenBabel11042418273D

 28 31  0  0  0  0  0  0  0  0999 V2000
  190.7090  175.2300  145.8540 N   0  0  0  0  0  0  0  0  0  0  0  0
  188.7040  177.8650  147.5180 C   0  0  0  0  0  3  0  0  0  0  0  0
  192.1180  174.8800  145.8580 C   0  0  0  0  0  3  0  0  0  0  0  0
  189.7190  174.6160  145.1110 C   0  0  0  0  0  0  0  0  0  0  0  0
  184.7190  177.5780  146.3380 C   0  0  0  0  0  3  0  0  0  0  0  0
  191.6940  176.7990  147.3400 C   0  0  0  0  0  3  0  0  0  0  0  0
  188.1480  176.1810  146.0210 C   0  0  0  0  0  0  0  0  0  0  0  0
  186.3760  178.7640  147.6930 C   0  0  0  0  0  3  0  0  0  0  0  0
  189.2050  176.8030  146.7770 C   0  0  0  0  0  0  0  0  0  0  0  0
  188.3910  175.0930  145.1930 C   0  0  0  0  0  3  0  0  0  0  0  0
  190.4850  176.2900  146.6630 C   0  0  0  0  0  0  0  0  0  0  0  0
  187.3430  177.8840  147.2110 C   0  0  0  0  0  0  0  0  0  0  0  0
  192.7900  175.8650  146.8240 C   0  0  0  0  0  3  0  0  0  0  0  0
  185.0520  178.6030  147.2480 C   0  0  0  0  0  3  0  0  0  0  0  0
  185.7040  176.6990  145.8590 C   0  0  0  0  0  2  0  0  0  0  0  0
  187.0070  176.8790  146.3160 C   0  0  0  0  0  0  0  0  0  0  0  0
  190.0630  173.5120  142.8310 N   0  0  0  0  0  2  0  0  0  0  0  0
  190.0150  173.4360  144.2610 C   0  0  0  0  0  0  0  0  0  0  0  0
  190.2210  172.3200  144.8070 O   0  0  0  0  0  0  0  0  0  0  0  0
  190.0510  174.7550  142.0760 C   0  0  0  0  0  2  0  0  0  0  0  0
  188.5710  174.8200  141.0250 S   0  0  0  0  0  0  0  0  0  0  0  0
  188.0720  176.4450  141.6660 C   0  0  0  0  0  2  0  0  0  0  0  0
  186.6590  176.3700  142.2170 C   0  0  0  0  0  2  0  0  0  0  0  0
  186.8460  178.6530  143.0250 C   0  0  0  0  0  2  0  0  0  0  0  0
  186.1050  177.7420  142.4070 C   0  0  0  0  0  0  0  0  0  0  0  0
  184.7350  178.0650  141.9720 C   0  0  0  0  0  0  0  0  0  0  0  0
  184.4770  178.2160  140.7480 O   0  0  0  0  0  0  0  0  0  0  0  0
  183.7160  178.2080  142.9070 O   0  0  0  0  0  1  0  0  0  0  0  0
  1  3  1  0  0  0  0
  1 11  1  0  0  0  0
  3 13  2  0  0  0  0
  4 10  2  0  0  0  0
  4  1  1  0  0  0  0
  5 14  2  0  0  0  0
  7 16  2  0  0  0  0
  7  9  1  0  0  0  0
  9  2  2  0  0  0  0
 10  7  1  0  0  0  0
 11  9  1  0  0  0  0
 11  6  2  0  0  0  0
 12  2  1  0  0  0  0
 12  8  2  0  0  0  0
 13  6  1  0  0  0  0
 14  8  1  0  0  0  0
 15 16  1  0  0  0  0
 15  5  1  0  0  0  0
 16 12  1  0  0  0  0
 17 18  1  0  0  0  0
 18 19  2  0  0  0  0
 18  4  1  0  0  0  0
 20 17  1  0  0  0  0
 21 22  1  0  0  0  0
 21 20  1  0  0  0  0
 22 23  1  0  0  0  0
 23 25  1  0  0  0  0
 25 24  2  0  0  0  0
 26 25  1  0  0  0  0
 26 28  1  0  0  0  0
 27 26  2  0  0  0  0
M  END
>  <MODEL>
3

>  <REMARK>
 VINA RESULT:      -7.0      2.457      5.320
  Name = 
  7 active torsions:
  status: ('A' for Active; 'I' for Inactive)
    1  A    between atoms: C_4  and  C_18
    2  A    between atoms: C_4  and  S_25
    3  A    between atoms: C_5  and  C_23
    4  A    between atoms: C_12  and  C_27
    5  A    between atoms: N_17  and  C_26
    6  A    between atoms: C_18  and  C_27
    7  A    between atoms: S_25  and  C_26
                            x       y       z     vdW  Elec       q    Type
                         _______ _______ _______ _____ _____    ______ ____

>  <TORSDO>
F 7

$$$$
=
 OpenBabel11042418273D

 28 31  0  0  0  0  0  0  0  0999 V2000
  187.2420  177.2060  144.9830 N   0  0  0  0  0  0  0  0  0  0  0  0
  190.0900  176.5910  147.2730 C   0  0  0  0  0  3  0  0  0  0  0  0
  185.7990  177.2120  145.1450 C   0  0  0  0  0  3  0  0  0  0  0  0
  187.9300  177.4030  143.8010 C   0  0  0  0  0  0  0  0  0  0  0  0
  193.6800  176.8280  145.1730 C   0  0  0  0  0  3  0  0  0  0  0  0
  186.9140  176.7370  147.2880 C   0  0  0  0  0  3  0  0  0  0  0  0
  189.9750  177.0610  145.0030 C   0  0  0  0  0  0  0  0  0  0  0  0
  192.5860  176.4470  147.3290 C   0  0  0  0  0  3  0  0  0  0  0  0
  189.2270  176.8520  146.2170 C   0  0  0  0  0  0  0  0  0  0  0  0
  189.3420  177.3370  143.7980 C   0  0  0  0  0  3  0  0  0  0  0  0
  187.8470  176.9350  146.1610 C   0  0  0  0  0  0  0  0  0  0  0  0
  191.3590  176.6420  146.6970 C   0  0  0  0  0  0  0  0  0  0  0  0
  185.5450  176.9290  146.6320 C   0  0  0  0  0  3  0  0  0  0  0  0
  193.7550  176.5430  146.5520 C   0  0  0  0  0  3  0  0  0  0  0  0
  192.4370  177.0220  144.5490 C   0  0  0  0  0  2  0  0  0  0  0  0
  191.2950  176.9220  145.3400 C   0  0  0  0  0  0  0  0  0  0  0  0
  186.9030  176.7320  141.5580 N   0  0  0  0  0  2  0  0  0  0  0  0
  187.2160  177.7270  142.5400 C   0  0  0  0  0  0  0  0  0  0  0  0
  186.8810  178.9180  142.3120 O   0  0  0  0  0  0  0  0  0  0  0  0
  187.0400  175.3000  141.7700 C   0  0  0  0  0  2  0  0  0  0  0  0
  188.6280  174.7300  141.0970 S   0  0  0  0  0  0  0  0  0  0  0  0
  189.0690  173.8530  142.6250 C   0  0  0  0  0  2  0  0  0  0  0  0
  190.5600  173.9830  142.8820 C   0  0  0  0  0  2  0  0  0  0  0  0
  189.9800  173.3770  145.1630 C   0  0  0  0  0  2  0  0  0  0  0  0
  190.9070  173.4030  144.2130 C   0  0  0  0  0  0  0  0  0  0  0  0
  192.2720  172.9260  144.4910 C   0  0  0  0  0  0  0  0  0  0  0  0
  192.9190  173.3870  145.4690 O   0  0  0  0  0  1  0  0  0  0  0  0
  192.8610  171.9650  143.6770 O   0  0  0  0  0  0  0  0  0  0  0  0
  1  3  1  0  0  0  0
  1 11  1  0  0  0  0
  3 13  2  0  0  0  0
  4  1  1  0  0  0  0
  5 14  2  0  0  0  0
  7 16  2  0  0  0  0
  7  9  1  0  0  0  0
  9  2  2  0  0  0  0
 10  4  2  0  0  0  0
 10  7  1  0  0  0  0
 11  9  1  0  0  0  0
 11  6  2  0  0  0  0
 12  2  1  0  0  0  0
 12  8  2  0  0  0  0
 13  6  1  0  0  0  0
 14  8  1  0  0  0  0
 15  5  1  0  0  0  0
 15 16  1  0  0  0  0
 16 12  1  0  0  0  0
 17 20  1  0  0  0  0
 17 18  1  0  0  0  0
 18  4  1  0  0  0  0
 19 18  2  0  0  0  0
 21 20  1  0  0  0  0
 21 22  1  0  0  0  0
 22 23  1  0  0  0  0
 23 25  1  0  0  0  0
 25 26  1  0  0  0  0
 25 24  2  0  0  0  0
 26 27  1  0  0  0  0
 28 26  2  0  0  0  0
M  END
>  <MODEL>
4

>  <REMARK>
 VINA RESULT:      -7.0      2.346      5.338
  Name = 
  7 active torsions:
  status: ('A' for Active; 'I' for Inactive)
    1  A    between atoms: C_4  and  C_18
    2  A    between atoms: C_4  and  S_25
    3  A    between atoms: C_5  and  C_23
    4  A    between atoms: C_12  and  C_27
    5  A    between atoms: N_17  and  C_26
    6  A    between atoms: C_18  and  C_27
    7  A    between atoms: S_25  and  C_26
                            x       y       z     vdW  Elec       q    Type
                         _______ _______ _______ _____ _____    ______ ____

>  <TORSDO>
F 7

$$$$
=
 OpenBabel11042418273D

 28 31  0  0  0  0  0  0  0  0999 V2000
  190.6870  176.3570  145.4800 N   0  0  0  0  0  0  0  0  0  0  0  0
  187.4710  177.0110  147.2010 C   0  0  0  0  0  3  0  0  0  0  0  0
  191.9350  175.7300  145.8780 C   0  0  0  0  0  3  0  0  0  0  0  0
  190.4250  176.9480  144.2600 C   0  0  0  0  0  0  0  0  0  0  0  0
  184.8890  179.0640  144.6560 C   0  0  0  0  0  3  0  0  0  0  0  0
  190.3040  175.6640  147.7190 C   0  0  0  0  0  3  0  0  0  0  0  0
  188.2430  177.5190  145.0720 C   0  0  0  0  0  0  0  0  0  0  0  0
  185.2290  178.0670  146.8650 C   0  0  0  0  0  3  0  0  0  0  0  0
  188.5520  176.9010  146.3360 C   0  0  0  0  0  0  0  0  0  0  0  0
  189.1640  177.5460  144.0330 C   0  0  0  0  0  3  0  0  0  0  0  0
  189.8000  176.3250  146.5000 C   0  0  0  0  0  0  0  0  0  0  0  0
  186.5090  177.6950  146.4580 C   0  0  0  0  0  0  0  0  0  0  0  0
  191.7210  175.2510  147.3190 C   0  0  0  0  0  3  0  0  0  0  0  0
  184.4150  178.7580  145.9490 C   0  0  0  0  0  3  0  0  0  0  0  0
  186.1820  178.6850  144.2590 C   0  0  0  0  0  2  0  0  0  0  0  0
  186.9670  178.0010  145.1850 C   0  0  0  0  0  0  0  0  0  0  0  0
  191.7410  175.7360  142.4340 N   0  0  0  0  0  2  0  0  0  0  0  0
  191.4260  176.9280  143.1640 C   0  0  0  0  0  0  0  0  0  0  0  0
  192.0340  177.9890  142.8660 O   0  0  0  0  0  0  0  0  0  0  0  0
  190.9840  174.4970  142.5220 C   0  0  0  0  0  2  0  0  0  0  0  0
  190.7510  173.8010  140.8610 S   0  0  0  0  0  0  0  0  0  0  0  0
  188.9450  173.7300  141.0410 C   0  0  0  0  0  2  0  0  0  0  0  0
  188.3120  174.9310  140.3620 C   0  0  0  0  0  2  0  0  0  0  0  0
  187.1310  175.1410  142.4750 C   0  0  0  0  0  2  0  0  0  0  0  0
  187.5190  175.7240  141.3480 C   0  0  0  0  0  0  0  0  0  0  0  0
  187.1190  177.1090  141.0500 C   0  0  0  0  0  0  0  0  0  0  0  0
  187.9920  178.0110  140.9370 O   0  0  0  0  0  1  0  0  0  0  0  0
  185.7770  177.4360  140.8910 O   0  0  0  0  0  0  0  0  0  0  0  0
  1  3  1  0  0  0  0
  1 11  1  0  0  0  0
  3 13  2  0  0  0  0
  4  1  1  0  0  0  0
  5 14  2  0  0  0  0
  7 16  2  0  0  0  0
  7  9  1  0  0  0  0
  9 11  1  0  0  0  0
  9  2  2  0  0  0  0
 10  4  2  0  0  0  0
 10  7  1  0  0  0  0
 11  6  2  0  0  0  0
 12  8  2  0  0  0  0
 12  2  1  0  0  0  0
 13  6  1  0  0  0  0
 14  8  1  0  0  0  0
 15  5  1  0  0  0  0
 15 16  1  0  0  0  0
 16 12  1  0  0  0  0
 17 20  1  0  0  0  0
 17 18  1  0  0  0  0
 18  4  1  0  0  0  0
 19 18  2  0  0  0  0
 21 22  1  0  0  0  0
 21 20  1  0  0  0  0
 23 22  1  0  0  0  0
 23 25  1  0  0  0  0
 25 24  2  0  0  0  0
 26 25  1  0  0  0  0
 27 26  1  0  0  0  0
 28 26  2  0  0  0  0
M  END
>  <MODEL>
5

>  <REMARK>
 VINA RESULT:      -6.9      2.429      5.171
  Name = 
  7 active torsions:
  status: ('A' for Active; 'I' for Inactive)
    1  A    between atoms: C_4  and  C_18
    2  A    between atoms: C_4  and  S_25
    3  A    between atoms: C_5  and  C_23
    4  A    between atoms: C_12  and  C_27
    5  A    between atoms: N_17  and  C_26
    6  A    between atoms: C_18  and  C_27
    7  A    between atoms: S_25  and  C_26
                            x       y       z     vdW  Elec       q    Type
                         _______ _______ _______ _____ _____    ______ ____

>  <TORSDO>
F 7

$$$$
=
 OpenBabel11042418273D

 28 31  0  0  1  0  0  0  0  0999 V2000
  190.1510  176.4220  145.6580 N   0  0  0  0  0  0  0  0  0  0  0  0
  186.6870  176.6740  146.9500 C   0  0  0  0  0  3  0  0  0  0  0  0
  191.3420  175.7160  146.0950 C   0  0  0  0  0  3  0  0  0  0  0  0
  190.0610  177.2790  144.5780 C   0  0  0  0  0  0  0  0  0  0  0  0
  184.4630  179.2640  144.5620 C   0  0  0  0  0  3  0  0  0  0  0  0
  189.4480  175.2340  147.5910 C   0  0  0  0  0  3  0  0  0  0  0  0
  187.7620  177.6540  145.1420 C   0  0  0  0  0  0  0  0  0  0  0  0
  184.4890  177.7850  146.5110 C   0  0  0  0  0  3  0  0  0  0  0  0
  187.8910  176.7620  146.2650 C   0  0  1  0  0  3  0  0  0  0  0  0
  188.8320  177.9160  144.2960 C   0  0  0  0  0  3  0  0  0  0  0  0
  189.1170  176.1600  146.4890 C   0  0  0  0  0  0  0  0  0  0  0  0
  185.8290  177.5130  146.2390 C   0  0  0  0  0  0  0  0  0  0  0  0
  190.9230  174.9200  147.3370 C   0  0  0  0  0  3  0  0  0  0  0  0
  183.8050  178.6710  145.6590 C   0  0  0  0  0  3  0  0  0  0  0  0
  185.8140  178.9820  144.3000 C   0  0  0  0  0  3  0  0  0  0  0  0
  186.4680  178.1020  145.1580 C   0  0  0  0  0  0  0  0  0  0  0  0
  191.6810  176.5170  142.7530 N   0  0  0  0  0  2  0  0  0  0  0  0
  191.2200  177.5080  143.6790 C   0  0  0  0  0  0  0  0  0  0  0  0
  191.8350  178.6050  143.7340 O   0  0  0  0  0  0  0  0  0  0  0  0
  190.9580  175.2960  142.4320 C   0  0  0  0  0  2  0  0  0  0  0  0
  191.9770  173.8520  142.8510 S   0  0  0  0  0  0  0  0  0  0  0  0
  193.5300  174.7350  142.5250 C   0  0  0  0  0  2  0  0  0  0  0  0
  194.6550  174.1150  143.3350 C   0  0  0  0  0  2  0  0  0  0  0  0
  194.7340  174.2550  145.7590 C   0  0  0  0  0  2  0  0  0  0  0  0
  194.8650  174.8830  144.5980 C   0  0  0  0  0  0  0  0  0  0  0  0
  195.1520  176.3270  144.5590 C   0  0  0  0  0  0  0  0  0  0  0  0
  194.4680  177.1280  145.2520 O   0  0  0  0  0  1  0  0  0  0  0  0
  196.1750  176.8210  143.7580 O   0  0  0  0  0  0  0  0  0  0  0  0
  1  3  1  0  0  0  0
  1 11  1  0  0  0  0
  3 13  2  0  0  0  0
  4  1  1  0  0  0  0
  5 14  1  0  0  0  0
  7 16  2  0  0  0  0
  7  9  1  0  0  0  0
  9 11  1  0  0  0  0
  9  2  1  1  0  0  0
 10  4  2  0  0  0  0
 10  7  1  0  0  0  0
 11  6  2  0  0  0  0
 12  8  1  0  0  0  0
 12  2  2  0  0  0  0
 13  6  1  0  0  0  0
 14  8  2  0  0  0  0
 15  5  2  0  0  0  0
 15 16  1  0  0  0  0
 16 12  1  0  0  0  0
 17 18  1  0  0  0  0
 18 19  2  0  0  0  0
 18  4  1  0  0  0  0
 20 17  1  0  0  0  0
 20 21  1  0  0  0  0
 22 21  1  0  0  0  0
 22 23  1  0  0  0  0
 23 25  1  0  0  0  0
 25 24  2  0  0  0  0
 26 25  1  0  0  0  0
 26 27  1  0  0  0  0
 28 26  2  0  0  0  0
M  END
>  <MODEL>
6

>  <REMARK>
 VINA RESULT:      -6.9      2.996      4.774
  Name = 
  7 active torsions:
  status: ('A' for Active; 'I' for Inactive)
    1  A    between atoms: C_4  and  C_18
    2  A    between atoms: C_4  and  S_25
    3  A    between atoms: C_5  and  C_23
    4  A    between atoms: C_12  and  C_27
    5  A    between atoms: N_17  and  C_26
    6  A    between atoms: C_18  and  C_27
    7  A    between atoms: S_25  and  C_26
                            x       y       z     vdW  Elec       q    Type
                         _______ _______ _______ _____ _____    ______ ____

>  <TORSDO>
F 7

$$$$
=
 OpenBabel11042418273D

 28 31  0  0  1  0  0  0  0  0999 V2000
  188.9590  174.9690  142.6890 N   0  0  0  0  0  0  0  0  0  0  0  0
  191.9860  173.5360  144.2750 C   0  0  0  0  0  3  0  0  0  0  0  0
  187.8100  174.3980  142.0090 C   0  0  0  0  0  3  0  0  0  0  0  0
  189.2170  176.3150  142.8640 C   0  0  0  0  0  0  0  0  0  0  0  0
  194.4300  176.5960  145.6960 C   0  0  0  0  0  3  0  0  0  0  0  0
  189.3270  172.6240  142.7900 C   0  0  0  0  0  3  0  0  0  0  0  0
  191.2640  175.7190  143.9610 C   0  0  0  0  0  0  0  0  0  0  0  0
  194.1030  174.1850  145.4380 C   0  0  0  0  0  3  0  0  0  0  0  0
  190.9690  174.3240  143.7540 C   0  0  0  0  0  0  0  0  0  0  0  0
  190.4000  176.7160  143.5260 C   0  0  0  0  0  3  0  0  0  0  0  0
  189.7920  173.9890  143.1070 C   0  0  0  0  0  0  0  0  0  0  0  0
  192.8960  174.4560  144.7980 C   0  0  1  0  0  3  0  0  0  0  0  0
  188.0020  172.8770  142.0680 C   0  0  0  0  0  3  0  0  0  0  0  0
  194.8740  175.2710  145.8900 C   0  0  0  0  0  3  0  0  0  0  0  0
  193.2110  176.8550  145.0480 C   0  0  0  0  0  3  0  0  0  0  0  0
  192.4670  175.7620  144.6110 C   0  0  0  0  0  0  0  0  0  0  0  0
  187.3730  178.0260  143.3180 N   0  0  0  0  0  2  0  0  0  0  0  0
  188.2520  177.3480  142.4120 C   0  0  0  0  0  0  0  0  0  0  0  0
  188.1890  177.6380  141.1890 O   0  0  0  0  0  0  0  0  0  0  0  0
  187.4710  177.9490  144.7660 C   0  0  0  0  0  2  0  0  0  0  0  0
  186.2270  176.7900  145.4050 S   0  0  0  0  0  0  0  0  0  0  0  0
  187.2010  176.4170  146.8920 C   0  0  0  0  0  2  0  0  0  0  0  0
  188.6340  176.8780  146.6990 C   0  0  0  0  0  2  0  0  0  0  0  0
  189.2670  174.5400  146.8870 C   0  0  0  0  0  2  0  0  0  0  0  0
  189.5830  175.8070  147.1230 C   0  0  0  0  0  0  0  0  0  0  0  0
  190.8200  176.1440  147.8480 C   0  0  0  0  0  0  0  0  0  0  0  0
  191.7180  175.2750  148.0080 O   0  0  0  0  0  0  0  0  0  0  0  0
  191.0080  177.4220  148.3640 O   0  0  0  0  0  1  0  0  0  0  0  0
  1  4  1  0  0  0  0
  1 11  1  0  0  0  0
  3 13  2  0  0  0  0
  3  1  1  0  0  0  0
  4 10  2  0  0  0  0
  5 14  1  0  0  0  0
  6 11  2  0  0  0  0
  7 16  2  0  0  0  0
  8 14  2  0  0  0  0
  9  7  1  0  0  0  0
  9  2  2  0  0  0  0
 10  7  1  0  0  0  0
 11  9  1  0  0  0  0
 12  2  1  6  0  0  0
 12  8  1  0  0  0  0
 13  6  1  0  0  0  0
 15  5  2  0  0  0  0
 16 12  1  0  0  0  0
 16 15  1  0  0  0  0
 17 20  1  0  0  0  0
 18  4  1  0  0  0  0
 18 17  1  0  0  0  0
 19 18  2  0  0  0  0
 20 21  1  0  0  0  0
 21 22  1  0  0  0  0
 23 22  1  0  0  0  0
 23 25  1  0  0  0  0
 24 25  2  0  0  0  0
 25 26  1  0  0  0  0
 26 27  2  0  0  0  0
 26 28  1  0  0  0  0
M  END
>  <MODEL>
7

>  <REMARK>
 VINA RESULT:      -6.8      2.557      5.706
  Name = 
  7 active torsions:
  status: ('A' for Active; 'I' for Inactive)
    1  A    between atoms: C_4  and  C_18
    2  A    between atoms: C_4  and  S_25
    3  A    between atoms: C_5  and  C_23
    4  A    between atoms: C_12  and  C_27
    5  A    between atoms: N_17  and  C_26
    6  A    between atoms: C_18  and  C_27
    7  A    between atoms: S_25  and  C_26
                            x       y       z     vdW  Elec       q    Type
                         _______ _______ _______ _____ _____    ______ ____

>  <TORSDO>
F 7

$$$$
=
 OpenBabel11042418273D

 28 31  0  0  0  0  0  0  0  0999 V2000
  190.6830  175.4470  142.3900 N   0  0  0  0  0  0  0  0  0  0  0  0
  188.9630  177.9890  144.4660 C   0  0  0  0  0  3  0  0  0  0  0  0
  192.0750  175.1660  142.0850 C   0  0  0  0  0  3  0  0  0  0  0  0
  189.5860  174.7830  141.8750 C   0  0  0  0  0  0  0  0  0  0  0  0
  184.8350  177.5040  144.1790 C   0  0  0  0  0  3  0  0  0  0  0  0
  191.8910  177.0690  143.6360 C   0  0  0  0  0  3  0  0  0  0  0  0
  188.1770  176.2740  143.1160 C   0  0  0  0  0  0  0  0  0  0  0  0
  186.6880  178.7740  145.1490 C   0  0  0  0  0  3  0  0  0  0  0  0
  189.3410  176.9500  143.6270 C   0  0  0  0  0  0  0  0  0  0  0  0
  188.2860  175.1950  142.2470 C   0  0  0  0  0  3  0  0  0  0  0  0
  190.5900  176.4990  143.2340 C   0  0  0  0  0  0  0  0  0  0  0  0
  187.5690  177.9400  144.4620 C   0  0  0  0  0  0  0  0  0  0  0  0
  192.8920  176.1870  142.8880 C   0  0  0  0  0  3  0  0  0  0  0  0
  185.3080  178.5480  145.0010 C   0  0  0  0  0  3  0  0  0  0  0  0
  185.7340  176.6710  143.4920 C   0  0  0  0  0  2  0  0  0  0  0  0
  187.0950  176.9160  143.6560 C   0  0  0  0  0  0  0  0  0  0  0  0
  189.7200  172.2650  141.4550 N   0  0  0  0  0  2  0  0  0  0  0  0
  189.7470  173.6150  140.9740 C   0  0  0  0  0  0  0  0  0  0  0  0
  189.9260  173.8060  139.7430 O   0  0  0  0  0  0  0  0  0  0  0  0
  189.3220  171.8830  142.8000 C   0  0  0  0  0  2  0  0  0  0  0  0
  190.7560  171.9660  143.9120 S   0  0  0  0  0  0  0  0  0  0  0  0
  189.9290  173.1180  145.0460 C   0  0  0  0  0  2  0  0  0  0  0  0
  190.9490  174.0670  145.6500 C   0  0  0  0  0  2  0  0  0  0  0  0
  188.9750  174.9060  146.7920 C   0  0  0  0  0  2  0  0  0  0  0  0
  190.2730  175.0430  146.5550 C   0  0  0  0  0  0  0  0  0  0  0  0
  191.0190  176.1780  147.1260 C   0  0  0  0  0  0  0  0  0  0  0  0
  190.4010  177.1590  147.6200 O   0  0  0  0  0  1  0  0  0  0  0  0
  192.4090  176.1790  147.1230 O   0  0  0  0  0  0  0  0  0  0  0  0
  1 11  1  0  0  0  0
  3  1  1  0  0  0  0
  3 13  2  0  0  0  0
  4 10  2  0  0  0  0
  4  1  1  0  0  0  0
  5 14  2  0  0  0  0
  7  9  1  0  0  0  0
  7 16  2  0  0  0  0
  9  2  2  0  0  0  0
 10  7  1  0  0  0  0
 11  9  1  0  0  0  0
 11  6  2  0  0  0  0
 12  2  1  0  0  0  0
 12  8  2  0  0  0  0
 13  6  1  0  0  0  0
 14  8  1  0  0  0  0
 15 16  1  0  0  0  0
 15  5  1  0  0  0  0
 16 12  1  0  0  0  0
 17 20  1  0  0  0  0
 18 17  1  0  0  0  0
 18  4  1  0  0  0  0
 19 18  2  0  0  0  0
 20 21  1  0  0  0  0
 21 22  1  0  0  0  0
 22 23  1  0  0  0  0
 23 25  1  0  0  0  0
 25 24  2  0  0  0  0
 25 26  1  0  0  0  0
 26 27  1  0  0  0  0
 28 26  2  0  0  0  0
M  END
>  <MODEL>
8

>  <REMARK>
 VINA RESULT:      -6.6      2.174      3.565
  Name = 
  7 active torsions:
  status: ('A' for Active; 'I' for Inactive)
    1  A    between atoms: C_4  and  C_18
    2  A    between atoms: C_4  and  S_25
    3  A    between atoms: C_5  and  C_23
    4  A    between atoms: C_12  and  C_27
    5  A    between atoms: N_17  and  C_26
    6  A    between atoms: C_18  and  C_27
    7  A    between atoms: S_25  and  C_26
                            x       y       z     vdW  Elec       q    Type
                         _______ _______ _______ _____ _____    ______ ____

>  <TORSDO>
F 7

$$$$
=
 OpenBabel11042418273D

 28 31  0  0  1  0  0  0  0  0999 V2000
  190.2670  176.4300  145.6840 N   0  0  0  0  0  0  0  0  0  0  0  0
  186.7890  176.6500  146.9420 C   0  0  0  0  0  3  0  0  0  0  0  0
  191.4560  175.7210  146.1220 C   0  0  0  0  0  3  0  0  0  0  0  0
  190.1870  177.3050  144.6180 C   0  0  0  0  0  0  0  0  0  0  0  0
  184.5830  179.2750  144.5750 C   0  0  0  0  0  3  0  0  0  0  0  0
  189.5470  175.2070  147.5880 C   0  0  0  0  0  3  0  0  0  0  0  0
  187.8800  177.6640  145.1640 C   0  0  0  0  0  0  0  0  0  0  0  0
  184.5930  177.7620  146.4990 C   0  0  0  0  0  3  0  0  0  0  0  0
  188.0010  176.7530  146.2730 C   0  0  1  0  0  3  0  0  0  0  0  0
  188.9590  177.9440  144.3340 C   0  0  0  0  0  3  0  0  0  0  0  0
  189.2260  176.1510  146.5000 C   0  0  0  0  0  0  0  0  0  0  0  0
  185.9360  177.4990  146.2370 C   0  0  0  0  0  0  0  0  0  0  0  0
  191.0270  174.9020  147.3460 C   0  0  0  0  0  3  0  0  0  0  0  0
  183.9150  178.6600  145.6550 C   0  0  0  0  0  3  0  0  0  0  0  0
  185.9380  179.0010  144.3230 C   0  0  0  0  0  3  0  0  0  0  0  0
  186.5850  178.1080  145.1730 C   0  0  0  0  0  0  0  0  0  0  0  0
  191.7970  176.6010  142.7620 N   0  0  0  0  0  2  0  0  0  0  0  0
  191.3550  177.5530  143.7370 C   0  0  0  0  0  0  0  0  0  0  0  0
  191.9940  178.6320  143.8500 O   0  0  0  0  0  0  0  0  0  0  0  0
  191.0480  175.4150  142.3770 C   0  0  0  0  0  2  0  0  0  0  0  0
  192.0610  174.3770  141.2840 S   0  0  0  0  0  0  0  0  0  0  0  0
  190.6520  173.3340  140.8110 C   0  0  0  0  0  2  0  0  0  0  0  0
  189.7540  173.1040  142.0140 C   0  0  0  0  0  2  0  0  0  0  0  0
  190.4470  170.8040  142.3770 C   0  0  0  0  0  2  0  0  0  0  0  0
  190.3160  172.0250  142.8790 C   0  0  0  0  0  0  0  0  0  0  0  0
  190.6600  172.2940  144.2850 C   0  0  0  0  0  0  0  0  0  0  0  0
  191.8410  172.6020  144.6020 O   0  0  0  0  0  0  0  0  0  0  0  0
  189.6890  172.2100  145.2770 O   0  0  0  0  0  1  0  0  0  0  0  0
  1  3  1  0  0  0  0
  1 11  1  0  0  0  0
  3 13  2  0  0  0  0
  4  1  1  0  0  0  0
  5 14  1  0  0  0  0
  7 16  2  0  0  0  0
  7  9  1  0  0  0  0
  9 11  1  0  0  0  0
  9  2  1  1  0  0  0
 10  4  2  0  0  0  0
 10  7  1  0  0  0  0
 11  6  2  0  0  0  0
 12  8  1  0  0  0  0
 12  2  2  0  0  0  0
 13  6  1  0  0  0  0
 14  8  2  0  0  0  0
 15  5  2  0  0  0  0
 15 16  1  0  0  0  0
 16 12  1  0  0  0  0
 17 18  1  0  0  0  0
 18 19  2  0  0  0  0
 18  4  1  0  0  0  0
 20 17  1  0  0  0  0
 21 20  1  0  0  0  0
 22 21  1  0  0  0  0
 22 23  1  0  0  0  0
 23 25  1  0  0  0  0
 24 25  2  0  0  0  0
 25 26  1  0  0  0  0
 26 27  2  0  0  0  0
 26 28  1  0  0  0  0
M  END
>  <MODEL>
9

>  <REMARK>
 VINA RESULT:      -6.5      2.495      4.723
  Name = 
  7 active torsions:
  status: ('A' for Active; 'I' for Inactive)
    1  A    between atoms: C_4  and  C_18
    2  A    between atoms: C_4  and  S_25
    3  A    between atoms: C_5  and  C_23
    4  A    between atoms: C_12  and  C_27
    5  A    between atoms: N_17  and  C_26
    6  A    between atoms: C_18  and  C_27
    7  A    between atoms: S_25  and  C_26
                            x       y       z     vdW  Elec       q    Type
                         _______ _______ _______ _____ _____    ______ ____

>  <TORSDO>
F 7

$$$$
