=
 OpenBabel11042418353D

 37 40  0  0  1  0  0  0  0  0999 V2000
  184.6610  178.5390  145.2470 C   0  0  0  0  0  3  0  0  0  0  0  0
  187.8240  177.5340  146.9670 N   0  0  0  0  0  0  0  0  0  0  0  0
  186.7780  177.6610  144.3090 C   0  0  0  0  0  0  0  0  0  0  0  0
  185.8470  178.4450  147.7890 O   0  0  0  0  0  0  0  0  0  0  0  0
  184.7200  178.1380  141.5040 C   0  0  0  0  0  0  0  0  0  0  0  0
  186.8000  177.2840  141.7600 C   0  0  0  0  0  0  0  0  0  0  0  0
  184.9060  178.0950  142.8160 C   0  0  2  0  0  3  0  0  0  0  0  0
  188.6200  177.2200  145.9830 C   0  0  0  0  0  0  0  0  0  0  0  0
  183.9980  178.6120  143.8910 C   0  0  0  0  0  3  0  0  0  0  0  0
  186.5070  178.0630  146.7850 C   0  0  0  0  0  0  0  0  0  0  0  0
  185.9280  178.1200  145.4370 C   0  0  0  0  0  0  0  0  0  0  0  0
  188.2490  177.4670  144.5420 C   0  0  0  0  0  2  0  0  0  0  0  0
  185.9140  177.6110  140.8240 C   0  0  0  0  0  3  0  0  0  0  0  0
  186.2370  177.5900  143.0840 C   0  0  0  0  0  0  0  0  0  0  0  0
  189.8810  176.6800  146.2440 O   0  0  0  0  0  0  0  0  0  0  0  0
  190.1010  175.7240  147.2710 C   0  0  0  0  0  1  0  0  0  0  0  0
  183.5110  178.6510  140.8470 C   0  0  0  0  0  3  0  0  0  0  0  0
  182.3540  177.9960  140.9040 C   0  0  0  0  0  3  0  0  0  0  0  0
  181.1920  178.4640  140.2850 O   0  0  0  0  0  0  0  0  0  0  0  0
  180.4480  179.5710  140.7790 C   0  0  0  0  0  1  0  0  0  0  0  0
  188.0140  176.5950  141.4510 N   0  0  0  0  0  2  0  0  0  0  0  0
  188.0610  175.2160  140.9970 C   0  0  0  0  0  2  0  0  0  0  0  0
  188.3460  174.2900  142.1690 C   0  0  1  0  0  3  0  0  0  0  0  0
  187.8850  172.8830  141.8360 C   0  0  0  0  0  1  0  0  0  0  0  0
  189.8010  174.2980  142.5250 C   0  0  0  0  0  0  0  0  0  0  0  0
  190.8420  174.3280  141.4470 C   0  0  0  0  0  1  0  0  0  0  0  0
  190.1350  174.2940  143.7780 N   0  0  0  0  0  0  0  0  0  0  0  0
  192.1390  173.1140  144.5880 C   0  0  0  0  0  0  0  0  0  0  0  0
  191.5260  172.0140  144.5880 O   0  0  0  0  0  0  0  0  0  0  0  0
  191.4760  174.3120  144.1880 N   0  0  0  0  0  2  0  0  0  0  0  0
  193.5570  173.1730  145.0460 C   0  0  0  0  0  2  0  0  0  0  0  0
  195.1420  176.5780  144.5420 C   0  0  0  0  0  3  0  0  0  0  0  0
  193.5550  175.2580  146.4310 C   0  0  0  0  0  3  0  0  0  0  0  0
  193.9330  176.5880  146.6430 C   0  0  0  0  0  3  0  0  0  0  0  0
  193.9730  174.5850  145.2770 C   0  0  0  0  0  0  0  0  0  0  0  0
  194.7640  175.2480  144.3310 C   0  0  0  0  0  3  0  0  0  0  0  0
  194.7280  177.2480  145.6980 C   0  0  0  0  0  3  0  0  0  0  0  0
  1 11  1  0  0  0  0
  3 12  1  0  0  0  0
  3 11  2  0  0  0  0
  5  7  1  0  0  0  0
  6 14  2  0  0  0  0
  7 14  1  0  0  0  0
  7  9  1  6  0  0  0
  8 15  1  0  0  0  0
  8  2  2  0  0  0  0
  9  1  2  0  0  0  0
 10  2  1  0  0  0  0
 10  4  2  0  0  0  0
 11 10  1  0  0  0  0
 12  8  1  0  0  0  0
 13  5  2  0  0  0  0
 13  6  1  0  0  0  0
 14  3  1  0  0  0  0
 15 16  1  0  0  0  0
 17 18  2  0  0  0  0
 17  5  1  0  0  0  0
 19 20  1  0  0  0  0
 19 18  1  0  0  0  0
 21  6  1  0  0  0  0
 22 21  1  0  0  0  0
 22 23  1  0  0  0  0
 23 24  1  6  0  0  0
 23 25  1  0  0  0  0
 25 27  2  0  0  0  0
 26 25  1  0  0  0  0
 27 30  1  0  0  0  0
 28 29  2  0  0  0  0
 28 31  1  0  0  0  0
 30 28  1  0  0  0  0
 31 35  1  0  0  0  0
 32 37  1  0  0  0  0
 33 34  1  0  0  0  0
 35 33  2  0  0  0  0
 36 32  2  0  0  0  0
 36 35  1  0  0  0  0
 37 34  2  0  0  0  0
M  END
>  <MODEL>
1

>  <REMARK>
 VINA RESULT:      -8.1      0.000      0.000
  Name = 
  10 active torsions:
  status: ('A' for Active; 'I' for Inactive)
    1  A    between atoms: C_1  and  C_32
    2  A    between atoms: O_4  and  C_21
    3  A    between atoms: O_5  and  C_29
    4  A    between atoms: C_7  and  C_24
    5  A    between atoms: C_7  and  C_25
    6  A    between atoms: N_10  and  C_17
    7  A    between atoms: N_10  and  C_25
    8  A    between atoms: N_12  and  N_33
    9  A    between atoms: C_14  and  C_27
   10  A    between atoms: C_22  and  C_32
                            x       y       z     vdW  Elec       q    Type
                         _______ _______ _______ _____ _____    ______ ____

>  <TORSDO>
F 10

$$$$
=
 OpenBabel11042418353D

 37 40  0  0  1  0  0  0  0  0999 V2000
  185.4420  178.7680  146.1770 C   0  0  0  0  0  3  0  0  0  0  0  0
  188.6990  177.6850  147.6560 N   0  0  0  0  0  0  0  0  0  0  0  0
  187.3070  177.4890  145.1670 C   0  0  0  0  0  0  0  0  0  0  0  0
  186.9600  178.9590  148.5290 O   0  0  0  0  0  0  0  0  0  0  0  0
  184.9300  177.7360  142.5930 C   0  0  0  0  0  0  0  0  0  0  0  0
  186.9290  176.6870  142.7470 C   0  0  0  0  0  0  0  0  0  0  0  0
  185.2950  177.8930  143.8580 C   0  0  2  0  0  3  0  0  0  0  0  0
  189.3130  177.1130  146.6570 C   0  0  0  0  0  0  0  0  0  0  0  0
  184.6040  178.6920  144.9210 C   0  0  0  0  0  3  0  0  0  0  0  0
  187.4300  178.3350  147.5410 C   0  0  0  0  0  0  0  0  0  0  0  0
  186.6750  178.2340  146.2860 C   0  0  0  0  0  0  0  0  0  0  0  0
  188.7680  177.1570  145.2510 C   0  0  0  0  0  2  0  0  0  0  0  0
  185.9570  176.9580  141.8810 C   0  0  0  0  0  3  0  0  0  0  0  0
  186.5920  177.2800  144.0510 C   0  0  0  0  0  0  0  0  0  0  0  0
  190.5380  176.4750  146.8580 O   0  0  0  0  0  0  0  0  0  0  0  0
  191.3200  176.6800  148.0250 C   0  0  0  0  0  1  0  0  0  0  0  0
  183.6980  178.2760  142.0040 C   0  0  0  0  0  3  0  0  0  0  0  0
  183.3000  177.9330  140.7810 C   0  0  0  0  0  3  0  0  0  0  0  0
  182.1320  178.4360  140.2010 O   0  0  0  0  0  0  0  0  0  0  0  0
  180.9230  178.6080  140.9280 C   0  0  0  0  0  1  0  0  0  0  0  0
  188.0130  175.8120  142.4250 N   0  0  0  0  0  2  0  0  0  0  0  0
  187.9710  174.3730  142.6310 C   0  0  0  0  0  2  0  0  0  0  0  0
  189.3310  173.7640  142.3350 C   0  0  1  0  0  3  0  0  0  0  0  0
  189.8590  174.3020  141.0170 C   0  0  0  0  0  1  0  0  0  0  0  0
  190.3010  174.0370  143.4420 C   0  0  0  0  0  0  0  0  0  0  0  0
  189.9580  173.6680  144.8540 C   0  0  0  0  0  1  0  0  0  0  0  0
  191.4430  174.5800  143.1510 N   0  0  0  0  0  0  0  0  0  0  0  0
  192.7860  176.1950  144.4350 C   0  0  0  0  0  0  0  0  0  0  0  0
  192.2670  177.1610  143.8160 O   0  0  0  0  0  0  0  0  0  0  0  0
  192.4050  174.8540  144.1330 N   0  0  0  0  0  2  0  0  0  0  0  0
  193.8340  176.4510  145.4650 C   0  0  0  0  0  2  0  0  0  0  0  0
  197.0150  175.5050  143.6350 C   0  0  0  0  0  3  0  0  0  0  0  0
  195.5910  174.7260  145.9140 C   0  0  0  0  0  3  0  0  0  0  0  0
  196.7890  174.0830  145.5840 C   0  0  0  0  0  3  0  0  0  0  0  0
  195.1020  175.7570  145.1030 C   0  0  0  0  0  0  0  0  0  0  0  0
  195.8180  176.1470  143.9650 C   0  0  0  0  0  3  0  0  0  0  0  0
  197.5000  174.4720  144.4440 C   0  0  0  0  0  3  0  0  0  0  0  0
  1 11  1  0  0  0  0
  3 12  1  0  0  0  0
  3 11  2  0  0  0  0
  5  7  1  0  0  0  0
  6 14  2  0  0  0  0
  7 14  1  0  0  0  0
  7  9  1  6  0  0  0
  8 15  1  0  0  0  0
  8  2  2  0  0  0  0
  9  1  2  0  0  0  0
 10  2  1  0  0  0  0
 10  4  2  0  0  0  0
 11 10  1  0  0  0  0
 12  8  1  0  0  0  0
 13  5  2  0  0  0  0
 13  6  1  0  0  0  0
 14  3  1  0  0  0  0
 15 16  1  0  0  0  0
 17  5  1  0  0  0  0
 18 17  2  0  0  0  0
 19 18  1  0  0  0  0
 19 20  1  0  0  0  0
 21 22  1  0  0  0  0
 21  6  1  0  0  0  0
 23 24  1  6  0  0  0
 23 22  1  0  0  0  0
 23 25  1  0  0  0  0
 25 26  1  0  0  0  0
 27 25  2  0  0  0  0
 27 30  1  0  0  0  0
 28 31  1  0  0  0  0
 29 28  2  0  0  0  0
 30 28  1  0  0  0  0
 32 36  2  0  0  0  0
 32 37  1  0  0  0  0
 34 33  1  0  0  0  0
 35 31  1  0  0  0  0
 35 33  2  0  0  0  0
 36 35  1  0  0  0  0
 37 34  2  0  0  0  0
M  END
>  <MODEL>
2

>  <REMARK>
 VINA RESULT:      -7.6      1.489      2.034
  Name = 
  10 active torsions:
  status: ('A' for Active; 'I' for Inactive)
    1  A    between atoms: C_1  and  C_32
    2  A    between atoms: O_4  and  C_21
    3  A    between atoms: O_5  and  C_29
    4  A    between atoms: C_7  and  C_24
    5  A    between atoms: C_7  and  C_25
    6  A    between atoms: N_10  and  C_17
    7  A    between atoms: N_10  and  C_25
    8  A    between atoms: N_12  and  N_33
    9  A    between atoms: C_14  and  C_27
   10  A    between atoms: C_22  and  C_32
                            x       y       z     vdW  Elec       q    Type
                         _______ _______ _______ _____ _____    ______ ____

>  <TORSDO>
F 10

$$$$
=
 OpenBabel11042418353D

 37 40  0  0  1  0  0  0  0  0999 V2000
  189.7490  171.7110  142.8550 C   0  0  0  0  0  3  0  0  0  0  0  0
  187.8220  174.7460  141.8310 N   0  0  0  0  0  0  0  0  0  0  0  0
  190.4590  174.0800  142.7110 C   0  0  0  0  0  0  0  0  0  0  0  0
  187.2320  172.4970  141.8970 O   0  0  0  0  0  0  0  0  0  0  0  0
  193.3250  172.3820  143.8250 C   0  0  0  0  0  0  0  0  0  0  0  0
  192.8730  174.5710  143.4700 C   0  0  0  0  0  0  0  0  0  0  0  0
  192.0310  172.4160  143.5380 C   0  0  0  0  0  0  0  0  0  0  0  0
  188.7100  175.7000  141.8750 C   0  0  0  0  0  0  0  0  0  0  0  0
  191.0990  171.2550  143.3620 C   0  0  0  0  0  2  0  0  0  0  0  0
  188.1250  173.3680  142.0690 C   0  0  0  0  0  0  0  0  0  0  0  0
  189.4620  172.9920  142.5460 C   0  0  0  0  0  0  0  0  0  0  0  0
  190.1750  175.4230  142.1030 C   0  0  0  0  0  2  0  0  0  0  0  0
  193.8670  173.7510  143.7980 C   0  0  0  0  0  3  0  0  0  0  0  0
  191.6490  173.7830  143.2570 C   0  0  0  0  0  0  0  0  0  0  0  0
  188.3280  177.0260  141.6580 O   0  0  0  0  0  0  0  0  0  0  0  0
  187.2420  177.3750  140.8120 C   0  0  0  0  0  1  0  0  0  0  0  0
  194.0880  171.1600  144.1070 C   0  0  0  0  0  3  0  0  0  0  0  0
  194.7740  171.0100  145.2380 C   0  0  0  0  0  3  0  0  0  0  0  0
  195.5080  169.8570  145.5270 O   0  0  0  0  0  0  0  0  0  0  0  0
  195.4040  169.1660  146.7650 C   0  0  0  0  0  1  0  0  0  0  0  0
  193.0170  175.9930  143.5040 N   0  0  0  0  0  2  0  0  0  0  0  0
  192.8490  176.7870  144.7090 C   0  0  0  0  0  2  0  0  0  0  0  0
  191.8200  176.1400  145.6210 C   0  0  1  0  0  3  0  0  0  0  0  0
  192.4610  175.7900  146.9520 C   0  0  0  0  0  1  0  0  0  0  0  0
  190.6360  177.0330  145.8260 C   0  0  0  0  0  0  0  0  0  0  0  0
  190.1800  177.9460  144.7280 C   0  0  0  0  0  1  0  0  0  0  0  0
  190.0090  176.9870  146.9600 N   0  0  0  0  0  0  0  0  0  0  0  0
  187.5680  177.2440  147.1480 C   0  0  0  0  0  0  0  0  0  0  0  0
  187.3890  176.0370  146.8400 O   0  0  0  0  0  0  0  0  0  0  0  0
  188.8860  177.7850  147.2200 N   0  0  0  0  0  2  0  0  0  0  0  0
  186.3930  178.1270  147.4020 C   0  0  0  0  0  2  0  0  0  0  0  0
  185.8560  179.0130  143.7570 C   0  0  0  0  0  3  0  0  0  0  0  0
  184.3310  178.6080  146.0670 C   0  0  0  0  0  3  0  0  0  0  0  0
  183.7010  178.9340  144.8620 C   0  0  0  0  0  3  0  0  0  0  0  0
  185.7240  178.4890  146.1210 C   0  0  0  0  0  0  0  0  0  0  0  0
  186.4860  178.6880  144.9620 C   0  0  0  0  0  3  0  0  0  0  0  0
  184.4640  179.1380  143.7070 C   0  0  0  0  0  3  0  0  0  0  0  0
  1  9  1  0  0  0  0
  2  8  2  0  0  0  0
  2 10  1  0  0  0  0
  3 14  2  0  0  0  0
  4 10  2  0  0  0  0
  5 17  1  0  0  0  0
  6 21  1  0  0  0  0
  6 13  2  0  0  0  0
  7  5  2  0  0  0  0
  8 12  1  0  0  0  0
  9  7  1  0  0  0  0
 10 11  1  0  0  0  0
 11  3  1  0  0  0  0
 11  1  2  0  0  0  0
 12  3  1  0  0  0  0
 13  5  1  0  0  0  0
 14  6  1  0  0  0  0
 14  7  1  0  0  0  0
 15  8  1  0  0  0  0
 16 15  1  0  0  0  0
 17 18  2  0  0  0  0
 18 19  1  0  0  0  0
 19 20  1  0  0  0  0
 21 22  1  0  0  0  0
 22 23  1  0  0  0  0
 23 25  1  0  0  0  0
 23 24  1  1  0  0  0
 25 27  2  0  0  0  0
 26 25  1  0  0  0  0
 27 30  1  0  0  0  0
 28 30  1  0  0  0  0
 28 31  1  0  0  0  0
 29 28  2  0  0  0  0
 32 36  1  0  0  0  0
 33 35  1  0  0  0  0
 34 33  2  0  0  0  0
 35 31  1  0  0  0  0
 36 35  2  0  0  0  0
 37 32  2  0  0  0  0
 37 34  1  0  0  0  0
M  END
>  <MODEL>
3

>  <REMARK>
 VINA RESULT:      -7.5      2.425      8.937
  Name = 
  10 active torsions:
  status: ('A' for Active; 'I' for Inactive)
    1  A    between atoms: C_1  and  C_32
    2  A    between atoms: O_4  and  C_21
    3  A    between atoms: O_5  and  C_29
    4  A    between atoms: C_7  and  C_24
    5  A    between atoms: C_7  and  C_25
    6  A    between atoms: N_10  and  C_17
    7  A    between atoms: N_10  and  C_25
    8  A    between atoms: N_12  and  N_33
    9  A    between atoms: C_14  and  C_27
   10  A    between atoms: C_22  and  C_32
                            x       y       z     vdW  Elec       q    Type
                         _______ _______ _______ _____ _____    ______ ____

>  <TORSDO>
F 10

$$$$
=
 OpenBabel11042418353D

 37 40  0  0  1  0  0  0  0  0999 V2000
  195.4680  174.7770  145.8220 C   0  0  0  0  0  3  0  0  0  0  0  0
  192.5180  177.0130  145.3020 N   0  0  0  0  0  0  0  0  0  0  0  0
  193.1610  174.2340  145.1020 C   0  0  0  0  0  0  0  0  0  0  0  0
  194.6710  177.4570  146.0610 O   0  0  0  0  0  0  0  0  0  0  0  0
  194.8120  171.1350  145.1290 C   0  0  0  0  0  0  0  0  0  0  0  0
  192.7230  171.7610  144.5250 C   0  0  0  0  0  0  0  0  0  0  0  0
  194.8210  172.4580  145.2120 C   0  0  0  0  0  0  0  0  0  0  0  0
  191.5580  176.1840  144.9960 C   0  0  0  0  0  0  0  0  0  0  0  0
  195.9240  173.3400  145.7150 C   0  0  0  0  0  2  0  0  0  0  0  0
  193.8360  176.5980  145.6720 C   0  0  0  0  0  0  0  0  0  0  0  0
  194.2100  175.1820  145.5580 C   0  0  0  0  0  0  0  0  0  0  0  0
  191.7300  174.6890  145.0850 C   0  0  0  0  0  2  0  0  0  0  0  0
  193.4860  170.6820  144.6790 C   0  0  0  0  0  3  0  0  0  0  0  0
  193.5050  172.9570  144.8750 C   0  0  0  0  0  0  0  0  0  0  0  0
  190.3050  176.6710  144.6170 O   0  0  0  0  0  0  0  0  0  0  0  0
  189.3930  177.2320  145.5510 C   0  0  0  0  0  1  0  0  0  0  0  0
  195.9520  170.2680  145.4550 C   0  0  0  0  0  3  0  0  0  0  0  0
  196.0320  169.6290  146.6210 C   0  0  0  0  0  3  0  0  0  0  0  0
  197.1080  168.8010  146.9530 O   0  0  0  0  0  0  0  0  0  0  0  0
  197.2290  168.1660  148.2190 C   0  0  0  0  0  1  0  0  0  0  0  0
  191.4170  171.6930  143.9470 N   0  0  0  0  0  2  0  0  0  0  0  0
  191.1710  171.7290  142.5150 C   0  0  0  0  0  2  0  0  0  0  0  0
  191.0590  173.1680  142.0410 C   0  0  1  0  0  3  0  0  0  0  0  0
  191.6710  173.3030  140.6590 C   0  0  0  0  0  1  0  0  0  0  0  0
  189.6330  173.6280  142.0330 C   0  0  0  0  0  0  0  0  0  0  0  0
  188.5240  172.6530  142.2860 C   0  0  0  0  0  1  0  0  0  0  0  0
  189.3850  174.8830  141.8200 N   0  0  0  0  0  0  0  0  0  0  0  0
  187.8330  176.7950  141.8240 C   0  0  0  0  0  0  0  0  0  0  0  0
  188.7920  177.6100  141.8540 O   0  0  0  0  0  0  0  0  0  0  0  0
  188.0780  175.3890  141.8090 N   0  0  0  0  0  2  0  0  0  0  0  0
  186.4300  177.3000  141.8410 C   0  0  0  0  0  2  0  0  0  0  0  0
  185.4270  179.5110  144.7510 C   0  0  0  0  0  3  0  0  0  0  0  0
  185.9300  176.8060  144.2430 C   0  0  0  0  0  3  0  0  0  0  0  0
  185.5610  177.2200  145.5280 C   0  0  0  0  0  3  0  0  0  0  0  0
  186.0520  177.7440  143.2120 C   0  0  0  0  0  0  0  0  0  0  0  0
  185.7970  179.0980  143.4670 C   0  0  0  0  0  3  0  0  0  0  0  0
  185.3110  178.5730  145.7810 C   0  0  0  0  0  3  0  0  0  0  0  0
  2 10  1  0  0  0  0
  3 11  1  0  0  0  0
  5  7  2  0  0  0  0
  5 17  1  0  0  0  0
  6 13  2  0  0  0  0
  6 14  1  0  0  0  0
  7  9  1  0  0  0  0
  8 12  1  0  0  0  0
  8  2  2  0  0  0  0
  9  1  1  0  0  0  0
 10  4  2  0  0  0  0
 11 10  1  0  0  0  0
 11  1  2  0  0  0  0
 12  3  1  0  0  0  0
 13  5  1  0  0  0  0
 14  3  2  0  0  0  0
 14  7  1  0  0  0  0
 15  8  1  0  0  0  0
 15 16  1  0  0  0  0
 17 18  2  0  0  0  0
 18 19  1  0  0  0  0
 19 20  1  0  0  0  0
 21  6  1  0  0  0  0
 22 21  1  0  0  0  0
 23 24  1  6  0  0  0
 23 22  1  0  0  0  0
 25 23  1  0  0  0  0
 25 26  1  0  0  0  0
 27 25  2  0  0  0  0
 28 31  1  0  0  0  0
 28 29  2  0  0  0  0
 30 27  1  0  0  0  0
 30 28  1  0  0  0  0
 31 35  1  0  0  0  0
 32 37  1  0  0  0  0
 33 34  1  0  0  0  0
 34 37  2  0  0  0  0
 35 36  1  0  0  0  0
 35 33  2  0  0  0  0
 36 32  2  0  0  0  0
M  END
>  <MODEL>
4

>  <REMARK>
 VINA RESULT:      -7.5      2.691      9.578
  Name = 
  10 active torsions:
  status: ('A' for Active; 'I' for Inactive)
    1  A    between atoms: C_1  and  C_32
    2  A    between atoms: O_4  and  C_21
    3  A    between atoms: O_5  and  C_29
    4  A    between atoms: C_7  and  C_24
    5  A    between atoms: C_7  and  C_25
    6  A    between atoms: N_10  and  C_17
    7  A    between atoms: N_10  and  C_25
    8  A    between atoms: N_12  and  N_33
    9  A    between atoms: C_14  and  C_27
   10  A    between atoms: C_22  and  C_32
                            x       y       z     vdW  Elec       q    Type
                         _______ _______ _______ _____ _____    ______ ____

>  <TORSDO>
F 10

$$$$
=
 OpenBabel11042418353D

 37 40  0  0  1  0  0  0  0  0999 V2000
  192.8850  175.6800  146.8700 C   0  0  0  0  0  3  0  0  0  0  0  0
  189.3940  176.8670  147.4850 N   0  0  0  0  0  0  0  0  0  0  0  0
  190.7250  174.7710  146.0680 C   0  0  0  0  0  0  0  0  0  0  0  0
  191.4420  177.6270  148.2840 O   0  0  0  0  0  0  0  0  0  0  0  0
  193.1360  172.6280  144.6790 C   0  0  0  0  0  0  0  0  0  0  0  0
  190.8840  172.7440  144.4830 C   0  0  0  0  0  0  0  0  0  0  0  0
  192.7990  173.7320  145.3310 C   0  0  2  0  0  3  0  0  0  0  0  0
  188.6580  175.9750  146.8820 C   0  0  0  0  0  0  0  0  0  0  0  0
  193.6890  174.6360  146.1290 C   0  0  0  0  0  3  0  0  0  0  0  0
  190.8180  176.7820  147.5890 C   0  0  0  0  0  0  0  0  0  0  0  0
  191.5380  175.7330  146.8540 C   0  0  0  0  0  0  0  0  0  0  0  0
  189.2430  174.7120  146.3020 C   0  0  0  0  0  2  0  0  0  0  0  0
  191.9260  172.0000  144.1240 C   0  0  0  0  0  3  0  0  0  0  0  0
  191.3590  173.8770  145.2930 C   0  0  0  0  0  0  0  0  0  0  0  0
  187.2740  176.1460  146.7990 O   0  0  0  0  0  0  0  0  0  0  0  0
  186.5840  177.1340  147.5510 C   0  0  0  0  0  1  0  0  0  0  0  0
  194.5060  172.1160  144.5530 C   0  0  0  0  0  3  0  0  0  0  0  0
  194.9340  171.0810  145.2710 C   0  0  0  0  0  3  0  0  0  0  0  0
  196.2340  170.5780  145.1690 O   0  0  0  0  0  0  0  0  0  0  0  0
  197.3880  171.4030  145.2600 C   0  0  0  0  0  1  0  0  0  0  0  0
  189.5680  172.5040  143.9820 N   0  0  0  0  0  2  0  0  0  0  0  0
  189.1100  172.9610  142.6800 C   0  0  0  0  0  2  0  0  0  0  0  0
  189.8260  174.2450  142.2960 C   0  0  1  0  0  3  0  0  0  0  0  0
  190.3850  174.1220  140.8910 C   0  0  0  0  0  1  0  0  0  0  0  0
  188.9120  175.4280  142.3990 C   0  0  0  0  0  0  0  0  0  0  0  0
  189.4040  176.7130  142.9930 C   0  0  0  0  0  1  0  0  0  0  0  0
  187.7000  175.3190  141.9490 N   0  0  0  0  0  0  0  0  0  0  0  0
  186.5020  177.1610  140.8370 C   0  0  0  0  0  0  0  0  0  0  0  0
  187.0660  176.9030  139.7410 O   0  0  0  0  0  0  0  0  0  0  0  0
  186.7930  176.3860  142.0000 N   0  0  0  0  0  2  0  0  0  0  0  0
  185.5530  178.3070  140.9310 C   0  0  0  0  0  2  0  0  0  0  0  0
  183.7030  178.6820  144.2170 C   0  0  0  0  0  3  0  0  0  0  0  0
  186.2660  179.1270  143.1860 C   0  0  0  0  0  3  0  0  0  0  0  0
  185.9930  179.4120  144.5280 C   0  0  0  0  0  3  0  0  0  0  0  0
  185.2570  178.6240  142.3570 C   0  0  0  0  0  0  0  0  0  0  0  0
  183.9760  178.3990  142.8750 C   0  0  0  0  0  3  0  0  0  0  0  0
  184.7110  179.1910  145.0430 C   0  0  0  0  0  3  0  0  0  0  0  0
  2 10  1  0  0  0  0
  3 12  1  0  0  0  0
  3 11  2  0  0  0  0
  5  7  1  0  0  0  0
  6 14  2  0  0  0  0
  7  9  1  1  0  0  0
  8  2  2  0  0  0  0
  9  1  2  0  0  0  0
 10  4  2  0  0  0  0
 11  1  1  0  0  0  0
 11 10  1  0  0  0  0
 12  8  1  0  0  0  0
 13  6  1  0  0  0  0
 13  5  2  0  0  0  0
 14  7  1  0  0  0  0
 14  3  1  0  0  0  0
 15  8  1  0  0  0  0
 15 16  1  0  0  0  0
 17  5  1  0  0  0  0
 17 18  2  0  0  0  0
 19 20  1  0  0  0  0
 19 18  1  0  0  0  0
 21  6  1  0  0  0  0
 22 21  1  0  0  0  0
 23 24  1  6  0  0  0
 23 25  1  0  0  0  0
 23 22  1  0  0  0  0
 25 26  1  0  0  0  0
 27 30  1  0  0  0  0
 27 25  2  0  0  0  0
 28 31  1  0  0  0  0
 28 30  1  0  0  0  0
 29 28  2  0  0  0  0
 31 35  1  0  0  0  0
 32 37  1  0  0  0  0
 33 34  1  0  0  0  0
 34 37  2  0  0  0  0
 35 36  1  0  0  0  0
 35 33  2  0  0  0  0
 36 32  2  0  0  0  0
M  END
>  <MODEL>
5

>  <REMARK>
 VINA RESULT:      -7.4      2.188      8.647
  Name = 
  10 active torsions:
  status: ('A' for Active; 'I' for Inactive)
    1  A    between atoms: C_1  and  C_32
    2  A    between atoms: O_4  and  C_21
    3  A    between atoms: O_5  and  C_29
    4  A    between atoms: C_7  and  C_24
    5  A    between atoms: C_7  and  C_25
    6  A    between atoms: N_10  and  C_17
    7  A    between atoms: N_10  and  C_25
    8  A    between atoms: N_12  and  N_33
    9  A    between atoms: C_14  and  C_27
   10  A    between atoms: C_22  and  C_32
                            x       y       z     vdW  Elec       q    Type
                         _______ _______ _______ _____ _____    ______ ____

>  <TORSDO>
F 10

$$$$
=
 OpenBabel11042418353D

 37 40  0  0  1  0  0  0  0  0999 V2000
  187.2510  176.5260  141.6390 C   0  0  0  0  0  3  0  0  0  0  0  0
  185.7540  178.7190  144.2700 N   0  0  0  0  0  0  0  0  0  0  0  0
  187.6630  176.5990  144.0800 C   0  0  0  0  0  0  0  0  0  0  0  0
  185.4700  178.6710  141.9620 O   0  0  0  0  0  0  0  0  0  0  0  0
  189.7700  174.0390  142.9210 C   0  0  0  0  0  0  0  0  0  0  0  0
  189.3080  174.8350  144.9890 C   0  0  0  0  0  0  0  0  0  0  0  0
  188.7950  174.9180  142.7320 C   0  0  0  0  0  0  0  0  0  0  0  0
  186.3880  178.3690  145.3560 C   0  0  0  0  0  0  0  0  0  0  0  0
  188.2130  175.3790  141.4300 C   0  0  0  0  0  3  0  0  0  0  0  0
  186.0540  178.1970  142.9730 C   0  0  0  0  0  0  0  0  0  0  0  0
  187.0110  177.0910  142.8400 C   0  0  0  0  0  0  0  0  0  0  0  0
  187.5670  177.4290  145.3280 C   0  0  0  0  0  2  0  0  0  0  0  0
  190.0940  173.9690  144.3550 C   0  0  0  0  0  2  0  0  0  0  0  0
  188.4490  175.5140  144.0060 C   0  0  0  0  0  0  0  0  0  0  0  0
  186.0150  178.9040  146.5900 O   0  0  0  0  0  0  0  0  0  0  0  0
  185.0480  178.2860  147.4260 C   0  0  0  0  0  1  0  0  0  0  0  0
  190.4260  173.2760  141.8520 C   0  0  0  0  0  3  0  0  0  0  0  0
  191.7140  172.9450  141.9200 C   0  0  0  0  0  3  0  0  0  0  0  0
  192.3590  172.2200  140.9140 O   0  0  0  0  0  0  0  0  0  0  0  0
  192.8350  172.8200  139.7160 C   0  0  0  0  0  1  0  0  0  0  0  0
  189.2530  174.9100  146.4150 N   0  0  0  0  0  2  0  0  0  0  0  0
  190.4250  175.0940  147.2550 C   0  0  0  0  0  2  0  0  0  0  0  0
  191.0040  176.4830  147.0450 C   0  0  1  0  0  3  0  0  0  0  0  0
  191.2340  177.1520  148.3870 C   0  0  0  0  0  1  0  0  0  0  0  0
  192.2780  176.4270  146.2580 C   0  0  0  0  0  0  0  0  0  0  0  0
  192.2950  176.8440  144.8190 C   0  0  0  0  0  1  0  0  0  0  0  0
  193.3600  176.0290  146.8520 N   0  0  0  0  0  0  0  0  0  0  0  0
  195.0700  174.7300  145.6470 C   0  0  0  0  0  0  0  0  0  0  0  0
  194.3950  173.6740  145.7710 O   0  0  0  0  0  0  0  0  0  0  0  0
  194.5900  175.9620  146.1850 N   0  0  0  0  0  2  0  0  0  0  0  0
  196.3960  174.6870  144.9680 C   0  0  0  0  0  2  0  0  0  0  0  0
  195.6710  174.5640  141.2500 C   0  0  0  0  0  3  0  0  0  0  0  0
  196.5780  176.4030  143.1540 C   0  0  0  0  0  3  0  0  0  0  0  0
  196.4420  176.7900  141.8170 C   0  0  0  0  0  3  0  0  0  0  0  0
  196.2650  175.0940  143.5400 C   0  0  0  0  0  0  0  0  0  0  0  0
  195.8080  174.1760  142.5870 C   0  0  0  0  0  3  0  0  0  0  0  0
  195.9890  175.8700  140.8650 C   0  0  0  0  0  3  0  0  0  0  0  0
  1 11  1  0  0  0  0
  2  8  2  0  0  0  0
  3 12  1  0  0  0  0
  4 10  2  0  0  0  0
  5 13  1  0  0  0  0
  6 21  1  0  0  0  0
  7  5  2  0  0  0  0
  7 14  1  0  0  0  0
  8 15  1  0  0  0  0
  9  1  2  0  0  0  0
  9  7  1  0  0  0  0
 10  2  1  0  0  0  0
 11 10  1  0  0  0  0
 11  3  2  0  0  0  0
 12  8  1  0  0  0  0
 13  6  1  0  0  0  0
 14  3  1  0  0  0  0
 14  6  2  0  0  0  0
 15 16  1  0  0  0  0
 17 18  2  0  0  0  0
 17  5  1  0  0  0  0
 19 18  1  0  0  0  0
 20 19  1  0  0  0  0
 21 22  1  0  0  0  0
 23 22  1  0  0  0  0
 23 24  1  1  0  0  0
 25 27  2  0  0  0  0
 25 23  1  0  0  0  0
 26 25  1  0  0  0  0
 28 29  2  0  0  0  0
 28 30  1  0  0  0  0
 30 27  1  0  0  0  0
 31 28  1  0  0  0  0
 32 36  1  0  0  0  0
 33 35  1  0  0  0  0
 34 33  2  0  0  0  0
 35 31  1  0  0  0  0
 36 35  2  0  0  0  0
 37 32  2  0  0  0  0
 37 34  1  0  0  0  0
M  END
>  <MODEL>
6

>  <REMARK>
 VINA RESULT:      -7.2      2.504      5.926
  Name = 
  10 active torsions:
  status: ('A' for Active; 'I' for Inactive)
    1  A    between atoms: C_1  and  C_32
    2  A    between atoms: O_4  and  C_21
    3  A    between atoms: O_5  and  C_29
    4  A    between atoms: C_7  and  C_24
    5  A    between atoms: C_7  and  C_25
    6  A    between atoms: N_10  and  C_17
    7  A    between atoms: N_10  and  C_25
    8  A    between atoms: N_12  and  N_33
    9  A    between atoms: C_14  and  C_27
   10  A    between atoms: C_22  and  C_32
                            x       y       z     vdW  Elec       q    Type
                         _______ _______ _______ _____ _____    ______ ____

>  <TORSDO>
F 10

$$$$
=
 OpenBabel11042418353D

 37 40  0  0  1  0  0  0  0  0999 V2000
  187.1490  176.5780  141.2510 C   0  0  0  0  0  3  0  0  0  0  0  0
  185.4970  179.0190  143.5500 N   0  0  0  0  0  0  0  0  0  0  0  0
  187.4780  176.9610  143.6750 C   0  0  0  0  0  0  0  0  0  0  0  0
  185.2900  178.6810  141.2580 O   0  0  0  0  0  0  0  0  0  0  0  0
  189.7030  174.3570  142.9000 C   0  0  0  0  0  0  0  0  0  0  0  0
  189.1480  175.3810  144.8400 C   0  0  0  0  0  0  0  0  0  0  0  0
  188.7070  175.1710  142.5770 C   0  0  0  0  0  0  0  0  0  0  0  0
  186.1060  178.8270  144.6880 C   0  0  0  0  0  0  0  0  0  0  0  0
  188.1530  175.4490  141.2120 C   0  0  0  0  0  3  0  0  0  0  0  0
  185.8560  178.3540  142.3350 C   0  0  0  0  0  0  0  0  0  0  0  0
  186.8520  177.2750  142.3660 C   0  0  0  0  0  0  0  0  0  0  0  0
  187.3150  177.9330  144.8090 C   0  0  0  0  0  2  0  0  0  0  0  0
  189.9820  174.4740  144.3410 C   0  0  0  0  0  2  0  0  0  0  0  0
  188.3010  175.9050  143.7570 C   0  0  0  0  0  0  0  0  0  0  0  0
  185.6760  179.4940  145.8360 O   0  0  0  0  0  0  0  0  0  0  0  0
  185.1860  178.8060  146.9780 C   0  0  0  0  0  1  0  0  0  0  0  0
  190.4180  173.4940  141.9520 C   0  0  0  0  0  3  0  0  0  0  0  0
  190.7720  172.2500  142.2700 C   0  0  0  0  0  3  0  0  0  0  0  0
  191.4540  171.4110  141.3850 O   0  0  0  0  0  0  0  0  0  0  0  0
  190.8090  170.3800  140.6480 C   0  0  0  0  0  1  0  0  0  0  0  0
  189.0440  175.6270  146.2440 N   0  0  0  0  0  2  0  0  0  0  0  0
  190.1080  175.3380  147.1910 C   0  0  0  0  0  2  0  0  0  0  0  0
  191.1900  176.4020  147.1000 C   0  0  1  0  0  3  0  0  0  0  0  0
  191.3100  177.1270  148.4280 C   0  0  0  0  0  1  0  0  0  0  0  0
  192.5060  175.8050  146.7050 C   0  0  0  0  0  0  0  0  0  0  0  0
  192.6580  174.3180  146.5930 C   0  0  0  0  0  1  0  0  0  0  0  0
  193.4980  176.6000  146.4470 N   0  0  0  0  0  0  0  0  0  0  0  0
  195.1080  176.0070  144.6820 C   0  0  0  0  0  0  0  0  0  0  0  0
  194.2890  176.3380  143.7840 O   0  0  0  0  0  0  0  0  0  0  0  0
  194.7550  176.1160  146.0600 N   0  0  0  0  0  2  0  0  0  0  0  0
  196.4430  175.4610  144.3030 C   0  0  0  0  0  2  0  0  0  0  0  0
  195.9600  171.7650  143.6170 C   0  0  0  0  0  3  0  0  0  0  0  0
  197.0530  173.4090  145.6000 C   0  0  0  0  0  3  0  0  0  0  0  0
  197.0890  172.0180  145.7460 C   0  0  0  0  0  3  0  0  0  0  0  0
  196.4670  173.9800  144.4640 C   0  0  0  0  0  0  0  0  0  0  0  0
  195.9230  173.1560  143.4710 C   0  0  0  0  0  3  0  0  0  0  0  0
  196.5410  171.1970  144.7550 C   0  0  0  0  0  3  0  0  0  0  0  0
  1 11  1  0  0  0  0
  2  8  2  0  0  0  0
  3 14  1  0  0  0  0
  3 12  1  0  0  0  0
  4 10  2  0  0  0  0
  5 13  1  0  0  0  0
  6 21  1  0  0  0  0
  7  5  2  0  0  0  0
  7 14  1  0  0  0  0
  8 12  1  0  0  0  0
  8 15  1  0  0  0  0
  9  1  2  0  0  0  0
  9  7  1  0  0  0  0
 10 11  1  0  0  0  0
 10  2  1  0  0  0  0
 11  3  2  0  0  0  0
 13  6  1  0  0  0  0
 14  6  2  0  0  0  0
 15 16  1  0  0  0  0
 17 18  2  0  0  0  0
 17  5  1  0  0  0  0
 19 18  1  0  0  0  0
 20 19  1  0  0  0  0
 21 22  1  0  0  0  0
 23 22  1  0  0  0  0
 23 24  1  1  0  0  0
 25 23  1  0  0  0  0
 26 25  1  0  0  0  0
 27 25  2  0  0  0  0
 28 30  1  0  0  0  0
 29 28  2  0  0  0  0
 30 27  1  0  0  0  0
 31 35  1  0  0  0  0
 31 28  1  0  0  0  0
 32 37  1  0  0  0  0
 33 34  1  0  0  0  0
 35 33  2  0  0  0  0
 36 32  2  0  0  0  0
 36 35  1  0  0  0  0
 37 34  2  0  0  0  0
M  END
>  <MODEL>
7

>  <REMARK>
 VINA RESULT:      -7.2      2.479      6.032
  Name = 
  10 active torsions:
  status: ('A' for Active; 'I' for Inactive)
    1  A    between atoms: C_1  and  C_32
    2  A    between atoms: O_4  and  C_21
    3  A    between atoms: O_5  and  C_29
    4  A    between atoms: C_7  and  C_24
    5  A    between atoms: C_7  and  C_25
    6  A    between atoms: N_10  and  C_17
    7  A    between atoms: N_10  and  C_25
    8  A    between atoms: N_12  and  N_33
    9  A    between atoms: C_14  and  C_27
   10  A    between atoms: C_22  and  C_32
                            x       y       z     vdW  Elec       q    Type
                         _______ _______ _______ _____ _____    ______ ____

>  <TORSDO>
F 10

$$$$
=
 OpenBabel11042418353D

 37 40  0  0  1  0  0  0  0  0999 V2000
  189.1840  172.3750  141.7270 C   0  0  0  0  0  3  0  0  0  0  0  0
  192.4520  170.7850  142.6010 N   0  0  0  0  0  0  0  0  0  0  0  0
  191.2680  173.3870  142.6030 C   0  0  0  0  0  0  0  0  0  0  0  0
  190.4440  169.8710  141.8630 O   0  0  0  0  0  0  0  0  0  0  0  0
  189.0640  176.1000  142.2600 C   0  0  0  0  0  0  0  0  0  0  0  0
  191.2370  175.9500  142.8770 C   0  0  0  0  0  0  0  0  0  0  0  0
  189.3810  174.8270  142.0660 C   0  0  0  0  0  0  0  0  0  0  0  0
  193.1560  171.7750  143.0770 C   0  0  0  0  0  0  0  0  0  0  0  0
  188.4740  173.7080  141.6530 C   0  0  0  0  0  3  0  0  0  0  0  0
  191.0820  170.9020  142.2070 C   0  0  0  0  0  0  0  0  0  0  0  0
  190.4480  172.2260  142.1710 C   0  0  0  0  0  0  0  0  0  0  0  0
  192.5550  173.1340  143.3340 C   0  0  0  0  0  2  0  0  0  0  0  0
  190.2430  176.8260  142.7630 C   0  0  0  0  0  2  0  0  0  0  0  0
  190.7560  174.6200  142.4690 C   0  0  0  0  0  0  0  0  0  0  0  0
  194.4980  171.5860  143.4120 O   0  0  0  0  0  0  0  0  0  0  0  0
  195.3430  172.6580  143.8020 C   0  0  0  0  0  1  0  0  0  0  0  0
  187.7360  176.6770  142.0220 C   0  0  0  0  0  3  0  0  0  0  0  0
  187.4410  177.3080  140.8880 C   0  0  0  0  0  3  0  0  0  0  0  0
  186.1840  177.8660  140.6400 O   0  0  0  0  0  0  0  0  0  0  0  0
  185.3110  178.2910  141.6800 C   0  0  0  0  0  1  0  0  0  0  0  0
  192.5720  176.3510  143.1920 N   0  0  0  0  0  2  0  0  0  0  0  0
  192.9610  176.9050  144.4780 C   0  0  0  0  0  2  0  0  0  0  0  0
  193.0530  175.7990  145.5160 C   0  0  1  0  0  3  0  0  0  0  0  0
  194.3000  175.9900  146.3600 C   0  0  0  0  0  1  0  0  0  0  0  0
  191.8310  175.7630  146.3820 C   0  0  0  0  0  0  0  0  0  0  0  0
  191.8360  176.4320  147.7230 C   0  0  0  0  0  1  0  0  0  0  0  0
  190.7720  175.1590  145.9400 N   0  0  0  0  0  0  0  0  0  0  0  0
  188.6070  176.1260  146.6010 C   0  0  0  0  0  0  0  0  0  0  0  0
  188.7920  177.1220  145.8540 O   0  0  0  0  0  0  0  0  0  0  0  0
  189.5890  175.0940  146.6880 N   0  0  0  0  0  2  0  0  0  0  0  0
  187.3710  176.0410  147.4320 C   0  0  0  0  0  2  0  0  0  0  0  0
  184.7610  177.6780  145.2250 C   0  0  0  0  0  3  0  0  0  0  0  0
  185.9560  178.0850  147.7230 C   0  0  0  0  0  3  0  0  0  0  0  0
  184.9780  178.9730  147.2620 C   0  0  0  0  0  3  0  0  0  0  0  0
  186.3410  176.9950  146.9330 C   0  0  0  0  0  0  0  0  0  0  0  0
  185.7390  176.7910  145.6850 C   0  0  0  0  0  3  0  0  0  0  0  0
  184.3810  178.7700  146.0130 C   0  0  0  0  0  3  0  0  0  0  0  0
  1 11  1  0  0  0  0
  2  8  2  0  0  0  0
  3 12  1  0  0  0  0
  4 10  2  0  0  0  0
  5 13  1  0  0  0  0
  6 21  1  0  0  0  0
  7  5  2  0  0  0  0
  7 14  1  0  0  0  0
  8 12  1  0  0  0  0
  8 15  1  0  0  0  0
  9  1  2  0  0  0  0
  9  7  1  0  0  0  0
 10  2  1  0  0  0  0
 11 10  1  0  0  0  0
 11  3  2  0  0  0  0
 13  6  1  0  0  0  0
 14  3  1  0  0  0  0
 14  6  2  0  0  0  0
 15 16  1  0  0  0  0
 17  5  1  0  0  0  0
 18 17  2  0  0  0  0
 19 18  1  0  0  0  0
 19 20  1  0  0  0  0
 21 22  1  0  0  0  0
 22 23  1  0  0  0  0
 23 24  1  1  0  0  0
 23 25  1  0  0  0  0
 25 26  1  0  0  0  0
 27 25  2  0  0  0  0
 27 30  1  0  0  0  0
 28 30  1  0  0  0  0
 28 31  1  0  0  0  0
 29 28  2  0  0  0  0
 32 36  2  0  0  0  0
 32 37  1  0  0  0  0
 34 33  1  0  0  0  0
 35 31  1  0  0  0  0
 35 33  2  0  0  0  0
 36 35  1  0  0  0  0
 37 34  2  0  0  0  0
M  END
>  <MODEL>
8

>  <REMARK>
 VINA RESULT:      -7.2      2.269      7.088
  Name = 
  10 active torsions:
  status: ('A' for Active; 'I' for Inactive)
    1  A    between atoms: C_1  and  C_32
    2  A    between atoms: O_4  and  C_21
    3  A    between atoms: O_5  and  C_29
    4  A    between atoms: C_7  and  C_24
    5  A    between atoms: C_7  and  C_25
    6  A    between atoms: N_10  and  C_17
    7  A    between atoms: N_10  and  C_25
    8  A    between atoms: N_12  and  N_33
    9  A    between atoms: C_14  and  C_27
   10  A    between atoms: C_22  and  C_32
                            x       y       z     vdW  Elec       q    Type
                         _______ _______ _______ _____ _____    ______ ____

>  <TORSDO>
F 10

$$$$
=
 OpenBabel11042418353D

 37 40  0  0  1  0  0  0  0  0999 V2000
  195.2080  176.7240  144.2500 C   0  0  0  0  0  3  0  0  0  0  0  0
  192.5650  176.1330  146.8270 N   0  0  0  0  0  0  0  0  0  0  0  0
  193.1360  175.3720  144.1310 C   0  0  0  0  0  0  0  0  0  0  0  0
  194.5660  177.3160  146.9170 O   0  0  0  0  0  0  0  0  0  0  0  0
  194.6030  174.9910  140.9630 C   0  0  0  0  0  0  0  0  0  0  0  0
  192.6550  174.2630  141.8550 C   0  0  0  0  0  0  0  0  0  0  0  0
  194.5430  175.5690  142.1550 C   0  0  2  0  0  3  0  0  0  0  0  0
  191.7560  175.2920  146.2460 C   0  0  0  0  0  0  0  0  0  0  0  0
  195.5870  176.4140  142.8200 C   0  0  0  0  0  3  0  0  0  0  0  0
  193.7880  176.5910  146.2420 C   0  0  0  0  0  0  0  0  0  0  0  0
  194.1020  176.2400  144.8510 C   0  0  0  0  0  0  0  0  0  0  0  0
  192.0810  174.6520  144.9200 C   0  0  0  0  0  2  0  0  0  0  0  0
  193.3990  174.1690  140.7580 C   0  0  0  0  0  3  0  0  0  0  0  0
  193.3360  175.1330  142.8260 C   0  0  0  0  0  0  0  0  0  0  0  0
  190.5650  174.9160  146.8730 O   0  0  0  0  0  0  0  0  0  0  0  0
  189.5810  175.8620  147.2630 C   0  0  0  0  0  1  0  0  0  0  0  0
  195.7120  175.1440  140.0140 C   0  0  0  0  0  3  0  0  0  0  0  0
  195.5290  175.0290  138.7010 C   0  0  0  0  0  3  0  0  0  0  0  0
  196.5710  175.1700  137.7800 O   0  0  0  0  0  0  0  0  0  0  0  0
  197.9140  175.4260  138.1690 C   0  0  0  0  0  1  0  0  0  0  0  0
  191.3390  173.7100  141.9320 N   0  0  0  0  0  2  0  0  0  0  0  0
  190.2090  174.2190  141.1730 C   0  0  0  0  0  2  0  0  0  0  0  0
  188.9060  173.7580  141.8050 C   0  0  1  0  0  3  0  0  0  0  0  0
  189.1830  172.6480  142.8020 C   0  0  0  0  0  1  0  0  0  0  0  0
  188.1910  174.8950  142.4670 C   0  0  0  0  0  0  0  0  0  0  0  0
  188.5790  175.3300  143.8480 C   0  0  0  0  0  1  0  0  0  0  0  0
  187.2470  175.5020  141.8160 N   0  0  0  0  0  0  0  0  0  0  0  0
  187.0240  177.9180  142.2340 C   0  0  0  0  0  0  0  0  0  0  0  0
  188.1020  178.1510  141.6250 O   0  0  0  0  0  0  0  0  0  0  0  0
  186.5430  176.5810  142.3650 N   0  0  0  0  0  2  0  0  0  0  0  0
  186.2660  179.0410  142.8550 C   0  0  0  0  0  2  0  0  0  0  0  0
  184.2290  178.5220  146.0090 C   0  0  0  0  0  3  0  0  0  0  0  0
  186.8760  178.2390  145.1460 C   0  0  0  0  0  3  0  0  0  0  0  0
  186.5310  177.9140  146.4620 C   0  0  0  0  0  3  0  0  0  0  0  0
  185.8990  178.7100  144.2610 C   0  0  0  0  0  0  0  0  0  0  0  0
  184.5740  178.8480  144.6930 C   0  0  0  0  0  3  0  0  0  0  0  0
  185.2070  178.0570  146.8930 C   0  0  0  0  0  3  0  0  0  0  0  0
  1 11  1  0  0  0  0
  3 11  2  0  0  0  0
  3 12  1  0  0  0  0
  5  7  1  0  0  0  0
  6 21  1  0  0  0  0
  6 14  2  0  0  0  0
  7  9  1  1  0  0  0
  7 14  1  0  0  0  0
  8  2  2  0  0  0  0
  8 15  1  0  0  0  0
  9  1  2  0  0  0  0
 10  2  1  0  0  0  0
 10  4  2  0  0  0  0
 11 10  1  0  0  0  0
 12  8  1  0  0  0  0
 13  5  2  0  0  0  0
 13  6  1  0  0  0  0
 14  3  1  0  0  0  0
 15 16  1  0  0  0  0
 17  5  1  0  0  0  0
 18 17  2  0  0  0  0
 19 20  1  0  0  0  0
 19 18  1  0  0  0  0
 22 23  1  0  0  0  0
 22 21  1  0  0  0  0
 23 25  1  0  0  0  0
 23 24  1  1  0  0  0
 25 26  1  0  0  0  0
 27 30  1  0  0  0  0
 27 25  2  0  0  0  0
 28 30  1  0  0  0  0
 28 31  1  0  0  0  0
 29 28  2  0  0  0  0
 31 35  1  0  0  0  0
 32 37  1  0  0  0  0
 33 34  1  0  0  0  0
 34 37  2  0  0  0  0
 35 36  1  0  0  0  0
 35 33  2  0  0  0  0
 36 32  2  0  0  0  0
M  END
>  <MODEL>
9

>  <REMARK>
 VINA RESULT:      -7.1      2.921      8.547
  Name = 
  10 active torsions:
  status: ('A' for Active; 'I' for Inactive)
    1  A    between atoms: C_1  and  C_32
    2  A    between atoms: O_4  and  C_21
    3  A    between atoms: O_5  and  C_29
    4  A    between atoms: C_7  and  C_24
    5  A    between atoms: C_7  and  C_25
    6  A    between atoms: N_10  and  C_17
    7  A    between atoms: N_10  and  C_25
    8  A    between atoms: N_12  and  N_33
    9  A    between atoms: C_14  and  C_27
   10  A    between atoms: C_22  and  C_32
                            x       y       z     vdW  Elec       q    Type
                         _______ _______ _______ _____ _____    ______ ____

>  <TORSDO>
F 10

$$$$
