=
 OpenBabel11042417193D

 26 26  0  0  1  0  0  0  0  0999 V2000
  187.5420  176.5030  142.4380 N   0  0  0  0  0  0  0  0  0  0  0  0
  187.3990  177.7320  142.8230 C   0  0  0  0  0  3  0  0  0  0  0  0
  184.1680  178.9560  145.3370 C   0  0  0  0  0  3  0  0  0  0  0  0
  184.8340  178.3960  141.7160 N   0  0  0  0  0  1  0  0  0  0  0  0
  182.7780  179.2020  143.4240 F   0  0  0  0  0  0  0  0  0  0  0  0
  186.2850  178.1470  143.6870 C   0  0  0  0  0  0  0  0  0  0  0  0
  185.0370  178.4720  143.1260 C   0  0  0  0  0  0  0  0  0  0  0  0
  186.4580  178.2310  145.0770 C   0  0  0  0  0  3  0  0  0  0  0  0
  183.9830  178.8770  143.9550 C   0  0  0  0  0  0  0  0  0  0  0  0
  185.4000  178.6190  145.9090 C   0  0  0  0  0  0  0  0  0  0  0  0
  184.4340  178.4910  148.0700 F   0  0  0  0  0  0  0  0  0  0  0  0
  186.5860  177.8420  147.8020 O   0  0  0  0  0  1  0  0  0  0  0  0
  185.6120  178.7510  147.3900 C   0  0  0  0  0  0  0  0  0  0  0  0
  186.0270  180.0340  147.7040 F   0  0  0  0  0  0  0  0  0  0  0  0
  188.6180  176.0610  141.5980 C   0  0  0  0  0  3  0  0  0  0  0  0
  189.1760  174.8850  141.6760 N   0  0  0  0  0  0  0  0  0  0  0  0
  189.3350  173.5280  143.7440 N   0  0  0  0  0  2  0  0  0  0  0  0
  187.9960  172.8500  141.9430 N   0  0  0  0  0  2  0  0  0  0  0  0
  188.7430  173.7670  142.4650 C   0  0  0  0  0  0  0  0  0  0  0  0
  190.2170  174.4880  144.3920 C   0  0  0  0  0  2  0  0  0  0  0  0
  189.4370  175.3560  145.3780 C   0  0  1  0  0  3  0  0  0  0  0  0
  189.3090  174.7290  146.7680 C   0  0  0  0  0  2  0  0  0  0  0  0
  190.3390  175.2200  147.6710 N   0  0  0  0  0  1  0  0  0  0  0  0
  189.9400  176.8000  145.4150 C   0  0  0  0  0  2  0  0  0  0  0  0
  190.8850  178.3320  143.7120 C   0  0  0  0  0  1  0  0  0  0  0  0
  191.1090  177.0420  144.4730 C   0  0  0  0  0  2  0  0  0  0  0  0
  1  2  2  0  0  0  0
  2  6  1  0  0  0  0
  3 10  1  0  0  0  0
  4  7  1  0  0  0  0
  5  9  1  0  0  0  0
  6  8  1  0  0  0  0
  7  6  2  0  0  0  0
  7  9  1  0  0  0  0
  8 10  2  0  0  0  0
  9  3  2  0  0  0  0
 10 13  1  0  0  0  0
 13 14  1  0  0  0  0
 13 12  1  0  0  0  0
 13 11  1  0  0  0  0
 15 16  2  0  0  0  0
 15  1  1  0  0  0  0
 16 19  1  0  0  0  0
 17 20  1  0  0  0  0
 18 19  2  0  0  0  0
 19 17  1  0  0  0  0
 21 20  1  6  0  0  0
 21 24  1  0  0  0  0
 21 22  1  0  0  0  0
 22 23  1  0  0  0  0
 25 26  1  0  0  0  0
 26 24  1  0  0  0  0
M  END
>  <MODEL>
1

>  <REMARK>
 VINA RESULT:      -6.5      0.000      0.000
  Name = 
  9 active torsions:
  status: ('A' for Active; 'I' for Inactive)
    1  A    between atoms: C_3  and  C_24
    2  A    between atoms: N_5  and  C_17
    3  A    between atoms: C_6  and  C_18
    4  A    between atoms: C_6  and  C_24
    5  A    between atoms: C_7  and  N_10
    6  A    between atoms: C_13  and  C_21
    7  A    between atoms: C_17  and  C_24
    8  A    between atoms: C_19  and  C_22
    9  A    between atoms: C_23  and  N_26
                            x       y       z     vdW  Elec       q    Type
                         _______ _______ _______ _____ _____    ______ ____

>  <TORSDO>
F 9

$$$$
=
 OpenBabel11042417193D

 26 26  0  0  1  0  0  0  0  0999 V2000
  188.4110  175.4470  142.2700 N   0  0  0  0  0  0  0  0  0  0  0  0
  188.0760  176.6640  141.9750 C   0  0  0  0  0  3  0  0  0  0  0  0
  184.3050  178.3110  143.1290 C   0  0  0  0  0  3  0  0  0  0  0  0
  186.1670  177.5110  140.0040 N   0  0  0  0  0  1  0  0  0  0  0  0
  183.7310  178.5910  140.8380 F   0  0  0  0  0  0  0  0  0  0  0  0
  186.7760  177.2250  142.3700 C   0  0  0  0  0  0  0  0  0  0  0  0
  185.8550  177.6380  141.3900 C   0  0  0  0  0  0  0  0  0  0  0  0
  186.4450  177.3610  143.7270 C   0  0  0  0  0  3  0  0  0  0  0  0
  184.6230  178.1810  141.7750 C   0  0  0  0  0  0  0  0  0  0  0  0
  185.2060  177.8880  144.1130 C   0  0  0  0  0  0  0  0  0  0  0  0
  185.9100  178.7460  146.2080 F   0  0  0  0  0  0  0  0  0  0  0  0
  183.7080  178.8160  145.6900 O   0  0  0  0  0  1  0  0  0  0  0  0
  184.8830  178.0740  145.5680 C   0  0  0  0  0  0  0  0  0  0  0  0
  184.7100  176.8460  146.1840 F   0  0  0  0  0  0  0  0  0  0  0  0
  189.6720  174.8680  141.9040 C   0  0  0  0  0  3  0  0  0  0  0  0
  190.1810  173.8040  142.4600 N   0  0  0  0  0  0  0  0  0  0  0  0
  189.8140  173.0580  144.7950 N   0  0  0  0  0  2  0  0  0  0  0  0
  188.9150  171.8740  142.9830 N   0  0  0  0  0  2  0  0  0  0  0  0
  189.5450  172.9230  143.3980 C   0  0  0  0  0  0  0  0  0  0  0  0
  190.5470  174.1880  145.3480 C   0  0  0  0  0  2  0  0  0  0  0  0
  189.7770  174.8120  146.5100 C   0  0  1  0  0  3  0  0  0  0  0  0
  190.6830  175.3380  147.6260 C   0  0  0  0  0  2  0  0  0  0  0  0
  192.0880  175.2410  147.2600 N   0  0  0  0  0  1  0  0  0  0  0  0
  188.7410  175.8370  146.0450 C   0  0  0  0  0  2  0  0  0  0  0  0
  189.9150  177.7480  144.9900 C   0  0  0  0  0  1  0  0  0  0  0  0
  189.2020  177.2730  146.2390 C   0  0  0  0  0  2  0  0  0  0  0  0
  2  1  2  0  0  0  0
  2  6  1  0  0  0  0
  3 10  1  0  0  0  0
  4  7  1  0  0  0  0
  5  9  1  0  0  0  0
  6  8  1  0  0  0  0
  7  9  1  0  0  0  0
  7  6  2  0  0  0  0
  8 10  2  0  0  0  0
  9  3  2  0  0  0  0
 10 13  1  0  0  0  0
 13 12  1  0  0  0  0
 13 14  1  0  0  0  0
 13 11  1  0  0  0  0
 15  1  1  0  0  0  0
 15 16  2  0  0  0  0
 16 19  1  0  0  0  0
 17 20  1  0  0  0  0
 18 19  2  0  0  0  0
 19 17  1  0  0  0  0
 21 20  1  6  0  0  0
 21 22  1  0  0  0  0
 23 22  1  0  0  0  0
 24 26  1  0  0  0  0
 24 21  1  0  0  0  0
 25 26  1  0  0  0  0
M  END
>  <MODEL>
2

>  <REMARK>
 VINA RESULT:      -6.4      1.673      2.091
  Name = 
  9 active torsions:
  status: ('A' for Active; 'I' for Inactive)
    1  A    between atoms: C_3  and  C_24
    2  A    between atoms: N_5  and  C_17
    3  A    between atoms: C_6  and  C_18
    4  A    between atoms: C_6  and  C_24
    5  A    between atoms: C_7  and  N_10
    6  A    between atoms: C_13  and  C_21
    7  A    between atoms: C_17  and  C_24
    8  A    between atoms: C_19  and  C_22
    9  A    between atoms: C_23  and  N_26
                            x       y       z     vdW  Elec       q    Type
                         _______ _______ _______ _____ _____    ______ ____

>  <TORSDO>
F 9

$$$$
=
 OpenBabel11042417193D

 26 26  0  0  1  0  0  0  0  0999 V2000
  187.4010  175.7340  142.3530 N   0  0  0  0  0  0  0  0  0  0  0  0
  187.1140  176.9950  142.4370 C   0  0  0  0  0  3  0  0  0  0  0  0
  184.3280  178.4910  145.3110 C   0  0  0  0  0  3  0  0  0  0  0  0
  184.6720  178.2590  141.6090 N   0  0  0  0  0  1  0  0  0  0  0  0
  182.9100  179.2240  143.5490 F   0  0  0  0  0  0  0  0  0  0  0  0
  186.1520  177.5050  143.4240 C   0  0  0  0  0  0  0  0  0  0  0  0
  184.9620  178.1240  143.0000 C   0  0  0  0  0  0  0  0  0  0  0  0
  186.4140  177.3850  144.7970 C   0  0  0  0  0  3  0  0  0  0  0  0
  184.0560  178.6160  143.9470 C   0  0  0  0  0  0  0  0  0  0  0  0
  185.5000  177.8610  145.7460 C   0  0  0  0  0  0  0  0  0  0  0  0
  185.8310  176.4490  147.6210 F   0  0  0  0  0  0  0  0  0  0  0  0
  187.0660  178.3380  147.4520 O   0  0  0  0  0  1  0  0  0  0  0  0
  185.8140  177.7710  147.2120 C   0  0  0  0  0  0  0  0  0  0  0  0
  184.8600  178.4480  147.9510 F   0  0  0  0  0  0  0  0  0  0  0  0
  188.3380  175.2020  141.4040 C   0  0  0  0  0  3  0  0  0  0  0  0
  189.2140  174.2760  141.6770 N   0  0  0  0  0  0  0  0  0  0  0  0
  190.1210  173.9770  143.9640 N   0  0  0  0  0  2  0  0  0  0  0  0
  188.8820  172.2870  142.9160 N   0  0  0  0  0  2  0  0  0  0  0  0
  189.3170  173.5030  142.8830 C   0  0  0  0  0  0  0  0  0  0  0  0
  190.6830  175.3200  143.9950 C   0  0  0  0  0  2  0  0  0  0  0  0
  190.2070  176.0750  145.2360 C   0  0  1  0  0  3  0  0  0  0  0  0
  189.9270  177.5560  144.9740 C   0  0  0  0  0  2  0  0  0  0  0  0
  190.5280  177.9990  143.7250 N   0  0  0  0  0  1  0  0  0  0  0  0
  189.0580  175.3630  145.9500 C   0  0  0  0  0  2  0  0  0  0  0  0
  190.8340  175.3600  147.6780 C   0  0  0  0  0  1  0  0  0  0  0  0
  189.4180  174.9270  147.3610 C   0  0  0  0  0  2  0  0  0  0  0  0
  1  2  2  0  0  0  0
  2  6  1  0  0  0  0
  3 10  1  0  0  0  0
  4  7  1  0  0  0  0
  5  9  1  0  0  0  0
  6  8  1  0  0  0  0
  7  6  2  0  0  0  0
  7  9  1  0  0  0  0
  8 10  2  0  0  0  0
  9  3  2  0  0  0  0
 10 13  1  0  0  0  0
 13 12  1  0  0  0  0
 13 11  1  0  0  0  0
 13 14  1  0  0  0  0
 15 16  2  0  0  0  0
 15  1  1  0  0  0  0
 16 19  1  0  0  0  0
 17 20  1  0  0  0  0
 19 18  2  0  0  0  0
 19 17  1  0  0  0  0
 21 20  1  6  0  0  0
 21 24  1  0  0  0  0
 22 21  1  0  0  0  0
 23 22  1  0  0  0  0
 24 26  1  0  0  0  0
 26 25  1  0  0  0  0
M  END
>  <MODEL>
3

>  <REMARK>
 VINA RESULT:      -6.4      1.197      1.970
  Name = 
  9 active torsions:
  status: ('A' for Active; 'I' for Inactive)
    1  A    between atoms: C_3  and  C_24
    2  A    between atoms: N_5  and  C_17
    3  A    between atoms: C_6  and  C_18
    4  A    between atoms: C_6  and  C_24
    5  A    between atoms: C_7  and  N_10
    6  A    between atoms: C_13  and  C_21
    7  A    between atoms: C_17  and  C_24
    8  A    between atoms: C_19  and  C_22
    9  A    between atoms: C_23  and  N_26
                            x       y       z     vdW  Elec       q    Type
                         _______ _______ _______ _____ _____    ______ ____

>  <TORSDO>
F 9

$$$$
=
 OpenBabel11042417193D

 26 26  0  0  1  0  0  0  0  0999 V2000
  188.9060  177.7890  143.4660 N   0  0  0  0  0  0  0  0  0  0  0  0
  187.7680  178.0220  142.8910 C   0  0  0  0  0  3  0  0  0  0  0  0
  184.2200  178.7580  145.1560 C   0  0  0  0  0  3  0  0  0  0  0  0
  185.2370  178.4070  141.5900 N   0  0  0  0  0  1  0  0  0  0  0  0
  182.9670  178.8980  143.1390 F   0  0  0  0  0  0  0  0  0  0  0  0
  186.5460  178.2700  143.6690 C   0  0  0  0  0  0  0  0  0  0  0  0
  185.3160  178.4590  143.0130 C   0  0  0  0  0  0  0  0  0  0  0  0
  186.5960  178.3260  145.0700 C   0  0  0  0  0  3  0  0  0  0  0  0
  184.1570  178.7040  143.7620 C   0  0  0  0  0  0  0  0  0  0  0  0
  185.4350  178.5530  145.8200 C   0  0  0  0  0  0  0  0  0  0  0  0
  184.2490  178.5190  147.8720 F   0  0  0  0  0  0  0  0  0  0  0  0
  186.3410  177.6550  147.8110 O   0  0  0  0  0  1  0  0  0  0  0  0
  185.5090  178.6600  147.3160 C   0  0  0  0  0  0  0  0  0  0  0  0
  186.0170  179.8930  147.6860 F   0  0  0  0  0  0  0  0  0  0  0  0
  190.1200  177.5470  142.7380 C   0  0  0  0  0  3  0  0  0  0  0  0
  190.8380  176.4650  142.8480 N   0  0  0  0  0  0  0  0  0  0  0  0
  191.4840  174.6170  144.3680 N   0  0  0  0  0  2  0  0  0  0  0  0
  189.4000  174.6400  143.2970 N   0  0  0  0  0  2  0  0  0  0  0  0
  190.5010  175.2640  143.5580 C   0  0  0  0  0  0  0  0  0  0  0  0
  192.7660  175.2290  144.6850 C   0  0  0  0  0  2  0  0  0  0  0  0
  192.8650  175.5290  146.1800 C   0  0  1  0  0  3  0  0  0  0  0  0
  194.1560  176.2530  146.5700 C   0  0  0  0  0  2  0  0  0  0  0  0
  194.4950  177.2900  145.6070 N   0  0  0  0  0  1  0  0  0  0  0  0
  191.6080  176.2070  146.7270 C   0  0  0  0  0  2  0  0  0  0  0  0
  189.5370  174.9880  147.3320 C   0  0  0  0  0  1  0  0  0  0  0  0
  190.9180  175.3900  147.8080 C   0  0  0  0  0  2  0  0  0  0  0  0
  2  1  2  0  0  0  0
  2  6  1  0  0  0  0
  3 10  1  0  0  0  0
  4  7  1  0  0  0  0
  5  9  1  0  0  0  0
  6  8  1  0  0  0  0
  7  6  2  0  0  0  0
  7  9  1  0  0  0  0
  8 10  2  0  0  0  0
  9  3  2  0  0  0  0
 10 13  1  0  0  0  0
 13 14  1  0  0  0  0
 13 12  1  0  0  0  0
 13 11  1  0  0  0  0
 15 16  2  0  0  0  0
 15  1  1  0  0  0  0
 16 19  1  0  0  0  0
 17 20  1  0  0  0  0
 18 19  2  0  0  0  0
 19 17  1  0  0  0  0
 21 20  1  6  0  0  0
 21 22  1  0  0  0  0
 21 24  1  0  0  0  0
 23 22  1  0  0  0  0
 24 26  1  0  0  0  0
 25 26  1  0  0  0  0
M  END
>  <MODEL>
4

>  <REMARK>
 VINA RESULT:      -6.4      1.834      2.434
  Name = 
  9 active torsions:
  status: ('A' for Active; 'I' for Inactive)
    1  A    between atoms: C_3  and  C_24
    2  A    between atoms: N_5  and  C_17
    3  A    between atoms: C_6  and  C_18
    4  A    between atoms: C_6  and  C_24
    5  A    between atoms: C_7  and  N_10
    6  A    between atoms: C_13  and  C_21
    7  A    between atoms: C_17  and  C_24
    8  A    between atoms: C_19  and  C_22
    9  A    between atoms: C_23  and  N_26
                            x       y       z     vdW  Elec       q    Type
                         _______ _______ _______ _____ _____    ______ ____

>  <TORSDO>
F 9

$$$$
=
 OpenBabel11042417193D

 26 26  0  0  1  0  0  0  0  0999 V2000
  188.7960  177.5210  143.4870 N   0  0  0  0  0  0  0  0  0  0  0  0
  187.7030  177.9290  142.9240 C   0  0  0  0  0  3  0  0  0  0  0  0
  184.2090  178.8520  145.2050 C   0  0  0  0  0  3  0  0  0  0  0  0
  185.1730  178.3770  141.6390 N   0  0  0  0  0  1  0  0  0  0  0  0
  182.9400  178.9900  143.1990 F   0  0  0  0  0  0  0  0  0  0  0  0
  186.4990  178.2410  143.7070 C   0  0  0  0  0  0  0  0  0  0  0  0
  185.2690  178.4600  143.0600 C   0  0  0  0  0  0  0  0  0  0  0  0
  186.5660  178.3300  145.1060 C   0  0  0  0  0  3  0  0  0  0  0  0
  184.1290  178.7670  143.8140 C   0  0  0  0  0  0  0  0  0  0  0  0
  185.4230  178.6190  145.8620 C   0  0  0  0  0  0  0  0  0  0  0  0
  184.2790  178.5540  147.9370 F   0  0  0  0  0  0  0  0  0  0  0  0
  186.4170  177.8160  147.8520 O   0  0  0  0  0  1  0  0  0  0  0  0
  185.5180  178.7590  147.3540 C   0  0  0  0  0  0  0  0  0  0  0  0
  185.9580  180.0270  147.6920 F   0  0  0  0  0  0  0  0  0  0  0  0
  189.9900  177.2110  142.7540 C   0  0  0  0  0  3  0  0  0  0  0  0
  190.4450  176.0030  142.5670 N   0  0  0  0  0  0  0  0  0  0  0  0
  190.3560  173.9060  143.8850 N   0  0  0  0  0  2  0  0  0  0  0  0
  188.8360  174.3180  142.1500 N   0  0  0  0  0  2  0  0  0  0  0  0
  189.7920  174.7660  142.8940 C   0  0  0  0  0  0  0  0  0  0  0  0
  191.4590  174.3140  144.7440 C   0  0  0  0  0  2  0  0  0  0  0  0
  190.9400  175.0960  145.9500 C   0  0  1  0  0  3  0  0  0  0  0  0
  189.6280  174.5450  146.5120 C   0  0  0  0  0  2  0  0  0  0  0  0
  188.5820  175.5570  146.5100 N   0  0  0  0  0  1  0  0  0  0  0  0
  192.0130  175.3020  147.0210 C   0  0  0  0  0  2  0  0  0  0  0  0
  193.9950  176.7170  146.5620 C   0  0  0  0  0  1  0  0  0  0  0  0
  193.4220  175.3190  146.4510 C   0  0  0  0  0  2  0  0  0  0  0  0
  2  1  2  0  0  0  0
  2  6  1  0  0  0  0
  3 10  1  0  0  0  0
  4  7  1  0  0  0  0
  5  9  1  0  0  0  0
  6  8  1  0  0  0  0
  7  6  2  0  0  0  0
  7  9  1  0  0  0  0
  8 10  2  0  0  0  0
  9  3  2  0  0  0  0
 10 13  1  0  0  0  0
 13 14  1  0  0  0  0
 13 12  1  0  0  0  0
 13 11  1  0  0  0  0
 15  1  1  0  0  0  0
 16 15  2  0  0  0  0
 16 19  1  0  0  0  0
 17 20  1  0  0  0  0
 18 19  2  0  0  0  0
 19 17  1  0  0  0  0
 21 20  1  6  0  0  0
 21 22  1  0  0  0  0
 21 24  1  0  0  0  0
 23 22  1  0  0  0  0
 26 25  1  0  0  0  0
 26 24  1  0  0  0  0
M  END
>  <MODEL>
5

>  <REMARK>
 VINA RESULT:      -6.4      1.481      1.639
  Name = 
  9 active torsions:
  status: ('A' for Active; 'I' for Inactive)
    1  A    between atoms: C_3  and  C_24
    2  A    between atoms: N_5  and  C_17
    3  A    between atoms: C_6  and  C_18
    4  A    between atoms: C_6  and  C_24
    5  A    between atoms: C_7  and  N_10
    6  A    between atoms: C_13  and  C_21
    7  A    between atoms: C_17  and  C_24
    8  A    between atoms: C_19  and  C_22
    9  A    between atoms: C_23  and  N_26
                            x       y       z     vdW  Elec       q    Type
                         _______ _______ _______ _____ _____    ______ ____

>  <TORSDO>
F 9

$$$$
=
 OpenBabel11042417193D

 26 26  0  0  1  0  0  0  0  0999 V2000
  189.1210  177.6450  143.0860 N   0  0  0  0  0  0  0  0  0  0  0  0
  188.2480  177.9250  142.1710 C   0  0  0  0  0  3  0  0  0  0  0  0
  184.0850  178.2750  143.0680 C   0  0  0  0  0  3  0  0  0  0  0  0
  186.2710  177.7930  140.0920 N   0  0  0  0  0  1  0  0  0  0  0  0
  183.5710  178.0450  140.7580 F   0  0  0  0  0  0  0  0  0  0  0  0
  186.8150  178.0400  142.4780 C   0  0  0  0  0  0  0  0  0  0  0  0
  185.8620  177.9750  141.4460 C   0  0  0  0  0  0  0  0  0  0  0  0
  186.3860  178.2210  143.8020 C   0  0  0  0  0  3  0  0  0  0  0  0
  184.4990  178.0950  141.7470 C   0  0  0  0  0  0  0  0  0  0  0  0
  185.0230  178.3230  144.1060 C   0  0  0  0  0  0  0  0  0  0  0  0
  183.2780  179.0410  145.5420 F   0  0  0  0  0  0  0  0  0  0  0  0
  184.6380  177.3700  146.2350 O   0  0  0  0  0  1  0  0  0  0  0  0
  184.5790  178.5660  145.5200 C   0  0  0  0  0  0  0  0  0  0  0  0
  185.3980  179.5000  146.1290 F   0  0  0  0  0  0  0  0  0  0  0  0
  190.5270  177.5290  142.8220 C   0  0  0  0  0  3  0  0  0  0  0  0
  191.1730  176.3980  142.7630 N   0  0  0  0  0  0  0  0  0  0  0  0
  190.7630  174.2560  143.9410 N   0  0  0  0  0  2  0  0  0  0  0  0
  190.1830  174.5360  141.6870 N   0  0  0  0  0  2  0  0  0  0  0  0
  190.6150  175.0750  142.7800 C   0  0  0  0  0  0  0  0  0  0  0  0
  191.2740  174.7690  145.2040 C   0  0  0  0  0  2  0  0  0  0  0  0
  190.1690  174.8060  146.2580 C   0  0  1  0  0  3  0  0  0  0  0  0
  190.6480  175.3030  147.6230 C   0  0  0  0  0  2  0  0  0  0  0  0
  191.6080  176.3880  147.4880 N   0  0  0  0  0  1  0  0  0  0  0  0
  188.9120  175.5240  145.7650 C   0  0  0  0  0  2  0  0  0  0  0  0
  187.9960  177.5110  146.9290 C   0  0  0  0  0  1  0  0  0  0  0  0
  188.0170  175.9960  146.9000 C   0  0  0  0  0  2  0  0  0  0  0  0
  2  6  1  0  0  0  0
  2  1  2  0  0  0  0
  3 10  1  0  0  0  0
  4  7  1  0  0  0  0
  5  9  1  0  0  0  0
  6  8  1  0  0  0  0
  7  9  1  0  0  0  0
  7  6  2  0  0  0  0
  8 10  2  0  0  0  0
  9  3  2  0  0  0  0
 10 13  1  0  0  0  0
 13 11  1  0  0  0  0
 13 14  1  0  0  0  0
 13 12  1  0  0  0  0
 15  1  1  0  0  0  0
 16 19  1  0  0  0  0
 16 15  2  0  0  0  0
 17 20  1  0  0  0  0
 18 19  2  0  0  0  0
 19 17  1  0  0  0  0
 21 20  1  6  0  0  0
 21 22  1  0  0  0  0
 23 22  1  0  0  0  0
 24 21  1  0  0  0  0
 24 26  1  0  0  0  0
 26 25  1  0  0  0  0
M  END
>  <MODEL>
6

>  <REMARK>
 VINA RESULT:      -6.3      1.727      2.339
  Name = 
  9 active torsions:
  status: ('A' for Active; 'I' for Inactive)
    1  A    between atoms: C_3  and  C_24
    2  A    between atoms: N_5  and  C_17
    3  A    between atoms: C_6  and  C_18
    4  A    between atoms: C_6  and  C_24
    5  A    between atoms: C_7  and  N_10
    6  A    between atoms: C_13  and  C_21
    7  A    between atoms: C_17  and  C_24
    8  A    between atoms: C_19  and  C_22
    9  A    between atoms: C_23  and  N_26
                            x       y       z     vdW  Elec       q    Type
                         _______ _______ _______ _____ _____    ______ ____

>  <TORSDO>
F 9

$$$$
=
 OpenBabel11042417193D

 26 26  0  0  1  0  0  0  0  0999 V2000
  188.6430  175.6080  146.4270 N   0  0  0  0  0  0  0  0  0  0  0  0
  187.6990  176.4050  146.8180 C   0  0  0  0  0  3  0  0  0  0  0  0
  185.4250  178.7190  144.0370 C   0  0  0  0  0  3  0  0  0  0  0  0
  185.4190  177.9270  147.6760 N   0  0  0  0  0  1  0  0  0  0  0  0
  183.9760  179.4020  145.7950 F   0  0  0  0  0  0  0  0  0  0  0  0
  186.9190  177.2060  145.8640 C   0  0  0  0  0  0  0  0  0  0  0  0
  185.8040  177.9430  146.3020 C   0  0  0  0  0  0  0  0  0  0  0  0
  187.2750  177.2380  144.5070 C   0  0  0  0  0  3  0  0  0  0  0  0
  185.0600  178.6950  145.3840 C   0  0  0  0  0  0  0  0  0  0  0  0
  186.5430  178.0040  143.5910 C   0  0  0  0  0  0  0  0  0  0  0  0
  188.1730  178.5140  141.9470 F   0  0  0  0  0  0  0  0  0  0  0  0
  186.8780  176.6790  141.6620 O   0  0  0  0  0  1  0  0  0  0  0  0
  186.9040  177.9920  142.1340 C   0  0  0  0  0  0  0  0  0  0  0  0
  186.0040  178.7530  141.4080 F   0  0  0  0  0  0  0  0  0  0  0  0
  189.4220  174.8090  147.3300 C   0  0  0  0  0  3  0  0  0  0  0  0
  190.6100  175.1330  147.7600 N   0  0  0  0  0  0  0  0  0  0  0  0
  192.1000  176.5760  146.4030 N   0  0  0  0  0  2  0  0  0  0  0  0
  191.3790  177.2330  148.5340 N   0  0  0  0  0  2  0  0  0  0  0  0
  191.2950  176.3800  147.5670 C   0  0  0  0  0  0  0  0  0  0  0  0
  192.0970  175.6470  145.2810 C   0  0  0  0  0  2  0  0  0  0  0  0
  191.9870  176.4020  143.9570 C   0  0  1  0  0  3  0  0  0  0  0  0
  192.9650  175.9040  142.8920 C   0  0  0  0  0  2  0  0  0  0  0  0
  194.3300  175.8760  143.3950 N   0  0  0  0  0  1  0  0  0  0  0  0
  190.5460  176.4950  143.4530 C   0  0  0  0  0  2  0  0  0  0  0  0
  189.2510  174.4190  143.0610 C   0  0  0  0  0  1  0  0  0  0  0  0
  190.2050  175.4160  142.4370 C   0  0  0  0  0  2  0  0  0  0  0  0
  1  2  2  0  0  0  0
  1 15  1  0  0  0  0
  3  9  1  0  0  0  0
  6  7  1  0  0  0  0
  6  2  1  0  0  0  0
  7  4  1  0  0  0  0
  8  6  2  0  0  0  0
  9  5  1  0  0  0  0
  9  7  2  0  0  0  0
 10  3  2  0  0  0  0
 10  8  1  0  0  0  0
 11 13  1  0  0  0  0
 12 13  1  0  0  0  0
 13 10  1  0  0  0  0
 14 13  1  0  0  0  0
 15 16  2  0  0  0  0
 17 19  1  0  0  0  0
 19 16  1  0  0  0  0
 19 18  2  0  0  0  0
 20 17  1  0  0  0  0
 21 22  1  6  0  0  0
 21 20  1  0  0  0  0
 22 23  1  0  0  0  0
 24 21  1  0  0  0  0
 26 25  1  0  0  0  0
 26 24  1  0  0  0  0
M  END
>  <MODEL>
7

>  <REMARK>
 VINA RESULT:      -6.1      2.834      4.784
  Name = 
  9 active torsions:
  status: ('A' for Active; 'I' for Inactive)
    1  A    between atoms: C_3  and  C_24
    2  A    between atoms: N_5  and  C_17
    3  A    between atoms: C_6  and  C_18
    4  A    between atoms: C_6  and  C_24
    5  A    between atoms: C_7  and  N_10
    6  A    between atoms: C_13  and  C_21
    7  A    between atoms: C_17  and  C_24
    8  A    between atoms: C_19  and  C_22
    9  A    between atoms: C_23  and  N_26
                            x       y       z     vdW  Elec       q    Type
                         _______ _______ _______ _____ _____    ______ ____

>  <TORSDO>
F 9

$$$$
=
 OpenBabel11042417193D

 26 26  0  0  1  0  0  0  0  0999 V2000
  189.6550  177.5240  143.1060 N   0  0  0  0  0  0  0  0  0  0  0  0
  190.9410  177.3720  143.0570 C   0  0  0  0  0  3  0  0  0  0  0  0
  193.1330  175.7440  146.3430 C   0  0  0  0  0  3  0  0  0  0  0  0
  193.6280  176.4180  142.7130 N   0  0  0  0  0  1  0  0  0  0  0  0
  194.9890  175.3540  144.9070 F   0  0  0  0  0  0  0  0  0  0  0  0
  191.6990  176.8170  144.1870 C   0  0  0  0  0  0  0  0  0  0  0  0
  193.0130  176.3520  143.9990 C   0  0  0  0  0  0  0  0  0  0  0  0
  191.1160  176.7400  145.4610 C   0  0  0  0  0  3  0  0  0  0  0  0
  193.7240  175.8150  145.0800 C   0  0  0  0  0  0  0  0  0  0  0  0
  191.8330  176.2200  146.5470 C   0  0  0  0  0  0  0  0  0  0  0  0
  191.5680  174.9180  148.5100 F   0  0  0  0  0  0  0  0  0  0  0  0
  191.5650  177.1750  148.6930 O   0  0  0  0  0  1  0  0  0  0  0  0
  191.1820  176.0970  147.8940 C   0  0  0  0  0  0  0  0  0  0  0  0
  189.8040  176.0950  147.7660 F   0  0  0  0  0  0  0  0  0  0  0  0
  188.8830  178.0590  142.0210 C   0  0  0  0  0  3  0  0  0  0  0  0
  187.8530  177.4630  141.4880 N   0  0  0  0  0  0  0  0  0  0  0  0
  186.0370  176.3900  142.7880 N   0  0  0  0  0  2  0  0  0  0  0  0
  187.7600  175.1230  141.8310 N   0  0  0  0  0  2  0  0  0  0  0  0
  187.1940  176.2770  141.9580 C   0  0  0  0  0  0  0  0  0  0  0  0
  185.3550  177.6560  143.0180 C   0  0  0  0  0  2  0  0  0  0  0  0
  185.5340  178.1100  144.4650 C   0  0  1  0  0  3  0  0  0  0  0  0
  184.4740  179.1130  144.9220 C   0  0  0  0  0  2  0  0  0  0  0  0
  183.8020  178.6640  146.1330 N   0  0  0  0  0  1  0  0  0  0  0  0
  185.7070  176.9370  145.4310 C   0  0  0  0  0  2  0  0  0  0  0  0
  187.1220  177.9060  147.2190 C   0  0  0  0  0  1  0  0  0  0  0  0
  187.0800  176.9050  146.0840 C   0  0  0  0  0  2  0  0  0  0  0  0
  2  1  2  0  0  0  0
  2  6  1  0  0  0  0
  3 10  1  0  0  0  0
  4  7  1  0  0  0  0
  5  9  1  0  0  0  0
  6  8  1  0  0  0  0
  7  6  2  0  0  0  0
  7  9  1  0  0  0  0
  8 10  2  0  0  0  0
  9  3  2  0  0  0  0
 10 13  1  0  0  0  0
 13 11  1  0  0  0  0
 13 12  1  0  0  0  0
 14 13  1  0  0  0  0
 15  1  1  0  0  0  0
 16 19  1  0  0  0  0
 16 15  2  0  0  0  0
 17 20  1  0  0  0  0
 18 19  2  0  0  0  0
 19 17  1  0  0  0  0
 21 20  1  6  0  0  0
 21 22  1  0  0  0  0
 21 24  1  0  0  0  0
 22 23  1  0  0  0  0
 24 26  1  0  0  0  0
 26 25  1  0  0  0  0
M  END
>  <MODEL>
8

>  <REMARK>
 VINA RESULT:      -6.0      3.577      6.405
  Name = 
  9 active torsions:
  status: ('A' for Active; 'I' for Inactive)
    1  A    between atoms: C_3  and  C_24
    2  A    between atoms: N_5  and  C_17
    3  A    between atoms: C_6  and  C_18
    4  A    between atoms: C_6  and  C_24
    5  A    between atoms: C_7  and  N_10
    6  A    between atoms: C_13  and  C_21
    7  A    between atoms: C_17  and  C_24
    8  A    between atoms: C_19  and  C_22
    9  A    between atoms: C_23  and  N_26
                            x       y       z     vdW  Elec       q    Type
                         _______ _______ _______ _____ _____    ______ ____

>  <TORSDO>
F 9

$$$$
=
 OpenBabel11042417193D

 26 26  0  0  1  0  0  0  0  0999 V2000
  187.8850  175.5590  142.4000 N   0  0  0  0  0  0  0  0  0  0  0  0
  186.9090  176.4030  142.2840 C   0  0  0  0  0  3  0  0  0  0  0  0
  184.9700  178.0790  145.7040 C   0  0  0  0  0  3  0  0  0  0  0  0
  184.5190  177.9720  142.0080 N   0  0  0  0  0  1  0  0  0  0  0  0
  183.3200  179.0440  144.2900 F   0  0  0  0  0  0  0  0  0  0  0  0
  186.2370  176.9750  143.4600 C   0  0  0  0  0  0  0  0  0  0  0  0
  185.0690  177.7440  143.3050 C   0  0  0  0  0  0  0  0  0  0  0  0
  186.7590  176.7670  144.7450 C   0  0  0  0  0  3  0  0  0  0  0  0
  184.4410  178.2940  144.4290 C   0  0  0  0  0  0  0  0  0  0  0  0
  186.1220  177.3020  145.8730 C   0  0  0  0  0  0  0  0  0  0  0  0
  187.6450  176.0860  147.2230 F   0  0  0  0  0  0  0  0  0  0  0  0
  187.3470  178.2920  147.6360 O   0  0  0  0  0  1  0  0  0  0  0  0
  186.7160  177.1130  147.2390 C   0  0  0  0  0  0  0  0  0  0  0  0
  185.7280  176.7970  148.1550 F   0  0  0  0  0  0  0  0  0  0  0  0
  188.5650  174.9830  141.2750 C   0  0  0  0  0  3  0  0  0  0  0  0
  189.5830  174.1740  141.3680 N   0  0  0  0  0  0  0  0  0  0  0  0
  191.3720  174.0160  143.0750 N   0  0  0  0  0  2  0  0  0  0  0  0
  189.5870  172.4990  143.0400 N   0  0  0  0  0  2  0  0  0  0  0  0
  190.1150  173.5760  142.5600 C   0  0  0  0  0  0  0  0  0  0  0  0
  192.0580  175.1980  142.5710 C   0  0  0  0  0  2  0  0  0  0  0  0
  192.1750  176.2590  143.6630 C   0  0  1  0  0  3  0  0  0  0  0  0
  193.5970  176.4150  144.2080 C   0  0  0  0  0  2  0  0  0  0  0  0
  193.6820  175.9980  145.5990 N   0  0  0  0  0  1  0  0  0  0  0  0
  191.5380  177.5900  143.2590 C   0  0  0  0  0  2  0  0  0  0  0  0
  190.2590  177.0780  145.3190 C   0  0  0  0  0  1  0  0  0  0  0  0
  190.2810  177.9080  144.0530 C   0  0  0  0  0  2  0  0  0  0  0  0
  2  1  2  0  0  0  0
  2  6  1  0  0  0  0
  3 10  1  0  0  0  0
  4  7  1  0  0  0  0
  5  9  1  0  0  0  0
  6  8  1  0  0  0  0
  7  6  2  0  0  0  0
  7  9  1  0  0  0  0
  8 10  2  0  0  0  0
  9  3  2  0  0  0  0
 10 13  1  0  0  0  0
 11 13  1  0  0  0  0
 13 12  1  0  0  0  0
 13 14  1  0  0  0  0
 15 16  2  0  0  0  0
 15  1  1  0  0  0  0
 16 19  1  0  0  0  0
 19 18  2  0  0  0  0
 19 17  1  0  0  0  0
 20 17  1  0  0  0  0
 21 20  1  6  0  0  0
 21 22  1  0  0  0  0
 22 23  1  0  0  0  0
 24 21  1  0  0  0  0
 24 26  1  0  0  0  0
 26 25  1  0  0  0  0
M  END
>  <MODEL>
9

>  <REMARK>
 VINA RESULT:      -5.9      1.785      2.278
  Name = 
  9 active torsions:
  status: ('A' for Active; 'I' for Inactive)
    1  A    between atoms: C_3  and  C_24
    2  A    between atoms: N_5  and  C_17
    3  A    between atoms: C_6  and  C_18
    4  A    between atoms: C_6  and  C_24
    5  A    between atoms: C_7  and  N_10
    6  A    between atoms: C_13  and  C_21
    7  A    between atoms: C_17  and  C_24
    8  A    between atoms: C_19  and  C_22
    9  A    between atoms: C_23  and  N_26
                            x       y       z     vdW  Elec       q    Type
                         _______ _______ _______ _____ _____    ______ ____

>  <TORSDO>
F 9

$$$$
