=
 OpenBabel11042415003D

 39 44  0  0  1  0  0  0  0  0999 V2000
  189.7390  171.5750  138.6430 O   0  0  0  0  0  0  0  0  0  0  0  0
  188.7510  175.0750  142.7140 C   0  0  0  0  0  3  0  0  0  0  0  0
  189.8250  173.1950  141.7680 C   0  0  0  0  0  0  0  0  0  0  0  0
  191.7640  170.3200  140.7800 C   0  0  0  0  0  1  0  0  0  0  0  0
  188.5790  173.4050  139.3830 N   0  0  0  0  0  0  0  0  0  0  0  0
  192.2610  174.6370  145.3550 C   0  0  2  0  0  3  0  0  0  0  0  0
  191.3140  171.9170  142.6780 N   0  0  0  0  0  0  0  0  0  0  0  0
  189.3190  175.7800  145.1080 C   0  0  2  0  0  3  0  0  0  0  0  0
  190.4030  173.7570  143.9740 C   0  0  0  0  0  0  0  0  0  0  0  0
  190.5260  172.9700  142.8710 N   0  0  0  0  0  0  0  0  0  0  0  0
  191.6160  175.8000  146.0700 C   0  0  0  0  0  0  0  0  0  0  0  0
  191.2630  173.4990  145.1740 C   0  0  0  0  0  2  0  0  0  0  0  0
  190.2980  177.7820  146.0830 O   0  0  0  0  0  1  0  0  0  0  0  0
  190.1240  172.3000  140.8080 C   0  0  0  0  0  0  0  0  0  0  0  0
  188.2860  174.3190  140.3720 C   0  0  0  0  0  3  0  0  0  0  0  0
  190.5840  176.6250  145.3470 C   0  0  2  0  0  3  0  0  0  0  0  0
  189.4800  174.8490  143.9200 C   0  0  0  0  0  0  0  0  0  0  0  0
  191.0790  171.4830  141.4040 C   0  0  0  0  0  0  0  0  0  0  0  0
  189.4890  172.3910  139.5690 C   0  0  0  0  0  0  0  0  0  0  0  0
  188.9290  174.2230  141.6180 C   0  0  0  0  0  0  0  0  0  0  0  0
  191.8500  176.0130  147.2510 O   0  0  0  0  0  0  0  0  0  0  0  0
  185.5940  177.9660  145.1040 C   0  0  0  0  0  0  0  0  0  0  0  0
  187.7550  177.5050  144.0960 C   0  0  0  0  0  3  0  0  0  0  0  0
  186.5440  178.2020  144.1010 C   0  0  0  0  0  3  0  0  0  0  0  0
  188.0300  176.5620  145.0990 C   0  0  0  0  0  0  0  0  0  0  0  0
  187.0810  176.3200  146.0960 C   0  0  0  0  0  3  0  0  0  0  0  0
  185.8710  177.0180  146.1010 C   0  0  0  0  0  3  0  0  0  0  0  0
  183.7000  179.0850  143.8820 N   0  0  0  0  0  1  0  0  0  0  0  0
  184.3170  178.7010  145.1080 C   0  0  0  0  0  0  0  0  0  0  0  0
  183.7560  178.9950  146.1980 O   0  0  0  0  0  0  0  0  0  0  0  0
  195.3060  172.8690  145.2390 C   0  0  0  0  0  2  0  0  0  0  0  0
  193.9160  172.8690  145.4690 O   0  0  0  0  0  0  0  0  0  0  0  0
  193.5780  174.1420  145.9670 C   0  0  1  0  0  3  0  0  0  0  0  0
  194.7340  175.0950  145.7610 C   0  0  0  0  0  2  0  0  0  0  0  0
  195.9050  174.1760  145.7090 C   0  0  2  0  0  3  0  0  0  0  0  0
  196.5250  174.9660  143.3870 C   0  0  0  0  0  0  0  0  0  0  0  0
  197.5640  175.4770  142.4570 C   0  0  0  0  0  1  0  0  0  0  0  0
  196.8740  174.6680  144.7410 N   0  0  0  0  0  2  0  0  0  0  0  0
  195.3460  174.7970  142.9740 O   0  0  0  0  0  0  0  0  0  0  0  0
  1 19  2  0  0  0  0
  2 17  1  0  0  0  0
  3 10  1  0  0  0  0
  4 18  1  0  0  0  0
  5 19  1  0  0  0  0
  5 15  2  0  0  0  0
  6 12  1  1  0  0  0
  6 33  1  0  0  0  0
  6 11  1  0  0  0  0
  7 10  1  0  0  0  0
  8 25  1  6  0  0  0
  8 16  1  0  0  0  0
  9 12  1  0  0  0  0
 10  9  1  0  0  0  0
 11 21  2  0  0  0  0
 14 18  1  0  0  0  0
 14  3  2  0  0  0  0
 15 20  1  0  0  0  0
 16 11  1  0  0  0  0
 16 13  1  1  0  0  0
 17  9  2  0  0  0  0
 17  8  1  0  0  0  0
 18  7  2  0  0  0  0
 19 14  1  0  0  0  0
 20  3  1  0  0  0  0
 20  2  2  0  0  0  0
 22 29  1  0  0  0  0
 22 27  1  0  0  0  0
 23 24  1  0  0  0  0
 23 25  2  0  0  0  0
 24 22  2  0  0  0  0
 25 26  1  0  0  0  0
 26 27  2  0  0  0  0
 28 29  1  0  0  0  0
 29 30  2  0  0  0  0
 31 32  1  0  0  0  0
 31 35  1  0  0  0  0
 32 33  1  0  0  0  0
 33 34  1  6  0  0  0
 35 38  1  6  0  0  0
 35 34  1  0  0  0  0
 36 38  1  0  0  0  0
 37 36  1  0  0  0  0
 39 36  2  0  0  0  0
M  END
>  <MODEL>
1

>  <REMARK>
 VINA RESULT:      -8.9      0.000      0.000
  Name = 
  4 active torsions:
  status: ('A' for Active; 'I' for Inactive)
    1  A    between atoms: C_3  and  C_9
    2  A    between atoms: C_11  and  C_19
    3  A    between atoms: C_12  and  C_22
    4  A    between atoms: N_15  and  C_35
                            x       y       z     vdW  Elec       q    Type
                         _______ _______ _______ _____ _____    ______ ____

>  <TORSDO>
F 4

$$$$
=
 OpenBabel11042415003D

 39 44  0  0  1  0  0  0  0  0999 V2000
  189.3950  171.8390  138.0700 O   0  0  0  0  0  0  0  0  0  0  0  0
  188.8120  175.0940  142.4130 C   0  0  0  0  0  3  0  0  0  0  0  0
  189.7410  173.2400  141.2810 C   0  0  0  0  0  0  0  0  0  0  0  0
  191.4850  170.3600  139.9900 C   0  0  0  0  0  1  0  0  0  0  0  0
  188.3660  173.6610  138.9980 N   0  0  0  0  0  0  0  0  0  0  0  0
  192.4500  174.3350  144.7950 C   0  0  2  0  0  3  0  0  0  0  0  0
  191.2220  171.8430  142.0110 N   0  0  0  0  0  0  0  0  0  0  0  0
  189.5540  175.6120  144.8080 C   0  0  2  0  0  3  0  0  0  0  0  0
  190.4750  173.6270  143.4790 C   0  0  0  0  0  0  0  0  0  0  0  0
  190.4960  172.9120  142.3210 N   0  0  0  0  0  0  0  0  0  0  0  0
  191.9020  175.4730  145.6220 C   0  0  0  0  0  0  0  0  0  0  0  0
  191.3920  173.2540  144.6040 C   0  0  0  0  0  2  0  0  0  0  0  0
  190.6790  177.5020  145.8460 O   0  0  0  0  0  1  0  0  0  0  0  0
  189.9410  172.4000  140.2490 C   0  0  0  0  0  0  0  0  0  0  0  0
  188.1740  174.5180  140.0610 C   0  0  0  0  0  3  0  0  0  0  0  0
  190.8670  176.3860  145.0210 C   0  0  2  0  0  3  0  0  0  0  0  0
  189.6000  174.7570  143.5540 C   0  0  0  0  0  0  0  0  0  0  0  0
  190.8920  171.5060  140.7300 C   0  0  0  0  0  0  0  0  0  0  0  0
  189.2380  172.6000  139.0600 C   0  0  0  0  0  0  0  0  0  0  0  0
  188.8860  174.3110  141.2550 C   0  0  0  0  0  0  0  0  0  0  0  0
  192.2160  175.5950  146.7980 O   0  0  0  0  0  0  0  0  0  0  0  0
  185.9380  177.9450  145.1800 C   0  0  0  0  0  0  0  0  0  0  0  0
  188.0010  177.4490  143.9960 C   0  0  0  0  0  3  0  0  0  0  0  0
  186.8250  178.1940  144.1230 C   0  0  0  0  0  3  0  0  0  0  0  0
  188.3030  176.4460  144.9300 C   0  0  0  0  0  0  0  0  0  0  0  0
  187.4170  176.1910  145.9810 C   0  0  0  0  0  3  0  0  0  0  0  0
  186.2420  176.9380  146.1060 C   0  0  0  0  0  3  0  0  0  0  0  0
  183.9930  178.7620  146.5500 N   0  0  0  0  0  1  0  0  0  0  0  0
  184.6980  178.7310  145.3120 C   0  0  0  0  0  0  0  0  0  0  0  0
  184.2520  179.3840  144.3330 O   0  0  0  0  0  0  0  0  0  0  0  0
  194.6930  171.6730  145.3370 C   0  0  0  0  0  2  0  0  0  0  0  0
  193.5950  172.4370  145.7780 O   0  0  0  0  0  0  0  0  0  0  0  0
  193.7780  173.7450  145.2900 C   0  0  1  0  0  3  0  0  0  0  0  0
  194.8680  173.7520  144.2420 C   0  0  0  0  0  2  0  0  0  0  0  0
  195.6810  172.5610  144.6140 C   0  0  2  0  0  3  0  0  0  0  0  0
  197.3020  171.0340  143.4140 C   0  0  0  0  0  0  0  0  0  0  0  0
  197.7350  170.3870  142.1490 C   0  0  0  0  0  1  0  0  0  0  0  0
  196.1680  171.9030  143.4110 N   0  0  0  0  0  2  0  0  0  0  0  0
  197.9410  170.8130  144.4780 O   0  0  0  0  0  0  0  0  0  0  0  0
  1 19  2  0  0  0  0
  2 17  1  0  0  0  0
  3 10  1  0  0  0  0
  4 18  1  0  0  0  0
  5 19  1  0  0  0  0
  5 15  2  0  0  0  0
  6 12  1  1  0  0  0
  6 33  1  0  0  0  0
  6 11  1  0  0  0  0
  7 10  1  0  0  0  0
  8 25  1  6  0  0  0
  8 16  1  0  0  0  0
  9 17  2  0  0  0  0
  9 12  1  0  0  0  0
 10  9  1  0  0  0  0
 11 21  2  0  0  0  0
 14 18  1  0  0  0  0
 14  3  2  0  0  0  0
 15 20  1  0  0  0  0
 16 11  1  0  0  0  0
 16 13  1  1  0  0  0
 17  8  1  0  0  0  0
 18  7  2  0  0  0  0
 19 14  1  0  0  0  0
 20  3  1  0  0  0  0
 20  2  2  0  0  0  0
 22 29  1  0  0  0  0
 22 27  1  0  0  0  0
 23 24  1  0  0  0  0
 23 25  2  0  0  0  0
 24 22  2  0  0  0  0
 25 26  1  0  0  0  0
 26 27  2  0  0  0  0
 29 28  1  0  0  0  0
 30 29  2  0  0  0  0
 31 32  1  0  0  0  0
 33 34  1  6  0  0  0
 33 32  1  0  0  0  0
 34 35  1  0  0  0  0
 35 38  1  6  0  0  0
 35 31  1  0  0  0  0
 36 39  2  0  0  0  0
 37 36  1  0  0  0  0
 38 36  1  0  0  0  0
M  END
>  <MODEL>
2

>  <REMARK>
 VINA RESULT:      -8.5      1.503      1.654
  Name = 
  4 active torsions:
  status: ('A' for Active; 'I' for Inactive)
    1  A    between atoms: C_3  and  C_9
    2  A    between atoms: C_11  and  C_19
    3  A    between atoms: C_12  and  C_22
    4  A    between atoms: N_15  and  C_35
                            x       y       z     vdW  Elec       q    Type
                         _______ _______ _______ _____ _____    ______ ____

>  <TORSDO>
F 4

$$$$
=
 OpenBabel11042415003D

 39 44  0  0  1  0  0  0  0  0999 V2000
  188.1970  173.4170  137.7200 O   0  0  0  0  0  0  0  0  0  0  0  0
  190.5180  173.9970  142.6270 C   0  0  0  0  0  3  0  0  0  0  0  0
  189.0430  174.6590  140.9040 C   0  0  0  0  0  0  0  0  0  0  0  0
  186.6100  176.0430  138.6300 C   0  0  0  0  0  1  0  0  0  0  0  0
  189.7000  172.6270  139.2560 N   0  0  0  0  0  0  0  0  0  0  0  0
  187.7120  176.6070  144.8180 C   0  0  2  0  0  3  0  0  0  0  0  0
  187.6790  176.3370  140.8950 N   0  0  0  0  0  0  0  0  0  0  0  0
  190.6210  175.3590  144.7920 C   0  0  2  0  0  3  0  0  0  0  0  0
  189.0750  175.9780  142.8480 C   0  0  0  0  0  0  0  0  0  0  0  0
  188.6040  175.6980  141.6020 N   0  0  0  0  0  0  0  0  0  0  0  0
  188.6370  176.2950  145.9700 C   0  0  0  0  0  0  0  0  0  0  0  0
  188.5030  177.1260  143.6220 C   0  0  0  0  0  2  0  0  0  0  0  0
  190.1360  174.8490  147.1210 O   0  0  0  0  0  1  0  0  0  0  0  0
  188.4240  174.5760  139.7120 C   0  0  0  0  0  0  0  0  0  0  0  0
  190.3230  172.7200  140.4820 C   0  0  0  0  0  3  0  0  0  0  0  0
  189.5540  175.1050  145.8730 C   0  0  2  0  0  3  0  0  0  0  0  0
  190.0770  175.1160  143.3960 C   0  0  0  0  0  0  0  0  0  0  0  0
  187.5520  175.6600  139.7160 C   0  0  0  0  0  0  0  0  0  0  0  0
  188.7520  173.5330  138.8450 C   0  0  0  0  0  0  0  0  0  0  0  0
  189.9880  173.7720  141.3510 C   0  0  0  0  0  0  0  0  0  0  0  0
  188.7160  177.0520  146.9280 O   0  0  0  0  0  0  0  0  0  0  0  0
  194.4620  173.5150  145.5020 C   0  0  0  0  0  0  0  0  0  0  0  0
  192.0970  173.3020  144.9930 C   0  0  0  0  0  3  0  0  0  0  0  0
  193.3450  172.7170  145.2180 C   0  0  0  0  0  3  0  0  0  0  0  0
  191.9510  174.6970  145.0510 C   0  0  0  0  0  0  0  0  0  0  0  0
  193.0640  175.4960  145.3280 C   0  0  0  0  0  3  0  0  0  0  0  0
  194.3120  174.9090  145.5540 C   0  0  0  0  0  3  0  0  0  0  0  0
  196.9120  173.7070  146.0420 N   0  0  0  0  0  1  0  0  0  0  0  0
  195.7790  172.8970  145.7390 C   0  0  0  0  0  0  0  0  0  0  0  0
  195.9140  171.6470  145.6790 O   0  0  0  0  0  0  0  0  0  0  0  0
  185.6380  179.3950  144.2370 C   0  0  0  0  0  2  0  0  0  0  0  0
  186.8130  178.8590  144.7990 O   0  0  0  0  0  0  0  0  0  0  0  0
  186.5310  177.5270  145.1570 C   0  0  1  0  0  3  0  0  0  0  0  0
  185.2280  177.0920  144.5240 C   0  0  0  0  0  2  0  0  0  0  0  0
  184.5150  178.3860  144.3320 C   0  0  2  0  0  3  0  0  0  0  0  0
  184.3860  178.3640  141.8060 C   0  0  0  0  0  0  0  0  0  0  0  0
  183.5500  178.3120  140.5790 C   0  0  0  0  0  1  0  0  0  0  0  0
  183.7590  178.3500  143.0890 N   0  0  0  0  0  2  0  0  0  0  0  0
  185.6410  178.4230  141.7030 O   0  0  0  0  0  0  0  0  0  0  0  0
  1 19  2  0  0  0  0
  2 17  1  0  0  0  0
  3 20  1  0  0  0  0
  3 10  1  0  0  0  0
  4 18  1  0  0  0  0
  5 15  2  0  0  0  0
  6 12  1  6  0  0  0
  6 33  1  0  0  0  0
  6 11  1  0  0  0  0
  7 10  1  0  0  0  0
  8 25  1  1  0  0  0
  8 16  1  0  0  0  0
  9 17  2  0  0  0  0
  9 12  1  0  0  0  0
 10  9  1  0  0  0  0
 11 21  2  0  0  0  0
 14 18  1  0  0  0  0
 14  3  2  0  0  0  0
 15 20  1  0  0  0  0
 16 11  1  0  0  0  0
 16 13  1  1  0  0  0
 17  8  1  0  0  0  0
 18  7  2  0  0  0  0
 19  5  1  0  0  0  0
 19 14  1  0  0  0  0
 20  2  2  0  0  0  0
 22 27  1  0  0  0  0
 22 29  1  0  0  0  0
 23 25  2  0  0  0  0
 23 24  1  0  0  0  0
 24 22  2  0  0  0  0
 25 26  1  0  0  0  0
 26 27  2  0  0  0  0
 29 28  1  0  0  0  0
 30 29  2  0  0  0  0
 31 35  1  0  0  0  0
 31 32  1  0  0  0  0
 32 33  1  0  0  0  0
 33 34  1  6  0  0  0
 35 38  1  6  0  0  0
 35 34  1  0  0  0  0
 36 38  1  0  0  0  0
 37 36  1  0  0  0  0
 39 36  2  0  0  0  0
M  END
>  <MODEL>
3

>  <REMARK>
 VINA RESULT:      -8.5      1.971      7.832
  Name = 
  4 active torsions:
  status: ('A' for Active; 'I' for Inactive)
    1  A    between atoms: C_3  and  C_9
    2  A    between atoms: C_11  and  C_19
    3  A    between atoms: C_12  and  C_22
    4  A    between atoms: N_15  and  C_35
                            x       y       z     vdW  Elec       q    Type
                         _______ _______ _______ _____ _____    ______ ____

>  <TORSDO>
F 4

$$$$
=
 OpenBabel11042415003D

 39 44  0  0  1  0  0  0  0  0999 V2000
  189.0530  172.5600  137.9240 O   0  0  0  0  0  0  0  0  0  0  0  0
  189.0190  175.1120  142.7500 C   0  0  0  0  0  3  0  0  0  0  0  0
  189.7570  173.4310  141.2620 C   0  0  0  0  0  0  0  0  0  0  0  0
  191.2470  170.7400  139.3800 C   0  0  0  0  0  1  0  0  0  0  0  0
  188.1950  174.2430  139.2170 N   0  0  0  0  0  0  0  0  0  0  0  0
  192.8260  173.8860  144.6170 C   0  0  2  0  0  3  0  0  0  0  0  0
  191.2370  171.8950  141.6200 N   0  0  0  0  0  0  0  0  0  0  0  0
  190.0010  175.2270  145.1100 C   0  0  2  0  0  3  0  0  0  0  0  0
  190.7080  173.4490  143.4100 C   0  0  0  0  0  0  0  0  0  0  0  0
  190.5900  172.9230  142.1600 N   0  0  0  0  0  0  0  0  0  0  0  0
  192.4070  174.8950  145.6580 C   0  0  0  0  0  0  0  0  0  0  0  0
  191.7090  172.8790  144.3680 C   0  0  0  0  0  2  0  0  0  0  0  0
  191.2990  176.8980  146.3090 O   0  0  0  0  0  1  0  0  0  0  0  0
  189.8240  172.7570  140.0980 C   0  0  0  0  0  0  0  0  0  0  0  0
  188.1400  174.9280  140.4110 C   0  0  0  0  0  3  0  0  0  0  0  0
  191.3620  175.9200  145.3090 C   0  0  2  0  0  3  0  0  0  0  0  0
  189.8940  174.5780  143.7420 C   0  0  0  0  0  0  0  0  0  0  0  0
  190.7760  171.7720  140.3410 C   0  0  0  0  0  0  0  0  0  0  0  0
  189.0230  173.1610  139.0290 C   0  0  0  0  0  0  0  0  0  0  0  0
  188.9500  174.5170  141.4840 C   0  0  0  0  0  0  0  0  0  0  0  0
  192.8340  174.8240  146.8030 O   0  0  0  0  0  0  0  0  0  0  0  0
  186.6070  177.6870  146.1510 C   0  0  0  0  0  0  0  0  0  0  0  0
  188.0420  175.7860  146.6250 C   0  0  0  0  0  3  0  0  0  0  0  0
  186.9500  176.5920  146.9560 C   0  0  0  0  0  3  0  0  0  0  0  0
  188.8050  176.0670  145.4810 C   0  0  0  0  0  0  0  0  0  0  0  0
  188.4690  177.1610  144.6800 C   0  0  0  0  0  3  0  0  0  0  0  0
  187.3760  177.9670  145.0110 C   0  0  0  0  0  3  0  0  0  0  0  0
  185.6080  179.6180  147.4160 N   0  0  0  0  0  1  0  0  0  0  0  0
  185.4550  178.5370  146.5000 C   0  0  0  0  0  0  0  0  0  0  0  0
  184.3250  178.3180  145.9890 O   0  0  0  0  0  0  0  0  0  0  0  0
  194.8120  171.0530  145.2820 C   0  0  0  0  0  2  0  0  0  0  0  0
  194.0020  172.1010  145.7620 O   0  0  0  0  0  0  0  0  0  0  0  0
  194.1670  173.1880  144.8830 C   0  0  1  0  0  3  0  0  0  0  0  0
  194.8650  172.7260  143.6240 C   0  0  0  0  0  2  0  0  0  0  0  0
  195.6150  171.5270  144.0920 C   0  0  2  0  0  3  0  0  0  0  0  0
  194.4600  169.7600  142.6990 C   0  0  0  0  0  0  0  0  0  0  0  0
  194.5380  168.7490  141.6140 C   0  0  0  0  0  1  0  0  0  0  0  0
  195.6220  170.5130  143.0480 N   0  0  0  0  0  2  0  0  0  0  0  0
  193.3690  169.9420  143.3050 O   0  0  0  0  0  0  0  0  0  0  0  0
  1 19  2  0  0  0  0
  2 17  1  0  0  0  0
  3 20  1  0  0  0  0
  3 10  1  0  0  0  0
  4 18  1  0  0  0  0
  5 15  2  0  0  0  0
  6 12  1  1  0  0  0
  6 33  1  0  0  0  0
  6 11  1  0  0  0  0
  7 10  1  0  0  0  0
  8 16  1  0  0  0  0
  8 25  1  6  0  0  0
  9 17  2  0  0  0  0
  9 12  1  0  0  0  0
 10  9  1  0  0  0  0
 11 21  2  0  0  0  0
 14 18  1  0  0  0  0
 14  3  2  0  0  0  0
 15 20  1  0  0  0  0
 16 11  1  0  0  0  0
 16 13  1  1  0  0  0
 17  8  1  0  0  0  0
 18  7  2  0  0  0  0
 19  5  1  0  0  0  0
 19 14  1  0  0  0  0
 20  2  2  0  0  0  0
 22 29  1  0  0  0  0
 22 24  1  0  0  0  0
 23 24  2  0  0  0  0
 25 23  1  0  0  0  0
 26 27  1  0  0  0  0
 26 25  2  0  0  0  0
 27 22  2  0  0  0  0
 29 28  1  0  0  0  0
 30 29  2  0  0  0  0
 31 32  1  0  0  0  0
 33 34  1  6  0  0  0
 33 32  1  0  0  0  0
 34 35  1  0  0  0  0
 35 38  1  6  0  0  0
 35 31  1  0  0  0  0
 36 38  1  0  0  0  0
 36 39  2  0  0  0  0
 37 36  1  0  0  0  0
M  END
>  <MODEL>
4

>  <REMARK>
 VINA RESULT:      -7.7      1.774      2.471
  Name = 
  4 active torsions:
  status: ('A' for Active; 'I' for Inactive)
    1  A    between atoms: C_3  and  C_9
    2  A    between atoms: C_11  and  C_19
    3  A    between atoms: C_12  and  C_22
    4  A    between atoms: N_15  and  C_35
                            x       y       z     vdW  Elec       q    Type
                         _______ _______ _______ _____ _____    ______ ____

>  <TORSDO>
F 4

$$$$
=
 OpenBabel11042415003D

 39 44  0  0  1  0  0  0  0  0999 V2000
  196.0430  174.9130  145.7540 O   0  0  0  0  0  0  0  0  0  0  0  0
  190.8570  175.5320  144.1640 C   0  0  0  0  0  3  0  0  0  0  0  0
  193.0940  174.8470  143.8310 C   0  0  0  0  0  0  0  0  0  0  0  0
  196.3260  173.5770  142.8590 C   0  0  0  0  0  1  0  0  0  0  0  0
  193.9400  175.6650  146.2590 N   0  0  0  0  0  0  0  0  0  0  0  0
  190.4150  172.6360  140.8620 C   0  0  2  0  0  3  0  0  0  0  0  0
  193.9400  173.8650  142.1000 N   0  0  0  0  0  0  0  0  0  0  0  0
  189.1290  175.1340  142.3180 C   0  0  2  0  0  3  0  0  0  0  0  0
  191.5830  174.4510  142.0760 C   0  0  0  0  0  0  0  0  0  0  0  0
  192.8300  174.3810  142.6180 N   0  0  0  0  0  0  0  0  0  0  0  0
  188.9680  173.0580  140.9530 C   0  0  0  0  0  0  0  0  0  0  0  0
  191.3220  173.8540  140.7270 C   0  0  0  0  0  2  0  0  0  0  0  0
  187.0830  173.8250  142.1870 O   0  0  0  0  0  1  0  0  0  0  0  0
  194.3860  174.6550  144.1570 C   0  0  0  0  0  0  0  0  0  0  0  0
  192.6180  175.8500  145.9160 C   0  0  0  0  0  3  0  0  0  0  0  0
  188.4810  173.7420  142.2030 C   0  0  2  0  0  3  0  0  0  0  0  0
  190.5460  175.0540  142.8560 C   0  0  0  0  0  0  0  0  0  0  0  0
  194.9190  174.0260  143.0370 C   0  0  0  0  0  0  0  0  0  0  0  0
  194.8430  175.0730  145.4080 C   0  0  0  0  0  0  0  0  0  0  0  0
  192.1640  175.4270  144.6550 C   0  0  0  0  0  0  0  0  0  0  0  0
  188.2230  172.9400  139.9910 O   0  0  0  0  0  0  0  0  0  0  0  0
  186.7180  178.1550  144.2470 C   0  0  0  0  0  0  0  0  0  0  0  0
  187.9110  176.0420  144.3530 C   0  0  0  0  0  3  0  0  0  0  0  0
  187.1350  177.0280  144.9690 C   0  0  0  0  0  3  0  0  0  0  0  0
  188.2760  176.1720  143.0040 C   0  0  0  0  0  0  0  0  0  0  0  0
  187.8660  177.2980  142.2840 C   0  0  0  0  0  3  0  0  0  0  0  0
  187.0900  178.2830  142.9010 C   0  0  0  0  0  3  0  0  0  0  0  0
  185.4820  179.0430  146.2510 N   0  0  0  0  0  1  0  0  0  0  0  0
  185.9010  179.1950  144.8970 C   0  0  0  0  0  0  0  0  0  0  0  0
  185.5660  180.2300  144.2620 O   0  0  0  0  0  0  0  0  0  0  0  0
  192.2520  171.3800  138.1310 C   0  0  0  0  0  2  0  0  0  0  0  0
  191.2020  172.1860  138.6130 O   0  0  0  0  0  0  0  0  0  0  0  0
  190.7220  171.5800  139.7900 C   0  0  1  0  0  3  0  0  0  0  0  0
  191.6960  170.5190  140.2520 C   0  0  0  0  0  2  0  0  0  0  0  0
  192.3850  170.1410  138.9870 C   0  0  2  0  0  3  0  0  0  0  0  0
  194.5450  168.9210  138.4910 C   0  0  0  0  0  0  0  0  0  0  0  0
  195.9770  168.6940  138.8160 C   0  0  0  0  0  1  0  0  0  0  0  0
  193.7870  169.8590  139.2570 N   0  0  0  0  0  2  0  0  0  0  0  0
  194.0110  168.2830  137.5440 O   0  0  0  0  0  0  0  0  0  0  0  0
  2 20  2  0  0  0  0
  3 14  2  0  0  0  0
  3 20  1  0  0  0  0
  4 18  1  0  0  0  0
  6 12  1  6  0  0  0
  6 11  1  0  0  0  0
  7 10  1  0  0  0  0
  7 18  2  0  0  0  0
  8 17  1  0  0  0  0
  8 25  1  1  0  0  0
  9 10  1  0  0  0  0
  9 17  2  0  0  0  0
 10  3  1  0  0  0  0
 11 16  1  0  0  0  0
 12  9  1  0  0  0  0
 14 19  1  0  0  0  0
 15  5  2  0  0  0  0
 16 13  1  6  0  0  0
 16  8  1  0  0  0  0
 17  2  1  0  0  0  0
 18 14  1  0  0  0  0
 19  1  2  0  0  0  0
 19  5  1  0  0  0  0
 20 15  1  0  0  0  0
 21 11  2  0  0  0  0
 22 29  1  0  0  0  0
 22 24  1  0  0  0  0
 23 24  2  0  0  0  0
 25 23  1  0  0  0  0
 26 27  1  0  0  0  0
 26 25  2  0  0  0  0
 27 22  2  0  0  0  0
 29 28  1  0  0  0  0
 30 29  2  0  0  0  0
 31 32  1  0  0  0  0
 31 35  1  0  0  0  0
 32 33  1  0  0  0  0
 33 34  1  1  0  0  0
 33  6  1  0  0  0  0
 35 38  1  1  0  0  0
 35 34  1  0  0  0  0
 36 37  1  0  0  0  0
 36 38  1  0  0  0  0
 39 36  2  0  0  0  0
M  END
>  <MODEL>
5

>  <REMARK>
 VINA RESULT:      -7.7      2.455      5.848
  Name = 
  4 active torsions:
  status: ('A' for Active; 'I' for Inactive)
    1  A    between atoms: C_3  and  C_9
    2  A    between atoms: C_11  and  C_19
    3  A    between atoms: C_12  and  C_22
    4  A    between atoms: N_15  and  C_35
                            x       y       z     vdW  Elec       q    Type
                         _______ _______ _______ _____ _____    ______ ____

>  <TORSDO>
F 4

$$$$
=
 OpenBabel11042415003D

 39 44  0  0  1  0  0  0  0  0999 V2000
  194.5680  176.3670  146.8760 O   0  0  0  0  0  0  0  0  0  0  0  0
  189.9400  175.7500  144.0460 C   0  0  0  0  0  3  0  0  0  0  0  0
  192.2710  175.5060  144.3500 C   0  0  0  0  0  0  0  0  0  0  0  0
  195.8130  174.8320  144.3580 C   0  0  0  0  0  1  0  0  0  0  0  0
  192.3090  176.7200  146.7600 N   0  0  0  0  0  0  0  0  0  0  0  0
  190.8700  172.5070  141.2000 C   0  0  2  0  0  3  0  0  0  0  0  0
  193.6900  174.5480  143.0290 N   0  0  0  0  0  0  0  0  0  0  0  0
  188.8400  174.8240  141.9290 C   0  0  2  0  0  3  0  0  0  0  0  0
  191.3540  174.6350  142.3700 C   0  0  0  0  0  0  0  0  0  0  0  0
  192.4130  174.8760  143.1920 N   0  0  0  0  0  0  0  0  0  0  0  0
  189.3980  172.6320  140.8880 C   0  0  0  0  0  0  0  0  0  0  0  0
  191.5560  173.8640  141.1010 C   0  0  0  0  0  2  0  0  0  0  0  0
  187.1560  173.1180  141.5190 O   0  0  0  0  0  1  0  0  0  0  0  0
  193.4480  175.6160  144.9930 C   0  0  0  0  0  0  0  0  0  0  0  0
  191.1080  176.5960  146.0940 C   0  0  0  0  0  3  0  0  0  0  0  0
  188.4950  173.3250  141.8730 C   0  0  2  0  0  3  0  0  0  0  0  0
  190.0630  175.0890  142.7880 C   0  0  0  0  0  0  0  0  0  0  0  0
  194.3520  174.9990  144.1350 C   0  0  0  0  0  0  0  0  0  0  0  0
  193.4890  176.2420  146.2390 C   0  0  0  0  0  0  0  0  0  0  0  0
  191.0740  175.9640  144.8390 C   0  0  0  0  0  0  0  0  0  0  0  0
  188.9570  172.2680  139.8060 O   0  0  0  0  0  0  0  0  0  0  0  0
  185.5300  177.4670  142.7720 C   0  0  0  0  0  0  0  0  0  0  0  0
  187.0030  175.6640  143.4660 C   0  0  0  0  0  3  0  0  0  0  0  0
  185.9370  176.5280  143.7300 C   0  0  0  0  0  3  0  0  0  0  0  0
  187.6740  175.7290  142.2350 C   0  0  0  0  0  0  0  0  0  0  0  0
  187.2740  176.6690  141.2800 C   0  0  0  0  0  3  0  0  0  0  0  0
  186.2080  177.5320  141.5460 C   0  0  0  0  0  3  0  0  0  0  0  0
  184.5160  179.3690  144.0700 N   0  0  0  0  0  1  0  0  0  0  0  0
  184.4060  178.3790  143.0520 C   0  0  0  0  0  0  0  0  0  0  0  0
  183.3380  178.2920  142.3910 O   0  0  0  0  0  0  0  0  0  0  0  0
  191.0260  169.5330  139.3180 C   0  0  0  0  0  2  0  0  0  0  0  0
  191.0260  170.1690  140.5740 O   0  0  0  0  0  0  0  0  0  0  0  0
  191.6200  171.4340  140.3980 C   0  0  1  0  0  3  0  0  0  0  0  0
  191.7240  171.7480  138.9230 C   0  0  0  0  0  2  0  0  0  0  0  0
  191.7480  170.3930  138.3040 C   0  0  2  0  0  3  0  0  0  0  0  0
  191.6240  170.8070  135.8120 C   0  0  0  0  0  0  0  0  0  0  0  0
  190.8200  170.7920  134.5630 C   0  0  0  0  0  1  0  0  0  0  0  0
  191.0180  170.4150  137.0460 N   0  0  0  0  0  2  0  0  0  0  0  0
  192.8310  171.1670  135.7730 O   0  0  0  0  0  0  0  0  0  0  0  0
  2 20  2  0  0  0  0
  3 20  1  0  0  0  0
  3 14  2  0  0  0  0
  6 12  1  6  0  0  0
  7 10  1  0  0  0  0
  7 18  2  0  0  0  0
  8 25  1  1  0  0  0
  8 17  1  0  0  0  0
  9 17  2  0  0  0  0
  9 10  1  0  0  0  0
 10  3  1  0  0  0  0
 11  6  1  0  0  0  0
 11 16  1  0  0  0  0
 12  9  1  0  0  0  0
 14 19  1  0  0  0  0
 15  5  2  0  0  0  0
 16 13  1  6  0  0  0
 16  8  1  0  0  0  0
 17  2  1  0  0  0  0
 18  4  1  0  0  0  0
 18 14  1  0  0  0  0
 19  5  1  0  0  0  0
 19  1  2  0  0  0  0
 20 15  1  0  0  0  0
 21 11  2  0  0  0  0
 22 29  1  0  0  0  0
 22 24  1  0  0  0  0
 23 24  2  0  0  0  0
 25 23  1  0  0  0  0
 26 27  1  0  0  0  0
 26 25  2  0  0  0  0
 27 22  2  0  0  0  0
 29 28  1  0  0  0  0
 30 29  2  0  0  0  0
 31 32  1  0  0  0  0
 33 34  1  6  0  0  0
 33 32  1  0  0  0  0
 33  6  1  0  0  0  0
 35 38  1  6  0  0  0
 35 34  1  0  0  0  0
 35 31  1  0  0  0  0
 36 38  1  0  0  0  0
 37 36  1  0  0  0  0
 39 36  2  0  0  0  0
M  END
>  <MODEL>
6

>  <REMARK>
 VINA RESULT:      -7.7      2.595      6.303
  Name = 
  4 active torsions:
  status: ('A' for Active; 'I' for Inactive)
    1  A    between atoms: C_3  and  C_9
    2  A    between atoms: C_11  and  C_19
    3  A    between atoms: C_12  and  C_22
    4  A    between atoms: N_15  and  C_35
                            x       y       z     vdW  Elec       q    Type
                         _______ _______ _______ _____ _____    ______ ____

>  <TORSDO>
F 4

$$$$
=
 OpenBabel11042415003D

 39 44  0  0  1  0  0  0  0  0999 V2000
  186.8060  175.5770  136.7140 O   0  0  0  0  0  0  0  0  0  0  0  0
  187.9180  176.4530  141.9870 C   0  0  0  0  0  3  0  0  0  0  0  0
  188.1200  175.2480  139.9640 C   0  0  0  0  0  0  0  0  0  0  0  0
  188.8130  173.1200  137.1370 C   0  0  0  0  0  1  0  0  0  0  0  0
  186.4610  176.8620  138.5770 N   0  0  0  0  0  0  0  0  0  0  0  0
  191.6610  174.2130  142.6600 C   0  0  2  0  0  3  0  0  0  0  0  0
  189.3300  173.4980  139.5750 N   0  0  0  0  0  0  0  0  0  0  0  0
  189.2280  175.6860  144.0480 C   0  0  2  0  0  3  0  0  0  0  0  0
  189.3510  174.4610  141.8040 C   0  0  0  0  0  0  0  0  0  0  0  0
  188.9650  174.3780  140.5010 N   0  0  0  0  0  0  0  0  0  0  0  0
  191.5850  174.8870  144.0090 C   0  0  0  0  0  0  0  0  0  0  0  0
  190.3550  173.4910  142.3470 C   0  0  0  0  0  2  0  0  0  0  0  0
  190.9650  176.7080  145.4100 O   0  0  0  0  0  1  0  0  0  0  0  0
  187.8980  174.9740  138.6650 C   0  0  0  0  0  0  0  0  0  0  0  0
  186.7010  177.1350  139.9070 C   0  0  0  0  0  3  0  0  0  0  0  0
  190.7060  176.0970  144.1770 C   0  0  2  0  0  3  0  0  0  0  0  0
  188.8120  175.5230  142.5970 C   0  0  0  0  0  0  0  0  0  0  0  0
  188.6790  173.8480  138.4270 C   0  0  0  0  0  0  0  0  0  0  0  0
  187.0420  175.7960  137.9310 C   0  0  0  0  0  0  0  0  0  0  0  0
  187.5650  176.3030  140.6410 C   0  0  0  0  0  0  0  0  0  0  0  0
  192.1490  174.4020  144.9810 O   0  0  0  0  0  0  0  0  0  0  0  0
  186.4550  178.0010  146.4160 C   0  0  0  0  0  0  0  0  0  0  0  0
  187.7180  177.7030  144.3630 C   0  0  0  0  0  3  0  0  0  0  0  0
  186.8170  178.4410  145.1360 C   0  0  0  0  0  3  0  0  0  0  0  0
  188.2690  176.5140  144.8660 C   0  0  0  0  0  0  0  0  0  0  0  0
  187.9050  176.0700  146.1400 C   0  0  0  0  0  3  0  0  0  0  0  0
  187.0040  176.8090  146.9120 C   0  0  0  0  0  3  0  0  0  0  0  0
  184.1110  178.4830  147.1940 N   0  0  0  0  0  1  0  0  0  0  0  0
  185.5050  178.7790  147.2310 C   0  0  0  0  0  0  0  0  0  0  0  0
  185.9160  179.7130  147.9690 O   0  0  0  0  0  0  0  0  0  0  0  0
  193.3170  171.4850  141.1680 C   0  0  0  0  0  2  0  0  0  0  0  0
  192.4700  171.9780  142.1800 O   0  0  0  0  0  0  0  0  0  0  0  0
  192.8770  173.2980  142.4530 C   0  0  1  0  0  3  0  0  0  0  0  0
  193.8140  173.7790  141.3680 C   0  0  0  0  0  2  0  0  0  0  0  0
  194.3860  172.5060  140.8470 C   0  0  2  0  0  3  0  0  0  0  0  0
  195.7070  173.2570  138.8250 C   0  0  0  0  0  0  0  0  0  0  0  0
  195.8430  173.3100  137.3470 C   0  0  0  0  0  1  0  0  0  0  0  0
  194.5770  172.6060  139.4080 N   0  0  0  0  0  2  0  0  0  0  0  0
  196.5890  173.7900  139.5520 O   0  0  0  0  0  0  0  0  0  0  0  0
  1 19  2  0  0  0  0
  2 17  1  0  0  0  0
  3 10  1  0  0  0  0
  3 20  1  0  0  0  0
  4 18  1  0  0  0  0
  5 15  2  0  0  0  0
  6 12  1  1  0  0  0
  6 11  1  0  0  0  0
  7 10  1  0  0  0  0
  8 16  1  0  0  0  0
  8 25  1  6  0  0  0
  9 12  1  0  0  0  0
  9 17  2  0  0  0  0
 10  9  1  0  0  0  0
 11 16  1  0  0  0  0
 11 21  2  0  0  0  0
 14  3  2  0  0  0  0
 15 20  1  0  0  0  0
 16 13  1  1  0  0  0
 17  8  1  0  0  0  0
 18 14  1  0  0  0  0
 18  7  2  0  0  0  0
 19  5  1  0  0  0  0
 19 14  1  0  0  0  0
 20  2  2  0  0  0  0
 22 27  1  0  0  0  0
 22 29  1  0  0  0  0
 23 25  2  0  0  0  0
 23 24  1  0  0  0  0
 24 22  2  0  0  0  0
 25 26  1  0  0  0  0
 26 27  2  0  0  0  0
 28 29  1  0  0  0  0
 29 30  2  0  0  0  0
 31 32  1  0  0  0  0
 32 33  1  0  0  0  0
 33 34  1  6  0  0  0
 33  6  1  0  0  0  0
 35 38  1  6  0  0  0
 35 31  1  0  0  0  0
 35 34  1  0  0  0  0
 36 38  1  0  0  0  0
 36 39  2  0  0  0  0
 37 36  1  0  0  0  0
M  END
>  <MODEL>
7

>  <REMARK>
 VINA RESULT:      -7.6      2.675      3.495
  Name = 
  4 active torsions:
  status: ('A' for Active; 'I' for Inactive)
    1  A    between atoms: C_3  and  C_9
    2  A    between atoms: C_11  and  C_19
    3  A    between atoms: C_12  and  C_22
    4  A    between atoms: N_15  and  C_35
                            x       y       z     vdW  Elec       q    Type
                         _______ _______ _______ _____ _____    ______ ____

>  <TORSDO>
F 4

$$$$
=
 OpenBabel11042415003D

 39 44  0  0  1  0  0  0  0  0999 V2000
  194.4670  176.4980  146.9190 O   0  0  0  0  0  0  0  0  0  0  0  0
  189.9960  175.7560  143.8750 C   0  0  0  0  0  3  0  0  0  0  0  0
  192.3140  175.5680  144.2920 C   0  0  0  0  0  0  0  0  0  0  0  0
  195.8670  174.9770  144.4750 C   0  0  0  0  0  1  0  0  0  0  0  0
  192.2090  176.7980  146.6920 N   0  0  0  0  0  0  0  0  0  0  0  0
  191.1360  172.5180  141.1000 C   0  0  2  0  0  3  0  0  0  0  0  0
  193.8170  174.6360  143.0480 N   0  0  0  0  0  0  0  0  0  0  0  0
  189.0210  174.7920  141.7140 C   0  0  2  0  0  3  0  0  0  0  0  0
  191.5150  174.6640  142.2770 C   0  0  0  0  0  0  0  0  0  0  0  0
  192.5260  174.9350  143.1460 N   0  0  0  0  0  0  0  0  0  0  0  0
  189.6780  172.6080  140.7160 C   0  0  0  0  0  0  0  0  0  0  0  0
  191.7950  173.8910  141.0240 C   0  0  0  0  0  2  0  0  0  0  0  0
  187.3980  173.0450  141.2360 O   0  0  0  0  0  1  0  0  0  0  0  0
  193.4570  175.7100  144.9900 C   0  0  0  0  0  0  0  0  0  0  0  0
  191.0450  176.6420  145.9700 C   0  0  0  0  0  3  0  0  0  0  0  0
  188.7130  173.2850  141.6520 C   0  0  2  0  0  3  0  0  0  0  0  0
  190.1950  175.0910  142.6290 C   0  0  0  0  0  0  0  0  0  0  0  0
  194.4150  175.1090  144.1800 C   0  0  0  0  0  0  0  0  0  0  0  0
  193.4230  176.3440  146.2320 C   0  0  0  0  0  0  0  0  0  0  0  0
  191.0850  176.0010  144.7190 C   0  0  0  0  0  0  0  0  0  0  0  0
  189.2990  172.2270  139.6170 O   0  0  0  0  0  0  0  0  0  0  0  0
  185.6150  177.3630  142.3800 C   0  0  0  0  0  0  0  0  0  0  0  0
  187.0740  175.5770  143.1420 C   0  0  0  0  0  3  0  0  0  0  0  0
  185.9770  176.4180  143.3500 C   0  0  0  0  0  3  0  0  0  0  0  0
  187.8210  175.6720  141.9570 C   0  0  0  0  0  0  0  0  0  0  0  0
  187.4650  176.6180  140.9920 C   0  0  0  0  0  3  0  0  0  0  0  0
  186.3680  177.4580  141.2010 C   0  0  0  0  0  3  0  0  0  0  0  0
  183.3780  178.2710  141.6710 N   0  0  0  0  0  1  0  0  0  0  0  0
  184.4590  178.2500  142.6000 C   0  0  0  0  0  0  0  0  0  0  0  0
  184.4140  178.9970  143.6130 O   0  0  0  0  0  0  0  0  0  0  0  0
  193.9390  171.4360  139.2610 C   0  0  0  0  0  2  0  0  0  0  0  0
  192.6670  172.0410  139.2810 O   0  0  0  0  0  0  0  0  0  0  0  0
  191.9480  171.4590  140.3430 C   0  0  1  0  0  3  0  0  0  0  0  0
  192.8900  170.6760  141.2290 C   0  0  0  0  0  2  0  0  0  0  0  0
  194.0040  170.3380  140.2990 C   0  0  2  0  0  3  0  0  0  0  0  0
  195.7450  169.3040  141.8150 C   0  0  0  0  0  0  0  0  0  0  0  0
  197.0550  169.4190  142.5040 C   0  0  0  0  0  1  0  0  0  0  0  0
  195.2710  170.3860  141.0120 N   0  0  0  0  0  2  0  0  0  0  0  0
  195.0600  168.2540  141.9490 O   0  0  0  0  0  0  0  0  0  0  0  0
  2 20  2  0  0  0  0
  3 20  1  0  0  0  0
  3 14  2  0  0  0  0
  6 12  1  6  0  0  0
  7 10  1  0  0  0  0
  7 18  2  0  0  0  0
  8 25  1  1  0  0  0
  8 17  1  0  0  0  0
  9 17  2  0  0  0  0
  9 10  1  0  0  0  0
 10  3  1  0  0  0  0
 11  6  1  0  0  0  0
 11 16  1  0  0  0  0
 12  9  1  0  0  0  0
 14 19  1  0  0  0  0
 15  5  2  0  0  0  0
 16 13  1  6  0  0  0
 16  8  1  0  0  0  0
 17  2  1  0  0  0  0
 18  4  1  0  0  0  0
 18 14  1  0  0  0  0
 19  5  1  0  0  0  0
 19  1  2  0  0  0  0
 20 15  1  0  0  0  0
 21 11  2  0  0  0  0
 22 29  1  0  0  0  0
 22 24  1  0  0  0  0
 23 24  2  0  0  0  0
 25 23  1  0  0  0  0
 26 27  1  0  0  0  0
 26 25  2  0  0  0  0
 27 22  2  0  0  0  0
 28 29  1  0  0  0  0
 29 30  2  0  0  0  0
 31 32  1  0  0  0  0
 31 35  1  0  0  0  0
 32 33  1  0  0  0  0
 33  6  1  0  0  0  0
 33 34  1  1  0  0  0
 35 38  1  1  0  0  0
 35 34  1  0  0  0  0
 36 39  2  0  0  0  0
 36 37  1  0  0  0  0
 38 36  1  0  0  0  0
M  END
>  <MODEL>
8

>  <REMARK>
 VINA RESULT:      -7.5      2.648      5.605
  Name = 
  4 active torsions:
  status: ('A' for Active; 'I' for Inactive)
    1  A    between atoms: C_3  and  C_9
    2  A    between atoms: C_11  and  C_19
    3  A    between atoms: C_12  and  C_22
    4  A    between atoms: N_15  and  C_35
                            x       y       z     vdW  Elec       q    Type
                         _______ _______ _______ _____ _____    ______ ____

>  <TORSDO>
F 4

$$$$
=
 OpenBabel11042415003D

 39 44  0  0  1  0  0  0  0  0999 V2000
  189.2860  170.4610  138.0790 O   0  0  0  0  0  0  0  0  0  0  0  0
  192.0520  171.8340  142.5810 C   0  0  0  0  0  3  0  0  0  0  0  0
  190.7150  172.3320  140.6970 C   0  0  0  0  0  0  0  0  0  0  0  0
  188.6430  173.5960  138.0300 C   0  0  0  0  0  1  0  0  0  0  0  0
  190.5960  169.7800  139.8280 N   0  0  0  0  0  0  0  0  0  0  0  0
  190.3470  175.7440  143.7140 C   0  0  2  0  0  3  0  0  0  0  0  0
  189.9250  174.2540  140.0990 N   0  0  0  0  0  0  0  0  0  0  0  0
  192.7310  173.7150  144.1780 C   0  0  2  0  0  3  0  0  0  0  0  0
  191.2970  174.1250  142.0980 C   0  0  0  0  0  0  0  0  0  0  0  0
  190.6670  173.6220  141.0020 N   0  0  0  0  0  0  0  0  0  0  0  0
  191.2220  175.5470  144.9280 C   0  0  0  0  0  0  0  0  0  0  0  0
  191.1610  175.5790  142.4350 C   0  0  0  0  0  2  0  0  0  0  0  0
  192.3010  174.1580  146.5310 O   0  0  0  0  0  1  0  0  0  0  0  0
  190.0080  172.0670  139.5820 C   0  0  0  0  0  0  0  0  0  0  0  0
  191.3120  170.0630  140.9720 C   0  0  0  0  0  3  0  0  0  0  0  0
  191.7270  174.1670  145.2540 C   0  0  2  0  0  3  0  0  0  0  0  0
  192.0320  173.2180  142.9260 C   0  0  0  0  0  0  0  0  0  0  0  0
  189.5070  173.3090  139.2060 C   0  0  0  0  0  0  0  0  0  0  0  0
  189.9360  170.7540  139.1170 C   0  0  0  0  0  0  0  0  0  0  0  0
  191.3810  171.3880  141.4360 C   0  0  0  0  0  0  0  0  0  0  0  0
  191.6020  176.5080  145.5850 O   0  0  0  0  0  0  0  0  0  0  0  0
  195.7960  171.0530  145.6530 C   0  0  0  0  0  0  0  0  0  0  0  0
  195.1680  173.1690  144.6400 C   0  0  0  0  0  3  0  0  0  0  0  0
  196.1500  172.3020  145.1260 C   0  0  0  0  0  3  0  0  0  0  0  0
  193.8160  172.7930  144.6760 C   0  0  0  0  0  0  0  0  0  0  0  0
  193.4600  171.5500  145.2060 C   0  0  0  0  0  3  0  0  0  0  0  0
  194.4440  170.6840  145.6910 C   0  0  0  0  0  3  0  0  0  0  0  0
  197.9410  169.7740  145.3470 N   0  0  0  0  0  1  0  0  0  0  0  0
  196.8330  170.1390  146.1650 C   0  0  0  0  0  0  0  0  0  0  0  0
  196.7500  169.6740  147.3330 O   0  0  0  0  0  0  0  0  0  0  0  0
  187.4860  177.6430  142.9240 C   0  0  0  0  0  2  0  0  0  0  0  0
  188.7380  177.1260  142.5380 O   0  0  0  0  0  0  0  0  0  0  0  0
  189.5290  177.0440  143.7000 C   0  0  1  0  0  3  0  0  0  0  0  0
  188.6590  177.2200  144.9240 C   0  0  0  0  0  2  0  0  0  0  0  0
  187.5100  178.0050  144.3930 C   0  0  2  0  0  3  0  0  0  0  0  0
  185.3540  178.4960  145.6220 C   0  0  0  0  0  0  0  0  0  0  0  0
  184.1120  177.9860  146.2570 C   0  0  0  0  0  1  0  0  0  0  0  0
  186.2800  177.5750  145.0410 N   0  0  0  0  0  2  0  0  0  0  0  0
  185.5830  179.7350  145.6050 O   0  0  0  0  0  0  0  0  0  0  0  0
  1 19  2  0  0  0  0
  2 17  1  0  0  0  0
  3 10  1  0  0  0  0
  3 20  1  0  0  0  0
  4 18  1  0  0  0  0
  5 15  2  0  0  0  0
  6 12  1  6  0  0  0
  6 11  1  0  0  0  0
  7 10  1  0  0  0  0
  8 25  1  1  0  0  0
  8 16  1  0  0  0  0
  9 12  1  0  0  0  0
  9 17  2  0  0  0  0
 10  9  1  0  0  0  0
 11 16  1  0  0  0  0
 11 21  2  0  0  0  0
 14  3  2  0  0  0  0
 15 20  1  0  0  0  0
 16 13  1  1  0  0  0
 17  8  1  0  0  0  0
 18 14  1  0  0  0  0
 18  7  2  0  0  0  0
 19 14  1  0  0  0  0
 19  5  1  0  0  0  0
 20  2  2  0  0  0  0
 22 27  1  0  0  0  0
 22 29  1  0  0  0  0
 23 25  2  0  0  0  0
 23 24  1  0  0  0  0
 24 22  2  0  0  0  0
 25 26  1  0  0  0  0
 26 27  2  0  0  0  0
 28 29  1  0  0  0  0
 29 30  2  0  0  0  0
 31 35  1  0  0  0  0
 32 31  1  0  0  0  0
 32 33  1  0  0  0  0
 33  6  1  0  0  0  0
 33 34  1  1  0  0  0
 35 34  1  0  0  0  0
 35 38  1  1  0  0  0
 36 37  1  0  0  0  0
 38 36  1  0  0  0  0
 39 36  2  0  0  0  0
M  END
>  <MODEL>
9

>  <REMARK>
 VINA RESULT:      -7.5      2.120      7.973
  Name = 
  4 active torsions:
  status: ('A' for Active; 'I' for Inactive)
    1  A    between atoms: C_3  and  C_9
    2  A    between atoms: C_11  and  C_19
    3  A    between atoms: C_12  and  C_22
    4  A    between atoms: N_15  and  C_35
                            x       y       z     vdW  Elec       q    Type
                         _______ _______ _______ _____ _____    ______ ____

>  <TORSDO>
F 4

$$$$
