=
 OpenBabel11042417543D

 55 59  0  0  1  0  0  0  0  0999 V2000
  188.6450  174.6470  142.9060 C   0  0  0  0  0  3  0  0  0  0  0  0
  189.7520  173.8280  142.6600 C   0  0  0  0  0  3  0  0  0  0  0  0
  190.1420  173.5480  141.3440 C   0  0  0  0  0  0  0  0  0  0  0  0
  188.2950  174.9270  140.5420 C   0  0  0  0  0  3  0  0  0  0  0  0
  189.4010  174.1010  140.2910 C   0  0  0  0  0  3  0  0  0  0  0  0
  187.9210  175.2240  141.8510 C   0  0  0  0  0  0  0  0  0  0  0  0
  192.3760  173.4180  140.2900 C   0  0  0  0  0  3  0  0  0  0  0  0
  193.2440  170.4590  140.2560 C   0  0  0  0  0  0  0  0  0  0  0  0
  195.9070  173.7760  139.5990 C   0  0  0  0  0  2  0  0  0  0  0  0
  194.4940  173.8190  139.2570 N   0  0  0  0  0  0  0  0  0  0  0  0
  191.3390  172.6770  141.0670 C   0  0  2  0  0  3  0  0  0  0  0  0
  194.0170  174.9160  138.4230 C   0  0  0  0  0  1  0  0  0  0  0  0
  196.3410  172.4200  139.9350 N   0  0  0  0  0  0  0  0  0  0  0  0
  195.5670  171.4250  140.3020 C   0  0  0  0  0  0  0  0  0  0  0  0
  190.9220  171.4570  140.3320 C   0  0  0  0  0  3  0  0  0  0  0  0
  193.7710  169.1800  140.4220 O   0  0  0  0  0  1  0  0  0  0  0  0
  194.0670  171.5640  140.2500 C   0  0  0  0  0  0  0  0  0  0  0  0
  196.2150  170.1830  140.5770 N   0  0  0  0  0  2  0  0  0  0  0  0
  191.7800  170.4820  140.0030 C   0  0  0  0  0  3  0  0  0  0  0  0
  193.5770  172.9370  139.9320 C   0  0  0  0  0  0  0  0  0  0  0  0
  196.7410  172.4200  144.2030 C   0  0  0  0  0  0  0  0  0  0  0  0
  196.7990  169.8110  146.8030 C   0  0  0  0  0  1  0  0  0  0  0  0
  196.2210  174.5040  142.8810 C   0  0  0  0  0  1  0  0  0  0  0  0
  196.7860  169.5020  144.2580 C   0  0  0  0  0  0  0  0  0  0  0  0
  196.8050  170.1160  142.9290 C   0  0  0  0  0  0  0  0  0  0  0  0
  197.6270  171.7270  142.7840 S   0  0  0  0  0  0  0  0  0  0  0  0
  196.5980  171.7090  145.2850 N   0  0  0  0  0  0  0  0  0  0  0  0
  196.1890  169.5600  141.8750 C   0  0  0  0  0  3  0  0  0  0  0  0
  197.1760  170.3810  145.4310 C   0  0  1  0  0  3  0  0  0  0  0  0
  196.6610  168.1670  144.3990 C   0  0  0  0  0  2  0  0  0  0  0  0
  195.8850  174.4620  145.3510 C   0  0  0  0  0  1  0  0  0  0  0  0
  196.1450  173.7340  144.1140 N   0  0  0  0  0  0  0  0  0  0  0  0
  186.7000  177.4940  141.7390 C   0  0  0  0  0  0  0  0  0  0  0  0
  186.2390  175.8620  143.4260 O   0  0  0  0  0  0  0  0  0  0  0  0
  185.5860  177.0400  143.8110 C   0  0  2  0  0  3  0  0  0  0  0  0
  186.2300  177.6590  140.4430 F   0  0  0  0  0  0  0  0  0  0  0  0
  185.7000  178.0840  142.7050 C   0  0  1  0  0  3  0  0  0  0  0  0
  186.0720  179.3560  143.1640 O   0  0  0  0  0  1  0  0  0  0  0  0
  186.6840  176.0180  142.1100 C   0  0  2  0  0  3  0  0  0  0  0  0
  187.9700  178.0620  141.8840 F   0  0  0  0  0  0  0  0  0  0  0  0
  185.9940  177.4580  145.2420 C   0  0  2  0  0  3  0  0  0  0  0  0
  185.6810  178.9140  145.6540 C   0  0  0  0  0  2  0  0  0  0  0  0
  184.3880  179.0340  146.1860 O   0  0  0  0  0  1  0  0  0  0  0  0
  187.3840  176.9240  145.6560 C   0  0  2  0  0  3  0  0  0  0  0  0
  188.2180  175.2770  147.3470 O   0  0  0  0  0  0  0  0  0  0  0  0
  186.2780  176.4320  147.7290 O   0  0  0  0  0  1  0  0  0  0  0  0
  187.2580  176.2070  146.9700 C   0  0  0  0  0  0  0  0  0  0  0  0
  189.2370  178.0540  147.0160 C   0  0  0  0  0  1  0  0  0  0  0  0
  188.4940  178.0080  145.6900 C   0  0  1  0  0  3  0  0  0  0  0  0
  189.5100  177.8170  144.5750 C   0  0  0  0  0  2  0  0  0  0  0  0
  190.5560  176.7700  144.9790 C   0  0  0  0  0  2  0  0  0  0  0  0
  191.1660  176.7530  142.6660 F   0  0  0  0  0  0  0  0  0  0  0  0
  191.6900  176.6910  143.9470 C   0  0  0  0  0  0  0  0  0  0  0  0
  192.3640  175.4910  144.0950 F   0  0  0  0  0  0  0  0  0  0  0  0
  192.5710  177.7490  144.1330 F   0  0  0  0  0  0  0  0  0  0  0  0
  2  1  1  0  0  0  0
  3  2  2  0  0  0  0
  4  6  1  0  0  0  0
  5  4  2  0  0  0  0
  5  3  1  0  0  0  0
  6  1  2  0  0  0  0
  7 11  1  0  0  0  0
  8 16  1  0  0  0  0
  9 13  1  0  0  0  0
 10  9  1  0  0  0  0
 10 20  1  0  0  0  0
 11  3  1  6  0  0  0
 12 10  1  0  0  0  0
 13 14  2  0  0  0  0
 14 18  1  0  0  0  0
 15 11  1  0  0  0  0
 17  8  2  0  0  0  0
 17 14  1  0  0  0  0
 18 28  1  0  0  0  0
 19  8  1  0  0  0  0
 19 15  2  0  0  0  0
 20 17  1  0  0  0  0
 20  7  2  0  0  0  0
 21 27  2  0  0  0  0
 23 32  1  0  0  0  0
 24 30  2  0  0  0  0
 24 29  1  0  0  0  0
 25 24  1  0  0  0  0
 26 25  1  0  0  0  0
 26 21  1  0  0  0  0
 27 29  1  0  0  0  0
 28 25  2  0  0  0  0
 29 22  1  1  0  0  0
 32 21  1  0  0  0  0
 32 31  1  0  0  0  0
 33 40  1  0  0  0  0
 33 39  1  0  0  0  0
 33 37  1  0  0  0  0
 34 35  1  0  0  0  0
 35 41  1  1  0  0  0
 36 33  1  0  0  0  0
 37 38  1  1  0  0  0
 37 35  1  0  0  0  0
 39  6  1  1  0  0  0
 39 34  1  0  0  0  0
 41 42  1  6  0  0  0
 41 44  1  0  0  0  0
 42 43  1  0  0  0  0
 44 49  1  0  0  0  0
 44 47  1  1  0  0  0
 47 45  2  0  0  0  0
 47 46  1  0  0  0  0
 49 48  1  1  0  0  0
 50 51  1  0  0  0  0
 50 49  1  0  0  0  0
 52 53  1  0  0  0  0
 53 54  1  0  0  0  0
 53 55  1  0  0  0  0
 53 51  1  0  0  0  0
M  END
>  <MODEL>
1

>  <REMARK>
 VINA RESULT:      -7.4      0.000      0.000
  Name = 
  11 active torsions:
  status: ('A' for Active; 'I' for Inactive)
    1  A    between atoms: C_8  and  C_35
    2  A    between atoms: C_13  and  C_34
    3  A    between atoms: C_16  and  C_34
    4  A    between atoms: C_23  and  C_34
    5  A    between atoms: C_23  and  C_50
    6  A    between atoms: C_23  and  C_53
    7  A    between atoms: C_28  and  N_44
    8  A    between atoms: C_37  and  C_39
    9  A    between atoms: C_37  and  C_47
   10  A    between atoms: C_41  and  C_46
   11  A    between atoms: C_47  and  C_53
                            x       y       z     vdW  Elec       q    Type
                         _______ _______ _______ _____ _____    ______ ____

>  <TORSDO>
F 11

$$$$
=
 OpenBabel11042417543D

 55 59  0  0  1  0  0  0  0  0999 V2000
  193.4590  175.5170  145.6090 C   0  0  0  0  0  3  0  0  0  0  0  0
  194.3370  175.1940  144.5690 C   0  0  0  0  0  3  0  0  0  0  0  0
  194.0560  175.6000  143.2580 C   0  0  0  0  0  0  0  0  0  0  0  0
  192.0060  176.6510  144.0630 C   0  0  0  0  0  3  0  0  0  0  0  0
  192.8810  176.3250  143.0160 C   0  0  0  0  0  3  0  0  0  0  0  0
  192.2980  176.2690  145.3700 C   0  0  0  0  0  0  0  0  0  0  0  0
  195.7670  174.0220  142.4240 C   0  0  0  0  0  3  0  0  0  0  0  0
  197.1180  175.2940  139.9600 C   0  0  0  0  0  0  0  0  0  0  0  0
  197.4230  171.1320  141.0140 C   0  0  0  0  0  2  0  0  0  0  0  0
  197.2380  172.1840  142.0010 N   0  0  0  0  0  0  0  0  0  0  0  0
  195.0000  175.2680  142.1330 C   0  0  2  0  0  3  0  0  0  0  0  0
  197.4270  171.8540  143.4090 C   0  0  0  0  0  1  0  0  0  0  0  0
  197.7450  171.6780  139.6960 N   0  0  0  0  0  0  0  0  0  0  0  0
  197.5140  172.9020  139.2840 C   0  0  0  0  0  0  0  0  0  0  0  0
  195.9310  176.4000  141.8990 C   0  0  0  0  0  3  0  0  0  0  0  0
  197.5940  175.7240  138.7230 O   0  0  0  0  0  1  0  0  0  0  0  0
  197.0120  173.9500  140.2450 C   0  0  0  0  0  0  0  0  0  0  0  0
  197.9210  173.2140  137.9520 N   0  0  0  0  0  2  0  0  0  0  0  0
  196.8450  176.3960  140.9190 C   0  0  0  0  0  3  0  0  0  0  0  0
  196.6490  173.4350  141.5970 C   0  0  0  0  0  0  0  0  0  0  0  0
  194.0180  171.4620  137.6070 C   0  0  0  0  0  0  0  0  0  0  0  0
  192.6910  172.9600  134.5130 C   0  0  0  0  0  1  0  0  0  0  0  0
  194.2760  170.6470  139.9790 C   0  0  0  0  0  1  0  0  0  0  0  0
  195.0610  173.1540  135.4700 C   0  0  0  0  0  0  0  0  0  0  0  0
  196.0190  172.7760  136.5110 C   0  0  0  0  0  0  0  0  0  0  0  0
  195.7750  171.1600  137.2980 S   0  0  0  0  0  0  0  0  0  0  0  0
  193.2810  171.9980  136.6750 N   0  0  0  0  0  0  0  0  0  0  0  0
  196.9920  173.6030  136.9230 C   0  0  0  0  0  3  0  0  0  0  0  0
  193.8010  172.3190  135.3540 C   0  0  1  0  0  3  0  0  0  0  0  0
  195.3970  174.0460  134.5160 C   0  0  0  0  0  2  0  0  0  0  0  0
  192.0080  170.9410  138.9890 C   0  0  0  0  0  1  0  0  0  0  0  0
  193.4460  171.1640  138.9010 N   0  0  0  0  0  0  0  0  0  0  0  0
  190.6980  175.3280  147.1620 C   0  0  0  0  0  0  0  0  0  0  0  0
  190.3060  177.4060  146.0450 O   0  0  0  0  0  0  0  0  0  0  0  0
  189.1360  177.0990  146.7520 C   0  0  2  0  0  3  0  0  0  0  0  0
  191.4570  174.9910  148.2740 F   0  0  0  0  0  0  0  0  0  0  0  0
  189.3630  175.8650  147.6210 C   0  0  1  0  0  3  0  0  0  0  0  0
  188.3340  174.9160  147.5320 O   0  0  0  0  0  1  0  0  0  0  0  0
  191.3120  176.5300  146.4610 C   0  0  2  0  0  3  0  0  0  0  0  0
  190.5560  174.2310  146.3050 F   0  0  0  0  0  0  0  0  0  0  0  0
  187.9040  177.1080  145.8180 C   0  0  2  0  0  3  0  0  0  0  0  0
  188.1780  176.9250  144.3100 C   0  0  0  0  0  2  0  0  0  0  0  0
  188.5130  175.5970  144.0020 O   0  0  0  0  0  1  0  0  0  0  0  0
  186.8710  178.1950  146.1900 C   0  0  2  0  0  3  0  0  0  0  0  0
  186.0320  177.1010  148.2800 O   0  0  0  0  0  0  0  0  0  0  0  0
  187.0460  179.1520  148.3840 O   0  0  0  0  0  1  0  0  0  0  0  0
  186.6640  178.1810  147.6780 C   0  0  0  0  0  0  0  0  0  0  0  0
  184.3300  177.9000  146.3320 C   0  0  0  0  0  1  0  0  0  0  0  0
  185.5300  178.0830  145.4160 C   0  0  1  0  0  3  0  0  0  0  0  0
  185.2810  179.2960  144.5330 C   0  0  0  0  0  2  0  0  0  0  0  0
  184.5020  178.8890  143.2750 C   0  0  0  0  0  2  0  0  0  0  0  0
  186.6990  178.8970  142.3310 F   0  0  0  0  0  0  0  0  0  0  0  0
  185.4410  178.3330  142.1960 C   0  0  0  0  0  0  0  0  0  0  0  0
  184.9420  178.6500  140.9440 F   0  0  0  0  0  0  0  0  0  0  0  0
  185.5420  176.9530  142.3240 F   0  0  0  0  0  0  0  0  0  0  0  0
  2  1  2  0  0  0  0
  3  2  1  0  0  0  0
  4  6  2  0  0  0  0
  5  3  2  0  0  0  0
  5  4  1  0  0  0  0
  6  1  1  0  0  0  0
  8 17  2  0  0  0  0
  8 19  1  0  0  0  0
  9 10  1  0  0  0  0
 10 12  1  0  0  0  0
 11  7  1  0  0  0  0
 11  3  1  1  0  0  0
 13  9  1  0  0  0  0
 14 13  2  0  0  0  0
 14 17  1  0  0  0  0
 15 11  1  0  0  0  0
 16  8  1  0  0  0  0
 17 20  1  0  0  0  0
 18 14  1  0  0  0  0
 19 15  2  0  0  0  0
 20 10  1  0  0  0  0
 20  7  2  0  0  0  0
 21 32  1  0  0  0  0
 24 25  1  0  0  0  0
 25 28  2  0  0  0  0
 25 26  1  0  0  0  0
 26 21  1  0  0  0  0
 27 21  2  0  0  0  0
 28 18  1  0  0  0  0
 29 22  1  6  0  0  0
 29 24  1  0  0  0  0
 29 27  1  0  0  0  0
 30 24  2  0  0  0  0
 32 31  1  0  0  0  0
 32 23  1  0  0  0  0
 33 37  1  0  0  0  0
 33 36  1  0  0  0  0
 34 39  1  0  0  0  0
 34 35  1  0  0  0  0
 35 41  1  6  0  0  0
 35 37  1  0  0  0  0
 37 38  1  6  0  0  0
 39  6  1  6  0  0  0
 39 33  1  0  0  0  0
 40 33  1  0  0  0  0
 41 42  1  6  0  0  0
 41 44  1  0  0  0  0
 43 42  1  0  0  0  0
 44 47  1  1  0  0  0
 47 45  2  0  0  0  0
 47 46  1  0  0  0  0
 49 44  1  0  0  0  0
 49 48  1  1  0  0  0
 50 49  1  0  0  0  0
 51 50  1  0  0  0  0
 53 55  1  0  0  0  0
 53 52  1  0  0  0  0
 53 51  1  0  0  0  0
 54 53  1  0  0  0  0
M  END
>  <MODEL>
2

>  <REMARK>
 VINA RESULT:      -7.3      2.816      6.320
  Name = 
  11 active torsions:
  status: ('A' for Active; 'I' for Inactive)
    1  A    between atoms: C_8  and  C_35
    2  A    between atoms: C_13  and  C_34
    3  A    between atoms: C_16  and  C_34
    4  A    between atoms: C_23  and  C_34
    5  A    between atoms: C_23  and  C_50
    6  A    between atoms: C_23  and  C_53
    7  A    between atoms: C_28  and  N_44
    8  A    between atoms: C_37  and  C_39
    9  A    between atoms: C_37  and  C_47
   10  A    between atoms: C_41  and  C_46
   11  A    between atoms: C_47  and  C_53
                            x       y       z     vdW  Elec       q    Type
                         _______ _______ _______ _____ _____    ______ ____

>  <TORSDO>
F 11

$$$$
=
 OpenBabel11042417543D

 55 59  0  0  1  0  0  0  0  0999 V2000
  190.3160  174.6550  143.3010 C   0  0  0  0  0  3  0  0  0  0  0  0
  190.3080  173.7690  142.2190 C   0  0  0  0  0  3  0  0  0  0  0  0
  191.3820  173.7480  141.3190 C   0  0  0  0  0  0  0  0  0  0  0  0
  192.4560  175.5140  142.6160 C   0  0  0  0  0  3  0  0  0  0  0  0
  192.4500  174.6310  141.5260 C   0  0  0  0  0  3  0  0  0  0  0  0
  191.4000  175.5180  143.5240 C   0  0  0  0  0  0  0  0  0  0  0  0
  190.5250  173.2850  139.0450 C   0  0  0  0  0  3  0  0  0  0  0  0
  191.2390  170.3710  138.3320 C   0  0  0  0  0  0  0  0  0  0  0  0
  189.9850  173.3310  135.4700 C   0  0  0  0  0  2  0  0  0  0  0  0
  189.5570  173.3460  136.8600 N   0  0  0  0  0  0  0  0  0  0  0  0
  191.3900  172.7910  140.1570 C   0  0  2  0  0  3  0  0  0  0  0  0
  188.4620  174.2320  137.2380 C   0  0  0  0  0  1  0  0  0  0  0  0
  190.6560  172.0780  135.1250 N   0  0  0  0  0  0  0  0  0  0  0  0
  191.1980  171.2290  135.9670 C   0  0  0  0  0  0  0  0  0  0  0  0
  190.9380  171.4480  140.5990 C   0  0  0  0  0  3  0  0  0  0  0  0
  191.7330  169.1480  137.8810 O   0  0  0  0  0  1  0  0  0  0  0  0
  191.0240  171.4110  137.4530 C   0  0  0  0  0  0  0  0  0  0  0  0
  191.7960  170.0640  135.3990 N   0  0  0  0  0  2  0  0  0  0  0  0
  190.9000  170.3900  139.7780 C   0  0  0  0  0  3  0  0  0  0  0  0
  190.3640  172.6870  137.8540 C   0  0  0  0  0  0  0  0  0  0  0  0
  194.7710  173.1460  135.6670 C   0  0  0  0  0  0  0  0  0  0  0  0
  197.9390  171.2670  135.6300 C   0  0  0  0  0  1  0  0  0  0  0  0
  192.9200  174.7510  136.2660 C   0  0  0  0  0  1  0  0  0  0  0  0
  195.5670  170.3690  135.2530 C   0  0  0  0  0  0  0  0  0  0  0  0
  194.1350  170.6480  135.1330 C   0  0  0  0  0  0  0  0  0  0  0  0
  193.6710  172.2880  134.5130 S   0  0  0  0  0  0  0  0  0  0  0  0
  195.9780  172.6970  135.8640 N   0  0  0  0  0  0  0  0  0  0  0  0
  193.2000  169.7680  135.5220 C   0  0  0  0  0  3  0  0  0  0  0  0
  196.5130  171.5500  135.1450 C   0  0  1  0  0  3  0  0  0  0  0  0
  196.0280  169.1030  135.2230 C   0  0  0  0  0  2  0  0  0  0  0  0
  195.2720  175.2390  136.9280 C   0  0  0  0  0  1  0  0  0  0  0  0
  194.2930  174.2900  136.4100 N   0  0  0  0  0  0  0  0  0  0  0  0
  191.9990  176.1530  145.9520 C   0  0  0  0  0  0  0  0  0  0  0  0
  190.0710  177.0170  144.8310 O   0  0  0  0  0  0  0  0  0  0  0  0
  189.9480  177.3700  146.1810 C   0  0  2  0  0  3  0  0  0  0  0  0
  193.3290  176.5510  145.9710 F   0  0  0  0  0  0  0  0  0  0  0  0
  191.2190  176.9930  146.9360 C   0  0  1  0  0  3  0  0  0  0  0  0
  190.9800  176.3300  148.1480 O   0  0  0  0  0  1  0  0  0  0  0  0
  191.3650  176.5300  144.6220 C   0  0  2  0  0  3  0  0  0  0  0  0
  191.8850  174.7850  146.2230 F   0  0  0  0  0  0  0  0  0  0  0  0
  188.5970  176.8930  146.7590 C   0  0  2  0  0  3  0  0  0  0  0  0
  188.2650  175.3940  146.5940 C   0  0  0  0  0  2  0  0  0  0  0  0
  188.7120  174.6400  147.6900 O   0  0  0  0  0  1  0  0  0  0  0  0
  187.4380  177.8760  146.4800 C   0  0  2  0  0  3  0  0  0  0  0  0
  186.8920  179.3730  148.4110 O   0  0  0  0  0  1  0  0  0  0  0  0
  185.9610  177.2840  148.2780 O   0  0  0  0  0  0  0  0  0  0  0  0
  186.7160  178.1550  147.7670 C   0  0  0  0  0  0  0  0  0  0  0  0
  185.0780  178.0090  145.4920 C   0  0  0  0  0  1  0  0  0  0  0  0
  186.4690  177.4100  145.3600 C   0  0  1  0  0  3  0  0  0  0  0  0
  187.0040  177.7350  143.9740 C   0  0  0  0  0  2  0  0  0  0  0  0
  186.5500  176.6730  142.9640 C   0  0  0  0  0  2  0  0  0  0  0  0
  188.6540  177.2900  142.0070 F   0  0  0  0  0  0  0  0  0  0  0  0
  187.4470  176.6720  141.7190 C   0  0  0  0  0  0  0  0  0  0  0  0
  186.8220  177.3710  140.7000 F   0  0  0  0  0  0  0  0  0  0  0  0
  187.6890  175.3660  141.3110 F   0  0  0  0  0  0  0  0  0  0  0  0
  1  6  1  0  0  0  0
  2  1  2  0  0  0  0
  3  5  2  0  0  0  0
  3  2  1  0  0  0  0
  4  6  2  0  0  0  0
  5  4  1  0  0  0  0
  7 11  1  0  0  0  0
  8 19  1  0  0  0  0
  9 10  1  0  0  0  0
 10 12  1  0  0  0  0
 10 20  1  0  0  0  0
 11 15  1  0  0  0  0
 11  3  1  1  0  0  0
 13  9  1  0  0  0  0
 13 14  2  0  0  0  0
 14 17  1  0  0  0  0
 16  8  1  0  0  0  0
 17 20  1  0  0  0  0
 17  8  2  0  0  0  0
 18 28  1  0  0  0  0
 18 14  1  0  0  0  0
 19 15  2  0  0  0  0
 20  7  2  0  0  0  0
 21 27  2  0  0  0  0
 21 32  1  0  0  0  0
 23 32  1  0  0  0  0
 25 24  1  0  0  0  0
 25 28  2  0  0  0  0
 26 25  1  0  0  0  0
 26 21  1  0  0  0  0
 29 24  1  0  0  0  0
 29 22  1  1  0  0  0
 29 27  1  0  0  0  0
 30 24  2  0  0  0  0
 32 31  1  0  0  0  0
 33 36  1  0  0  0  0
 33 40  1  0  0  0  0
 33 37  1  0  0  0  0
 34 35  1  0  0  0  0
 35 41  1  1  0  0  0
 35 37  1  0  0  0  0
 37 38  1  1  0  0  0
 39  6  1  6  0  0  0
 39 34  1  0  0  0  0
 39 33  1  0  0  0  0
 41 42  1  6  0  0  0
 42 43  1  0  0  0  0
 44 41  1  0  0  0  0
 44 47  1  1  0  0  0
 47 46  2  0  0  0  0
 47 45  1  0  0  0  0
 49 48  1  1  0  0  0
 49 44  1  0  0  0  0
 50 49  1  0  0  0  0
 51 50  1  0  0  0  0
 53 52  1  0  0  0  0
 53 51  1  0  0  0  0
 54 53  1  0  0  0  0
 55 53  1  0  0  0  0
M  END
>  <MODEL>
3

>  <REMARK>
 VINA RESULT:      -6.9      3.890      5.944
  Name = 
  11 active torsions:
  status: ('A' for Active; 'I' for Inactive)
    1  A    between atoms: C_8  and  C_35
    2  A    between atoms: C_13  and  C_34
    3  A    between atoms: C_16  and  C_34
    4  A    between atoms: C_23  and  C_34
    5  A    between atoms: C_23  and  C_50
    6  A    between atoms: C_23  and  C_53
    7  A    between atoms: C_28  and  N_44
    8  A    between atoms: C_37  and  C_39
    9  A    between atoms: C_37  and  C_47
   10  A    between atoms: C_41  and  C_46
   11  A    between atoms: C_47  and  C_53
                            x       y       z     vdW  Elec       q    Type
                         _______ _______ _______ _____ _____    ______ ____

>  <TORSDO>
F 11

$$$$
=
 OpenBabel11042417543D

 55 59  0  0  1  0  0  0  0  0999 V2000
  191.5820  175.4000  146.4280 C   0  0  0  0  0  3  0  0  0  0  0  0
  192.6910  175.0320  145.6590 C   0  0  0  0  0  3  0  0  0  0  0  0
  192.9960  175.7340  144.4850 C   0  0  0  0  0  0  0  0  0  0  0  0
  191.0610  177.1670  144.8810 C   0  0  0  0  0  3  0  0  0  0  0  0
  192.1690  176.7990  144.1030 C   0  0  0  0  0  3  0  0  0  0  0  0
  190.7710  176.4840  146.0600 C   0  0  0  0  0  0  0  0  0  0  0  0
  194.5270  173.9100  143.8180 C   0  0  0  0  0  3  0  0  0  0  0  0
  196.9130  175.1660  142.3200 C   0  0  0  0  0  0  0  0  0  0  0  0
  195.9450  170.9720  142.2560 C   0  0  0  0  0  2  0  0  0  0  0  0
  195.6360  171.8360  143.3850 N   0  0  0  0  0  0  0  0  0  0  0  0
  194.1940  175.3560  143.6550 C   0  0  2  0  0  3  0  0  0  0  0  0
  195.2280  171.2160  144.6400 C   0  0  0  0  0  1  0  0  0  0  0  0
  196.8290  171.6330  141.2960 N   0  0  0  0  0  0  0  0  0  0  0  0
  197.0220  172.9250  141.1790 C   0  0  0  0  0  0  0  0  0  0  0  0
  195.3600  176.1950  144.0280 C   0  0  0  0  0  3  0  0  0  0  0  0
  197.8840  175.6580  141.4500 O   0  0  0  0  0  1  0  0  0  0  0  0
  196.4340  173.8800  142.1870 C   0  0  0  0  0  0  0  0  0  0  0  0
  197.9410  173.3430  140.1690 N   0  0  0  0  0  2  0  0  0  0  0  0
  196.5440  176.1060  143.4100 C   0  0  0  0  0  3  0  0  0  0  0  0
  195.5070  173.2550  143.1730 C   0  0  0  0  0  0  0  0  0  0  0  0
  195.3870  171.8880  137.0410 C   0  0  0  0  0  0  0  0  0  0  0  0
  195.3340  174.6740  134.6310 C   0  0  0  0  0  1  0  0  0  0  0  0
  194.7020  170.0240  138.5960 C   0  0  0  0  0  1  0  0  0  0  0  0
  196.7800  174.4340  136.7340 C   0  0  0  0  0  0  0  0  0  0  0  0
  197.1840  173.6190  137.8810 C   0  0  0  0  0  0  0  0  0  0  0  0
  197.0780  171.8190  137.6830 S   0  0  0  0  0  0  0  0  0  0  0  0
  195.0670  172.7930  136.1600 N   0  0  0  0  0  0  0  0  0  0  0  0
  197.5510  174.1620  139.0510 C   0  0  0  0  0  3  0  0  0  0  0  0
  196.0360  173.7310  135.6140 C   0  0  1  0  0  3  0  0  0  0  0  0
  197.2550  175.6860  136.5760 C   0  0  0  0  0  2  0  0  0  0  0  0
  193.2130  170.7080  136.7180 C   0  0  0  0  0  1  0  0  0  0  0  0
  194.3810  170.9820  137.5470 N   0  0  0  0  0  0  0  0  0  0  0  0
  188.5230  175.7010  147.0560 C   0  0  0  0  0  0  0  0  0  0  0  0
  188.8920  177.9430  146.3070 O   0  0  0  0  0  0  0  0  0  0  0  0
  187.5180  177.8160  146.5480 C   0  0  2  0  0  3  0  0  0  0  0  0
  188.7920  175.0590  148.2570 F   0  0  0  0  0  0  0  0  0  0  0  0
  187.2230  176.4600  147.1820 C   0  0  1  0  0  3  0  0  0  0  0  0
  186.1410  175.7860  146.5990 O   0  0  0  0  0  1  0  0  0  0  0  0
  189.5340  176.8150  146.8280 C   0  0  2  0  0  3  0  0  0  0  0  0
  188.4970  174.7870  145.9970 F   0  0  0  0  0  0  0  0  0  0  0  0
  186.6960  178.2250  145.3040 C   0  0  2  0  0  3  0  0  0  0  0  0
  185.1800  177.9310  145.3500 C   0  0  0  0  0  2  0  0  0  0  0  0
  184.5250  178.7410  146.2910 O   0  0  0  0  0  1  0  0  0  0  0  0
  187.4080  177.8950  143.9730 C   0  0  2  0  0  3  0  0  0  0  0  0
  187.0340  178.3990  141.5500 O   0  0  0  0  0  0  0  0  0  0  0  0
  186.1030  179.7380  143.1590 O   0  0  0  0  0  1  0  0  0  0  0  0
  186.8050  178.7290  142.8790 C   0  0  0  0  0  0  0  0  0  0  0  0
  186.2870  175.9940  142.6720 C   0  0  0  0  0  1  0  0  0  0  0  0
  187.4130  176.3840  143.6160 C   0  0  1  0  0  3  0  0  0  0  0  0
  188.7330  175.9510  142.9970 C   0  0  0  0  0  2  0  0  0  0  0  0
  188.7610  174.4280  142.8100 C   0  0  0  0  0  2  0  0  0  0  0  0
  190.0460  172.8980  141.4960 F   0  0  0  0  0  0  0  0  0  0  0  0
  190.1580  173.9460  142.3960 C   0  0  0  0  0  0  0  0  0  0  0  0
  190.8410  173.5010  143.5150 F   0  0  0  0  0  0  0  0  0  0  0  0
  190.8600  174.9870  141.8010 F   0  0  0  0  0  0  0  0  0  0  0  0
  2  1  2  0  0  0  0
  3  2  1  0  0  0  0
  4  6  2  0  0  0  0
  5  3  2  0  0  0  0
  5  4  1  0  0  0  0
  6  1  1  0  0  0  0
  8 19  1  0  0  0  0
  9 10  1  0  0  0  0
 10 12  1  0  0  0  0
 11  7  1  0  0  0  0
 11 15  1  0  0  0  0
 11  3  1  1  0  0  0
 13  9  1  0  0  0  0
 14 13  2  0  0  0  0
 14 17  1  0  0  0  0
 16  8  1  0  0  0  0
 17  8  2  0  0  0  0
 17 20  1  0  0  0  0
 18 14  1  0  0  0  0
 19 15  2  0  0  0  0
 20 10  1  0  0  0  0
 20  7  2  0  0  0  0
 21 32  1  0  0  0  0
 21 26  1  0  0  0  0
 24 25  1  0  0  0  0
 25 28  2  0  0  0  0
 26 25  1  0  0  0  0
 27 21  2  0  0  0  0
 28 18  1  0  0  0  0
 29 22  1  1  0  0  0
 29 27  1  0  0  0  0
 29 24  1  0  0  0  0
 30 24  2  0  0  0  0
 31 32  1  0  0  0  0
 32 23  1  0  0  0  0
 33 37  1  0  0  0  0
 33 36  1  0  0  0  0
 34 35  1  0  0  0  0
 34 39  1  0  0  0  0
 35 41  1  6  0  0  0
 35 37  1  0  0  0  0
 37 38  1  6  0  0  0
 39  6  1  6  0  0  0
 39 33  1  0  0  0  0
 40 33  1  0  0  0  0
 41 42  1  6  0  0  0
 42 43  1  0  0  0  0
 44 47  1  6  0  0  0
 44 41  1  0  0  0  0
 45 47  2  0  0  0  0
 47 46  1  0  0  0  0
 49 48  1  6  0  0  0
 49 44  1  0  0  0  0
 50 49  1  0  0  0  0
 51 50  1  0  0  0  0
 52 53  1  0  0  0  0
 53 51  1  0  0  0  0
 53 54  1  0  0  0  0
 55 53  1  0  0  0  0
M  END
>  <MODEL>
4

>  <REMARK>
 VINA RESULT:      -6.6      2.584      5.922
  Name = 
  11 active torsions:
  status: ('A' for Active; 'I' for Inactive)
    1  A    between atoms: C_8  and  C_35
    2  A    between atoms: C_13  and  C_34
    3  A    between atoms: C_16  and  C_34
    4  A    between atoms: C_23  and  C_34
    5  A    between atoms: C_23  and  C_50
    6  A    between atoms: C_23  and  C_53
    7  A    between atoms: C_28  and  N_44
    8  A    between atoms: C_37  and  C_39
    9  A    between atoms: C_37  and  C_47
   10  A    between atoms: C_41  and  C_46
   11  A    between atoms: C_47  and  C_53
                            x       y       z     vdW  Elec       q    Type
                         _______ _______ _______ _____ _____    ______ ____

>  <TORSDO>
F 11

$$$$
=
 OpenBabel11042417543D

 55 59  0  0  1  0  0  0  0  0999 V2000
  192.6560  175.4340  145.5030 C   0  0  0  0  0  3  0  0  0  0  0  0
  193.5940  174.9700  144.5740 C   0  0  0  0  0  3  0  0  0  0  0  0
  193.6790  175.5580  143.3050 C   0  0  0  0  0  0  0  0  0  0  0  0
  191.8720  177.0750  143.9280 C   0  0  0  0  0  3  0  0  0  0  0  0
  192.8070  176.6090  142.9910 C   0  0  0  0  0  3  0  0  0  0  0  0
  191.8030  176.5060  145.1980 C   0  0  0  0  0  0  0  0  0  0  0  0
  195.3570  173.8220  142.7690 C   0  0  0  0  0  3  0  0  0  0  0  0
  196.9820  174.7880  140.3310 C   0  0  0  0  0  0  0  0  0  0  0  0
  196.9490  170.7320  141.7730 C   0  0  0  0  0  2  0  0  0  0  0  0
  196.7460  171.8800  142.6420 N   0  0  0  0  0  0  0  0  0  0  0  0
  194.6920  175.0750  142.3020 C   0  0  2  0  0  3  0  0  0  0  0  0
  196.7960  171.6740  144.0850 C   0  0  0  0  0  1  0  0  0  0  0  0
  197.4130  171.1350  140.4450 N   0  0  0  0  0  0  0  0  0  0  0  0
  197.2900  172.3260  139.9080 C   0  0  0  0  0  0  0  0  0  0  0  0
  195.7060  176.1300  142.0520 C   0  0  0  0  0  3  0  0  0  0  0  0
  197.5840  175.0750  139.1080 O   0  0  0  0  0  1  0  0  0  0  0  0
  196.7720  173.4840  140.7240 C   0  0  0  0  0  0  0  0  0  0  0  0
  197.8250  172.4900  138.5940 N   0  0  0  0  0  2  0  0  0  0  0  0
  196.6960  175.9870  141.1610 C   0  0  0  0  0  3  0  0  0  0  0  0
  196.2680  173.1160  142.0790 C   0  0  0  0  0  0  0  0  0  0  0  0
  194.1180  170.4950  137.7550 C   0  0  0  0  0  0  0  0  0  0  0  0
  193.0980  171.9350  134.5210 C   0  0  0  0  0  1  0  0  0  0  0  0
  194.1280  169.6740  140.1390 C   0  0  0  0  0  1  0  0  0  0  0  0
  195.3110  172.2720  135.7710 C   0  0  0  0  0  0  0  0  0  0  0  0
  196.1520  171.9460  136.9240 C   0  0  0  0  0  0  0  0  0  0  0  0
  195.9170  170.3090  137.6700 S   0  0  0  0  0  0  0  0  0  0  0  0
  193.4720  170.9920  136.7380 N   0  0  0  0  0  0  0  0  0  0  0  0
  197.0090  172.8290  137.4570 C   0  0  0  0  0  3  0  0  0  0  0  0
  194.1320  171.3580  135.4950 C   0  0  1  0  0  3  0  0  0  0  0  0
  195.7050  173.1930  134.8680 C   0  0  0  0  0  2  0  0  0  0  0  0
  191.9880  169.8310  138.8710 C   0  0  0  0  0  1  0  0  0  0  0  0
  193.4090  170.1480  138.9650 N   0  0  0  0  0  0  0  0  0  0  0  0
  189.9600  175.8530  146.8810 C   0  0  0  0  0  0  0  0  0  0  0  0
  189.8540  177.8430  145.5580 O   0  0  0  0  0  0  0  0  0  0  0  0
  188.5980  177.6880  146.1600 C   0  0  2  0  0  3  0  0  0  0  0  0
  190.5750  175.5650  148.0920 F   0  0  0  0  0  0  0  0  0  0  0  0
  188.6350  176.5260  147.1480 C   0  0  1  0  0  3  0  0  0  0  0  0
  187.5460  175.6500  147.0310 O   0  0  0  0  0  1  0  0  0  0  0  0
  190.7390  176.9380  146.1510 C   0  0  2  0  0  3  0  0  0  0  0  0
  189.8160  174.6950  146.1090 F   0  0  0  0  0  0  0  0  0  0  0  0
  187.4710  177.7010  145.1030 C   0  0  2  0  0  3  0  0  0  0  0  0
  186.0970  177.1560  145.5500 C   0  0  0  0  0  2  0  0  0  0  0  0
  185.3530  178.1280  146.2370 O   0  0  0  0  0  1  0  0  0  0  0  0
  187.9490  177.2590  143.7020 C   0  0  2  0  0  3  0  0  0  0  0  0
  186.0870  178.7440  142.9320 O   0  0  0  0  0  1  0  0  0  0  0  0
  187.8700  178.3290  141.5550 O   0  0  0  0  0  0  0  0  0  0  0  0
  187.3100  178.1410  142.6680 C   0  0  0  0  0  0  0  0  0  0  0  0
  186.9420  175.5160  142.1180 C   0  0  0  0  0  1  0  0  0  0  0  0
  187.7200  175.7530  143.4020 C   0  0  1  0  0  3  0  0  0  0  0  0
  189.0300  174.9840  143.3200 C   0  0  0  0  0  2  0  0  0  0  0  0
  189.5090  174.8990  141.8650 C   0  0  0  0  0  2  0  0  0  0  0  0
  191.0960  173.4740  142.9470 F   0  0  0  0  0  0  0  0  0  0  0  0
  190.6070  173.8390  141.7030 C   0  0  0  0  0  0  0  0  0  0  0  0
  191.6460  174.3630  140.9520 F   0  0  0  0  0  0  0  0  0  0  0  0
  190.0900  172.7160  141.0680 F   0  0  0  0  0  0  0  0  0  0  0  0
  2  1  2  0  0  0  0
  3  2  1  0  0  0  0
  4  6  2  0  0  0  0
  5  3  2  0  0  0  0
  5  4  1  0  0  0  0
  6  1  1  0  0  0  0
  8 17  2  0  0  0  0
  8 19  1  0  0  0  0
  9 10  1  0  0  0  0
 10 12  1  0  0  0  0
 11  7  1  0  0  0  0
 11  3  1  1  0  0  0
 13  9  1  0  0  0  0
 14 13  2  0  0  0  0
 14 17  1  0  0  0  0
 15 11  1  0  0  0  0
 16  8  1  0  0  0  0
 17 20  1  0  0  0  0
 18 14  1  0  0  0  0
 19 15  2  0  0  0  0
 20 10  1  0  0  0  0
 20  7  2  0  0  0  0
 21 32  1  0  0  0  0
 24 25  1  0  0  0  0
 25 28  2  0  0  0  0
 25 26  1  0  0  0  0
 26 21  1  0  0  0  0
 27 21  2  0  0  0  0
 28 18  1  0  0  0  0
 29 22  1  6  0  0  0
 29 24  1  0  0  0  0
 29 27  1  0  0  0  0
 30 24  2  0  0  0  0
 31 32  1  0  0  0  0
 32 23  1  0  0  0  0
 33 37  1  0  0  0  0
 33 36  1  0  0  0  0
 34 39  1  0  0  0  0
 34 35  1  0  0  0  0
 35 41  1  6  0  0  0
 35 37  1  0  0  0  0
 37 38  1  6  0  0  0
 39  6  1  6  0  0  0
 39 33  1  0  0  0  0
 40 33  1  0  0  0  0
 41 42  1  1  0  0  0
 42 43  1  0  0  0  0
 44 47  1  6  0  0  0
 44 41  1  0  0  0  0
 46 47  2  0  0  0  0
 47 45  1  0  0  0  0
 49 48  1  6  0  0  0
 49 44  1  0  0  0  0
 50 49  1  0  0  0  0
 51 50  1  0  0  0  0
 53 51  1  0  0  0  0
 53 52  1  0  0  0  0
 54 53  1  0  0  0  0
 55 53  1  0  0  0  0
M  END
>  <MODEL>
5

>  <REMARK>
 VINA RESULT:      -6.6      2.643      5.905
  Name = 
  11 active torsions:
  status: ('A' for Active; 'I' for Inactive)
    1  A    between atoms: C_8  and  C_35
    2  A    between atoms: C_13  and  C_34
    3  A    between atoms: C_16  and  C_34
    4  A    between atoms: C_23  and  C_34
    5  A    between atoms: C_23  and  C_50
    6  A    between atoms: C_23  and  C_53
    7  A    between atoms: C_28  and  N_44
    8  A    between atoms: C_37  and  C_39
    9  A    between atoms: C_37  and  C_47
   10  A    between atoms: C_41  and  C_46
   11  A    between atoms: C_47  and  C_53
                            x       y       z     vdW  Elec       q    Type
                         _______ _______ _______ _____ _____    ______ ____

>  <TORSDO>
F 11

$$$$
=
 OpenBabel11042417543D

 55 59  0  0  1  0  0  0  0  0999 V2000
  187.6490  174.9040  142.4480 C   0  0  0  0  0  3  0  0  0  0  0  0
  188.5920  174.0420  141.8780 C   0  0  0  0  0  3  0  0  0  0  0  0
  188.9300  174.1650  140.5230 C   0  0  0  0  0  0  0  0  0  0  0  0
  187.3620  176.0260  140.3390 C   0  0  0  0  0  3  0  0  0  0  0  0
  188.3030  175.1600  139.7610 C   0  0  0  0  0  3  0  0  0  0  0  0
  187.0430  175.9180  141.6910 C   0  0  0  0  0  0  0  0  0  0  0  0
  190.4880  173.8270  138.6330 C   0  0  0  0  0  3  0  0  0  0  0  0
  191.4830  170.9090  138.7270 C   0  0  0  0  0  0  0  0  0  0  0  0
  193.3310  174.0290  136.4060 C   0  0  0  0  0  2  0  0  0  0  0  0
  191.9110  174.0140  136.7200 N   0  0  0  0  0  0  0  0  0  0  0  0
  189.9520  173.2510  139.9010 C   0  0  2  0  0  3  0  0  0  0  0  0
  191.0350  174.9370  136.0080 C   0  0  0  0  0  1  0  0  0  0  0  0
  193.9710  172.7570  136.7440 N   0  0  0  0  0  0  0  0  0  0  0  0
  193.5130  171.8540  137.5780 C   0  0  0  0  0  0  0  0  0  0  0  0
  189.3540  171.9160  139.6450 C   0  0  0  0  0  3  0  0  0  0  0  0
  192.1280  169.6810  138.8600 O   0  0  0  0  0  1  0  0  0  0  0  0
  192.1330  171.9890  138.1700 C   0  0  0  0  0  0  0  0  0  0  0  0
  194.3110  170.6820  137.7480 N   0  0  0  0  0  2  0  0  0  0  0  0
  190.0570  170.8920  139.1450 C   0  0  0  0  0  3  0  0  0  0  0  0
  191.4490  173.2800  137.8700 C   0  0  0  0  0  0  0  0  0  0  0  0
  196.7660  173.3840  140.0060 C   0  0  0  0  0  0  0  0  0  0  0  0
  197.9360  171.3120  142.8180 C   0  0  0  0  0  1  0  0  0  0  0  0
  195.8060  175.2620  138.6230 C   0  0  0  0  0  1  0  0  0  0  0  0
  196.6140  170.5670  140.7520 C   0  0  0  0  0  0  0  0  0  0  0  0
  196.0040  170.9220  139.4700 C   0  0  0  0  0  0  0  0  0  0  0  0
  196.7570  172.2970  138.5580 S   0  0  0  0  0  0  0  0  0  0  0  0
  197.1370  172.9150  141.1630 N   0  0  0  0  0  0  0  0  0  0  0  0
  194.8990  170.3150  139.0110 C   0  0  0  0  0  3  0  0  0  0  0  0
  197.6080  171.5500  141.3400 C   0  0  1  0  0  3  0  0  0  0  0  0
  196.4780  169.3260  141.2600 C   0  0  0  0  0  2  0  0  0  0  0  0
  196.7640  175.7210  140.8780 C   0  0  0  0  0  1  0  0  0  0  0  0
  196.3070  174.7500  139.8900 N   0  0  0  0  0  0  0  0  0  0  0  0
  186.1190  178.2840  142.1490 C   0  0  0  0  0  0  0  0  0  0  0  0
  185.6980  176.4290  143.6010 O   0  0  0  0  0  0  0  0  0  0  0  0
  185.2630  177.5790  144.2730 C   0  0  2  0  0  3  0  0  0  0  0  0
  185.4950  178.7270  140.9910 F   0  0  0  0  0  0  0  0  0  0  0  0
  185.3510  178.7890  143.3470 C   0  0  1  0  0  3  0  0  0  0  0  0
  185.9450  179.9120  143.9410 O   0  0  0  0  0  1  0  0  0  0  0  0
  185.9680  176.7750  142.2730 C   0  0  2  0  0  3  0  0  0  0  0  0
  187.4590  178.6840  142.1770 F   0  0  0  0  0  0  0  0  0  0  0  0
  185.9210  177.6890  145.6680 C   0  0  2  0  0  3  0  0  0  0  0  0
  185.8640  179.0710  146.3530 C   0  0  0  0  0  2  0  0  0  0  0  0
  185.0870  179.0380  147.5220 O   0  0  0  0  0  1  0  0  0  0  0  0
  187.2720  176.9440  145.7600 C   0  0  2  0  0  3  0  0  0  0  0  0
  186.3160  176.3260  147.9890 O   0  0  0  0  0  1  0  0  0  0  0  0
  188.2120  175.2930  147.2270 O   0  0  0  0  0  0  0  0  0  0  0  0
  187.2970  176.1350  147.0250 C   0  0  0  0  0  0  0  0  0  0  0  0
  189.3440  177.9180  146.9090 C   0  0  0  0  0  1  0  0  0  0  0  0
  188.5130  177.8690  145.6370 C   0  0  1  0  0  3  0  0  0  0  0  0
  189.4180  177.4570  144.4860 C   0  0  0  0  0  2  0  0  0  0  0  0
  190.8550  177.2500  144.9840 C   0  0  0  0  0  2  0  0  0  0  0  0
  191.0210  174.9220  145.5040 F   0  0  0  0  0  0  0  0  0  0  0  0
  191.3930  175.8750  144.5690 C   0  0  0  0  0  0  0  0  0  0  0  0
  192.7760  175.9210  144.5080 F   0  0  0  0  0  0  0  0  0  0  0  0
  190.8810  175.5210  143.3270 F   0  0  0  0  0  0  0  0  0  0  0  0
  2  1  1  0  0  0  0
  3  2  2  0  0  0  0
  4  6  1  0  0  0  0
  5  4  2  0  0  0  0
  5  3  1  0  0  0  0
  6  1  2  0  0  0  0
  7 11  1  0  0  0  0
  8 16  1  0  0  0  0
  8 19  1  0  0  0  0
  9 10  1  0  0  0  0
  9 13  1  0  0  0  0
 10 20  1  0  0  0  0
 11  3  1  6  0  0  0
 12 10  1  0  0  0  0
 13 14  2  0  0  0  0
 14 18  1  0  0  0  0
 14 17  1  0  0  0  0
 15 11  1  0  0  0  0
 17  8  2  0  0  0  0
 18 28  1  0  0  0  0
 19 15  2  0  0  0  0
 20 17  1  0  0  0  0
 20  7  2  0  0  0  0
 21 27  2  0  0  0  0
 23 32  1  0  0  0  0
 24 30  2  0  0  0  0
 24 29  1  0  0  0  0
 25 24  1  0  0  0  0
 26 25  1  0  0  0  0
 26 21  1  0  0  0  0
 27 29  1  0  0  0  0
 28 25  2  0  0  0  0
 29 22  1  1  0  0  0
 32 21  1  0  0  0  0
 32 31  1  0  0  0  0
 33 40  1  0  0  0  0
 33 39  1  0  0  0  0
 33 37  1  0  0  0  0
 34 35  1  0  0  0  0
 35 41  1  1  0  0  0
 36 33  1  0  0  0  0
 37 38  1  1  0  0  0
 37 35  1  0  0  0  0
 39  6  1  1  0  0  0
 39 34  1  0  0  0  0
 41 44  1  0  0  0  0
 41 42  1  6  0  0  0
 42 43  1  0  0  0  0
 44 47  1  1  0  0  0
 47 46  2  0  0  0  0
 47 45  1  0  0  0  0
 49 44  1  0  0  0  0
 49 48  1  1  0  0  0
 50 51  1  0  0  0  0
 50 49  1  0  0  0  0
 53 51  1  0  0  0  0
 53 52  1  0  0  0  0
 54 53  1  0  0  0  0
 55 53  1  0  0  0  0
M  END
>  <MODEL>
6

>  <REMARK>
 VINA RESULT:      -6.5      1.942      2.655
  Name = 
  11 active torsions:
  status: ('A' for Active; 'I' for Inactive)
    1  A    between atoms: C_8  and  C_35
    2  A    between atoms: C_13  and  C_34
    3  A    between atoms: C_16  and  C_34
    4  A    between atoms: C_23  and  C_34
    5  A    between atoms: C_23  and  C_50
    6  A    between atoms: C_23  and  C_53
    7  A    between atoms: C_28  and  N_44
    8  A    between atoms: C_37  and  C_39
    9  A    between atoms: C_37  and  C_47
   10  A    between atoms: C_41  and  C_46
   11  A    between atoms: C_47  and  C_53
                            x       y       z     vdW  Elec       q    Type
                         _______ _______ _______ _____ _____    ______ ____

>  <TORSDO>
F 11

$$$$
=
 OpenBabel11042417543D

 55 59  0  0  1  0  0  0  0  0999 V2000
  192.3610  175.1590  144.9640 C   0  0  0  0  0  3  0  0  0  0  0  0
  193.2700  174.6290  144.0420 C   0  0  0  0  0  3  0  0  0  0  0  0
  193.6090  175.3540  142.8910 C   0  0  0  0  0  0  0  0  0  0  0  0
  192.1100  177.1370  143.6190 C   0  0  0  0  0  3  0  0  0  0  0  0
  193.0170  176.6080  142.6880 C   0  0  0  0  0  3  0  0  0  0  0  0
  191.7920  176.4270  144.7740 C   0  0  0  0  0  0  0  0  0  0  0  0
  195.3780  173.6750  142.4870 C   0  0  0  0  0  3  0  0  0  0  0  0
  196.7800  174.3860  139.8320 C   0  0  0  0  0  0  0  0  0  0  0  0
  197.1380  170.5860  141.8240 C   0  0  0  0  0  2  0  0  0  0  0  0
  196.9000  171.8310  142.5370 N   0  0  0  0  0  0  0  0  0  0  0  0
  194.5950  174.8000  141.8970 C   0  0  2  0  0  3  0  0  0  0  0  0
  197.0510  171.8390  143.9870 C   0  0  0  0  0  1  0  0  0  0  0  0
  197.4910  170.8240  140.4240 N   0  0  0  0  0  0  0  0  0  0  0  0
  197.2460  171.9150  139.7360 C   0  0  0  0  0  0  0  0  0  0  0  0
  195.5090  175.8740  141.4330 C   0  0  0  0  0  3  0  0  0  0  0  0
  197.2850  174.5330  138.5420 O   0  0  0  0  0  1  0  0  0  0  0  0
  196.6920  173.1400  140.4170 C   0  0  0  0  0  0  0  0  0  0  0  0
  197.6890  171.9230  138.3780 N   0  0  0  0  0  2  0  0  0  0  0  0
  196.4530  175.6700  140.5050 C   0  0  0  0  0  3  0  0  0  0  0  0
  196.2980  172.9390  141.8410 C   0  0  0  0  0  0  0  0  0  0  0  0
  194.4350  169.1910  137.7700 C   0  0  0  0  0  0  0  0  0  0  0  0
  193.0390  170.2490  134.5300 C   0  0  0  0  0  1  0  0  0  0  0  0
  194.6900  168.4980  140.1820 C   0  0  0  0  0  1  0  0  0  0  0  0
  195.1790  171.0780  135.6720 C   0  0  0  0  0  0  0  0  0  0  0  0
  196.1060  170.9800  136.8010 C   0  0  0  0  0  0  0  0  0  0  0  0
  196.2310  169.3650  137.6180 S   0  0  0  0  0  0  0  0  0  0  0  0
  193.6680  169.5010  136.7640 N   0  0  0  0  0  0  0  0  0  0  0  0
  196.7850  172.0400  137.2630 C   0  0  0  0  0  3  0  0  0  0  0  0
  194.2000  169.9360  135.4800 C   0  0  1  0  0  3  0  0  0  0  0  0
  195.3490  172.0170  134.7200 C   0  0  0  0  0  2  0  0  0  0  0  0
  192.5210  168.1660  138.9990 C   0  0  0  0  0  1  0  0  0  0  0  0
  193.8510  168.7640  139.0220 N   0  0  0  0  0  0  0  0  0  0  0  0
  190.1250  175.9710  146.6910 C   0  0  0  0  0  0  0  0  0  0  0  0
  189.7480  177.6430  145.0220 O   0  0  0  0  0  0  0  0  0  0  0  0
  188.5520  177.5070  145.7390 C   0  0  2  0  0  3  0  0  0  0  0  0
  190.8370  175.9810  147.8830 F   0  0  0  0  0  0  0  0  0  0  0  0
  188.7600  176.5720  146.9270 C   0  0  1  0  0  3  0  0  0  0  0  0
  187.7550  175.6030  147.0650 O   0  0  0  0  0  1  0  0  0  0  0  0
  190.7500  176.9500  145.7070 C   0  0  2  0  0  3  0  0  0  0  0  0
  190.0460  174.6750  146.1690 F   0  0  0  0  0  0  0  0  0  0  0  0
  187.3660  177.2170  144.7910 C   0  0  2  0  0  3  0  0  0  0  0  0
  187.7170  176.6500  143.3980 C   0  0  0  0  0  2  0  0  0  0  0  0
  187.9660  175.2700  143.4480 O   0  0  0  0  0  1  0  0  0  0  0  0
  186.2850  178.3200  144.8190 C   0  0  2  0  0  3  0  0  0  0  0  0
  185.6330  179.5860  146.8780 O   0  0  0  0  0  1  0  0  0  0  0  0
  185.2370  177.3340  146.7400 O   0  0  0  0  0  0  0  0  0  0  0  0
  185.6830  178.3780  146.1940 C   0  0  0  0  0  0  0  0  0  0  0  0
  183.8440  178.7080  144.1430 C   0  0  0  0  0  1  0  0  0  0  0  0
  185.2010  178.1710  143.7170 C   0  0  1  0  0  3  0  0  0  0  0  0
  185.6070  178.8600  142.4230 C   0  0  0  0  0  2  0  0  0  0  0  0
  185.5400  177.8740  141.2490 C   0  0  0  0  0  2  0  0  0  0  0  0
  184.0470  179.3910  140.1580 F   0  0  0  0  0  0  0  0  0  0  0  0
  184.2420  178.0510  140.4500 C   0  0  0  0  0  0  0  0  0  0  0  0
  183.1720  177.6000  141.2050 F   0  0  0  0  0  0  0  0  0  0  0  0
  184.3150  177.3310  139.2640 F   0  0  0  0  0  0  0  0  0  0  0  0
  2  1  2  0  0  0  0
  3  2  1  0  0  0  0
  4  6  2  0  0  0  0
  5  3  2  0  0  0  0
  5  4  1  0  0  0  0
  6  1  1  0  0  0  0
  8 17  2  0  0  0  0
  8 19  1  0  0  0  0
  9 10  1  0  0  0  0
 10 12  1  0  0  0  0
 11  7  1  0  0  0  0
 11  3  1  1  0  0  0
 13  9  1  0  0  0  0
 14 17  1  0  0  0  0
 14 13  2  0  0  0  0
 15 11  1  0  0  0  0
 16  8  1  0  0  0  0
 17 20  1  0  0  0  0
 18 14  1  0  0  0  0
 19 15  2  0  0  0  0
 20  7  2  0  0  0  0
 20 10  1  0  0  0  0
 21 32  1  0  0  0  0
 24 25  1  0  0  0  0
 25 28  2  0  0  0  0
 25 26  1  0  0  0  0
 26 21  1  0  0  0  0
 27 21  2  0  0  0  0
 28 18  1  0  0  0  0
 29 22  1  6  0  0  0
 29 24  1  0  0  0  0
 29 27  1  0  0  0  0
 30 24  2  0  0  0  0
 31 32  1  0  0  0  0
 32 23  1  0  0  0  0
 33 37  1  0  0  0  0
 33 36  1  0  0  0  0
 34 39  1  0  0  0  0
 34 35  1  0  0  0  0
 35 41  1  6  0  0  0
 35 37  1  0  0  0  0
 37 38  1  6  0  0  0
 39  6  1  6  0  0  0
 39 33  1  0  0  0  0
 40 33  1  0  0  0  0
 41 42  1  6  0  0  0
 41 44  1  0  0  0  0
 42 43  1  0  0  0  0
 44 47  1  1  0  0  0
 47 46  2  0  0  0  0
 47 45  1  0  0  0  0
 49 48  1  1  0  0  0
 49 44  1  0  0  0  0
 50 49  1  0  0  0  0
 51 50  1  0  0  0  0
 52 53  1  0  0  0  0
 53 54  1  0  0  0  0
 53 51  1  0  0  0  0
 55 53  1  0  0  0  0
M  END
>  <MODEL>
7

>  <REMARK>
 VINA RESULT:      -6.0      2.805      6.251
  Name = 
  11 active torsions:
  status: ('A' for Active; 'I' for Inactive)
    1  A    between atoms: C_8  and  C_35
    2  A    between atoms: C_13  and  C_34
    3  A    between atoms: C_16  and  C_34
    4  A    between atoms: C_23  and  C_34
    5  A    between atoms: C_23  and  C_50
    6  A    between atoms: C_23  and  C_53
    7  A    between atoms: C_28  and  N_44
    8  A    between atoms: C_37  and  C_39
    9  A    between atoms: C_37  and  C_47
   10  A    between atoms: C_41  and  C_46
   11  A    between atoms: C_47  and  C_53
                            x       y       z     vdW  Elec       q    Type
                         _______ _______ _______ _____ _____    ______ ____

>  <TORSDO>
F 11

$$$$
=
 OpenBabel11042417543D

 55 59  0  0  1  0  0  0  0  0999 V2000
  190.9130  176.0790  144.5870 C   0  0  0  0  0  3  0  0  0  0  0  0
  191.9720  175.8540  143.7010 C   0  0  0  0  0  3  0  0  0  0  0  0
  193.2520  175.5650  144.1930 C   0  0  0  0  0  0  0  0  0  0  0  0
  192.3750  175.7320  146.4650 C   0  0  0  0  0  3  0  0  0  0  0  0
  193.4420  175.5110  145.5810 C   0  0  0  0  0  3  0  0  0  0  0  0
  191.0990  175.9960  145.9750 C   0  0  0  0  0  0  0  0  0  0  0  0
  194.7890  173.8700  143.2560 C   0  0  0  0  0  3  0  0  0  0  0  0
  197.0150  175.3480  141.7150 C   0  0  0  0  0  0  0  0  0  0  0  0
  196.1840  171.1420  141.3350 C   0  0  0  0  0  2  0  0  0  0  0  0
  195.9310  171.8890  142.5580 N   0  0  0  0  0  0  0  0  0  0  0  0
  194.3970  175.3100  143.2500 C   0  0  2  0  0  3  0  0  0  0  0  0
  195.6370  171.1440  143.7760 C   0  0  0  0  0  1  0  0  0  0  0  0
  196.9730  171.9200  140.3800 N   0  0  0  0  0  0  0  0  0  0  0  0
  197.1140  173.2250  140.3690 C   0  0  0  0  0  0  0  0  0  0  0  0
  195.5580  176.1590  143.6160 C   0  0  0  0  0  3  0  0  0  0  0  0
  197.9020  175.9540  140.8280 O   0  0  0  0  0  1  0  0  0  0  0  0
  196.5700  174.0620  141.4990 C   0  0  0  0  0  0  0  0  0  0  0  0
  197.9410  173.7660  139.3390 N   0  0  0  0  0  2  0  0  0  0  0  0
  196.6960  176.1730  142.9100 C   0  0  0  0  0  3  0  0  0  0  0  0
  195.7390  173.3140  142.4870 C   0  0  0  0  0  0  0  0  0  0  0  0
  194.3940  172.9310  137.0720 C   0  0  0  0  0  0  0  0  0  0  0  0
  194.2710  175.6990  134.6450 C   0  0  0  0  0  1  0  0  0  0  0  0
  193.7820  171.2310  138.8320 C   0  0  0  0  0  1  0  0  0  0  0  0
  196.1490  175.1280  136.2940 C   0  0  0  0  0  0  0  0  0  0  0  0
  196.6690  174.2300  137.3260 C   0  0  0  0  0  0  0  0  0  0  0  0
  196.1420  172.4960  137.2410 S   0  0  0  0  0  0  0  0  0  0  0  0
  194.0430  173.8950  136.2690 N   0  0  0  0  0  0  0  0  0  0  0  0
  197.4430  174.6660  138.3310 C   0  0  0  0  0  3  0  0  0  0  0  0
  195.0020  174.6150  135.4450 C   0  0  1  0  0  3  0  0  0  0  0  0
  196.8120  176.2540  135.9610 C   0  0  0  0  0  2  0  0  0  0  0  0
  192.0170  172.2420  137.3920 C   0  0  0  0  0  1  0  0  0  0  0  0
  193.3960  172.2500  137.8670 N   0  0  0  0  0  0  0  0  0  0  0  0
  188.8300  175.3530  147.0250 C   0  0  0  0  0  0  0  0  0  0  0  0
  189.5100  177.6250  146.7110 O   0  0  0  0  0  0  0  0  0  0  0  0
  188.1550  177.6520  147.0670 C   0  0  2  0  0  3  0  0  0  0  0  0
  189.0760  174.4330  148.0340 F   0  0  0  0  0  0  0  0  0  0  0  0
  187.6870  176.2480  147.4400 C   0  0  1  0  0  3  0  0  0  0  0  0
  186.4680  175.8840  146.8510 O   0  0  0  0  0  1  0  0  0  0  0  0
  189.9920  176.3300  146.9210 C   0  0  2  0  0  3  0  0  0  0  0  0
  188.5760  174.7050  145.8110 F   0  0  0  0  0  0  0  0  0  0  0  0
  187.3240  178.4370  146.0270 C   0  0  2  0  0  3  0  0  0  0  0  0
  186.3090  179.4600  146.5830 C   0  0  0  0  0  2  0  0  0  0  0  0
  185.4740  178.8860  147.5540 O   0  0  0  0  0  1  0  0  0  0  0  0
  186.8250  177.5550  144.8610 C   0  0  2  0  0  3  0  0  0  0  0  0
  188.1700  176.0710  143.3600 O   0  0  0  0  0  0  0  0  0  0  0  0
  188.7260  178.2810  143.5890 O   0  0  0  0  0  1  0  0  0  0  0  0
  187.9570  177.3330  143.8990 C   0  0  0  0  0  0  0  0  0  0  0  0
  185.7020  179.5560  143.7210 C   0  0  0  0  0  1  0  0  0  0  0  0
  185.5580  178.1050  144.1500 C   0  0  1  0  0  3  0  0  0  0  0  0
  185.1860  177.2760  142.9310 C   0  0  0  0  0  2  0  0  0  0  0  0
  185.3290  178.1120  141.6520 C   0  0  0  0  0  2  0  0  0  0  0  0
  185.7290  177.3920  139.4070 F   0  0  0  0  0  0  0  0  0  0  0  0
  186.3040  177.4560  140.6660 C   0  0  0  0  0  0  0  0  0  0  0  0
  186.5900  176.1690  141.0900 F   0  0  0  0  0  0  0  0  0  0  0  0
  187.4770  178.1970  140.5960 F   0  0  0  0  0  0  0  0  0  0  0  0
  1  6  1  0  0  0  0
  2  3  1  0  0  0  0
  2  1  2  0  0  0  0
  3  5  2  0  0  0  0
  5  4  1  0  0  0  0
  6  4  2  0  0  0  0
  8 19  1  0  0  0  0
  9 10  1  0  0  0  0
 10 12  1  0  0  0  0
 11  7  1  0  0  0  0
 11 15  1  0  0  0  0
 11  3  1  1  0  0  0
 13  9  1  0  0  0  0
 14 13  2  0  0  0  0
 14 17  1  0  0  0  0
 16  8  1  0  0  0  0
 17  8  2  0  0  0  0
 17 20  1  0  0  0  0
 18 14  1  0  0  0  0
 19 15  2  0  0  0  0
 20 10  1  0  0  0  0
 20  7  2  0  0  0  0
 21 26  1  0  0  0  0
 21 32  1  0  0  0  0
 24 25  1  0  0  0  0
 25 28  2  0  0  0  0
 26 25  1  0  0  0  0
 27 21  2  0  0  0  0
 28 18  1  0  0  0  0
 29 22  1  1  0  0  0
 29 27  1  0  0  0  0
 29 24  1  0  0  0  0
 30 24  2  0  0  0  0
 31 32  1  0  0  0  0
 32 23  1  0  0  0  0
 33 37  1  0  0  0  0
 33 36  1  0  0  0  0
 34 39  1  0  0  0  0
 34 35  1  0  0  0  0
 35 41  1  6  0  0  0
 35 37  1  0  0  0  0
 37 38  1  6  0  0  0
 39  6  1  6  0  0  0
 39 33  1  0  0  0  0
 40 33  1  0  0  0  0
 41 42  1  1  0  0  0
 42 43  1  0  0  0  0
 44 47  1  6  0  0  0
 44 41  1  0  0  0  0
 45 47  2  0  0  0  0
 46 47  1  0  0  0  0
 49 48  1  6  0  0  0
 49 44  1  0  0  0  0
 50 49  1  0  0  0  0
 51 50  1  0  0  0  0
 52 53  1  0  0  0  0
 53 54  1  0  0  0  0
 53 51  1  0  0  0  0
 55 53  1  0  0  0  0
M  END
>  <MODEL>
8

>  <REMARK>
 VINA RESULT:      -5.6      2.719      6.216
  Name = 
  11 active torsions:
  status: ('A' for Active; 'I' for Inactive)
    1  A    between atoms: C_8  and  C_35
    2  A    between atoms: C_13  and  C_34
    3  A    between atoms: C_16  and  C_34
    4  A    between atoms: C_23  and  C_34
    5  A    between atoms: C_23  and  C_50
    6  A    between atoms: C_23  and  C_53
    7  A    between atoms: C_28  and  N_44
    8  A    between atoms: C_37  and  C_39
    9  A    between atoms: C_37  and  C_47
   10  A    between atoms: C_41  and  C_46
   11  A    between atoms: C_47  and  C_53
                            x       y       z     vdW  Elec       q    Type
                         _______ _______ _______ _____ _____    ______ ____

>  <TORSDO>
F 11

$$$$
=
 OpenBabel11042417543D

 55 59  0  0  1  0  0  0  0  0999 V2000
  190.5490  171.5540  138.6590 C   0  0  0  0  0  3  0  0  0  0  0  0
  190.3680  171.8070  140.0220 C   0  0  0  0  0  3  0  0  0  0  0  0
  190.8990  172.9680  140.6000 C   0  0  0  0  0  0  0  0  0  0  0  0
  191.7870  173.6020  138.4170 C   0  0  0  0  0  3  0  0  0  0  0  0
  191.6130  173.8580  139.7850 C   0  0  0  0  0  3  0  0  0  0  0  0
  191.2390  172.4600  137.8390 C   0  0  0  0  0  0  0  0  0  0  0  0
  191.8560  174.0170  142.6240 C   0  0  0  0  0  3  0  0  0  0  0  0
  190.1750  173.1200  145.0500 C   0  0  0  0  0  0  0  0  0  0  0  0
  192.9360  176.4210  145.1010 C   0  0  0  0  0  2  0  0  0  0  0  0
  193.1070  175.2630  144.2370 N   0  0  0  0  0  0  0  0  0  0  0  0
  190.7000  173.2570  142.0640 C   0  0  2  0  0  3  0  0  0  0  0  0
  194.3860  175.0870  143.5610 C   0  0  0  0  0  1  0  0  0  0  0  0
  191.8900  176.2010  146.0990 N   0  0  0  0  0  0  0  0  0  0  0  0
  190.9300  175.3080  146.0350 C   0  0  0  0  0  0  0  0  0  0  0  0
  190.5090  171.9900  142.8130 C   0  0  0  0  0  3  0  0  0  0  0  0
  189.3190  172.9260  146.1310 O   0  0  0  0  0  1  0  0  0  0  0  0
  190.9210  174.2730  144.9390 C   0  0  0  0  0  0  0  0  0  0  0  0
  190.0210  175.2720  147.1350 N   0  0  0  0  0  2  0  0  0  0  0  0
  190.2580  171.9570  144.1280 C   0  0  0  0  0  3  0  0  0  0  0  0
  191.9570  174.4700  143.8850 C   0  0  0  0  0  0  0  0  0  0  0  0
  188.4900  177.8880  144.0960 C   0  0  0  0  0  0  0  0  0  0  0  0
  184.8940  178.0730  144.8740 C   0  0  0  0  0  1  0  0  0  0  0  0
  190.6930  177.6290  142.8960 C   0  0  0  0  0  1  0  0  0  0  0  0
  186.7520  176.9670  146.2520 C   0  0  0  0  0  0  0  0  0  0  0  0
  188.1770  176.6720  146.4100 C   0  0  0  0  0  0  0  0  0  0  0  0
  189.3430  177.8620  145.6930 S   0  0  0  0  0  0  0  0  0  0  0  0
  187.1890  177.9480  144.0600 N   0  0  0  0  0  0  0  0  0  0  0  0
  188.6140  175.5460  146.9930 C   0  0  0  0  0  3  0  0  0  0  0  0
  186.3770  178.0540  145.2620 C   0  0  1  0  0  3  0  0  0  0  0  0
  185.8440  176.4650  147.1130 C   0  0  0  0  0  2  0  0  0  0  0  0
  188.6440  178.2890  141.6390 C   0  0  0  0  0  1  0  0  0  0  0  0
  189.2450  177.7850  142.8680 N   0  0  0  0  0  0  0  0  0  0  0  0
  191.4220  170.6890  135.9710 C   0  0  0  0  0  0  0  0  0  0  0  0
  192.7320  172.6910  135.9850 O   0  0  0  0  0  0  0  0  0  0  0  0
  193.2590  171.8670  134.9810 C   0  0  2  0  0  3  0  0  0  0  0  0
  190.1380  170.4130  135.5210 F   0  0  0  0  0  0  0  0  0  0  0  0
  192.3770  170.6350  134.8020 C   0  0  1  0  0  3  0  0  0  0  0  0
  193.0940  169.4320  134.7390 O   0  0  0  0  0  1  0  0  0  0  0  0
  191.5160  172.1440  136.4060 C   0  0  2  0  0  3  0  0  0  0  0  0
  191.7920  169.8070  136.9920 F   0  0  0  0  0  0  0  0  0  0  0  0
  194.7750  171.6450  135.1850 C   0  0  2  0  0  3  0  0  0  0  0  0
  195.2430  170.1850  135.3640 C   0  0  0  0  0  2  0  0  0  0  0  0
  196.3740  169.9040  134.5830 O   0  0  0  0  0  1  0  0  0  0  0  0
  195.4160  172.6820  136.1350 C   0  0  2  0  0  3  0  0  0  0  0  0
  197.2990  173.0000  134.5160 O   0  0  0  0  0  0  0  0  0  0  0  0
  196.2520  174.8190  135.4330 O   0  0  0  0  0  1  0  0  0  0  0  0
  196.3360  173.5650  135.3420 C   0  0  0  0  0  0  0  0  0  0  0  0
  197.5230  172.6170  137.5910 C   0  0  0  0  0  1  0  0  0  0  0  0
  196.1280  172.0560  137.3650 C   0  0  1  0  0  3  0  0  0  0  0  0
  195.3220  172.2390  138.6420 C   0  0  0  0  0  2  0  0  0  0  0  0
  194.3760  171.0490  138.8510 C   0  0  0  0  0  2  0  0  0  0  0  0
  195.3430  170.1580  140.8490 F   0  0  0  0  0  0  0  0  0  0  0  0
  194.1930  170.7420  140.3430 C   0  0  0  0  0  0  0  0  0  0  0  0
  193.1380  169.8600  140.5050 F   0  0  0  0  0  0  0  0  0  0  0  0
  193.9320  171.9160  141.0400 F   0  0  0  0  0  0  0  0  0  0  0  0
  1  2  1  0  0  0  0
  2  3  2  0  0  0  0
  4  5  2  0  0  0  0
  5  3  1  0  0  0  0
  6  4  1  0  0  0  0
  6  1  2  0  0  0  0
  7 20  2  0  0  0  0
  8 16  1  0  0  0  0
  9 13  1  0  0  0  0
 10  9  1  0  0  0  0
 11  3  1  6  0  0  0
 11  7  1  0  0  0  0
 11 15  1  0  0  0  0
 12 10  1  0  0  0  0
 14 13  2  0  0  0  0
 14 18  1  0  0  0  0
 15 19  2  0  0  0  0
 17  8  2  0  0  0  0
 17 14  1  0  0  0  0
 19  8  1  0  0  0  0
 20 10  1  0  0  0  0
 20 17  1  0  0  0  0
 21 26  1  0  0  0  0
 24 25  1  0  0  0  0
 24 30  2  0  0  0  0
 25 28  2  0  0  0  0
 26 25  1  0  0  0  0
 27 21  2  0  0  0  0
 27 29  1  0  0  0  0
 28 18  1  0  0  0  0
 29 22  1  6  0  0  0
 29 24  1  0  0  0  0
 31 32  1  0  0  0  0
 32 23  1  0  0  0  0
 32 21  1  0  0  0  0
 33 39  1  0  0  0  0
 33 40  1  0  0  0  0
 34 39  1  0  0  0  0
 35 41  1  1  0  0  0
 35 34  1  0  0  0  0
 36 33  1  0  0  0  0
 37 38  1  1  0  0  0
 37 35  1  0  0  0  0
 37 33  1  0  0  0  0
 39  6  1  1  0  0  0
 41 42  1  1  0  0  0
 41 44  1  0  0  0  0
 43 42  1  0  0  0  0
 44 47  1  6  0  0  0
 44 49  1  0  0  0  0
 45 47  2  0  0  0  0
 47 46  1  0  0  0  0
 49 48  1  1  0  0  0
 49 50  1  0  0  0  0
 50 51  1  0  0  0  0
 51 53  1  0  0  0  0
 53 54  1  0  0  0  0
 53 52  1  0  0  0  0
 53 55  1  0  0  0  0
M  END
>  <MODEL>
9

>  <REMARK>
 VINA RESULT:      -5.6      4.556     10.175
  Name = 
  11 active torsions:
  status: ('A' for Active; 'I' for Inactive)
    1  A    between atoms: C_8  and  C_35
    2  A    between atoms: C_13  and  C_34
    3  A    between atoms: C_16  and  C_34
    4  A    between atoms: C_23  and  C_34
    5  A    between atoms: C_23  and  C_50
    6  A    between atoms: C_23  and  C_53
    7  A    between atoms: C_28  and  N_44
    8  A    between atoms: C_37  and  C_39
    9  A    between atoms: C_37  and  C_47
   10  A    between atoms: C_41  and  C_46
   11  A    between atoms: C_47  and  C_53
                            x       y       z     vdW  Elec       q    Type
                         _______ _______ _______ _____ _____    ______ ____

>  <TORSDO>
F 11

$$$$
