=
 OpenBabel11042415123D

 45 50  0  0  1  0  0  0  0  0999 V2000
  188.6690  175.7900  142.5800 C   0  0  2  0  0  3  0  0  0  0  0  0
  189.7650  176.4180  144.7600 C   0  0  2  0  0  3  0  0  0  0  0  0
  187.4860  177.3160  144.4320 C   0  0  1  0  0  3  0  0  0  0  0  0
  188.2940  176.1490  145.0240 C   0  0  1  0  0  3  0  0  0  0  0  0
  186.7020  176.9730  143.2170 N   0  0  0  0  0  0  0  0  0  0  0  0
  189.0560  175.3340  143.9770 C   0  0  1  0  0  3  0  0  0  0  0  0
  187.2100  175.8440  142.5170 N   0  0  0  0  0  2  0  0  0  0  0  0
  186.6260  177.9840  145.5040 C   0  0  0  0  0  3  0  0  0  0  0  0
  185.9570  177.8070  147.9580 C   0  0  0  0  0  2  0  0  0  0  0  0
  185.0160  178.8150  147.4920 N   0  0  0  0  0  2  0  0  0  0  0  0
  185.1420  177.7280  145.2480 C   0  0  0  0  0  2  0  0  0  0  0  0
  187.0630  177.5960  146.9270 C   0  0  0  0  0  2  0  0  0  0  0  0
  184.2480  178.2290  146.3940 C   0  0  0  0  0  2  0  0  0  0  0  0
  186.7680  178.0290  142.3660 O   0  0  0  0  0  0  0  0  0  0  0  0
  186.0890  177.6150  141.2180 C   0  0  0  0  0  2  0  0  0  0  0  0
  186.8800  177.8400  140.0920 O   0  0  0  0  0  0  0  0  0  0  0  0
  186.3170  177.0570  139.0800 C   0  0  0  0  0  1  0  0  0  0  0  0
  189.1960  174.7980  141.5620 C   0  0  0  0  0  2  0  0  0  0  0  0
  189.7830  173.5810  142.2580 C   0  0  0  0  0  2  0  0  0  0  0  0
  191.1040  172.7250  140.2880 C   0  0  0  0  0  2  0  0  0  0  0  0
  191.6150  171.3400  139.9590 C   0  0  0  0  0  2  0  0  0  0  0  0
  190.9540  170.3890  140.8610 N   0  0  2  0  0  0  0  0  0  0  0  0
  190.2760  171.1330  141.8620 N   0  0  1  0  0  0  0  0  0  0  0  0
  192.0030  169.6110  141.5160 C   0  0  0  0  0  2  0  0  0  0  0  0
  191.1840  171.2400  143.0080 C   0  0  0  0  0  2  0  0  0  0  0  0
  192.0480  170.0180  142.9670 C   0  0  0  0  0  2  0  0  0  0  0  0
  189.9910  172.4400  141.2540 C   0  0  1  0  0  3  0  0  0  0  0  0
  190.6160  175.7590  145.8320 C   0  0  0  0  0  2  0  0  0  0  0  0
  192.0700  176.0760  145.6630 C   0  0  0  0  0  0  0  0  0  0  0  0
  192.6240  175.8690  144.5000 C   0  0  0  0  0  0  0  0  0  0  0  0
  193.1670  175.6490  143.3410 C   0  0  0  0  0  3  0  0  0  0  0  0
  194.1030  176.9420  146.5460 O   0  0  0  0  0  1  0  0  0  0  0  0
  192.8580  176.4950  146.7410 O   0  0  0  0  0  0  0  0  0  0  0  0
  194.5790  176.0340  143.0840 C   0  0  0  0  0  2  0  0  0  0  0  0
  195.4140  174.8400  143.1520 N   0  0  0  0  0  2  0  0  0  0  0  0
  196.3750  175.0520  144.2370 C   0  0  2  0  0  3  0  0  0  0  0  0
  197.7600  174.7350  143.7600 C   0  0  0  0  0  3  0  0  0  0  0  0
  197.9320  174.2310  142.6610 O   0  0  0  0  0  0  0  0  0  0  0  0
  196.0070  174.2480  145.4990 C   0  0  0  0  0  2  0  0  0  0  0  0
  194.3740  170.7730  145.4990 C   0  0  0  0  0  2  0  0  0  0  0  0
  196.5490  170.4490  145.9700 C   0  0  0  0  0  2  0  0  0  0  0  0
  195.2470  170.2140  146.4430 O   0  0  0  0  0  0  0  0  0  0  0  0
  196.8780  171.9370  146.0910 C   0  0  0  0  0  2  0  0  0  0  0  0
  195.8730  172.7440  145.2650 C   0  0  0  0  0  3  0  0  0  0  0  0
  194.4390  172.2990  145.5680 C   0  0  0  0  0  2  0  0  0  0  0  0
  1 18  1  6  0  0  0
  1  6  1  0  0  0  0
  2  4  1  0  0  0  0
  2 28  1  1  0  0  0
  3  4  1  0  0  0  0
  3  8  1  1  0  0  0
  5  3  1  0  0  0  0
  6  2  1  0  0  0  0
  6  4  1  0  0  0  0
  7  1  1  0  0  0  0
  7  5  1  0  0  0  0
  8 12  1  0  0  0  0
 10  9  1  0  0  0  0
 11  8  1  0  0  0  0
 11 13  1  0  0  0  0
 12  9  1  0  0  0  0
 13 10  1  0  0  0  0
 14  5  1  0  0  0  0
 15 14  1  0  0  0  0
 16 15  1  0  0  0  0
 17 16  1  0  0  0  0
 18 19  1  0  0  0  0
 20 27  1  0  0  0  0
 21 20  1  0  0  0  0
 21 22  1  0  0  0  0
 22 24  1  0  0  0  0
 22 23  1  0  0  0  0
 23 25  1  0  0  0  0
 24 26  1  0  0  0  0
 26 25  1  0  0  0  0
 27 23  1  0  0  0  0
 27 19  1  0  0  0  0
 29 28  1  0  0  0  0
 29 33  1  0  0  0  0
 30 29  2  0  0  0  0
 31 30  2  0  0  0  0
 32 33  1  0  0  0  0
 34 35  1  0  0  0  0
 34 31  1  0  0  0  0
 35 36  1  0  0  0  0
 36 39  1  0  0  0  0
 37 36  1  0  0  0  0
 38 37  2  0  0  0  0
 40 45  1  0  0  0  0
 40 42  1  0  0  0  0
 41 43  1  0  0  0  0
 41 42  1  0  0  0  0
 44 39  1  0  0  0  0
 44 45  1  0  0  0  0
 44 43  1  0  0  0  0
M  END
>  <MODEL>
1

>  <REMARK>
 VINA RESULT:      -6.7      0.000      0.000
  Name = 
  16 active torsions:
  status: ('A' for Active; 'I' for Inactive)
    1  A    between atoms: C_1  and  O_23
    2  A    between atoms: C_1  and  C_28
    3  A    between atoms: C_4  and  CA_5
    4  A    between atoms: CA_5  and  C_21
    5  A    between atoms: CA_5  and  N_45
    6  A    between atoms: C_6  and  C_25
    7  A    between atoms: O_7  and  C_10
    8  A    between atoms: O_7  and  N_34
    9  A    between atoms: C_10  and  O_14
   10  A    between atoms: C_12  and  C_22
   11  A    between atoms: C_17  and  C_28
   12  A    between atoms: C_18  and  C_22
   13  A    between atoms: C_18  and  C_41
   14  A    between atoms: C_21  and  C_29
   15  A    between atoms: C_35  and  C_37
   16  A    between atoms: C_37  and  N_45
                            x       y       z     vdW  Elec       q    Type
                         _______ _______ _______ _____ _____    ______ ____

>  <TORSDO>
F 16

$$$$
=
 OpenBabel11042415123D

 45 50  0  0  1  0  0  0  0  0999 V2000
  190.0570  176.0600  146.3850 C   0  0  2  0  0  3  0  0  0  0  0  0
  189.7050  175.1980  144.0440 C   0  0  2  0  0  3  0  0  0  0  0  0
  187.8180  176.4880  144.9850 C   0  0  1  0  0  3  0  0  0  0  0  0
  189.0980  176.5880  144.1390 C   0  0  1  0  0  3  0  0  0  0  0  0
  187.9170  177.1040  146.3330 N   0  0  0  0  0  0  0  0  0  0  0  0
  190.3740  176.2440  144.9100 C   0  0  1  0  0  3  0  0  0  0  0  0
  189.2520  177.2020  146.8140 N   0  0  0  0  0  2  0  0  0  0  0  0
  186.6070  176.9970  144.2040 C   0  0  0  0  0  3  0  0  0  0  0  0
  185.6640  177.2030  141.8430 C   0  0  0  0  0  2  0  0  0  0  0  0
  184.7230  178.0290  142.5850 N   0  0  0  0  0  2  0  0  0  0  0  0
  186.5850  178.5250  144.1720 C   0  0  0  0  0  2  0  0  0  0  0  0
  186.5090  176.3690  142.8030 C   0  0  0  0  0  2  0  0  0  0  0  0
  185.4870  179.0820  143.2520 C   0  0  0  0  0  2  0  0  0  0  0  0
  187.2390  176.3130  147.2040 O   0  0  0  0  0  0  0  0  0  0  0  0
  186.0500  176.9970  147.4670 C   0  0  0  0  0  2  0  0  0  0  0  0
  186.3310  178.3000  147.8730 O   0  0  0  0  0  0  0  0  0  0  0  0
  185.2490  179.0690  147.4330 C   0  0  0  0  0  1  0  0  0  0  0  0
  191.3490  176.0100  147.1760 C   0  0  0  0  0  2  0  0  0  0  0  0
  192.5300  176.3700  146.2910 C   0  0  0  0  0  2  0  0  0  0  0  0
  193.3410  174.0460  145.7390 C   0  0  0  0  0  2  0  0  0  0  0  0
  194.7160  173.5320  145.3770 C   0  0  0  0  0  2  0  0  0  0  0  0
  195.6890  174.5900  145.6830 N   0  0  2  0  0  0  0  0  0  0  0  0
  194.9670  175.7780  145.9700 N   0  0  1  0  0  0  0  0  0  0  0  0
  196.4730  174.8220  144.4730 C   0  0  0  0  0  2  0  0  0  0  0  0
  194.8780  176.5390  144.7190 C   0  0  0  0  0  2  0  0  0  0  0  0
  196.0930  176.1750  143.9250 C   0  0  0  0  0  2  0  0  0  0  0  0
  193.6500  175.3340  146.4460 C   0  0  1  0  0  3  0  0  0  0  0  0
  190.4970  175.0630  142.7550 C   0  0  0  0  0  2  0  0  0  0  0  0
  190.0930  173.8480  141.9770 C   0  0  0  0  0  0  0  0  0  0  0  0
  189.3630  174.0040  140.9070 C   0  0  0  0  0  0  0  0  0  0  0  0
  188.6260  174.1710  139.8500 C   0  0  0  0  0  3  0  0  0  0  0  0
  189.4570  171.7740  142.9540 O   0  0  0  0  0  1  0  0  0  0  0  0
  190.4010  172.5580  142.4230 O   0  0  0  0  0  0  0  0  0  0  0  0
  188.2770  173.0160  138.9840 C   0  0  0  0  0  2  0  0  0  0  0  0
  189.2510  171.9510  139.2020 N   0  0  0  0  0  2  0  0  0  0  0  0
  190.1290  171.9290  138.0310 C   0  0  2  0  0  3  0  0  0  0  0  0
  189.8030  170.7430  137.1720 C   0  0  0  0  0  3  0  0  0  0  0  0
  189.7490  169.6250  137.6620 O   0  0  0  0  0  0  0  0  0  0  0  0
  191.6180  171.9580  138.4250 C   0  0  0  0  0  2  0  0  0  0  0  0
  193.6190  175.1350  137.6250 C   0  0  0  0  0  2  0  0  0  0  0  0
  193.8030  174.8150  139.8440 C   0  0  0  0  0  2  0  0  0  0  0  0
  194.5480  174.9740  138.6630 O   0  0  0  0  0  0  0  0  0  0  0  0
  193.1140  173.4500  139.8340 C   0  0  0  0  0  2  0  0  0  0  0  0
  192.1860  173.3630  138.6200 C   0  0  0  0  0  3  0  0  0  0  0  0
  192.9130  173.8080  137.3470 C   0  0  0  0  0  2  0  0  0  0  0  0
  1  7  1  0  0  0  0
  1 18  1  1  0  0  0
  2 28  1  6  0  0  0
  2  4  1  0  0  0  0
  2  6  1  0  0  0  0
  3  8  1  6  0  0  0
  3  5  1  0  0  0  0
  4  6  1  0  0  0  0
  4  3  1  0  0  0  0
  5  7  1  0  0  0  0
  5 14  1  0  0  0  0
  6  1  1  0  0  0  0
  9 10  1  0  0  0  0
  9 12  1  0  0  0  0
 10 13  1  0  0  0  0
 11  8  1  0  0  0  0
 12  8  1  0  0  0  0
 13 11  1  0  0  0  0
 14 15  1  0  0  0  0
 15 16  1  0  0  0  0
 17 16  1  0  0  0  0
 19 27  1  0  0  0  0
 19 18  1  0  0  0  0
 20 27  1  0  0  0  0
 21 22  1  0  0  0  0
 21 20  1  0  0  0  0
 22 23  1  0  0  0  0
 23 27  1  0  0  0  0
 24 22  1  0  0  0  0
 25 23  1  0  0  0  0
 26 24  1  0  0  0  0
 26 25  1  0  0  0  0
 29 33  1  0  0  0  0
 29 28  1  0  0  0  0
 30 29  2  0  0  0  0
 31 30  2  0  0  0  0
 33 32  1  0  0  0  0
 34 35  1  0  0  0  0
 34 31  1  0  0  0  0
 36 39  1  0  0  0  0
 36 35  1  0  0  0  0
 37 38  2  0  0  0  0
 37 36  1  0  0  0  0
 39 44  1  0  0  0  0
 40 42  1  0  0  0  0
 42 41  1  0  0  0  0
 43 41  1  0  0  0  0
 44 43  1  0  0  0  0
 45 40  1  0  0  0  0
 45 44  1  0  0  0  0
M  END
>  <MODEL>
2

>  <REMARK>
 VINA RESULT:      -6.6      3.130      6.627
  Name = 
  16 active torsions:
  status: ('A' for Active; 'I' for Inactive)
    1  A    between atoms: C_1  and  O_23
    2  A    between atoms: C_1  and  C_28
    3  A    between atoms: C_4  and  CA_5
    4  A    between atoms: CA_5  and  C_21
    5  A    between atoms: CA_5  and  N_45
    6  A    between atoms: C_6  and  C_25
    7  A    between atoms: O_7  and  C_10
    8  A    between atoms: O_7  and  N_34
    9  A    between atoms: C_10  and  O_14
   10  A    between atoms: C_12  and  C_22
   11  A    between atoms: C_17  and  C_28
   12  A    between atoms: C_18  and  C_22
   13  A    between atoms: C_18  and  C_41
   14  A    between atoms: C_21  and  C_29
   15  A    between atoms: C_35  and  C_37
   16  A    between atoms: C_37  and  N_45
                            x       y       z     vdW  Elec       q    Type
                         _______ _______ _______ _____ _____    ______ ____

>  <TORSDO>
F 16

$$$$
=
 OpenBabel11042415123D

 45 50  0  0  1  0  0  0  0  0999 V2000
  188.5370  175.5300  142.6820 C   0  0  2  0  0  3  0  0  0  0  0  0
  189.6640  176.2330  144.8230 C   0  0  2  0  0  3  0  0  0  0  0  0
  187.4390  177.2330  144.4290 C   0  0  1  0  0  3  0  0  0  0  0  0
  188.1790  176.0630  145.0970 C   0  0  1  0  0  3  0  0  0  0  0  0
  186.6380  176.8580  143.2350 N   0  0  0  0  0  0  0  0  0  0  0  0
  188.8960  175.1420  144.1070 C   0  0  1  0  0  3  0  0  0  0  0  0
  187.0820  175.6610  142.6090 N   0  0  0  0  0  2  0  0  0  0  0  0
  186.6170  178.0150  145.4530 C   0  0  0  0  0  3  0  0  0  0  0  0
  186.1450  178.1950  147.9530 C   0  0  0  0  0  2  0  0  0  0  0  0
  185.1050  179.0610  147.4170 N   0  0  0  0  0  2  0  0  0  0  0  0
  185.1390  177.6370  145.3660 C   0  0  0  0  0  2  0  0  0  0  0  0
  187.1830  177.8840  146.8780 C   0  0  0  0  0  2  0  0  0  0  0  0
  184.3000  178.2640  146.4910 C   0  0  0  0  0  2  0  0  0  0  0  0
  186.7640  177.8540  142.3200 O   0  0  0  0  0  0  0  0  0  0  0  0
  185.5110  177.9460  141.7090 C   0  0  0  0  0  2  0  0  0  0  0  0
  185.6460  178.4760  140.4260 O   0  0  0  0  0  0  0  0  0  0  0  0
  186.3970  177.5370  139.7130 C   0  0  0  0  0  1  0  0  0  0  0  0
  189.0080  174.4480  141.7310 C   0  0  0  0  0  2  0  0  0  0  0  0
  190.4480  174.0640  142.0320 C   0  0  0  0  0  2  0  0  0  0  0  0
  192.5450  173.2090  140.9230 C   0  0  0  0  0  2  0  0  0  0  0  0
  192.8430  171.8930  140.2410 C   0  0  0  0  0  2  0  0  0  0  0  0
  191.5680  171.1980  140.0210 N   0  0  2  0  0  0  0  0  0  0  0  0
  190.5610  171.8930  140.7420 N   0  0  1  0  0  0  0  0  0  0  0  0
  191.6950  169.8640  140.6020 C   0  0  0  0  0  2  0  0  0  0  0  0
  190.4340  171.2350  142.0460 C   0  0  0  0  0  2  0  0  0  0  0  0
  190.8170  169.8040  141.8270 C   0  0  0  0  0  2  0  0  0  0  0  0
  191.0460  173.2750  140.8620 C   0  0  1  0  0  3  0  0  0  0  0  0
  190.4750  175.5960  145.9390 C   0  0  0  0  0  2  0  0  0  0  0  0
  191.8580  175.2390  145.4880 C   0  0  0  0  0  0  0  0  0  0  0  0
  192.1190  173.9930  145.2000 C   0  0  0  0  0  0  0  0  0  0  0  0
  192.3710  172.7480  144.9260 C   0  0  0  0  0  3  0  0  0  0  0  0
  193.3880  176.6840  146.5970 O   0  0  0  0  0  1  0  0  0  0  0  0
  192.8880  176.1860  145.4610 O   0  0  0  0  0  0  0  0  0  0  0  0
  193.6930  172.3480  144.3820 C   0  0  0  0  0  2  0  0  0  0  0  0
  194.6500  172.2630  145.4800 N   0  0  0  0  0  2  0  0  0  0  0  0
  195.8920  172.8820  145.0130 C   0  0  2  0  0  3  0  0  0  0  0  0
  197.0710  172.0990  145.5120 C   0  0  0  0  0  3  0  0  0  0  0  0
  196.9140  170.9790  145.9730 O   0  0  0  0  0  0  0  0  0  0  0  0
  195.9820  174.3670  145.4120 C   0  0  0  0  0  2  0  0  0  0  0  0
  195.7480  176.0730  141.9810 C   0  0  0  0  0  2  0  0  0  0  0  0
  197.9400  175.7870  142.3960 C   0  0  0  0  0  2  0  0  0  0  0  0
  196.9230  175.5050  141.4680 O   0  0  0  0  0  0  0  0  0  0  0  0
  197.7240  174.9550  143.6610 C   0  0  0  0  0  2  0  0  0  0  0  0
  196.3620  175.3020  144.2640 C   0  0  0  0  0  3  0  0  0  0  0  0
  195.2690  175.2720  143.1920 C   0  0  0  0  0  2  0  0  0  0  0  0
  1 18  1  6  0  0  0
  1  6  1  0  0  0  0
  2  4  1  0  0  0  0
  2 28  1  1  0  0  0
  3  4  1  0  0  0  0
  3  8  1  1  0  0  0
  5  3  1  0  0  0  0
  6  2  1  0  0  0  0
  6  4  1  0  0  0  0
  7  1  1  0  0  0  0
  7  5  1  0  0  0  0
  8 12  1  0  0  0  0
 10  9  1  0  0  0  0
 11  8  1  0  0  0  0
 11 13  1  0  0  0  0
 12  9  1  0  0  0  0
 13 10  1  0  0  0  0
 14  5  1  0  0  0  0
 15 14  1  0  0  0  0
 16 15  1  0  0  0  0
 17 16  1  0  0  0  0
 18 19  1  0  0  0  0
 21 20  1  0  0  0  0
 22 21  1  0  0  0  0
 22 24  1  0  0  0  0
 22 23  1  0  0  0  0
 23 27  1  0  0  0  0
 23 25  1  0  0  0  0
 24 26  1  0  0  0  0
 26 25  1  0  0  0  0
 27 20  1  0  0  0  0
 27 19  1  0  0  0  0
 29 28  1  0  0  0  0
 30 29  2  0  0  0  0
 31 30  2  0  0  0  0
 33 29  1  0  0  0  0
 33 32  1  0  0  0  0
 34 31  1  0  0  0  0
 34 35  1  0  0  0  0
 36 39  1  0  0  0  0
 36 35  1  0  0  0  0
 36 37  1  0  0  0  0
 37 38  2  0  0  0  0
 40 45  1  0  0  0  0
 41 43  1  0  0  0  0
 42 40  1  0  0  0  0
 42 41  1  0  0  0  0
 43 44  1  0  0  0  0
 44 39  1  0  0  0  0
 45 44  1  0  0  0  0
M  END
>  <MODEL>
3

>  <REMARK>
 VINA RESULT:      -6.6      1.151      2.524
  Name = 
  16 active torsions:
  status: ('A' for Active; 'I' for Inactive)
    1  A    between atoms: C_1  and  O_23
    2  A    between atoms: C_1  and  C_28
    3  A    between atoms: C_4  and  CA_5
    4  A    between atoms: CA_5  and  C_21
    5  A    between atoms: CA_5  and  N_45
    6  A    between atoms: C_6  and  C_25
    7  A    between atoms: O_7  and  C_10
    8  A    between atoms: O_7  and  N_34
    9  A    between atoms: C_10  and  O_14
   10  A    between atoms: C_12  and  C_22
   11  A    between atoms: C_17  and  C_28
   12  A    between atoms: C_18  and  C_22
   13  A    between atoms: C_18  and  C_41
   14  A    between atoms: C_21  and  C_29
   15  A    between atoms: C_35  and  C_37
   16  A    between atoms: C_37  and  N_45
                            x       y       z     vdW  Elec       q    Type
                         _______ _______ _______ _____ _____    ______ ____

>  <TORSDO>
F 16

$$$$
=
 OpenBabel11042415123D

 45 50  0  0  1  0  0  0  0  0999 V2000
  190.6670  176.3130  145.9920 C   0  0  2  0  0  3  0  0  0  0  0  0
  190.8720  175.6840  143.5610 C   0  0  2  0  0  3  0  0  0  0  0  0
  188.6550  176.5380  144.2430 C   0  0  1  0  0  3  0  0  0  0  0  0
  190.0210  176.9390  143.6610 C   0  0  1  0  0  3  0  0  0  0  0  0
  188.4150  177.0020  145.6340 N   0  0  0  0  0  0  0  0  0  0  0  0
  191.1900  176.7160  144.6230 C   0  0  1  0  0  3  0  0  0  0  0  0
  189.6110  177.2550  146.3610 N   0  0  0  0  0  2  0  0  0  0  0  0
  187.5220  176.9350  143.2980 C   0  0  0  0  0  3  0  0  0  0  0  0
  187.0490  177.6460  140.8950 C   0  0  0  0  0  2  0  0  0  0  0  0
  185.7560  177.9020  141.5130 N   0  0  0  0  0  2  0  0  0  0  0  0
  186.9890  178.3250  143.6430 C   0  0  0  0  0  2  0  0  0  0  0  0
  187.9210  176.7990  141.8190 C   0  0  0  0  0  2  0  0  0  0  0  0
  185.9700  178.8410  142.6130 C   0  0  0  0  0  2  0  0  0  0  0  0
  187.7520  176.0160  146.2930 O   0  0  0  0  0  0  0  0  0  0  0  0
  186.7270  176.6670  146.9850 C   0  0  0  0  0  2  0  0  0  0  0  0
  185.5270  176.5360  146.2900 O   0  0  0  0  0  0  0  0  0  0  0  0
  184.8010  177.6960  146.5790 C   0  0  0  0  0  1  0  0  0  0  0  0
  191.7950  176.3780  147.0020 C   0  0  0  0  0  2  0  0  0  0  0  0
  193.1080  176.7170  146.3140 C   0  0  0  0  0  2  0  0  0  0  0  0
  193.4510  174.2240  146.1460 C   0  0  0  0  0  2  0  0  0  0  0  0
  194.6060  173.4140  145.6000 C   0  0  0  0  0  2  0  0  0  0  0  0
  195.7460  174.3210  145.4130 N   0  0  2  0  0  0  0  0  0  0  0  0
  195.2780  175.6510  145.5750 N   0  0  1  0  0  0  0  0  0  0  0  0
  196.1980  174.1700  144.0320 C   0  0  0  0  0  2  0  0  0  0  0  0
  194.9480  176.1570  144.2390 C   0  0  0  0  0  2  0  0  0  0  0  0
  195.8520  175.4360  143.2880 C   0  0  0  0  0  2  0  0  0  0  0  0
  194.0940  175.5490  146.4390 C   0  0  1  0  0  3  0  0  0  0  0  0
  191.8800  175.8280  142.4340 C   0  0  0  0  0  2  0  0  0  0  0  0
  192.4140  174.5000  141.9910 C   0  0  0  0  0  0  0  0  0  0  0  0
  192.6910  174.3290  140.7270 C   0  0  0  0  0  0  0  0  0  0  0  0
  192.9520  174.1650  139.4650 C   0  0  0  0  0  3  0  0  0  0  0  0
  193.3490  172.4020  142.6090 O   0  0  0  0  0  1  0  0  0  0  0  0
  192.5310  173.4250  142.8780 O   0  0  0  0  0  0  0  0  0  0  0  0
  193.5740  172.9060  138.9800 C   0  0  0  0  0  2  0  0  0  0  0  0
  192.8310  172.4290  137.8190 N   0  0  0  0  0  2  0  0  0  0  0  0
  191.8510  171.4570  138.3090 C   0  0  2  0  0  3  0  0  0  0  0  0
  191.9870  170.1700  137.5510 C   0  0  0  0  0  3  0  0  0  0  0  0
  191.0850  169.3460  137.5720 O   0  0  0  0  0  0  0  0  0  0  0  0
  190.4130  172.0070  138.2510 C   0  0  0  0  0  2  0  0  0  0  0  0
  188.3740  173.1270  141.3040 C   0  0  0  0  0  2  0  0  0  0  0  0
  189.7520  171.5030  142.0270 C   0  0  0  0  0  2  0  0  0  0  0  0
  189.3720  172.8380  142.2460 O   0  0  0  0  0  0  0  0  0  0  0  0
  190.5300  171.4010  140.7140 C   0  0  0  0  0  2  0  0  0  0  0  0
  189.6430  171.8830  139.5650 C   0  0  0  0  0  3  0  0  0  0  0  0
  188.9890  173.2250  139.9080 C   0  0  0  0  0  2  0  0  0  0  0  0
  1  7  1  0  0  0  0
  1 18  1  1  0  0  0
  2 28  1  6  0  0  0
  2  4  1  0  0  0  0
  2  6  1  0  0  0  0
  3  8  1  6  0  0  0
  3  5  1  0  0  0  0
  4  3  1  0  0  0  0
  4  6  1  0  0  0  0
  5 14  1  0  0  0  0
  5  7  1  0  0  0  0
  6  1  1  0  0  0  0
  8 11  1  0  0  0  0
  9 10  1  0  0  0  0
  9 12  1  0  0  0  0
 10 13  1  0  0  0  0
 12  8  1  0  0  0  0
 13 11  1  0  0  0  0
 14 15  1  0  0  0  0
 16 17  1  0  0  0  0
 16 15  1  0  0  0  0
 19 27  1  0  0  0  0
 19 18  1  0  0  0  0
 20 27  1  0  0  0  0
 21 20  1  0  0  0  0
 22 23  1  0  0  0  0
 22 21  1  0  0  0  0
 23 27  1  0  0  0  0
 24 22  1  0  0  0  0
 25 23  1  0  0  0  0
 26 24  1  0  0  0  0
 26 25  1  0  0  0  0
 29 28  1  0  0  0  0
 29 33  1  0  0  0  0
 30 29  2  0  0  0  0
 31 30  2  0  0  0  0
 32 33  1  0  0  0  0
 34 31  1  0  0  0  0
 35 36  1  0  0  0  0
 35 34  1  0  0  0  0
 37 38  2  0  0  0  0
 37 36  1  0  0  0  0
 39 36  1  0  0  0  0
 39 44  1  0  0  0  0
 40 42  1  0  0  0  0
 41 42  1  0  0  0  0
 43 41  1  0  0  0  0
 44 45  1  0  0  0  0
 44 43  1  0  0  0  0
 45 40  1  0  0  0  0
M  END
>  <MODEL>
4

>  <REMARK>
 VINA RESULT:      -6.5      2.864      6.246
  Name = 
  16 active torsions:
  status: ('A' for Active; 'I' for Inactive)
    1  A    between atoms: C_1  and  O_23
    2  A    between atoms: C_1  and  C_28
    3  A    between atoms: C_4  and  CA_5
    4  A    between atoms: CA_5  and  C_21
    5  A    between atoms: CA_5  and  N_45
    6  A    between atoms: C_6  and  C_25
    7  A    between atoms: O_7  and  C_10
    8  A    between atoms: O_7  and  N_34
    9  A    between atoms: C_10  and  O_14
   10  A    between atoms: C_12  and  C_22
   11  A    between atoms: C_17  and  C_28
   12  A    between atoms: C_18  and  C_22
   13  A    between atoms: C_18  and  C_41
   14  A    between atoms: C_21  and  C_29
   15  A    between atoms: C_35  and  C_37
   16  A    between atoms: C_37  and  N_45
                            x       y       z     vdW  Elec       q    Type
                         _______ _______ _______ _____ _____    ______ ____

>  <TORSDO>
F 16

$$$$
=
 OpenBabel11042415123D

 45 50  0  0  1  0  0  0  0  0999 V2000
  190.7490  176.3440  144.2990 C   0  0  2  0  0  3  0  0  0  0  0  0
  188.6230  175.8020  143.0610 C   0  0  2  0  0  3  0  0  0  0  0  0
  188.3360  177.1940  145.0830 C   0  0  1  0  0  3  0  0  0  0  0  0
  188.5350  177.2350  143.5580 C   0  0  1  0  0  3  0  0  0  0  0  0
  189.5140  177.6370  145.8730 N   0  0  0  0  0  0  0  0  0  0  0  0
  189.8740  176.6550  143.0970 C   0  0  1  0  0  3  0  0  0  0  0  0
  190.7440  177.5190  145.1700 N   0  0  0  0  0  2  0  0  0  0  0  0
  187.0590  177.9310  145.4860 C   0  0  0  0  0  3  0  0  0  0  0  0
  184.6550  177.5430  146.2450 C   0  0  0  0  0  2  0  0  0  0  0  0
  184.6320  178.9750  145.9880 N   0  0  0  0  0  2  0  0  0  0  0  0
  186.4000  178.5800  144.2710 C   0  0  0  0  0  2  0  0  0  0  0  0
  186.0940  177.0340  146.2810 C   0  0  0  0  0  2  0  0  0  0  0  0
  185.0230  179.1820  144.5950 C   0  0  0  0  0  2  0  0  0  0  0  0
  189.6050  176.8390  146.9680 O   0  0  0  0  0  0  0  0  0  0  0  0
  190.4280  177.5340  147.8570 C   0  0  0  0  0  2  0  0  0  0  0  0
  191.5750  176.7880  148.1240 O   0  0  0  0  0  0  0  0  0  0  0  0
  191.1840  175.4510  148.0110 C   0  0  0  0  0  1  0  0  0  0  0  0
  192.1600  176.0500  143.8330 C   0  0  0  0  0  2  0  0  0  0  0  0
  193.1710  176.7920  144.6930 C   0  0  0  0  0  2  0  0  0  0  0  0
  193.6930  174.3710  145.1670 C   0  0  0  0  0  2  0  0  0  0  0  0
  195.0120  173.6570  145.3600 C   0  0  0  0  0  2  0  0  0  0  0  0
  196.0560  174.6760  145.5370 N   0  0  2  0  0  0  0  0  0  0  0  0
  195.4920  175.9400  145.2200 N   0  0  1  0  0  0  0  0  0  0  0  0
  197.1060  174.3960  144.5610 C   0  0  0  0  0  2  0  0  0  0  0  0
  195.7940  176.2030  143.8090 C   0  0  0  0  0  2  0  0  0  0  0  0
  197.0750  175.4850  143.5180 C   0  0  0  0  0  2  0  0  0  0  0  0
  194.0500  175.7990  145.4630 C   0  0  1  0  0  3  0  0  0  0  0  0
  188.1380  175.7200  141.6230 C   0  0  0  0  0  2  0  0  0  0  0  0
  188.1100  174.3080  141.1240 C   0  0  0  0  0  0  0  0  0  0  0  0
  188.6570  174.0430  139.9690 C   0  0  0  0  0  0  0  0  0  0  0  0
  189.1940  173.7920  138.8130 C   0  0  0  0  0  3  0  0  0  0  0  0
  188.1080  172.2940  142.3890 O   0  0  0  0  0  1  0  0  0  0  0  0
  187.4350  173.2990  141.8200 O   0  0  0  0  0  0  0  0  0  0  0  0
  189.2850  172.3970  138.3100 C   0  0  0  0  0  2  0  0  0  0  0  0
  190.1300  171.6230  139.2140 N   0  0  0  0  0  2  0  0  0  0  0  0
  191.5130  172.0340  138.9610 C   0  0  2  0  0  3  0  0  0  0  0  0
  192.2510  170.9340  138.2590 C   0  0  0  0  0  3  0  0  0  0  0  0
  191.8250  170.4790  137.2090 O   0  0  0  0  0  0  0  0  0  0  0  0
  192.2300  172.4720  140.2520 C   0  0  0  0  0  2  0  0  0  0  0  0
  191.1830  171.9430  143.9070 C   0  0  0  0  0  2  0  0  0  0  0  0
  192.3970  170.1390  143.3310 C   0  0  0  0  0  2  0  0  0  0  0  0
  192.3110  171.1880  144.2630 O   0  0  0  0  0  0  0  0  0  0  0  0
  192.8170  170.6970  141.9700 C   0  0  0  0  0  2  0  0  0  0  0  0
  191.7800  171.7200  141.5040 C   0  0  0  0  0  3  0  0  0  0  0  0
  191.4610  172.7190  142.6200 C   0  0  0  0  0  2  0  0  0  0  0  0
  1 18  1  6  0  0  0
  1  7  1  0  0  0  0
  2 28  1  6  0  0  0
  2  6  1  0  0  0  0
  2  4  1  0  0  0  0
  3  8  1  6  0  0  0
  3  5  1  0  0  0  0
  4  3  1  0  0  0  0
  5 14  1  0  0  0  0
  6  4  1  0  0  0  0
  6  1  1  0  0  0  0
  7  5  1  0  0  0  0
  8 12  1  0  0  0  0
  9 12  1  0  0  0  0
 10  9  1  0  0  0  0
 11 13  1  0  0  0  0
 11  8  1  0  0  0  0
 13 10  1  0  0  0  0
 14 15  1  0  0  0  0
 15 16  1  0  0  0  0
 17 16  1  0  0  0  0
 18 19  1  0  0  0  0
 19 27  1  0  0  0  0
 20 21  1  0  0  0  0
 20 27  1  0  0  0  0
 21 22  1  0  0  0  0
 23 27  1  0  0  0  0
 23 22  1  0  0  0  0
 24 22  1  0  0  0  0
 25 23  1  0  0  0  0
 26 25  1  0  0  0  0
 26 24  1  0  0  0  0
 29 28  1  0  0  0  0
 29 33  1  0  0  0  0
 30 29  2  0  0  0  0
 31 30  2  0  0  0  0
 33 32  1  0  0  0  0
 34 31  1  0  0  0  0
 34 35  1  0  0  0  0
 36 35  1  0  0  0  0
 36 39  1  0  0  0  0
 37 36  1  0  0  0  0
 38 37  2  0  0  0  0
 39 44  1  0  0  0  0
 40 42  1  0  0  0  0
 41 42  1  0  0  0  0
 43 41  1  0  0  0  0
 44 43  1  0  0  0  0
 44 45  1  0  0  0  0
 45 40  1  0  0  0  0
M  END
>  <MODEL>
5

>  <REMARK>
 VINA RESULT:      -6.5      2.574      5.993
  Name = 
  16 active torsions:
  status: ('A' for Active; 'I' for Inactive)
    1  A    between atoms: C_1  and  O_23
    2  A    between atoms: C_1  and  C_28
    3  A    between atoms: C_4  and  CA_5
    4  A    between atoms: CA_5  and  C_21
    5  A    between atoms: CA_5  and  N_45
    6  A    between atoms: C_6  and  C_25
    7  A    between atoms: O_7  and  C_10
    8  A    between atoms: O_7  and  N_34
    9  A    between atoms: C_10  and  O_14
   10  A    between atoms: C_12  and  C_22
   11  A    between atoms: C_17  and  C_28
   12  A    between atoms: C_18  and  C_22
   13  A    between atoms: C_18  and  C_41
   14  A    between atoms: C_21  and  C_29
   15  A    between atoms: C_35  and  C_37
   16  A    between atoms: C_37  and  N_45
                            x       y       z     vdW  Elec       q    Type
                         _______ _______ _______ _____ _____    ______ ____

>  <TORSDO>
F 16

$$$$
=
 OpenBabel11042415123D

 45 50  0  0  1  0  0  0  0  0999 V2000
  190.6090  176.0130  144.3660 C   0  0  2  0  0  3  0  0  0  0  0  0
  188.4460  175.2840  143.2990 C   0  0  2  0  0  3  0  0  0  0  0  0
  188.2220  176.9960  145.0690 C   0  0  1  0  0  3  0  0  0  0  0  0
  188.3740  176.7810  143.5530 C   0  0  1  0  0  3  0  0  0  0  0  0
  189.4230  177.5570  145.7380 N   0  0  0  0  0  0  0  0  0  0  0  0
  189.6980  176.1240  143.1550 C   0  0  1  0  0  3  0  0  0  0  0  0
  190.6320  177.3170  145.0280 N   0  0  0  0  0  2  0  0  0  0  0  0
  186.9590  177.7960  145.3810 C   0  0  0  0  0  3  0  0  0  0  0  0
  184.5540  177.5430  146.1920 C   0  0  0  0  0  2  0  0  0  0  0  0
  184.5500  178.9330  145.7580 N   0  0  0  0  0  2  0  0  0  0  0  0
  186.3020  178.2980  144.0960 C   0  0  0  0  0  2  0  0  0  0  0  0
  185.9850  177.0210  146.2860 C   0  0  0  0  0  2  0  0  0  0  0  0
  184.9360  178.9570  144.3480 C   0  0  0  0  0  2  0  0  0  0  0  0
  189.5470  176.9530  146.9480 O   0  0  0  0  0  0  0  0  0  0  0  0
  190.2580  177.8600  147.7370 C   0  0  0  0  0  2  0  0  0  0  0  0
  191.3440  177.2220  148.3330 O   0  0  0  0  0  0  0  0  0  0  0  0
  191.5650  177.9060  149.5330 C   0  0  0  0  0  1  0  0  0  0  0  0
  192.0060  175.6370  143.9130 C   0  0  0  0  0  2  0  0  0  0  0  0
  193.0480  176.4230  144.6920 C   0  0  0  0  0  2  0  0  0  0  0  0
  193.7250  174.0310  145.1170 C   0  0  0  0  0  2  0  0  0  0  0  0
  195.0840  173.4070  145.3420 C   0  0  0  0  0  2  0  0  0  0  0  0
  196.0430  174.4910  145.5920 N   0  0  2  0  0  0  0  0  0  0  0  0
  195.4020  175.7210  145.2890 N   0  0  1  0  0  0  0  0  0  0  0  0
  197.1480  174.3180  144.6530 C   0  0  0  0  0  2  0  0  0  0  0  0
  195.7390  176.0510  143.9010 C   0  0  0  0  0  2  0  0  0  0  0  0
  197.0790  175.4360  143.6420 C   0  0  0  0  0  2  0  0  0  0  0  0
  193.9660  175.4700  145.4680 C   0  0  1  0  0  3  0  0  0  0  0  0
  187.9180  174.9670  141.9110 C   0  0  0  0  0  2  0  0  0  0  0  0
  188.6890  173.8590  141.2610 C   0  0  0  0  0  0  0  0  0  0  0  0
  189.1780  172.9120  142.0140 C   0  0  0  0  0  0  0  0  0  0  0  0
  189.6710  171.9820  142.7750 C   0  0  0  0  0  3  0  0  0  0  0  0
  188.1930  174.5460  139.0380 O   0  0  0  0  0  1  0  0  0  0  0  0
  188.9700  173.8690  139.8900 O   0  0  0  0  0  0  0  0  0  0  0  0
  190.3600  170.8070  142.1800 C   0  0  0  0  0  2  0  0  0  0  0  0
  191.5720  170.5340  142.9440 N   0  0  0  0  0  2  0  0  0  0  0  0
  192.6830  170.5180  141.9900 C   0  0  2  0  0  3  0  0  0  0  0  0
  193.3620  169.1810  142.0210 C   0  0  0  0  0  3  0  0  0  0  0  0
  192.8530  168.2460  142.6200 O   0  0  0  0  0  0  0  0  0  0  0  0
  193.6760  171.6690  142.2400 C   0  0  0  0  0  2  0  0  0  0  0  0
  192.5350  173.9540  139.3740 C   0  0  0  0  0  2  0  0  0  0  0  0
  194.1540  175.0710  140.4650 C   0  0  0  0  0  2  0  0  0  0  0  0
  193.7760  174.5840  139.2020 O   0  0  0  0  0  0  0  0  0  0  0  0
  194.5280  173.8990  141.3740 C   0  0  0  0  0  2  0  0  0  0  0  0
  193.3220  172.9680  141.5160 C   0  0  0  0  0  3  0  0  0  0  0  0
  192.7170  172.6480  140.1460 C   0  0  0  0  0  2  0  0  0  0  0  0
  1 18  1  6  0  0  0
  1  7  1  0  0  0  0
  2 28  1  6  0  0  0
  2  4  1  0  0  0  0
  3  8  1  6  0  0  0
  3  5  1  0  0  0  0
  4  3  1  0  0  0  0
  5 14  1  0  0  0  0
  6  2  1  0  0  0  0
  6  4  1  0  0  0  0
  6  1  1  0  0  0  0
  7  5  1  0  0  0  0
  8 12  1  0  0  0  0
  9 12  1  0  0  0  0
 10  9  1  0  0  0  0
 11 13  1  0  0  0  0
 11  8  1  0  0  0  0
 13 10  1  0  0  0  0
 14 15  1  0  0  0  0
 15 16  1  0  0  0  0
 16 17  1  0  0  0  0
 18 19  1  0  0  0  0
 19 27  1  0  0  0  0
 20 21  1  0  0  0  0
 20 27  1  0  0  0  0
 21 22  1  0  0  0  0
 23 27  1  0  0  0  0
 23 22  1  0  0  0  0
 24 22  1  0  0  0  0
 25 23  1  0  0  0  0
 26 25  1  0  0  0  0
 26 24  1  0  0  0  0
 29 28  1  0  0  0  0
 29 30  2  0  0  0  0
 30 31  2  0  0  0  0
 32 33  1  0  0  0  0
 33 29  1  0  0  0  0
 34 31  1  0  0  0  0
 34 35  1  0  0  0  0
 36 37  1  0  0  0  0
 36 39  1  0  0  0  0
 36 35  1  0  0  0  0
 37 38  2  0  0  0  0
 40 45  1  0  0  0  0
 41 43  1  0  0  0  0
 42 40  1  0  0  0  0
 42 41  1  0  0  0  0
 43 44  1  0  0  0  0
 44 39  1  0  0  0  0
 45 44  1  0  0  0  0
M  END
>  <MODEL>
6

>  <REMARK>
 VINA RESULT:      -6.4      2.378      6.015
  Name = 
  16 active torsions:
  status: ('A' for Active; 'I' for Inactive)
    1  A    between atoms: C_1  and  O_23
    2  A    between atoms: C_1  and  C_28
    3  A    between atoms: C_4  and  CA_5
    4  A    between atoms: CA_5  and  C_21
    5  A    between atoms: CA_5  and  N_45
    6  A    between atoms: C_6  and  C_25
    7  A    between atoms: O_7  and  C_10
    8  A    between atoms: O_7  and  N_34
    9  A    between atoms: C_10  and  O_14
   10  A    between atoms: C_12  and  C_22
   11  A    between atoms: C_17  and  C_28
   12  A    between atoms: C_18  and  C_22
   13  A    between atoms: C_18  and  C_41
   14  A    between atoms: C_21  and  C_29
   15  A    between atoms: C_35  and  C_37
   16  A    between atoms: C_37  and  N_45
                            x       y       z     vdW  Elec       q    Type
                         _______ _______ _______ _____ _____    ______ ____

>  <TORSDO>
F 16

$$$$
=
 OpenBabel11042415123D

 45 50  0  0  1  0  0  0  0  0999 V2000
  189.8700  177.0590  143.5630 C   0  0  2  0  0  3  0  0  0  0  0  0
  187.6610  176.9430  142.3560 C   0  0  2  0  0  3  0  0  0  0  0  0
  187.5070  177.1030  144.8180 C   0  0  1  0  0  3  0  0  0  0  0  0
  187.5240  177.9180  143.5140 C   0  0  1  0  0  3  0  0  0  0  0  0
  188.7320  177.2390  145.6480 N   0  0  0  0  0  0  0  0  0  0  0  0
  188.8390  177.8140  142.7400 C   0  0  1  0  0  3  0  0  0  0  0  0
  189.8780  177.6380  144.9060 N   0  0  0  0  0  2  0  0  0  0  0  0
  186.2340  177.3790  145.6170 C   0  0  0  0  0  3  0  0  0  0  0  0
  184.0780  178.7390  145.5780 C   0  0  0  0  0  2  0  0  0  0  0  0
  184.0480  178.2220  146.9380 N   0  0  0  0  0  2  0  0  0  0  0  0
  186.5440  178.2070  146.8630 C   0  0  0  0  0  2  0  0  0  0  0  0
  185.1230  177.9960  144.7510 C   0  0  0  0  0  2  0  0  0  0  0  0
  185.2750  178.6580  147.6040 C   0  0  0  0  0  2  0  0  0  0  0  0
  189.0100  176.0220  146.1830 O   0  0  0  0  0  0  0  0  0  0  0  0
  189.9940  176.2630  147.1440 C   0  0  0  0  0  2  0  0  0  0  0  0
  190.9300  175.2300  147.1350 O   0  0  0  0  0  0  0  0  0  0  0  0
  190.4890  174.3370  146.1530 C   0  0  0  0  0  1  0  0  0  0  0  0
  191.2360  177.2120  142.9250 C   0  0  0  0  0  2  0  0  0  0  0  0
  192.1010  175.9970  143.2190 C   0  0  0  0  0  2  0  0  0  0  0  0
  193.2400  176.9310  145.2650 C   0  0  0  0  0  2  0  0  0  0  0  0
  194.5600  176.5820  145.9160 C   0  0  0  0  0  2  0  0  0  0  0  0
  195.3200  175.7490  144.9750 N   0  0  2  0  0  0  0  0  0  0  0  0
  194.4490  175.3750  143.9180 N   0  0  1  0  0  0  0  0  0  0  0  0
  195.7070  174.5330  145.6870 C   0  0  0  0  0  2  0  0  0  0  0  0
  193.8850  174.0670  144.2670 C   0  0  0  0  0  2  0  0  0  0  0  0
  194.9130  173.3850  145.1140 C   0  0  0  0  0  2  0  0  0  0  0  0
  193.4240  176.4260  143.8640 C   0  0  1  0  0  3  0  0  0  0  0  0
  187.0200  177.5240  141.1080 C   0  0  0  0  0  2  0  0  0  0  0  0
  187.1610  176.6080  139.9310 C   0  0  0  0  0  0  0  0  0  0  0  0
  187.8110  175.4880  140.0850 C   0  0  0  0  0  0  0  0  0  0  0  0
  188.4710  174.3800  140.2470 C   0  0  0  0  0  3  0  0  0  0  0  0
  186.3920  176.0380  137.7530 O   0  0  0  0  0  1  0  0  0  0  0  0
  186.6960  176.9710  138.6620 O   0  0  0  0  0  0  0  0  0  0  0  0
  188.5600  173.3870  139.1460 C   0  0  0  0  0  2  0  0  0  0  0  0
  189.6290  172.4410  139.4480 N   0  0  0  0  0  2  0  0  0  0  0  0
  190.8960  173.1330  139.1990 C   0  0  2  0  0  3  0  0  0  0  0  0
  191.6090  172.4900  138.0470 C   0  0  0  0  0  3  0  0  0  0  0  0
  191.0570  172.3880  136.9620 O   0  0  0  0  0  0  0  0  0  0  0  0
  191.7800  173.1910  140.4580 C   0  0  0  0  0  2  0  0  0  0  0  0
  190.6220  171.6170  143.7630 C   0  0  0  0  0  2  0  0  0  0  0  0
  192.4130  170.4330  143.0930 C   0  0  0  0  0  2  0  0  0  0  0  0
  191.8960  171.1860  144.1610 O   0  0  0  0  0  0  0  0  0  0  0  0
  192.7530  171.3630  141.9280 C   0  0  0  0  0  2  0  0  0  0  0  0
  191.4850  172.0930  141.4810 C   0  0  0  0  0  3  0  0  0  0  0  0
  190.7490  172.6910  142.6830 C   0  0  0  0  0  2  0  0  0  0  0  0
  1 18  1  6  0  0  0
  1  7  1  0  0  0  0
  2 28  1  6  0  0  0
  2  6  1  0  0  0  0
  2  4  1  0  0  0  0
  3  8  1  1  0  0  0
  3  5  1  0  0  0  0
  4  3  1  0  0  0  0
  5 14  1  0  0  0  0
  6  4  1  0  0  0  0
  6  1  1  0  0  0  0
  7  5  1  0  0  0  0
  8 11  1  0  0  0  0
  9 10  1  0  0  0  0
 10 13  1  0  0  0  0
 11 13  1  0  0  0  0
 12  9  1  0  0  0  0
 12  8  1  0  0  0  0
 14 15  1  0  0  0  0
 16 15  1  0  0  0  0
 17 16  1  0  0  0  0
 18 19  1  0  0  0  0
 19 27  1  0  0  0  0
 20 21  1  0  0  0  0
 22 24  1  0  0  0  0
 22 21  1  0  0  0  0
 23 25  1  0  0  0  0
 23 22  1  0  0  0  0
 25 26  1  0  0  0  0
 26 24  1  0  0  0  0
 27 23  1  0  0  0  0
 27 20  1  0  0  0  0
 29 30  2  0  0  0  0
 29 28  1  0  0  0  0
 30 31  2  0  0  0  0
 32 33  1  0  0  0  0
 33 29  1  0  0  0  0
 34 35  1  0  0  0  0
 34 31  1  0  0  0  0
 36 35  1  0  0  0  0
 36 39  1  0  0  0  0
 37 36  1  0  0  0  0
 38 37  2  0  0  0  0
 39 44  1  0  0  0  0
 40 42  1  0  0  0  0
 41 42  1  0  0  0  0
 43 41  1  0  0  0  0
 44 43  1  0  0  0  0
 44 45  1  0  0  0  0
 45 40  1  0  0  0  0
M  END
>  <MODEL>
7

>  <REMARK>
 VINA RESULT:      -6.4      2.238      6.004
  Name = 
  16 active torsions:
  status: ('A' for Active; 'I' for Inactive)
    1  A    between atoms: C_1  and  O_23
    2  A    between atoms: C_1  and  C_28
    3  A    between atoms: C_4  and  CA_5
    4  A    between atoms: CA_5  and  C_21
    5  A    between atoms: CA_5  and  N_45
    6  A    between atoms: C_6  and  C_25
    7  A    between atoms: O_7  and  C_10
    8  A    between atoms: O_7  and  N_34
    9  A    between atoms: C_10  and  O_14
   10  A    between atoms: C_12  and  C_22
   11  A    between atoms: C_17  and  C_28
   12  A    between atoms: C_18  and  C_22
   13  A    between atoms: C_18  and  C_41
   14  A    between atoms: C_21  and  C_29
   15  A    between atoms: C_35  and  C_37
   16  A    between atoms: C_37  and  N_45
                            x       y       z     vdW  Elec       q    Type
                         _______ _______ _______ _____ _____    ______ ____

>  <TORSDO>
F 16

$$$$
=
 OpenBabel11042415123D

 45 50  0  0  1  0  0  0  0  0999 V2000
  188.7460  175.7660  142.6760 C   0  0  2  0  0  3  0  0  0  0  0  0
  189.6770  176.1530  144.9840 C   0  0  2  0  0  3  0  0  0  0  0  0
  187.5490  177.3140  144.5000 C   0  0  1  0  0  3  0  0  0  0  0  0
  188.1660  176.0350  145.0910 C   0  0  1  0  0  3  0  0  0  0  0  0
  186.8600  177.1240  143.1970 N   0  0  0  0  0  0  0  0  0  0  0  0
  188.9390  175.1970  144.0710 C   0  0  1  0  0  3  0  0  0  0  0  0
  187.3140  175.9840  142.4780 N   0  0  0  0  0  2  0  0  0  0  0  0
  186.6610  178.0160  145.5260 C   0  0  0  0  0  3  0  0  0  0  0  0
  186.0960  178.0660  148.0130 C   0  0  0  0  0  2  0  0  0  0  0  0
  185.0390  178.9120  147.4770 N   0  0  0  0  0  2  0  0  0  0  0  0
  185.2040  177.5830  145.3690 C   0  0  0  0  0  2  0  0  0  0  0  0
  187.1830  177.8450  146.9630 C   0  0  0  0  0  2  0  0  0  0  0  0
  184.3010  178.1260  146.4900 C   0  0  0  0  0  2  0  0  0  0  0  0
  187.1220  178.2100  142.4250 O   0  0  0  0  0  0  0  0  0  0  0  0
  185.8720  178.6580  141.9910 C   0  0  0  0  0  2  0  0  0  0  0  0
  185.6630  178.2730  140.6680 O   0  0  0  0  0  0  0  0  0  0  0  0
  184.2770  178.3080  140.4860 C   0  0  0  0  0  1  0  0  0  0  0  0
  189.2660  174.7770  141.6510 C   0  0  0  0  0  2  0  0  0  0  0  0
  189.9350  173.5990  142.3390 C   0  0  0  0  0  2  0  0  0  0  0  0
  190.4680  173.0960  139.9260 C   0  0  0  0  0  2  0  0  0  0  0  0
  191.7910  172.9590  139.2070 C   0  0  0  0  0  2  0  0  0  0  0  0
  192.8480  172.8630  140.2220 N   0  0  2  0  0  0  0  0  0  0  0  0
  192.2760  173.1790  141.4820 N   0  0  1  0  0  0  0  0  0  0  0  0
  193.8420  173.8880  139.9120 C   0  0  0  0  0  2  0  0  0  0  0  0
  192.5020  174.6100  141.7100 C   0  0  0  0  0  2  0  0  0  0  0  0
  193.7610  174.9530  140.9770 C   0  0  0  0  0  2  0  0  0  0  0  0
  190.8480  172.8540  141.3580 C   0  0  1  0  0  3  0  0  0  0  0  0
  190.3400  175.3480  146.0890 C   0  0  0  0  0  2  0  0  0  0  0  0
  191.6880  174.8410  145.6760 C   0  0  0  0  0  0  0  0  0  0  0  0
  192.7170  175.6350  145.7880 C   0  0  0  0  0  0  0  0  0  0  0  0
  193.7320  176.4400  145.8930 C   0  0  0  0  0  3  0  0  0  0  0  0
  193.0620  173.0400  144.9500 O   0  0  0  0  0  1  0  0  0  0  0  0
  191.8470  173.5790  145.0920 O   0  0  0  0  0  0  0  0  0  0  0  0
  195.1060  175.9620  145.5930 C   0  0  0  0  0  2  0  0  0  0  0  0
  195.1830  175.6040  144.1800 N   0  0  0  0  0  2  0  0  0  0  0  0
  196.4500  174.8930  143.9890 C   0  0  2  0  0  3  0  0  0  0  0  0
  197.4570  175.8090  143.3600 C   0  0  0  0  0  3  0  0  0  0  0  0
  197.0890  176.7790  142.7150 O   0  0  0  0  0  0  0  0  0  0  0  0
  196.2670  173.5980  143.1750 C   0  0  0  0  0  2  0  0  0  0  0  0
  195.9460  169.9910  144.4510 C   0  0  0  0  0  2  0  0  0  0  0  0
  196.8110  171.1870  146.1490 C   0  0  0  0  0  2  0  0  0  0  0  0
  195.7460  170.3410  145.7950 O   0  0  0  0  0  0  0  0  0  0  0  0
  196.6450  172.5380  145.4520 C   0  0  0  0  0  2  0  0  0  0  0  0
  196.6340  172.3240  143.9370 C   0  0  0  0  0  3  0  0  0  0  0  0
  195.6710  171.1970  143.5530 C   0  0  0  0  0  2  0  0  0  0  0  0
  1 18  1  6  0  0  0
  1  6  1  0  0  0  0
  2  4  1  0  0  0  0
  2 28  1  1  0  0  0
  3  4  1  0  0  0  0
  3  8  1  1  0  0  0
  5  3  1  0  0  0  0
  6  2  1  0  0  0  0
  6  4  1  0  0  0  0
  7  1  1  0  0  0  0
  7  5  1  0  0  0  0
  8 12  1  0  0  0  0
 10  9  1  0  0  0  0
 11  8  1  0  0  0  0
 11 13  1  0  0  0  0
 12  9  1  0  0  0  0
 13 10  1  0  0  0  0
 14  5  1  0  0  0  0
 15 14  1  0  0  0  0
 16 15  1  0  0  0  0
 17 16  1  0  0  0  0
 18 19  1  0  0  0  0
 20 27  1  0  0  0  0
 21 20  1  0  0  0  0
 21 22  1  0  0  0  0
 22 23  1  0  0  0  0
 23 25  1  0  0  0  0
 24 22  1  0  0  0  0
 24 26  1  0  0  0  0
 26 25  1  0  0  0  0
 27 23  1  0  0  0  0
 27 19  1  0  0  0  0
 29 30  2  0  0  0  0
 29 28  1  0  0  0  0
 30 31  2  0  0  0  0
 32 33  1  0  0  0  0
 33 29  1  0  0  0  0
 34 31  1  0  0  0  0
 35 34  1  0  0  0  0
 36 35  1  0  0  0  0
 37 36  1  0  0  0  0
 38 37  2  0  0  0  0
 39 44  1  0  0  0  0
 39 36  1  0  0  0  0
 40 42  1  0  0  0  0
 42 41  1  0  0  0  0
 43 41  1  0  0  0  0
 44 43  1  0  0  0  0
 45 44  1  0  0  0  0
 45 40  1  0  0  0  0
M  END
>  <MODEL>
8

>  <REMARK>
 VINA RESULT:      -6.4      1.718      2.036
  Name = 
  16 active torsions:
  status: ('A' for Active; 'I' for Inactive)
    1  A    between atoms: C_1  and  O_23
    2  A    between atoms: C_1  and  C_28
    3  A    between atoms: C_4  and  CA_5
    4  A    between atoms: CA_5  and  C_21
    5  A    between atoms: CA_5  and  N_45
    6  A    between atoms: C_6  and  C_25
    7  A    between atoms: O_7  and  C_10
    8  A    between atoms: O_7  and  N_34
    9  A    between atoms: C_10  and  O_14
   10  A    between atoms: C_12  and  C_22
   11  A    between atoms: C_17  and  C_28
   12  A    between atoms: C_18  and  C_22
   13  A    between atoms: C_18  and  C_41
   14  A    between atoms: C_21  and  C_29
   15  A    between atoms: C_35  and  C_37
   16  A    between atoms: C_37  and  N_45
                            x       y       z     vdW  Elec       q    Type
                         _______ _______ _______ _____ _____    ______ ____

>  <TORSDO>
F 16

$$$$
=
 OpenBabel11042415123D

 45 50  0  0  1  0  0  0  0  0999 V2000
  189.7650  175.6380  143.3380 C   0  0  2  0  0  3  0  0  0  0  0  0
  189.6720  176.6550  145.6410 C   0  0  2  0  0  3  0  0  0  0  0  0
  187.6310  176.9490  144.2780 C   0  0  1  0  0  3  0  0  0  0  0  0
  188.3110  176.0540  145.3280 C   0  0  1  0  0  3  0  0  0  0  0  0
  187.5290  176.3470  142.9230 N   0  0  0  0  0  0  0  0  0  0  0  0
  189.5910  175.3820  144.8260 C   0  0  1  0  0  3  0  0  0  0  0  0
  188.4940  175.3310  142.6820 N   0  0  0  0  0  2  0  0  0  0  0  0
  186.2830  177.4580  144.7870 C   0  0  0  0  0  3  0  0  0  0  0  0
  185.1450  179.5040  145.8000 C   0  0  0  0  0  2  0  0  0  0  0  0
  184.1020  178.5030  145.9650 N   0  0  0  0  0  2  0  0  0  0  0  0
  185.9200  176.7990  146.1170 C   0  0  0  0  0  2  0  0  0  0  0  0
  186.2230  178.9940  144.8460 C   0  0  0  0  0  2  0  0  0  0  0  0
  184.6610  177.4070  146.7550 C   0  0  0  0  0  2  0  0  0  0  0  0
  187.7500  177.3300  142.0130 O   0  0  0  0  0  0  0  0  0  0  0  0
  186.7460  177.1720  141.0550 C   0  0  0  0  0  2  0  0  0  0  0  0
  185.9720  178.3280  140.9830 O   0  0  0  0  0  0  0  0  0  0  0  0
  184.6800  177.9340  141.3450 C   0  0  0  0  0  1  0  0  0  0  0  0
  190.8580  174.7390  142.7960 C   0  0  0  0  0  2  0  0  0  0  0  0
  190.5690  174.3590  141.3530 C   0  0  0  0  0  2  0  0  0  0  0  0
  190.7060  171.9010  141.9010 C   0  0  0  0  0  2  0  0  0  0  0  0
  190.8240  170.6870  141.0070 C   0  0  0  0  0  2  0  0  0  0  0  0
  191.1660  171.1530  139.6560 N   0  0  2  0  0  0  0  0  0  0  0  0
  191.0190  172.5650  139.6300 N   0  0  1  0  0  0  0  0  0  0  0  0
  190.1830  170.5830  138.7390 C   0  0  0  0  0  2  0  0  0  0  0  0
  189.6670  172.8470  139.1370 C   0  0  0  0  0  2  0  0  0  0  0  0
  189.3050  171.7040  138.2420 C   0  0  0  0  0  2  0  0  0  0  0  0
  191.2090  173.0060  141.0180 C   0  0  1  0  0  3  0  0  0  0  0  0
  190.0850  176.2940  147.0570 C   0  0  0  0  0  2  0  0  0  0  0  0
  191.5290  176.6030  147.3120 C   0  0  0  0  0  0  0  0  0  0  0  0
  192.4370  175.9260  146.6640 C   0  0  0  0  0  0  0  0  0  0  0  0
  193.3330  175.2370  146.0220 C   0  0  0  0  0  3  0  0  0  0  0  0
  191.0530  177.9460  149.2170 O   0  0  0  0  0  1  0  0  0  0  0  0
  191.9190  177.5270  148.2880 O   0  0  0  0  0  0  0  0  0  0  0  0
  194.7750  175.5640  146.1580 C   0  0  0  0  0  2  0  0  0  0  0  0
  195.3670  175.6560  144.8270 N   0  0  0  0  0  2  0  0  0  0  0  0
  196.2450  174.4940  144.6690 C   0  0  2  0  0  3  0  0  0  0  0  0
  197.4600  174.8790  143.8790 C   0  0  0  0  0  3  0  0  0  0  0  0
  197.5630  176.0050  143.4190 O   0  0  0  0  0  0  0  0  0  0  0  0
  195.5090  173.2960  144.0400 C   0  0  0  0  0  2  0  0  0  0  0  0
  196.4660  170.4110  146.3840 C   0  0  0  0  0  2  0  0  0  0  0  0
  194.6530  169.7230  145.2440 C   0  0  0  0  0  2  0  0  0  0  0  0
  195.9850  169.3920  145.5480 O   0  0  0  0  0  0  0  0  0  0  0  0
  194.6270  170.9290  144.3050 C   0  0  0  0  0  2  0  0  0  0  0  0
  195.3120  172.1150  144.9890 C   0  0  0  0  0  3  0  0  0  0  0  0
  196.6610  171.6960  145.5800 C   0  0  0  0  0  2  0  0  0  0  0  0
  1 18  1  6  0  0  0
  1  6  1  0  0  0  0
  2 28  1  1  0  0  0
  3  8  1  1  0  0  0
  3  4  1  0  0  0  0
  4  2  1  0  0  0  0
  5  3  1  0  0  0  0
  6  4  1  0  0  0  0
  6  2  1  0  0  0  0
  7  5  1  0  0  0  0
  7  1  1  0  0  0  0
  8 12  1  0  0  0  0
  8 11  1  0  0  0  0
  9 10  1  0  0  0  0
 10 13  1  0  0  0  0
 11 13  1  0  0  0  0
 12  9  1  0  0  0  0
 14  5  1  0  0  0  0
 15 14  1  0  0  0  0
 16 15  1  0  0  0  0
 16 17  1  0  0  0  0
 19 18  1  0  0  0  0
 21 20  1  0  0  0  0
 22 21  1  0  0  0  0
 23 22  1  0  0  0  0
 23 27  1  0  0  0  0
 24 22  1  0  0  0  0
 25 23  1  0  0  0  0
 26 24  1  0  0  0  0
 26 25  1  0  0  0  0
 27 19  1  0  0  0  0
 27 20  1  0  0  0  0
 28 29  1  0  0  0  0
 29 33  1  0  0  0  0
 30 29  2  0  0  0  0
 31 34  1  0  0  0  0
 31 30  2  0  0  0  0
 33 32  1  0  0  0  0
 35 34  1  0  0  0  0
 36 35  1  0  0  0  0
 37 36  1  0  0  0  0
 38 37  2  0  0  0  0
 39 36  1  0  0  0  0
 39 44  1  0  0  0  0
 41 42  1  0  0  0  0
 42 40  1  0  0  0  0
 43 44  1  0  0  0  0
 43 41  1  0  0  0  0
 44 45  1  0  0  0  0
 45 40  1  0  0  0  0
M  END
>  <MODEL>
9

>  <REMARK>
 VINA RESULT:      -6.4      1.499      2.200
  Name = 
  16 active torsions:
  status: ('A' for Active; 'I' for Inactive)
    1  A    between atoms: C_1  and  O_23
    2  A    between atoms: C_1  and  C_28
    3  A    between atoms: C_4  and  CA_5
    4  A    between atoms: CA_5  and  C_21
    5  A    between atoms: CA_5  and  N_45
    6  A    between atoms: C_6  and  C_25
    7  A    between atoms: O_7  and  C_10
    8  A    between atoms: O_7  and  N_34
    9  A    between atoms: C_10  and  O_14
   10  A    between atoms: C_12  and  C_22
   11  A    between atoms: C_17  and  C_28
   12  A    between atoms: C_18  and  C_22
   13  A    between atoms: C_18  and  C_41
   14  A    between atoms: C_21  and  C_29
   15  A    between atoms: C_35  and  C_37
   16  A    between atoms: C_37  and  N_45
                            x       y       z     vdW  Elec       q    Type
                         _______ _______ _______ _____ _____    ______ ____

>  <TORSDO>
F 16

$$$$
