=
 OpenBabel11042415063D

 53 59  0  0  1  0  0  0  0  0999 V2000
  189.0180  174.4130  141.9660 C   0  0  2  0  0  3  0  0  0  0  0  0
  189.4540  173.9050  140.6140 C   0  0  0  0  0  0  0  0  0  0  0  0
  190.1990  172.8870  138.1370 C   0  0  0  0  0  3  0  0  0  0  0  0
  190.5760  173.0710  140.5140 C   0  0  0  0  0  3  0  0  0  0  0  0
  188.7270  174.1850  139.4940 N   0  0  0  0  0  0  0  0  0  0  0  0
  190.9610  172.5640  139.2680 C   0  0  0  0  0  0  0  0  0  0  0  0
  189.0750  173.7030  138.2720 C   0  0  0  0  0  3  0  0  0  0  0  0
  193.3550  171.9240  139.8870 C   0  0  1  0  0  3  0  0  0  0  0  0
  193.5350  169.9480  138.7650 C   0  0  0  0  0  3  0  0  0  0  0  0
  192.1630  170.4860  138.4450 C   0  0  0  0  0  3  0  0  0  0  0  0
  192.1260  171.7320  139.1490 N   0  0  0  0  0  0  0  0  0  0  0  0
  194.1430  170.7620  139.7490 O   0  0  0  0  0  0  0  0  0  0  0  0
  194.0770  173.0660  139.3500 N   0  0  0  0  0  2  0  0  0  0  0  0
  193.6780  174.2310  140.1310 C   0  0  0  0  0  2  0  0  0  0  0  0
  196.8320  175.1230  139.8820 N   0  0  0  0  0  0  0  0  0  0  0  0
  197.9390  175.6250  139.0900 C   0  0  0  0  0  1  0  0  0  0  0  0
  195.7150  175.0480  139.0260 N   0  0  0  0  0  2  0  0  0  0  0  0
  196.5500  176.0940  140.8570 N   0  0  0  0  0  2  0  0  0  0  0  0
  195.1210  176.0300  141.0760 C   0  0  0  0  0  2  0  0  0  0  0  0
  194.5640  175.4350  139.8210 C   0  0  2  0  0  3  0  0  0  0  0  0
  189.1950  173.3760  143.0740 C   0  0  0  0  0  2  0  0  0  0  0  0
  190.5030  175.3240  143.9640 C   0  0  0  0  0  2  0  0  0  0  0  0
  190.2460  173.8140  144.0840 C   0  0  1  0  0  3  0  0  0  0  0  0
  190.1540  175.9670  145.3060 C   0  0  1  0  0  3  0  0  0  0  0  0
  189.2410  174.9180  147.2830 O   0  0  0  0  0  0  0  0  0  0  0  0
  189.6780  174.8190  146.1060 C   0  0  0  0  0  0  0  0  0  0  0  0
  189.7440  173.5860  145.4250 N   0  0  0  0  0  2  0  0  0  0  0  0
  191.4100  176.5610  145.9200 C   0  0  0  0  0  2  0  0  0  0  0  0
  192.3910  176.8200  144.8780 N   0  0  0  0  0  2  0  0  0  0  0  0
  193.7060  176.5830  145.4480 C   0  0  1  0  0  3  0  0  0  0  0  0
  193.5960  176.4500  146.8350 O   0  0  0  0  0  1  0  0  0  0  0  0
  195.8630  175.4180  144.8670 C   0  0  0  0  0  2  0  0  0  0  0  0
  194.3320  175.3310  144.8320 C   0  0  1  0  0  3  0  0  0  0  0  0
  197.0110  173.6060  146.1670 C   0  0  0  0  0  1  0  0  0  0  0  0
  195.7150  172.9800  144.1100 C   0  0  0  0  0  2  0  0  0  0  0  0
  196.5680  174.0550  144.7880 C   0  0  1  0  0  3  0  0  0  0  0  0
  193.8330  174.0510  145.4950 C   0  0  0  0  0  2  0  0  0  0  0  0
  194.3140  172.8160  144.7270 C   0  0  2  0  0  3  0  0  0  0  0  0
  194.6320  170.4560  144.8960 O   0  0  0  0  0  1  0  0  0  0  0  0
  194.2790  171.5920  145.6240 C   0  0  0  0  0  2  0  0  0  0  0  0
  187.6230  174.8310  141.9230 N   0  0  0  0  0  2  0  0  0  0  0  0
  186.8890  176.9370  141.1530 C   0  0  0  0  0  2  0  0  0  0  0  0
  186.1090  176.7740  142.4290 C   0  0  1  0  0  0  0  0  0  0  0  0
  186.9090  176.3050  143.6130 C   0  0  0  0  0  2  0  0  0  0  0  0
  187.5800  176.2380  142.2800 C   0  0  1  0  0  0  0  0  0  0  0  0
  185.8650  178.2160  142.8090 C   0  0  0  0  0  2  0  0  0  0  0  0
  184.4300  178.3920  143.2720 C   0  0  0  0  0  2  0  0  0  0  0  0
  184.4000  178.9490  144.6840 C   0  0  0  0  0  2  0  0  0  0  0  0
  185.7050  179.0810  145.1690 O   0  0  0  0  0  0  0  0  0  0  0  0
  185.7370  178.1920  146.6150 P   0  0  0  0  0  0  0  0  0  0  0  0
  185.1520  179.0350  147.7280 O   0  0  0  0  0  1  0  0  0  0  0  0
  184.8180  176.7800  146.4420 O   0  0  0  0  0  0  0  0  0  0  0  0
  187.3300  177.7830  147.0090 O   0  0  0  0  0  1  0  0  0  0  0  0
  1 21  1  1  0  0  0
  2  1  1  0  0  0  0
  3  7  2  0  0  0  0
  3  6  1  0  0  0  0
  4  2  1  0  0  0  0
  5  2  2  0  0  0  0
  6  4  2  0  0  0  0
  7  5  1  0  0  0  0
  8 13  1  6  0  0  0
  9 12  1  0  0  0  0
 10  9  2  0  0  0  0
 10 11  1  0  0  0  0
 11  6  1  0  0  0  0
 11  8  1  0  0  0  0
 12  8  1  0  0  0  0
 13 14  1  0  0  0  0
 15 18  1  0  0  0  0
 16 15  1  0  0  0  0
 17 20  1  0  0  0  0
 17 15  1  0  0  0  0
 18 19  1  0  0  0  0
 20 14  1  1  0  0  0
 20 19  1  0  0  0  0
 22 23  1  0  0  0  0
 22 24  1  0  0  0  0
 23 21  1  6  0  0  0
 23 27  1  0  0  0  0
 24 28  1  1  0  0  0
 24 26  1  0  0  0  0
 26 25  2  0  0  0  0
 27 26  1  0  0  0  0
 29 30  1  0  0  0  0
 29 28  1  0  0  0  0
 30 31  1  1  0  0  0
 33 32  1  0  0  0  0
 33 30  1  1  0  0  0
 33 37  1  0  0  0  0
 35 38  1  0  0  0  0
 35 36  1  0  0  0  0
 36 32  1  0  0  0  0
 36 34  1  1  0  0  0
 38 37  1  0  0  0  0
 38 40  1  1  0  0  0
 39 40  1  0  0  0  0
 41  1  1  0  0  0  0
 42 45  1  0  0  0  0
 42 43  1  0  0  0  0
 43 46  1  1  0  0  0
 43 44  1  0  0  0  0
 45 41  1  6  0  0  0
 45 43  1  0  0  0  0
 45 44  1  0  0  0  0
 46 47  1  0  0  0  0
 47 48  1  0  0  0  0
 48 49  1  0  0  0  0
 49 50  1  0  0  0  0
 50 53  1  0  0  0  0
 50 51  1  0  0  0  0
 52 50  2  0  0  0  0
M  END
>  <MODEL>
1

>  <REMARK>
 VINA RESULT:      -6.7      0.000      0.000
  Name = 
  19 active torsions:
  status: ('A' for Active; 'I' for Inactive)
    1  A    between atoms: C_1  and  C_19
    2  A    between atoms: C_2  and  C_40
    3  A    between atoms: C_2  and  C_45
    4  A    between atoms: C_7  and  C_11
    5  A    between atoms: C_8  and  N_16
    6  A    between atoms: C_11  and  N_48
    7  A    between atoms: O_15  and  P_21
    8  A    between atoms: O_15  and  C_22
    9  A    between atoms: N_16  and  C_53
   10  A    between atoms: C_17  and  C_52
   11  A    between atoms: C_19  and  N_25
   12  A    between atoms: C_19  and  C_52
   13  A    between atoms: C_22  and  C_45
   14  A    between atoms: N_25  and  C_47
   15  A    between atoms: N_29  and  C_30
   16  A    between atoms: C_32  and  C_49
   17  A    between atoms: C_35  and  C_44
   18  A    between atoms: C_46  and  C_53
   19  A    between atoms: N_48  and  C_49
                            x       y       z     vdW  Elec       q    Type
                         _______ _______ _______ _____ _____    ______ ____

>  <TORSDO>
F 19

$$$$
=
 OpenBabel11042415063D

 53 59  0  0  1  0  0  0  0  0999 V2000
  189.7420  173.8530  142.2370 C   0  0  2  0  0  3  0  0  0  0  0  0
  190.0830  172.9690  141.0640 C   0  0  0  0  0  0  0  0  0  0  0  0
  190.8090  171.3600  138.9170 C   0  0  0  0  0  3  0  0  0  0  0  0
  190.1560  173.5180  139.7770 C   0  0  0  0  0  3  0  0  0  0  0  0
  190.3950  171.6530  141.2480 N   0  0  0  0  0  0  0  0  0  0  0  0
  190.5110  172.7100  138.6910 C   0  0  0  0  0  0  0  0  0  0  0  0
  190.7480  170.8460  140.2140 C   0  0  0  0  0  3  0  0  0  0  0  0
  191.6660  173.0930  136.4460 C   0  0  1  0  0  3  0  0  0  0  0  0
  189.9730  174.1030  135.3010 C   0  0  0  0  0  3  0  0  0  0  0  0
  189.4480  173.8590  136.6940 C   0  0  0  0  0  3  0  0  0  0  0  0
  190.5610  173.2570  137.3630 N   0  0  0  0  0  0  0  0  0  0  0  0
  191.2400  173.4890  135.1600 O   0  0  0  0  0  0  0  0  0  0  0  0
  192.7800  173.9290  136.8660 N   0  0  0  0  0  2  0  0  0  0  0  0
  193.9210  173.0460  137.0790 C   0  0  0  0  0  2  0  0  0  0  0  0
  194.8600  175.1930  139.3850 N   0  0  0  0  0  0  0  0  0  0  0  0
  194.6720  175.8030  140.6880 C   0  0  0  0  0  1  0  0  0  0  0  0
  193.8280  174.2490  139.2200 N   0  0  0  0  0  2  0  0  0  0  0  0
  196.0730  174.4850  139.4340 N   0  0  0  0  0  2  0  0  0  0  0  0
  195.8940  173.3340  138.5750 C   0  0  0  0  0  2  0  0  0  0  0  0
  194.4140  173.1190  138.5230 C   0  0  2  0  0  3  0  0  0  0  0  0
  189.5170  175.3100  141.8350 C   0  0  0  0  0  2  0  0  0  0  0  0
  187.8010  177.0880  142.2720 C   0  0  0  0  0  2  0  0  0  0  0  0
  188.0350  175.6510  141.7800 C   0  0  1  0  0  3  0  0  0  0  0  0
  187.1680  177.8780  141.1270 C   0  0  1  0  0  3  0  0  0  0  0  0
  186.6890  177.1390  138.8760 O   0  0  0  0  0  0  0  0  0  0  0  0
  187.1100  176.8840  140.0350 C   0  0  0  0  0  0  0  0  0  0  0  0
  187.5840  175.6080  140.4030 N   0  0  0  0  0  2  0  0  0  0  0  0
  185.7680  178.3100  141.5290 C   0  0  0  0  0  2  0  0  0  0  0  0
  185.8210  179.0360  142.7890 N   0  0  0  0  0  2  0  0  0  0  0  0
  184.5710  178.7880  143.4880 C   0  0  1  0  0  3  0  0  0  0  0  0
  183.8300  177.8300  142.7910 O   0  0  0  0  0  1  0  0  0  0  0  0
  185.7460  177.0780  144.9170 C   0  0  0  0  0  2  0  0  0  0  0  0
  184.8490  178.3210  144.9180 C   0  0  1  0  0  3  0  0  0  0  0  0
  187.9400  177.3370  146.1060 C   0  0  0  0  0  1  0  0  0  0  0  0
  185.8190  177.5030  147.4380 C   0  0  0  0  0  2  0  0  0  0  0  0
  186.5080  176.8560  146.2330 C   0  0  1  0  0  3  0  0  0  0  0  0
  185.4390  179.4320  145.7820 C   0  0  0  0  0  2  0  0  0  0  0  0
  185.5120  178.9990  147.2500 C   0  0  2  0  0  3  0  0  0  0  0  0
  187.2670  179.0370  148.8680 O   0  0  0  0  0  1  0  0  0  0  0  0
  186.5320  179.8390  147.9960 C   0  0  0  0  0  2  0  0  0  0  0  0
  190.7960  173.7930  143.2390 N   0  0  0  0  0  2  0  0  0  0  0  0
  190.5140  174.8480  145.3310 C   0  0  0  0  0  2  0  0  0  0  0  0
  191.9530  175.1510  145.0120 C   0  0  1  0  0  0  0  0  0  0  0  0
  192.2100  175.6380  143.6130 C   0  0  0  0  0  2  0  0  0  0  0  0
  190.8490  175.0880  143.8940 C   0  0  1  0  0  0  0  0  0  0  0  0
  192.1630  176.4260  145.7960 C   0  0  0  0  0  2  0  0  0  0  0  0
  193.2710  176.2280  146.8160 C   0  0  0  0  0  2  0  0  0  0  0  0
  194.6270  176.3110  146.1380 C   0  0  0  0  0  2  0  0  0  0  0  0
  195.2620  175.0670  146.1940 O   0  0  0  0  0  0  0  0  0  0  0  0
  196.0260  174.8870  144.6890 P   0  0  0  0  0  0  0  0  0  0  0  0
  196.0210  176.2190  143.9690 O   0  0  0  0  0  1  0  0  0  0  0  0
  197.6260  174.3790  144.9120 O   0  0  0  0  0  1  0  0  0  0  0  0
  195.1980  173.7480  143.7510 O   0  0  0  0  0  0  0  0  0  0  0  0
  1 21  1  6  0  0  0
  1 41  1  0  0  0  0
  2  5  1  0  0  0  0
  2  1  1  0  0  0  0
  3  7  1  0  0  0  0
  4  2  2  0  0  0  0
  6  3  2  0  0  0  0
  6  4  1  0  0  0  0
  7  5  2  0  0  0  0
  8 13  1  1  0  0  0
  8 11  1  0  0  0  0
  9 10  2  0  0  0  0
 10 11  1  0  0  0  0
 11  6  1  0  0  0  0
 12  9  1  0  0  0  0
 12  8  1  0  0  0  0
 13 14  1  0  0  0  0
 15 18  1  0  0  0  0
 15 16  1  0  0  0  0
 17 15  1  0  0  0  0
 19 18  1  0  0  0  0
 20 14  1  6  0  0  0
 20 19  1  0  0  0  0
 20 17  1  0  0  0  0
 23 21  1  6  0  0  0
 23 22  1  0  0  0  0
 24 28  1  1  0  0  0
 24 22  1  0  0  0  0
 25 26  2  0  0  0  0
 26 27  1  0  0  0  0
 26 24  1  0  0  0  0
 27 23  1  0  0  0  0
 28 29  1  0  0  0  0
 29 30  1  0  0  0  0
 30 31  1  6  0  0  0
 32 33  1  0  0  0  0
 32 36  1  0  0  0  0
 33 30  1  6  0  0  0
 33 37  1  0  0  0  0
 36 34  1  6  0  0  0
 36 35  1  0  0  0  0
 37 38  1  0  0  0  0
 38 35  1  0  0  0  0
 38 40  1  1  0  0  0
 40 39  1  0  0  0  0
 43 42  1  0  0  0  0
 43 46  1  1  0  0  0
 44 45  1  0  0  0  0
 44 43  1  0  0  0  0
 45 41  1  6  0  0  0
 45 43  1  0  0  0  0
 45 42  1  0  0  0  0
 46 47  1  0  0  0  0
 48 49  1  0  0  0  0
 48 47  1  0  0  0  0
 50 52  1  0  0  0  0
 50 49  1  0  0  0  0
 51 50  1  0  0  0  0
 53 50  2  0  0  0  0
M  END
>  <MODEL>
2

>  <REMARK>
 VINA RESULT:      -6.6      2.929      7.307
  Name = 
  19 active torsions:
  status: ('A' for Active; 'I' for Inactive)
    1  A    between atoms: C_1  and  C_19
    2  A    between atoms: C_2  and  C_40
    3  A    between atoms: C_2  and  C_45
    4  A    between atoms: C_7  and  C_11
    5  A    between atoms: C_8  and  N_16
    6  A    between atoms: C_11  and  N_48
    7  A    between atoms: O_15  and  P_21
    8  A    between atoms: O_15  and  C_22
    9  A    between atoms: N_16  and  C_53
   10  A    between atoms: C_17  and  C_52
   11  A    between atoms: C_19  and  N_25
   12  A    between atoms: C_19  and  C_52
   13  A    between atoms: C_22  and  C_45
   14  A    between atoms: N_25  and  C_47
   15  A    between atoms: N_29  and  C_30
   16  A    between atoms: C_32  and  C_49
   17  A    between atoms: C_35  and  C_44
   18  A    between atoms: C_46  and  C_53
   19  A    between atoms: N_48  and  C_49
                            x       y       z     vdW  Elec       q    Type
                         _______ _______ _______ _____ _____    ______ ____

>  <TORSDO>
F 19

$$$$
=
 OpenBabel11042415063D

 53 59  0  0  1  0  0  0  0  0999 V2000
  188.7590  174.3080  142.1710 C   0  0  2  0  0  3  0  0  0  0  0  0
  190.0100  173.8890  142.9020 C   0  0  0  0  0  0  0  0  0  0  0  0
  192.2840  173.1700  144.3280 C   0  0  0  0  0  3  0  0  0  0  0  0
  191.1580  174.6900  142.8290 C   0  0  0  0  0  3  0  0  0  0  0  0
  190.0180  172.7780  143.6940 N   0  0  0  0  0  0  0  0  0  0  0  0
  192.3090  174.3270  143.5370 C   0  0  0  0  0  0  0  0  0  0  0  0
  191.1190  172.4050  144.3970 C   0  0  0  0  0  3  0  0  0  0  0  0
  194.2930  175.5530  144.5780 C   0  0  1  0  0  3  0  0  0  0  0  0
  195.4320  176.1300  142.6890 C   0  0  0  0  0  3  0  0  0  0  0  0
  194.1790  175.4300  142.2240 C   0  0  0  0  0  3  0  0  0  0  0  0
  193.5000  175.1240  143.4470 N   0  0  0  0  0  0  0  0  0  0  0  0
  195.5270  176.0390  144.0980 O   0  0  0  0  0  0  0  0  0  0  0  0
  193.5980  176.6150  145.2890 N   0  0  0  0  0  2  0  0  0  0  0  0
  193.2520  176.0920  146.6060 C   0  0  0  0  0  2  0  0  0  0  0  0
  190.1850  174.9150  146.7130 N   0  0  0  0  0  0  0  0  0  0  0  0
  189.0050  174.5420  147.4720 C   0  0  0  0  0  1  0  0  0  0  0  0
  191.1400  175.3770  147.6390 N   0  0  0  0  0  2  0  0  0  0  0  0
  189.8240  176.0030  145.9010 N   0  0  0  0  0  2  0  0  0  0  0  0
  191.0120  176.8240  145.7920 C   0  0  0  0  0  2  0  0  0  0  0  0
  191.8290  176.4820  146.9990 C   0  0  2  0  0  3  0  0  0  0  0  0
  188.5170  173.4980  140.8980 C   0  0  0  0  0  2  0  0  0  0  0  0
  190.5350  172.5340  139.7600 C   0  0  0  0  0  2  0  0  0  0  0  0
  189.6020  173.7510  139.8620 C   0  0  1  0  0  3  0  0  0  0  0  0
  190.4610  172.0050  138.3290 C   0  0  1  0  0  3  0  0  0  0  0  0
  189.0750  172.7840  136.5080 O   0  0  0  0  0  0  0  0  0  0  0  0
  189.4710  172.9020  137.6980 C   0  0  0  0  0  0  0  0  0  0  0  0
  188.9900  173.9110  138.5570 N   0  0  0  0  0  2  0  0  0  0  0  0
  191.8190  172.1590  137.6650 C   0  0  0  0  0  2  0  0  0  0  0  0
  192.4290  173.4120  138.0820 N   0  0  0  0  0  2  0  0  0  0  0  0
  192.8510  174.1120  136.8810 C   0  0  1  0  0  3  0  0  0  0  0  0
  191.9650  175.1600  136.6160 O   0  0  0  0  0  1  0  0  0  0  0  0
  194.5340  175.0500  138.5040 C   0  0  0  0  0  2  0  0  0  0  0  0
  194.2770  174.6390  137.0490 C   0  0  1  0  0  3  0  0  0  0  0  0
  196.3890  173.8150  139.6560 C   0  0  0  0  0  1  0  0  0  0  0  0
  196.9490  175.2770  137.6940 C   0  0  0  0  0  2  0  0  0  0  0  0
  196.0200  175.0730  138.8940 C   0  0  1  0  0  3  0  0  0  0  0  0
  195.3220  173.6410  136.5610 C   0  0  0  0  0  2  0  0  0  0  0  0
  196.7170  174.2740  136.5500 C   0  0  2  0  0  3  0  0  0  0  0  0
  197.4900  172.2060  135.6400 O   0  0  0  0  0  1  0  0  0  0  0  0
  197.7850  173.1950  136.5770 C   0  0  0  0  0  2  0  0  0  0  0  0
  188.8210  175.7230  141.8310 N   0  0  0  0  0  2  0  0  0  0  0  0
  186.8030  176.0700  143.0030 C   0  0  0  0  0  2  0  0  0  0  0  0
  187.1460  177.4600  142.5390 C   0  0  1  0  0  0  0  0  0  0  0  0
  187.5590  177.5690  141.0980 C   0  0  0  0  0  2  0  0  0  0  0  0
  187.4570  176.1910  141.6640 C   0  0  1  0  0  0  0  0  0  0  0  0
  185.7770  178.0960  142.4870 C   0  0  0  0  0  2  0  0  0  0  0  0
  185.6920  179.2210  143.5050 C   0  0  0  0  0  2  0  0  0  0  0  0
  184.7210  178.8520  144.6120 C   0  0  0  0  0  2  0  0  0  0  0  0
  185.2160  179.2940  145.8430 O   0  0  0  0  0  0  0  0  0  0  0  0
  185.9400  177.9310  146.5490 P   0  0  0  0  0  0  0  0  0  0  0  0
  187.3730  177.8280  146.0710 O   0  0  0  0  0  0  0  0  0  0  0  0
  185.9240  178.0780  148.2360 O   0  0  0  0  0  1  0  0  0  0  0  0
  185.1050  176.5310  146.0970 O   0  0  0  0  0  1  0  0  0  0  0  0
  1 21  1  6  0  0  0
  1  2  1  0  0  0  0
  2  5  1  0  0  0  0
  3  7  1  0  0  0  0
  4  2  2  0  0  0  0
  4  6  1  0  0  0  0
  5  7  2  0  0  0  0
  6  3  2  0  0  0  0
  8 13  1  6  0  0  0
  9 12  1  0  0  0  0
 10  9  2  0  0  0  0
 10 11  1  0  0  0  0
 11  6  1  0  0  0  0
 11  8  1  0  0  0  0
 12  8  1  0  0  0  0
 13 14  1  0  0  0  0
 15 16  1  0  0  0  0
 15 17  1  0  0  0  0
 18 15  1  0  0  0  0
 19 18  1  0  0  0  0
 19 20  1  0  0  0  0
 20 14  1  6  0  0  0
 20 17  1  0  0  0  0
 22 23  1  0  0  0  0
 23 21  1  1  0  0  0
 24 28  1  6  0  0  0
 24 22  1  0  0  0  0
 25 26  2  0  0  0  0
 26 24  1  0  0  0  0
 26 27  1  0  0  0  0
 27 23  1  0  0  0  0
 28 29  1  0  0  0  0
 30 31  1  1  0  0  0
 30 29  1  0  0  0  0
 32 36  1  0  0  0  0
 33 30  1  1  0  0  0
 33 32  1  0  0  0  0
 35 36  1  0  0  0  0
 36 34  1  6  0  0  0
 37 33  1  0  0  0  0
 38 37  1  0  0  0  0
 38 40  1  1  0  0  0
 38 35  1  0  0  0  0
 39 40  1  0  0  0  0
 41  1  1  0  0  0  0
 43 46  1  6  0  0  0
 43 42  1  0  0  0  0
 44 45  1  0  0  0  0
 44 43  1  0  0  0  0
 45 41  1  1  0  0  0
 45 43  1  0  0  0  0
 45 42  1  0  0  0  0
 46 47  1  0  0  0  0
 47 48  1  0  0  0  0
 48 49  1  0  0  0  0
 49 50  1  0  0  0  0
 50 52  1  0  0  0  0
 51 50  2  0  0  0  0
 53 50  1  0  0  0  0
M  END
>  <MODEL>
3

>  <REMARK>
 VINA RESULT:      -6.5      2.237      6.555
  Name = 
  19 active torsions:
  status: ('A' for Active; 'I' for Inactive)
    1  A    between atoms: C_1  and  C_19
    2  A    between atoms: C_2  and  C_40
    3  A    between atoms: C_2  and  C_45
    4  A    between atoms: C_7  and  C_11
    5  A    between atoms: C_8  and  N_16
    6  A    between atoms: C_11  and  N_48
    7  A    between atoms: O_15  and  P_21
    8  A    between atoms: O_15  and  C_22
    9  A    between atoms: N_16  and  C_53
   10  A    between atoms: C_17  and  C_52
   11  A    between atoms: C_19  and  N_25
   12  A    between atoms: C_19  and  C_52
   13  A    between atoms: C_22  and  C_45
   14  A    between atoms: N_25  and  C_47
   15  A    between atoms: N_29  and  C_30
   16  A    between atoms: C_32  and  C_49
   17  A    between atoms: C_35  and  C_44
   18  A    between atoms: C_46  and  C_53
   19  A    between atoms: N_48  and  C_49
                            x       y       z     vdW  Elec       q    Type
                         _______ _______ _______ _____ _____    ______ ____

>  <TORSDO>
F 19

$$$$
=
 OpenBabel11042415063D

 53 59  0  0  1  0  0  0  0  0999 V2000
  191.0470  172.1350  141.4340 C   0  0  2  0  0  3  0  0  0  0  0  0
  192.1150  172.3820  142.4710 C   0  0  0  0  0  0  0  0  0  0  0  0
  194.0130  172.8850  144.4380 C   0  0  0  0  0  3  0  0  0  0  0  0
  192.8810  173.5540  142.4140 C   0  0  0  0  0  3  0  0  0  0  0  0
  192.2950  171.5140  143.5090 N   0  0  0  0  0  0  0  0  0  0  0  0
  193.8450  173.8070  143.3960 C   0  0  0  0  0  0  0  0  0  0  0  0
  193.2200  171.7370  144.4790 C   0  0  0  0  0  3  0  0  0  0  0  0
  194.8750  175.9010  144.4320 C   0  0  1  0  0  3  0  0  0  0  0  0
  196.2530  176.5420  142.7330 C   0  0  0  0  0  3  0  0  0  0  0  0
  195.5200  175.3210  142.2380 C   0  0  0  0  0  3  0  0  0  0  0  0
  194.6560  174.9910  143.3310 N   0  0  0  0  0  0  0  0  0  0  0  0
  195.9490  176.7540  144.0990 O   0  0  0  0  0  0  0  0  0  0  0  0
  193.6780  176.6960  144.6580 N   0  0  0  0  0  2  0  0  0  0  0  0
  193.5750  176.9160  146.0950 C   0  0  0  0  0  2  0  0  0  0  0  0
  190.4530  175.8880  146.1050 N   0  0  0  0  0  0  0  0  0  0  0  0
  189.4700  174.8430  145.8790 C   0  0  0  0  0  1  0  0  0  0  0  0
  191.7120  175.3440  145.7850 N   0  0  0  0  0  2  0  0  0  0  0  0
  190.4510  176.1630  147.4830 N   0  0  0  0  0  2  0  0  0  0  0  0
  191.8130  176.5230  147.8140 C   0  0  0  0  0  2  0  0  0  0  0  0
  192.6500  175.8900  146.7470 C   0  0  2  0  0  3  0  0  0  0  0  0
  189.7590  171.5720  142.0330 C   0  0  0  0  0  2  0  0  0  0  0  0
  189.0030  173.9460  142.3340 C   0  0  0  0  0  2  0  0  0  0  0  0
  188.5970  172.5410  141.8650 C   0  0  1  0  0  3  0  0  0  0  0  0
  188.8720  174.8940  141.1420 C   0  0  1  0  0  3  0  0  0  0  0  0
  188.2640  174.3670  138.8620 O   0  0  0  0  0  0  0  0  0  0  0  0
  188.4460  173.9920  140.0510 C   0  0  0  0  0  0  0  0  0  0  0  0
  188.2680  172.6540  140.4570 N   0  0  0  0  0  2  0  0  0  0  0  0
  187.7940  175.9230  141.4340 C   0  0  0  0  0  2  0  0  0  0  0  0
  188.4070  177.2190  141.6820 N   0  0  0  0  0  2  0  0  0  0  0  0
  188.7490  177.2780  143.0930 C   0  0  1  0  0  3  0  0  0  0  0  0
  190.0300  177.8160  143.2390 O   0  0  0  0  0  1  0  0  0  0  0  0
  186.7590  178.8070  142.8780 C   0  0  0  0  0  2  0  0  0  0  0  0
  187.7200  178.1160  143.8530 C   0  0  1  0  0  3  0  0  0  0  0  0
  184.3390  178.2020  143.1460 C   0  0  0  0  0  1  0  0  0  0  0  0
  185.4980  179.4040  145.0220 C   0  0  0  0  0  2  0  0  0  0  0  0
  185.4150  179.2090  143.5050 C   0  0  1  0  0  3  0  0  0  0  0  0
  186.9620  177.2950  144.8920 C   0  0  0  0  0  2  0  0  0  0  0  0
  186.0930  178.1990  145.7720 C   0  0  2  0  0  3  0  0  0  0  0  0
  183.8750  178.2020  146.6540 O   0  0  0  0  0  1  0  0  0  0  0  0
  184.9850  177.3920  146.4240 C   0  0  0  0  0  2  0  0  0  0  0  0
  191.5370  171.2200  140.4120 N   0  0  0  0  0  2  0  0  0  0  0  0
  191.8930  172.9350  138.8310 C   0  0  0  0  0  2  0  0  0  0  0  0
  192.2100  171.6970  138.0370 C   0  0  1  0  0  0  0  0  0  0  0  0
  191.2150  170.5780  138.1710 C   0  0  0  0  0  2  0  0  0  0  0  0
  191.0780  171.7170  139.1280 C   0  0  1  0  0  0  0  0  0  0  0  0
  191.9150  172.1690  136.6320 C   0  0  0  0  0  2  0  0  0  0  0  0
  193.1820  172.1270  135.7960 C   0  0  0  0  0  2  0  0  0  0  0  0
  193.4170  173.4730  135.1340 C   0  0  0  0  0  2  0  0  0  0  0  0
  192.5950  174.4400  135.7200 O   0  0  0  0  0  0  0  0  0  0  0  0
  193.6450  175.6770  136.2180 P   0  0  0  0  0  0  0  0  0  0  0  0
  192.9630  177.0140  136.0230 O   0  0  0  0  0  1  0  0  0  0  0  0
  194.0300  175.4800  137.8550 O   0  0  0  0  0  1  0  0  0  0  0  0
  195.0630  175.6400  135.2970 O   0  0  0  0  0  0  0  0  0  0  0  0
  1 21  1  1  0  0  0
  1  2  1  0  0  0  0
  2  5  1  0  0  0  0
  3  7  1  0  0  0  0
  4  2  2  0  0  0  0
  4  6  1  0  0  0  0
  5  7  2  0  0  0  0
  6  3  2  0  0  0  0
  8 13  1  6  0  0  0
  9 12  1  0  0  0  0
 10  9  2  0  0  0  0
 10 11  1  0  0  0  0
 11  6  1  0  0  0  0
 11  8  1  0  0  0  0
 12  8  1  0  0  0  0
 13 14  1  0  0  0  0
 15 18  1  0  0  0  0
 16 15  1  0  0  0  0
 17 15  1  0  0  0  0
 17 20  1  0  0  0  0
 18 19  1  0  0  0  0
 20 14  1  6  0  0  0
 20 19  1  0  0  0  0
 23 21  1  6  0  0  0
 23 22  1  0  0  0  0
 24 28  1  1  0  0  0
 24 22  1  0  0  0  0
 25 26  2  0  0  0  0
 26 27  1  0  0  0  0
 26 24  1  0  0  0  0
 27 23  1  0  0  0  0
 28 29  1  0  0  0  0
 29 30  1  0  0  0  0
 30 31  1  6  0  0  0
 32 36  1  0  0  0  0
 32 33  1  0  0  0  0
 33 30  1  6  0  0  0
 33 37  1  0  0  0  0
 35 38  1  0  0  0  0
 36 34  1  1  0  0  0
 36 35  1  0  0  0  0
 37 38  1  0  0  0  0
 38 40  1  6  0  0  0
 40 39  1  0  0  0  0
 41  1  1  0  0  0  0
 42 45  1  0  0  0  0
 43 46  1  6  0  0  0
 43 44  1  0  0  0  0
 43 42  1  0  0  0  0
 43 45  1  0  0  0  0
 44 45  1  0  0  0  0
 45 41  1  1  0  0  0
 47 46  1  0  0  0  0
 48 49  1  0  0  0  0
 48 47  1  0  0  0  0
 49 50  1  0  0  0  0
 50 52  1  0  0  0  0
 51 50  1  0  0  0  0
 53 50  2  0  0  0  0
M  END
>  <MODEL>
4

>  <REMARK>
 VINA RESULT:      -6.5      3.336      8.742
  Name = 
  19 active torsions:
  status: ('A' for Active; 'I' for Inactive)
    1  A    between atoms: C_1  and  C_19
    2  A    between atoms: C_2  and  C_40
    3  A    between atoms: C_2  and  C_45
    4  A    between atoms: C_7  and  C_11
    5  A    between atoms: C_8  and  N_16
    6  A    between atoms: C_11  and  N_48
    7  A    between atoms: O_15  and  P_21
    8  A    between atoms: O_15  and  C_22
    9  A    between atoms: N_16  and  C_53
   10  A    between atoms: C_17  and  C_52
   11  A    between atoms: C_19  and  N_25
   12  A    between atoms: C_19  and  C_52
   13  A    between atoms: C_22  and  C_45
   14  A    between atoms: N_25  and  C_47
   15  A    between atoms: N_29  and  C_30
   16  A    between atoms: C_32  and  C_49
   17  A    between atoms: C_35  and  C_44
   18  A    between atoms: C_46  and  C_53
   19  A    between atoms: N_48  and  C_49
                            x       y       z     vdW  Elec       q    Type
                         _______ _______ _______ _____ _____    ______ ____

>  <TORSDO>
F 19

$$$$
=
 OpenBabel11042415063D

 53 59  0  0  1  0  0  0  0  0999 V2000
  190.8910  172.5990  142.3470 C   0  0  2  0  0  3  0  0  0  0  0  0
  192.2500  172.0100  142.6360 C   0  0  0  0  0  0  0  0  0  0  0  0
  194.7140  170.8810  143.2500 C   0  0  0  0  0  3  0  0  0  0  0  0
  193.1610  172.7200  143.4290 C   0  0  0  0  0  3  0  0  0  0  0  0
  192.5780  170.7600  142.1960 N   0  0  0  0  0  0  0  0  0  0  0  0
  194.4070  172.1600  143.7330 C   0  0  0  0  0  0  0  0  0  0  0  0
  193.7780  170.1910  142.4790 C   0  0  0  0  0  3  0  0  0  0  0  0
  195.3660  174.3280  144.6840 C   0  0  1  0  0  3  0  0  0  0  0  0
  196.9300  173.4740  146.1070 C   0  0  0  0  0  3  0  0  0  0  0  0
  196.3020  172.2890  145.4160 C   0  0  0  0  0  3  0  0  0  0  0  0
  195.3600  172.8910  144.5220 N   0  0  0  0  0  0  0  0  0  0  0  0
  196.2310  174.6510  145.7510 O   0  0  0  0  0  0  0  0  0  0  0  0
  195.8460  174.9570  143.4640 N   0  0  0  0  0  2  0  0  0  0  0  0
  194.8980  176.0110  143.1240 C   0  0  0  0  0  2  0  0  0  0  0  0
  195.3830  174.6280  140.1820 N   0  0  0  0  0  0  0  0  0  0  0  0
  194.8990  174.2840  138.8570 C   0  0  0  0  0  1  0  0  0  0  0  0
  194.3330  175.2970  140.8420 N   0  0  0  0  0  2  0  0  0  0  0  0
  196.4280  175.5510  140.0100 N   0  0  0  0  0  2  0  0  0  0  0  0
  196.3640  176.4360  141.1550 C   0  0  0  0  0  2  0  0  0  0  0  0
  194.9500  176.3440  141.6350 C   0  0  2  0  0  3  0  0  0  0  0  0
  189.8760  172.3150  143.4530 C   0  0  0  0  0  2  0  0  0  0  0  0
  189.7460  173.5460  145.6360 C   0  0  0  0  0  2  0  0  0  0  0  0
  189.4210  173.5970  144.1350 C   0  0  1  0  0  3  0  0  0  0  0  0
  190.6910  174.7050  145.9500 C   0  0  1  0  0  3  0  0  0  0  0  0
  191.6600  176.3110  144.4250 O   0  0  0  0  0  0  0  0  0  0  0  0
  190.8960  175.3300  144.6260 C   0  0  0  0  0  0  0  0  0  0  0  0
  190.1620  174.7180  143.5900 N   0  0  0  0  0  2  0  0  0  0  0  0
  190.0020  175.6740  146.8960 C   0  0  0  0  0  2  0  0  0  0  0  0
  188.5810  175.3710  146.9580 N   0  0  0  0  0  2  0  0  0  0  0  0
  187.8620  176.6300  146.8510 C   0  0  1  0  0  3  0  0  0  0  0  0
  188.7720  177.6900  146.8690 O   0  0  0  0  0  1  0  0  0  0  0  0
  185.6980  177.3790  145.8030 C   0  0  0  0  0  2  0  0  0  0  0  0
  187.0280  176.6550  145.5680 C   0  0  1  0  0  3  0  0  0  0  0  0
  185.3180  179.4120  144.3830 C   0  0  0  0  0  1  0  0  0  0  0  0
  185.4880  177.1720  143.2620 C   0  0  0  0  0  2  0  0  0  0  0  0
  185.0500  177.9270  144.5210 C   0  0  1  0  0  3  0  0  0  0  0  0
  187.7930  177.2620  144.3960 C   0  0  0  0  0  2  0  0  0  0  0  0
  187.0140  177.0850  143.0880 C   0  0  2  0  0  3  0  0  0  0  0  0
  186.5760  178.1520  140.9980 O   0  0  0  0  0  1  0  0  0  0  0  0
  187.4810  178.0970  142.0570 C   0  0  0  0  0  2  0  0  0  0  0  0
  190.3760  172.0870  141.0850 N   0  0  0  0  0  2  0  0  0  0  0  0
  191.2860  173.3200  139.2910 C   0  0  0  0  0  2  0  0  0  0  0  0
  189.9900  172.8230  138.7110 C   0  0  1  0  0  0  0  0  0  0  0  0
  188.7880  172.9860  139.5980 C   0  0  0  0  0  2  0  0  0  0  0  0
  190.1220  173.2290  140.2240 C   0  0  1  0  0  0  0  0  0  0  0  0
  189.7130  173.8790  137.6660 C   0  0  0  0  0  2  0  0  0  0  0  0
  189.4220  173.2190  136.3300 C   0  0  0  0  0  2  0  0  0  0  0  0
  190.6890  172.6030  135.7630 C   0  0  0  0  0  2  0  0  0  0  0  0
  190.3870  171.3920  135.1320 O   0  0  0  0  0  0  0  0  0  0  0  0
  191.0780  170.1920  136.1140 P   0  0  0  0  0  0  0  0  0  0  0  0
  191.5030  169.0270  135.2460 O   0  0  0  0  0  0  0  0  0  0  0  0
  192.4340  170.8140  136.9160 O   0  0  0  0  0  1  0  0  0  0  0  0
  189.9490  169.6520  137.2510 O   0  0  0  0  0  1  0  0  0  0  0  0
  1  2  1  0  0  0  0
  1 21  1  1  0  0  0
  2  4  1  0  0  0  0
  3  6  1  0  0  0  0
  4  6  2  0  0  0  0
  5  7  1  0  0  0  0
  5  2  2  0  0  0  0
  6 11  1  0  0  0  0
  7  3  2  0  0  0  0
  8 13  1  6  0  0  0
  8 12  1  0  0  0  0
 10  9  2  0  0  0  0
 11  8  1  0  0  0  0
 11 10  1  0  0  0  0
 12  9  1  0  0  0  0
 14 13  1  0  0  0  0
 15 17  1  0  0  0  0
 16 15  1  0  0  0  0
 17 20  1  0  0  0  0
 18 15  1  0  0  0  0
 18 19  1  0  0  0  0
 19 20  1  0  0  0  0
 20 14  1  1  0  0  0
 22 24  1  0  0  0  0
 23 21  1  6  0  0  0
 23 22  1  0  0  0  0
 24 28  1  1  0  0  0
 25 26  2  0  0  0  0
 26 24  1  0  0  0  0
 27 23  1  0  0  0  0
 27 26  1  0  0  0  0
 28 29  1  0  0  0  0
 30 31  1  6  0  0  0
 30 29  1  0  0  0  0
 33 32  1  0  0  0  0
 33 30  1  1  0  0  0
 35 36  1  0  0  0  0
 36 34  1  6  0  0  0
 36 32  1  0  0  0  0
 37 33  1  0  0  0  0
 38 40  1  6  0  0  0
 38 35  1  0  0  0  0
 38 37  1  0  0  0  0
 39 40  1  0  0  0  0
 41  1  1  0  0  0  0
 42 45  1  0  0  0  0
 43 46  1  6  0  0  0
 43 42  1  0  0  0  0
 43 44  1  0  0  0  0
 43 45  1  0  0  0  0
 44 45  1  0  0  0  0
 45 41  1  1  0  0  0
 47 46  1  0  0  0  0
 48 47  1  0  0  0  0
 49 48  1  0  0  0  0
 49 50  1  0  0  0  0
 50 52  1  0  0  0  0
 50 53  1  0  0  0  0
 51 50  2  0  0  0  0
M  END
>  <MODEL>
5

>  <REMARK>
 VINA RESULT:      -6.4      3.099      7.693
  Name = 
  19 active torsions:
  status: ('A' for Active; 'I' for Inactive)
    1  A    between atoms: C_1  and  C_19
    2  A    between atoms: C_2  and  C_40
    3  A    between atoms: C_2  and  C_45
    4  A    between atoms: C_7  and  C_11
    5  A    between atoms: C_8  and  N_16
    6  A    between atoms: C_11  and  N_48
    7  A    between atoms: O_15  and  P_21
    8  A    between atoms: O_15  and  C_22
    9  A    between atoms: N_16  and  C_53
   10  A    between atoms: C_17  and  C_52
   11  A    between atoms: C_19  and  N_25
   12  A    between atoms: C_19  and  C_52
   13  A    between atoms: C_22  and  C_45
   14  A    between atoms: N_25  and  C_47
   15  A    between atoms: N_29  and  C_30
   16  A    between atoms: C_32  and  C_49
   17  A    between atoms: C_35  and  C_44
   18  A    between atoms: C_46  and  C_53
   19  A    between atoms: N_48  and  C_49
                            x       y       z     vdW  Elec       q    Type
                         _______ _______ _______ _____ _____    ______ ____

>  <TORSDO>
F 19

$$$$
=
 OpenBabel11042415063D

 53 59  0  0  1  0  0  0  0  0999 V2000
  190.5870  171.9820  141.9820 C   0  0  2  0  0  3  0  0  0  0  0  0
  191.2650  170.6790  142.3250 C   0  0  0  0  0  0  0  0  0  0  0  0
  192.4390  168.2580  143.0200 C   0  0  0  0  0  3  0  0  0  0  0  0
  192.1600  170.6240  143.4020 C   0  0  0  0  0  3  0  0  0  0  0  0
  190.9630  169.5340  141.6470 N   0  0  0  0  0  0  0  0  0  0  0  0
  192.7610  169.4090  143.7500 C   0  0  0  0  0  0  0  0  0  0  0  0
  191.5280  168.3400  141.9660 C   0  0  0  0  0  3  0  0  0  0  0  0
  194.5130  170.4550  145.2860 C   0  0  1  0  0  3  0  0  0  0  0  0
  194.8070  168.7470  146.7670 C   0  0  0  0  0  3  0  0  0  0  0  0
  193.8180  168.2470  145.7440 C   0  0  0  0  0  3  0  0  0  0  0  0
  193.7020  169.3470  144.8340 N   0  0  0  0  0  0  0  0  0  0  0  0
  195.0700  170.1180  146.5380 O   0  0  0  0  0  0  0  0  0  0  0  0
  195.5810  170.7030  144.3310 N   0  0  0  0  0  2  0  0  0  0  0  0
  196.1940  171.9750  144.6950 C   0  0  0  0  0  2  0  0  0  0  0  0
  196.2110  175.2440  144.3530 N   0  0  0  0  0  0  0  0  0  0  0  0
  196.0470  176.4240  143.5240 C   0  0  0  0  0  1  0  0  0  0  0  0
  195.9910  174.1260  143.5250 N   0  0  0  0  0  2  0  0  0  0  0  0
  195.1810  175.2690  145.3090 N   0  0  0  0  0  2  0  0  0  0  0  0
  194.8450  173.8830  145.5610 C   0  0  0  0  0  2  0  0  0  0  0  0
  195.2870  173.1490  144.3350 C   0  0  2  0  0  3  0  0  0  0  0  0
  189.3000  172.2070  142.7740 C   0  0  0  0  0  2  0  0  0  0  0  0
  190.0220  173.1790  144.9730 C   0  0  0  0  0  2  0  0  0  0  0  0
  189.3750  173.4760  143.6110 C   0  0  1  0  0  3  0  0  0  0  0  0
  191.2860  174.0300  145.0860 C   0  0  1  0  0  3  0  0  0  0  0  0
  192.2520  175.5140  143.4410 O   0  0  0  0  0  0  0  0  0  0  0  0
  191.3280  174.7310  143.7860 C   0  0  0  0  0  0  0  0  0  0  0  0
  190.2340  174.4370  142.9470 N   0  0  0  0  0  2  0  0  0  0  0  0
  191.1220  175.0240  146.2230 C   0  0  0  0  0  2  0  0  0  0  0  0
  189.8110  174.8610  146.8320 N   0  0  0  0  0  2  0  0  0  0  0  0
  189.2020  176.1780  146.9150 C   0  0  1  0  0  3  0  0  0  0  0  0
  190.1620  177.1540  146.6360 O   0  0  0  0  0  1  0  0  0  0  0  0
  186.7690  176.7790  146.6580 C   0  0  0  0  0  2  0  0  0  0  0  0
  188.0280  176.2800  145.9390 C   0  0  1  0  0  3  0  0  0  0  0  0
  185.8170  178.9290  145.7860 C   0  0  0  0  0  1  0  0  0  0  0  0
  185.8370  176.9200  144.2810 C   0  0  0  0  0  2  0  0  0  0  0  0
  185.7280  177.4170  145.7250 C   0  0  1  0  0  3  0  0  0  0  0  0
  188.3580  177.1480  144.7290 C   0  0  0  0  0  2  0  0  0  0  0  0
  187.2460  177.0620  143.6780 C   0  0  2  0  0  3  0  0  0  0  0  0
  186.0480  178.4870  142.1830 O   0  0  0  0  0  1  0  0  0  0  0  0
  187.3000  178.2670  142.7560 C   0  0  0  0  0  2  0  0  0  0  0  0
  190.2850  172.0350  140.5580 N   0  0  0  0  0  2  0  0  0  0  0  0
  192.3540  172.9750  139.9230 C   0  0  0  0  0  2  0  0  0  0  0  0
  191.5760  173.0160  138.6360 C   0  0  1  0  0  0  0  0  0  0  0  0
  190.1720  173.5410  138.7530 C   0  0  0  0  0  2  0  0  0  0  0  0
  190.8880  173.2460  140.0310 C   0  0  1  0  0  0  0  0  0  0  0  0
  192.2490  174.1680  137.9250 C   0  0  0  0  0  2  0  0  0  0  0  0
  193.1280  173.6410  136.8050 C   0  0  0  0  0  2  0  0  0  0  0  0
  194.4900  174.3090  136.8510 C   0  0  0  0  0  2  0  0  0  0  0  0
  194.5250  175.2460  137.8880 O   0  0  0  0  0  0  0  0  0  0  0  0
  195.9260  174.8800  138.7740 P   0  0  0  0  0  0  0  0  0  0  0  0
  197.1410  175.1480  137.9110 O   0  0  0  0  0  0  0  0  0  0  0  0
  196.0010  175.8510  140.1590 O   0  0  0  0  0  1  0  0  0  0  0  0
  195.9170  173.2500  139.2270 O   0  0  0  0  0  1  0  0  0  0  0  0
  1  2  1  0  0  0  0
  1 21  1  1  0  0  0
  2  4  1  0  0  0  0
  3  6  1  0  0  0  0
  4  6  2  0  0  0  0
  5  7  1  0  0  0  0
  5  2  2  0  0  0  0
  6 11  1  0  0  0  0
  7  3  2  0  0  0  0
  8 13  1  6  0  0  0
  8 12  1  0  0  0  0
 10  9  2  0  0  0  0
 11  8  1  0  0  0  0
 11 10  1  0  0  0  0
 12  9  1  0  0  0  0
 13 14  1  0  0  0  0
 15 18  1  0  0  0  0
 16 15  1  0  0  0  0
 17 20  1  0  0  0  0
 17 15  1  0  0  0  0
 18 19  1  0  0  0  0
 20 14  1  1  0  0  0
 20 19  1  0  0  0  0
 22 24  1  0  0  0  0
 23 21  1  6  0  0  0
 23 22  1  0  0  0  0
 24 28  1  1  0  0  0
 25 26  2  0  0  0  0
 26 24  1  0  0  0  0
 27 23  1  0  0  0  0
 27 26  1  0  0  0  0
 28 29  1  0  0  0  0
 29 30  1  0  0  0  0
 30 31  1  6  0  0  0
 33 32  1  0  0  0  0
 33 30  1  1  0  0  0
 35 36  1  0  0  0  0
 36 34  1  6  0  0  0
 36 32  1  0  0  0  0
 37 33  1  0  0  0  0
 38 40  1  1  0  0  0
 38 35  1  0  0  0  0
 38 37  1  0  0  0  0
 39 40  1  0  0  0  0
 41  1  1  0  0  0  0
 42 45  1  0  0  0  0
 43 46  1  1  0  0  0
 43 44  1  0  0  0  0
 43 42  1  0  0  0  0
 43 45  1  0  0  0  0
 44 45  1  0  0  0  0
 45 41  1  1  0  0  0
 47 48  1  0  0  0  0
 47 46  1  0  0  0  0
 48 49  1  0  0  0  0
 49 50  1  0  0  0  0
 50 53  1  0  0  0  0
 50 52  1  0  0  0  0
 51 50  2  0  0  0  0
M  END
>  <MODEL>
6

>  <REMARK>
 VINA RESULT:      -6.3      3.386      7.693
  Name = 
  19 active torsions:
  status: ('A' for Active; 'I' for Inactive)
    1  A    between atoms: C_1  and  C_19
    2  A    between atoms: C_2  and  C_40
    3  A    between atoms: C_2  and  C_45
    4  A    between atoms: C_7  and  C_11
    5  A    between atoms: C_8  and  N_16
    6  A    between atoms: C_11  and  N_48
    7  A    between atoms: O_15  and  P_21
    8  A    between atoms: O_15  and  C_22
    9  A    between atoms: N_16  and  C_53
   10  A    between atoms: C_17  and  C_52
   11  A    between atoms: C_19  and  N_25
   12  A    between atoms: C_19  and  C_52
   13  A    between atoms: C_22  and  C_45
   14  A    between atoms: N_25  and  C_47
   15  A    between atoms: N_29  and  C_30
   16  A    between atoms: C_32  and  C_49
   17  A    between atoms: C_35  and  C_44
   18  A    between atoms: C_46  and  C_53
   19  A    between atoms: N_48  and  C_49
                            x       y       z     vdW  Elec       q    Type
                         _______ _______ _______ _____ _____    ______ ____

>  <TORSDO>
F 19

$$$$
=
 OpenBabel11042415063D

 53 59  0  0  1  0  0  0  0  0999 V2000
  189.5190  174.3390  141.9820 C   0  0  2  0  0  3  0  0  0  0  0  0
  190.0440  173.9550  140.6210 C   0  0  0  0  0  0  0  0  0  0  0  0
  191.0110  173.1510  138.1420 C   0  0  0  0  0  3  0  0  0  0  0  0
  191.4270  173.8760  140.4070 C   0  0  0  0  0  3  0  0  0  0  0  0
  189.1900  173.6110  139.6140 N   0  0  0  0  0  0  0  0  0  0  0  0
  191.9180  173.4810  139.1570 C   0  0  0  0  0  0  0  0  0  0  0  0
  189.6390  173.2190  138.3930 C   0  0  0  0  0  3  0  0  0  0  0  0
  194.0830  172.2100  138.6840 C   0  0  1  0  0  3  0  0  0  0  0  0
  195.4950  173.9620  138.3190 C   0  0  0  0  0  3  0  0  0  0  0  0
  194.1600  174.5690  138.6720 C   0  0  0  0  0  3  0  0  0  0  0  0
  193.3340  173.4250  138.9170 N   0  0  0  0  0  0  0  0  0  0  0  0
  195.3560  172.5600  138.1890 O   0  0  0  0  0  0  0  0  0  0  0  0
  194.2330  171.4800  139.9330 N   0  0  0  0  0  2  0  0  0  0  0  0
  194.5460  170.0990  139.5860 C   0  0  0  0  0  2  0  0  0  0  0  0
  191.4060  169.6420  138.7270 N   0  0  0  0  0  0  0  0  0  0  0  0
  190.3730  168.8210  138.1220 C   0  0  0  0  0  1  0  0  0  0  0  0
  192.6150  168.9280  138.6160 N   0  0  0  0  0  2  0  0  0  0  0  0
  191.1010  169.7440  140.0950 N   0  0  0  0  0  2  0  0  0  0  0  0
  192.3750  169.8160  140.7780 C   0  0  0  0  0  2  0  0  0  0  0  0
  193.3530  169.1800  139.8400 C   0  0  2  0  0  3  0  0  0  0  0  0
  189.6360  173.2080  143.0030 C   0  0  0  0  0  2  0  0  0  0  0  0
  190.7870  175.1220  144.1480 C   0  0  0  0  0  2  0  0  0  0  0  0
  190.5070  173.6110  144.1840 C   0  0  1  0  0  3  0  0  0  0  0  0
  190.2240  175.7330  145.4300 C   0  0  1  0  0  3  0  0  0  0  0  0
  188.9930  174.6420  147.2010 O   0  0  0  0  0  0  0  0  0  0  0  0
  189.6180  174.5690  146.1100 C   0  0  0  0  0  0  0  0  0  0  0  0
  189.7900  173.3530  145.4170 N   0  0  0  0  0  2  0  0  0  0  0  0
  191.3640  176.3000  146.2590 C   0  0  0  0  0  2  0  0  0  0  0  0
  192.6100  175.6460  145.8930 N   0  0  0  0  0  2  0  0  0  0  0  0
  193.6590  176.6510  145.9380 C   0  0  1  0  0  3  0  0  0  0  0  0
  193.7780  177.1430  147.2400 O   0  0  0  0  0  1  0  0  0  0  0  0
  195.3360  174.8010  146.2750 C   0  0  0  0  0  2  0  0  0  0  0  0
  194.9850  176.0530  145.4620 C   0  0  1  0  0  3  0  0  0  0  0  0
  195.5570  172.6860  144.9460 C   0  0  0  0  0  1  0  0  0  0  0  0
  197.1810  174.5530  144.5210 C   0  0  0  0  0  2  0  0  0  0  0  0
  196.3090  173.8470  145.5640 C   0  0  1  0  0  3  0  0  0  0  0  0
  194.9810  175.7610  143.9650 C   0  0  0  0  0  2  0  0  0  0  0  0
  196.3800  175.3610  143.4850 C   0  0  2  0  0  3  0  0  0  0  0  0
  195.0060  174.0680  142.0220 O   0  0  0  0  0  1  0  0  0  0  0  0
  196.2890  174.5910  142.1800 C   0  0  0  0  0  2  0  0  0  0  0  0
  188.1270  174.7540  141.8880 N   0  0  0  0  0  2  0  0  0  0  0  0
  187.4300  176.8430  141.0410 C   0  0  0  0  0  2  0  0  0  0  0  0
  186.5970  176.7100  142.2870 C   0  0  1  0  0  0  0  0  0  0  0  0
  187.3460  176.2680  143.5130 C   0  0  0  0  0  2  0  0  0  0  0  0
  188.0720  176.1690  142.2110 C   0  0  1  0  0  0  0  0  0  0  0  0
  186.3410  178.1610  142.6230 C   0  0  0  0  0  2  0  0  0  0  0  0
  184.8470  178.4080  142.7390 C   0  0  0  0  0  2  0  0  0  0  0  0
  184.4580  178.5850  144.1960 C   0  0  0  0  0  2  0  0  0  0  0  0
  185.5050  179.1910  144.8970 O   0  0  0  0  0  0  0  0  0  0  0  0
  185.4740  178.4890  146.4410 P   0  0  0  0  0  0  0  0  0  0  0  0
  184.0630  178.0360  146.7510 O   0  0  0  0  0  1  0  0  0  0  0  0
  186.5130  177.1530  146.4880 O   0  0  0  0  0  0  0  0  0  0  0  0
  185.9580  179.6210  147.6030 O   0  0  0  0  0  1  0  0  0  0  0  0
  1 21  1  1  0  0  0
  2  1  1  0  0  0  0
  3  7  2  0  0  0  0
  3  6  1  0  0  0  0
  4  2  1  0  0  0  0
  5  2  2  0  0  0  0
  6  4  2  0  0  0  0
  7  5  1  0  0  0  0
  8 11  1  0  0  0  0
  8 13  1  1  0  0  0
  9 10  2  0  0  0  0
 10 11  1  0  0  0  0
 11  6  1  0  0  0  0
 12  9  1  0  0  0  0
 12  8  1  0  0  0  0
 14 13  1  0  0  0  0
 15 18  1  0  0  0  0
 16 15  1  0  0  0  0
 17 15  1  0  0  0  0
 17 20  1  0  0  0  0
 18 19  1  0  0  0  0
 20 14  1  6  0  0  0
 20 19  1  0  0  0  0
 22 23  1  0  0  0  0
 22 24  1  0  0  0  0
 23 21  1  6  0  0  0
 23 27  1  0  0  0  0
 24 26  1  0  0  0  0
 24 28  1  1  0  0  0
 26 25  2  0  0  0  0
 27 26  1  0  0  0  0
 29 30  1  0  0  0  0
 29 28  1  0  0  0  0
 30 31  1  1  0  0  0
 33 30  1  1  0  0  0
 33 32  1  0  0  0  0
 35 36  1  0  0  0  0
 36 34  1  6  0  0  0
 36 32  1  0  0  0  0
 37 33  1  0  0  0  0
 38 40  1  6  0  0  0
 38 37  1  0  0  0  0
 38 35  1  0  0  0  0
 39 40  1  0  0  0  0
 41  1  1  0  0  0  0
 42 45  1  0  0  0  0
 42 43  1  0  0  0  0
 43 46  1  1  0  0  0
 43 44  1  0  0  0  0
 45 41  1  6  0  0  0
 45 43  1  0  0  0  0
 45 44  1  0  0  0  0
 46 47  1  0  0  0  0
 47 48  1  0  0  0  0
 48 49  1  0  0  0  0
 49 50  1  0  0  0  0
 50 52  2  0  0  0  0
 50 51  1  0  0  0  0
 50 53  1  0  0  0  0
M  END
>  <MODEL>
7

>  <REMARK>
 VINA RESULT:      -6.3      1.609      3.219
  Name = 
  19 active torsions:
  status: ('A' for Active; 'I' for Inactive)
    1  A    between atoms: C_1  and  C_19
    2  A    between atoms: C_2  and  C_40
    3  A    between atoms: C_2  and  C_45
    4  A    between atoms: C_7  and  C_11
    5  A    between atoms: C_8  and  N_16
    6  A    between atoms: C_11  and  N_48
    7  A    between atoms: O_15  and  P_21
    8  A    between atoms: O_15  and  C_22
    9  A    between atoms: N_16  and  C_53
   10  A    between atoms: C_17  and  C_52
   11  A    between atoms: C_19  and  N_25
   12  A    between atoms: C_19  and  C_52
   13  A    between atoms: C_22  and  C_45
   14  A    between atoms: N_25  and  C_47
   15  A    between atoms: N_29  and  C_30
   16  A    between atoms: C_32  and  C_49
   17  A    between atoms: C_35  and  C_44
   18  A    between atoms: C_46  and  C_53
   19  A    between atoms: N_48  and  C_49
                            x       y       z     vdW  Elec       q    Type
                         _______ _______ _______ _____ _____    ______ ____

>  <TORSDO>
F 19

$$$$
=
 OpenBabel11042415063D

 53 59  0  0  1  0  0  0  0  0999 V2000
  189.6180  174.1210  141.7540 C   0  0  2  0  0  3  0  0  0  0  0  0
  189.2000  175.5530  141.9740 C   0  0  0  0  0  0  0  0  0  0  0  0
  188.4010  178.1680  142.4720 C   0  0  0  0  0  3  0  0  0  0  0  0
  187.8840  175.9430  141.6930 C   0  0  0  0  0  3  0  0  0  0  0  0
  190.0660  176.4600  142.5130 N   0  0  0  0  0  0  0  0  0  0  0  0
  187.4790  177.2620  141.9330 C   0  0  0  0  0  0  0  0  0  0  0  0
  189.7000  177.7440  142.7610 C   0  0  0  0  0  3  0  0  0  0  0  0
  185.2940  178.4560  142.5000 C   0  0  1  0  0  3  0  0  0  0  0  0
  184.2240  178.2890  140.4940 C   0  0  0  0  0  3  0  0  0  0  0  0
  185.5370  177.5650  140.3280 C   0  0  0  0  0  3  0  0  0  0  0  0
  186.1400  177.6800  141.6220 N   0  0  0  0  0  0  0  0  0  0  0  0
  184.1960  178.9330  141.7540 O   0  0  0  0  0  0  0  0  0  0  0  0
  184.8140  177.6170  143.5860 N   0  0  0  0  0  2  0  0  0  0  0  0
  184.3620  178.5070  144.6480 C   0  0  0  0  0  2  0  0  0  0  0  0
  186.6300  178.5030  147.0270 N   0  0  0  0  0  0  0  0  0  0  0  0
  187.0200  178.7880  148.3960 C   0  0  0  0  0  1  0  0  0  0  0  0
  185.2860  178.8990  146.8910 N   0  0  0  0  0  2  0  0  0  0  0  0
  186.6760  177.1070  146.8700 N   0  0  0  0  0  2  0  0  0  0  0  0
  185.6240  176.7820  145.9300 C   0  0  0  0  0  2  0  0  0  0  0  0
  184.6560  177.9190  146.0260 C   0  0  2  0  0  3  0  0  0  0  0  0
  188.6430  173.3480  140.8680 C   0  0  0  0  0  2  0  0  0  0  0  0
  190.7420  173.4360  139.4950 C   0  0  0  0  0  2  0  0  0  0  0  0
  189.2740  172.9810  139.5330 C   0  0  1  0  0  3  0  0  0  0  0  0
  191.6120  172.1960  139.2950 C   0  0  1  0  0  3  0  0  0  0  0  0
  190.9240  169.8820  139.1720 O   0  0  0  0  0  0  0  0  0  0  0  0
  190.6200  171.1000  139.2730 C   0  0  0  0  0  0  0  0  0  0  0  0
  189.2860  171.5380  139.3890 N   0  0  0  0  0  2  0  0  0  0  0  0
  192.3280  172.2930  137.9590 C   0  0  0  0  0  2  0  0  0  0  0  0
  193.5040  173.1400  138.0930 N   0  0  0  0  0  2  0  0  0  0  0  0
  194.3440  172.5590  139.1270 C   0  0  1  0  0  3  0  0  0  0  0  0
  195.0420  171.4690  138.6020 O   0  0  0  0  0  1  0  0  0  0  0  0
  194.6960  175.0110  139.5850 C   0  0  0  0  0  2  0  0  0  0  0  0
  195.3120  173.6090  139.6730 C   0  0  1  0  0  3  0  0  0  0  0  0
  194.4260  176.2050  141.7740 C   0  0  0  0  0  1  0  0  0  0  0  0
  196.7430  175.6660  140.9720 C   0  0  0  0  0  2  0  0  0  0  0  0
  195.3140  176.0280  140.5580 C   0  0  1  0  0  3  0  0  0  0  0  0
  195.7670  173.2910  141.0950 C   0  0  0  0  0  2  0  0  0  0  0  0
  196.8860  174.2400  141.5340 C   0  0  2  0  0  3  0  0  0  0  0  0
  197.4220  175.5360  143.4660 O   0  0  0  0  0  1  0  0  0  0  0  0
  196.9750  174.2830  143.0490 C   0  0  0  0  0  2  0  0  0  0  0  0
  189.7510  173.4320  143.0310 N   0  0  0  0  0  2  0  0  0  0  0  0
  192.0830  173.6240  142.7310 C   0  0  0  0  0  2  0  0  0  0  0  0
  191.9860  173.0460  144.1170 C   0  0  1  0  0  0  0  0  0  0  0  0
  191.0350  171.8910  144.2630 C   0  0  0  0  0  2  0  0  0  0  0  0
  190.9750  172.6520  142.9790 C   0  0  1  0  0  0  0  0  0  0  0  0
  193.3140  172.3320  144.2290 C   0  0  0  0  0  2  0  0  0  0  0  0
  194.0240  172.7610  145.5010 C   0  0  0  0  0  2  0  0  0  0  0  0
  193.6140  174.1730  145.8790 C   0  0  0  0  0  2  0  0  0  0  0  0
  194.5630  175.0850  145.4070 O   0  0  0  0  0  0  0  0  0  0  0  0
  193.8860  176.6170  145.6830 P   0  0  0  0  0  0  0  0  0  0  0  0
  194.9460  177.6740  145.4610 O   0  0  0  0  0  1  0  0  0  0  0  0
  192.6020  176.8800  144.6120 O   0  0  0  0  0  0  0  0  0  0  0  0
  193.3240  176.7240  147.2750 O   0  0  0  0  0  1  0  0  0  0  0  0
  1 21  1  6  0  0  0
  1  2  1  0  0  0  0
  1 41  1  0  0  0  0
  2  5  1  0  0  0  0
  3  7  1  0  0  0  0
  4  6  1  0  0  0  0
  4  2  2  0  0  0  0
  5  7  2  0  0  0  0
  6  3  2  0  0  0  0
  8 13  1  1  0  0  0
  9 12  1  0  0  0  0
 10  9  2  0  0  0  0
 10 11  1  0  0  0  0
 11  6  1  0  0  0  0
 11  8  1  0  0  0  0
 12  8  1  0  0  0  0
 13 14  1  0  0  0  0
 15 16  1  0  0  0  0
 17 15  1  0  0  0  0
 18 15  1  0  0  0  0
 19 20  1  0  0  0  0
 19 18  1  0  0  0  0
 20 14  1  6  0  0  0
 20 17  1  0  0  0  0
 22 23  1  0  0  0  0
 23 21  1  1  0  0  0
 24 28  1  6  0  0  0
 24 22  1  0  0  0  0
 25 26  2  0  0  0  0
 26 24  1  0  0  0  0
 26 27  1  0  0  0  0
 27 23  1  0  0  0  0
 28 29  1  0  0  0  0
 29 30  1  0  0  0  0
 30 31  1  6  0  0  0
 32 33  1  0  0  0  0
 32 36  1  0  0  0  0
 33 30  1  1  0  0  0
 33 37  1  0  0  0  0
 35 38  1  0  0  0  0
 36 35  1  0  0  0  0
 36 34  1  1  0  0  0
 37 38  1  0  0  0  0
 38 40  1  1  0  0  0
 40 39  1  0  0  0  0
 42 45  1  0  0  0  0
 42 43  1  0  0  0  0
 43 46  1  6  0  0  0
 43 44  1  0  0  0  0
 45 41  1  1  0  0  0
 45 43  1  0  0  0  0
 45 44  1  0  0  0  0
 46 47  1  0  0  0  0
 47 48  1  0  0  0  0
 49 50  1  0  0  0  0
 49 48  1  0  0  0  0
 50 53  1  0  0  0  0
 51 50  1  0  0  0  0
 52 50  2  0  0  0  0
M  END
>  <MODEL>
8

>  <REMARK>
 VINA RESULT:      -6.3      2.867      8.334
  Name = 
  19 active torsions:
  status: ('A' for Active; 'I' for Inactive)
    1  A    between atoms: C_1  and  C_19
    2  A    between atoms: C_2  and  C_40
    3  A    between atoms: C_2  and  C_45
    4  A    between atoms: C_7  and  C_11
    5  A    between atoms: C_8  and  N_16
    6  A    between atoms: C_11  and  N_48
    7  A    between atoms: O_15  and  P_21
    8  A    between atoms: O_15  and  C_22
    9  A    between atoms: N_16  and  C_53
   10  A    between atoms: C_17  and  C_52
   11  A    between atoms: C_19  and  N_25
   12  A    between atoms: C_19  and  C_52
   13  A    between atoms: C_22  and  C_45
   14  A    between atoms: N_25  and  C_47
   15  A    between atoms: N_29  and  C_30
   16  A    between atoms: C_32  and  C_49
   17  A    between atoms: C_35  and  C_44
   18  A    between atoms: C_46  and  C_53
   19  A    between atoms: N_48  and  C_49
                            x       y       z     vdW  Elec       q    Type
                         _______ _______ _______ _____ _____    ______ ____

>  <TORSDO>
F 19

$$$$
=
 OpenBabel11042415063D

 53 59  0  0  1  0  0  0  0  0999 V2000
  189.6050  173.8870  142.5690 C   0  0  2  0  0  3  0  0  0  0  0  0
  189.9730  172.8770  141.5120 C   0  0  0  0  0  0  0  0  0  0  0  0
  190.7490  171.0330  139.5830 C   0  0  0  0  0  3  0  0  0  0  0  0
  190.1730  173.2970  140.1900 C   0  0  0  0  0  3  0  0  0  0  0  0
  190.1870  171.5690  141.8390 N   0  0  0  0  0  0  0  0  0  0  0  0
  190.5540  172.3700  139.2130 C   0  0  0  0  0  0  0  0  0  0  0  0
  190.5620  170.6490  140.9120 C   0  0  0  0  0  3  0  0  0  0  0  0
  192.0090  173.0940  137.2420 C   0  0  1  0  0  3  0  0  0  0  0  0
  190.4440  173.1110  135.5850 C   0  0  0  0  0  3  0  0  0  0  0  0
  189.7080  172.7460  136.8500 C   0  0  0  0  0  3  0  0  0  0  0  0
  190.7340  172.7830  137.8480 N   0  0  0  0  0  0  0  0  0  0  0  0
  191.8340  173.1550  135.8440 O   0  0  0  0  0  0  0  0  0  0  0  0
  192.4830  174.3810  137.7280 N   0  0  0  0  0  2  0  0  0  0  0  0
  193.6850  174.1260  138.5130 C   0  0  0  0  0  2  0  0  0  0  0  0
  196.6730  174.8900  137.3780 N   0  0  0  0  0  0  0  0  0  0  0  0
  197.5240  175.6680  136.4950 C   0  0  0  0  0  1  0  0  0  0  0  0
  195.3460  175.2900  137.1260 N   0  0  0  0  0  2  0  0  0  0  0  0
  196.9860  175.2730  138.6930 N   0  0  0  0  0  2  0  0  0  0  0  0
  195.7490  175.1710  139.4380 C   0  0  0  0  0  2  0  0  0  0  0  0
  194.6690  175.2890  138.4090 C   0  0  2  0  0  3  0  0  0  0  0  0
  189.6590  173.3110  143.9830 C   0  0  0  0  0  2  0  0  0  0  0  0
  191.4690  175.0490  143.9970 C   0  0  0  0  0  2  0  0  0  0  0  0
  190.8070  173.9070  144.7850 C   0  0  1  0  0  3  0  0  0  0  0  0
  191.3350  176.3280  144.8240 C   0  0  1  0  0  3  0  0  0  0  0  0
  190.2040  176.6390  146.9370 O   0  0  0  0  0  0  0  0  0  0  0  0
  190.5750  175.8740  146.0080 C   0  0  0  0  0  0  0  0  0  0  0  0
  190.2860  174.4940  146.0040 N   0  0  0  0  0  2  0  0  0  0  0  0
  192.7170  176.8110  145.2310 C   0  0  0  0  0  2  0  0  0  0  0  0
  193.6970  175.7660  144.9760 N   0  0  0  0  0  2  0  0  0  0  0  0
  194.9190  176.4130  144.5310 C   0  0  1  0  0  3  0  0  0  0  0  0
  195.2150  177.4830  145.3800 O   0  0  0  0  0  1  0  0  0  0  0  0
  196.0560  174.5360  145.7680 C   0  0  0  0  0  2  0  0  0  0  0  0
  196.0710  175.4080  144.5060 C   0  0  1  0  0  3  0  0  0  0  0  0
  195.7980  172.0740  145.3670 C   0  0  0  0  0  1  0  0  0  0  0  0
  197.8590  173.2250  144.5140 C   0  0  0  0  0  2  0  0  0  0  0  0
  196.7890  173.1950  145.6090 C   0  0  1  0  0  3  0  0  0  0  0  0
  196.0660  174.5550  143.2410 C   0  0  0  0  0  2  0  0  0  0  0  0
  197.3390  173.7090  143.1490 C   0  0  2  0  0  3  0  0  0  0  0  0
  195.7810  172.4650  141.8360 O   0  0  0  0  0  1  0  0  0  0  0  0
  197.1180  172.5250  142.2250 C   0  0  0  0  0  2  0  0  0  0  0  0
  188.2700  174.4160  142.3210 N   0  0  0  0  0  2  0  0  0  0  0  0
  187.6250  176.2070  140.9270 C   0  0  0  0  0  2  0  0  0  0  0  0
  187.0090  176.5900  142.2450 C   0  0  1  0  0  0  0  0  0  0  0  0
  187.9140  176.4570  143.4380 C   0  0  0  0  0  2  0  0  0  0  0  0
  188.3960  175.8530  142.1580 C   0  0  1  0  0  0  0  0  0  0  0  0
  186.9420  178.0940  142.1100 C   0  0  0  0  0  2  0  0  0  0  0  0
  185.4920  178.5480  142.1100 C   0  0  0  0  0  2  0  0  0  0  0  0
  185.1010  179.0450  143.4900 C   0  0  0  0  0  2  0  0  0  0  0  0
  184.4650  178.0220  144.2010 O   0  0  0  0  0  0  0  0  0  0  0  0
  185.0510  178.1500  145.7880 P   0  0  0  0  0  0  0  0  0  0  0  0
  185.9320  179.3760  145.8940 O   0  0  0  0  0  0  0  0  0  0  0  0
  183.7570  178.2980  146.8700 O   0  0  0  0  0  1  0  0  0  0  0  0
  185.9610  176.7790  146.1830 O   0  0  0  0  0  1  0  0  0  0  0  0
  1 21  1  1  0  0  0
  2  5  1  0  0  0  0
  2  1  1  0  0  0  0
  3  7  1  0  0  0  0
  4  2  2  0  0  0  0
  6  3  2  0  0  0  0
  6  4  1  0  0  0  0
  7  5  2  0  0  0  0
  8 13  1  1  0  0  0
  8 11  1  0  0  0  0
  9 12  1  0  0  0  0
  9 10  2  0  0  0  0
 10 11  1  0  0  0  0
 11  6  1  0  0  0  0
 12  8  1  0  0  0  0
 13 14  1  0  0  0  0
 15 18  1  0  0  0  0
 16 15  1  0  0  0  0
 17 15  1  0  0  0  0
 17 20  1  0  0  0  0
 18 19  1  0  0  0  0
 20 14  1  6  0  0  0
 20 19  1  0  0  0  0
 22 23  1  0  0  0  0
 22 24  1  0  0  0  0
 23 21  1  6  0  0  0
 23 27  1  0  0  0  0
 24 28  1  1  0  0  0
 24 26  1  0  0  0  0
 26 25  2  0  0  0  0
 27 26  1  0  0  0  0
 29 28  1  0  0  0  0
 30 29  1  0  0  0  0
 30 31  1  1  0  0  0
 33 30  1  6  0  0  0
 33 32  1  0  0  0  0
 35 36  1  0  0  0  0
 36 34  1  6  0  0  0
 36 32  1  0  0  0  0
 37 33  1  0  0  0  0
 38 40  1  6  0  0  0
 38 37  1  0  0  0  0
 38 35  1  0  0  0  0
 39 40  1  0  0  0  0
 41  1  1  0  0  0  0
 42 45  1  0  0  0  0
 42 43  1  0  0  0  0
 43 46  1  6  0  0  0
 43 44  1  0  0  0  0
 45 43  1  0  0  0  0
 45 41  1  1  0  0  0
 45 44  1  0  0  0  0
 47 46  1  0  0  0  0
 47 48  1  0  0  0  0
 48 49  1  0  0  0  0
 49 50  1  0  0  0  0
 50 51  2  0  0  0  0
 50 53  1  0  0  0  0
 50 52  1  0  0  0  0
M  END
>  <MODEL>
9

>  <REMARK>
 VINA RESULT:      -6.3      1.751      2.341
  Name = 
  19 active torsions:
  status: ('A' for Active; 'I' for Inactive)
    1  A    between atoms: C_1  and  C_19
    2  A    between atoms: C_2  and  C_40
    3  A    between atoms: C_2  and  C_45
    4  A    between atoms: C_7  and  C_11
    5  A    between atoms: C_8  and  N_16
    6  A    between atoms: C_11  and  N_48
    7  A    between atoms: O_15  and  P_21
    8  A    between atoms: O_15  and  C_22
    9  A    between atoms: N_16  and  C_53
   10  A    between atoms: C_17  and  C_52
   11  A    between atoms: C_19  and  N_25
   12  A    between atoms: C_19  and  C_52
   13  A    between atoms: C_22  and  C_45
   14  A    between atoms: N_25  and  C_47
   15  A    between atoms: N_29  and  C_30
   16  A    between atoms: C_32  and  C_49
   17  A    between atoms: C_35  and  C_44
   18  A    between atoms: C_46  and  C_53
   19  A    between atoms: N_48  and  C_49
                            x       y       z     vdW  Elec       q    Type
                         _______ _______ _______ _____ _____    ______ ____

>  <TORSDO>
F 19

$$$$
