=
 OpenBabel11042414533D

 32 36  0  0  1  0  0  0  0  0999 V2000
  188.4150  175.6750  141.3720 C   0  0  0  0  0  0  0  0  0  0  0  0
  189.7670  174.2100  142.5690 C   0  0  2  0  0  3  0  0  0  0  0  0
  188.2710  176.1170  143.5920 N   0  0  0  0  0  0  0  0  0  0  0  0
  189.9710  172.7040  140.6620 O   0  0  0  0  0  0  0  0  0  0  0  0
  188.9800  175.4810  142.5320 C   0  0  2  0  0  3  0  0  0  0  0  0
  186.7180  177.2540  140.7100 N   0  0  0  0  0  1  0  0  0  0  0  0
  187.2620  176.7220  143.0380 C   0  0  0  0  0  0  0  0  0  0  0  0
  187.2090  176.4440  141.5900 C   0  0  0  0  0  0  0  0  0  0  0  0
  188.6230  174.6240  140.4440 N   0  0  0  0  0  2  0  0  0  0  0  0
  189.4890  173.7520  141.1690 C   0  0  0  0  0  0  0  0  0  0  0  0
  185.0500  177.7360  143.3180 C   0  0  0  0  0  3  0  0  0  0  0  0
  184.0470  178.5840  144.0120 C   0  0  0  0  0  3  0  0  0  0  0  0
  187.5030  177.5550  146.0600 C   0  0  0  0  0  3  0  0  0  0  0  0
  184.2790  179.0580  145.2420 C   0  0  0  0  0  3  0  0  0  0  0  0
  185.7220  178.3420  147.1000 C   0  0  0  0  0  2  0  0  0  0  0  0
  185.5700  178.7370  145.8510 C   0  0  1  0  0  3  0  0  0  0  0  0
  186.7380  178.3200  145.0290 C   0  0  2  0  0  3  0  0  0  0  0  0
  186.9470  177.6300  147.2270 N   0  0  0  0  0  0  0  0  0  0  0  0
  186.2900  177.5300  143.8100 C   0  0  0  0  0  0  0  0  0  0  0  0
  189.1580  173.2370  143.5660 C   0  0  0  0  0  2  0  0  0  0  0  0
  189.7680  173.8700  145.8270 C   0  0  0  0  0  0  0  0  0  0  0  0
  189.5220  174.5770  146.8990 C   0  0  0  0  0  3  0  0  0  0  0  0
  190.0290  173.1570  144.7680 C   0  0  0  0  0  3  0  0  0  0  0  0
  190.5020  175.5520  147.4950 C   0  0  0  0  0  2  0  0  0  0  0  0
  191.9540  175.3240  147.0760 C   0  0  0  0  0  2  0  0  0  0  0  0
  192.4910  176.5200  146.4330 N   0  0  0  0  0  0  0  0  0  0  0  0
  193.0830  175.4000  144.2890 C   0  0  0  0  0  2  0  0  0  0  0  0
  194.4950  175.6840  144.5200 N   0  0  0  0  0  0  0  0  0  0  0  0
  192.2240  176.4590  144.9900 C   0  0  0  0  0  2  0  0  0  0  0  0
  193.9310  176.6280  146.7060 C   0  0  0  0  0  2  0  0  0  0  0  0
  195.3900  174.4050  143.7510 Cl  0  0  0  0  0  0  0  0  0  0  0  0
  194.7390  175.5630  145.9520 C   0  0  0  0  0  2  0  0  0  0  0  0
  1  8  2  0  0  0  0
  2 20  1  1  0  0  0
  4 10  2  0  0  0  0
  5  1  1  6  0  0  0
  5  2  1  0  0  0  0
  5  3  1  0  0  0  0
  6  8  1  0  0  0  0
  7  3  2  0  0  0  0
  7 19  1  0  0  0  0
  8  7  1  0  0  0  0
  9 10  1  0  0  0  0
  9  1  1  0  0  0  0
 10  2  1  0  0  0  0
 11 19  2  0  0  0  0
 11 12  1  0  0  0  0
 12 14  2  0  0  0  0
 13 18  2  0  0  0  0
 15 18  1  0  0  0  0
 16 14  1  6  0  0  0
 16 15  1  0  0  0  0
 17 16  1  0  0  0  0
 17 13  1  1  0  0  0
 19 17  1  0  0  0  0
 20 23  1  0  0  0  0
 21 22  2  0  0  0  0
 22 24  1  0  0  0  0
 23 21  2  0  0  0  0
 25 24  1  0  0  0  0
 26 30  1  0  0  0  0
 26 25  1  0  0  0  0
 27 28  1  0  0  0  0
 27 29  1  0  0  0  0
 28 32  1  0  0  0  0
 29 26  1  0  0  0  0
 31 28  1  0  0  0  0
 32 30  1  0  0  0  0
M  END
>  <MODEL>
1

>  <REMARK>
 VINA RESULT:      -8.2      0.000      0.000
  Name = 
  6 active torsions:
  status: ('A' for Active; 'I' for Inactive)
    1  A    between atoms: N_2  and  C_13
    2  A    between atoms: C_3  and  C_18
    3  A    between atoms: C_9  and  C_29
    4  A    between atoms: C_13  and  C_29
    5  A    between atoms: C_18  and  C_24
    6  A    between atoms: C_21  and  C_30
                            x       y       z     vdW  Elec       q    Type
                         _______ _______ _______ _____ _____    ______ ____

>  <TORSDO>
F 6

$$$$
=
 OpenBabel11042414533D

 32 36  0  0  1  0  0  0  0  0999 V2000
  189.3250  173.8620  141.8350 C   0  0  0  0  0  0  0  0  0  0  0  0
  187.5930  175.1770  141.0130 C   0  0  2  0  0  3  0  0  0  0  0  0
  188.5780  175.2700  143.4500 N   0  0  0  0  0  0  0  0  0  0  0  0
  188.1500  174.6180  138.7060 O   0  0  0  0  0  0  0  0  0  0  0  0
  188.3430  174.6450  142.1910 C   0  0  0  0  0  0  0  0  0  0  0  0
  191.1620  172.9830  143.1250 N   0  0  0  0  0  2  0  0  0  0  0  0
  189.7310  174.8300  143.8610 C   0  0  0  0  0  0  0  0  0  0  0  0
  190.3530  173.9530  142.8500 C   0  0  0  0  0  0  0  0  0  0  0  0
  189.4930  173.7460  140.4340 N   0  0  0  0  0  2  0  0  0  0  0  0
  188.4010  174.5170  139.9360 C   0  0  0  0  0  0  0  0  0  0  0  0
  189.8610  174.6740  146.3020 C   0  0  0  0  0  3  0  0  0  0  0  0
  190.3700  175.0700  147.6400 C   0  0  0  0  0  3  0  0  0  0  0  0
  192.4260  176.3900  144.2900 C   0  0  0  0  0  3  0  0  0  0  0  0
  191.4260  175.8820  147.7630 C   0  0  0  0  0  3  0  0  0  0  0  0
  193.3270  176.4410  146.3050 C   0  0  0  0  0  2  0  0  0  0  0  0
  192.0280  176.3900  146.5310 C   0  0  1  0  0  3  0  0  0  0  0  0
  191.2770  176.4050  145.2450 C   0  0  2  0  0  3  0  0  0  0  0  0
  193.5640  176.4700  144.9030 N   0  0  0  0  0  0  0  0  0  0  0  0
  190.3240  175.2260  145.1600 C   0  0  0  0  0  0  0  0  0  0  0  0
  187.7450  176.6870  140.9250 C   0  0  0  0  0  2  0  0  0  0  0  0
  186.0360  178.1360  141.8580 C   0  0  0  0  0  0  0  0  0  0  0  0
  185.6560  178.9610  142.7990 C   0  0  0  0  0  3  0  0  0  0  0  0
  186.3970  177.3150  140.9130 C   0  0  0  0  0  3  0  0  0  0  0  0
  184.4390  178.7420  143.6560 C   0  0  0  0  0  2  0  0  0  0  0  0
  184.6120  179.1580  145.1170 C   0  0  0  0  0  2  0  0  0  0  0  0
  184.4940  177.9970  145.9940 N   0  0  0  0  0  0  0  0  0  0  0  0
  186.2070  178.7530  147.6340 C   0  0  0  0  0  2  0  0  0  0  0  0
  187.0420  177.6030  147.3060 N   0  0  0  0  0  0  0  0  0  0  0  0
  184.7350  178.4090  147.3830 C   0  0  0  0  0  2  0  0  0  0  0  0
  185.4410  176.9560  145.5730 C   0  0  0  0  0  2  0  0  0  0  0  0
  188.6920  178.1000  147.5550 Cl  0  0  0  0  0  0  0  0  0  0  0  0
  186.8940  177.3450  145.8790 C   0  0  0  0  0  2  0  0  0  0  0  0
  1  5  2  0  0  0  0
  1  8  1  0  0  0  0
  2 20  1  6  0  0  0
  2  5  1  0  0  0  0
  3  7  2  0  0  0  0
  4 10  2  0  0  0  0
  5  3  1  0  0  0  0
  7 19  1  0  0  0  0
  8  6  2  0  0  0  0
  8  7  1  0  0  0  0
  9  1  1  0  0  0  0
 10  9  1  0  0  0  0
 10  2  1  0  0  0  0
 11 12  1  0  0  0  0
 12 14  2  0  0  0  0
 13 18  2  0  0  0  0
 16 15  1  6  0  0  0
 16 14  1  0  0  0  0
 17 13  1  6  0  0  0
 17 16  1  0  0  0  0
 18 15  1  0  0  0  0
 19 17  1  0  0  0  0
 19 11  2  0  0  0  0
 21 22  2  0  0  0  0
 22 24  1  0  0  0  0
 23 20  1  0  0  0  0
 23 21  2  0  0  0  0
 24 25  1  0  0  0  0
 25 26  1  0  0  0  0
 26 29  1  0  0  0  0
 28 31  1  0  0  0  0
 28 27  1  0  0  0  0
 29 27  1  0  0  0  0
 30 32  1  0  0  0  0
 30 26  1  0  0  0  0
 32 28  1  0  0  0  0
M  END
>  <MODEL>
2

>  <REMARK>
 VINA RESULT:      -8.2      2.108      6.354
  Name = 
  6 active torsions:
  status: ('A' for Active; 'I' for Inactive)
    1  A    between atoms: N_2  and  C_13
    2  A    between atoms: C_3  and  C_18
    3  A    between atoms: C_9  and  C_29
    4  A    between atoms: C_13  and  C_29
    5  A    between atoms: C_18  and  C_24
    6  A    between atoms: C_21  and  C_30
                            x       y       z     vdW  Elec       q    Type
                         _______ _______ _______ _____ _____    ______ ____

>  <TORSDO>
F 6

$$$$
=
 OpenBabel11042414533D

 32 36  0  0  1  0  0  0  0  0999 V2000
  189.3870  175.1550  143.2970 C   0  0  0  0  0  0  0  0  0  0  0  0
  191.1720  175.2070  144.7860 C   0  0  2  0  0  3  0  0  0  0  0  0
  189.2760  177.0200  144.5860 N   0  0  0  0  0  0  0  0  0  0  0  0
  191.6580  172.8460  144.4180 O   0  0  0  0  0  0  0  0  0  0  0  0
  190.0610  175.9340  144.0990 C   0  0  2  0  0  3  0  0  0  0  0  0
  187.2750  175.5130  142.1910 N   0  0  0  0  0  1  0  0  0  0  0  0
  188.1030  176.8890  144.0400 C   0  0  0  0  0  0  0  0  0  0  0  0
  188.0310  175.6580  143.2290 C   0  0  0  0  0  0  0  0  0  0  0  0
  189.8150  173.8050  143.3060 N   0  0  0  0  0  2  0  0  0  0  0  0
  190.9380  173.8530  144.1850 C   0  0  0  0  0  0  0  0  0  0  0  0
  186.6090  178.6740  143.2800 C   0  0  0  0  0  3  0  0  0  0  0  0
  185.5500  179.6990  143.4650 C   0  0  0  0  0  3  0  0  0  0  0  0
  186.0670  176.8520  146.4350 C   0  0  0  0  0  3  0  0  0  0  0  0
  184.8230  179.7430  144.5880 C   0  0  0  0  0  3  0  0  0  0  0  0
  184.2400  178.0850  146.3080 C   0  0  0  0  0  2  0  0  0  0  0  0
  185.1420  178.7690  145.6320 C   0  0  1  0  0  3  0  0  0  0  0  0
  186.4590  178.0780  145.6750 C   0  0  2  0  0  3  0  0  0  0  0  0
  184.8350  176.9030  146.8310 N   0  0  0  0  0  0  0  0  0  0  0  0
  186.9990  177.8490  144.2740 C   0  0  0  0  0  0  0  0  0  0  0  0
  190.9290  175.1600  146.2860 C   0  0  0  0  0  2  0  0  0  0  0  0
  193.3280  175.4230  146.5400 C   0  0  0  0  0  0  0  0  0  0  0  0
  194.4520  175.9330  146.1090 C   0  0  0  0  0  3  0  0  0  0  0  0
  192.2170  174.9050  146.9830 C   0  0  0  0  0  3  0  0  0  0  0  0
  195.6510  175.1050  145.7330 C   0  0  0  0  0  2  0  0  0  0  0  0
  195.7760  174.8180  144.2360 C   0  0  0  0  0  2  0  0  0  0  0  0
  195.6310  176.0520  143.4680 N   0  0  0  0  0  0  0  0  0  0  0  0
  195.7260  174.9610  141.2320 C   0  0  0  0  0  2  0  0  0  0  0  0
  196.9560  175.6820  140.9230 N   0  0  0  0  0  0  0  0  0  0  0  0
  194.8920  175.7710  142.2300 C   0  0  0  0  0  2  0  0  0  0  0  0
  196.9560  176.6190  143.1830 C   0  0  0  0  0  2  0  0  0  0  0  0
  197.8670  174.6660  139.8420 Cl  0  0  0  0  0  0  0  0  0  0  0  0
  197.7290  175.7820  142.1540 C   0  0  0  0  0  2  0  0  0  0  0  0
  1  9  1  0  0  0  0
  2 20  1  1  0  0  0
  5  1  1  1  0  0  0
  5  3  1  0  0  0  0
  5  2  1  0  0  0  0
  6  8  1  0  0  0  0
  7 19  1  0  0  0  0
  7  3  2  0  0  0  0
  8  1  2  0  0  0  0
  8  7  1  0  0  0  0
  9 10  1  0  0  0  0
 10  4  2  0  0  0  0
 10  2  1  0  0  0  0
 11 12  1  0  0  0  0
 11 19  2  0  0  0  0
 12 14  2  0  0  0  0
 13 18  2  0  0  0  0
 15 18  1  0  0  0  0
 16 14  1  6  0  0  0
 16 17  1  0  0  0  0
 16 15  1  0  0  0  0
 17 13  1  6  0  0  0
 19 17  1  0  0  0  0
 20 23  1  0  0  0  0
 21 23  2  0  0  0  0
 22 21  2  0  0  0  0
 24 22  1  0  0  0  0
 25 24  1  0  0  0  0
 26 25  1  0  0  0  0
 27 29  1  0  0  0  0
 28 27  1  0  0  0  0
 28 32  1  0  0  0  0
 29 26  1  0  0  0  0
 30 26  1  0  0  0  0
 31 28  1  0  0  0  0
 32 30  1  0  0  0  0
M  END
>  <MODEL>
3

>  <REMARK>
 VINA RESULT:      -7.9      2.341      3.297
  Name = 
  6 active torsions:
  status: ('A' for Active; 'I' for Inactive)
    1  A    between atoms: N_2  and  C_13
    2  A    between atoms: C_3  and  C_18
    3  A    between atoms: C_9  and  C_29
    4  A    between atoms: C_13  and  C_29
    5  A    between atoms: C_18  and  C_24
    6  A    between atoms: C_21  and  C_30
                            x       y       z     vdW  Elec       q    Type
                         _______ _______ _______ _____ _____    ______ ____

>  <TORSDO>
F 6

$$$$
=
 OpenBabel11042414533D

 32 36  0  0  1  0  0  0  0  0999 V2000
  185.5670  178.7900  145.4750 C   0  0  0  0  0  0  0  0  0  0  0  0
  185.2080  178.8320  143.1780 C   0  0  2  0  0  3  0  0  0  0  0  0
  187.3820  177.9740  144.3850 N   0  0  0  0  0  0  0  0  0  0  0  0
  182.8080  179.1380  143.4720 O   0  0  0  0  0  0  0  0  0  0  0  0
  186.1680  178.7170  144.3180 C   0  0  0  0  0  0  0  0  0  0  0  0
  186.3840  178.2990  147.6890 N   0  0  0  0  0  2  0  0  0  0  0  0
  187.5130  177.6090  145.6270 C   0  0  0  0  0  0  0  0  0  0  0  0
  186.3440  178.0240  146.4260 C   0  0  0  0  0  0  0  0  0  0  0  0
  184.1570  178.8980  145.3880 N   0  0  0  0  0  2  0  0  0  0  0  0
  183.9480  178.9690  143.9780 C   0  0  0  0  0  0  0  0  0  0  0  0
  188.4770  175.7070  146.8310 C   0  0  0  0  0  3  0  0  0  0  0  0
  189.5980  174.9160  147.4010 C   0  0  0  0  0  3  0  0  0  0  0  0
  190.4960  177.9160  144.6830 C   0  0  0  0  0  3  0  0  0  0  0  0
  190.8690  175.2030  147.0950 C   0  0  0  0  0  3  0  0  0  0  0  0
  191.9520  176.3410  145.2030 C   0  0  0  0  0  2  0  0  0  0  0  0
  191.1040  176.3460  146.2130 C   0  0  1  0  0  3  0  0  0  0  0  0
  190.0800  177.4100  146.0260 C   0  0  2  0  0  3  0  0  0  0  0  0
  191.5810  177.3450  144.2660 N   0  0  0  0  0  0  0  0  0  0  0  0
  188.6770  176.8340  146.1160 C   0  0  0  0  0  0  0  0  0  0  0  0
  185.1780  177.5400  142.3770 C   0  0  0  0  0  2  0  0  0  0  0  0
  187.1710  176.3040  141.7550 C   0  0  0  0  0  0  0  0  0  0  0  0
  187.8980  175.2220  141.8580 C   0  0  0  0  0  3  0  0  0  0  0  0
  186.4600  177.3900  141.6400 C   0  0  0  0  0  3  0  0  0  0  0  0
  189.3300  175.2220  142.3230 C   0  0  0  0  0  2  0  0  0  0  0  0
  190.0960  173.9370  142.0090 C   0  0  0  0  0  2  0  0  0  0  0  0
  189.5050  172.8070  142.7210 N   0  0  0  0  0  0  0  0  0  0  0  0
  191.2360  172.7130  144.5090 C   0  0  0  0  0  2  0  0  0  0  0  0
  191.6370  171.3830  144.0640 N   0  0  0  0  0  0  0  0  0  0  0  0
  189.7620  172.9500  144.1610 C   0  0  0  0  0  2  0  0  0  0  0  0
  190.0570  171.5480  142.2020 C   0  0  0  0  0  2  0  0  0  0  0  0
  193.3290  171.2240  144.4370 Cl  0  0  0  0  0  0  0  0  0  0  0  0
  191.5240  171.3530  142.6110 C   0  0  0  0  0  2  0  0  0  0  0  0
  1  8  1  0  0  0  0
  2 20  1  6  0  0  0
  2 10  1  0  0  0  0
  2  5  1  0  0  0  0
  3  7  2  0  0  0  0
  4 10  2  0  0  0  0
  5  3  1  0  0  0  0
  5  1  2  0  0  0  0
  7 19  1  0  0  0  0
  7  8  1  0  0  0  0
  8  6  2  0  0  0  0
  9  1  1  0  0  0  0
 10  9  1  0  0  0  0
 11 12  1  0  0  0  0
 14 12  2  0  0  0  0
 16 15  1  6  0  0  0
 16 14  1  0  0  0  0
 17 13  1  6  0  0  0
 17 19  1  0  0  0  0
 17 16  1  0  0  0  0
 18 13  2  0  0  0  0
 18 15  1  0  0  0  0
 19 11  2  0  0  0  0
 21 22  2  0  0  0  0
 22 24  1  0  0  0  0
 23 21  2  0  0  0  0
 23 20  1  0  0  0  0
 25 24  1  0  0  0  0
 25 26  1  0  0  0  0
 26 29  1  0  0  0  0
 28 31  1  0  0  0  0
 28 27  1  0  0  0  0
 29 27  1  0  0  0  0
 30 32  1  0  0  0  0
 30 26  1  0  0  0  0
 32 28  1  0  0  0  0
M  END
>  <MODEL>
4

>  <REMARK>
 VINA RESULT:      -7.9      2.625      5.896
  Name = 
  6 active torsions:
  status: ('A' for Active; 'I' for Inactive)
    1  A    between atoms: N_2  and  C_13
    2  A    between atoms: C_3  and  C_18
    3  A    between atoms: C_9  and  C_29
    4  A    between atoms: C_13  and  C_29
    5  A    between atoms: C_18  and  C_24
    6  A    between atoms: C_21  and  C_30
                            x       y       z     vdW  Elec       q    Type
                         _______ _______ _______ _____ _____    ______ ____

>  <TORSDO>
F 6

$$$$
=
 OpenBabel11042414533D

 32 36  0  0  1  0  0  0  0  0999 V2000
  189.8460  173.2000  143.1700 C   0  0  0  0  0  0  0  0  0  0  0  0
  188.1710  174.4710  142.1790 C   0  0  2  0  0  3  0  0  0  0  0  0
  189.9440  175.3390  143.9180 N   0  0  0  0  0  0  0  0  0  0  0  0
  187.7930  172.7870  140.4570 O   0  0  0  0  0  0  0  0  0  0  0  0
  189.1880  174.3230  143.2640 C   0  0  0  0  0  0  0  0  0  0  0  0
  191.8510  172.4700  144.2930 N   0  0  0  0  0  2  0  0  0  0  0  0
  191.0810  174.7950  144.2360 C   0  0  0  0  0  0  0  0  0  0  0  0
  191.1640  173.4100  143.7320 C   0  0  0  0  0  0  0  0  0  0  0  0
  189.4950  172.4160  142.0430 N   0  0  0  0  0  2  0  0  0  0  0  0
  188.4360  173.1790  141.4660 C   0  0  0  0  0  0  0  0  0  0  0  0
  192.1480  175.5270  146.3150 C   0  0  0  0  0  3  0  0  0  0  0  0
  193.1490  176.2880  147.1070 C   0  0  0  0  0  3  0  0  0  0  0  0
  193.7710  175.8820  143.0270 C   0  0  0  0  0  3  0  0  0  0  0  0
  194.1920  176.8800  146.5130 C   0  0  0  0  0  3  0  0  0  0  0  0
  195.3870  176.5040  144.3970 C   0  0  0  0  0  2  0  0  0  0  0  0
  194.2790  176.7790  145.0560 C   0  0  1  0  0  3  0  0  0  0  0  0
  193.0870  176.4580  144.2250 C   0  0  2  0  0  3  0  0  0  0  0  0
  195.0600  175.9720  143.1190 N   0  0  0  0  0  0  0  0  0  0  0  0
  192.1440  175.5250  144.9660 C   0  0  0  0  0  0  0  0  0  0  0  0
  188.5220  175.6450  141.2790 C   0  0  0  0  0  2  0  0  0  0  0  0
  187.1020  177.5630  141.7180 C   0  0  0  0  0  0  0  0  0  0  0  0
  186.8820  178.6660  142.3840 C   0  0  0  0  0  3  0  0  0  0  0  0
  187.3050  176.4650  141.0450 C   0  0  0  0  0  3  0  0  0  0  0  0
  185.6550  178.9010  143.2220 C   0  0  0  0  0  2  0  0  0  0  0  0
  185.9410  179.1880  144.6960 C   0  0  0  0  0  2  0  0  0  0  0  0
  185.1880  178.2710  145.5480 N   0  0  0  0  0  0  0  0  0  0  0  0
  186.9990  177.9540  147.2270 C   0  0  0  0  0  2  0  0  0  0  0  0
  187.0780  176.5380  146.8880 N   0  0  0  0  0  0  0  0  0  0  0  0
  185.5840  178.4720  146.9490 C   0  0  0  0  0  2  0  0  0  0  0  0
  185.4230  176.8860  145.1190 C   0  0  0  0  0  2  0  0  0  0  0  0
  188.7260  176.0520  147.1700 Cl  0  0  0  0  0  0  0  0  0  0  0  0
  186.8460  176.4160  145.4540 C   0  0  0  0  0  2  0  0  0  0  0  0
  1  5  2  0  0  0  0
  1  8  1  0  0  0  0
  2 20  1  6  0  0  0
  2  5  1  0  0  0  0
  3  7  2  0  0  0  0
  4 10  2  0  0  0  0
  5  3  1  0  0  0  0
  7 19  1  0  0  0  0
  8  7  1  0  0  0  0
  8  6  2  0  0  0  0
  9  1  1  0  0  0  0
 10  9  1  0  0  0  0
 10  2  1  0  0  0  0
 11 12  1  0  0  0  0
 13 18  2  0  0  0  0
 14 12  2  0  0  0  0
 16 15  1  1  0  0  0
 16 14  1  0  0  0  0
 17 13  1  6  0  0  0
 17 19  1  0  0  0  0
 17 16  1  0  0  0  0
 18 15  1  0  0  0  0
 19 11  2  0  0  0  0
 21 22  2  0  0  0  0
 22 24  1  0  0  0  0
 23 20  1  0  0  0  0
 23 21  2  0  0  0  0
 24 25  1  0  0  0  0
 25 26  1  0  0  0  0
 26 29  1  0  0  0  0
 28 31  1  0  0  0  0
 28 27  1  0  0  0  0
 29 27  1  0  0  0  0
 30 32  1  0  0  0  0
 30 26  1  0  0  0  0
 32 28  1  0  0  0  0
M  END
>  <MODEL>
5

>  <REMARK>
 VINA RESULT:      -7.9      2.274      6.782
  Name = 
  6 active torsions:
  status: ('A' for Active; 'I' for Inactive)
    1  A    between atoms: N_2  and  C_13
    2  A    between atoms: C_3  and  C_18
    3  A    between atoms: C_9  and  C_29
    4  A    between atoms: C_13  and  C_29
    5  A    between atoms: C_18  and  C_24
    6  A    between atoms: C_21  and  C_30
                            x       y       z     vdW  Elec       q    Type
                         _______ _______ _______ _____ _____    ______ ____

>  <TORSDO>
F 6

$$$$
=
 OpenBabel11042414533D

 32 36  0  0  1  0  0  0  0  0999 V2000
  187.9340  176.4790  141.3570 C   0  0  0  0  0  0  0  0  0  0  0  0
  188.8300  174.3360  141.2560 C   0  0  2  0  0  3  0  0  0  0  0  0
  188.3380  175.7010  143.4500 N   0  0  0  0  0  0  0  0  0  0  0  0
  188.1410  174.0640  138.9330 O   0  0  0  0  0  0  0  0  0  0  0  0
  188.5740  175.5760  142.0500 C   0  0  0  0  0  0  0  0  0  0  0  0
  186.8540  178.5130  142.0690 N   0  0  0  0  0  2  0  0  0  0  0  0
  187.5450  176.7230  143.5920 C   0  0  0  0  0  0  0  0  0  0  0  0
  187.1510  177.2720  142.2800 C   0  0  0  0  0  0  0  0  0  0  0  0
  187.5800  176.0610  140.0500 N   0  0  0  0  0  2  0  0  0  0  0  0
  188.1720  174.7650  139.9790 C   0  0  0  0  0  0  0  0  0  0  0  0
  187.9850  177.4230  145.8970 C   0  0  0  0  0  3  0  0  0  0  0  0
  187.5850  177.8470  147.2630 C   0  0  0  0  0  3  0  0  0  0  0  0
  184.7170  177.9150  144.2690 C   0  0  0  0  0  3  0  0  0  0  0  0
  186.3190  178.1830  147.5380 C   0  0  0  0  0  3  0  0  0  0  0  0
  184.4360  178.9900  146.1770 C   0  0  0  0  0  2  0  0  0  0  0  0
  185.3470  178.0760  146.4500 C   0  0  1  0  0  3  0  0  0  0  0  0
  185.6040  177.2270  145.2550 C   0  0  2  0  0  3  0  0  0  0  0  0
  184.0270  178.8630  144.8210 N   0  0  0  0  0  0  0  0  0  0  0  0
  187.0850  177.2020  144.9160 C   0  0  0  0  0  0  0  0  0  0  0  0
  188.0820  173.1560  141.8570 C   0  0  0  0  0  2  0  0  0  0  0  0
  189.7160  172.3860  143.4770 C   0  0  0  0  0  0  0  0  0  0  0  0
  190.3810  172.5910  144.5830 C   0  0  0  0  0  3  0  0  0  0  0  0
  189.0620  172.1640  142.3710 C   0  0  0  0  0  3  0  0  0  0  0  0
  191.8840  172.6110  144.6590 C   0  0  0  0  0  2  0  0  0  0  0  0
  192.5520  173.6070  143.7100 C   0  0  0  0  0  2  0  0  0  0  0  0
  193.3930  174.5370  144.4580 N   0  0  0  0  0  0  0  0  0  0  0  0
  191.5540  176.1060  145.0560 C   0  0  0  0  0  2  0  0  0  0  0  0
  192.1960  177.1650  144.2860 N   0  0  0  0  0  0  0  0  0  0  0  0
  192.6150  175.1200  145.5590 C   0  0  0  0  0  2  0  0  0  0  0  0
  193.9100  175.5770  143.5580 C   0  0  0  0  0  2  0  0  0  0  0  0
  190.9210  178.1950  143.7010 Cl  0  0  0  0  0  0  0  0  0  0  0  0
  192.8080  176.5500  143.1150 C   0  0  0  0  0  2  0  0  0  0  0  0
  1  5  2  0  0  0  0
  1  8  1  0  0  0  0
  2 20  1  1  0  0  0
  2  5  1  0  0  0  0
  3  7  2  0  0  0  0
  4 10  2  0  0  0  0
  5  3  1  0  0  0  0
  6  8  2  0  0  0  0
  7 19  1  0  0  0  0
  8  7  1  0  0  0  0
  9  1  1  0  0  0  0
 10  9  1  0  0  0  0
 10  2  1  0  0  0  0
 11 12  1  0  0  0  0
 12 14  2  0  0  0  0
 13 18  2  0  0  0  0
 16 15  1  6  0  0  0
 16 14  1  0  0  0  0
 17 13  1  6  0  0  0
 17 16  1  0  0  0  0
 18 15  1  0  0  0  0
 19 17  1  0  0  0  0
 19 11  2  0  0  0  0
 20 23  1  0  0  0  0
 21 22  2  0  0  0  0
 22 24  1  0  0  0  0
 23 21  2  0  0  0  0
 25 26  1  0  0  0  0
 25 24  1  0  0  0  0
 26 29  1  0  0  0  0
 27 29  1  0  0  0  0
 28 27  1  0  0  0  0
 30 26  1  0  0  0  0
 31 28  1  0  0  0  0
 32 30  1  0  0  0  0
 32 28  1  0  0  0  0
M  END
>  <MODEL>
6

>  <REMARK>
 VINA RESULT:      -7.8      1.956      2.806
  Name = 
  6 active torsions:
  status: ('A' for Active; 'I' for Inactive)
    1  A    between atoms: N_2  and  C_13
    2  A    between atoms: C_3  and  C_18
    3  A    between atoms: C_9  and  C_29
    4  A    between atoms: C_13  and  C_29
    5  A    between atoms: C_18  and  C_24
    6  A    between atoms: C_21  and  C_30
                            x       y       z     vdW  Elec       q    Type
                         _______ _______ _______ _____ _____    ______ ____

>  <TORSDO>
F 6

$$$$
=
 OpenBabel11042414533D

 32 36  0  0  1  0  0  0  0  0999 V2000
  192.0080  176.4110  146.2550 C   0  0  0  0  0  0  0  0  0  0  0  0
  190.2430  175.3410  145.1840 C   0  0  2  0  0  3  0  0  0  0  0  0
  192.6690  175.6600  144.2180 N   0  0  0  0  0  0  0  0  0  0  0  0
  188.9810  175.1590  147.2630 O   0  0  0  0  0  0  0  0  0  0  0  0
  191.5920  175.9800  145.0960 C   0  0  0  0  0  0  0  0  0  0  0  0
  194.1920  177.1660  146.9440 N   0  0  0  0  0  2  0  0  0  0  0  0
  193.7590  175.9270  144.8750 C   0  0  0  0  0  0  0  0  0  0  0  0
  193.4550  176.3590  146.2530 C   0  0  0  0  0  0  0  0  0  0  0  0
  191.1280  176.1270  147.3280 N   0  0  0  0  0  2  0  0  0  0  0  0
  190.0280  175.5120  146.6580 C   0  0  0  0  0  0  0  0  0  0  0  0
  195.6940  176.7870  143.6440 C   0  0  0  0  0  3  0  0  0  0  0  0
  197.0200  176.6650  142.9850 C   0  0  0  0  0  3  0  0  0  0  0  0
  195.7750  173.5900  145.4740 C   0  0  0  0  0  3  0  0  0  0  0  0
  197.7670  175.5650  143.1380 C   0  0  0  0  0  3  0  0  0  0  0  0
  197.8830  173.8080  144.8560 C   0  0  0  0  0  2  0  0  0  0  0  0
  197.2060  174.4810  143.9450 C   0  0  1  0  0  3  0  0  0  0  0  0
  195.7440  174.3780  144.2040 C   0  0  2  0  0  3  0  0  0  0  0  0
  196.9780  173.2310  145.7890 N   0  0  0  0  0  0  0  0  0  0  0  0
  195.1100  175.7560  144.2900 C   0  0  0  0  0  0  0  0  0  0  0  0
  190.3310  173.8640  144.8390 C   0  0  0  0  0  2  0  0  0  0  0  0
  189.1270  174.4320  142.8100 C   0  0  0  0  0  0  0  0  0  0  0  0
  188.8690  175.2960  141.8640 C   0  0  0  0  0  3  0  0  0  0  0  0
  189.3700  173.5580  143.7460 C   0  0  0  0  0  3  0  0  0  0  0  0
  187.4890  175.8170  141.5650 C   0  0  0  0  0  2  0  0  0  0  0  0
  186.7500  176.3800  142.7790 C   0  0  0  0  0  2  0  0  0  0  0  0
  187.1680  177.7550  143.0360 N   0  0  0  0  0  0  0  0  0  0  0  0
  186.3750  177.8150  145.3960 C   0  0  0  0  0  2  0  0  0  0  0  0
  185.4160  178.8610  145.0560 N   0  0  0  0  0  0  0  0  0  0  0  0
  187.5730  177.8860  144.4420 C   0  0  0  0  0  2  0  0  0  0  0  0
  186.0740  178.6790  142.7060 C   0  0  0  0  0  2  0  0  0  0  0  0
  184.0670  178.6650  146.1380 Cl  0  0  0  0  0  0  0  0  0  0  0  0
  184.9200  178.5830  143.7140 C   0  0  0  0  0  2  0  0  0  0  0  0
  1  9  1  0  0  0  0
  2 20  1  1  0  0  0
  2 10  1  0  0  0  0
  3  7  2  0  0  0  0
  3  5  1  0  0  0  0
  5  2  1  0  0  0  0
  5  1  2  0  0  0  0
  7  8  1  0  0  0  0
  8  1  1  0  0  0  0
  8  6  2  0  0  0  0
 10  4  2  0  0  0  0
 10  9  1  0  0  0  0
 11 19  2  0  0  0  0
 12 14  2  0  0  0  0
 12 11  1  0  0  0  0
 13 18  2  0  0  0  0
 15 18  1  0  0  0  0
 16 14  1  1  0  0  0
 16 17  1  0  0  0  0
 16 15  1  0  0  0  0
 17 19  1  0  0  0  0
 17 13  1  1  0  0  0
 19  7  1  0  0  0  0
 21 23  2  0  0  0  0
 22 21  2  0  0  0  0
 23 20  1  0  0  0  0
 24 22  1  0  0  0  0
 24 25  1  0  0  0  0
 25 26  1  0  0  0  0
 26 29  1  0  0  0  0
 28 27  1  0  0  0  0
 28 31  1  0  0  0  0
 29 27  1  0  0  0  0
 30 26  1  0  0  0  0
 30 32  1  0  0  0  0
 32 28  1  0  0  0  0
M  END
>  <MODEL>
7

>  <REMARK>
 VINA RESULT:      -7.8      3.227      8.495
  Name = 
  6 active torsions:
  status: ('A' for Active; 'I' for Inactive)
    1  A    between atoms: N_2  and  C_13
    2  A    between atoms: C_3  and  C_18
    3  A    between atoms: C_9  and  C_29
    4  A    between atoms: C_13  and  C_29
    5  A    between atoms: C_18  and  C_24
    6  A    between atoms: C_21  and  C_30
                            x       y       z     vdW  Elec       q    Type
                         _______ _______ _______ _____ _____    ______ ____

>  <TORSDO>
F 6

$$$$
=
 OpenBabel11042414533D

 32 36  0  0  1  0  0  0  0  0999 V2000
  190.8650  173.6760  143.6200 C   0  0  0  0  0  0  0  0  0  0  0  0
  189.5610  175.1590  144.8480 C   0  0  2  0  0  3  0  0  0  0  0  0
  192.0610  174.5160  145.3560 N   0  0  0  0  0  0  0  0  0  0  0  0
  187.9200  175.3360  143.0540 O   0  0  0  0  0  0  0  0  0  0  0  0
  190.7820  174.3020  144.7630 C   0  0  2  0  0  3  0  0  0  0  0  0
  192.7030  172.4680  142.6350 N   0  0  0  0  0  1  0  0  0  0  0  0
  192.9270  173.9850  144.5450 C   0  0  0  0  0  0  0  0  0  0  0  0
  192.2670  173.4660  143.3320 C   0  0  0  0  0  0  0  0  0  0  0  0
  189.8260  173.9940  142.7110 N   0  0  0  0  0  2  0  0  0  0  0  0
  189.0060  174.8680  143.4860 C   0  0  0  0  0  0  0  0  0  0  0  0
  194.9430  172.8950  145.4070 C   0  0  0  0  0  3  0  0  0  0  0  0
  196.3840  172.8410  145.7660 C   0  0  0  0  0  3  0  0  0  0  0  0
  195.0720  175.9600  143.3690 C   0  0  0  0  0  3  0  0  0  0  0  0
  197.2260  173.8070  145.3800 C   0  0  0  0  0  3  0  0  0  0  0  0
  197.2120  175.4500  143.5500 C   0  0  0  0  0  2  0  0  0  0  0  0
  196.6610  174.9280  144.6280 C   0  0  1  0  0  3  0  0  0  0  0  0
  195.2070  175.2410  144.6720 C   0  0  2  0  0  3  0  0  0  0  0  0
  196.2170  176.1180  142.7840 N   0  0  0  0  0  0  0  0  0  0  0  0
  194.3830  173.9740  144.8220 C   0  0  0  0  0  0  0  0  0  0  0  0
  189.9470  176.6260  144.9500 C   0  0  0  0  0  2  0  0  0  0  0  0
  188.0990  176.8800  146.5020 C   0  0  0  0  0  0  0  0  0  0  0  0
  186.8860  176.5540  146.8640 C   0  0  0  0  0  3  0  0  0  0  0  0
  189.3090  177.2180  146.1550 C   0  0  0  0  0  3  0  0  0  0  0  0
  185.7690  177.5500  147.0220 C   0  0  0  0  0  2  0  0  0  0  0  0
  184.8090  177.6170  145.8340 C   0  0  0  0  0  2  0  0  0  0  0  0
  184.7870  178.9640  145.2730 N   0  0  0  0  0  0  0  0  0  0  0  0
  184.0850  178.2670  142.9880 C   0  0  0  0  0  2  0  0  0  0  0  0
  185.3420  178.7640  142.4400 N   0  0  0  0  0  0  0  0  0  0  0  0
  183.7300  179.0510  144.2560 C   0  0  0  0  0  2  0  0  0  0  0  0
  186.1030  179.2900  144.7060 C   0  0  0  0  0  2  0  0  0  0  0  0
  185.7010  177.7790  141.0500 Cl  0  0  0  0  0  0  0  0  0  0  0  0
  186.3860  178.4960  143.4220 C   0  0  0  0  0  2  0  0  0  0  0  0
  2 20  1  6  0  0  0
  4 10  2  0  0  0  0
  5  1  1  6  0  0  0
  5  2  1  0  0  0  0
  5  3  1  0  0  0  0
  6  8  1  0  0  0  0
  7 19  1  0  0  0  0
  7  3  2  0  0  0  0
  8  1  2  0  0  0  0
  8  7  1  0  0  0  0
  9 10  1  0  0  0  0
  9  1  1  0  0  0  0
 10  2  1  0  0  0  0
 11 12  1  0  0  0  0
 14 12  2  0  0  0  0
 16 15  1  6  0  0  0
 16 17  1  0  0  0  0
 16 14  1  0  0  0  0
 17 13  1  6  0  0  0
 17 19  1  0  0  0  0
 18 13  2  0  0  0  0
 18 15  1  0  0  0  0
 19 11  2  0  0  0  0
 20 23  1  0  0  0  0
 21 22  2  0  0  0  0
 22 24  1  0  0  0  0
 23 21  2  0  0  0  0
 25 24  1  0  0  0  0
 26 25  1  0  0  0  0
 27 29  1  0  0  0  0
 28 27  1  0  0  0  0
 28 32  1  0  0  0  0
 29 26  1  0  0  0  0
 30 26  1  0  0  0  0
 31 28  1  0  0  0  0
 32 30  1  0  0  0  0
M  END
>  <MODEL>
8

>  <REMARK>
 VINA RESULT:      -7.8      2.916      8.110
  Name = 
  6 active torsions:
  status: ('A' for Active; 'I' for Inactive)
    1  A    between atoms: N_2  and  C_13
    2  A    between atoms: C_3  and  C_18
    3  A    between atoms: C_9  and  C_29
    4  A    between atoms: C_13  and  C_29
    5  A    between atoms: C_18  and  C_24
    6  A    between atoms: C_21  and  C_30
                            x       y       z     vdW  Elec       q    Type
                         _______ _______ _______ _____ _____    ______ ____

>  <TORSDO>
F 6

$$$$
=
 OpenBabel11042414533D

 32 36  0  0  1  0  0  0  0  0999 V2000
  189.4710  174.6380  143.1700 C   0  0  0  0  0  0  0  0  0  0  0  0
  191.2200  174.5660  144.7000 C   0  0  2  0  0  3  0  0  0  0  0  0
  189.4880  176.5270  144.4270 N   0  0  0  0  0  0  0  0  0  0  0  0
  191.5150  172.1670  144.3800 O   0  0  0  0  0  0  0  0  0  0  0  0
  190.1900  175.3710  143.9760 C   0  0  2  0  0  3  0  0  0  0  0  0
  187.4230  175.1510  142.0070 N   0  0  0  0  0  1  0  0  0  0  0  0
  188.3200  176.4850  143.8550 C   0  0  0  0  0  0  0  0  0  0  0  0
  188.1640  175.2510  143.0610 C   0  0  0  0  0  0  0  0  0  0  0  0
  189.7850  173.2570  143.2090 N   0  0  0  0  0  2  0  0  0  0  0  0
  190.8880  173.2270  144.1150 C   0  0  0  0  0  0  0  0  0  0  0  0
  186.9190  178.3030  143.0010 C   0  0  0  0  0  3  0  0  0  0  0  0
  185.9410  179.4130  143.1380 C   0  0  0  0  0  3  0  0  0  0  0  0
  186.3930  176.7910  146.3190 C   0  0  0  0  0  3  0  0  0  0  0  0
  185.2680  179.6010  144.2790 C   0  0  0  0  0  3  0  0  0  0  0  0
  184.6500  178.1360  146.1560 C   0  0  0  0  0  2  0  0  0  0  0  0
  185.5660  178.6970  145.3900 C   0  0  1  0  0  3  0  0  0  0  0  0
  186.8340  177.9190  145.4430 C   0  0  2  0  0  3  0  0  0  0  0  0
  185.1850  176.9630  146.7550 N   0  0  0  0  0  0  0  0  0  0  0  0
  187.2950  177.5370  144.0470 C   0  0  0  0  0  0  0  0  0  0  0  0
  190.9390  174.5650  146.1940 C   0  0  0  0  0  2  0  0  0  0  0  0
  192.8070  176.0810  146.5130 C   0  0  0  0  0  0  0  0  0  0  0  0
  193.4800  177.1300  146.1190 C   0  0  0  0  0  3  0  0  0  0  0  0
  192.1490  175.0320  146.9210 C   0  0  0  0  0  3  0  0  0  0  0  0
  194.9410  177.0950  145.7610 C   0  0  0  0  0  2  0  0  0  0  0  0
  195.2490  176.4160  144.4270 C   0  0  0  0  0  2  0  0  0  0  0  0
  196.1350  175.2720  144.6310 N   0  0  0  0  0  0  0  0  0  0  0  0
  196.3980  174.7310  142.2150 C   0  0  0  0  0  2  0  0  0  0  0  0
  195.7540  173.4400  142.4250 N   0  0  0  0  0  0  0  0  0  0  0  0
  197.0810  175.1830  143.5110 C   0  0  0  0  0  2  0  0  0  0  0  0
  195.3400  174.0430  144.7600 C   0  0  0  0  0  2  0  0  0  0  0  0
  194.9520  173.0370  140.9330 Cl  0  0  0  0  0  0  0  0  0  0  0  0
  194.7090  173.6260  143.4240 C   0  0  0  0  0  2  0  0  0  0  0  0
  1  9  1  0  0  0  0
  2 20  1  1  0  0  0
  5  1  1  1  0  0  0
  5  3  1  0  0  0  0
  5  2  1  0  0  0  0
  6  8  1  0  0  0  0
  7 19  1  0  0  0  0
  7  3  2  0  0  0  0
  8  1  2  0  0  0  0
  8  7  1  0  0  0  0
  9 10  1  0  0  0  0
 10  4  2  0  0  0  0
 10  2  1  0  0  0  0
 11 12  1  0  0  0  0
 11 19  2  0  0  0  0
 12 14  2  0  0  0  0
 13 18  2  0  0  0  0
 15 18  1  0  0  0  0
 16 14  1  6  0  0  0
 16 17  1  0  0  0  0
 16 15  1  0  0  0  0
 17 13  1  1  0  0  0
 19 17  1  0  0  0  0
 20 23  1  0  0  0  0
 21 23  2  0  0  0  0
 22 21  2  0  0  0  0
 24 22  1  0  0  0  0
 25 26  1  0  0  0  0
 25 24  1  0  0  0  0
 26 30  1  0  0  0  0
 27 28  1  0  0  0  0
 27 29  1  0  0  0  0
 28 32  1  0  0  0  0
 29 26  1  0  0  0  0
 31 28  1  0  0  0  0
 32 30  1  0  0  0  0
M  END
>  <MODEL>
9

>  <REMARK>
 VINA RESULT:      -7.6      2.039      3.066
  Name = 
  6 active torsions:
  status: ('A' for Active; 'I' for Inactive)
    1  A    between atoms: N_2  and  C_13
    2  A    between atoms: C_3  and  C_18
    3  A    between atoms: C_9  and  C_29
    4  A    between atoms: C_13  and  C_29
    5  A    between atoms: C_18  and  C_24
    6  A    between atoms: C_21  and  C_30
                            x       y       z     vdW  Elec       q    Type
                         _______ _______ _______ _____ _____    ______ ____

>  <TORSDO>
F 6

$$$$
