=
 OpenBabel11042414423D

 36 39  0  0  1  0  0  0  0  0999 V2000
  186.7590  178.2140  147.6840 C   0  0  0  0  0  3  0  0  0  0  0  0
  190.7040  176.4880  144.8200 N   0  0  0  0  0  0  0  0  0  0  0  0
  185.4690  178.5140  147.5610 C   0  0  0  0  0  3  0  0  0  0  0  0
  183.7880  178.8290  145.6000 C   0  0  0  0  0  1  0  0  0  0  0  0
  187.4210  178.1880  146.3390 C   0  0  1  0  0  3  0  0  0  0  0  0
  185.1640  178.6650  146.1470 C   0  0  0  0  0  0  0  0  0  0  0  0
  188.3530  176.7020  144.4930 C   0  0  2  0  0  3  0  0  0  0  0  0
  191.5500  175.3570  146.7280 N   0  0  0  0  0  2  0  0  0  0  0  0
  187.4620  177.3650  143.5540 N   0  0  0  0  0  0  0  0  0  0  0  0
  188.2250  177.6980  142.3540 C   0  0  1  0  0  3  0  0  0  0  0  0
  189.3140  176.5600  146.8590 C   0  0  0  0  0  2  0  0  0  0  0  0
  185.5360  178.6470  143.1810 O   0  0  0  0  0  0  0  0  0  0  0  0
  186.3680  178.1750  144.0020 C   0  0  0  0  0  0  0  0  0  0  0  0
  190.5490  176.1340  146.0690 C   0  0  0  0  0  0  0  0  0  0  0  0
  188.0430  176.8280  146.0020 C   0  0  1  0  0  3  0  0  0  0  0  0
  189.6920  177.3620  142.6860 C   0  0  0  0  0  2  0  0  0  0  0  0
  186.2610  178.4350  145.4430 C   0  0  0  0  0  0  0  0  0  0  0  0
  189.6830  177.3100  144.1980 C   0  0  2  0  0  3  0  0  0  0  0  0
  188.0440  175.6180  141.1040 C   0  0  0  0  0  0  0  0  0  0  0  0
  187.7420  176.8830  141.2000 C   0  0  0  0  0  3  0  0  0  0  0  0
  188.3480  174.3480  141.0100 C   0  0  0  0  0  0  0  0  0  0  0  0
  190.4950  173.7640  140.1730 O   0  0  0  0  0  0  0  0  0  0  0  0
  189.5750  173.0650  137.5850 C   0  0  0  0  0  1  0  0  0  0  0  0
  189.2570  173.8740  139.9510 C   0  0  0  0  0  0  0  0  0  0  0  0
  188.7280  173.5380  138.6670 N   0  0  0  0  0  2  0  0  0  0  0  0
  187.8040  173.4090  141.9410 N   0  0  0  0  0  2  0  0  0  0  0  0
  188.4880  172.3040  142.3220 O   0  0  0  0  0  1  0  0  0  0  0  0
  192.7620  174.9130  146.0550 C   0  0  0  0  0  2  0  0  0  0  0  0
  193.9380  175.7840  146.4640 C   0  0  0  0  0  2  0  0  0  0  0  0
  194.7720  177.9550  145.9310 O   0  0  0  0  0  1  0  0  0  0  0  0
  194.3020  176.7690  145.3590 C   0  0  1  0  0  3  0  0  0  0  0  0
  195.3740  176.1700  144.4520 C   0  0  1  0  0  3  0  0  0  0  0  0
  195.9470  175.0470  145.0550 O   0  0  0  0  0  1  0  0  0  0  0  0
  195.4930  175.1170  142.3160 O   0  0  0  0  0  0  0  0  0  0  0  0
  194.7970  175.7760  143.1310 C   0  0  0  0  0  0  0  0  0  0  0  0
  193.4990  176.1410  142.7930 O   0  0  0  0  0  1  0  0  0  0  0  0
  2 14  2  0  0  0  0
  3  1  2  0  0  0  0
  4  6  1  0  0  0  0
  5  1  1  1  0  0  0
  6  3  1  0  0  0  0
  7  9  1  6  0  0  0
  7 15  1  0  0  0  0
  9 13  1  0  0  0  0
 10 20  1  6  0  0  0
 10 16  1  0  0  0  0
 10  9  1  0  0  0  0
 12 13  2  0  0  0  0
 13 17  1  0  0  0  0
 14  8  1  0  0  0  0
 14 11  1  0  0  0  0
 15  5  1  0  0  0  0
 15 11  1  1  0  0  0
 17  6  2  0  0  0  0
 17  5  1  0  0  0  0
 18 16  1  6  0  0  0
 18  7  1  0  0  0  0
 18  2  1  0  0  0  0
 19 20  2  0  0  0  0
 21 19  2  0  0  0  0
 21 26  1  0  0  0  0
 23 25  1  0  0  0  0
 24 22  2  0  0  0  0
 24 21  1  0  0  0  0
 25 24  1  0  0  0  0
 26 27  1  0  0  0  0
 28 29  1  0  0  0  0
 28  8  1  0  0  0  0
 31 30  1  1  0  0  0
 31 29  1  0  0  0  0
 32 33  1  1  0  0  0
 32 31  1  0  0  0  0
 34 35  2  0  0  0  0
 35 32  1  0  0  0  0
 36 35  1  0  0  0  0
M  END
>  <MODEL>
1

>  <REMARK>
 VINA RESULT:      -8.1      0.000      0.000
  Name = 
  8 active torsions:
  status: ('A' for Active; 'I' for Inactive)
    1  A    between atoms: C_6  and  C_12
    2  A    between atoms: C_12  and  C_34
    3  A    between atoms: C_13  and  N_15
    4  A    between atoms: C_13  and  C_20
    5  A    between atoms: C_17  and  C_24
    6  A    between atoms: N_19  and  C_26
    7  A    between atoms: C_20  and  C_34
    8  A    between atoms: C_22  and  C_26
                            x       y       z     vdW  Elec       q    Type
                         _______ _______ _______ _____ _____    ______ ____

>  <TORSDO>
F 8

$$$$
=
 OpenBabel11042414423D

 36 39  0  0  1  0  0  0  0  0999 V2000
  185.8960  178.9440  145.6730 C   0  0  0  0  0  3  0  0  0  0  0  0
  190.2060  176.1400  145.1170 N   0  0  0  0  0  0  0  0  0  0  0  0
  184.7200  179.1290  145.0790 C   0  0  0  0  0  3  0  0  0  0  0  0
  183.6290  178.4570  142.8140 C   0  0  0  0  0  1  0  0  0  0  0  0
  186.8650  178.2990  144.7280 C   0  0  1  0  0  3  0  0  0  0  0  0
  184.7970  178.5920  143.7290 C   0  0  0  0  0  0  0  0  0  0  0  0
  188.0510  176.1360  144.0980 C   0  0  2  0  0  3  0  0  0  0  0  0
  190.4130  176.0530  147.4790 N   0  0  0  0  0  2  0  0  0  0  0  0
  187.5040  176.2650  142.7560 N   0  0  0  0  0  0  0  0  0  0  0  0
  188.5750  176.0070  141.7970 C   0  0  1  0  0  3  0  0  0  0  0  0
  188.3680  177.1390  146.4300 C   0  0  0  0  0  2  0  0  0  0  0  0
  185.8920  177.1880  141.3280 O   0  0  0  0  0  0  0  0  0  0  0  0
  186.4330  177.1710  142.4670 C   0  0  0  0  0  0  0  0  0  0  0  0
  189.7050  176.4130  146.2930 C   0  0  0  0  0  0  0  0  0  0  0  0
  187.3910  176.9510  145.2330 C   0  0  1  0  0  3  0  0  0  0  0  0
  189.8650  175.8910  142.6340 C   0  0  0  0  0  2  0  0  0  0  0  0
  186.0000  178.0760  143.5380 C   0  0  0  0  0  0  0  0  0  0  0  0
  189.4730  176.5560  143.9350 C   0  0  2  0  0  3  0  0  0  0  0  0
  188.8460  173.6150  141.4450 C   0  0  0  0  0  0  0  0  0  0  0  0
  188.3050  174.7380  141.0600 C   0  0  0  0  0  3  0  0  0  0  0  0
  189.3890  172.4880  141.8340 C   0  0  0  0  0  0  0  0  0  0  0  0
  190.9060  172.4220  140.0050 O   0  0  0  0  0  0  0  0  0  0  0  0
  191.8640  169.8140  140.5670 C   0  0  0  0  0  1  0  0  0  0  0  0
  190.4150  171.8300  141.0070 C   0  0  0  0  0  0  0  0  0  0  0  0
  190.8550  170.5130  141.3450 N   0  0  0  0  0  2  0  0  0  0  0  0
  188.9920  171.8900  143.0710 N   0  0  0  0  0  2  0  0  0  0  0  0
  189.4880  172.3130  144.2580 O   0  0  0  0  0  1  0  0  0  0  0  0
  191.6960  175.3660  147.4440 C   0  0  0  0  0  2  0  0  0  0  0  0
  192.8180  176.3600  147.1980 C   0  0  0  0  0  2  0  0  0  0  0  0
  193.3760  174.6080  145.6770 O   0  0  0  0  0  1  0  0  0  0  0  0
  193.8690  175.7800  146.2580 C   0  0  1  0  0  3  0  0  0  0  0  0
  194.2200  176.7920  145.1700 C   0  0  1  0  0  3  0  0  0  0  0  0
  194.8890  177.8860  145.7240 O   0  0  0  0  0  1  0  0  0  0  0  0
  196.1870  175.6630  144.4380 O   0  0  0  0  0  1  0  0  0  0  0  0
  195.0810  176.1700  144.1200 C   0  0  0  0  0  0  0  0  0  0  0  0
  194.6710  176.1550  142.7910 O   0  0  0  0  0  0  0  0  0  0  0  0
  2 14  2  0  0  0  0
  3  1  2  0  0  0  0
  4  6  1  0  0  0  0
  5 15  1  0  0  0  0
  5  1  1  1  0  0  0
  6  3  1  0  0  0  0
  7  9  1  6  0  0  0
  7 15  1  0  0  0  0
 10 20  1  1  0  0  0
 10 16  1  0  0  0  0
 10  9  1  0  0  0  0
 12 13  2  0  0  0  0
 13  9  1  0  0  0  0
 13 17  1  0  0  0  0
 14 11  1  0  0  0  0
 14  8  1  0  0  0  0
 15 11  1  1  0  0  0
 17  6  2  0  0  0  0
 17  5  1  0  0  0  0
 18 16  1  6  0  0  0
 18  7  1  0  0  0  0
 18  2  1  0  0  0  0
 19 21  2  0  0  0  0
 20 19  2  0  0  0  0
 21 26  1  0  0  0  0
 22 24  2  0  0  0  0
 23 25  1  0  0  0  0
 24 25  1  0  0  0  0
 24 21  1  0  0  0  0
 26 27  1  0  0  0  0
 28  8  1  0  0  0  0
 29 28  1  0  0  0  0
 31 30  1  6  0  0  0
 31 29  1  0  0  0  0
 32 33  1  1  0  0  0
 32 31  1  0  0  0  0
 35 34  1  0  0  0  0
 35 32  1  0  0  0  0
 36 35  2  0  0  0  0
M  END
>  <MODEL>
2

>  <REMARK>
 VINA RESULT:      -7.8      1.787      2.211
  Name = 
  8 active torsions:
  status: ('A' for Active; 'I' for Inactive)
    1  A    between atoms: C_6  and  C_12
    2  A    between atoms: C_12  and  C_34
    3  A    between atoms: C_13  and  N_15
    4  A    between atoms: C_13  and  C_20
    5  A    between atoms: C_17  and  C_24
    6  A    between atoms: N_19  and  C_26
    7  A    between atoms: C_20  and  C_34
    8  A    between atoms: C_22  and  C_26
                            x       y       z     vdW  Elec       q    Type
                         _______ _______ _______ _____ _____    ______ ____

>  <TORSDO>
F 8

$$$$
=
 OpenBabel11042414423D

 36 39  0  0  1  0  0  0  0  0999 V2000
  193.5770  176.7490  146.7190 C   0  0  0  0  0  3  0  0  0  0  0  0
  188.8250  175.2000  145.3900 N   0  0  0  0  0  0  0  0  0  0  0  0
  194.8490  176.4420  146.4820 C   0  0  0  0  0  3  0  0  0  0  0  0
  196.1340  174.4850  145.3460 C   0  0  0  0  0  1  0  0  0  0  0  0
  192.6840  175.6030  146.3510 C   0  0  1  0  0  3  0  0  0  0  0  0
  194.9010  175.1080  145.9060 C   0  0  0  0  0  0  0  0  0  0  0  0
  191.0310  174.7030  144.6360 C   0  0  2  0  0  3  0  0  0  0  0  0
  188.0880  177.4510  145.5350 N   0  0  0  0  0  2  0  0  0  0  0  0
  191.8700  173.5240  144.4930 N   0  0  0  0  0  0  0  0  0  0  0  0
  191.0110  172.3430  144.5220 C   0  0  1  0  0  3  0  0  0  0  0  0
  190.5520  176.9060  145.8440 C   0  0  0  0  0  2  0  0  0  0  0  0
  193.9660  172.5100  144.7600 O   0  0  0  0  0  0  0  0  0  0  0  0
  193.2130  173.4940  144.9930 C   0  0  0  0  0  0  0  0  0  0  0  0
  189.1160  176.4620  145.5700 C   0  0  0  0  0  0  0  0  0  0  0  0
  191.6530  175.9640  145.2760 C   0  0  1  0  0  3  0  0  0  0  0  0
  189.6030  172.8600  144.8780 C   0  0  0  0  0  2  0  0  0  0  0  0
  193.6690  174.6420  145.7860 C   0  0  0  0  0  0  0  0  0  0  0  0
  189.8940  174.2210  145.4720 C   0  0  2  0  0  3  0  0  0  0  0  0
  190.9280  172.3840  142.0910 C   0  0  0  0  0  0  0  0  0  0  0  0
  191.0110  171.6790  143.1850 C   0  0  0  0  0  3  0  0  0  0  0  0
  190.8450  173.0940  140.9930 C   0  0  0  0  0  0  0  0  0  0  0  0
  188.8470  172.0470  140.2420 O   0  0  0  0  0  0  0  0  0  0  0  0
  188.1870  174.0750  138.3750 C   0  0  0  0  0  1  0  0  0  0  0  0
  189.6370  173.0280  140.1520 C   0  0  0  0  0  0  0  0  0  0  0  0
  189.3620  174.0850  139.2300 N   0  0  0  0  0  2  0  0  0  0  0  0
  191.9270  173.9440  140.6050 N   0  0  0  0  0  2  0  0  0  0  0  0
  192.5260  174.7820  141.4850 O   0  0  0  0  0  1  0  0  0  0  0  0
  186.6930  177.1180  145.2870 C   0  0  0  0  0  2  0  0  0  0  0  0
  186.1470  177.9590  144.1450 C   0  0  0  0  0  2  0  0  0  0  0  0
  184.5950  177.5570  142.3780 O   0  0  0  0  0  1  0  0  0  0  0  0
  185.7820  177.0880  142.9480 C   0  0  1  0  0  3  0  0  0  0  0  0
  186.9040  177.1190  141.9130 C   0  0  1  0  0  3  0  0  0  0  0  0
  187.6510  178.2910  142.0450 O   0  0  0  0  0  1  0  0  0  0  0  0
  187.3160  174.7940  142.2430 O   0  0  0  0  0  1  0  0  0  0  0  0
  187.8070  175.9400  142.0690 C   0  0  0  0  0  0  0  0  0  0  0  0
  189.1870  176.1000  142.0310 O   0  0  0  0  0  0  0  0  0  0  0  0
  2 18  1  0  0  0  0
  2 14  2  0  0  0  0
  3  1  2  0  0  0  0
  4  6  1  0  0  0  0
  5  1  1  6  0  0  0
  6  3  1  0  0  0  0
  7  9  1  1  0  0  0
  7 15  1  0  0  0  0
  7 18  1  0  0  0  0
  8 14  1  0  0  0  0
  9 10  1  0  0  0  0
  9 13  1  0  0  0  0
 10 20  1  6  0  0  0
 10 16  1  0  0  0  0
 12 13  2  0  0  0  0
 13 17  1  0  0  0  0
 14 11  1  0  0  0  0
 15 11  1  1  0  0  0
 15  5  1  0  0  0  0
 17  6  2  0  0  0  0
 17  5  1  0  0  0  0
 18 16  1  6  0  0  0
 19 20  2  0  0  0  0
 21 19  2  0  0  0  0
 23 25  1  0  0  0  0
 24 22  2  0  0  0  0
 24 21  1  0  0  0  0
 25 24  1  0  0  0  0
 26 21  1  0  0  0  0
 26 27  1  0  0  0  0
 28  8  1  0  0  0  0
 29 28  1  0  0  0  0
 31 30  1  6  0  0  0
 31 29  1  0  0  0  0
 32 33  1  1  0  0  0
 32 35  1  0  0  0  0
 32 31  1  0  0  0  0
 35 34  1  0  0  0  0
 36 35  2  0  0  0  0
M  END
>  <MODEL>
3

>  <REMARK>
 VINA RESULT:      -7.5      2.208      6.682
  Name = 
  8 active torsions:
  status: ('A' for Active; 'I' for Inactive)
    1  A    between atoms: C_6  and  C_12
    2  A    between atoms: C_12  and  C_34
    3  A    between atoms: C_13  and  N_15
    4  A    between atoms: C_13  and  C_20
    5  A    between atoms: C_17  and  C_24
    6  A    between atoms: N_19  and  C_26
    7  A    between atoms: C_20  and  C_34
    8  A    between atoms: C_22  and  C_26
                            x       y       z     vdW  Elec       q    Type
                         _______ _______ _______ _____ _____    ______ ____

>  <TORSDO>
F 8

$$$$
=
 OpenBabel11042414423D

 36 39  0  0  1  0  0  0  0  0999 V2000
  193.7500  176.8640  146.4880 C   0  0  0  0  0  3  0  0  0  0  0  0
  188.9240  175.0370  146.1340 N   0  0  0  0  0  0  0  0  0  0  0  0
  194.9420  176.7010  145.9220 C   0  0  0  0  0  3  0  0  0  0  0  0
  196.0310  174.9990  144.2820 C   0  0  0  0  0  1  0  0  0  0  0  0
  192.8680  175.6860  146.2010 C   0  0  1  0  0  3  0  0  0  0  0  0
  194.9360  175.4450  145.1890 C   0  0  0  0  0  0  0  0  0  0  0  0
  190.9060  174.8250  144.8260 C   0  0  2  0  0  3  0  0  0  0  0  0
  188.1040  177.1840  146.7250 N   0  0  0  0  0  2  0  0  0  0  0  0
  191.7580  173.7490  144.3450 N   0  0  0  0  0  0  0  0  0  0  0  0
  191.0080  172.4980  144.4290 C   0  0  1  0  0  3  0  0  0  0  0  0
  190.5980  176.8360  146.3760 C   0  0  0  0  0  2  0  0  0  0  0  0
  193.9140  172.9070  143.9830 O   0  0  0  0  0  0  0  0  0  0  0  0
  193.1810  173.7890  144.5060 C   0  0  0  0  0  0  0  0  0  0  0  0
  189.1710  176.2940  146.3950 C   0  0  0  0  0  0  0  0  0  0  0  0
  191.5840  176.0630  145.4530 C   0  0  1  0  0  3  0  0  0  0  0  0
  189.7000  172.8450  145.1670 C   0  0  0  0  0  2  0  0  0  0  0  0
  193.7430  174.8840  145.3060 C   0  0  0  0  0  0  0  0  0  0  0  0
  190.0400  174.1560  145.8400 C   0  0  2  0  0  3  0  0  0  0  0  0
  190.7590  172.7760  142.0250 C   0  0  0  0  0  0  0  0  0  0  0  0
  190.7230  171.9810  143.0580 C   0  0  0  0  0  3  0  0  0  0  0  0
  190.7960  173.5760  140.9890 C   0  0  0  0  0  0  0  0  0  0  0  0
  188.6410  174.5690  140.8370 O   0  0  0  0  0  0  0  0  0  0  0  0
  188.2050  173.8150  138.1400 C   0  0  0  0  0  1  0  0  0  0  0  0
  189.5590  173.9170  140.2640 C   0  0  0  0  0  0  0  0  0  0  0  0
  189.4020  173.5070  138.9050 N   0  0  0  0  0  2  0  0  0  0  0  0
  192.0400  174.1300  140.5540 N   0  0  0  0  0  2  0  0  0  0  0  0
  192.7850  174.9270  141.3580 O   0  0  0  0  0  1  0  0  0  0  0  0
  186.7150  176.7530  146.7740 C   0  0  0  0  0  2  0  0  0  0  0  0
  186.0610  176.9340  145.4140 C   0  0  0  0  0  2  0  0  0  0  0  0
  184.5720  178.1090  146.8620 O   0  0  0  0  0  1  0  0  0  0  0  0
  184.7790  177.7510  145.5270 C   0  0  1  0  0  3  0  0  0  0  0  0
  184.8770  179.0060  144.6620 C   0  0  1  0  0  3  0  0  0  0  0  0
  185.9460  179.8010  145.0820 O   0  0  0  0  0  1  0  0  0  0  0  0
  186.1030  179.0250  142.6180 O   0  0  0  0  0  1  0  0  0  0  0  0
  185.0660  178.6500  143.2230 C   0  0  0  0  0  0  0  0  0  0  0  0
  184.1010  177.9130  142.5470 O   0  0  0  0  0  0  0  0  0  0  0  0
  2 14  2  0  0  0  0
  3  1  2  0  0  0  0
  4  6  1  0  0  0  0
  5  1  1  6  0  0  0
  6 17  2  0  0  0  0
  6  3  1  0  0  0  0
  7  9  1  1  0  0  0
  7 15  1  0  0  0  0
  7 18  1  0  0  0  0
  8 28  1  0  0  0  0
  9 10  1  0  0  0  0
  9 13  1  0  0  0  0
 10 20  1  6  0  0  0
 10 16  1  0  0  0  0
 11 14  1  0  0  0  0
 12 13  2  0  0  0  0
 13 17  1  0  0  0  0
 14  8  1  0  0  0  0
 15  5  1  0  0  0  0
 15 11  1  1  0  0  0
 17  5  1  0  0  0  0
 18 16  1  6  0  0  0
 18  2  1  0  0  0  0
 19 20  2  0  0  0  0
 21 19  2  0  0  0  0
 23 25  1  0  0  0  0
 24 22  2  0  0  0  0
 24 21  1  0  0  0  0
 25 24  1  0  0  0  0
 26 21  1  0  0  0  0
 26 27  1  0  0  0  0
 29 31  1  0  0  0  0
 29 28  1  0  0  0  0
 31 30  1  1  0  0  0
 32 33  1  1  0  0  0
 32 31  1  0  0  0  0
 34 35  1  0  0  0  0
 35 32  1  0  0  0  0
 36 35  2  0  0  0  0
M  END
>  <MODEL>
4

>  <REMARK>
 VINA RESULT:      -7.4      2.294      7.090
  Name = 
  8 active torsions:
  status: ('A' for Active; 'I' for Inactive)
    1  A    between atoms: C_6  and  C_12
    2  A    between atoms: C_12  and  C_34
    3  A    between atoms: C_13  and  N_15
    4  A    between atoms: C_13  and  C_20
    5  A    between atoms: C_17  and  C_24
    6  A    between atoms: N_19  and  C_26
    7  A    between atoms: C_20  and  C_34
    8  A    between atoms: C_22  and  C_26
                            x       y       z     vdW  Elec       q    Type
                         _______ _______ _______ _____ _____    ______ ____

>  <TORSDO>
F 8

$$$$
=
 OpenBabel11042414423D

 36 39  0  0  1  0  0  0  0  0999 V2000
  188.6020  173.2400  139.7770 C   0  0  0  0  0  3  0  0  0  0  0  0
  188.2250  177.6170  142.5060 N   0  0  0  0  0  0  0  0  0  0  0  0
  189.3470  172.1400  139.7190 C   0  0  0  0  0  3  0  0  0  0  0  0
  191.5870  171.3260  140.7630 C   0  0  0  0  0  1  0  0  0  0  0  0
  189.3200  174.3200  140.5300 C   0  0  1  0  0  3  0  0  0  0  0  0
  190.5790  172.3790  140.4540 C   0  0  0  0  0  0  0  0  0  0  0  0
  189.4670  175.5960  142.7280 C   0  0  2  0  0  3  0  0  0  0  0  0
  185.8690  177.5500  142.2230 N   0  0  0  0  0  2  0  0  0  0  0  0
  190.8650  175.2070  142.8230 N   0  0  0  0  0  0  0  0  0  0  0  0
  191.6450  176.3850  143.1940 C   0  0  1  0  0  3  0  0  0  0  0  0
  187.2990  175.6280  141.3710 C   0  0  0  0  0  2  0  0  0  0  0  0
  192.5930  173.7610  142.1770 O   0  0  0  0  0  0  0  0  0  0  0  0
  191.4120  174.1660  142.0040 C   0  0  0  0  0  0  0  0  0  0  0  0
  187.1690  176.9800  142.0700 C   0  0  0  0  0  0  0  0  0  0  0  0
  188.5550  174.7990  141.7690 C   0  0  1  0  0  3  0  0  0  0  0  0
  190.6600  177.5700  143.1420 C   0  0  0  0  0  2  0  0  0  0  0  0
  190.5500  173.6020  140.9580 C   0  0  0  0  0  0  0  0  0  0  0  0
  189.5320  177.0220  142.2970 C   0  0  2  0  0  3  0  0  0  0  0  0
  191.4100  176.1050  145.5990 C   0  0  0  0  0  0  0  0  0  0  0  0
  192.2020  176.2160  144.5680 C   0  0  0  0  0  3  0  0  0  0  0  0
  190.6130  175.9920  146.6330 C   0  0  0  0  0  0  0  0  0  0  0  0
  189.5930  177.8940  147.6280 O   0  0  0  0  0  0  0  0  0  0  0  0
  191.5440  178.1910  149.6630 C   0  0  0  0  0  1  0  0  0  0  0  0
  190.5440  177.0630  147.6420 C   0  0  0  0  0  0  0  0  0  0  0  0
  191.5600  177.1570  148.6420 N   0  0  0  0  0  2  0  0  0  0  0  0
  189.7980  174.8270  146.7870 N   0  0  0  0  0  2  0  0  0  0  0  0
  189.6570  173.9190  145.7910 O   0  0  0  0  0  1  0  0  0  0  0  0
  185.6520  178.8360  142.8700 C   0  0  0  0  0  2  0  0  0  0  0  0
  186.0590  178.7630  144.3320 C   0  0  0  0  0  2  0  0  0  0  0  0
  183.6950  179.0370  144.4960 O   0  0  0  0  0  1  0  0  0  0  0  0
  184.8740  179.0490  145.2470 C   0  0  1  0  0  3  0  0  0  0  0  0
  184.7960  178.0000  146.3530 C   0  0  1  0  0  3  0  0  0  0  0  0
  185.2350  176.7620  145.8770 O   0  0  0  0  0  1  0  0  0  0  0  0
  186.0480  177.5200  148.3240 O   0  0  0  0  0  1  0  0  0  0  0  0
  185.6290  178.3990  147.5270 C   0  0  0  0  0  0  0  0  0  0  0  0
  185.9380  179.7350  147.7500 O   0  0  0  0  0  0  0  0  0  0  0  0
  3  1  2  0  0  0  0
  3  6  1  0  0  0  0
  5  1  1  1  0  0  0
  5 17  1  0  0  0  0
  5 15  1  0  0  0  0
  6  4  1  0  0  0  0
  6 17  2  0  0  0  0
  7  9  1  6  0  0  0
  8 28  1  0  0  0  0
  9 10  1  0  0  0  0
 10 20  1  1  0  0  0
 11 14  1  0  0  0  0
 13 12  2  0  0  0  0
 13  9  1  0  0  0  0
 14  8  1  0  0  0  0
 14  2  2  0  0  0  0
 15 11  1  6  0  0  0
 15  7  1  0  0  0  0
 16 10  1  0  0  0  0
 17 13  1  0  0  0  0
 18  2  1  0  0  0  0
 18  7  1  0  0  0  0
 18 16  1  1  0  0  0
 19 21  2  0  0  0  0
 20 19  2  0  0  0  0
 21 26  1  0  0  0  0
 21 24  1  0  0  0  0
 22 24  2  0  0  0  0
 24 25  1  0  0  0  0
 25 23  1  0  0  0  0
 27 26  1  0  0  0  0
 28 29  1  0  0  0  0
 29 31  1  0  0  0  0
 31 30  1  6  0  0  0
 31 32  1  0  0  0  0
 32 33  1  6  0  0  0
 32 35  1  0  0  0  0
 35 36  2  0  0  0  0
 35 34  1  0  0  0  0
M  END
>  <MODEL>
5

>  <REMARK>
 VINA RESULT:      -7.2      2.469      8.191
  Name = 
  8 active torsions:
  status: ('A' for Active; 'I' for Inactive)
    1  A    between atoms: C_6  and  C_12
    2  A    between atoms: C_12  and  C_34
    3  A    between atoms: C_13  and  N_15
    4  A    between atoms: C_13  and  C_20
    5  A    between atoms: C_17  and  C_24
    6  A    between atoms: N_19  and  C_26
    7  A    between atoms: C_20  and  C_34
    8  A    between atoms: C_22  and  C_26
                            x       y       z     vdW  Elec       q    Type
                         _______ _______ _______ _____ _____    ______ ____

>  <TORSDO>
F 8

$$$$
=
 OpenBabel11042414423D

 36 39  0  0  1  0  0  0  0  0999 V2000
  186.8910  178.3300  147.7010 C   0  0  0  0  0  3  0  0  0  0  0  0
  190.7950  176.4950  144.8500 N   0  0  0  0  0  0  0  0  0  0  0  0
  185.5870  178.5760  147.6010 C   0  0  0  0  0  3  0  0  0  0  0  0
  183.8300  178.6660  145.6840 C   0  0  0  0  0  1  0  0  0  0  0  0
  187.5070  178.2100  146.3400 C   0  0  1  0  0  3  0  0  0  0  0  0
  185.2290  178.5950  146.1920 C   0  0  0  0  0  0  0  0  0  0  0  0
  188.4280  176.6040  144.5930 C   0  0  2  0  0  3  0  0  0  0  0  0
  191.7450  175.5600  146.8130 N   0  0  0  0  0  2  0  0  0  0  0  0
  187.4820  177.1540  143.6350 N   0  0  0  0  0  0  0  0  0  0  0  0
  188.1920  177.4070  142.3830 C   0  0  1  0  0  3  0  0  0  0  0  0
  189.4730  176.6960  146.9260 C   0  0  0  0  0  2  0  0  0  0  0  0
  185.5000  178.3350  143.2260 O   0  0  0  0  0  0  0  0  0  0  0  0
  186.3760  177.9620  144.0530 C   0  0  0  0  0  0  0  0  0  0  0  0
  190.6960  176.2450  146.1290 C   0  0  0  0  0  0  0  0  0  0  0  0
  188.1660  176.8480  146.0960 C   0  0  1  0  0  3  0  0  0  0  0  0
  189.6810  177.1490  142.6880 C   0  0  0  0  0  2  0  0  0  0  0  0
  186.3080  178.3410  145.4690 C   0  0  0  0  0  0  0  0  0  0  0  0
  189.7240  177.2270  144.1990 C   0  0  2  0  0  3  0  0  0  0  0  0
  188.1860  175.2760  141.2090 C   0  0  0  0  0  0  0  0  0  0  0  0
  187.6990  176.4810  141.3220 C   0  0  0  0  0  3  0  0  0  0  0  0
  188.6750  174.0660  141.0990 C   0  0  0  0  0  0  0  0  0  0  0  0
  189.2410  174.1670  138.7920 O   0  0  0  0  0  0  0  0  0  0  0  0
  191.4560  172.4100  138.9990 C   0  0  0  0  0  1  0  0  0  0  0  0
  189.5020  173.6990  139.9360 C   0  0  0  0  0  0  0  0  0  0  0  0
  190.6050  172.8080  140.1080 N   0  0  0  0  0  2  0  0  0  0  0  0
  188.4150  173.0920  142.1120 N   0  0  0  0  0  2  0  0  0  0  0  0
  188.9400  173.2000  143.3560 O   0  0  0  0  0  1  0  0  0  0  0  0
  192.9490  175.1010  146.1360 C   0  0  0  0  0  2  0  0  0  0  0  0
  192.6690  173.8080  145.3880 C   0  0  0  0  0  2  0  0  0  0  0  0
  193.9890  172.1020  144.3680 O   0  0  0  0  0  1  0  0  0  0  0  0
  193.7940  173.4860  144.4110 C   0  0  1  0  0  3  0  0  0  0  0  0
  193.4450  174.0040  143.0170 C   0  0  1  0  0  3  0  0  0  0  0  0
  192.0590  174.0770  142.8610 O   0  0  0  0  0  1  0  0  0  0  0  0
  195.2710  175.5340  142.9540 O   0  0  0  0  0  1  0  0  0  0  0  0
  194.0370  175.3550  142.7860 C   0  0  0  0  0  0  0  0  0  0  0  0
  193.2330  176.4190  142.3960 O   0  0  0  0  0  0  0  0  0  0  0  0
  2 14  2  0  0  0  0
  3  1  2  0  0  0  0
  4  6  1  0  0  0  0
  5  1  1  1  0  0  0
  6  3  1  0  0  0  0
  7  9  1  6  0  0  0
  7 15  1  0  0  0  0
  9 13  1  0  0  0  0
 10 20  1  6  0  0  0
 10 16  1  0  0  0  0
 10  9  1  0  0  0  0
 12 13  2  0  0  0  0
 13 17  1  0  0  0  0
 14  8  1  0  0  0  0
 14 11  1  0  0  0  0
 15  5  1  0  0  0  0
 15 11  1  1  0  0  0
 17  6  2  0  0  0  0
 17  5  1  0  0  0  0
 18 16  1  6  0  0  0
 18  7  1  0  0  0  0
 18  2  1  0  0  0  0
 19 20  2  0  0  0  0
 21 19  2  0  0  0  0
 21 26  1  0  0  0  0
 22 24  2  0  0  0  0
 23 25  1  0  0  0  0
 24 25  1  0  0  0  0
 24 21  1  0  0  0  0
 26 27  1  0  0  0  0
 28  8  1  0  0  0  0
 29 28  1  0  0  0  0
 31 30  1  6  0  0  0
 31 29  1  0  0  0  0
 32 33  1  1  0  0  0
 32 31  1  0  0  0  0
 35 34  1  0  0  0  0
 35 32  1  0  0  0  0
 36 35  2  0  0  0  0
M  END
>  <MODEL>
6

>  <REMARK>
 VINA RESULT:      -7.2      1.220      1.738
  Name = 
  8 active torsions:
  status: ('A' for Active; 'I' for Inactive)
    1  A    between atoms: C_6  and  C_12
    2  A    between atoms: C_12  and  C_34
    3  A    between atoms: C_13  and  N_15
    4  A    between atoms: C_13  and  C_20
    5  A    between atoms: C_17  and  C_24
    6  A    between atoms: N_19  and  C_26
    7  A    between atoms: C_20  and  C_34
    8  A    between atoms: C_22  and  C_26
                            x       y       z     vdW  Elec       q    Type
                         _______ _______ _______ _____ _____    ______ ____

>  <TORSDO>
F 8

$$$$
=
 OpenBabel11042414423D

 36 39  0  0  1  0  0  0  0  0999 V2000
  193.3030  176.7890  146.3430 C   0  0  0  0  0  3  0  0  0  0  0  0
  188.8500  175.2900  144.1820 N   0  0  0  0  0  0  0  0  0  0  0  0
  194.5690  176.3930  146.4400 C   0  0  0  0  0  3  0  0  0  0  0  0
  195.9160  174.2380  145.8820 C   0  0  0  0  0  1  0  0  0  0  0  0
  192.4270  175.6450  145.9310 C   0  0  1  0  0  3  0  0  0  0  0  0
  194.6430  174.9900  146.0650 C   0  0  0  0  0  0  0  0  0  0  0  0
  191.1220  174.5900  144.0150 C   0  0  2  0  0  3  0  0  0  0  0  0
  188.2730  177.5700  143.8700 N   0  0  0  0  0  2  0  0  0  0  0  0
  191.8800  173.3650  144.2170 N   0  0  0  0  0  0  0  0  0  0  0  0
  190.9470  172.2410  144.2000 C   0  0  1  0  0  3  0  0  0  0  0  0
  190.5610  176.9610  144.7950 C   0  0  0  0  0  2  0  0  0  0  0  0
  193.7830  172.3030  145.0760 O   0  0  0  0  0  0  0  0  0  0  0  0
  193.0760  173.3440  145.0060 C   0  0  0  0  0  0  0  0  0  0  0  0
  189.1900  176.5500  144.2620 C   0  0  0  0  0  0  0  0  0  0  0  0
  191.6840  175.8990  144.6140 C   0  0  1  0  0  3  0  0  0  0  0  0
  189.5390  172.8680  144.1600 C   0  0  0  0  0  2  0  0  0  0  0  0
  193.4340  174.5700  145.7290 C   0  0  0  0  0  0  0  0  0  0  0  0
  189.7970  174.2840  144.6270 C   0  0  2  0  0  3  0  0  0  0  0  0
  191.2870  171.9370  141.8100 C   0  0  0  0  0  0  0  0  0  0  0  0
  191.1880  171.3970  142.9930 C   0  0  0  0  0  3  0  0  0  0  0  0
  191.3860  172.4820  140.6240 C   0  0  0  0  0  0  0  0  0  0  0  0
  190.1000  171.0870  139.1910 O   0  0  0  0  0  0  0  0  0  0  0  0
  188.5650  173.2010  138.0920 C   0  0  0  0  0  1  0  0  0  0  0  0
  190.3440  172.2540  139.6080 C   0  0  0  0  0  0  0  0  0  0  0  0
  189.6050  173.3640  139.0940 N   0  0  0  0  0  2  0  0  0  0  0  0
  192.5090  173.3090  140.3060 N   0  0  0  0  0  2  0  0  0  0  0  0
  192.6630  174.5410  140.8480 O   0  0  0  0  0  1  0  0  0  0  0  0
  186.9440  177.2710  143.3580 C   0  0  0  0  0  2  0  0  0  0  0  0
  185.9040  177.4720  144.4480 C   0  0  0  0  0  2  0  0  0  0  0  0
  185.1860  179.7470  144.4100 O   0  0  0  0  0  1  0  0  0  0  0  0
  186.0300  178.8540  145.0780 C   0  0  1  0  0  3  0  0  0  0  0  0
  185.6560  178.7950  146.5570 C   0  0  1  0  0  3  0  0  0  0  0  0
  184.3160  178.4270  146.7030 O   0  0  0  0  0  1  0  0  0  0  0  0
  187.7690  177.9260  147.2360 O   0  0  0  0  0  0  0  0  0  0  0  0
  186.5170  177.8160  147.2870 C   0  0  0  0  0  0  0  0  0  0  0  0
  185.9440  176.7800  148.0140 O   0  0  0  0  0  1  0  0  0  0  0  0
  1  3  2  0  0  0  0
  2 14  2  0  0  0  0
  2 18  1  0  0  0  0
  4  6  1  0  0  0  0
  5  1  1  6  0  0  0
  6  3  1  0  0  0  0
  7  9  1  1  0  0  0
  7 15  1  0  0  0  0
  7 18  1  0  0  0  0
  8 14  1  0  0  0  0
  9 13  1  0  0  0  0
 10 20  1  6  0  0  0
 10  9  1  0  0  0  0
 13 12  2  0  0  0  0
 13 17  1  0  0  0  0
 14 11  1  0  0  0  0
 15 11  1  1  0  0  0
 15  5  1  0  0  0  0
 16 10  1  0  0  0  0
 17  5  1  0  0  0  0
 17  6  2  0  0  0  0
 18 16  1  6  0  0  0
 19 20  2  0  0  0  0
 21 19  2  0  0  0  0
 22 24  2  0  0  0  0
 23 25  1  0  0  0  0
 24 21  1  0  0  0  0
 25 24  1  0  0  0  0
 26 21  1  0  0  0  0
 26 27  1  0  0  0  0
 28  8  1  0  0  0  0
 28 29  1  0  0  0  0
 29 31  1  0  0  0  0
 31 30  1  6  0  0  0
 31 32  1  0  0  0  0
 32 33  1  6  0  0  0
 32 35  1  0  0  0  0
 34 35  2  0  0  0  0
 35 36  1  0  0  0  0
M  END
>  <MODEL>
7

>  <REMARK>
 VINA RESULT:      -7.1      2.545      7.110
  Name = 
  8 active torsions:
  status: ('A' for Active; 'I' for Inactive)
    1  A    between atoms: C_6  and  C_12
    2  A    between atoms: C_12  and  C_34
    3  A    between atoms: C_13  and  N_15
    4  A    between atoms: C_13  and  C_20
    5  A    between atoms: C_17  and  C_24
    6  A    between atoms: N_19  and  C_26
    7  A    between atoms: C_20  and  C_34
    8  A    between atoms: C_22  and  C_26
                            x       y       z     vdW  Elec       q    Type
                         _______ _______ _______ _____ _____    ______ ____

>  <TORSDO>
F 8

$$$$
=
 OpenBabel11042414423D

 36 39  0  0  1  0  0  0  0  0999 V2000
  194.4980  175.4650  146.3170 C   0  0  0  0  0  3  0  0  0  0  0  0
  189.4690  175.2070  145.1380 N   0  0  0  0  0  0  0  0  0  0  0  0
  195.6430  174.8580  146.0220 C   0  0  0  0  0  3  0  0  0  0  0  0
  196.3560  172.6830  144.7840 C   0  0  0  0  0  1  0  0  0  0  0  0
  193.3330  174.5930  145.9550 C   0  0  1  0  0  3  0  0  0  0  0  0
  195.3390  173.5740  145.4090 C   0  0  0  0  0  0  0  0  0  0  0  0
  191.4530  174.2000  144.2830 C   0  0  2  0  0  3  0  0  0  0  0  0
  189.3280  177.5640  145.3720 N   0  0  0  0  0  2  0  0  0  0  0  0
  191.9630  172.8540  144.0760 N   0  0  0  0  0  0  0  0  0  0  0  0
  190.8360  171.9260  144.1070 C   0  0  1  0  0  3  0  0  0  0  0  0
  191.5830  176.4080  145.5680 C   0  0  0  0  0  2  0  0  0  0  0  0
  193.7430  171.3380  144.2310 O   0  0  0  0  0  0  0  0  0  0  0  0
  193.2700  172.4700  144.5200 C   0  0  0  0  0  0  0  0  0  0  0  0
  190.0740  176.3480  145.3400 C   0  0  0  0  0  0  0  0  0  0  0  0
  192.3930  175.2410  144.9320 C   0  0  1  0  0  3  0  0  0  0  0  0
  189.6150  172.7670  144.5320 C   0  0  0  0  0  2  0  0  0  0  0  0
  194.0250  173.4380  145.3250 C   0  0  0  0  0  0  0  0  0  0  0  0
  190.2580  173.9890  145.1500 C   0  0  2  0  0  3  0  0  0  0  0  0
  190.6390  172.0820  141.6870 C   0  0  0  0  0  0  0  0  0  0  0  0
  190.6260  171.3320  142.7540 C   0  0  0  0  0  3  0  0  0  0  0  0
  190.6540  172.8370  140.6170 C   0  0  0  0  0  0  0  0  0  0  0  0
  188.3200  172.5810  140.2410 O   0  0  0  0  0  0  0  0  0  0  0  0
  188.2840  174.0910  137.8430 C   0  0  0  0  0  1  0  0  0  0  0  0
  189.4190  173.0630  139.8460 C   0  0  0  0  0  0  0  0  0  0  0  0
  189.4690  173.8340  138.6440 N   0  0  0  0  0  2  0  0  0  0  0  0
  191.8710  173.4550  140.1910 N   0  0  0  0  0  2  0  0  0  0  0  0
  192.4430  174.4630  140.8930 O   0  0  0  0  0  1  0  0  0  0  0  0
  187.8870  177.6010  145.1720 C   0  0  0  0  0  2  0  0  0  0  0  0
  187.5660  177.7950  143.6990 C   0  0  0  0  0  2  0  0  0  0  0  0
  185.9160  179.3970  144.3340 O   0  0  0  0  0  1  0  0  0  0  0  0
  186.1370  178.2910  143.5090 C   0  0  1  0  0  3  0  0  0  0  0  0
  185.9020  178.6760  142.0500 C   0  0  1  0  0  3  0  0  0  0  0  0
  186.8410  178.0490  141.2270 O   0  0  0  0  0  1  0  0  0  0  0  0
  184.2810  178.1450  140.3860 O   0  0  0  0  0  0  0  0  0  0  0  0
  184.5280  178.2900  141.6110 C   0  0  0  0  0  0  0  0  0  0  0  0
  183.5180  178.0960  142.5460 O   0  0  0  0  0  1  0  0  0  0  0  0
  2 18  1  0  0  0  0
  2 14  2  0  0  0  0
  3  1  2  0  0  0  0
  4  6  1  0  0  0  0
  5  1  1  6  0  0  0
  6  3  1  0  0  0  0
  7  9  1  1  0  0  0
  7 15  1  0  0  0  0
  7 18  1  0  0  0  0
  9 10  1  0  0  0  0
  9 13  1  0  0  0  0
 10 20  1  6  0  0  0
 10 16  1  0  0  0  0
 12 13  2  0  0  0  0
 13 17  1  0  0  0  0
 14  8  1  0  0  0  0
 14 11  1  0  0  0  0
 15 11  1  1  0  0  0
 15  5  1  0  0  0  0
 17  6  2  0  0  0  0
 17  5  1  0  0  0  0
 18 16  1  6  0  0  0
 19 20  2  0  0  0  0
 21 19  2  0  0  0  0
 23 25  1  0  0  0  0
 24 22  2  0  0  0  0
 24 21  1  0  0  0  0
 25 24  1  0  0  0  0
 26 21  1  0  0  0  0
 26 27  1  0  0  0  0
 28  8  1  0  0  0  0
 29 28  1  0  0  0  0
 31 29  1  0  0  0  0
 31 30  1  1  0  0  0
 32 33  1  6  0  0  0
 32 31  1  0  0  0  0
 34 35  2  0  0  0  0
 35 32  1  0  0  0  0
 35 36  1  0  0  0  0
M  END
>  <MODEL>
8

>  <REMARK>
 VINA RESULT:      -7.1      2.513      7.374
  Name = 
  8 active torsions:
  status: ('A' for Active; 'I' for Inactive)
    1  A    between atoms: C_6  and  C_12
    2  A    between atoms: C_12  and  C_34
    3  A    between atoms: C_13  and  N_15
    4  A    between atoms: C_13  and  C_20
    5  A    between atoms: C_17  and  C_24
    6  A    between atoms: N_19  and  C_26
    7  A    between atoms: C_20  and  C_34
    8  A    between atoms: C_22  and  C_26
                            x       y       z     vdW  Elec       q    Type
                         _______ _______ _______ _____ _____    ______ ____

>  <TORSDO>
F 8

$$$$
=
 OpenBabel11042414423D

 36 39  0  0  1  0  0  0  0  0999 V2000
  185.5660  177.1810  142.8570 C   0  0  0  0  0  3  0  0  0  0  0  0
  189.4670  173.7890  142.6960 N   0  0  0  0  0  0  0  0  0  0  0  0
  185.0990  178.1560  143.6320 C   0  0  0  0  0  3  0  0  0  0  0  0
  185.5670  179.0410  146.0340 C   0  0  0  0  0  1  0  0  0  0  0  0
  186.5010  176.3000  143.6300 C   0  0  1  0  0  3  0  0  0  0  0  0
  185.7080  178.0310  144.9470 C   0  0  0  0  0  0  0  0  0  0  0  0
  188.9360  175.6830  144.0430 C   0  0  2  0  0  3  0  0  0  0  0  0
  189.4810  173.9700  140.3290 N   0  0  0  0  0  2  0  0  0  0  0  0
  188.7350  175.9650  145.4550 N   0  0  0  0  0  0  0  0  0  0  0  0
  189.3270  174.8780  146.2300 C   0  0  1  0  0  3  0  0  0  0  0  0
  187.9350  175.4510  141.7000 C   0  0  0  0  0  2  0  0  0  0  0  0
  187.4840  177.0240  147.1300 O   0  0  0  0  0  0  0  0  0  0  0  0
  187.5870  176.6860  145.9200 C   0  0  0  0  0  0  0  0  0  0  0  0
  189.0050  174.3640  141.6160 C   0  0  0  0  0  0  0  0  0  0  0  0
  187.9130  176.2510  143.0350 C   0  0  1  0  0  3  0  0  0  0  0  0
  189.7460  173.8110  145.1980 C   0  0  0  0  0  2  0  0  0  0  0  0
  186.5420  177.0040  144.9390 C   0  0  0  0  0  0  0  0  0  0  0  0
  188.9300  174.1930  143.9820 C   0  0  2  0  0  3  0  0  0  0  0  0
  191.6130  175.7000  146.3670 C   0  0  0  0  0  0  0  0  0  0  0  0
  190.5120  175.3770  146.9880 C   0  0  0  0  0  3  0  0  0  0  0  0
  192.7180  176.0230  145.7420 C   0  0  0  0  0  0  0  0  0  0  0  0
  194.9410  175.6870  146.5130 O   0  0  0  0  0  0  0  0  0  0  0  0
  195.1500  173.0360  145.5330 C   0  0  0  0  0  1  0  0  0  0  0  0
  193.9370  175.2130  145.9130 C   0  0  0  0  0  0  0  0  0  0  0  0
  193.9770  173.8820  145.3950 N   0  0  0  0  0  2  0  0  0  0  0  0
  192.7470  177.1660  144.8830 N   0  0  0  0  0  2  0  0  0  0  0  0
  191.6140  177.6960  144.3630 O   0  0  0  0  0  1  0  0  0  0  0  0
  190.4940  172.9390  140.1540 C   0  0  0  0  0  2  0  0  0  0  0  0
  191.6450  173.4720  139.3180 C   0  0  0  0  0  2  0  0  0  0  0  0
  193.9460  174.0740  139.5060 O   0  0  0  0  0  1  0  0  0  0  0  0
  192.9860  173.1750  139.9790 C   0  0  1  0  0  3  0  0  0  0  0  0
  192.8640  173.2970  141.4970 C   0  0  1  0  0  3  0  0  0  0  0  0
  193.7130  172.3830  142.1250 O   0  0  0  0  0  1  0  0  0  0  0  0
  192.3110  175.5590  142.0030 O   0  0  0  0  0  0  0  0  0  0  0  0
  193.2070  174.6780  141.9510 C   0  0  0  0  0  0  0  0  0  0  0  0
  194.5120  174.9980  142.3070 O   0  0  0  0  0  1  0  0  0  0  0  0
  1  3  2  0  0  0  0
  2 18  1  0  0  0  0
  3  6  1  0  0  0  0
  5  1  1  6  0  0  0
  5 17  1  0  0  0  0
  6  4  1  0  0  0  0
  7  9  1  1  0  0  0
  8 14  1  0  0  0  0
  9 13  1  0  0  0  0
  9 10  1  0  0  0  0
 10 20  1  6  0  0  0
 13 12  2  0  0  0  0
 14 11  1  0  0  0  0
 14  2  2  0  0  0  0
 15 11  1  6  0  0  0
 15  5  1  0  0  0  0
 15  7  1  0  0  0  0
 16 10  1  0  0  0  0
 17  6  2  0  0  0  0
 17 13  1  0  0  0  0
 18  7  1  0  0  0  0
 18 16  1  1  0  0  0
 19 20  2  0  0  0  0
 21 24  1  0  0  0  0
 21 19  2  0  0  0  0
 24 22  2  0  0  0  0
 25 23  1  0  0  0  0
 25 24  1  0  0  0  0
 26 21  1  0  0  0  0
 27 26  1  0  0  0  0
 28  8  1  0  0  0  0
 29 31  1  0  0  0  0
 29 28  1  0  0  0  0
 31 30  1  6  0  0  0
 31 32  1  0  0  0  0
 32 35  1  0  0  0  0
 32 33  1  1  0  0  0
 35 34  2  0  0  0  0
 35 36  1  0  0  0  0
M  END
>  <MODEL>
9

>  <REMARK>
 VINA RESULT:      -7.1      2.202      5.411
  Name = 
  8 active torsions:
  status: ('A' for Active; 'I' for Inactive)
    1  A    between atoms: C_6  and  C_12
    2  A    between atoms: C_12  and  C_34
    3  A    between atoms: C_13  and  N_15
    4  A    between atoms: C_13  and  C_20
    5  A    between atoms: C_17  and  C_24
    6  A    between atoms: N_19  and  C_26
    7  A    between atoms: C_20  and  C_34
    8  A    between atoms: C_22  and  C_26
                            x       y       z     vdW  Elec       q    Type
                         _______ _______ _______ _____ _____    ______ ____

>  <TORSDO>
F 8

$$$$
