=
 OpenBabel11042415513D

 34 37  0  0  1  0  0  0  0  0999 V2000
  187.5130  176.7470  142.8010 C   0  0  0  0  0  0  0  0  0  0  0  0
  185.4580  178.9230  146.4110 C   0  0  0  0  0  0  0  0  0  0  0  0
  189.9230  178.2180  144.4500 O   0  0  0  0  0  1  0  0  0  0  0  0
  185.8940  177.0750  142.4230 S   0  0  0  0  0  0  0  0  0  0  0  0
  189.1890  177.0530  144.6720 C   0  0  2  0  0  3  0  0  0  0  0  0
  189.9290  175.8430  144.0640 C   0  0  2  0  0  3  0  0  0  0  0  0
  184.3320  178.9010  145.5650 C   0  0  0  0  0  3  0  0  0  0  0  0
  185.3690  179.4770  147.6430 F   0  0  0  0  0  0  0  0  0  0  0  0
  189.8990  175.8760  142.5130 C   0  0  2  0  0  3  0  0  0  0  0  0
  186.7200  177.8090  144.7000 C   0  0  0  0  0  0  0  0  0  0  0  0
  186.6720  178.3690  145.9760 C   0  0  0  0  0  3  0  0  0  0  0  0
  185.5860  177.8120  143.9040 C   0  0  0  0  0  0  0  0  0  0  0  0
  187.8140  177.2000  144.0820 C   0  0  0  0  0  0  0  0  0  0  0  0
  184.4110  178.3450  144.3210 N   0  0  0  0  0  0  0  0  0  0  0  0
  188.4980  176.0450  141.9720 C   0  0  0  0  0  0  0  0  0  0  0  0
  188.2000  175.6580  140.8120 O   0  0  0  0  0  0  0  0  0  0  0  0
  190.5370  174.6930  141.9500 N   0  0  0  0  0  2  0  0  0  0  0  0
  192.6130  174.1200  140.9000 C   0  0  0  0  0  2  0  0  0  0  0  0
  191.9700  174.9350  141.9510 C   0  0  2  0  0  3  0  0  0  0  0  0
  192.6380  173.7340  142.2510 O   0  0  0  0  0  0  0  0  0  0  0  0
  189.3640  174.5270  144.6080 C   0  0  0  0  0  2  0  0  0  0  0  0
  190.1040  174.0720  145.8580 C   0  0  0  0  0  2  0  0  0  0  0  0
  189.7310  174.9320  147.0610 C   0  0  1  0  0  3  0  0  0  0  0  0
  188.8520  174.2650  147.9030 F   0  0  0  0  0  0  0  0  0  0  0  0
  190.9200  175.3760  147.7860 N   0  0  0  0  0  2  0  0  0  0  0  0
  192.1150  175.0910  146.9990 C   0  0  0  0  0  2  0  0  0  0  0  0
  192.8630  176.3810  146.7070 C   0  0  0  0  0  2  0  0  0  0  0  0
  194.2760  176.1100  146.4840 N   0  0  0  0  0  2  0  0  0  0  0  0
  194.6930  176.8570  145.3060 C   0  0  0  0  0  2  0  0  0  0  0  0
  194.1990  176.2390  144.1530 O   0  0  0  0  0  0  0  0  0  0  0  0
  195.5310  176.0840  143.1130 P   0  0  0  0  0  0  0  0  0  0  0  0
  196.0390  174.4710  143.1090 O   0  0  0  0  0  1  0  0  0  0  0  0
  196.6670  176.9570  143.5960 O   0  0  0  0  0  1  0  0  0  0  0  0
  195.0970  176.5340  141.5410 O   0  0  0  0  0  0  0  0  0  0  0  0
  1 13  2  0  0  0  0
  2  8  1  0  0  0  0
  4  1  1  0  0  0  0
  4 12  1  0  0  0  0
  5  3  1  6  0  0  0
  6 21  1  1  0  0  0
  6  5  1  0  0  0  0
  7  2  2  0  0  0  0
  9 17  1  6  0  0  0
  9  6  1  0  0  0  0
 10 11  2  0  0  0  0
 11  2  1  0  0  0  0
 12 14  2  0  0  0  0
 12 10  1  0  0  0  0
 13  5  1  0  0  0  0
 13 10  1  0  0  0  0
 14  7  1  0  0  0  0
 15  9  1  0  0  0  0
 15  1  1  0  0  0  0
 16 15  2  0  0  0  0
 18 19  1  0  0  0  0
 18 20  1  0  0  0  0
 19 17  1  6  0  0  0
 19 20  1  0  0  0  0
 21 22  1  0  0  0  0
 22 23  1  0  0  0  0
 23 25  1  0  0  0  0
 23 24  1  1  0  0  0
 26 25  1  0  0  0  0
 27 26  1  0  0  0  0
 28 27  1  0  0  0  0
 29 28  1  0  0  0  0
 30 29  1  0  0  0  0
 31 33  1  0  0  0  0
 31 30  1  0  0  0  0
 32 31  1  0  0  0  0
 34 31  2  0  0  0  0
M  END
>  <MODEL>
1

>  <REMARK>
 VINA RESULT:      -6.7      0.000      0.000
  Name = 
  12 active torsions:
  status: ('A' for Active; 'I' for Inactive)
    1  A    between atoms: C_2  and  O_4
    2  A    between atoms: C_2  and  N_12
    3  A    between atoms: O_4  and  P_13
    4  A    between atoms: N_5  and  C_18
    5  A    between atoms: N_5  and  C_29
    6  A    between atoms: C_6  and  C_8
    7  A    between atoms: C_6  and  N_12
    8  A    between atoms: C_8  and  N_16
    9  A    between atoms: C_11  and  C_23
   10  A    between atoms: C_15  and  C_23
   11  A    between atoms: C_15  and  C_32
   12  A    between atoms: N_16  and  C_32
                            x       y       z     vdW  Elec       q    Type
                         _______ _______ _______ _____ _____    ______ ____

>  <TORSDO>
F 12

$$$$
=
 OpenBabel11042415513D

 34 37  0  0  1  0  0  0  0  0999 V2000
  191.3780  173.6240  143.6440 C   0  0  0  0  0  0  0  0  0  0  0  0
  188.4200  177.0990  142.5670 C   0  0  0  0  0  0  0  0  0  0  0  0
  193.2530  176.1960  142.8950 O   0  0  0  0  0  1  0  0  0  0  0  0
  189.9030  172.9760  143.1200 S   0  0  0  0  0  0  0  0  0  0  0  0
  192.5130  175.8530  144.0270 C   0  0  2  0  0  3  0  0  0  0  0  0
  193.4110  175.1020  145.0330 C   0  0  2  0  0  3  0  0  0  0  0  0
  187.5490  176.0360  142.2610 C   0  0  0  0  0  3  0  0  0  0  0  0
  188.0060  178.3800  142.4140 F   0  0  0  0  0  0  0  0  0  0  0  0
  193.7770  173.6830  144.5220 C   0  0  2  0  0  3  0  0  0  0  0  0
  190.1020  175.4990  143.1730 C   0  0  0  0  0  0  0  0  0  0  0  0
  189.7170  176.8300  143.0300 C   0  0  0  0  0  3  0  0  0  0  0  0
  189.2100  174.4860  142.8580 C   0  0  0  0  0  0  0  0  0  0  0  0
  191.3310  175.0140  143.6250 C   0  0  0  0  0  0  0  0  0  0  0  0
  187.9550  174.7420  142.4110 N   0  0  0  0  0  0  0  0  0  0  0  0
  192.5580  172.8910  144.1130 C   0  0  0  0  0  0  0  0  0  0  0  0
  192.5750  171.6320  144.1060 O   0  0  0  0  0  0  0  0  0  0  0  0
  194.5650  172.9570  145.5100 N   0  0  0  0  0  2  0  0  0  0  0  0
  196.8580  172.5970  146.1060 C   0  0  0  0  0  2  0  0  0  0  0  0
  195.9200  172.8610  144.9940 C   0  0  2  0  0  3  0  0  0  0  0  0
  196.7010  173.8840  145.5630 O   0  0  0  0  0  0  0  0  0  0  0  0
  192.7560  175.0490  146.4160 C   0  0  0  0  0  2  0  0  0  0  0  0
  192.3430  176.4330  146.8970 C   0  0  0  0  0  2  0  0  0  0  0  0
  191.1080  176.3580  147.7890 C   0  0  1  0  0  3  0  0  0  0  0  0
  190.8200  177.5930  148.3520 F   0  0  0  0  0  0  0  0  0  0  0  0
  189.9570  175.8310  147.0590 N   0  0  0  0  0  2  0  0  0  0  0  0
  189.0590  176.9210  146.6930 C   0  0  0  0  0  2  0  0  0  0  0  0
  187.7320  176.3600  146.2120 C   0  0  0  0  0  2  0  0  0  0  0  0
  186.6260  176.9980  146.9130 N   0  0  0  0  0  2  0  0  0  0  0  0
  185.4240  176.8070  146.1150 C   0  0  0  0  0  2  0  0  0  0  0  0
  185.6460  177.2520  144.8080 O   0  0  0  0  0  0  0  0  0  0  0  0
  184.6820  178.6360  144.6260 P   0  0  0  0  0  0  0  0  0  0  0  0
  185.6850  179.9920  144.5000 O   0  0  0  0  0  1  0  0  0  0  0  0
  183.7810  178.7990  145.8300 O   0  0  0  0  0  1  0  0  0  0  0  0
  183.7410  178.5100  143.2260 O   0  0  0  0  0  0  0  0  0  0  0  0
  1 15  1  0  0  0  0
  2 11  1  0  0  0  0
  4  1  1  0  0  0  0
  5  3  1  6  0  0  0
  5  6  1  0  0  0  0
  6 21  1  1  0  0  0
  7 14  1  0  0  0  0
  7  2  2  0  0  0  0
  8  2  1  0  0  0  0
  9  6  1  0  0  0  0
  9 17  1  1  0  0  0
 10 13  1  0  0  0  0
 11 10  2  0  0  0  0
 12  4  1  0  0  0  0
 12 10  1  0  0  0  0
 13  1  2  0  0  0  0
 13  5  1  0  0  0  0
 14 12  2  0  0  0  0
 15  9  1  0  0  0  0
 16 15  2  0  0  0  0
 19 17  1  1  0  0  0
 19 20  1  0  0  0  0
 19 18  1  0  0  0  0
 20 18  1  0  0  0  0
 21 22  1  0  0  0  0
 22 23  1  0  0  0  0
 23 24  1  6  0  0  0
 25 23  1  0  0  0  0
 26 25  1  0  0  0  0
 27 26  1  0  0  0  0
 27 28  1  0  0  0  0
 29 28  1  0  0  0  0
 30 29  1  0  0  0  0
 31 30  1  0  0  0  0
 31 33  1  0  0  0  0
 32 31  1  0  0  0  0
 34 31  2  0  0  0  0
M  END
>  <MODEL>
2

>  <REMARK>
 VINA RESULT:      -6.4      3.748      6.479
  Name = 
  12 active torsions:
  status: ('A' for Active; 'I' for Inactive)
    1  A    between atoms: C_2  and  O_4
    2  A    between atoms: C_2  and  N_12
    3  A    between atoms: O_4  and  P_13
    4  A    between atoms: N_5  and  C_18
    5  A    between atoms: N_5  and  C_29
    6  A    between atoms: C_6  and  C_8
    7  A    between atoms: C_6  and  N_12
    8  A    between atoms: C_8  and  N_16
    9  A    between atoms: C_11  and  C_23
   10  A    between atoms: C_15  and  C_23
   11  A    between atoms: C_15  and  C_32
   12  A    between atoms: N_16  and  C_32
                            x       y       z     vdW  Elec       q    Type
                         _______ _______ _______ _____ _____    ______ ____

>  <TORSDO>
F 12

$$$$
=
 OpenBabel11042415513D

 34 37  0  0  1  0  0  0  0  0999 V2000
  191.8350  174.7300  143.1380 C   0  0  0  0  0  0  0  0  0  0  0  0
  189.5480  174.6880  147.2320 C   0  0  0  0  0  0  0  0  0  0  0  0
  190.5460  171.7380  143.4120 O   0  0  0  0  0  1  0  0  0  0  0  0
  192.5060  175.8880  144.1780 S   0  0  0  0  0  0  0  0  0  0  0  0
  190.0100  172.9800  143.0710 C   0  0  2  0  0  3  0  0  0  0  0  0
  190.0390  173.1600  141.5390 C   0  0  2  0  0  3  0  0  0  0  0  0
  190.4620  175.7080  147.5600 C   0  0  0  0  0  3  0  0  0  0  0  0
  188.6230  174.2900  148.1360 F   0  0  0  0  0  0  0  0  0  0  0  0
  191.4870  173.3510  141.0140 C   0  0  2  0  0  3  0  0  0  0  0  0
  190.5660  174.5240  145.0640 C   0  0  0  0  0  0  0  0  0  0  0  0
  189.5980  174.0850  145.9650 C   0  0  0  0  0  3  0  0  0  0  0  0
  191.4440  175.5300  145.4340 C   0  0  0  0  0  0  0  0  0  0  0  0
  190.7800  174.0720  143.7600 C   0  0  0  0  0  0  0  0  0  0  0  0
  191.3990  176.1160  146.6560 N   0  0  0  0  0  0  0  0  0  0  0  0
  192.2220  174.4450  141.7530 C   0  0  0  0  0  0  0  0  0  0  0  0
  193.1910  175.0490  141.2210 O   0  0  0  0  0  0  0  0  0  0  0  0
  191.4980  173.5920  139.5780 N   0  0  0  0  0  2  0  0  0  0  0  0
  192.2350  172.4760  137.5900 C   0  0  0  0  0  2  0  0  0  0  0  0
  191.6270  172.3000  138.9250 C   0  0  2  0  0  3  0  0  0  0  0  0
  190.8500  172.2990  137.7520 O   0  0  0  0  0  0  0  0  0  0  0  0
  189.1300  174.3150  141.1070 C   0  0  0  0  0  2  0  0  0  0  0  0
  187.8160  174.3130  141.8750 C   0  0  0  0  0  2  0  0  0  0  0  0
  187.4990  175.7010  142.4240 C   0  0  1  0  0  3  0  0  0  0  0  0
  187.7610  175.7750  143.7840 F   0  0  0  0  0  0  0  0  0  0  0  0
  188.2210  176.7390  141.6910 N   0  0  0  0  0  2  0  0  0  0  0  0
  187.2950  177.7860  141.2720 C   0  0  0  0  0  2  0  0  0  0  0  0
  185.9060  177.4960  141.8130 C   0  0  0  0  0  2  0  0  0  0  0  0
  185.3680  178.6690  142.4880 N   0  0  0  0  0  2  0  0  0  0  0  0
  185.1870  178.3310  143.8930 C   0  0  0  0  0  2  0  0  0  0  0  0
  186.2340  178.8690  144.6480 O   0  0  0  0  0  0  0  0  0  0  0  0
  186.0710  178.1960  146.1970 P   0  0  0  0  0  0  0  0  0  0  0  0
  184.8890  176.9880  146.1500 O   0  0  0  0  0  0  0  0  0  0  0  0
  185.6470  179.2630  147.1810 O   0  0  0  0  0  1  0  0  0  0  0  0
  187.5390  177.5170  146.6940 O   0  0  0  0  0  1  0  0  0  0  0  0
  1 13  2  0  0  0  0
  1  4  1  0  0  0  0
  2  7  1  0  0  0  0
  2  8  1  0  0  0  0
  4 12  1  0  0  0  0
  5  3  1  6  0  0  0
  5 13  1  0  0  0  0
  6 21  1  1  0  0  0
  6  5  1  0  0  0  0
  9 17  1  6  0  0  0
  9  6  1  0  0  0  0
  9 15  1  0  0  0  0
 10 12  2  0  0  0  0
 10 11  1  0  0  0  0
 11  2  2  0  0  0  0
 12 14  1  0  0  0  0
 13 10  1  0  0  0  0
 14  7  2  0  0  0  0
 15  1  1  0  0  0  0
 16 15  2  0  0  0  0
 18 20  1  0  0  0  0
 18 19  1  0  0  0  0
 19 17  1  1  0  0  0
 20 19  1  0  0  0  0
 21 22  1  0  0  0  0
 22 23  1  0  0  0  0
 23 24  1  1  0  0  0
 25 23  1  0  0  0  0
 26 25  1  0  0  0  0
 26 27  1  0  0  0  0
 27 28  1  0  0  0  0
 28 29  1  0  0  0  0
 29 30  1  0  0  0  0
 30 31  1  0  0  0  0
 31 34  1  0  0  0  0
 31 33  1  0  0  0  0
 32 31  2  0  0  0  0
M  END
>  <MODEL>
3

>  <REMARK>
 VINA RESULT:      -6.2      3.342      6.775
  Name = 
  12 active torsions:
  status: ('A' for Active; 'I' for Inactive)
    1  A    between atoms: C_2  and  O_4
    2  A    between atoms: C_2  and  N_12
    3  A    between atoms: O_4  and  P_13
    4  A    between atoms: N_5  and  C_18
    5  A    between atoms: N_5  and  C_29
    6  A    between atoms: C_6  and  C_8
    7  A    between atoms: C_6  and  N_12
    8  A    between atoms: C_8  and  N_16
    9  A    between atoms: C_11  and  C_23
   10  A    between atoms: C_15  and  C_23
   11  A    between atoms: C_15  and  C_32
   12  A    between atoms: N_16  and  C_32
                            x       y       z     vdW  Elec       q    Type
                         _______ _______ _______ _____ _____    ______ ____

>  <TORSDO>
F 12

$$$$
=
 OpenBabel11042415513D

 34 37  0  0  1  0  0  0  0  0999 V2000
  186.6810  177.0340  144.6880 C   0  0  0  0  0  0  0  0  0  0  0  0
  185.8840  177.6210  140.1040 C   0  0  0  0  0  0  0  0  0  0  0  0
  188.3570  174.6670  143.1770 O   0  0  0  0  0  1  0  0  0  0  0  0
  185.2090  177.8430  144.4640 S   0  0  0  0  0  0  0  0  0  0  0  0
  188.5870  176.0310  143.3610 C   0  0  2  0  0  3  0  0  0  0  0  0
  189.4440  176.2520  144.6250 C   0  0  2  0  0  3  0  0  0  0  0  0
  184.7070  178.2450  140.5610 C   0  0  0  0  0  3  0  0  0  0  0  0
  186.1330  177.5330  138.7760 F   0  0  0  0  0  0  0  0  0  0  0  0
  188.6410  175.9490  145.9180 C   0  0  2  0  0  3  0  0  0  0  0  0
  186.5040  177.2030  142.3850 C   0  0  0  0  0  0  0  0  0  0  0  0
  186.7980  177.0910  141.0270 C   0  0  0  0  0  3  0  0  0  0  0  0
  185.3320  177.8250  142.7860 C   0  0  0  0  0  0  0  0  0  0  0  0
  187.2750  176.7580  143.4610 C   0  0  0  0  0  0  0  0  0  0  0  0
  184.4470  178.3400  141.8970 N   0  0  0  0  0  0  0  0  0  0  0  0
  187.3240  176.6880  145.9600 C   0  0  0  0  0  0  0  0  0  0  0  0
  186.7550  176.9390  147.0550 O   0  0  0  0  0  0  0  0  0  0  0  0
  189.4360  176.2300  147.1070 N   0  0  0  0  0  2  0  0  0  0  0  0
  191.2710  175.3770  148.3890 C   0  0  0  0  0  2  0  0  0  0  0  0
  190.5750  175.3280  147.0860 C   0  0  2  0  0  3  0  0  0  0  0  0
  191.7540  176.0740  147.2680 O   0  0  0  0  0  0  0  0  0  0  0  0
  190.0300  177.6670  144.6470 C   0  0  0  0  0  2  0  0  0  0  0  0
  190.7090  178.0150  143.3310 C   0  0  0  0  0  2  0  0  0  0  0  0
  192.1360  177.4780  143.2900 C   0  0  1  0  0  3  0  0  0  0  0  0
  192.6470  177.3110  144.5690 F   0  0  0  0  0  0  0  0  0  0  0  0
  192.2140  176.2350  142.5250 N   0  0  0  0  0  2  0  0  0  0  0  0
  193.4380  175.5180  142.8660 C   0  0  0  0  0  2  0  0  0  0  0  0
  194.6060  176.0780  142.0720 C   0  0  0  0  0  2  0  0  0  0  0  0
  195.7580  176.2840  142.9380 N   0  0  0  0  0  2  0  0  0  0  0  0
  196.4180  174.9990  143.1150 C   0  0  0  0  0  2  0  0  0  0  0  0
  197.1440  175.0000  144.3100 O   0  0  0  0  0  0  0  0  0  0  0  0
  196.1550  174.2190  145.4460 P   0  0  0  0  0  0  0  0  0  0  0  0
  197.1330  173.4940  146.6200 O   0  0  0  0  0  1  0  0  0  0  0  0
  195.3300  173.1500  144.7640 O   0  0  0  0  0  0  0  0  0  0  0  0
  195.1290  175.3380  146.1910 O   0  0  0  0  0  1  0  0  0  0  0  0
  1 15  1  0  0  0  0
  2  7  2  0  0  0  0
  2 11  1  0  0  0  0
  4  1  1  0  0  0  0
  5  3  1  1  0  0  0
  5 13  1  0  0  0  0
  5  6  1  0  0  0  0
  6 21  1  1  0  0  0
  6  9  1  0  0  0  0
  7 14  1  0  0  0  0
  8  2  1  0  0  0  0
  9 15  1  0  0  0  0
  9 17  1  1  0  0  0
 10 12  1  0  0  0  0
 10 13  1  0  0  0  0
 11 10  2  0  0  0  0
 12  4  1  0  0  0  0
 13  1  2  0  0  0  0
 14 12  2  0  0  0  0
 15 16  2  0  0  0  0
 19 17  1  1  0  0  0
 19 20  1  0  0  0  0
 19 18  1  0  0  0  0
 20 18  1  0  0  0  0
 22 21  1  0  0  0  0
 23 22  1  0  0  0  0
 23 24  1  1  0  0  0
 25 26  1  0  0  0  0
 25 23  1  0  0  0  0
 27 26  1  0  0  0  0
 27 28  1  0  0  0  0
 28 29  1  0  0  0  0
 29 30  1  0  0  0  0
 30 31  1  0  0  0  0
 31 34  1  0  0  0  0
 31 32  1  0  0  0  0
 33 31  2  0  0  0  0
M  END
>  <MODEL>
4

>  <REMARK>
 VINA RESULT:      -6.2      3.024      4.575
  Name = 
  12 active torsions:
  status: ('A' for Active; 'I' for Inactive)
    1  A    between atoms: C_2  and  O_4
    2  A    between atoms: C_2  and  N_12
    3  A    between atoms: O_4  and  P_13
    4  A    between atoms: N_5  and  C_18
    5  A    between atoms: N_5  and  C_29
    6  A    between atoms: C_6  and  C_8
    7  A    between atoms: C_6  and  N_12
    8  A    between atoms: C_8  and  N_16
    9  A    between atoms: C_11  and  C_23
   10  A    between atoms: C_15  and  C_23
   11  A    between atoms: C_15  and  C_32
   12  A    between atoms: N_16  and  C_32
                            x       y       z     vdW  Elec       q    Type
                         _______ _______ _______ _____ _____    ______ ____

>  <TORSDO>
F 12

$$$$
=
 OpenBabel11042415513D

 34 37  0  0  1  0  0  0  0  0999 V2000
  192.8100  176.3290  145.5480 C   0  0  0  0  0  0  0  0  0  0  0  0
  195.6760  175.8170  141.8730 C   0  0  0  0  0  0  0  0  0  0  0  0
  191.1740  177.4940  142.9680 O   0  0  0  0  0  1  0  0  0  0  0  0
  194.4180  176.2950  146.0800 S   0  0  0  0  0  0  0  0  0  0  0  0
  191.4460  176.2030  143.4210 C   0  0  2  0  0  3  0  0  0  0  0  0
  190.2910  175.7070  144.3170 C   0  0  2  0  0  3  0  0  0  0  0  0
  196.6780  175.8610  142.8620 C   0  0  0  0  0  3  0  0  0  0  0  0
  196.0160  175.6690  140.5700 F   0  0  0  0  0  0  0  0  0  0  0  0
  190.2610  176.4570  145.6750 C   0  0  2  0  0  3  0  0  0  0  0  0
  194.0200  176.0770  143.5890 C   0  0  0  0  0  0  0  0  0  0  0  0
  194.3260  175.9260  142.2380 C   0  0  0  0  0  3  0  0  0  0  0  0
  195.0400  176.1160  144.5260 C   0  0  0  0  0  0  0  0  0  0  0  0
  192.7530  176.1910  144.1650 C   0  0  0  0  0  0  0  0  0  0  0  0
  196.3460  176.0100  144.1770 N   0  0  0  0  0  0  0  0  0  0  0  0
  191.6010  176.4320  146.3710 C   0  0  0  0  0  0  0  0  0  0  0  0
  191.6860  176.5690  147.6200 O   0  0  0  0  0  0  0  0  0  0  0  0
  189.2130  175.9320  146.5400 N   0  0  0  0  0  2  0  0  0  0  0  0
  186.9250  176.6430  146.5510 C   0  0  0  0  0  2  0  0  0  0  0  0
  188.3180  177.0340  146.8510 C   0  0  2  0  0  3  0  0  0  0  0  0
  187.6700  177.4460  145.6710 O   0  0  0  0  0  0  0  0  0  0  0  0
  190.3660  174.1900  144.5150 C   0  0  0  0  0  2  0  0  0  0  0  0
  190.7580  173.4740  143.2300 C   0  0  0  0  0  2  0  0  0  0  0  0
  189.7650  172.3650  142.8950 C   0  0  1  0  0  3  0  0  0  0  0  0
  189.0430  171.9820  144.0160 F   0  0  0  0  0  0  0  0  0  0  0  0
  188.8760  172.7590  141.8050 N   0  0  0  0  0  2  0  0  0  0  0  0
  189.4210  173.9260  141.1180 C   0  0  0  0  0  2  0  0  0  0  0  0
  188.3240  174.9550  140.8950 C   0  0  0  0  0  2  0  0  0  0  0  0
  187.4450  175.0200  142.0540 N   0  0  0  0  0  2  0  0  0  0  0  0
  187.2020  176.4250  142.3500 C   0  0  0  0  0  2  0  0  0  0  0  0
  185.9370  176.5760  142.9260 O   0  0  0  0  0  0  0  0  0  0  0  0
  185.3320  178.0410  142.3220 P   0  0  0  0  0  0  0  0  0  0  0  0
  185.7020  178.1500  140.6750 O   0  0  0  0  0  0  0  0  0  0  0  0
  185.9720  179.2030  143.0490 O   0  0  0  0  0  1  0  0  0  0  0  0
  183.6530  178.1030  142.5190 O   0  0  0  0  0  1  0  0  0  0  0  0
  1  4  1  0  0  0  0
  1 15  1  0  0  0  0
  2 11  2  0  0  0  0
  2  7  1  0  0  0  0
  5  3  1  1  0  0  0
  5 13  1  0  0  0  0
  5  6  1  0  0  0  0
  6 21  1  1  0  0  0
  6  9  1  0  0  0  0
  7 14  2  0  0  0  0
  8  2  1  0  0  0  0
  9 15  1  0  0  0  0
  9 17  1  1  0  0  0
 10 13  1  0  0  0  0
 10 12  2  0  0  0  0
 11 10  1  0  0  0  0
 12  4  1  0  0  0  0
 13  1  2  0  0  0  0
 14 12  1  0  0  0  0
 15 16  2  0  0  0  0
 18 19  1  0  0  0  0
 19 17  1  6  0  0  0
 20 18  1  0  0  0  0
 20 19  1  0  0  0  0
 22 21  1  0  0  0  0
 23 22  1  0  0  0  0
 23 24  1  1  0  0  0
 25 23  1  0  0  0  0
 26 25  1  0  0  0  0
 27 26  1  0  0  0  0
 27 28  1  0  0  0  0
 28 29  1  0  0  0  0
 29 30  1  0  0  0  0
 31 34  1  0  0  0  0
 31 30  1  0  0  0  0
 31 33  1  0  0  0  0
 32 31  2  0  0  0  0
M  END
>  <MODEL>
5

>  <REMARK>
 VINA RESULT:      -6.2      3.995      8.034
  Name = 
  12 active torsions:
  status: ('A' for Active; 'I' for Inactive)
    1  A    between atoms: C_2  and  O_4
    2  A    between atoms: C_2  and  N_12
    3  A    between atoms: O_4  and  P_13
    4  A    between atoms: N_5  and  C_18
    5  A    between atoms: N_5  and  C_29
    6  A    between atoms: C_6  and  C_8
    7  A    between atoms: C_6  and  N_12
    8  A    between atoms: C_8  and  N_16
    9  A    between atoms: C_11  and  C_23
   10  A    between atoms: C_15  and  C_23
   11  A    between atoms: C_15  and  C_32
   12  A    between atoms: N_16  and  C_32
                            x       y       z     vdW  Elec       q    Type
                         _______ _______ _______ _____ _____    ______ ____

>  <TORSDO>
F 12

$$$$
=
 OpenBabel11042415513D

 34 37  0  0  1  0  0  0  0  0999 V2000
  186.7050  177.0440  144.6640 C   0  0  0  0  0  0  0  0  0  0  0  0
  185.9440  177.7170  140.0860 C   0  0  0  0  0  0  0  0  0  0  0  0
  188.5400  174.8250  143.1150 O   0  0  0  0  0  1  0  0  0  0  0  0
  185.1910  177.7710  144.4380 S   0  0  0  0  0  0  0  0  0  0  0  0
  188.6870  176.1940  143.3410 C   0  0  2  0  0  3  0  0  0  0  0  0
  189.5090  176.4280  144.6260 C   0  0  2  0  0  3  0  0  0  0  0  0
  184.7260  178.2580  140.5400 C   0  0  0  0  0  3  0  0  0  0  0  0
  186.2180  177.6830  138.7600 F   0  0  0  0  0  0  0  0  0  0  0  0
  188.7060  176.0410  145.8960 C   0  0  2  0  0  3  0  0  0  0  0  0
  186.5520  177.2690  142.3640 C   0  0  0  0  0  0  0  0  0  0  0  0
  186.8740  177.2150  141.0090 C   0  0  0  0  0  3  0  0  0  0  0  0
  185.3400  177.8100  142.7620 C   0  0  0  0  0  0  0  0  0  0  0  0
  187.3320  176.8390  143.4390 C   0  0  0  0  0  0  0  0  0  0  0  0
  184.4390  178.2970  141.8740 N   0  0  0  0  0  0  0  0  0  0  0  0
  187.3480  176.7000  145.9360 C   0  0  0  0  0  0  0  0  0  0  0  0
  186.7480  176.8850  147.0280 O   0  0  0  0  0  0  0  0  0  0  0  0
  189.4640  176.3330  147.1050 N   0  0  0  0  0  2  0  0  0  0  0  0
  191.2000  175.2930  148.3890 C   0  0  0  0  0  2  0  0  0  0  0  0
  190.7070  175.5830  147.0270 C   0  0  2  0  0  3  0  0  0  0  0  0
  191.7370  176.3380  147.6170 O   0  0  0  0  0  0  0  0  0  0  0  0
  190.0100  177.8740  144.6980 C   0  0  0  0  0  2  0  0  0  0  0  0
  191.1350  178.1290  143.7050 C   0  0  0  0  0  2  0  0  0  0  0  0
  192.1260  176.9700  143.6870 C   0  0  1  0  0  3  0  0  0  0  0  0
  192.6690  176.7930  142.4230 F   0  0  0  0  0  0  0  0  0  0  0  0
  193.1730  177.1520  144.6900 N   0  0  0  0  0  2  0  0  0  0  0  0
  194.3230  176.3130  144.3650 C   0  0  0  0  0  2  0  0  0  0  0  0
  194.4060  175.1480  145.3370 C   0  0  0  0  0  2  0  0  0  0  0  0
  194.0960  173.8980  144.6590 N   0  0  0  0  0  2  0  0  0  0  0  0
  192.7610  173.4870  145.0690 C   0  0  0  0  0  2  0  0  0  0  0  0
  191.8640  173.6690  144.0120 O   0  0  0  0  0  0  0  0  0  0  0  0
  190.9570  172.2370  143.9320 P   0  0  0  0  0  0  0  0  0  0  0  0
  190.3150  172.0800  142.3750 O   0  0  0  0  0  0  0  0  0  0  0  0
  189.8230  172.2880  144.9310 O   0  0  0  0  0  1  0  0  0  0  0  0
  191.9450  170.9040  144.2620 O   0  0  0  0  0  1  0  0  0  0  0  0
  1 15  1  0  0  0  0
  2  7  2  0  0  0  0
  2 11  1  0  0  0  0
  4  1  1  0  0  0  0
  5  3  1  1  0  0  0
  5 13  1  0  0  0  0
  5  6  1  0  0  0  0
  6 21  1  1  0  0  0
  6  9  1  0  0  0  0
  7 14  1  0  0  0  0
  8  2  1  0  0  0  0
  9 15  1  0  0  0  0
  9 17  1  1  0  0  0
 10 12  1  0  0  0  0
 10 13  1  0  0  0  0
 11 10  2  0  0  0  0
 12  4  1  0  0  0  0
 13  1  2  0  0  0  0
 14 12  2  0  0  0  0
 15 16  2  0  0  0  0
 19 17  1  1  0  0  0
 19 20  1  0  0  0  0
 19 18  1  0  0  0  0
 20 18  1  0  0  0  0
 22 21  1  0  0  0  0
 23 24  1  6  0  0  0
 23 22  1  0  0  0  0
 23 25  1  0  0  0  0
 26 25  1  0  0  0  0
 26 27  1  0  0  0  0
 28 29  1  0  0  0  0
 28 27  1  0  0  0  0
 30 29  1  0  0  0  0
 31 30  1  0  0  0  0
 31 34  1  0  0  0  0
 31 33  1  0  0  0  0
 32 31  2  0  0  0  0
M  END
>  <MODEL>
6

>  <REMARK>
 VINA RESULT:      -6.1      3.416      4.906
  Name = 
  12 active torsions:
  status: ('A' for Active; 'I' for Inactive)
    1  A    between atoms: C_2  and  O_4
    2  A    between atoms: C_2  and  N_12
    3  A    between atoms: O_4  and  P_13
    4  A    between atoms: N_5  and  C_18
    5  A    between atoms: N_5  and  C_29
    6  A    between atoms: C_6  and  C_8
    7  A    between atoms: C_6  and  N_12
    8  A    between atoms: C_8  and  N_16
    9  A    between atoms: C_11  and  C_23
   10  A    between atoms: C_15  and  C_23
   11  A    between atoms: C_15  and  C_32
   12  A    between atoms: N_16  and  C_32
                            x       y       z     vdW  Elec       q    Type
                         _______ _______ _______ _____ _____    ______ ____

>  <TORSDO>
F 12

$$$$
=
 OpenBabel11042415513D

 34 37  0  0  1  0  0  0  0  0999 V2000
  187.8660  177.5220  144.9670 C   0  0  0  0  0  0  0  0  0  0  0  0
  192.2440  176.2320  146.0420 C   0  0  0  0  0  0  0  0  0  0  0  0
  189.6930  178.3030  142.3700 O   0  0  0  0  0  1  0  0  0  0  0  0
  188.0570  177.4980  146.6500 S   0  0  0  0  0  0  0  0  0  0  0  0
  189.1710  177.0980  142.8410 C   0  0  2  0  0  3  0  0  0  0  0  0
  187.8030  176.8250  142.1810 C   0  0  2  0  0  3  0  0  0  0  0  0
  191.7880  176.3950  147.3640 C   0  0  0  0  0  3  0  0  0  0  0  0
  193.5200  175.8420  145.8090 F   0  0  0  0  0  0  0  0  0  0  0  0
  186.7140  177.8010  142.7030 C   0  0  2  0  0  3  0  0  0  0  0  0
  190.0710  176.8710  145.2510 C   0  0  0  0  0  0  0  0  0  0  0  0
  191.3760  176.4720  144.9670 C   0  0  0  0  0  3  0  0  0  0  0  0
  189.6680  177.0200  146.5680 C   0  0  0  0  0  0  0  0  0  0  0  0
  189.0500  177.1490  144.3390 C   0  0  0  0  0  0  0  0  0  0  0  0
  190.5040  176.7870  147.6100 N   0  0  0  0  0  0  0  0  0  0  0  0
  186.6470  177.8280  144.2110 C   0  0  0  0  0  0  0  0  0  0  0  0
  185.5940  178.1760  144.8080 O   0  0  0  0  0  0  0  0  0  0  0  0
  185.4120  177.4880  142.1280 N   0  0  0  0  0  2  0  0  0  0  0  0
  183.8340  178.2890  140.5120 C   0  0  0  0  0  2  0  0  0  0  0  0
  185.2400  178.3410  140.9640 C   0  0  2  0  0  3  0  0  0  0  0  0
  184.8420  177.5500  139.8700 O   0  0  0  0  0  0  0  0  0  0  0  0
  187.3850  175.3640  142.3720 C   0  0  0  0  0  2  0  0  0  0  0  0
  188.3000  174.4140  141.6120 C   0  0  0  0  0  2  0  0  0  0  0  0
  188.5490  173.1370  142.4090 C   0  0  1  0  0  3  0  0  0  0  0  0
  187.4400  172.3030  142.3810 F   0  0  0  0  0  0  0  0  0  0  0  0
  189.7440  172.4410  141.9360 N   0  0  0  0  0  2  0  0  0  0  0  0
  190.5610  173.3460  141.1340 C   0  0  0  0  0  2  0  0  0  0  0  0
  192.0340  173.0910  141.4030 C   0  0  0  0  0  2  0  0  0  0  0  0
  192.8070  174.3080  141.1990 N   0  0  0  0  0  2  0  0  0  0  0  0
  193.4910  174.6150  142.4460 C   0  0  0  0  0  2  0  0  0  0  0  0
  193.8150  175.9750  142.4870 O   0  0  0  0  0  0  0  0  0  0  0  0
  195.5080  176.0390  142.5640 P   0  0  0  0  0  0  0  0  0  0  0  0
  196.0830  176.9560  141.2640 O   0  0  0  0  0  0  0  0  0  0  0  0
  196.0830  174.6430  142.4740 O   0  0  0  0  0  1  0  0  0  0  0  0
  195.9990  176.7620  144.0130 O   0  0  0  0  0  1  0  0  0  0  0  0
  1  4  1  0  0  0  0
  2  7  1  0  0  0  0
  5  3  1  6  0  0  0
  5 13  1  0  0  0  0
  6 21  1  1  0  0  0
  6  9  1  0  0  0  0
  6  5  1  0  0  0  0
  7 14  2  0  0  0  0
  8  2  1  0  0  0  0
  9 17  1  6  0  0  0
  9 15  1  0  0  0  0
 10 12  2  0  0  0  0
 11 10  1  0  0  0  0
 11  2  2  0  0  0  0
 12  4  1  0  0  0  0
 12 14  1  0  0  0  0
 13  1  2  0  0  0  0
 13 10  1  0  0  0  0
 15 16  2  0  0  0  0
 15  1  1  0  0  0  0
 18 19  1  0  0  0  0
 19 17  1  1  0  0  0
 20 18  1  0  0  0  0
 20 19  1  0  0  0  0
 22 21  1  0  0  0  0
 22 23  1  0  0  0  0
 23 24  1  6  0  0  0
 25 23  1  0  0  0  0
 26 27  1  0  0  0  0
 26 25  1  0  0  0  0
 28 27  1  0  0  0  0
 28 29  1  0  0  0  0
 29 30  1  0  0  0  0
 30 31  1  0  0  0  0
 31 34  1  0  0  0  0
 32 31  2  0  0  0  0
 33 31  1  0  0  0  0
M  END
>  <MODEL>
7

>  <REMARK>
 VINA RESULT:      -6.0      2.732      5.359
  Name = 
  12 active torsions:
  status: ('A' for Active; 'I' for Inactive)
    1  A    between atoms: C_2  and  O_4
    2  A    between atoms: C_2  and  N_12
    3  A    between atoms: O_4  and  P_13
    4  A    between atoms: N_5  and  C_18
    5  A    between atoms: N_5  and  C_29
    6  A    between atoms: C_6  and  C_8
    7  A    between atoms: C_6  and  N_12
    8  A    between atoms: C_8  and  N_16
    9  A    between atoms: C_11  and  C_23
   10  A    between atoms: C_15  and  C_23
   11  A    between atoms: C_15  and  C_32
   12  A    between atoms: N_16  and  C_32
                            x       y       z     vdW  Elec       q    Type
                         _______ _______ _______ _____ _____    ______ ____

>  <TORSDO>
F 12

$$$$
=
 OpenBabel11042415513D

 34 37  0  0  1  0  0  0  0  0999 V2000
  189.8740  177.5460  143.9300 C   0  0  0  0  0  0  0  0  0  0  0  0
  185.5310  177.0980  145.6400 C   0  0  0  0  0  0  0  0  0  0  0  0
  190.2180  177.1720  147.1600 O   0  0  0  0  0  1  0  0  0  0  0  0
  188.7690  178.2890  142.8820 S   0  0  0  0  0  0  0  0  0  0  0  0
  189.9520  176.2820  146.1200 C   0  0  2  0  0  3  0  0  0  0  0  0
  191.2710  175.6740  145.6000 C   0  0  2  0  0  3  0  0  0  0  0  0
  185.1810  177.8140  144.4790 C   0  0  0  0  0  3  0  0  0  0  0  0
  184.5700  176.7100  146.5120 F   0  0  0  0  0  0  0  0  0  0  0  0
  192.1190  176.7220  144.8320 C   0  0  2  0  0  3  0  0  0  0  0  0
  187.8330  177.2050  144.9690 C   0  0  0  0  0  0  0  0  0  0  0  0
  186.8760  176.7870  145.8920 C   0  0  0  0  0  3  0  0  0  0  0  0
  187.4400  177.9070  143.8410 C   0  0  0  0  0  0  0  0  0  0  0  0
  189.2120  176.9920  145.0210 C   0  0  0  0  0  0  0  0  0  0  0  0
  186.1410  178.2090  143.5930 N   0  0  0  0  0  0  0  0  0  0  0  0
  191.3240  177.4200  143.7530 C   0  0  0  0  0  0  0  0  0  0  0  0
  191.8970  177.9450  142.7620 O   0  0  0  0  0  0  0  0  0  0  0  0
  193.3270  176.1200  144.2840 N   0  0  0  0  0  2  0  0  0  0  0  0
  195.7080  176.3890  144.2620 C   0  0  0  0  0  2  0  0  0  0  0  0
  194.4570  176.7150  144.9780 C   0  0  2  0  0  3  0  0  0  0  0  0
  195.3170  175.6900  145.4160 O   0  0  0  0  0  0  0  0  0  0  0  0
  191.0010  174.4340  144.7420 C   0  0  0  0  0  2  0  0  0  0  0  0
  189.9830  173.5100  145.3940 C   0  0  0  0  0  2  0  0  0  0  0  0
  189.8960  172.1790  144.6540 C   0  0  1  0  0  3  0  0  0  0  0  0
  188.8000  172.1470  143.8030 F   0  0  0  0  0  0  0  0  0  0  0  0
  191.1330  171.8920  143.9300 N   0  0  0  0  0  2  0  0  0  0  0  0
  190.8420  171.0830  142.7510 C   0  0  0  0  0  2  0  0  0  0  0  0
  191.6750  171.5620  141.5740 C   0  0  0  0  0  2  0  0  0  0  0  0
  190.8450  171.7020  140.3860 N   0  0  0  0  0  2  0  0  0  0  0  0
  190.9150  173.0910  139.9550 C   0  0  0  0  0  2  0  0  0  0  0  0
  189.7240  173.4500  139.3180 O   0  0  0  0  0  0  0  0  0  0  0  0
  188.7360  174.1040  140.5320 P   0  0  0  0  0  0  0  0  0  0  0  0
  189.7140  174.6840  141.7840 O   0  0  0  0  0  1  0  0  0  0  0  0
  187.8160  173.0360  141.0800 O   0  0  0  0  0  1  0  0  0  0  0  0
  187.8160  175.3810  139.9100 O   0  0  0  0  0  0  0  0  0  0  0  0
  1 13  2  0  0  0  0
  2 11  1  0  0  0  0
  2  8  1  0  0  0  0
  4 12  1  0  0  0  0
  4  1  1  0  0  0  0
  5  3  1  1  0  0  0
  6 21  1  6  0  0  0
  6  5  1  0  0  0  0
  7  2  2  0  0  0  0
  9 17  1  6  0  0  0
  9  6  1  0  0  0  0
 10 13  1  0  0  0  0
 10 11  2  0  0  0  0
 12 10  1  0  0  0  0
 13  5  1  0  0  0  0
 14 12  2  0  0  0  0
 14  7  1  0  0  0  0
 15  1  1  0  0  0  0
 15  9  1  0  0  0  0
 16 15  2  0  0  0  0
 18 19  1  0  0  0  0
 18 20  1  0  0  0  0
 19 17  1  6  0  0  0
 19 20  1  0  0  0  0
 21 22  1  0  0  0  0
 23 24  1  6  0  0  0
 23 22  1  0  0  0  0
 25 23  1  0  0  0  0
 26 25  1  0  0  0  0
 27 26  1  0  0  0  0
 28 27  1  0  0  0  0
 29 28  1  0  0  0  0
 30 29  1  0  0  0  0
 30 31  1  0  0  0  0
 31 33  1  0  0  0  0
 31 32  1  0  0  0  0
 34 31  2  0  0  0  0
M  END
>  <MODEL>
8

>  <REMARK>
 VINA RESULT:      -6.0      2.666      4.776
  Name = 
  12 active torsions:
  status: ('A' for Active; 'I' for Inactive)
    1  A    between atoms: C_2  and  O_4
    2  A    between atoms: C_2  and  N_12
    3  A    between atoms: O_4  and  P_13
    4  A    between atoms: N_5  and  C_18
    5  A    between atoms: N_5  and  C_29
    6  A    between atoms: C_6  and  C_8
    7  A    between atoms: C_6  and  N_12
    8  A    between atoms: C_8  and  N_16
    9  A    between atoms: C_11  and  C_23
   10  A    between atoms: C_15  and  C_23
   11  A    between atoms: C_15  and  C_32
   12  A    between atoms: N_16  and  C_32
                            x       y       z     vdW  Elec       q    Type
                         _______ _______ _______ _____ _____    ______ ____

>  <TORSDO>
F 12

$$$$
=
 OpenBabel11042415513D

 34 37  0  0  1  0  0  0  0  0999 V2000
  190.6140  176.7400  146.0280 C   0  0  0  0  0  0  0  0  0  0  0  0
  194.8870  176.0120  144.2380 C   0  0  0  0  0  0  0  0  0  0  0  0
  190.8460  178.7160  143.4340 O   0  0  0  0  0  1  0  0  0  0  0  0
  191.6490  176.1620  147.2390 S   0  0  0  0  0  0  0  0  0  0  0  0
  190.6190  177.3470  143.5720 C   0  0  2  0  0  3  0  0  0  0  0  0
  189.1010  177.0690  143.6090 C   0  0  2  0  0  3  0  0  0  0  0  0
  195.1850  175.6100  145.5540 C   0  0  0  0  0  3  0  0  0  0  0  0
  195.8480  175.9800  143.2850 F   0  0  0  0  0  0  0  0  0  0  0  0
  188.4610  177.5720  144.9310 C   0  0  2  0  0  3  0  0  0  0  0  0
  192.6320  176.4630  144.9260 C   0  0  0  0  0  0  0  0  0  0  0  0
  193.5920  176.4450  143.9150 C   0  0  0  0  0  3  0  0  0  0  0  0
  192.9740  176.0590  146.2060 C   0  0  0  0  0  0  0  0  0  0  0  0
  191.2930  176.8440  144.8180 C   0  0  0  0  0  0  0  0  0  0  0  0
  194.2240  175.6390  146.5220 N   0  0  0  0  0  0  0  0  0  0  0  0
  189.1870  177.0540  146.1500 C   0  0  0  0  0  0  0  0  0  0  0  0
  188.6030  176.9630  147.2620 O   0  0  0  0  0  0  0  0  0  0  0  0
  187.0440  177.2400  144.9860 N   0  0  0  0  0  2  0  0  0  0  0  0
  185.3140  178.7450  145.6820 C   0  0  0  0  0  2  0  0  0  0  0  0
  186.3060  178.4410  144.6300 C   0  0  2  0  0  3  0  0  0  0  0  0
  184.9450  178.1160  144.4810 O   0  0  0  0  0  0  0  0  0  0  0  0
  188.8120  175.5830  143.3760 C   0  0  0  0  0  2  0  0  0  0  0  0
  189.5050  175.0650  142.1250 C   0  0  0  0  0  2  0  0  0  0  0  0
  188.5000  174.4550  141.1520 C   0  0  1  0  0  3  0  0  0  0  0  0
  188.0690  175.3920  140.2240 F   0  0  0  0  0  0  0  0  0  0  0  0
  189.0500  173.2730  140.4920 N   0  0  0  0  0  2  0  0  0  0  0  0
  189.4120  172.2710  141.4890 C   0  0  0  0  0  2  0  0  0  0  0  0
  190.4400  171.3130  140.9120 C   0  0  0  0  0  2  0  0  0  0  0  0
  190.8150  170.3130  141.9010 N   0  0  0  0  0  2  0  0  0  0  0  0
  192.0380  170.7640  142.5490 C   0  0  0  0  0  2  0  0  0  0  0  0
  191.8140  170.9340  143.9190 O   0  0  0  0  0  0  0  0  0  0  0  0
  192.2380  172.5420  144.2540 P   0  0  0  0  0  0  0  0  0  0  0  0
  192.6040  173.3280  142.8010 O   0  0  0  0  0  0  0  0  0  0  0  0
  193.4520  172.5790  145.1540 O   0  0  0  0  0  1  0  0  0  0  0  0
  190.9490  173.3400  145.0060 O   0  0  0  0  0  1  0  0  0  0  0  0
  1 15  1  0  0  0  0
  1  4  1  0  0  0  0
  2  7  1  0  0  0  0
  5  3  1  1  0  0  0
  5  6  1  0  0  0  0
  5 13  1  0  0  0  0
  6 21  1  1  0  0  0
  6  9  1  0  0  0  0
  7 14  2  0  0  0  0
  8  2  1  0  0  0  0
  9 17  1  1  0  0  0
  9 15  1  0  0  0  0
 10 12  2  0  0  0  0
 11  2  2  0  0  0  0
 11 10  1  0  0  0  0
 12 14  1  0  0  0  0
 12  4  1  0  0  0  0
 13 10  1  0  0  0  0
 13  1  2  0  0  0  0
 15 16  2  0  0  0  0
 19 17  1  1  0  0  0
 19 18  1  0  0  0  0
 20 19  1  0  0  0  0
 20 18  1  0  0  0  0
 22 21  1  0  0  0  0
 23 24  1  6  0  0  0
 23 22  1  0  0  0  0
 25 23  1  0  0  0  0
 25 26  1  0  0  0  0
 27 26  1  0  0  0  0
 27 28  1  0  0  0  0
 28 29  1  0  0  0  0
 29 30  1  0  0  0  0
 30 31  1  0  0  0  0
 31 34  1  0  0  0  0
 31 33  1  0  0  0  0
 32 31  2  0  0  0  0
M  END
>  <MODEL>
9

>  <REMARK>
 VINA RESULT:      -5.9      3.445      6.895
  Name = 
  12 active torsions:
  status: ('A' for Active; 'I' for Inactive)
    1  A    between atoms: C_2  and  O_4
    2  A    between atoms: C_2  and  N_12
    3  A    between atoms: O_4  and  P_13
    4  A    between atoms: N_5  and  C_18
    5  A    between atoms: N_5  and  C_29
    6  A    between atoms: C_6  and  C_8
    7  A    between atoms: C_6  and  N_12
    8  A    between atoms: C_8  and  N_16
    9  A    between atoms: C_11  and  C_23
   10  A    between atoms: C_15  and  C_23
   11  A    between atoms: C_15  and  C_32
   12  A    between atoms: N_16  and  C_32
                            x       y       z     vdW  Elec       q    Type
                         _______ _______ _______ _____ _____    ______ ____

>  <TORSDO>
F 12

$$$$
