=
 OpenBabel11042413503D

 25 28  0  0  1  0  0  0  0  0999 V2000
  189.3370  175.2770  145.5200 C   0  0  0  0  0  2  0  0  0  0  0  0
  189.9010  177.5560  144.6990 C   0  0  0  0  0  1  0  0  0  0  0  0
  188.9130  175.4690  146.9790 C   0  0  0  0  0  2  0  0  0  0  0  0
  185.5260  178.2220  145.7860 N   0  0  0  0  0  0  0  0  0  0  0  0
  188.8040  176.5080  144.7960 C   0  0  2  0  0  0  0  0  0  0  0  0
  187.7340  176.9860  145.7240 C   0  0  2  0  0  3  0  0  0  0  0  0
  188.2580  176.2100  143.3950 C   0  0  0  0  0  0  0  0  0  0  0  0
  189.0310  175.4000  142.5080 N   0  0  0  0  0  2  0  0  0  0  0  0
  186.3590  177.5920  143.8300 C   0  0  0  0  0  0  0  0  0  0  0  0
  187.7530  176.3970  146.9020 C   0  0  0  0  0  2  0  0  0  0  0  0
  186.5900  177.6860  145.1620 C   0  0  1  0  0  3  0  0  0  0  0  0
  187.1540  176.7730  142.9620 N   0  0  0  0  0  0  0  0  0  0  0  0
  184.6200  178.5000  144.8510 N   0  0  0  0  0  0  0  0  0  0  0  0
  185.0990  178.1080  143.6460 C   0  0  0  0  0  0  0  0  0  0  0  0
  183.8670  178.2320  140.2450 N   0  0  0  0  0  0  0  0  0  0  0  0
  184.3380  178.1610  142.3930 C   0  0  0  0  0  0  0  0  0  0  0  0
  181.3820  178.2780  140.4320 C   0  0  0  0  0  1  0  0  0  0  0  0
  182.7540  178.2340  141.0050 C   0  0  0  0  0  0  0  0  0  0  0  0
  184.8830  178.1860  141.1280 C   0  0  0  0  0  2  0  0  0  0  0  0
  182.9940  178.1900  142.3280 N   0  0  0  0  0  0  0  0  0  0  0  0
  188.6000  175.1380  141.2010 N   0  0  0  0  0  2  0  0  0  0  0  0
  189.0860  173.8140  140.8580 C   0  0  0  0  0  2  0  0  0  0  0  0
  187.1920  172.7340  141.8160 O   0  0  0  0  0  0  0  0  0  0  0  0
  188.4460  172.8030  141.7410 C   0  0  0  0  0  0  0  0  0  0  0  0
  189.2520  171.9390  142.5340 N   0  0  0  0  0  1  0  0  0  0  0  0
  1  3  1  0  0  0  0
  5  2  1  6  0  0  0
  5  1  1  0  0  0  0
  5  6  1  0  0  0  0
  6 10  1  6  0  0  0
  7  5  1  0  0  0  0
  8  7  1  0  0  0  0
 10  3  1  0  0  0  0
 11  9  1  6  0  0  0
 11  6  1  0  0  0  0
 11  4  1  0  0  0  0
 12  7  2  0  0  0  0
 12  9  1  0  0  0  0
 13  4  2  0  0  0  0
 14  9  2  0  0  0  0
 14 13  1  0  0  0  0
 15 18  2  0  0  0  0
 15 19  1  0  0  0  0
 16 14  1  0  0  0  0
 17 18  1  0  0  0  0
 18 20  1  0  0  0  0
 19 16  1  0  0  0  0
 20 16  2  0  0  0  0
 21  8  1  0  0  0  0
 22 21  1  0  0  0  0
 22 24  1  0  0  0  0
 24 23  2  0  0  0  0
 24 25  1  0  0  0  0
M  END
>  <MODEL>
1

>  <REMARK>
 VINA RESULT:      -7.3      0.000      0.000
  Name = 
  4 active torsions:
  status: ('A' for Active; 'I' for Inactive)
    1  A    between atoms: C_3  and  C_23
    2  A    between atoms: N_8  and  N_13
    3  A    between atoms: N_8  and  C_16
    4  A    between atoms: C_16  and  C_19
                            x       y       z     vdW  Elec       q    Type
                         _______ _______ _______ _____ _____    ______ ____

>  <TORSDO>
F 4

$$$$
=
 OpenBabel11042413503D

 25 28  0  0  1  0  0  0  0  0999 V2000
  190.7860  176.4340  147.3110 C   0  0  0  0  0  2  0  0  0  0  0  0
  189.0280  174.6760  147.2450 C   0  0  0  0  0  1  0  0  0  0  0  0
  192.0250  175.7870  146.6860 C   0  0  0  0  0  2  0  0  0  0  0  0
  189.8590  175.0600  142.7810 N   0  0  0  0  0  0  0  0  0  0  0  0
  189.6130  175.8740  146.5150 C   0  0  2  0  0  0  0  0  0  0  0  0
  190.2720  175.4200  145.2530 C   0  0  2  0  0  3  0  0  0  0  0  0
  188.5050  176.8980  146.2480 C   0  0  0  0  0  0  0  0  0  0  0  0
  188.0390  177.7130  147.3260 N   0  0  0  0  0  2  0  0  0  0  0  0
  188.3520  176.1580  143.9820 C   0  0  0  0  0  0  0  0  0  0  0  0
  191.5880  175.4100  145.3160 C   0  0  0  0  0  2  0  0  0  0  0  0
  189.4980  175.4360  144.0210 C   0  0  1  0  0  3  0  0  0  0  0  0
  187.9060  176.9630  145.0810 N   0  0  0  0  0  0  0  0  0  0  0  0
  188.9280  175.5160  141.9450 N   0  0  0  0  0  0  0  0  0  0  0  0
  188.0020  176.2060  142.6540 C   0  0  0  0  0  0  0  0  0  0  0  0
  185.6880  178.1360  140.6490 N   0  0  0  0  0  0  0  0  0  0  0  0
  186.8800  176.9410  142.0600 C   0  0  0  0  0  0  0  0  0  0  0  0
  183.5700  178.2180  141.9610 C   0  0  0  0  0  1  0  0  0  0  0  0
  184.9840  177.8080  141.7510 C   0  0  0  0  0  0  0  0  0  0  0  0
  186.9010  177.5840  140.8420 C   0  0  0  0  0  2  0  0  0  0  0  0
  185.6740  177.0740  142.6430 N   0  0  0  0  0  0  0  0  0  0  0  0
  186.9950  178.6300  147.1450 N   0  0  0  0  0  2  0  0  0  0  0  0
  185.8170  178.0480  147.7620 C   0  0  0  0  0  2  0  0  0  0  0  0
  184.7740  176.4540  146.3330 O   0  0  0  0  0  0  0  0  0  0  0  0
  184.8450  177.6540  146.7090 C   0  0  0  0  0  0  0  0  0  0  0  0
  184.0210  178.6390  146.0960 N   0  0  0  0  0  1  0  0  0  0  0  0
  3  1  1  0  0  0  0
  5  2  1  1  0  0  0
  5  1  1  0  0  0  0
  6 10  1  6  0  0  0
  6  5  1  0  0  0  0
  7  5  1  0  0  0  0
  7  8  1  0  0  0  0
  9 11  1  0  0  0  0
  9 12  1  0  0  0  0
 10  3  1  0  0  0  0
 11  4  1  6  0  0  0
 11  6  1  0  0  0  0
 12  7  2  0  0  0  0
 13 14  1  0  0  0  0
 13  4  2  0  0  0  0
 14  9  2  0  0  0  0
 15 19  1  0  0  0  0
 15 18  2  0  0  0  0
 16 20  2  0  0  0  0
 16 14  1  0  0  0  0
 18 17  1  0  0  0  0
 18 20  1  0  0  0  0
 19 16  1  0  0  0  0
 21  8  1  0  0  0  0
 21 22  1  0  0  0  0
 23 24  2  0  0  0  0
 24 22  1  0  0  0  0
 25 24  1  0  0  0  0
M  END
>  <MODEL>
2

>  <REMARK>
 VINA RESULT:      -7.2      2.244      4.751
  Name = 
  4 active torsions:
  status: ('A' for Active; 'I' for Inactive)
    1  A    between atoms: C_3  and  C_23
    2  A    between atoms: N_8  and  N_13
    3  A    between atoms: N_8  and  C_16
    4  A    between atoms: C_16  and  C_19
                            x       y       z     vdW  Elec       q    Type
                         _______ _______ _______ _____ _____    ______ ____

>  <TORSDO>
F 4

$$$$
=
 OpenBabel11042413503D

 25 28  0  0  1  0  0  0  0  0999 V2000
  185.6030  179.1760  146.1640 C   0  0  0  0  0  2  0  0  0  0  0  0
  185.2850  176.7600  145.6680 C   0  0  0  0  0  1  0  0  0  0  0  0
  185.8580  179.2470  147.6730 C   0  0  0  0  0  2  0  0  0  0  0  0
  189.5280  176.6220  147.3260 N   0  0  0  0  0  0  0  0  0  0  0  0
  186.2950  177.8950  145.7130 C   0  0  2  0  0  0  0  0  0  0  0  0
  187.2710  177.6540  146.8190 C   0  0  2  0  0  3  0  0  0  0  0  0
  186.9880  178.0160  144.3520 C   0  0  0  0  0  0  0  0  0  0  0  0
  186.2810  178.6150  143.2650 N   0  0  0  0  0  2  0  0  0  0  0  0
  188.9010  176.8740  145.2130 C   0  0  0  0  0  0  0  0  0  0  0  0
  187.0730  178.4140  147.8770 C   0  0  0  0  0  2  0  0  0  0  0  0
  188.5170  176.9680  146.5090 C   0  0  0  0  0  0  0  0  0  0  0  0
  188.1700  177.4830  144.1410 N   0  0  0  0  0  0  0  0  0  0  0  0
  190.5560  176.2770  146.5540 N   0  0  0  0  0  2  0  0  0  0  0  0
  190.2040  176.4380  145.2560 C   0  0  0  0  0  0  0  0  0  0  0  0
  192.7200  176.6110  142.6590 N   0  0  0  0  0  0  0  0  0  0  0  0
  191.1140  176.2530  144.1190 C   0  0  0  0  0  0  0  0  0  0  0  0
  192.4410  174.5310  141.3140 C   0  0  0  0  0  1  0  0  0  0  0  0
  192.0810  175.4470  142.4300 C   0  0  0  0  0  0  0  0  0  0  0  0
  192.1050  177.1310  143.7390 C   0  0  0  0  0  2  0  0  0  0  0  0
  191.0890  175.1860  143.3010 N   0  0  0  0  0  0  0  0  0  0  0  0
  186.8510  178.7050  141.9890 N   0  0  0  0  0  2  0  0  0  0  0  0
  185.9740  177.9800  141.0880 C   0  0  0  0  0  2  0  0  0  0  0  0
  186.6110  177.0340  138.9970 O   0  0  0  0  0  0  0  0  0  0  0  0
  186.7780  177.0560  140.2450 C   0  0  0  0  0  0  0  0  0  0  0  0
  187.7070  176.1660  140.8510 N   0  0  0  0  0  1  0  0  0  0  0  0
  1  3  1  0  0  0  0
  3 10  1  0  0  0  0
  5  2  1  6  0  0  0
  5  1  1  0  0  0  0
  5  6  1  0  0  0  0
  6 10  1  6  0  0  0
  7  5  1  0  0  0  0
  8  7  1  0  0  0  0
  9 14  2  0  0  0  0
  9 11  1  0  0  0  0
 11  6  1  0  0  0  0
 11  4  2  0  0  0  0
 12  7  2  0  0  0  0
 12  9  1  0  0  0  0
 13  4  1  0  0  0  0
 14 13  1  0  0  0  0
 15 19  1  0  0  0  0
 16 14  1  0  0  0  0
 17 18  1  0  0  0  0
 18 15  2  0  0  0  0
 18 20  1  0  0  0  0
 19 16  1  0  0  0  0
 20 16  2  0  0  0  0
 21  8  1  0  0  0  0
 22 21  1  0  0  0  0
 23 24  2  0  0  0  0
 24 25  1  0  0  0  0
 24 22  1  0  0  0  0
M  END
>  <MODEL>
3

>  <REMARK>
 VINA RESULT:      -7.1      2.645      5.851
  Name = 
  4 active torsions:
  status: ('A' for Active; 'I' for Inactive)
    1  A    between atoms: C_3  and  C_23
    2  A    between atoms: N_8  and  N_13
    3  A    between atoms: N_8  and  C_16
    4  A    between atoms: C_16  and  C_19
                            x       y       z     vdW  Elec       q    Type
                         _______ _______ _______ _____ _____    ______ ____

>  <TORSDO>
F 4

$$$$
=
 OpenBabel11042413503D

 25 28  0  0  1  0  0  0  0  0999 V2000
  192.2670  173.9750  144.2520 C   0  0  0  0  0  2  0  0  0  0  0  0
  192.2380  176.2670  143.2890 C   0  0  0  0  0  1  0  0  0  0  0  0
  193.1770  174.0660  145.4810 C   0  0  0  0  0  2  0  0  0  0  0  0
  190.5100  177.1720  147.4080 N   0  0  0  0  0  0  0  0  0  0  0  0
  191.5220  175.3040  144.2210 C   0  0  2  0  0  0  0  0  0  0  0  0
  191.6570  175.7770  145.6330 C   0  0  2  0  0  3  0  0  0  0  0  0
  190.0550  175.1780  143.7960 C   0  0  0  0  0  0  0  0  0  0  0  0
  189.7320  174.3930  142.6460 N   0  0  0  0  0  2  0  0  0  0  0  0
  189.4070  176.6590  145.5540 C   0  0  0  0  0  0  0  0  0  0  0  0
  192.5220  175.0850  146.3440 C   0  0  0  0  0  2  0  0  0  0  0  0
  190.6030  176.6140  146.1880 C   0  0  0  0  0  0  0  0  0  0  0  0
  189.1110  175.8630  144.3990 N   0  0  0  0  0  0  0  0  0  0  0  0
  189.2590  177.6040  147.5480 N   0  0  0  0  0  2  0  0  0  0  0  0
  188.5580  177.2870  146.4330 C   0  0  0  0  0  0  0  0  0  0  0  0
  184.9430  177.4110  146.5860 N   0  0  0  0  0  0  0  0  0  0  0  0
  187.1170  177.5130  146.2660 C   0  0  0  0  0  0  0  0  0  0  0  0
  184.2430  178.9060  144.7190 C   0  0  0  0  0  1  0  0  0  0  0  0
  185.2620  178.2000  145.5410 C   0  0  0  0  0  0  0  0  0  0  0  0
  186.1270  176.9690  147.0530 C   0  0  0  0  0  2  0  0  0  0  0  0
  186.5840  178.2920  145.3070 N   0  0  0  0  0  0  0  0  0  0  0  0
  188.4130  174.2860  142.1870 N   0  0  0  0  0  2  0  0  0  0  0  0
  188.2870  175.1940  141.0620 C   0  0  0  0  0  2  0  0  0  0  0  0
  186.5290  176.1310  142.3660 O   0  0  0  0  0  0  0  0  0  0  0  0
  187.3170  176.2700  141.3940 C   0  0  0  0  0  0  0  0  0  0  0  0
  187.2490  177.4410  140.5890 N   0  0  0  0  0  1  0  0  0  0  0  0
  1  3  1  0  0  0  0
  3 10  1  0  0  0  0
  4 13  1  0  0  0  0
  5  2  1  6  0  0  0
  5  1  1  0  0  0  0
  5  6  1  0  0  0  0
  6 11  1  0  0  0  0
  6 10  1  1  0  0  0
  7  5  1  0  0  0  0
  7 12  2  0  0  0  0
  8  7  1  0  0  0  0
  9 11  1  0  0  0  0
  9 14  2  0  0  0  0
 11  4  2  0  0  0  0
 12  9  1  0  0  0  0
 14 13  1  0  0  0  0
 15 19  1  0  0  0  0
 16 14  1  0  0  0  0
 16 19  1  0  0  0  0
 17 18  1  0  0  0  0
 18 15  2  0  0  0  0
 20 18  1  0  0  0  0
 20 16  2  0  0  0  0
 21  8  1  0  0  0  0
 22 24  1  0  0  0  0
 22 21  1  0  0  0  0
 24 23  2  0  0  0  0
 25 24  1  0  0  0  0
M  END
>  <MODEL>
4

>  <REMARK>
 VINA RESULT:      -6.7      2.530      4.308
  Name = 
  4 active torsions:
  status: ('A' for Active; 'I' for Inactive)
    1  A    between atoms: C_3  and  C_23
    2  A    between atoms: N_8  and  N_13
    3  A    between atoms: N_8  and  C_16
    4  A    between atoms: C_16  and  C_19
                            x       y       z     vdW  Elec       q    Type
                         _______ _______ _______ _____ _____    ______ ____

>  <TORSDO>
F 4

$$$$
=
 OpenBabel11042413503D

 25 28  0  0  1  0  0  0  0  0999 V2000
  190.0880  177.1450  147.0040 C   0  0  0  0  0  2  0  0  0  0  0  0
  188.4320  175.3070  147.2540 C   0  0  0  0  0  1  0  0  0  0  0  0
  191.3860  176.6030  147.6080 C   0  0  0  0  0  2  0  0  0  0  0  0
  191.5070  173.1820  144.6480 N   0  0  0  0  0  0  0  0  0  0  0  0
  189.4470  175.9440  146.3190 C   0  0  2  0  0  0  0  0  0  0  0  0
  190.6090  175.0220  146.1370 C   0  0  2  0  0  3  0  0  0  0  0  0
  188.7690  176.2830  144.9870 C   0  0  0  0  0  0  0  0  0  0  0  0
  187.9080  177.4220  144.9170 N   0  0  0  0  0  2  0  0  0  0  0  0
  189.7350  174.3410  143.9880 C   0  0  0  0  0  0  0  0  0  0  0  0
  191.6870  175.3920  146.7980 C   0  0  0  0  0  2  0  0  0  0  0  0
  190.6000  174.1080  145.0060 C   0  0  1  0  0  3  0  0  0  0  0  0
  188.8790  175.4900  143.9470 N   0  0  0  0  0  0  0  0  0  0  0  0
  191.2100  172.7970  143.4090 N   0  0  0  0  0  0  0  0  0  0  0  0
  190.1380  173.5030  142.9760 C   0  0  0  0  0  0  0  0  0  0  0  0
  188.1880  173.0640  139.9580 N   0  0  0  0  0  0  0  0  0  0  0  0
  189.5850  173.4250  141.6190 C   0  0  0  0  0  0  0  0  0  0  0  0
  189.6700  173.7880  138.0900 C   0  0  0  0  0  1  0  0  0  0  0  0
  189.3710  173.5420  139.5260 C   0  0  0  0  0  0  0  0  0  0  0  0
  188.3190  172.9870  141.2970 C   0  0  0  0  0  2  0  0  0  0  0  0
  190.2590  173.7790  140.5090 N   0  0  0  0  0  0  0  0  0  0  0  0
  187.2270  177.7470  143.7370 N   0  0  0  0  0  2  0  0  0  0  0  0
  185.8100  177.6860  144.0430 C   0  0  0  0  0  2  0  0  0  0  0  0
  185.5700  180.0560  144.0470 O   0  0  0  0  0  0  0  0  0  0  0  0
  185.3750  178.9700  144.6540 C   0  0  0  0  0  0  0  0  0  0  0  0
  184.7760  178.9770  145.9440 N   0  0  0  0  0  1  0  0  0  0  0  0
  1  3  1  0  0  0  0
  4 11  1  0  0  0  0
  5  1  1  0  0  0  0
  5  2  1  1  0  0  0
  6  5  1  0  0  0  0
  6 10  1  6  0  0  0
  7  5  1  0  0  0  0
  8  7  1  0  0  0  0
 10  3  1  0  0  0  0
 11  9  1  6  0  0  0
 11  6  1  0  0  0  0
 12  9  1  0  0  0  0
 12  7  2  0  0  0  0
 13  4  2  0  0  0  0
 14 13  1  0  0  0  0
 14  9  2  0  0  0  0
 15 19  1  0  0  0  0
 16 14  1  0  0  0  0
 17 18  1  0  0  0  0
 18 15  2  0  0  0  0
 18 20  1  0  0  0  0
 19 16  1  0  0  0  0
 20 16  2  0  0  0  0
 21 22  1  0  0  0  0
 21  8  1  0  0  0  0
 22 24  1  0  0  0  0
 23 24  2  0  0  0  0
 24 25  1  0  0  0  0
M  END
>  <MODEL>
5

>  <REMARK>
 VINA RESULT:      -6.4      2.832      6.131
  Name = 
  4 active torsions:
  status: ('A' for Active; 'I' for Inactive)
    1  A    between atoms: C_3  and  C_23
    2  A    between atoms: N_8  and  N_13
    3  A    between atoms: N_8  and  C_16
    4  A    between atoms: C_16  and  C_19
                            x       y       z     vdW  Elec       q    Type
                         _______ _______ _______ _____ _____    ______ ____

>  <TORSDO>
F 4

$$$$
=
 OpenBabel11042413503D

 25 28  0  0  1  0  0  0  0  0999 V2000
  191.1730  173.3180  142.9570 C   0  0  0  0  0  2  0  0  0  0  0  0
  188.9370  172.2430  143.1320 C   0  0  0  0  0  1  0  0  0  0  0  0
  191.4990  173.3260  141.4600 C   0  0  0  0  0  2  0  0  0  0  0  0
  187.8390  175.8170  140.5250 N   0  0  0  0  0  0  0  0  0  0  0  0
  189.6720  173.5700  143.0280 C   0  0  2  0  0  0  0  0  0  0  0  0
  189.3900  174.1970  141.7000 C   0  0  2  0  0  3  0  0  0  0  0  0
  189.2540  174.4770  144.1900 C   0  0  0  0  0  0  0  0  0  0  0  0
  189.7840  174.2220  145.4930 N   0  0  0  0  0  2  0  0  0  0  0  0
  187.7900  175.6830  142.7380 C   0  0  0  0  0  0  0  0  0  0  0  0
  190.3930  174.1110  140.8500 C   0  0  0  0  0  2  0  0  0  0  0  0
  188.2930  175.1470  141.6000 C   0  0  1  0  0  3  0  0  0  0  0  0
  188.3400  175.4070  144.0330 N   0  0  0  0  0  0  0  0  0  0  0  0
  187.0190  176.7660  140.9710 N   0  0  0  0  0  0  0  0  0  0  0  0
  186.9850  176.7160  142.3240 C   0  0  0  0  0  0  0  0  0  0  0  0
  185.4760  179.5700  143.9620 N   0  0  0  0  0  0  0  0  0  0  0  0
  186.2690  177.6760  143.1730 C   0  0  0  0  0  0  0  0  0  0  0  0
  184.2180  178.6420  145.9040 C   0  0  0  0  0  1  0  0  0  0  0  0
  185.0850  178.5130  144.7020 C   0  0  0  0  0  0  0  0  0  0  0  0
  186.2340  179.0390  142.9830 C   0  0  0  0  0  2  0  0  0  0  0  0
  185.5460  177.3310  144.2540 N   0  0  0  0  0  0  0  0  0  0  0  0
  189.3960  174.9910  146.5980 N   0  0  0  0  0  2  0  0  0  0  0  0
  190.6060  175.2930  147.3410 C   0  0  0  0  0  2  0  0  0  0  0  0
  191.4710  177.1870  148.4980 O   0  0  0  0  0  0  0  0  0  0  0  0
  190.6560  176.7480  147.6440 C   0  0  0  0  0  0  0  0  0  0  0  0
  189.7550  177.6410  147.0000 N   0  0  0  0  0  1  0  0  0  0  0  0
  1  5  1  0  0  0  0
  3  1  1  0  0  0  0
  4 13  2  0  0  0  0
  5  2  1  1  0  0  0
  5  7  1  0  0  0  0
  6 10  1  1  0  0  0
  6  5  1  0  0  0  0
  7  8  1  0  0  0  0
  8 21  1  0  0  0  0
  9 12  1  0  0  0  0
 10  3  1  0  0  0  0
 11  4  1  6  0  0  0
 11  6  1  0  0  0  0
 11  9  1  0  0  0  0
 12  7  2  0  0  0  0
 13 14  1  0  0  0  0
 14  9  2  0  0  0  0
 14 16  1  0  0  0  0
 15 18  2  0  0  0  0
 16 20  2  0  0  0  0
 18 17  1  0  0  0  0
 19 16  1  0  0  0  0
 19 15  1  0  0  0  0
 20 18  1  0  0  0  0
 21 22  1  0  0  0  0
 22 24  1  0  0  0  0
 24 23  2  0  0  0  0
 25 24  1  0  0  0  0
M  END
>  <MODEL>
6

>  <REMARK>
 VINA RESULT:      -6.4      3.097      5.130
  Name = 
  4 active torsions:
  status: ('A' for Active; 'I' for Inactive)
    1  A    between atoms: C_3  and  C_23
    2  A    between atoms: N_8  and  N_13
    3  A    between atoms: N_8  and  C_16
    4  A    between atoms: C_16  and  C_19
                            x       y       z     vdW  Elec       q    Type
                         _______ _______ _______ _____ _____    ______ ____

>  <TORSDO>
F 4

$$$$
=
 OpenBabel11042413503D

 25 28  0  0  1  0  0  0  0  0999 V2000
  192.3120  174.6050  144.9320 C   0  0  0  0  0  2  0  0  0  0  0  0
  192.5010  176.9480  144.1210 C   0  0  0  0  0  1  0  0  0  0  0  0
  192.7140  174.6560  146.4090 C   0  0  0  0  0  2  0  0  0  0  0  0
  189.3630  177.5400  147.3730 N   0  0  0  0  0  0  0  0  0  0  0  0
  191.5530  175.9040  144.6910 C   0  0  2  0  0  0  0  0  0  0  0  0
  191.1460  176.2980  146.0740 C   0  0  2  0  0  3  0  0  0  0  0  0
  190.3470  175.7490  143.7590 C   0  0  0  0  0  0  0  0  0  0  0  0
  190.5020  175.0230  142.5390 N   0  0  0  0  0  2  0  0  0  0  0  0
  189.0280  177.0970  145.2260 C   0  0  0  0  0  0  0  0  0  0  0  0
  191.7370  175.5970  147.0200 C   0  0  0  0  0  2  0  0  0  0  0  0
  189.9190  177.0590  146.2470 C   0  0  0  0  0  0  0  0  0  0  0  0
  189.2120  176.3610  144.0100 N   0  0  0  0  0  0  0  0  0  0  0  0
  188.1220  177.9150  147.0700 N   0  0  0  0  0  2  0  0  0  0  0  0
  187.8870  177.6390  145.7650 C   0  0  0  0  0  0  0  0  0  0  0  0
  184.4410  178.1590  144.7860 N   0  0  0  0  0  0  0  0  0  0  0  0
  186.5920  177.8200  145.0980 C   0  0  0  0  0  0  0  0  0  0  0  0
  184.4260  178.0500  142.2960 C   0  0  0  0  0  1  0  0  0  0  0  0
  185.0990  177.9980  143.6210 C   0  0  0  0  0  0  0  0  0  0  0  0
  185.3910  178.0460  145.7340 C   0  0  0  0  0  2  0  0  0  0  0  0
  186.4210  177.7890  143.7640 N   0  0  0  0  0  0  0  0  0  0  0  0
  189.4430  174.8940  141.6300 N   0  0  0  0  0  2  0  0  0  0  0  0
  189.4520  173.5160  141.1730 C   0  0  0  0  0  2  0  0  0  0  0  0
  187.3920  172.6660  142.0130 O   0  0  0  0  0  0  0  0  0  0  0  0
  188.6480  172.6770  142.1000 C   0  0  0  0  0  0  0  0  0  0  0  0
  189.2940  171.9160  143.1130 N   0  0  0  0  0  1  0  0  0  0  0  0
  1  3  1  0  0  0  0
  3 10  1  0  0  0  0
  5  2  1  6  0  0  0
  5  1  1  0  0  0  0
  5  6  1  0  0  0  0
  6 11  1  0  0  0  0
  6 10  1  1  0  0  0
  7 12  2  0  0  0  0
  7  5  1  0  0  0  0
  8  7  1  0  0  0  0
  9 14  2  0  0  0  0
  9 11  1  0  0  0  0
 11  4  2  0  0  0  0
 12  9  1  0  0  0  0
 13  4  1  0  0  0  0
 14 13  1  0  0  0  0
 15 19  1  0  0  0  0
 16 19  1  0  0  0  0
 16 14  1  0  0  0  0
 17 18  1  0  0  0  0
 18 20  1  0  0  0  0
 18 15  2  0  0  0  0
 20 16  2  0  0  0  0
 21  8  1  0  0  0  0
 22 21  1  0  0  0  0
 22 24  1  0  0  0  0
 23 24  2  0  0  0  0
 24 25  1  0  0  0  0
M  END
>  <MODEL>
7

>  <REMARK>
 VINA RESULT:      -6.3      1.933      3.146
  Name = 
  4 active torsions:
  status: ('A' for Active; 'I' for Inactive)
    1  A    between atoms: C_3  and  C_23
    2  A    between atoms: N_8  and  N_13
    3  A    between atoms: N_8  and  C_16
    4  A    between atoms: C_16  and  C_19
                            x       y       z     vdW  Elec       q    Type
                         _______ _______ _______ _____ _____    ______ ____

>  <TORSDO>
F 4

$$$$
=
 OpenBabel11042413503D

 25 28  0  0  1  0  0  0  0  0999 V2000
  191.9680  173.6970  144.4850 C   0  0  0  0  0  2  0  0  0  0  0  0
  189.8660  172.3970  144.7540 C   0  0  0  0  0  1  0  0  0  0  0  0
  192.6710  173.0790  143.2720 C   0  0  0  0  0  2  0  0  0  0  0  0
  189.1790  174.0570  140.5660 N   0  0  0  0  0  0  0  0  0  0  0  0
  190.4850  173.6440  144.1430 C   0  0  2  0  0  0  0  0  0  0  0  0
  190.5050  173.5150  142.6540 C   0  0  2  0  0  3  0  0  0  0  0  0
  189.7020  174.8780  144.6010 C   0  0  0  0  0  0  0  0  0  0  0  0
  189.8950  175.3670  145.9300 N   0  0  0  0  0  2  0  0  0  0  0  0
  188.5680  174.9530  142.5000 C   0  0  0  0  0  0  0  0  0  0  0  0
  191.6980  173.2510  142.1610 C   0  0  0  0  0  2  0  0  0  0  0  0
  189.3940  174.0670  141.8930 C   0  0  1  0  0  3  0  0  0  0  0  0
  188.7840  175.4240  143.8370 N   0  0  0  0  0  0  0  0  0  0  0  0
  188.1930  174.9170  140.3210 N   0  0  0  0  0  0  0  0  0  0  0  0
  187.8120  175.4910  141.4870 C   0  0  0  0  0  0  0  0  0  0  0  0
  185.6400  178.3660  141.1400 N   0  0  0  0  0  0  0  0  0  0  0  0
  186.8190  176.5660  141.5980 C   0  0  0  0  0  0  0  0  0  0  0  0
  184.1530  178.3300  143.1410 C   0  0  0  0  0  1  0  0  0  0  0  0
  185.2520  177.7910  142.2950 C   0  0  0  0  0  0  0  0  0  0  0  0
  186.6420  177.5870  140.6900 C   0  0  0  0  0  2  0  0  0  0  0  0
  185.9470  176.6840  142.6160 N   0  0  0  0  0  0  0  0  0  0  0  0
  189.1680  176.4630  146.4140 N   0  0  0  0  0  2  0  0  0  0  0  0
  187.9940  175.9250  147.0770 C   0  0  0  0  0  2  0  0  0  0  0  0
  185.9630  176.4650  145.9570 O   0  0  0  0  0  0  0  0  0  0  0  0
  186.8240  176.8020  146.8120 C   0  0  0  0  0  0  0  0  0  0  0  0
  186.6960  178.0440  147.4950 N   0  0  0  0  0  1  0  0  0  0  0  0
  3  1  1  0  0  0  0
  5  1  1  0  0  0  0
  5  7  1  0  0  0  0
  5  2  1  1  0  0  0
  6 10  1  6  0  0  0
  6  5  1  0  0  0  0
  7  8  1  0  0  0  0
  8 21  1  0  0  0  0
  9 12  1  0  0  0  0
 10  3  1  0  0  0  0
 11  4  1  6  0  0  0
 11  9  1  0  0  0  0
 11  6  1  0  0  0  0
 12  7  2  0  0  0  0
 13  4  2  0  0  0  0
 13 14  1  0  0  0  0
 14 16  1  0  0  0  0
 14  9  2  0  0  0  0
 15 18  2  0  0  0  0
 16 20  2  0  0  0  0
 18 20  1  0  0  0  0
 18 17  1  0  0  0  0
 19 15  1  0  0  0  0
 19 16  1  0  0  0  0
 21 22  1  0  0  0  0
 23 24  2  0  0  0  0
 24 22  1  0  0  0  0
 24 25  1  0  0  0  0
M  END
>  <MODEL>
8

>  <REMARK>
 VINA RESULT:      -6.3      2.497      4.982
  Name = 
  4 active torsions:
  status: ('A' for Active; 'I' for Inactive)
    1  A    between atoms: C_3  and  C_23
    2  A    between atoms: N_8  and  N_13
    3  A    between atoms: N_8  and  C_16
    4  A    between atoms: C_16  and  C_19
                            x       y       z     vdW  Elec       q    Type
                         _______ _______ _______ _____ _____    ______ ____

>  <TORSDO>
F 4

$$$$
=
 OpenBabel11042413503D

 25 28  0  0  1  0  0  0  0  0999 V2000
  185.5700  179.4140  146.8300 C   0  0  0  0  0  2  0  0  0  0  0  0
  184.7350  177.0850  147.0710 C   0  0  0  0  0  1  0  0  0  0  0  0
  186.4460  179.6570  148.0630 C   0  0  0  0  0  2  0  0  0  0  0  0
  189.2140  176.2550  146.9490 N   0  0  0  0  0  0  0  0  0  0  0  0
  185.8180  177.9570  146.4590 C   0  0  2  0  0  0  0  0  0  0  0  0
  187.1260  177.6760  147.1270 C   0  0  2  0  0  3  0  0  0  0  0  0
  185.8800  177.7080  144.9480 C   0  0  0  0  0  0  0  0  0  0  0  0
  184.8720  178.2770  144.1100 N   0  0  0  0  0  2  0  0  0  0  0  0
  187.7960  176.3130  145.2450 C   0  0  0  0  0  0  0  0  0  0  0  0
  187.5030  178.6150  147.9700 C   0  0  0  0  0  2  0  0  0  0  0  0
  188.0130  176.6900  146.5290 C   0  0  1  0  0  3  0  0  0  0  0  0
  186.7740  176.8980  144.4290 N   0  0  0  0  0  0  0  0  0  0  0  0
  189.7600  175.5740  145.9450 N   0  0  0  0  0  0  0  0  0  0  0  0
  188.9180  175.6080  144.8830 C   0  0  0  0  0  0  0  0  0  0  0  0
  189.7350  174.9210  141.4250 N   0  0  0  0  0  0  0  0  0  0  0  0
  189.2260  175.0520  143.5610 C   0  0  0  0  0  0  0  0  0  0  0  0
  189.7560  172.4370  141.2200 C   0  0  0  0  0  1  0  0  0  0  0  0
  189.5880  173.7030  141.9820 C   0  0  0  0  0  0  0  0  0  0  0  0
  189.5050  175.7870  142.4300 C   0  0  0  0  0  2  0  0  0  0  0  0
  189.2760  173.7340  143.2910 N   0  0  0  0  0  0  0  0  0  0  0  0
  184.8560  178.0390  142.7300 N   0  0  0  0  0  2  0  0  0  0  0  0
  183.4990  178.2910  142.2790 C   0  0  0  0  0  2  0  0  0  0  0  0
  184.4730  178.4740  140.1140 O   0  0  0  0  0  0  0  0  0  0  0  0
  183.4440  178.2230  140.7950 C   0  0  0  0  0  0  0  0  0  0  0  0
  182.2190  177.9160  140.1410 N   0  0  0  0  0  1  0  0  0  0  0  0
  1  3  1  0  0  0  0
  5  1  1  0  0  0  0
  5  2  1  1  0  0  0
  5  6  1  0  0  0  0
  6 10  1  6  0  0  0
  7  5  1  0  0  0  0
  8  7  1  0  0  0  0
 10  3  1  0  0  0  0
 11  9  1  6  0  0  0
 11  4  1  0  0  0  0
 11  6  1  0  0  0  0
 12  7  2  0  0  0  0
 12  9  1  0  0  0  0
 13  4  2  0  0  0  0
 14  9  2  0  0  0  0
 14 13  1  0  0  0  0
 15 18  2  0  0  0  0
 15 19  1  0  0  0  0
 16 14  1  0  0  0  0
 17 18  1  0  0  0  0
 18 20  1  0  0  0  0
 19 16  1  0  0  0  0
 20 16  2  0  0  0  0
 21  8  1  0  0  0  0
 22 21  1  0  0  0  0
 23 24  2  0  0  0  0
 24 22  1  0  0  0  0
 25 24  1  0  0  0  0
M  END
>  <MODEL>
9

>  <REMARK>
 VINA RESULT:      -6.3      2.349      5.842
  Name = 
  4 active torsions:
  status: ('A' for Active; 'I' for Inactive)
    1  A    between atoms: C_3  and  C_23
    2  A    between atoms: N_8  and  N_13
    3  A    between atoms: N_8  and  C_16
    4  A    between atoms: C_16  and  C_19
                            x       y       z     vdW  Elec       q    Type
                         _______ _______ _______ _____ _____    ______ ____

>  <TORSDO>
F 4

$$$$
