=
 OpenBabel11042415323D

 47 54  0  0  1  0  0  0  0  0999 V2000
  191.6070  171.8080  141.8290 C   0  0  0  0  0  0  0  0  0  0  0  0
  193.0410  171.6480  142.1140 C   0  0  0  0  0  0  0  0  0  0  0  0
  189.4020  172.2380  142.7520 O   0  0  0  0  0  0  0  0  0  0  0  0
  195.1590  171.4040  141.8990 C   0  0  0  0  0  3  0  0  0  0  0  0
  188.9560  172.6090  140.4120 C   0  0  0  0  0  3  0  0  0  0  0  0
  188.6710  172.7980  141.6990 C   0  0  0  0  0  0  0  0  0  0  0  0
  191.1780  171.4980  140.4590 C   0  0  0  0  0  3  0  0  0  0  0  0
  194.8960  171.4970  143.2580 C   0  0  0  0  0  0  0  0  0  0  0  0
  192.6680  171.7340  144.5870 C   0  0  0  0  0  2  0  0  0  0  0  0
  194.0140  171.4890  141.2460 O   0  0  0  0  0  0  0  0  0  0  0  0
  190.0580  171.8300  139.8240 C   0  0  0  0  0  0  0  0  0  0  0  0
  191.3590  172.4610  144.2360 C   0  0  0  0  0  2  0  0  0  0  0  0
  193.5390  171.6660  143.3810 C   0  0  0  0  0  0  0  0  0  0  0  0
  190.7890  172.1360  142.8580 C   0  0  0  0  0  0  0  0  0  0  0  0
  188.4080  175.6740  141.6540 O   0  0  0  0  0  0  0  0  0  0  0  0
  187.4930  173.5490  142.0070 N   0  0  0  0  0  2  0  0  0  0  0  0
  187.4590  174.9750  142.1110 C   0  0  0  0  0  0  0  0  0  0  0  0
  186.3700  175.5890  142.7290 O   0  0  0  0  0  0  0  0  0  0  0  0
  186.3160  176.9960  142.9270 C   0  0  2  0  0  3  0  0  0  0  0  0
  185.7370  179.6240  144.4850 O   0  0  0  0  0  1  0  0  0  0  0  0
  185.6150  177.0740  146.6650 C   0  0  2  0  0  3  0  0  0  0  0  0
  186.3150  178.4100  146.4780 C   0  0  1  0  0  0  0  0  0  0  0  0
  187.0100  177.3000  147.2390 C   0  0  0  0  0  2  0  0  0  0  0  0
  186.1480  177.3040  144.3910 C   0  0  0  0  0  0  0  0  0  0  0  0
  186.5570  178.6060  144.9800 C   0  0  1  0  0  3  0  0  0  0  0  0
  185.6980  179.4140  147.2210 O   0  0  0  0  0  1  0  0  0  0  0  0
  185.6710  176.4630  145.3040 C   0  0  0  0  0  3  0  0  0  0  0  0
  185.2540  177.6050  142.0630 C   0  0  0  0  0  3  0  0  0  0  0  0
  185.5740  178.1760  140.9050 C   0  0  0  0  0  2  0  0  0  0  0  0
  189.9610  171.4430  138.4890 O   0  0  0  0  0  0  0  0  0  0  0  0
  189.6290  170.1850  138.1510 O   0  0  0  0  0  1  0  0  0  0  0  0
  195.9110  171.5540  144.3480 C   0  0  0  0  0  2  0  0  0  0  0  0
  196.4320  172.9750  144.4760 C   0  0  0  0  0  2  0  0  0  0  0  0
  194.8700  174.5310  145.6400 C   0  0  0  0  0  3  0  0  0  0  0  0
  195.8720  173.6420  145.6930 C   0  0  0  0  0  3  0  0  0  0  0  0
  192.7110  176.4300  145.9430 C   0  0  0  0  0  2  0  0  0  0  0  0
  190.2750  176.2140  145.2060 C   0  0  1  0  0  3  0  0  0  0  0  0
  192.0130  176.0970  143.4100 C   0  0  1  0  0  0  0  0  0  0  0  0
  190.0330  177.7050  144.9220 C   0  0  0  0  0  2  0  0  0  0  0  0
  190.7080  175.4900  143.9280 C   0  0  0  0  0  2  0  0  0  0  0  0
  194.4760  176.4220  144.1130 C   0  0  0  0  0  2  0  0  0  0  0  0
  191.7500  177.5720  143.0540 C   0  0  0  0  0  2  0  0  0  0  0  0
  194.2150  174.9400  144.3520 C   0  0  2  0  0  3  0  0  0  0  0  0
  191.2380  178.3820  144.2500 C   0  0  0  0  0  2  0  0  0  0  0  0
  193.0900  175.9640  144.5270 C   0  0  1  0  0  0  0  0  0  0  0  0
  191.2980  175.9700  146.3250 C   0  0  0  0  0  2  0  0  0  0  0  0
  192.3850  175.3630  142.1260 C   0  0  0  0  0  1  0  0  0  0  0  0
  1  2  1  0  0  0  0
  1 14  2  0  0  0  0
  2 13  2  0  0  0  0
  3 14  1  0  0  0  0
  4  8  2  0  0  0  0
  5  6  2  0  0  0  0
  6 16  1  0  0  0  0
  6  3  1  0  0  0  0
  7  1  1  0  0  0  0
  8 13  1  0  0  0  0
  8 32  1  0  0  0  0
 10  4  1  0  0  0  0
 10  2  1  0  0  0  0
 11  5  1  0  0  0  0
 11  7  2  0  0  0  0
 12  9  1  0  0  0  0
 13  9  1  0  0  0  0
 14 12  1  0  0  0  0
 15 17  2  0  0  0  0
 16 17  1  0  0  0  0
 17 18  1  0  0  0  0
 18 19  1  0  0  0  0
 19 28  1  6  0  0  0
 19 24  1  0  0  0  0
 21 27  1  6  0  0  0
 21 23  1  0  0  0  0
 22 21  1  0  0  0  0
 22 26  1  1  0  0  0
 22 23  1  0  0  0  0
 24 25  1  0  0  0  0
 24 27  2  0  0  0  0
 25 20  1  6  0  0  0
 25 22  1  0  0  0  0
 29 28  2  0  0  0  0
 30 11  1  0  0  0  0
 31 30  1  0  0  0  0
 32 33  1  0  0  0  0
 33 35  1  0  0  0  0
 34 35  2  0  0  0  0
 36 46  1  0  0  0  0
 37 40  1  6  0  0  0
 37 46  1  0  0  0  0
 38 47  1  6  0  0  0
 38 40  1  0  0  0  0
 38 45  1  0  0  0  0
 39 37  1  0  0  0  0
 41 43  1  0  0  0  0
 42 38  1  0  0  0  0
 42 44  1  0  0  0  0
 43 45  1  0  0  0  0
 43 34  1  1  0  0  0
 44 39  1  0  0  0  0
 45 41  1  6  0  0  0
 45 36  1  0  0  0  0
M  END
>  <MODEL>
1

>  <REMARK>
 VINA RESULT:      -8.0      0.000      0.000
  Name = 
  10 active torsions:
  status: ('A' for Active; 'I' for Inactive)
    1  A    between atoms: C_2  and  C_16
    2  A    between atoms: C_2  and  C_32
    3  A    between atoms: C_3  and  C_25
    4  A    between atoms: O_13  and  C_40
    5  A    between atoms: C_16  and  C_26
    6  A    between atoms: C_20  and  C_36
    7  A    between atoms: O_23  and  C_36
    8  A    between atoms: O_23  and  C_39
    9  A    between atoms: C_27  and  C_36
   10  A    between atoms: N_28  and  C_29
                            x       y       z     vdW  Elec       q    Type
                         _______ _______ _______ _____ _____    ______ ____

>  <TORSDO>
F 10

$$$$
=
 OpenBabel11042415323D

 47 54  0  0  1  0  0  0  0  0999 V2000
  192.9790  175.3140  145.3140 C   0  0  0  0  0  0  0  0  0  0  0  0
  194.1770  174.4710  145.1810 C   0  0  0  0  0  0  0  0  0  0  0  0
  191.8070  177.2920  144.5340 O   0  0  0  0  0  0  0  0  0  0  0  0
  195.5950  172.8760  145.3830 C   0  0  0  0  0  3  0  0  0  0  0  0
  190.0200  176.1870  145.7160 C   0  0  0  0  0  3  0  0  0  0  0  0
  190.4550  177.0370  144.7880 C   0  0  0  0  0  0  0  0  0  0  0  0
  192.0790  174.9920  146.4290 C   0  0  0  0  0  3  0  0  0  0  0  0
  196.1320  173.7880  144.4850 C   0  0  0  0  0  0  0  0  0  0  0  0
  195.2660  176.0810  143.6050 C   0  0  0  0  0  2  0  0  0  0  0  0
  194.4220  173.3300  145.7860 O   0  0  0  0  0  0  0  0  0  0  0  0
  190.8120  175.3440  146.6260 C   0  0  0  0  0  0  0  0  0  0  0  0
  193.8360  176.5790  143.3280 C   0  0  0  0  0  2  0  0  0  0  0  0
  195.2080  174.7950  144.3550 C   0  0  0  0  0  0  0  0  0  0  0  0
  192.8450  176.3630  144.4680 C   0  0  0  0  0  0  0  0  0  0  0  0
  188.9400  176.1540  142.4940 O   0  0  0  0  0  0  0  0  0  0  0  0
  189.4700  177.7940  144.0770 N   0  0  0  0  0  2  0  0  0  0  0  0
  188.8570  177.3610  142.8600 C   0  0  0  0  0  0  0  0  0  0  0  0
  188.1700  178.2860  142.0760 O   0  0  0  0  0  0  0  0  0  0  0  0
  186.7510  178.3790  142.0950 C   0  0  2  0  0  3  0  0  0  0  0  0
  185.1880  180.1060  144.1560 O   0  0  0  0  0  1  0  0  0  0  0  0
  185.3740  176.9750  145.3510 C   0  0  2  0  0  3  0  0  0  0  0  0
  185.6990  178.3990  145.7700 C   0  0  1  0  0  0  0  0  0  0  0  0
  186.5200  177.2520  146.3200 C   0  0  0  0  0  2  0  0  0  0  0  0
  186.2360  178.1040  143.4830 C   0  0  0  0  0  0  0  0  0  0  0  0
  186.1510  179.1620  144.5240 C   0  0  1  0  0  3  0  0  0  0  0  0
  184.7010  178.9280  146.5860 O   0  0  0  0  0  1  0  0  0  0  0  0
  185.8490  176.9150  143.9370 C   0  0  0  0  0  3  0  0  0  0  0  0
  186.1540  177.4880  141.0490 C   0  0  0  0  0  3  0  0  0  0  0  0
  186.6640  177.4580  139.8200 C   0  0  0  0  0  2  0  0  0  0  0  0
  190.1910  174.8240  147.7610 O   0  0  0  0  0  0  0  0  0  0  0  0
  188.9040  174.4370  147.7350 O   0  0  0  0  0  1  0  0  0  0  0  0
  197.3920  173.6170  143.7080 C   0  0  0  0  0  2  0  0  0  0  0  0
  197.1750  172.5790  142.6200 C   0  0  0  0  0  2  0  0  0  0  0  0
  195.1810  172.7580  141.1340 C   0  0  0  0  0  3  0  0  0  0  0  0
  196.4150  173.1600  141.4690 C   0  0  0  0  0  3  0  0  0  0  0  0
  192.3070  173.0640  141.1570 C   0  0  0  0  0  2  0  0  0  0  0  0
  190.7330  173.2510  143.1600 C   0  0  1  0  0  3  0  0  0  0  0  0
  192.0800  171.1510  142.9730 C   0  0  1  0  0  0  0  0  0  0  0  0
  189.5190  172.5710  142.5080 C   0  0  0  0  0  2  0  0  0  0  0  0
  191.5680  172.2260  143.9320 C   0  0  0  0  0  2  0  0  0  0  0  0
  193.5960  170.8880  140.9000 C   0  0  0  0  0  2  0  0  0  0  0  0
  190.8620  170.4190  142.3770 C   0  0  0  0  0  2  0  0  0  0  0  0
  194.4470  171.6830  141.8830 C   0  0  2  0  0  3  0  0  0  0  0  0
  189.9110  171.3670  141.6370 C   0  0  0  0  0  2  0  0  0  0  0  0
  192.9240  171.8460  141.8650 C   0  0  1  0  0  0  0  0  0  0  0  0
  191.6160  174.0030  142.1550 C   0  0  0  0  0  2  0  0  0  0  0  0
  192.8790  170.1430  143.7930 C   0  0  0  0  0  1  0  0  0  0  0  0
  1  7  1  0  0  0  0
  2  1  1  0  0  0  0
  2 10  1  0  0  0  0
  3  6  1  0  0  0  0
  4 10  1  0  0  0  0
  5 11  1  0  0  0  0
  6  5  2  0  0  0  0
  7 11  2  0  0  0  0
  8  4  2  0  0  0  0
  9 13  1  0  0  0  0
 11 30  1  0  0  0  0
 12  9  1  0  0  0  0
 12 14  1  0  0  0  0
 13  8  1  0  0  0  0
 13  2  2  0  0  0  0
 14  3  1  0  0  0  0
 14  1  2  0  0  0  0
 15 17  2  0  0  0  0
 16  6  1  0  0  0  0
 17 16  1  0  0  0  0
 18 19  1  0  0  0  0
 18 17  1  0  0  0  0
 19 28  1  6  0  0  0
 19 24  1  0  0  0  0
 21 27  1  6  0  0  0
 21 22  1  0  0  0  0
 21 23  1  0  0  0  0
 22 23  1  0  0  0  0
 22 26  1  1  0  0  0
 24 27  2  0  0  0  0
 24 25  1  0  0  0  0
 25 20  1  6  0  0  0
 25 22  1  0  0  0  0
 29 28  2  0  0  0  0
 31 30  1  0  0  0  0
 32  8  1  0  0  0  0
 33 32  1  0  0  0  0
 34 35  2  0  0  0  0
 35 33  1  0  0  0  0
 36 45  1  0  0  0  0
 36 46  1  0  0  0  0
 37 46  1  6  0  0  0
 37 40  1  0  0  0  0
 38 47  1  1  0  0  0
 38 40  1  0  0  0  0
 39 37  1  0  0  0  0
 41 43  1  0  0  0  0
 42 38  1  0  0  0  0
 43 34  1  6  0  0  0
 44 42  1  0  0  0  0
 44 39  1  0  0  0  0
 45 41  1  6  0  0  0
 45 43  1  0  0  0  0
 45 38  1  0  0  0  0
M  END
>  <MODEL>
2

>  <REMARK>
 VINA RESULT:      -7.9      2.237      4.797
  Name = 
  10 active torsions:
  status: ('A' for Active; 'I' for Inactive)
    1  A    between atoms: C_2  and  C_16
    2  A    between atoms: C_2  and  C_32
    3  A    between atoms: C_3  and  C_25
    4  A    between atoms: O_13  and  C_40
    5  A    between atoms: C_16  and  C_26
    6  A    between atoms: C_20  and  C_36
    7  A    between atoms: O_23  and  C_36
    8  A    between atoms: O_23  and  C_39
    9  A    between atoms: C_27  and  C_36
   10  A    between atoms: N_28  and  C_29
                            x       y       z     vdW  Elec       q    Type
                         _______ _______ _______ _____ _____    ______ ____

>  <TORSDO>
F 10

$$$$
=
 OpenBabel11042415323D

 47 54  0  0  1  0  0  0  0  0999 V2000
  193.4480  176.0920  145.4270 C   0  0  0  0  0  0  0  0  0  0  0  0
  194.6820  175.3060  145.2750 C   0  0  0  0  0  0  0  0  0  0  0  0
  191.8220  177.5270  144.3340 O   0  0  0  0  0  0  0  0  0  0  0  0
  196.3290  173.9850  145.6410 C   0  0  0  0  0  3  0  0  0  0  0  0
  190.6030  176.9630  146.3360 C   0  0  0  0  0  3  0  0  0  0  0  0
  190.6410  177.3610  145.0660 C   0  0  0  0  0  0  0  0  0  0  0  0
  192.9340  176.2370  146.7960 C   0  0  0  0  0  3  0  0  0  0  0  0
  196.4630  174.4540  144.3420 C   0  0  0  0  0  0  0  0  0  0  0  0
  195.0550  176.1440  142.9470 C   0  0  0  0  0  2  0  0  0  0  0  0
  195.2490  174.5300  146.1710 O   0  0  0  0  0  0  0  0  0  0  0  0
  191.7260  176.6010  147.2150 C   0  0  0  0  0  0  0  0  0  0  0  0
  193.5450  176.4380  142.9470 C   0  0  0  0  0  2  0  0  0  0  0  0
  195.3960  175.2870  144.1170 C   0  0  0  0  0  0  0  0  0  0  0  0
  192.9350  176.6870  144.3240 C   0  0  0  0  0  0  0  0  0  0  0  0
  190.0510  177.3300  142.2400 O   0  0  0  0  0  0  0  0  0  0  0  0
  189.4000  177.7210  144.4530 N   0  0  0  0  0  2  0  0  0  0  0  0
  189.2090  177.8280  143.0400 C   0  0  0  0  0  0  0  0  0  0  0  0
  188.0850  178.4930  142.5510 O   0  0  0  0  0  0  0  0  0  0  0  0
  186.8030  177.8780  142.5230 C   0  0  2  0  0  3  0  0  0  0  0  0
  184.9930  179.7160  144.2590 O   0  0  0  0  0  1  0  0  0  0  0  0
  185.4350  176.8290  145.9130 C   0  0  2  0  0  3  0  0  0  0  0  0
  185.6000  178.3250  146.1230 C   0  0  1  0  0  0  0  0  0  0  0  0
  186.5060  177.3600  146.8610 C   0  0  0  0  0  2  0  0  0  0  0  0
  186.2590  177.7560  143.9210 C   0  0  0  0  0  0  0  0  0  0  0  0
  186.0270  178.9410  144.7900 C   0  0  1  0  0  3  0  0  0  0  0  0
  184.5210  178.8610  146.8240 O   0  0  0  0  0  1  0  0  0  0  0  0
  185.9720  176.6130  144.5370 C   0  0  0  0  0  3  0  0  0  0  0  0
  186.8650  176.5730  141.7900 C   0  0  0  0  0  3  0  0  0  0  0  0
  187.1120  176.5460  140.4830 C   0  0  0  0  0  2  0  0  0  0  0  0
  191.5140  176.5840  148.5930 O   0  0  0  0  0  0  0  0  0  0  0  0
  191.5770  177.7130  149.3210 O   0  0  0  0  0  1  0  0  0  0  0  0
  197.4840  174.0130  143.3490 C   0  0  0  0  0  2  0  0  0  0  0  0
  197.1000  172.6470  142.8060 C   0  0  0  0  0  2  0  0  0  0  0  0
  195.0360  172.6940  141.4090 C   0  0  0  0  0  3  0  0  0  0  0  0
  196.3700  172.7750  141.5060 C   0  0  0  0  0  3  0  0  0  0  0  0
  192.2140  172.5730  140.7940 C   0  0  0  0  0  2  0  0  0  0  0  0
  190.3120  174.0100  141.7130 C   0  0  1  0  0  3  0  0  0  0  0  0
  191.6100  172.6560  143.3700 C   0  0  1  0  0  0  0  0  0  0  0  0
  189.2160  172.9350  141.6440 C   0  0  0  0  0  2  0  0  0  0  0  0
  190.9660  174.0160  143.0980 C   0  0  0  0  0  2  0  0  0  0  0  0
  193.4650  171.1120  142.4560 C   0  0  0  0  0  2  0  0  0  0  0  0
  190.4980  171.5900  143.3750 C   0  0  0  0  0  2  0  0  0  0  0  0
  194.1480  172.4660  142.5990 C   0  0  2  0  0  3  0  0  0  0  0  0
  189.7230  171.5440  142.0530 C   0  0  0  0  0  2  0  0  0  0  0  0
  192.6590  172.3810  142.2540 C   0  0  1  0  0  0  0  0  0  0  0  0
  191.3830  173.8520  140.6250 C   0  0  0  0  0  2  0  0  0  0  0  0
  192.2190  172.7060  144.7680 C   0  0  0  0  0  1  0  0  0  0  0  0
  1  7  1  0  0  0  0
  2  1  1  0  0  0  0
  2 10  1  0  0  0  0
  3  6  1  0  0  0  0
  4 10  1  0  0  0  0
  5 11  1  0  0  0  0
  6  5  2  0  0  0  0
  7 11  2  0  0  0  0
  8  4  2  0  0  0  0
  9 13  1  0  0  0  0
 11 30  1  0  0  0  0
 12  9  1  0  0  0  0
 12 14  1  0  0  0  0
 13  8  1  0  0  0  0
 13  2  2  0  0  0  0
 14  3  1  0  0  0  0
 14  1  2  0  0  0  0
 15 17  2  0  0  0  0
 16  6  1  0  0  0  0
 17 16  1  0  0  0  0
 18 17  1  0  0  0  0
 19 28  1  1  0  0  0
 19 18  1  0  0  0  0
 19 24  1  0  0  0  0
 21 27  1  6  0  0  0
 21 22  1  0  0  0  0
 21 23  1  0  0  0  0
 22 26  1  1  0  0  0
 22 23  1  0  0  0  0
 24 27  2  0  0  0  0
 24 25  1  0  0  0  0
 25 20  1  6  0  0  0
 25 22  1  0  0  0  0
 29 28  2  0  0  0  0
 30 31  1  0  0  0  0
 32  8  1  0  0  0  0
 33 32  1  0  0  0  0
 34 35  2  0  0  0  0
 35 33  1  0  0  0  0
 37 46  1  6  0  0  0
 37 40  1  0  0  0  0
 38 42  1  0  0  0  0
 38 47  1  1  0  0  0
 39 37  1  0  0  0  0
 39 44  1  0  0  0  0
 40 38  1  0  0  0  0
 41 43  1  0  0  0  0
 43 34  1  6  0  0  0
 44 42  1  0  0  0  0
 45 36  1  6  0  0  0
 45 41  1  0  0  0  0
 45 43  1  0  0  0  0
 45 38  1  0  0  0  0
 46 36  1  0  0  0  0
M  END
>  <MODEL>
3

>  <REMARK>
 VINA RESULT:      -7.9      2.478      5.158
  Name = 
  10 active torsions:
  status: ('A' for Active; 'I' for Inactive)
    1  A    between atoms: C_2  and  C_16
    2  A    between atoms: C_2  and  C_32
    3  A    between atoms: C_3  and  C_25
    4  A    between atoms: O_13  and  C_40
    5  A    between atoms: C_16  and  C_26
    6  A    between atoms: C_20  and  C_36
    7  A    between atoms: O_23  and  C_36
    8  A    between atoms: O_23  and  C_39
    9  A    between atoms: C_27  and  C_36
   10  A    between atoms: N_28  and  C_29
                            x       y       z     vdW  Elec       q    Type
                         _______ _______ _______ _____ _____    ______ ____

>  <TORSDO>
F 10

$$$$
=
 OpenBabel11042415323D

 47 54  0  0  1  0  0  0  0  0999 V2000
  192.1860  171.7870  141.8300 C   0  0  0  0  0  0  0  0  0  0  0  0
  193.4320  171.0110  141.9050 C   0  0  0  0  0  0  0  0  0  0  0  0
  190.2290  172.5820  143.0290 O   0  0  0  0  0  0  0  0  0  0  0  0
  195.3210  170.1160  141.4330 C   0  0  0  0  0  3  0  0  0  0  0  0
  190.1380  174.0090  141.0880 C   0  0  0  0  0  3  0  0  0  0  0  0
  189.8420  173.7480  142.3590 C   0  0  0  0  0  0  0  0  0  0  0  0
  191.7830  172.2440  140.4940 C   0  0  0  0  0  3  0  0  0  0  0  0
  195.0030  169.7370  142.7300 C   0  0  0  0  0  0  0  0  0  0  0  0
  192.9220  170.2130  144.2210 C   0  0  0  0  0  2  0  0  0  0  0  0
  194.3440  170.8740  140.9690 O   0  0  0  0  0  0  0  0  0  0  0  0
  190.9190  173.1920  140.1450 C   0  0  0  0  0  0  0  0  0  0  0  0
  192.0050  171.4450  144.3060 C   0  0  0  0  0  2  0  0  0  0  0  0
  193.8000  170.3270  143.0230 C   0  0  0  0  0  0  0  0  0  0  0  0
  191.4670  171.9440  142.9680 C   0  0  0  0  0  0  0  0  0  0  0  0
  190.3800  176.5550  142.7710 O   0  0  0  0  0  0  0  0  0  0  0  0
  189.0020  174.6840  143.0430 N   0  0  0  0  0  2  0  0  0  0  0  0
  189.3860  176.0270  143.3450 C   0  0  0  0  0  0  0  0  0  0  0  0
  188.6540  176.7510  144.2860 O   0  0  0  0  0  0  0  0  0  0  0  0
  188.0960  176.1330  145.4390 C   0  0  2  0  0  3  0  0  0  0  0  0
  185.5100  177.2530  144.1240 O   0  0  0  0  0  1  0  0  0  0  0  0
  185.3510  177.8680  147.4200 C   0  0  2  0  0  3  0  0  0  0  0  0
  185.2560  178.6060  146.0950 C   0  0  1  0  0  0  0  0  0  0  0  0
  185.7710  179.3310  147.3210 C   0  0  0  0  0  2  0  0  0  0  0  0
  186.9530  176.9600  145.9650 C   0  0  0  0  0  0  0  0  0  0  0  0
  186.2210  177.9350  145.1160 C   0  0  1  0  0  3  0  0  0  0  0  0
  183.9290  178.8210  145.7280 O   0  0  0  0  0  1  0  0  0  0  0  0
  186.5080  176.9450  147.2190 C   0  0  0  0  0  3  0  0  0  0  0  0
  189.1620  175.8700  146.4580 C   0  0  0  0  0  3  0  0  0  0  0  0
  189.4130  174.6280  146.8650 C   0  0  0  0  0  2  0  0  0  0  0  0
  190.7920  173.4480  138.7800 O   0  0  0  0  0  0  0  0  0  0  0  0
  189.6330  173.8840  138.2580 O   0  0  0  0  0  1  0  0  0  0  0  0
  195.8780  168.9680  143.6590 C   0  0  0  0  0  2  0  0  0  0  0  0
  196.9230  169.8980  144.2530 C   0  0  0  0  0  2  0  0  0  0  0  0
  196.0930  171.7540  145.6940 C   0  0  0  0  0  3  0  0  0  0  0  0
  196.4520  170.4710  145.5520 C   0  0  0  0  0  3  0  0  0  0  0  0
  194.6860  174.2280  146.2050 C   0  0  0  0  0  2  0  0  0  0  0  0
  192.7650  175.2770  144.8890 C   0  0  1  0  0  3  0  0  0  0  0  0
  194.9180  174.9290  143.6630 C   0  0  1  0  0  0  0  0  0  0  0  0
  193.1250  176.7440  145.1720 C   0  0  0  0  0  2  0  0  0  0  0  0
  193.3950  174.8180  143.5710 C   0  0  0  0  0  2  0  0  0  0  0  0
  196.9080  173.9710  144.9980 C   0  0  0  0  0  2  0  0  0  0  0  0
  195.2800  176.4110  143.8700 C   0  0  0  0  0  2  0  0  0  0  0  0
  196.1290  172.7370  144.5590 C   0  0  2  0  0  3  0  0  0  0  0  0
  194.6390  177.0010  145.1320 C   0  0  0  0  0  2  0  0  0  0  0  0
  195.4010  174.0510  144.8550 C   0  0  1  0  0  0  0  0  0  0  0  0
  193.1650  174.3270  146.0260 C   0  0  0  0  0  2  0  0  0  0  0  0
  195.4930  174.4880  142.3210 C   0  0  0  0  0  1  0  0  0  0  0  0
  1  2  1  0  0  0  0
  1 14  2  0  0  0  0
  2 13  2  0  0  0  0
  4  8  2  0  0  0  0
  5  6  2  0  0  0  0
  6  3  1  0  0  0  0
  6 16  1  0  0  0  0
  7  1  1  0  0  0  0
  8 13  1  0  0  0  0
  8 32  1  0  0  0  0
  9 12  1  0  0  0  0
 10  4  1  0  0  0  0
 10  2  1  0  0  0  0
 11  7  2  0  0  0  0
 11  5  1  0  0  0  0
 13  9  1  0  0  0  0
 14  3  1  0  0  0  0
 14 12  1  0  0  0  0
 15 17  2  0  0  0  0
 16 17  1  0  0  0  0
 17 18  1  0  0  0  0
 18 19  1  0  0  0  0
 19 24  1  0  0  0  0
 19 28  1  1  0  0  0
 21 27  1  6  0  0  0
 22 26  1  6  0  0  0
 22 23  1  0  0  0  0
 22 21  1  0  0  0  0
 23 21  1  0  0  0  0
 24 27  2  0  0  0  0
 25 20  1  6  0  0  0
 25 24  1  0  0  0  0
 25 22  1  0  0  0  0
 28 29  2  0  0  0  0
 30 11  1  0  0  0  0
 31 30  1  0  0  0  0
 32 33  1  0  0  0  0
 33 35  1  0  0  0  0
 35 34  2  0  0  0  0
 37 40  1  6  0  0  0
 37 39  1  0  0  0  0
 37 46  1  0  0  0  0
 38 47  1  6  0  0  0
 38 42  1  0  0  0  0
 38 45  1  0  0  0  0
 40 38  1  0  0  0  0
 42 44  1  0  0  0  0
 43 45  1  0  0  0  0
 43 41  1  0  0  0  0
 43 34  1  1  0  0  0
 44 39  1  0  0  0  0
 45 41  1  1  0  0  0
 45 36  1  0  0  0  0
 46 36  1  0  0  0  0
M  END
>  <MODEL>
4

>  <REMARK>
 VINA RESULT:      -7.8      1.823      2.783
  Name = 
  10 active torsions:
  status: ('A' for Active; 'I' for Inactive)
    1  A    between atoms: C_2  and  C_16
    2  A    between atoms: C_2  and  C_32
    3  A    between atoms: C_3  and  C_25
    4  A    between atoms: O_13  and  C_40
    5  A    between atoms: C_16  and  C_26
    6  A    between atoms: C_20  and  C_36
    7  A    between atoms: O_23  and  C_36
    8  A    between atoms: O_23  and  C_39
    9  A    between atoms: C_27  and  C_36
   10  A    between atoms: N_28  and  C_29
                            x       y       z     vdW  Elec       q    Type
                         _______ _______ _______ _____ _____    ______ ____

>  <TORSDO>
F 10

$$$$
=
 OpenBabel11042415323D

 47 54  0  0  1  0  0  0  0  0999 V2000
  191.3550  172.1000  141.2860 C   0  0  0  0  0  0  0  0  0  0  0  0
  192.6060  171.4840  141.7530 C   0  0  0  0  0  0  0  0  0  0  0  0
  189.1590  172.9290  141.9090 O   0  0  0  0  0  0  0  0  0  0  0  0
  194.6010  170.7040  141.8360 C   0  0  0  0  0  3  0  0  0  0  0  0
  189.3660  173.9030  139.7130 C   0  0  0  0  0  3  0  0  0  0  0  0
  188.8430  173.8840  140.9370 C   0  0  0  0  0  0  0  0  0  0  0  0
  191.1950  172.2260  139.8310 C   0  0  0  0  0  3  0  0  0  0  0  0
  194.0590  170.5740  143.1070 C   0  0  0  0  0  0  0  0  0  0  0  0
  191.7020  171.1420  144.0600 C   0  0  0  0  0  2  0  0  0  0  0  0
  193.6900  171.2470  141.0490 O   0  0  0  0  0  0  0  0  0  0  0  0
  190.3610  172.9880  139.1310 C   0  0  0  0  0  0  0  0  0  0  0  0
  190.7150  172.2670  143.7030 C   0  0  0  0  0  2  0  0  0  0  0  0
  192.7880  171.0900  143.0420 C   0  0  0  0  0  0  0  0  0  0  0  0
  190.4210  172.4190  142.2140 C   0  0  0  0  0  0  0  0  0  0  0  0
  189.0370  176.0310  142.8590 O   0  0  0  0  0  0  0  0  0  0  0  0
  187.8330  174.8540  141.2350 N   0  0  0  0  0  2  0  0  0  0  0  0
  187.9270  175.8040  142.2980 C   0  0  0  0  0  0  0  0  0  0  0  0
  186.7800  176.4760  142.7180 O   0  0  0  0  0  0  0  0  0  0  0  0
  186.8040  177.8540  143.0680 C   0  0  2  0  0  3  0  0  0  0  0  0
  187.4440  176.4630  145.7750 O   0  0  0  0  0  1  0  0  0  0  0  0
  185.3880  179.0440  146.3920 C   0  0  2  0  0  3  0  0  0  0  0  0
  185.4810  177.5470  146.6420 C   0  0  1  0  0  0  0  0  0  0  0  0
  184.1220  178.2020  146.5120 C   0  0  0  0  0  2  0  0  0  0  0  0
  186.2770  178.0400  144.4660 C   0  0  0  0  0  0  0  0  0  0  0  0
  186.1660  176.9130  145.4300 C   0  0  1  0  0  3  0  0  0  0  0  0
  185.9470  177.2750  147.9260 O   0  0  0  0  0  1  0  0  0  0  0  0
  185.8260  179.1850  144.9720 C   0  0  0  0  0  3  0  0  0  0  0  0
  186.0740  178.6670  142.0420 C   0  0  0  0  0  3  0  0  0  0  0  0
  184.9550  178.2060  141.4900 C   0  0  0  0  0  2  0  0  0  0  0  0
  190.4890  172.9390  137.7430 O   0  0  0  0  0  0  0  0  0  0  0  0
  190.7710  174.0440  137.0310 O   0  0  0  0  0  1  0  0  0  0  0  0
  194.7790  170.1070  144.3260 C   0  0  0  0  0  2  0  0  0  0  0  0
  196.2750  170.1220  144.0630 C   0  0  0  0  0  2  0  0  0  0  0  0
  197.4980  171.9280  145.2690 C   0  0  0  0  0  3  0  0  0  0  0  0
  197.0190  170.6780  145.2360 C   0  0  0  0  0  3  0  0  0  0  0  0
  195.5900  174.0450  145.7540 C   0  0  0  0  0  2  0  0  0  0  0  0
  193.4990  174.6520  144.4180 C   0  0  1  0  0  3  0  0  0  0  0  0
  195.6870  174.7670  143.2090 C   0  0  1  0  0  0  0  0  0  0  0  0
  193.5340  176.1640  144.6940 C   0  0  0  0  0  2  0  0  0  0  0  0
  194.2240  174.3320  143.1080 C   0  0  0  0  0  2  0  0  0  0  0  0
  197.8250  174.2650  144.5650 C   0  0  0  0  0  2  0  0  0  0  0  0
  195.7220  176.2940  143.4100 C   0  0  0  0  0  2  0  0  0  0  0  0
  197.3320  172.8910  144.1280 C   0  0  2  0  0  3  0  0  0  0  0  0
  194.9580  176.7390  144.6630 C   0  0  0  0  0  2  0  0  0  0  0  0
  196.3370  174.0200  144.4100 C   0  0  1  0  0  0  0  0  0  0  0  0
  194.0840  173.8160  145.5640 C   0  0  0  0  0  2  0  0  0  0  0  0
  196.3550  174.4540  141.8740 C   0  0  0  0  0  1  0  0  0  0  0  0
  1  2  1  0  0  0  0
  1 14  2  0  0  0  0
  2 13  2  0  0  0  0
  3 14  1  0  0  0  0
  4  8  2  0  0  0  0
  5  6  2  0  0  0  0
  6 16  1  0  0  0  0
  6  3  1  0  0  0  0
  7  1  1  0  0  0  0
  8 32  1  0  0  0  0
 10  2  1  0  0  0  0
 10  4  1  0  0  0  0
 11  5  1  0  0  0  0
 11  7  2  0  0  0  0
 12  9  1  0  0  0  0
 13  8  1  0  0  0  0
 13  9  1  0  0  0  0
 14 12  1  0  0  0  0
 16 17  1  0  0  0  0
 17 18  1  0  0  0  0
 17 15  2  0  0  0  0
 18 19  1  0  0  0  0
 19 28  1  6  0  0  0
 19 24  1  0  0  0  0
 21 27  1  6  0  0  0
 21 23  1  0  0  0  0
 21 22  1  0  0  0  0
 22 26  1  1  0  0  0
 23 22  1  0  0  0  0
 24 27  2  0  0  0  0
 24 25  1  0  0  0  0
 25 20  1  1  0  0  0
 25 22  1  0  0  0  0
 29 28  2  0  0  0  0
 30 11  1  0  0  0  0
 31 30  1  0  0  0  0
 33 32  1  0  0  0  0
 33 35  1  0  0  0  0
 35 34  2  0  0  0  0
 37 40  1  6  0  0  0
 37 39  1  0  0  0  0
 37 46  1  0  0  0  0
 38 47  1  6  0  0  0
 38 42  1  0  0  0  0
 38 45  1  0  0  0  0
 40 38  1  0  0  0  0
 42 44  1  0  0  0  0
 43 45  1  0  0  0  0
 43 41  1  0  0  0  0
 43 34  1  1  0  0  0
 44 39  1  0  0  0  0
 45 41  1  1  0  0  0
 45 36  1  0  0  0  0
 46 36  1  0  0  0  0
M  END
>  <MODEL>
5

>  <REMARK>
 VINA RESULT:      -7.5      1.708      2.560
  Name = 
  10 active torsions:
  status: ('A' for Active; 'I' for Inactive)
    1  A    between atoms: C_2  and  C_16
    2  A    between atoms: C_2  and  C_32
    3  A    between atoms: C_3  and  C_25
    4  A    between atoms: O_13  and  C_40
    5  A    between atoms: C_16  and  C_26
    6  A    between atoms: C_20  and  C_36
    7  A    between atoms: O_23  and  C_36
    8  A    between atoms: O_23  and  C_39
    9  A    between atoms: C_27  and  C_36
   10  A    between atoms: N_28  and  C_29
                            x       y       z     vdW  Elec       q    Type
                         _______ _______ _______ _____ _____    ______ ____

>  <TORSDO>
F 10

$$$$
=
 OpenBabel11042415323D

 47 54  0  0  1  0  0  0  0  0999 V2000
  192.8080  173.9250  145.3290 C   0  0  0  0  0  0  0  0  0  0  0  0
  193.4170  172.5890  145.2560 C   0  0  0  0  0  0  0  0  0  0  0  0
  190.8560  175.2820  144.8320 O   0  0  0  0  0  0  0  0  0  0  0  0
  194.7480  170.9270  145.4970 C   0  0  0  0  0  3  0  0  0  0  0  0
  191.9990  176.7410  146.3750 C   0  0  0  0  0  3  0  0  0  0  0  0
  190.8900  176.3230  145.7670 C   0  0  0  0  0  0  0  0  0  0  0  0
  193.6830  175.0160  145.7770 C   0  0  0  0  0  3  0  0  0  0  0  0
  193.6550  170.4710  144.7740 C   0  0  0  0  0  0  0  0  0  0  0  0
  191.5270  171.6840  143.8890 C   0  0  0  0  0  2  0  0  0  0  0  0
  194.5700  172.2090  145.7590 O   0  0  0  0  0  0  0  0  0  0  0  0
  193.3700  176.2240  146.2340 C   0  0  0  0  0  0  0  0  0  0  0  0
  190.7110  172.8460  144.4800 C   0  0  0  0  0  2  0  0  0  0  0  0
  192.8060  171.5410  144.6390 C   0  0  0  0  0  0  0  0  0  0  0  0
  191.5310  174.0630  144.8990 C   0  0  0  0  0  0  0  0  0  0  0  0
  188.5370  175.3110  147.1000 O   0  0  0  0  0  0  0  0  0  0  0  0
  189.6840  177.0470  146.0290 N   0  0  0  0  0  2  0  0  0  0  0  0
  188.4970  176.4540  146.5620 C   0  0  0  0  0  0  0  0  0  0  0  0
  187.2900  177.1460  146.4760 O   0  0  0  0  0  0  0  0  0  0  0  0
  186.2890  176.7940  145.5290 C   0  0  2  0  0  3  0  0  0  0  0  0
  186.3220  175.3030  142.8000 O   0  0  0  0  0  1  0  0  0  0  0  0
  187.1700  178.5040  142.2470 C   0  0  2  0  0  3  0  0  0  0  0  0
  187.6950  177.1020  141.9880 C   0  0  1  0  0  0  0  0  0  0  0  0
  188.6710  178.2480  142.1540 C   0  0  0  0  0  2  0  0  0  0  0  0
  186.7240  177.1970  144.1450 C   0  0  0  0  0  0  0  0  0  0  0  0
  187.3010  176.2260  143.1790 C   0  0  1  0  0  3  0  0  0  0  0  0
  187.4060  176.6840  140.6900 O   0  0  0  0  0  1  0  0  0  0  0  0
  186.6840  178.4350  143.6570 C   0  0  0  0  0  3  0  0  0  0  0  0
  184.9650  177.3690  145.9300 C   0  0  0  0  0  3  0  0  0  0  0  0
  184.8920  178.2810  146.8950 C   0  0  0  0  0  2  0  0  0  0  0  0
  194.4300  177.0280  146.6490 O   0  0  0  0  0  0  0  0  0  0  0  0
  194.9830  177.9330  145.8240 O   0  0  0  0  0  1  0  0  0  0  0  0
  193.3980  169.0610  144.3650 C   0  0  0  0  0  2  0  0  0  0  0  0
  193.5530  168.9380  142.8590 C   0  0  0  0  0  2  0  0  0  0  0  0
  195.2420  170.1790  141.5090 C   0  0  0  0  0  3  0  0  0  0  0  0
  194.9530  169.2570  142.4370 C   0  0  0  0  0  3  0  0  0  0  0  0
  195.8190  173.0040  141.2990 C   0  0  0  0  0  2  0  0  0  0  0  0
  194.4420  174.9860  142.1360 C   0  0  1  0  0  3  0  0  0  0  0  0
  193.3560  173.4840  140.4550 C   0  0  1  0  0  0  0  0  0  0  0  0
  194.8530  175.9770  141.0350 C   0  0  0  0  0  2  0  0  0  0  0  0
  193.1450  174.2680  141.7510 C   0  0  0  0  0  2  0  0  0  0  0  0
  194.7650  171.5370  139.5110 C   0  0  0  0  0  2  0  0  0  0  0  0
  193.6940  174.4860  139.3350 C   0  0  0  0  0  2  0  0  0  0  0  0
  194.1840  170.9810  140.8050 C   0  0  2  0  0  3  0  0  0  0  0  0
  194.9430  175.3190  139.6490 C   0  0  0  0  0  2  0  0  0  0  0  0
  194.5160  172.4700  140.6810 C   0  0  1  0  0  0  0  0  0  0  0  0
  195.5360  173.9610  142.4650 C   0  0  0  0  0  2  0  0  0  0  0  0
  192.0330  172.8130  140.1010 C   0  0  0  0  0  1  0  0  0  0  0  0
  1  7  1  0  0  0  0
  2  1  1  0  0  0  0
  2 10  1  0  0  0  0
  3 14  1  0  0  0  0
  3  6  1  0  0  0  0
  4 10  1  0  0  0  0
  6 16  1  0  0  0  0
  6  5  2  0  0  0  0
  7 11  2  0  0  0  0
  8  4  2  0  0  0  0
  9 12  1  0  0  0  0
  9 13  1  0  0  0  0
 11  5  1  0  0  0  0
 11 30  1  0  0  0  0
 12 14  1  0  0  0  0
 13  8  1  0  0  0  0
 13  2  2  0  0  0  0
 14  1  2  0  0  0  0
 16 17  1  0  0  0  0
 17 15  2  0  0  0  0
 18 17  1  0  0  0  0
 19 28  1  1  0  0  0
 19 18  1  0  0  0  0
 21 23  1  1  0  0  0
 21 27  1  0  0  0  0
 22 26  1  6  0  0  0
 22 23  1  0  0  0  0
 22 21  1  0  0  0  0
 22 25  1  0  0  0  0
 24 19  1  0  0  0  0
 25 20  1  6  0  0  0
 25 24  1  0  0  0  0
 27 24  2  0  0  0  0
 28 29  2  0  0  0  0
 31 30  1  0  0  0  0
 32  8  1  0  0  0  0
 33 32  1  0  0  0  0
 34 35  2  0  0  0  0
 35 33  1  0  0  0  0
 36 46  1  0  0  0  0
 37 39  1  6  0  0  0
 37 46  1  0  0  0  0
 38 47  1  6  0  0  0
 38 45  1  0  0  0  0
 38 40  1  0  0  0  0
 40 37  1  0  0  0  0
 41 43  1  0  0  0  0
 42 44  1  0  0  0  0
 42 38  1  0  0  0  0
 43 34  1  1  0  0  0
 44 39  1  0  0  0  0
 45 41  1  6  0  0  0
 45 43  1  0  0  0  0
 45 36  1  0  0  0  0
M  END
>  <MODEL>
6

>  <REMARK>
 VINA RESULT:      -7.5      2.772      5.415
  Name = 
  10 active torsions:
  status: ('A' for Active; 'I' for Inactive)
    1  A    between atoms: C_2  and  C_16
    2  A    between atoms: C_2  and  C_32
    3  A    between atoms: C_3  and  C_25
    4  A    between atoms: O_13  and  C_40
    5  A    between atoms: C_16  and  C_26
    6  A    between atoms: C_20  and  C_36
    7  A    between atoms: O_23  and  C_36
    8  A    between atoms: O_23  and  C_39
    9  A    between atoms: C_27  and  C_36
   10  A    between atoms: N_28  and  C_29
                            x       y       z     vdW  Elec       q    Type
                         _______ _______ _______ _____ _____    ______ ____

>  <TORSDO>
F 10

$$$$
=
 OpenBabel11042415323D

 47 54  0  0  1  0  0  0  0  0999 V2000
  189.3630  173.3250  140.6170 C   0  0  0  0  0  0  0  0  0  0  0  0
  190.1950  172.3270  139.9280 C   0  0  0  0  0  0  0  0  0  0  0  0
  188.5830  174.1730  142.7540 O   0  0  0  0  0  0  0  0  0  0  0  0
  191.2500  171.2230  138.4240 C   0  0  0  0  0  3  0  0  0  0  0  0
  187.9650  176.0130  141.3240 C   0  0  0  0  0  3  0  0  0  0  0  0
  188.2740  175.5180  142.5200 C   0  0  0  0  0  0  0  0  0  0  0  0
  188.5060  174.1580  139.7620 C   0  0  0  0  0  3  0  0  0  0  0  0
  191.5200  170.6140  139.6410 C   0  0  0  0  0  0  0  0  0  0  0  0
  190.6890  171.1130  142.0590 C   0  0  0  0  0  2  0  0  0  0  0  0
  190.4410  172.2440  138.6400 O   0  0  0  0  0  0  0  0  0  0  0  0
  187.9010  175.3100  140.0320 C   0  0  0  0  0  0  0  0  0  0  0  0
  190.3380  172.4420  142.7490 C   0  0  0  0  0  2  0  0  0  0  0  0
  190.8500  171.3380  140.5960 C   0  0  0  0  0  0  0  0  0  0  0  0
  189.3820  173.3410  141.9710 C   0  0  0  0  0  0  0  0  0  0  0  0
  185.8640  176.4280  143.8250 O   0  0  0  0  0  0  0  0  0  0  0  0
  188.1960  176.4070  143.6390 N   0  0  0  0  0  2  0  0  0  0  0  0
  186.9720  176.9390  144.1520 C   0  0  0  0  0  0  0  0  0  0  0  0
  187.0120  178.0340  145.0140 O   0  0  0  0  0  0  0  0  0  0  0  0
  187.0530  177.8750  146.4270 C   0  0  2  0  0  3  0  0  0  0  0  0
  189.8950  178.0060  147.6810 O   0  0  0  0  0  1  0  0  0  0  0  0
  188.9870  174.7790  147.4970 C   0  0  2  0  0  3  0  0  0  0  0  0
  190.1240  175.6920  147.0690 C   0  0  1  0  0  0  0  0  0  0  0  0
  189.7960  174.4670  146.2420 C   0  0  0  0  0  2  0  0  0  0  0  0
  188.0590  176.8190  146.7990 C   0  0  0  0  0  0  0  0  0  0  0  0
  189.5250  177.0570  146.7240 C   0  0  1  0  0  3  0  0  0  0  0  0
  191.2020  175.6070  147.9490 O   0  0  0  0  0  1  0  0  0  0  0  0
  187.7660  175.5790  147.1830 C   0  0  0  0  0  3  0  0  0  0  0  0
  185.6790  177.6060  146.9620 C   0  0  0  0  0  3  0  0  0  0  0  0
  184.6630  178.4010  146.6390 C   0  0  0  0  0  2  0  0  0  0  0  0
  187.1980  175.9050  138.9850 O   0  0  0  0  0  0  0  0  0  0  0  0
  186.6830  177.1410  139.1050 O   0  0  0  0  0  1  0  0  0  0  0  0
  192.4720  169.4900  139.8690 C   0  0  0  0  0  2  0  0  0  0  0  0
  193.8710  170.0480  140.0660 C   0  0  0  0  0  2  0  0  0  0  0  0
  194.4430  170.8750  142.3470 C   0  0  0  0  0  3  0  0  0  0  0  0
  194.3280  169.8610  141.4780 C   0  0  0  0  0  3  0  0  0  0  0  0
  195.0210  172.8040  144.4210 C   0  0  0  0  0  2  0  0  0  0  0  0
  193.4400  174.4650  145.5460 C   0  0  1  0  0  3  0  0  0  0  0  0
  193.7430  174.6920  143.0730 C   0  0  1  0  0  0  0  0  0  0  0  0
  194.4800  175.5650  145.8090 C   0  0  0  0  0  2  0  0  0  0  0  0
  192.7260  174.7130  144.2140 C   0  0  0  0  0  2  0  0  0  0  0  0
  195.4190  173.0970  141.9270 C   0  0  0  0  0  2  0  0  0  0  0  0
  194.7420  175.8430  143.2970 C   0  0  0  0  0  2  0  0  0  0  0  0
  194.1230  172.2960  141.9820 C   0  0  2  0  0  3  0  0  0  0  0  0
  195.4670  175.7370  144.6440 C   0  0  0  0  0  2  0  0  0  0  0  0
  194.4570  173.3080  143.0810 C   0  0  1  0  0  0  0  0  0  0  0  0
  194.0360  173.0510  145.5720 C   0  0  0  0  0  2  0  0  0  0  0  0
  192.9890  174.9700  141.7770 C   0  0  0  0  0  1  0  0  0  0  0  0
  1 14  2  0  0  0  0
  2 13  2  0  0  0  0
  2  1  1  0  0  0  0
  4 10  1  0  0  0  0
  4  8  2  0  0  0  0
  5  6  2  0  0  0  0
  6  3  1  0  0  0  0
  6 16  1  0  0  0  0
  7 11  2  0  0  0  0
  7  1  1  0  0  0  0
  8 32  1  0  0  0  0
  8 13  1  0  0  0  0
  9 12  1  0  0  0  0
 10  2  1  0  0  0  0
 11  5  1  0  0  0  0
 13  9  1  0  0  0  0
 14 12  1  0  0  0  0
 14  3  1  0  0  0  0
 15 17  2  0  0  0  0
 16 17  1  0  0  0  0
 17 18  1  0  0  0  0
 18 19  1  0  0  0  0
 19 24  1  0  0  0  0
 19 28  1  6  0  0  0
 21 23  1  6  0  0  0
 22 21  1  0  0  0  0
 22 26  1  1  0  0  0
 23 22  1  0  0  0  0
 24 27  2  0  0  0  0
 25 24  1  0  0  0  0
 25 22  1  0  0  0  0
 25 20  1  1  0  0  0
 27 21  1  0  0  0  0
 29 28  2  0  0  0  0
 30 31  1  0  0  0  0
 30 11  1  0  0  0  0
 32 33  1  0  0  0  0
 33 35  1  0  0  0  0
 35 34  2  0  0  0  0
 36 46  1  0  0  0  0
 37 40  1  6  0  0  0
 37 46  1  0  0  0  0
 37 39  1  0  0  0  0
 38 47  1  6  0  0  0
 38 45  1  0  0  0  0
 38 42  1  0  0  0  0
 38 40  1  0  0  0  0
 41 43  1  0  0  0  0
 42 44  1  0  0  0  0
 43 34  1  1  0  0  0
 43 45  1  0  0  0  0
 44 39  1  0  0  0  0
 45 41  1  6  0  0  0
 45 36  1  0  0  0  0
M  END
>  <MODEL>
7

>  <REMARK>
 VINA RESULT:      -7.4      2.022      4.236
  Name = 
  10 active torsions:
  status: ('A' for Active; 'I' for Inactive)
    1  A    between atoms: C_2  and  C_16
    2  A    between atoms: C_2  and  C_32
    3  A    between atoms: C_3  and  C_25
    4  A    between atoms: O_13  and  C_40
    5  A    between atoms: C_16  and  C_26
    6  A    between atoms: C_20  and  C_36
    7  A    between atoms: O_23  and  C_36
    8  A    between atoms: O_23  and  C_39
    9  A    between atoms: C_27  and  C_36
   10  A    between atoms: N_28  and  C_29
                            x       y       z     vdW  Elec       q    Type
                         _______ _______ _______ _____ _____    ______ ____

>  <TORSDO>
F 10

$$$$
=
 OpenBabel11042415323D

 47 54  0  0  1  0  0  0  0  0999 V2000
  192.1120  174.4970  141.3160 C   0  0  0  0  0  0  0  0  0  0  0  0
  193.4440  174.8250  140.7870 C   0  0  0  0  0  0  0  0  0  0  0  0
  190.5540  174.7550  143.1610 O   0  0  0  0  0  0  0  0  0  0  0  0
  195.1490  175.0220  139.5020 C   0  0  0  0  0  3  0  0  0  0  0  0
  189.0560  173.9310  141.4600 C   0  0  0  0  0  3  0  0  0  0  0  0
  189.2860  174.5980  142.5900 C   0  0  0  0  0  0  0  0  0  0  0  0
  191.3300  173.5200  140.5470 C   0  0  0  0  0  3  0  0  0  0  0  0
  195.4680  175.6430  140.7010 C   0  0  0  0  0  0  0  0  0  0  0  0
  194.1460  175.9090  142.9300 C   0  0  0  0  0  2  0  0  0  0  0  0
  193.9250  174.5340  139.5990 O   0  0  0  0  0  0  0  0  0  0  0  0
  190.0270  173.2590  140.5820 C   0  0  0  0  0  0  0  0  0  0  0  0
  192.6390  176.0710  143.1940 C   0  0  0  0  0  2  0  0  0  0  0  0
  194.3640  175.5210  141.5080 C   0  0  0  0  0  0  0  0  0  0  0  0
  191.7480  175.0430  142.5010 C   0  0  0  0  0  0  0  0  0  0  0  0
  188.7570  177.3630  143.2330 O   0  0  0  0  0  0  0  0  0  0  0  0
  188.1500  175.1040  143.2970 N   0  0  0  0  0  2  0  0  0  0  0  0
  188.0110  176.4640  143.7150 C   0  0  0  0  0  0  0  0  0  0  0  0
  187.0470  176.7900  144.6680 O   0  0  0  0  0  0  0  0  0  0  0  0
  187.3940  177.3780  145.9160 C   0  0  2  0  0  3  0  0  0  0  0  0
  189.7150  178.2550  147.7900 O   0  0  0  0  0  1  0  0  0  0  0  0
  189.8490  174.9170  147.4610 C   0  0  2  0  0  3  0  0  0  0  0  0
  190.7380  176.1370  147.2910 C   0  0  1  0  0  0  0  0  0  0  0  0
  190.9760  174.9120  146.4330 C   0  0  0  0  0  2  0  0  0  0  0  0
  188.5520  176.6370  146.5300 C   0  0  0  0  0  0  0  0  0  0  0  0
  189.8630  177.2880  146.7910 C   0  0  1  0  0  3  0  0  0  0  0  0
  191.5650  176.3210  148.3970 O   0  0  0  0  0  1  0  0  0  0  0  0
  188.5520  175.3480  146.8590 C   0  0  0  0  0  3  0  0  0  0  0  0
  186.1930  177.4550  146.8090 C   0  0  0  0  0  3  0  0  0  0  0  0
  184.9800  177.1970  146.3290 C   0  0  0  0  0  2  0  0  0  0  0  0
  189.5580  172.3080  139.6760 O   0  0  0  0  0  0  0  0  0  0  0  0
  188.4190  172.5040  138.9890 O   0  0  0  0  0  1  0  0  0  0  0  0
  196.7100  176.4170  140.9860 C   0  0  0  0  0  2  0  0  0  0  0  0
  197.5090  175.7060  142.0660 C   0  0  0  0  0  2  0  0  0  0  0  0
  197.6180  173.2310  142.3390 C   0  0  0  0  0  3  0  0  0  0  0  0
  197.8970  174.3300  141.6250 C   0  0  0  0  0  3  0  0  0  0  0  0
  195.6800  171.1180  142.7100 C   0  0  0  0  0  2  0  0  0  0  0  0
  193.1770  171.3060  143.1820 C   0  0  1  0  0  3  0  0  0  0  0  0
  194.7240  172.3220  144.8660 C   0  0  1  0  0  0  0  0  0  0  0  0
  193.0480  170.0260  144.0220 C   0  0  0  0  0  2  0  0  0  0  0  0
  193.4220  172.5170  144.0870 C   0  0  0  0  0  2  0  0  0  0  0  0
  197.2600  172.0500  144.4700 C   0  0  0  0  0  2  0  0  0  0  0  0
  194.5660  171.0810  145.7640 C   0  0  0  0  0  2  0  0  0  0  0  0
  196.8870  173.2790  143.6500 C   0  0  2  0  0  3  0  0  0  0  0  0
  194.2430  169.8140  144.9640 C   0  0  0  0  0  2  0  0  0  0  0  0
  195.8830  172.1400  143.8420 C   0  0  1  0  0  0  0  0  0  0  0  0
  194.2710  171.2180  142.1090 C   0  0  0  0  0  2  0  0  0  0  0  0
  194.9070  173.5360  145.7700 C   0  0  0  0  0  1  0  0  0  0  0  0
  1 14  2  0  0  0  0
  2  1  1  0  0  0  0
  2 13  2  0  0  0  0
  4 10  1  0  0  0  0
  4  8  2  0  0  0  0
  5  6  2  0  0  0  0
  6  3  1  0  0  0  0
  6 16  1  0  0  0  0
  7 11  2  0  0  0  0
  7  1  1  0  0  0  0
  8 32  1  0  0  0  0
  8 13  1  0  0  0  0
  9 12  1  0  0  0  0
 10  2  1  0  0  0  0
 11  5  1  0  0  0  0
 13  9  1  0  0  0  0
 14  3  1  0  0  0  0
 14 12  1  0  0  0  0
 15 17  2  0  0  0  0
 16 17  1  0  0  0  0
 17 18  1  0  0  0  0
 18 19  1  0  0  0  0
 19 24  1  0  0  0  0
 19 28  1  1  0  0  0
 21 23  1  6  0  0  0
 22 21  1  0  0  0  0
 22 26  1  1  0  0  0
 23 22  1  0  0  0  0
 24 25  1  0  0  0  0
 24 27  2  0  0  0  0
 25 22  1  0  0  0  0
 25 20  1  1  0  0  0
 27 21  1  0  0  0  0
 29 28  2  0  0  0  0
 30 11  1  0  0  0  0
 31 30  1  0  0  0  0
 32 33  1  0  0  0  0
 35 33  1  0  0  0  0
 35 34  2  0  0  0  0
 37 46  1  6  0  0  0
 37 39  1  0  0  0  0
 37 40  1  0  0  0  0
 38 42  1  0  0  0  0
 38 47  1  1  0  0  0
 39 44  1  0  0  0  0
 40 38  1  0  0  0  0
 43 34  1  6  0  0  0
 43 45  1  0  0  0  0
 43 41  1  0  0  0  0
 44 42  1  0  0  0  0
 45 36  1  6  0  0  0
 45 41  1  0  0  0  0
 45 38  1  0  0  0  0
 46 36  1  0  0  0  0
M  END
>  <MODEL>
8

>  <REMARK>
 VINA RESULT:      -7.4      2.310      4.609
  Name = 
  10 active torsions:
  status: ('A' for Active; 'I' for Inactive)
    1  A    between atoms: C_2  and  C_16
    2  A    between atoms: C_2  and  C_32
    3  A    between atoms: C_3  and  C_25
    4  A    between atoms: O_13  and  C_40
    5  A    between atoms: C_16  and  C_26
    6  A    between atoms: C_20  and  C_36
    7  A    between atoms: O_23  and  C_36
    8  A    between atoms: O_23  and  C_39
    9  A    between atoms: C_27  and  C_36
   10  A    between atoms: N_28  and  C_29
                            x       y       z     vdW  Elec       q    Type
                         _______ _______ _______ _____ _____    ______ ____

>  <TORSDO>
F 10

$$$$
=
 OpenBabel11042415323D

 47 54  0  0  1  0  0  0  0  0999 V2000
  192.7190  176.1490  144.6600 C   0  0  0  0  0  0  0  0  0  0  0  0
  194.0530  175.6530  145.0300 C   0  0  0  0  0  0  0  0  0  0  0  0
  191.2390  176.7990  142.8480 O   0  0  0  0  0  0  0  0  0  0  0  0
  195.7270  174.9030  146.1380 C   0  0  0  0  0  3  0  0  0  0  0  0
  189.6380  176.5810  144.6380 C   0  0  0  0  0  3  0  0  0  0  0  0
  189.9460  176.5910  143.3430 C   0  0  0  0  0  0  0  0  0  0  0  0
  191.8500  176.5660  145.7690 C   0  0  0  0  0  3  0  0  0  0  0  0
  196.1230  174.9910  144.8110 C   0  0  0  0  0  0  0  0  0  0  0  0
  194.8910  175.8390  142.6790 C   0  0  0  0  0  2  0  0  0  0  0  0
  194.4770  175.3200  146.2280 O   0  0  0  0  0  0  0  0  0  0  0  0
  190.5340  176.7540  145.7920 C   0  0  0  0  0  0  0  0  0  0  0  0
  193.4060  175.7710  142.2800 C   0  0  0  0  0  2  0  0  0  0  0  0
  195.0390  175.4590  144.1120 C   0  0  0  0  0  0  0  0  0  0  0  0
  192.4290  176.2660  143.3420 C   0  0  0  0  0  0  0  0  0  0  0  0
  188.9160  178.6710  141.6250 O   0  0  0  0  0  0  0  0  0  0  0  0
  188.8680  176.4670  142.4100 N   0  0  0  0  0  2  0  0  0  0  0  0
  188.3040  177.5670  141.6920 C   0  0  0  0  0  0  0  0  0  0  0  0
  187.0670  177.4130  141.0680 O   0  0  0  0  0  0  0  0  0  0  0  0
  185.9800  178.2910  141.3310 C   0  0  2  0  0  3  0  0  0  0  0  0
  185.9390  176.1290  143.5650 O   0  0  0  0  0  1  0  0  0  0  0  0
  185.5990  179.1340  145.0210 C   0  0  2  0  0  3  0  0  0  0  0  0
  184.9000  177.7860  144.9630 C   0  0  1  0  0  0  0  0  0  0  0  0
  184.0880  179.0410  145.2090 C   0  0  0  0  0  2  0  0  0  0  0  0
  185.7110  178.3510  142.8110 C   0  0  0  0  0  0  0  0  0  0  0  0
  185.0760  177.2280  143.5500 C   0  0  1  0  0  3  0  0  0  0  0  0
  185.2220  176.9990  146.0680 O   0  0  0  0  0  1  0  0  0  0  0  0
  185.9640  179.3950  143.5970 C   0  0  0  0  0  3  0  0  0  0  0  0
  184.7820  177.8970  140.5220 C   0  0  0  0  0  3  0  0  0  0  0  0
  183.6940  178.6630  140.5140 C   0  0  0  0  0  2  0  0  0  0  0  0
  189.9750  177.0910  147.0240 O   0  0  0  0  0  0  0  0  0  0  0  0
  190.7480  177.3130  148.1020 O   0  0  0  0  0  1  0  0  0  0  0  0
  197.4220  174.5220  144.2500 C   0  0  0  0  0  2  0  0  0  0  0  0
  197.2390  173.1400  143.6470 C   0  0  0  0  0  2  0  0  0  0  0  0
  196.8370  171.3750  145.3600 C   0  0  0  0  0  3  0  0  0  0  0  0
  197.6880  172.0770  144.6000 C   0  0  0  0  0  3  0  0  0  0  0  0
  195.4600  169.9040  143.2870 C   0  0  0  0  0  2  0  0  0  0  0  0
  193.9800  170.7950  141.4060 C   0  0  1  0  0  3  0  0  0  0  0  0
  193.2350  171.2630  143.7480 C   0  0  1  0  0  0  0  0  0  0  0  0
  193.0420  169.5810  141.3140 C   0  0  0  0  0  2  0  0  0  0  0  0
  193.3930  171.8520  142.3460 C   0  0  0  0  0  2  0  0  0  0  0  0
  194.6530  170.2800  145.6680 C   0  0  0  0  0  2  0  0  0  0  0  0
  192.2360  170.0930  143.6680 C   0  0  0  0  0  2  0  0  0  0  0  0
  195.3500  171.5900  145.3260 C   0  0  2  0  0  3  0  0  0  0  0  0
  192.6890  169.0000  142.6920 C   0  0  0  0  0  2  0  0  0  0  0  0
  194.6330  170.7860  144.2390 C   0  0  1  0  0  0  0  0  0  0  0  0
  195.4030  170.4270  141.8460 C   0  0  0  0  0  2  0  0  0  0  0  0
  192.6230  172.3420  144.6360 C   0  0  0  0  0  1  0  0  0  0  0  0
  1  2  1  0  0  0  0
  1  7  1  0  0  0  0
  2 10  1  0  0  0  0
  3 14  1  0  0  0  0
  3  6  1  0  0  0  0
  4 10  1  0  0  0  0
  5 11  1  0  0  0  0
  6  5  2  0  0  0  0
  7 11  2  0  0  0  0
  8  4  2  0  0  0  0
  9 13  1  0  0  0  0
 11 30  1  0  0  0  0
 12  9  1  0  0  0  0
 12 14  1  0  0  0  0
 13  8  1  0  0  0  0
 13  2  2  0  0  0  0
 14  1  2  0  0  0  0
 15 17  2  0  0  0  0
 16  6  1  0  0  0  0
 17 16  1  0  0  0  0
 18 19  1  0  0  0  0
 18 17  1  0  0  0  0
 19 28  1  6  0  0  0
 19 24  1  0  0  0  0
 21 27  1  6  0  0  0
 21 23  1  0  0  0  0
 22 21  1  0  0  0  0
 22 23  1  0  0  0  0
 22 26  1  1  0  0  0
 24 25  1  0  0  0  0
 24 27  2  0  0  0  0
 25 20  1  1  0  0  0
 25 22  1  0  0  0  0
 29 28  2  0  0  0  0
 30 31  1  0  0  0  0
 32  8  1  0  0  0  0
 33 32  1  0  0  0  0
 33 35  1  0  0  0  0
 35 34  2  0  0  0  0
 37 39  1  1  0  0  0
 37 46  1  0  0  0  0
 37 40  1  0  0  0  0
 38 45  1  0  0  0  0
 38 47  1  1  0  0  0
 39 44  1  0  0  0  0
 40 38  1  0  0  0  0
 42 38  1  0  0  0  0
 43 34  1  6  0  0  0
 43 41  1  0  0  0  0
 44 42  1  0  0  0  0
 45 36  1  6  0  0  0
 45 43  1  0  0  0  0
 45 41  1  0  0  0  0
 46 36  1  0  0  0  0
M  END
>  <MODEL>
9

>  <REMARK>
 VINA RESULT:      -7.4      2.738      5.423
  Name = 
  10 active torsions:
  status: ('A' for Active; 'I' for Inactive)
    1  A    between atoms: C_2  and  C_16
    2  A    between atoms: C_2  and  C_32
    3  A    between atoms: C_3  and  C_25
    4  A    between atoms: O_13  and  C_40
    5  A    between atoms: C_16  and  C_26
    6  A    between atoms: C_20  and  C_36
    7  A    between atoms: O_23  and  C_36
    8  A    between atoms: O_23  and  C_39
    9  A    between atoms: C_27  and  C_36
   10  A    between atoms: N_28  and  C_29
                            x       y       z     vdW  Elec       q    Type
                         _______ _______ _______ _____ _____    ______ ____

>  <TORSDO>
F 10

$$$$
