=
 OpenBabel11042419033D

 43 45  0  0  1  0  0  0  0  0999 V2000
  188.7190  175.6200  142.2060 N   0  0  0  0  0  0  0  0  0  0  0  0
  190.0300  174.0330  143.2840 O   0  0  0  0  0  0  0  0  0  0  0  0
  189.0370  174.2640  142.5550 C   0  0  0  0  0  0  0  0  0  0  0  0
  186.1250  177.7630  140.7930 C   0  0  0  0  0  2  0  0  0  0  0  0
  187.4660  177.0710  140.6700 C   0  0  0  0  0  2  0  0  0  0  0  0
  187.3870  175.9750  141.6970 C   0  0  2  0  0  3  0  0  0  0  0  0
  185.6550  177.6020  142.1700 N   0  0  0  0  0  0  0  0  0  0  0  0
  186.4500  176.5230  142.7600 C   0  0  0  0  0  2  0  0  0  0  0  0
  185.9950  178.8220  142.8920 C   0  0  0  0  0  2  0  0  0  0  0  0
  185.8210  178.6330  144.3850 C   0  0  0  0  0  2  0  0  0  0  0  0
  184.5240  179.2710  144.8530 C   0  0  1  0  0  3  0  0  0  0  0  0
  183.4840  179.0560  143.8650 N   0  0  0  0  0  1  0  0  0  0  0  0
  184.1110  178.6490  146.1660 C   0  0  0  0  0  1  0  0  0  0  0  0
  189.7170  176.6600  142.4930 C   0  0  0  0  0  2  0  0  0  0  0  0
  189.4840  177.2520  143.8770 C   0  0  0  0  0  2  0  0  0  0  0  0
  190.6590  176.9360  144.7630 C   0  0  0  0  0  2  0  0  0  0  0  0
  190.2180  176.8000  146.1460 N   0  0  0  0  0  0  0  0  0  0  0  0
  188.8170  177.2240  146.2710 C   0  0  0  0  0  2  0  0  0  0  0  0
  187.8880  176.1180  146.7770 C   0  0  0  0  0  2  0  0  0  0  0  0
  186.6960  176.7350  147.4780 C   0  0  0  0  0  1  0  0  0  0  0  0
  190.3410  175.3930  146.5240 C   0  0  0  0  0  2  0  0  0  0  0  0
  191.6970  174.9180  146.2420 C   0  0  0  0  0  0  0  0  0  0  0  0
  192.8090  174.5170  146.0010 C   0  0  0  0  0  0  0  0  0  0  0  0
  194.0980  174.0550  145.7150 N   0  0  0  0  0  2  0  0  0  0  0  0
  195.2520  174.9410  145.8400 C   0  0  1  0  0  3  0  0  0  0  0  0
  196.3700  174.2390  146.3680 O   0  0  0  0  0  0  0  0  0  0  0  0
  194.7030  176.6430  144.0810 O   0  0  0  0  0  1  0  0  0  0  0  0
  196.8980  173.3960  145.3650 C   0  0  0  0  0  2  0  0  0  0  0  0
  197.9410  173.4290  143.2150 O   0  0  0  0  0  1  0  0  0  0  0  0
  195.5510  175.6450  144.5340 C   0  0  0  0  0  0  0  0  0  0  0  0
  196.5990  175.2870  143.7930 C   0  0  0  0  0  3  0  0  0  0  0  0
  197.5560  174.2430  144.2780 C   0  0  1  0  0  3  0  0  0  0  0  0
  188.2850  173.0910  142.0000 C   0  0  0  0  0  2  0  0  0  0  0  0
  188.6950  172.6890  140.5810 C   0  0  0  0  0  2  0  0  0  0  0  0
  192.2380  173.9810  139.9540 O   0  0  0  0  0  0  0  0  0  0  0  0
  189.6760  173.1710  137.5530 C   0  0  2  0  0  3  0  0  0  0  0  0
  189.6090  173.6200  139.8870 N   0  0  0  0  0  0  0  0  0  0  0  0
  187.7800  173.9910  138.5660 F   0  0  0  0  0  0  0  0  0  0  0  0
  191.0880  172.7220  137.8920 C   0  0  0  0  0  2  0  0  0  0  0  0
  189.7000  173.9370  136.2410 C   0  0  0  0  0  1  0  0  0  0  0  0
  191.1800  172.9660  139.6170 S   0  0  0  0  0  0  0  0  0  0  0  0
  189.1340  174.0350  138.6170 N   0  0  0  0  0  0  0  0  0  0  0  0
  191.4150  171.6910  140.3720 O   0  0  0  0  0  0  0  0  0  0  0  0
  1 14  1  0  0  0  0
  1  3  1  0  0  0  0
  3  2  2  0  0  0  0
  4  7  1  0  0  0  0
  5  4  1  0  0  0  0
  5  6  1  0  0  0  0
  6  1  1  1  0  0  0
  6  8  1  0  0  0  0
  7  8  1  0  0  0  0
  7  9  1  0  0  0  0
  9 10  1  0  0  0  0
 10 11  1  0  0  0  0
 11 13  1  1  0  0  0
 12 11  1  0  0  0  0
 14 15  1  0  0  0  0
 15 16  1  0  0  0  0
 16 17  1  0  0  0  0
 17 18  1  0  0  0  0
 17 21  1  0  0  0  0
 18 19  1  0  0  0  0
 19 20  1  0  0  0  0
 22 21  1  0  0  0  0
 23 22  3  0  0  0  0
 24 23  1  0  0  0  0
 25 24  1  6  0  0  0
 25 26  1  0  0  0  0
 27 30  1  0  0  0  0
 28 26  1  0  0  0  0
 30 25  1  0  0  0  0
 31 32  1  0  0  0  0
 31 30  2  0  0  0  0
 32 29  1  6  0  0  0
 32 28  1  0  0  0  0
 33  3  1  0  0  0  0
 34 33  1  0  0  0  0
 36 40  1  6  0  0  0
 36 39  1  0  0  0  0
 36 42  1  0  0  0  0
 37 34  1  0  0  0  0
 38 42  1  0  0  0  0
 39 41  1  0  0  0  0
 41 37  1  0  0  0  0
 41 35  2  0  0  0  0
 41 43  2  0  0  0  0
 42 37  1  0  0  0  0
M  END
>  <MODEL>
1

>  <REMARK>
 VINA RESULT:      -6.4      0.000      0.000
  Name = 
  17 active torsions:
  status: ('A' for Active; 'I' for Inactive)
    1  A    between atoms: C_1  and  C_10
    2  A    between atoms: C_2  and  C_24
    3  A    between atoms: C_2  and  C_32
    4  A    between atoms: C_3  and  N_40
    5  A    between atoms: C_5  and  C_26
    6  A    between atoms: C_5  and  N_30
    7  A    between atoms: C_6  and  C_36
    8  A    between atoms: C_6  and  N_38
    9  A    between atoms: C_7  and  N_8
   10  A    between atoms: C_7  and  C_26
   11  A    between atoms: N_8  and  C_27
   12  A    between atoms: C_10  and  N_30
   13  A    between atoms: C_14  and  C_36
   14  A    between atoms: C_15  and  N_40
   15  A    between atoms: C_19  and  C_22
   16  A    between atoms: N_21  and  C_24
   17  A    between atoms: C_22  and  N_30
                            x       y       z     vdW  Elec       q    Type
                         _______ _______ _______ _____ _____    ______ ____

>  <TORSDO>
F 17

$$$$
=
 OpenBabel11042419033D

 43 45  0  0  1  0  0  0  0  0999 V2000
  191.3740  176.8100  145.4370 N   0  0  0  0  0  0  0  0  0  0  0  0
  193.5990  176.9170  144.7740 O   0  0  0  0  0  0  0  0  0  0  0  0
  192.7360  176.3580  145.4910 C   0  0  0  0  0  0  0  0  0  0  0  0
  188.2520  175.6110  146.8970 C   0  0  0  0  0  2  0  0  0  0  0  0
  189.5040  175.3550  146.0860 C   0  0  0  0  0  2  0  0  0  0  0  0
  190.4240  176.4700  146.5050 C   0  0  2  0  0  3  0  0  0  0  0  0
  188.1620  177.0500  147.1530 N   0  0  0  0  0  0  0  0  0  0  0  0
  189.4890  177.6060  146.8800 C   0  0  0  0  0  2  0  0  0  0  0  0
  187.2540  177.6120  146.1610 C   0  0  0  0  0  2  0  0  0  0  0  0
  185.8440  177.0960  146.3640 C   0  0  0  0  0  2  0  0  0  0  0  0
  184.9730  178.1660  147.0000 C   0  0  1  0  0  3  0  0  0  0  0  0
  185.8000  179.2640  147.4640 N   0  0  0  0  0  1  0  0  0  0  0  0
  183.9840  178.6730  145.9770 C   0  0  0  0  0  1  0  0  0  0  0  0
  190.9920  177.7280  144.3550 C   0  0  0  0  0  2  0  0  0  0  0  0
  190.5800  176.9440  143.1160 C   0  0  0  0  0  2  0  0  0  0  0  0
  189.5570  177.7300  142.3400 C   0  0  0  0  0  2  0  0  0  0  0  0
  188.2140  177.3370  142.7450 N   0  0  0  0  0  0  0  0  0  0  0  0
  187.2270  177.8570  141.7900 C   0  0  0  0  0  2  0  0  0  0  0  0
  186.0660  178.5990  142.4560 C   0  0  0  0  0  2  0  0  0  0  0  0
  184.8960  177.6550  142.6380 C   0  0  0  0  0  1  0  0  0  0  0  0
  188.1560  175.8760  142.7660 C   0  0  0  0  0  2  0  0  0  0  0  0
  188.2070  175.3560  141.3980 C   0  0  0  0  0  0  0  0  0  0  0  0
  188.2430  174.9150  140.2770 C   0  0  0  0  0  0  0  0  0  0  0  0
  188.2780  174.4050  138.9740 N   0  0  0  0  0  2  0  0  0  0  0  0
  189.0910  173.2360  138.6520 C   0  0  1  0  0  3  0  0  0  0  0  0
  188.7990  172.7640  137.3440 O   0  0  0  0  0  0  0  0  0  0  0  0
  191.0540  173.6260  140.1650 O   0  0  0  0  0  1  0  0  0  0  0  0
  189.3700  173.6450  136.4000 C   0  0  0  0  0  2  0  0  0  0  0  0
  191.4650  174.4920  135.6210 O   0  0  0  0  0  1  0  0  0  0  0  0
  190.5630  173.5090  138.8740 C   0  0  0  0  0  0  0  0  0  0  0  0
  191.3850  173.6820  137.8400 C   0  0  0  0  0  3  0  0  0  0  0  0
  190.8920  173.5190  136.4360 C   0  0  1  0  0  3  0  0  0  0  0  0
  193.1590  175.1680  146.3010 C   0  0  0  0  0  2  0  0  0  0  0  0
  193.0610  173.8320  145.5620 C   0  0  0  0  0  2  0  0  0  0  0  0
  193.6190  174.7560  141.8940 O   0  0  0  0  0  0  0  0  0  0  0  0
  192.2490  171.7210  143.2710 C   0  0  2  0  0  3  0  0  0  0  0  0
  192.5610  173.8990  144.1730 N   0  0  0  0  0  0  0  0  0  0  0  0
  190.9350  172.5120  144.9860 F   0  0  0  0  0  0  0  0  0  0  0  0
  193.4280  172.1370  142.4070 C   0  0  0  0  0  2  0  0  0  0  0  0
  191.2440  170.9720  142.4120 C   0  0  0  0  0  1  0  0  0  0  0  0
  193.8010  173.7390  142.9880 S   0  0  0  0  0  0  0  0  0  0  0  0
  191.6000  172.9010  143.8700 N   0  0  0  0  0  0  0  0  0  0  0  0
  195.1790  173.8380  143.5750 O   0  0  0  0  0  0  0  0  0  0  0  0
  1  3  1  0  0  0  0
  2  3  2  0  0  0  0
  3 33  1  0  0  0  0
  4  7  1  0  0  0  0
  5  6  1  0  0  0  0
  5  4  1  0  0  0  0
  6  1  1  6  0  0  0
  6  8  1  0  0  0  0
  8  7  1  0  0  0  0
  9 10  1  0  0  0  0
  9  7  1  0  0  0  0
 10 11  1  0  0  0  0
 11 13  1  6  0  0  0
 11 12  1  0  0  0  0
 14  1  1  0  0  0  0
 15 14  1  0  0  0  0
 16 17  1  0  0  0  0
 16 15  1  0  0  0  0
 17 21  1  0  0  0  0
 18 19  1  0  0  0  0
 18 17  1  0  0  0  0
 19 20  1  0  0  0  0
 22 21  1  0  0  0  0
 23 22  3  0  0  0  0
 24 23  1  0  0  0  0
 25 30  1  0  0  0  0
 25 24  1  6  0  0  0
 26 25  1  0  0  0  0
 28 32  1  0  0  0  0
 28 26  1  0  0  0  0
 30 27  1  0  0  0  0
 31 30  2  0  0  0  0
 32 29  1  6  0  0  0
 32 31  1  0  0  0  0
 34 33  1  0  0  0  0
 35 41  2  0  0  0  0
 36 40  1  6  0  0  0
 36 42  1  0  0  0  0
 37 34  1  0  0  0  0
 39 41  1  0  0  0  0
 39 36  1  0  0  0  0
 41 43  2  0  0  0  0
 41 37  1  0  0  0  0
 42 37  1  0  0  0  0
 42 38  1  0  0  0  0
M  END
>  <MODEL>
2

>  <REMARK>
 VINA RESULT:      -6.4      2.446      6.300
  Name = 
  17 active torsions:
  status: ('A' for Active; 'I' for Inactive)
    1  A    between atoms: C_1  and  C_10
    2  A    between atoms: C_2  and  C_24
    3  A    between atoms: C_2  and  C_32
    4  A    between atoms: C_3  and  N_40
    5  A    between atoms: C_5  and  C_26
    6  A    between atoms: C_5  and  N_30
    7  A    between atoms: C_6  and  C_36
    8  A    between atoms: C_6  and  N_38
    9  A    between atoms: C_7  and  N_8
   10  A    between atoms: C_7  and  C_26
   11  A    between atoms: N_8  and  C_27
   12  A    between atoms: C_10  and  N_30
   13  A    between atoms: C_14  and  C_36
   14  A    between atoms: C_15  and  N_40
   15  A    between atoms: C_19  and  C_22
   16  A    between atoms: N_21  and  C_24
   17  A    between atoms: C_22  and  N_30
                            x       y       z     vdW  Elec       q    Type
                         _______ _______ _______ _____ _____    ______ ____

>  <TORSDO>
F 17

$$$$
=
 OpenBabel11042419033D

 43 45  0  0  1  0  0  0  0  0999 V2000
  192.3110  171.6890  143.1310 N   0  0  0  0  0  0  0  0  0  0  0  0
  193.7560  170.5720  144.5680 O   0  0  0  0  0  0  0  0  0  0  0  0
  193.5500  171.0230  143.4160 C   0  0  0  0  0  0  0  0  0  0  0  0
  190.8860  173.4710  140.2830 C   0  0  0  0  0  2  0  0  0  0  0  0
  191.9670  173.3280  141.3340 C   0  0  0  0  0  2  0  0  0  0  0  0
  191.8610  171.8850  141.7460 C   0  0  2  0  0  3  0  0  0  0  0  0
  189.8270  172.5070  140.5860 N   0  0  0  0  0  0  0  0  0  0  0  0
  190.4010  171.5360  141.5200 C   0  0  0  0  0  2  0  0  0  0  0  0
  188.7810  173.2210  141.3060 C   0  0  0  0  0  2  0  0  0  0  0  0
  188.4610  174.5390  140.6290 C   0  0  0  0  0  2  0  0  0  0  0  0
  188.0380  175.5740  141.6570 C   0  0  1  0  0  3  0  0  0  0  0  0
  189.1690  175.9310  142.4930 N   0  0  0  0  0  1  0  0  0  0  0  0
  187.5290  176.8040  140.9420 C   0  0  0  0  0  1  0  0  0  0  0  0
  191.4460  172.0550  144.2620 C   0  0  0  0  0  2  0  0  0  0  0  0
  192.0210  173.2540  145.0040 C   0  0  0  0  0  2  0  0  0  0  0  0
  190.9390  174.2760  145.2250 C   0  0  0  0  0  2  0  0  0  0  0  0
  191.2910  175.1420  146.3430 N   0  0  0  0  0  0  0  0  0  0  0  0
  191.4510  176.5250  145.8760 C   0  0  0  0  0  2  0  0  0  0  0  0
  192.8780  176.8560  145.4300 C   0  0  0  0  0  2  0  0  0  0  0  0
  193.8710  176.1610  146.3380 C   0  0  0  0  0  1  0  0  0  0  0  0
  190.2110  175.0750  147.3250 C   0  0  0  0  0  2  0  0  0  0  0  0
  188.9910  175.6600  146.7660 C   0  0  0  0  0  0  0  0  0  0  0  0
  187.9910  176.1380  146.2920 C   0  0  0  0  0  0  0  0  0  0  0  0
  186.8270  176.6860  145.7420 N   0  0  0  0  0  2  0  0  0  0  0  0
  186.6430  178.1330  145.6750 C   0  0  1  0  0  3  0  0  0  0  0  0
  186.8730  178.6100  144.3560 O   0  0  0  0  0  0  0  0  0  0  0  0
  185.0680  178.4730  147.5980 O   0  0  0  0  0  1  0  0  0  0  0  0
  185.7770  178.2510  143.5400 C   0  0  0  0  0  2  0  0  0  0  0  0
  183.4300  178.6060  143.2540 O   0  0  0  0  0  1  0  0  0  0  0  0
  185.2980  178.5450  146.2330 C   0  0  0  0  0  0  0  0  0  0  0  0
  184.3160  178.9350  145.4200 C   0  0  0  0  0  3  0  0  0  0  0  0
  184.5490  179.0640  143.9480 C   0  0  1  0  0  3  0  0  0  0  0  0
  194.6630  170.9250  142.4150 C   0  0  0  0  0  2  0  0  0  0  0  0
  195.6180  172.1210  142.4120 C   0  0  0  0  0  2  0  0  0  0  0  0
  196.3520  172.9040  146.0810 O   0  0  0  0  0  0  0  0  0  0  0  0
  196.7490  175.0300  143.1990 C   0  0  2  0  0  3  0  0  0  0  0  0
  195.5090  173.0350  143.5670 N   0  0  0  0  0  0  0  0  0  0  0  0
  194.8710  174.5370  141.9650 F   0  0  0  0  0  0  0  0  0  0  0  0
  197.6210  174.4430  144.2980 C   0  0  0  0  0  2  0  0  0  0  0  0
  196.6050  176.5260  143.4260 C   0  0  0  0  0  1  0  0  0  0  0  0
  196.8390  172.9260  144.6570 S   0  0  0  0  0  0  0  0  0  0  0  0
  195.4160  174.4020  143.1990 N   0  0  0  0  0  0  0  0  0  0  0  0
  197.7170  171.7400  144.3830 O   0  0  0  0  0  0  0  0  0  0  0  0
  1  3  1  0  0  0  0
  1 14  1  0  0  0  0
  3  2  2  0  0  0  0
  4  7  1  0  0  0  0
  4  5  1  0  0  0  0
  5  6  1  0  0  0  0
  6  1  1  1  0  0  0
  7  9  1  0  0  0  0
  7  8  1  0  0  0  0
  8  6  1  0  0  0  0
 10  9  1  0  0  0  0
 10 11  1  0  0  0  0
 11 13  1  6  0  0  0
 11 12  1  0  0  0  0
 14 15  1  0  0  0  0
 15 16  1  0  0  0  0
 16 17  1  0  0  0  0
 17 21  1  0  0  0  0
 18 17  1  0  0  0  0
 19 18  1  0  0  0  0
 19 20  1  0  0  0  0
 22 21  1  0  0  0  0
 23 22  3  0  0  0  0
 24 23  1  0  0  0  0
 25 24  1  6  0  0  0
 25 30  1  0  0  0  0
 26 25  1  0  0  0  0
 28 32  1  0  0  0  0
 28 26  1  0  0  0  0
 30 27  1  0  0  0  0
 31 30  2  0  0  0  0
 32 29  1  6  0  0  0
 32 31  1  0  0  0  0
 33  3  1  0  0  0  0
 34 33  1  0  0  0  0
 34 37  1  0  0  0  0
 36 40  1  1  0  0  0
 36 39  1  0  0  0  0
 37 41  1  0  0  0  0
 38 42  1  0  0  0  0
 39 41  1  0  0  0  0
 41 35  2  0  0  0  0
 42 36  1  0  0  0  0
 42 37  1  0  0  0  0
 43 41  2  0  0  0  0
M  END
>  <MODEL>
3

>  <REMARK>
 VINA RESULT:      -6.2      3.359      7.808
  Name = 
  17 active torsions:
  status: ('A' for Active; 'I' for Inactive)
    1  A    between atoms: C_1  and  C_10
    2  A    between atoms: C_2  and  C_24
    3  A    between atoms: C_2  and  C_32
    4  A    between atoms: C_3  and  N_40
    5  A    between atoms: C_5  and  C_26
    6  A    between atoms: C_5  and  N_30
    7  A    between atoms: C_6  and  C_36
    8  A    between atoms: C_6  and  N_38
    9  A    between atoms: C_7  and  N_8
   10  A    between atoms: C_7  and  C_26
   11  A    between atoms: N_8  and  C_27
   12  A    between atoms: C_10  and  N_30
   13  A    between atoms: C_14  and  C_36
   14  A    between atoms: C_15  and  N_40
   15  A    between atoms: C_19  and  C_22
   16  A    between atoms: N_21  and  C_24
   17  A    between atoms: C_22  and  N_30
                            x       y       z     vdW  Elec       q    Type
                         _______ _______ _______ _____ _____    ______ ____

>  <TORSDO>
F 17

$$$$
=
 OpenBabel11042419033D

 43 45  0  0  1  0  0  0  0  0999 V2000
  194.5910  176.0990  143.3070 N   0  0  0  0  0  0  0  0  0  0  0  0
  195.9740  176.4930  141.4810 O   0  0  0  0  0  0  0  0  0  0  0  0
  195.8870  176.2010  142.6970 C   0  0  0  0  0  0  0  0  0  0  0  0
  193.2540  175.1810  146.5750 C   0  0  0  0  0  2  0  0  0  0  0  0
  194.0120  174.8120  145.3180 C   0  0  0  0  0  2  0  0  0  0  0  0
  194.4400  176.1460  144.7670 C   0  0  2  0  0  3  0  0  0  0  0  0
  192.6700  176.5090  146.3820 N   0  0  0  0  0  0  0  0  0  0  0  0
  193.3670  177.1100  145.2420 C   0  0  0  0  0  2  0  0  0  0  0  0
  191.2820  176.3210  145.9790 C   0  0  0  0  0  2  0  0  0  0  0  0
  190.3610  176.3450  147.1820 C   0  0  0  0  0  2  0  0  0  0  0  0
  189.3540  175.2110  147.1010 C   0  0  1  0  0  3  0  0  0  0  0  0
  188.0170  175.7490  146.9310 N   0  0  0  0  0  1  0  0  0  0  0  0
  189.6970  174.3240  145.9270 C   0  0  0  0  0  1  0  0  0  0  0  0
  193.4130  176.0770  142.4280 C   0  0  0  0  0  2  0  0  0  0  0  0
  193.0220  174.6410  142.1020 C   0  0  0  0  0  2  0  0  0  0  0  0
  191.6330  174.3690  142.6130 C   0  0  0  0  0  2  0  0  0  0  0  0
  190.9920  173.3490  141.7930 N   0  0  0  0  0  0  0  0  0  0  0  0
  190.4120  172.3070  142.6500 C   0  0  0  0  0  2  0  0  0  0  0  0
  190.7350  170.8850  142.1840 C   0  0  0  0  0  2  0  0  0  0  0  0
  191.8800  170.9210  141.1940 C   0  0  0  0  0  1  0  0  0  0  0  0
  189.9340  173.9920  141.0150 C   0  0  0  0  0  2  0  0  0  0  0  0
  189.1120  174.8300  141.8890 C   0  0  0  0  0  0  0  0  0  0  0  0
  188.4460  175.5230  142.6170 C   0  0  0  0  0  0  0  0  0  0  0  0
  187.6760  176.3320  143.4590 N   0  0  0  0  0  2  0  0  0  0  0  0
  186.2360  176.4640  143.2560 C   0  0  1  0  0  3  0  0  0  0  0  0
  185.5760  176.7350  144.4850 O   0  0  0  0  0  0  0  0  0  0  0  0
  186.1870  177.1690  140.8480 O   0  0  0  0  0  1  0  0  0  0  0  0
  185.8280  178.0740  144.8560 C   0  0  0  0  0  2  0  0  0  0  0  0
  185.4630  180.3340  144.1680 O   0  0  0  0  0  1  0  0  0  0  0  0
  185.9220  177.4750  142.1740 C   0  0  0  0  0  0  0  0  0  0  0  0
  185.4320  178.6740  142.4860 C   0  0  0  0  0  3  0  0  0  0  0  0
  185.0950  179.0170  143.9030 C   0  0  1  0  0  3  0  0  0  0  0  0
  197.1530  175.8740  143.4330 C   0  0  0  0  0  2  0  0  0  0  0  0
  197.6610  174.4470  143.2150 C   0  0  0  0  0  2  0  0  0  0  0  0
  195.3350  171.8070  141.7200 O   0  0  0  0  0  0  0  0  0  0  0  0
  197.6330  171.4850  144.4760 C   0  0  2  0  0  3  0  0  0  0  0  0
  196.6650  173.3730  143.4020 N   0  0  0  0  0  0  0  0  0  0  0  0
  197.3600  173.4870  145.5780 F   0  0  0  0  0  0  0  0  0  0  0  0
  197.4150  170.8570  143.1090 C   0  0  0  0  0  2  0  0  0  0  0  0
  197.2770  170.4720  145.5510 C   0  0  0  0  0  1  0  0  0  0  0  0
  196.7240  172.1610  142.1790 S   0  0  0  0  0  0  0  0  0  0  0  0
  196.7970  172.6880  144.6370 N   0  0  0  0  0  0  0  0  0  0  0  0
  197.5780  172.5570  141.0110 O   0  0  0  0  0  0  0  0  0  0  0  0
  2  3  2  0  0  0  0
  3  1  1  0  0  0  0
  3 33  1  0  0  0  0
  5  4  1  0  0  0  0
  6  1  1  6  0  0  0
  6  8  1  0  0  0  0
  6  5  1  0  0  0  0
  7  4  1  0  0  0  0
  8  7  1  0  0  0  0
  9  7  1  0  0  0  0
  9 10  1  0  0  0  0
 11 13  1  6  0  0  0
 11 10  1  0  0  0  0
 12 11  1  0  0  0  0
 14  1  1  0  0  0  0
 15 14  1  0  0  0  0
 15 16  1  0  0  0  0
 17 16  1  0  0  0  0
 17 18  1  0  0  0  0
 19 18  1  0  0  0  0
 20 19  1  0  0  0  0
 21 17  1  0  0  0  0
 21 22  1  0  0  0  0
 22 23  3  0  0  0  0
 23 24  1  0  0  0  0
 25 24  1  1  0  0  0
 25 26  1  0  0  0  0
 26 28  1  0  0  0  0
 27 30  1  0  0  0  0
 30 31  2  0  0  0  0
 30 25  1  0  0  0  0
 31 32  1  0  0  0  0
 32 29  1  1  0  0  0
 32 28  1  0  0  0  0
 34 37  1  0  0  0  0
 34 33  1  0  0  0  0
 35 41  2  0  0  0  0
 36 42  1  0  0  0  0
 36 40  1  1  0  0  0
 37 42  1  0  0  0  0
 39 36  1  0  0  0  0
 41 39  1  0  0  0  0
 41 37  1  0  0  0  0
 42 38  1  0  0  0  0
 43 41  2  0  0  0  0
M  END
>  <MODEL>
4

>  <REMARK>
 VINA RESULT:      -6.2      3.398      8.471
  Name = 
  17 active torsions:
  status: ('A' for Active; 'I' for Inactive)
    1  A    between atoms: C_1  and  C_10
    2  A    between atoms: C_2  and  C_24
    3  A    between atoms: C_2  and  C_32
    4  A    between atoms: C_3  and  N_40
    5  A    between atoms: C_5  and  C_26
    6  A    between atoms: C_5  and  N_30
    7  A    between atoms: C_6  and  C_36
    8  A    between atoms: C_6  and  N_38
    9  A    between atoms: C_7  and  N_8
   10  A    between atoms: C_7  and  C_26
   11  A    between atoms: N_8  and  C_27
   12  A    between atoms: C_10  and  N_30
   13  A    between atoms: C_14  and  C_36
   14  A    between atoms: C_15  and  N_40
   15  A    between atoms: C_19  and  C_22
   16  A    between atoms: N_21  and  C_24
   17  A    between atoms: C_22  and  N_30
                            x       y       z     vdW  Elec       q    Type
                         _______ _______ _______ _____ _____    ______ ____

>  <TORSDO>
F 17

$$$$
=
 OpenBabel11042419033D

 43 45  0  0  1  0  0  0  0  0999 V2000
  192.5380  171.7410  143.3690 N   0  0  0  0  0  0  0  0  0  0  0  0
  194.0700  170.9140  144.9090 O   0  0  0  0  0  0  0  0  0  0  0  0
  193.8160  171.1830  143.7110 C   0  0  0  0  0  0  0  0  0  0  0  0
  190.9790  173.0270  140.3310 C   0  0  0  0  0  2  0  0  0  0  0  0
  192.0890  173.0800  141.3600 C   0  0  0  0  0  2  0  0  0  0  0  0
  192.0500  171.7120  141.9840 C   0  0  2  0  0  3  0  0  0  0  0  0
  189.9660  172.0820  140.8040 N   0  0  0  0  0  0  0  0  0  0  0  0
  190.5990  171.2820  141.8540 C   0  0  0  0  0  2  0  0  0  0  0  0
  188.9090  172.8580  141.4400 C   0  0  0  0  0  2  0  0  0  0  0  0
  188.6520  174.1450  140.6820 C   0  0  0  0  0  2  0  0  0  0  0  0
  188.6610  175.3310  141.6320 C   0  0  1  0  0  3  0  0  0  0  0  0
  187.4450  176.1040  141.4680 N   0  0  0  0  0  1  0  0  0  0  0  0
  188.7540  174.8280  143.0530 C   0  0  0  0  0  1  0  0  0  0  0  0
  191.6810  172.2250  144.4600 C   0  0  0  0  0  2  0  0  0  0  0  0
  192.4020  173.2960  145.2670 C   0  0  0  0  0  2  0  0  0  0  0  0
  192.1540  174.6460  144.6480 C   0  0  0  0  0  2  0  0  0  0  0  0
  193.0170  175.6440  145.2660 N   0  0  0  0  0  0  0  0  0  0  0  0
  192.9380  176.9070  144.5210 C   0  0  0  0  0  2  0  0  0  0  0  0
  192.1540  176.7940  143.2120 C   0  0  0  0  0  2  0  0  0  0  0  0
  191.1130  177.8920  143.1440 C   0  0  0  0  0  1  0  0  0  0  0  0
  192.5580  175.8520  146.6390 C   0  0  0  0  0  2  0  0  0  0  0  0
  191.2170  176.4400  146.6330 C   0  0  0  0  0  0  0  0  0  0  0  0
  190.1180  176.9350  146.6210 C   0  0  0  0  0  0  0  0  0  0  0  0
  188.8420  177.5080  146.6010 N   0  0  0  0  0  2  0  0  0  0  0  0
  187.7300  176.8300  145.9410 C   0  0  1  0  0  3  0  0  0  0  0  0
  186.9430  176.1170  146.8850 O   0  0  0  0  0  0  0  0  0  0  0  0
  187.4570  178.2860  143.9160 O   0  0  0  0  0  1  0  0  0  0  0  0
  186.1760  177.0380  147.6330 C   0  0  0  0  0  2  0  0  0  0  0  0
  184.4380  178.6660  147.4250 O   0  0  0  0  0  1  0  0  0  0  0  0
  186.9220  177.7900  145.0950 C   0  0  0  0  0  0  0  0  0  0  0  0
  185.7180  178.1990  145.4930 C   0  0  0  0  0  3  0  0  0  0  0  0
  185.0970  177.6480  146.7390 C   0  0  1  0  0  3  0  0  0  0  0  0
  194.9100  170.9940  142.7020 C   0  0  0  0  0  2  0  0  0  0  0  0
  195.9400  172.1250  142.6670 C   0  0  0  0  0  2  0  0  0  0  0  0
  195.9750  174.1920  145.8840 O   0  0  0  0  0  0  0  0  0  0  0  0
  196.7150  175.2470  142.5190 C   0  0  2  0  0  3  0  0  0  0  0  0
  195.5710  173.3560  143.3960 N   0  0  0  0  0  0  0  0  0  0  0  0
  195.1160  174.1330  141.2940 F   0  0  0  0  0  0  0  0  0  0  0  0
  197.4230  175.1800  143.8630 C   0  0  0  0  0  2  0  0  0  0  0  0
  196.4310  176.7000  142.1780 C   0  0  0  0  0  1  0  0  0  0  0  0
  196.6970  173.7900  144.6260 S   0  0  0  0  0  0  0  0  0  0  0  0
  195.4490  174.4940  142.5590 N   0  0  0  0  0  0  0  0  0  0  0  0
  197.6890  172.7010  144.9130 O   0  0  0  0  0  0  0  0  0  0  0  0
  1  3  1  0  0  0  0
  1 14  1  0  0  0  0
  3  2  2  0  0  0  0
  4  7  1  0  0  0  0
  4  5  1  0  0  0  0
  5  6  1  0  0  0  0
  6  1  1  1  0  0  0
  7  9  1  0  0  0  0
  7  8  1  0  0  0  0
  8  6  1  0  0  0  0
 10  9  1  0  0  0  0
 10 11  1  0  0  0  0
 11 13  1  1  0  0  0
 12 11  1  0  0  0  0
 14 15  1  0  0  0  0
 16 17  1  0  0  0  0
 16 15  1  0  0  0  0
 17 21  1  0  0  0  0
 18 17  1  0  0  0  0
 19 18  1  0  0  0  0
 20 19  1  0  0  0  0
 22 21  1  0  0  0  0
 23 22  3  0  0  0  0
 24 23  1  0  0  0  0
 25 24  1  1  0  0  0
 25 26  1  0  0  0  0
 26 28  1  0  0  0  0
 27 30  1  0  0  0  0
 30 31  2  0  0  0  0
 30 25  1  0  0  0  0
 31 32  1  0  0  0  0
 32 29  1  1  0  0  0
 32 28  1  0  0  0  0
 33  3  1  0  0  0  0
 34 33  1  0  0  0  0
 34 37  1  0  0  0  0
 36 40  1  1  0  0  0
 36 42  1  0  0  0  0
 36 39  1  0  0  0  0
 37 41  1  0  0  0  0
 38 42  1  0  0  0  0
 39 41  1  0  0  0  0
 41 43  2  0  0  0  0
 41 35  2  0  0  0  0
 42 37  1  0  0  0  0
M  END
>  <MODEL>
5

>  <REMARK>
 VINA RESULT:      -6.1      3.208      7.441
  Name = 
  17 active torsions:
  status: ('A' for Active; 'I' for Inactive)
    1  A    between atoms: C_1  and  C_10
    2  A    between atoms: C_2  and  C_24
    3  A    between atoms: C_2  and  C_32
    4  A    between atoms: C_3  and  N_40
    5  A    between atoms: C_5  and  C_26
    6  A    between atoms: C_5  and  N_30
    7  A    between atoms: C_6  and  C_36
    8  A    between atoms: C_6  and  N_38
    9  A    between atoms: C_7  and  N_8
   10  A    between atoms: C_7  and  C_26
   11  A    between atoms: N_8  and  C_27
   12  A    between atoms: C_10  and  N_30
   13  A    between atoms: C_14  and  C_36
   14  A    between atoms: C_15  and  N_40
   15  A    between atoms: C_19  and  C_22
   16  A    between atoms: N_21  and  C_24
   17  A    between atoms: C_22  and  N_30
                            x       y       z     vdW  Elec       q    Type
                         _______ _______ _______ _____ _____    ______ ____

>  <TORSDO>
F 17

$$$$
=
 OpenBabel11042419033D

 43 45  0  0  1  0  0  0  0  0999 V2000
  191.3390  175.7380  144.3100 N   0  0  0  0  0  0  0  0  0  0  0  0
  192.7660  176.7450  142.7770 O   0  0  0  0  0  0  0  0  0  0  0  0
  192.5140  176.4930  143.9790 C   0  0  0  0  0  0  0  0  0  0  0  0
  188.8350  175.3180  146.9310 C   0  0  0  0  0  2  0  0  0  0  0  0
  189.6990  174.7290  145.8360 C   0  0  0  0  0  2  0  0  0  0  0  0
  190.7960  175.7460  145.6750 C   0  0  2  0  0  3  0  0  0  0  0  0
  188.9610  176.7760  146.8760 N   0  0  0  0  0  0  0  0  0  0  0  0
  190.1490  177.0620  146.0700 C   0  0  0  0  0  2  0  0  0  0  0  0
  187.8140  177.2830  146.1330 C   0  0  0  0  0  2  0  0  0  0  0  0
  186.5150  176.8320  146.7690 C   0  0  0  0  0  2  0  0  0  0  0  0
  185.3880  177.7860  146.4100 C   0  0  1  0  0  3  0  0  0  0  0  0
  184.7690  178.2980  147.6180 N   0  0  0  0  0  1  0  0  0  0  0  0
  185.9480  178.9320  145.6020 C   0  0  0  0  0  1  0  0  0  0  0  0
  190.6220  175.0610  143.2200 C   0  0  0  0  0  2  0  0  0  0  0  0
  190.9770  173.5800  143.1900 C   0  0  0  0  0  2  0  0  0  0  0  0
  190.1780  172.8920  142.1160 C   0  0  0  0  0  2  0  0  0  0  0  0
  191.0650  172.4200  141.0600 N   0  0  0  0  0  0  0  0  0  0  0  0
  191.3170  170.9820  141.2200 C   0  0  0  0  0  2  0  0  0  0  0  0
  192.7370  170.6600  141.6910 C   0  0  0  0  0  2  0  0  0  0  0  0
  193.7130  171.6390  141.0730 C   0  0  0  0  0  1  0  0  0  0  0  0
  190.4120  172.6660  139.7760 C   0  0  0  0  0  2  0  0  0  0  0  0
  189.3920  173.7050  139.9260 C   0  0  0  0  0  0  0  0  0  0  0  0
  188.5420  174.5510  140.0530 C   0  0  0  0  0  0  0  0  0  0  0  0
  187.5560  175.5310  140.2070 N   0  0  0  0  0  2  0  0  0  0  0  0
  187.7030  176.5870  141.2050 C   0  0  1  0  0  3  0  0  0  0  0  0
  187.3610  177.8520  140.6550 O   0  0  0  0  0  0  0  0  0  0  0  0
  187.3960  175.2560  143.3100 O   0  0  0  0  0  1  0  0  0  0  0  0
  185.9580  177.9280  140.5170 C   0  0  0  0  0  2  0  0  0  0  0  0
  183.9250  177.9340  141.7760 O   0  0  0  0  0  1  0  0  0  0  0  0
  186.9390  176.2590  142.4700 C   0  0  0  0  0  0  0  0  0  0  0  0
  185.8060  176.8970  142.7640 C   0  0  0  0  0  3  0  0  0  0  0  0
  185.3110  178.0130  141.8980 C   0  0  1  0  0  3  0  0  0  0  0  0
  193.5170  176.9160  145.0110 C   0  0  0  0  0  2  0  0  0  0  0  0
  194.5530  175.8460  145.3630 C   0  0  0  0  0  2  0  0  0  0  0  0
  195.9780  174.3640  142.1400 O   0  0  0  0  0  0  0  0  0  0  0  0
  195.7780  172.8690  145.4120 C   0  0  2  0  0  3  0  0  0  0  0  0
  194.6590  174.7160  144.4170 N   0  0  0  0  0  0  0  0  0  0  0  0
  193.7010  173.5490  146.1350 F   0  0  0  0  0  0  0  0  0  0  0  0
  196.8540  173.2480  144.4080 C   0  0  0  0  0  2  0  0  0  0  0  0
  195.6610  171.3550  145.4680 C   0  0  0  0  0  1  0  0  0  0  0  0
  196.1770  174.6410  143.6060 S   0  0  0  0  0  0  0  0  0  0  0  0
  194.4780  173.4490  145.0280 N   0  0  0  0  0  0  0  0  0  0  0  0
  197.0000  175.8800  143.8000 O   0  0  0  0  0  0  0  0  0  0  0  0
  2  3  2  0  0  0  0
  3  1  1  0  0  0  0
  3 33  1  0  0  0  0
  5  4  1  0  0  0  0
  6  1  1  6  0  0  0
  6  5  1  0  0  0  0
  6  8  1  0  0  0  0
  7  4  1  0  0  0  0
  8  7  1  0  0  0  0
  9 10  1  0  0  0  0
  9  7  1  0  0  0  0
 11 13  1  1  0  0  0
 11 10  1  0  0  0  0
 11 12  1  0  0  0  0
 14  1  1  0  0  0  0
 15 14  1  0  0  0  0
 16 15  1  0  0  0  0
 17 18  1  0  0  0  0
 17 16  1  0  0  0  0
 18 19  1  0  0  0  0
 20 19  1  0  0  0  0
 21 22  1  0  0  0  0
 21 17  1  0  0  0  0
 22 23  3  0  0  0  0
 23 24  1  0  0  0  0
 25 24  1  6  0  0  0
 25 30  1  0  0  0  0
 26 25  1  0  0  0  0
 28 26  1  0  0  0  0
 28 32  1  0  0  0  0
 30 31  2  0  0  0  0
 30 27  1  0  0  0  0
 32 29  1  6  0  0  0
 32 31  1  0  0  0  0
 33 34  1  0  0  0  0
 35 41  2  0  0  0  0
 36 40  1  6  0  0  0
 37 42  1  0  0  0  0
 37 34  1  0  0  0  0
 39 36  1  0  0  0  0
 41 43  2  0  0  0  0
 41 39  1  0  0  0  0
 41 37  1  0  0  0  0
 42 36  1  0  0  0  0
 42 38  1  0  0  0  0
M  END
>  <MODEL>
6

>  <REMARK>
 VINA RESULT:      -6.0      3.007      7.811
  Name = 
  17 active torsions:
  status: ('A' for Active; 'I' for Inactive)
    1  A    between atoms: C_1  and  C_10
    2  A    between atoms: C_2  and  C_24
    3  A    between atoms: C_2  and  C_32
    4  A    between atoms: C_3  and  N_40
    5  A    between atoms: C_5  and  C_26
    6  A    between atoms: C_5  and  N_30
    7  A    between atoms: C_6  and  C_36
    8  A    between atoms: C_6  and  N_38
    9  A    between atoms: C_7  and  N_8
   10  A    between atoms: C_7  and  C_26
   11  A    between atoms: N_8  and  C_27
   12  A    between atoms: C_10  and  N_30
   13  A    between atoms: C_14  and  C_36
   14  A    between atoms: C_15  and  N_40
   15  A    between atoms: C_19  and  C_22
   16  A    between atoms: N_21  and  C_24
   17  A    between atoms: C_22  and  N_30
                            x       y       z     vdW  Elec       q    Type
                         _______ _______ _______ _____ _____    ______ ____

>  <TORSDO>
F 17

$$$$
=
 OpenBabel11042419033D

 43 45  0  0  1  0  0  0  0  0999 V2000
  191.3690  174.9120  145.8010 N   0  0  0  0  0  0  0  0  0  0  0  0
  189.3350  173.9320  146.3530 O   0  0  0  0  0  0  0  0  0  0  0  0
  190.0970  174.9210  146.4670 C   0  0  0  0  0  0  0  0  0  0  0  0
  194.2060  177.1620  145.3490 C   0  0  0  0  0  2  0  0  0  0  0  0
  192.7530  176.8180  145.1020 C   0  0  0  0  0  2  0  0  0  0  0  0
  192.4350  175.8400  146.2000 C   0  0  2  0  0  3  0  0  0  0  0  0
  194.8430  176.0110  145.9900 N   0  0  0  0  0  0  0  0  0  0  0  0
  193.7620  175.1610  146.4920 C   0  0  0  0  0  2  0  0  0  0  0  0
  195.5270  175.2560  144.9480 C   0  0  0  0  0  2  0  0  0  0  0  0
  196.1760  176.1860  143.9430 C   0  0  0  0  0  2  0  0  0  0  0  0
  196.0280  175.6340  142.5360 C   0  0  1  0  0  3  0  0  0  0  0  0
  194.8080  174.8550  142.4370 N   0  0  0  0  0  1  0  0  0  0  0  0
  195.9770  176.7810  141.5550 C   0  0  0  0  0  1  0  0  0  0  0  0
  191.6170  173.8670  144.7980 C   0  0  0  0  0  2  0  0  0  0  0  0
  190.8860  174.1910  143.5010 C   0  0  0  0  0  2  0  0  0  0  0  0
  191.5040  173.4170  142.3680 C   0  0  0  0  0  2  0  0  0  0  0  0
  190.4740  172.6750  141.6510 N   0  0  0  0  0  0  0  0  0  0  0  0
  190.0190  173.4460  140.4870 C   0  0  0  0  0  2  0  0  0  0  0  0
  188.5600  173.8990  140.5890 C   0  0  0  0  0  2  0  0  0  0  0  0
  187.8600  173.1210  141.6830 C   0  0  0  0  0  1  0  0  0  0  0  0
  191.0530  171.4080  141.2080 C   0  0  0  0  0  2  0  0  0  0  0  0
  192.2670  171.1200  141.9740 C   0  0  0  0  0  0  0  0  0  0  0  0
  193.2610  170.8890  142.6160 C   0  0  0  0  0  0  0  0  0  0  0  0
  194.4120  170.6160  143.3640 N   0  0  0  0  0  2  0  0  0  0  0  0
  194.8570  171.5340  144.4090 C   0  0  1  0  0  3  0  0  0  0  0  0
  194.3220  171.1580  145.6710 O   0  0  0  0  0  0  0  0  0  0  0  0
  196.9970  172.3630  143.3950 O   0  0  0  0  0  1  0  0  0  0  0  0
  195.0040  170.0110  146.1350 C   0  0  0  0  0  2  0  0  0  0  0  0
  197.1570  169.2330  146.8230 O   0  0  0  0  0  1  0  0  0  0  0  0
  196.3640  171.6720  144.4170 C   0  0  0  0  0  0  0  0  0  0  0  0
  197.0940  171.0990  145.3730 C   0  0  0  0  0  3  0  0  0  0  0  0
  196.4360  170.3840  146.5120 C   0  0  1  0  0  3  0  0  0  0  0  0
  189.5900  176.1140  147.2220 C   0  0  0  0  0  2  0  0  0  0  0  0
  188.9230  177.1800  146.3480 C   0  0  0  0  0  2  0  0  0  0  0  0
  185.1290  176.7500  146.5440 O   0  0  0  0  0  0  0  0  0  0  0  0
  187.0950  178.2560  143.9270 C   0  0  2  0  0  3  0  0  0  0  0  0
  187.6500  176.7850  145.7110 N   0  0  0  0  0  0  0  0  0  0  0  0
  188.9080  176.8440  143.8030 F   0  0  0  0  0  0  0  0  0  0  0  0
  185.9890  178.6650  144.8850 C   0  0  0  0  0  2  0  0  0  0  0  0
  186.5310  178.1850  142.5180 C   0  0  0  0  0  1  0  0  0  0  0  0
  186.2900  177.6730  146.2880 S   0  0  0  0  0  0  0  0  0  0  0  0
  187.6510  176.9440  144.3020 N   0  0  0  0  0  0  0  0  0  0  0  0
  186.6020  178.4790  147.5140 O   0  0  0  0  0  0  0  0  0  0  0  0
  1  3  1  0  0  0  0
  2  3  2  0  0  0  0
  3 33  1  0  0  0  0
  4  7  1  0  0  0  0
  5  4  1  0  0  0  0
  5  6  1  0  0  0  0
  6  1  1  6  0  0  0
  6  8  1  0  0  0  0
  7  8  1  0  0  0  0
  9  7  1  0  0  0  0
 10  9  1  0  0  0  0
 11 13  1  6  0  0  0
 11 10  1  0  0  0  0
 12 11  1  0  0  0  0
 14  1  1  0  0  0  0
 15 14  1  0  0  0  0
 16 15  1  0  0  0  0
 17 16  1  0  0  0  0
 18 19  1  0  0  0  0
 18 17  1  0  0  0  0
 19 20  1  0  0  0  0
 21 17  1  0  0  0  0
 21 22  1  0  0  0  0
 22 23  3  0  0  0  0
 23 24  1  0  0  0  0
 25 24  1  6  0  0  0
 25 30  1  0  0  0  0
 25 26  1  0  0  0  0
 26 28  1  0  0  0  0
 27 30  1  0  0  0  0
 28 32  1  0  0  0  0
 30 31  2  0  0  0  0
 31 32  1  0  0  0  0
 32 29  1  6  0  0  0
 34 33  1  0  0  0  0
 36 40  1  6  0  0  0
 36 42  1  0  0  0  0
 36 39  1  0  0  0  0
 37 41  1  0  0  0  0
 37 34  1  0  0  0  0
 38 42  1  0  0  0  0
 39 41  1  0  0  0  0
 41 35  2  0  0  0  0
 41 43  2  0  0  0  0
 42 37  1  0  0  0  0
M  END
>  <MODEL>
7

>  <REMARK>
 VINA RESULT:      -5.9      3.302      7.421
  Name = 
  17 active torsions:
  status: ('A' for Active; 'I' for Inactive)
    1  A    between atoms: C_1  and  C_10
    2  A    between atoms: C_2  and  C_24
    3  A    between atoms: C_2  and  C_32
    4  A    between atoms: C_3  and  N_40
    5  A    between atoms: C_5  and  C_26
    6  A    between atoms: C_5  and  N_30
    7  A    between atoms: C_6  and  C_36
    8  A    between atoms: C_6  and  N_38
    9  A    between atoms: C_7  and  N_8
   10  A    between atoms: C_7  and  C_26
   11  A    between atoms: N_8  and  C_27
   12  A    between atoms: C_10  and  N_30
   13  A    between atoms: C_14  and  C_36
   14  A    between atoms: C_15  and  N_40
   15  A    between atoms: C_19  and  C_22
   16  A    between atoms: N_21  and  C_24
   17  A    between atoms: C_22  and  N_30
                            x       y       z     vdW  Elec       q    Type
                         _______ _______ _______ _____ _____    ______ ____

>  <TORSDO>
F 17

$$$$
=
 OpenBabel11042419033D

 43 45  0  0  1  0  0  0  0  0999 V2000
  194.5070  173.4610  143.3290 N   0  0  0  0  0  0  0  0  0  0  0  0
  194.5110  175.7250  142.8060 O   0  0  0  0  0  0  0  0  0  0  0  0
  194.2490  174.5560  142.4370 C   0  0  0  0  0  0  0  0  0  0  0  0
  194.1450  169.8310  143.4100 C   0  0  0  0  0  2  0  0  0  0  0  0
  193.5250  171.2120  143.4410 C   0  0  0  0  0  2  0  0  0  0  0  0
  194.5870  172.0830  142.8270 C   0  0  2  0  0  3  0  0  0  0  0  0
  195.5990  169.9830  143.4890 N   0  0  0  0  0  0  0  0  0  0  0  0
  195.8910  171.3810  143.1670 C   0  0  0  0  0  2  0  0  0  0  0  0
  195.9840  169.7790  144.8800 C   0  0  0  0  0  2  0  0  0  0  0  0
  195.4890  168.4400  145.3880 C   0  0  0  0  0  2  0  0  0  0  0  0
  195.8050  168.2840  146.8660 C   0  0  1  0  0  3  0  0  0  0  0  0
  196.8140  169.2480  147.2600 N   0  0  0  0  0  1  0  0  0  0  0  0
  194.5460  168.5110  147.6690 C   0  0  0  0  0  1  0  0  0  0  0  0
  194.8150  173.7690  144.7320 C   0  0  0  0  0  2  0  0  0  0  0  0
  193.5300  173.9240  145.5360 C   0  0  0  0  0  2  0  0  0  0  0  0
  193.4600  175.3140  146.1100 C   0  0  0  0  0  2  0  0  0  0  0  0
  192.1690  175.9160  145.8010 N   0  0  0  0  0  0  0  0  0  0  0  0
  191.5130  176.3620  147.0370 C   0  0  0  0  0  2  0  0  0  0  0  0
  190.6080  175.2990  147.6650 C   0  0  0  0  0  2  0  0  0  0  0  0
  189.4600  174.9890  146.7270 C   0  0  0  0  0  1  0  0  0  0  0  0
  192.4020  177.0630  144.9250 C   0  0  0  0  0  2  0  0  0  0  0  0
  191.2090  177.3250  144.1180 C   0  0  0  0  0  0  0  0  0  0  0  0
  190.2180  177.5390  143.4650 C   0  0  0  0  0  0  0  0  0  0  0  0
  189.0680  177.7940  142.7100 N   0  0  0  0  0  2  0  0  0  0  0  0
  188.0850  176.7410  142.4690 C   0  0  1  0  0  3  0  0  0  0  0  0
  187.6770  176.1430  143.6920 O   0  0  0  0  0  0  0  0  0  0  0  0
  187.1150  177.5250  140.2920 O   0  0  0  0  0  1  0  0  0  0  0  0
  186.8220  177.0350  144.3770 C   0  0  0  0  0  2  0  0  0  0  0  0
  184.7050  178.1320  144.2150 O   0  0  0  0  0  1  0  0  0  0  0  0
  186.9270  177.2480  141.6370 C   0  0  0  0  0  0  0  0  0  0  0  0
  185.7370  177.4720  142.1940 C   0  0  0  0  0  3  0  0  0  0  0  0
  185.4930  177.1410  143.6330 C   0  0  1  0  0  3  0  0  0  0  0  0
  193.5820  174.3720  141.1060 C   0  0  0  0  0  2  0  0  0  0  0  0
  192.0560  174.4840  141.1420 C   0  0  0  0  0  2  0  0  0  0  0  0
  190.3210  171.5840  142.9290 O   0  0  0  0  0  0  0  0  0  0  0  0
  189.1610  173.5160  140.1170 C   0  0  2  0  0  3  0  0  0  0  0  0
  191.3140  173.2080  141.0790 N   0  0  0  0  0  0  0  0  0  0  0  0
  191.0820  173.7720  138.8750 F   0  0  0  0  0  0  0  0  0  0  0  0
  188.7130  173.2070  141.5360 C   0  0  0  0  0  2  0  0  0  0  0  0
  188.2340  172.8140  139.1400 C   0  0  0  0  0  1  0  0  0  0  0  0
  190.2180  172.9850  142.3890 S   0  0  0  0  0  0  0  0  0  0  0  0
  190.5450  173.0590  139.8960 N   0  0  0  0  0  0  0  0  0  0  0  0
  190.4170  173.9880  143.4880 O   0  0  0  0  0  0  0  0  0  0  0  0
  1 14  1  0  0  0  0
  3  2  2  0  0  0  0
  3  1  1  0  0  0  0
  4  5  1  0  0  0  0
  4  7  1  0  0  0  0
  6  8  1  0  0  0  0
  6  1  1  1  0  0  0
  6  5  1  0  0  0  0
  7  9  1  0  0  0  0
  8  7  1  0  0  0  0
  9 10  1  0  0  0  0
 10 11  1  0  0  0  0
 11 12  1  0  0  0  0
 11 13  1  1  0  0  0
 14 15  1  0  0  0  0
 15 16  1  0  0  0  0
 17 16  1  0  0  0  0
 17 18  1  0  0  0  0
 18 19  1  0  0  0  0
 20 19  1  0  0  0  0
 21 17  1  0  0  0  0
 22 21  1  0  0  0  0
 23 22  3  0  0  0  0
 24 23  1  0  0  0  0
 25 24  1  1  0  0  0
 25 26  1  0  0  0  0
 26 28  1  0  0  0  0
 27 30  1  0  0  0  0
 30 31  2  0  0  0  0
 30 25  1  0  0  0  0
 31 32  1  0  0  0  0
 32 29  1  1  0  0  0
 32 28  1  0  0  0  0
 33 34  1  0  0  0  0
 33  3  1  0  0  0  0
 36 40  1  6  0  0  0
 36 39  1  0  0  0  0
 37 34  1  0  0  0  0
 37 41  1  0  0  0  0
 38 42  1  0  0  0  0
 39 41  1  0  0  0  0
 41 35  2  0  0  0  0
 41 43  2  0  0  0  0
 42 36  1  0  0  0  0
 42 37  1  0  0  0  0
M  END
>  <MODEL>
8

>  <REMARK>
 VINA RESULT:      -5.9      3.151      8.404
  Name = 
  17 active torsions:
  status: ('A' for Active; 'I' for Inactive)
    1  A    between atoms: C_1  and  C_10
    2  A    between atoms: C_2  and  C_24
    3  A    between atoms: C_2  and  C_32
    4  A    between atoms: C_3  and  N_40
    5  A    between atoms: C_5  and  C_26
    6  A    between atoms: C_5  and  N_30
    7  A    between atoms: C_6  and  C_36
    8  A    between atoms: C_6  and  N_38
    9  A    between atoms: C_7  and  N_8
   10  A    between atoms: C_7  and  C_26
   11  A    between atoms: N_8  and  C_27
   12  A    between atoms: C_10  and  N_30
   13  A    between atoms: C_14  and  C_36
   14  A    between atoms: C_15  and  N_40
   15  A    between atoms: C_19  and  C_22
   16  A    between atoms: N_21  and  C_24
   17  A    between atoms: C_22  and  N_30
                            x       y       z     vdW  Elec       q    Type
                         _______ _______ _______ _____ _____    ______ ____

>  <TORSDO>
F 17

$$$$
=
 OpenBabel11042419033D

 43 45  0  0  1  0  0  0  0  0999 V2000
  188.9400  173.0560  141.3120 N   0  0  0  0  0  0  0  0  0  0  0  0
  188.7960  173.6420  139.0680 O   0  0  0  0  0  0  0  0  0  0  0  0
  189.2880  172.8770  139.9300 C   0  0  0  0  0  0  0  0  0  0  0  0
  189.8110  172.0430  144.7070 C   0  0  0  0  0  2  0  0  0  0  0  0
  188.9060  171.9370  143.4990 C   0  0  0  0  0  2  0  0  0  0  0  0
  189.7600  172.4650  142.3780 C   0  0  2  0  0  3  0  0  0  0  0  0
  190.7400  173.1520  144.4840 N   0  0  0  0  0  0  0  0  0  0  0  0
  190.6960  173.4530  143.0520 C   0  0  0  0  0  2  0  0  0  0  0  0
  190.2040  174.3160  145.1790 C   0  0  0  0  0  2  0  0  0  0  0  0
  191.1190  174.7400  146.3100 C   0  0  0  0  0  2  0  0  0  0  0  0
  190.3170  175.3840  147.4280 C   0  0  1  0  0  3  0  0  0  0  0  0
  190.7850  176.7390  147.6550 N   0  0  0  0  0  1  0  0  0  0  0  0
  188.8570  175.4120  147.0400 C   0  0  0  0  0  1  0  0  0  0  0  0
  187.8190  173.9500  141.6330 C   0  0  0  0  0  2  0  0  0  0  0  0
  188.3090  175.3860  141.7750 C   0  0  0  0  0  2  0  0  0  0  0  0
  187.8960  175.9290  143.1160 C   0  0  0  0  0  2  0  0  0  0  0  0
  187.8600  177.3850  143.0750 N   0  0  0  0  0  0  0  0  0  0  0  0
  186.4690  177.8510  143.0130 C   0  0  0  0  0  2  0  0  0  0  0  0
  185.9830  178.4930  144.3150 C   0  0  0  0  0  2  0  0  0  0  0  0
  185.1710  177.4890  145.1070 C   0  0  0  0  0  1  0  0  0  0  0  0
  188.4950  177.8890  144.2910 C   0  0  0  0  0  2  0  0  0  0  0  0
  189.9490  177.7550  144.1870 C   0  0  0  0  0  0  0  0  0  0  0  0
  191.1470  177.6560  144.0920 C   0  0  0  0  0  0  0  0  0  0  0  0
  192.5380  177.5470  143.9870 N   0  0  0  0  0  2  0  0  0  0  0  0
  193.1990  176.2550  144.1500 C   0  0  1  0  0  3  0  0  0  0  0  0
  193.3190  175.5890  142.9000 O   0  0  0  0  0  0  0  0  0  0  0  0
  194.5250  176.6910  146.2340 O   0  0  0  0  0  1  0  0  0  0  0  0
  194.3330  176.2160  142.1410 C   0  0  0  0  0  2  0  0  0  0  0  0
  196.6800  176.6680  142.1200 O   0  0  0  0  0  1  0  0  0  0  0  0
  194.5170  176.3980  144.8790 C   0  0  0  0  0  0  0  0  0  0  0  0
  195.6720  176.2870  144.2240 C   0  0  0  0  0  3  0  0  0  0  0  0
  195.6950  175.9290  142.7710 C   0  0  1  0  0  3  0  0  0  0  0  0
  190.1470  171.7430  139.4550 C   0  0  0  0  0  2  0  0  0  0  0  0
  191.5270  172.1650  138.9440 C   0  0  0  0  0  2  0  0  0  0  0  0
  193.6680  172.2230  142.1110 O   0  0  0  0  0  0  0  0  0  0  0  0
  194.3840  173.6470  138.8800 C   0  0  2  0  0  3  0  0  0  0  0  0
  192.3670  172.9140  139.9020 N   0  0  0  0  0  0  0  0  0  0  0  0
  192.3400  174.5020  138.2580 F   0  0  0  0  0  0  0  0  0  0  0  0
  194.9900  172.6160  139.8190 C   0  0  0  0  0  2  0  0  0  0  0  0
  195.2730  174.8790  138.8560 C   0  0  0  0  0  1  0  0  0  0  0  0
  193.5970  171.9530  140.6330 S   0  0  0  0  0  0  0  0  0  0  0  0
  193.0310  174.0250  139.3230 N   0  0  0  0  0  0  0  0  0  0  0  0
  193.4170  170.4860  140.3740 O   0  0  0  0  0  0  0  0  0  0  0  0
  1 14  1  0  0  0  0
  2  3  2  0  0  0  0
  3  1  1  0  0  0  0
  5  4  1  0  0  0  0
  6  1  1  6  0  0  0
  6  8  1  0  0  0  0
  6  5  1  0  0  0  0
  7  4  1  0  0  0  0
  7  9  1  0  0  0  0
  8  7  1  0  0  0  0
  9 10  1  0  0  0  0
 10 11  1  0  0  0  0
 11 13  1  6  0  0  0
 11 12  1  0  0  0  0
 14 15  1  0  0  0  0
 15 16  1  0  0  0  0
 17 16  1  0  0  0  0
 17 21  1  0  0  0  0
 18 17  1  0  0  0  0
 18 19  1  0  0  0  0
 19 20  1  0  0  0  0
 22 21  1  0  0  0  0
 23 22  3  0  0  0  0
 24 23  1  0  0  0  0
 25 24  1  6  0  0  0
 25 30  1  0  0  0  0
 26 25  1  0  0  0  0
 28 32  1  0  0  0  0
 28 26  1  0  0  0  0
 30 27  1  0  0  0  0
 31 30  2  0  0  0  0
 32 29  1  6  0  0  0
 32 31  1  0  0  0  0
 33  3  1  0  0  0  0
 34 33  1  0  0  0  0
 34 37  1  0  0  0  0
 36 40  1  1  0  0  0
 36 42  1  0  0  0  0
 36 39  1  0  0  0  0
 37 41  1  0  0  0  0
 38 42  1  0  0  0  0
 39 41  1  0  0  0  0
 41 35  2  0  0  0  0
 42 37  1  0  0  0  0
 43 41  2  0  0  0  0
M  END
>  <MODEL>
9

>  <REMARK>
 VINA RESULT:      -5.8      2.381      4.562
  Name = 
  17 active torsions:
  status: ('A' for Active; 'I' for Inactive)
    1  A    between atoms: C_1  and  C_10
    2  A    between atoms: C_2  and  C_24
    3  A    between atoms: C_2  and  C_32
    4  A    between atoms: C_3  and  N_40
    5  A    between atoms: C_5  and  C_26
    6  A    between atoms: C_5  and  N_30
    7  A    between atoms: C_6  and  C_36
    8  A    between atoms: C_6  and  N_38
    9  A    between atoms: C_7  and  N_8
   10  A    between atoms: C_7  and  C_26
   11  A    between atoms: N_8  and  C_27
   12  A    between atoms: C_10  and  N_30
   13  A    between atoms: C_14  and  C_36
   14  A    between atoms: C_15  and  N_40
   15  A    between atoms: C_19  and  C_22
   16  A    between atoms: N_21  and  C_24
   17  A    between atoms: C_22  and  N_30
                            x       y       z     vdW  Elec       q    Type
                         _______ _______ _______ _____ _____    ______ ____

>  <TORSDO>
F 17

$$$$
