=
 OpenBabel11042414233D

 27 30  0  0  1  0  0  0  0  0999 V2000
  189.1510  177.3240  145.0190 C   0  0  2  0  0  3  0  0  0  0  0  0
  191.5550  177.4480  144.5050 C   0  0  0  0  0  2  0  0  0  0  0  0
  191.8070  176.1530  145.2230 C   0  0  0  0  0  0  0  0  0  0  0  0
  190.1770  177.4230  143.8920 C   0  0  0  0  0  2  0  0  0  0  0  0
  189.3450  176.1300  145.9790 C   0  0  2  0  0  3  0  0  0  0  0  0
  190.7150  175.5760  146.1060 C   0  0  1  0  0  3  0  0  0  0  0  0
  189.7130  174.9030  145.2560 N   0  0  0  0  0  2  0  0  0  0  0  0
  192.9930  175.5060  145.0920 C   0  0  0  0  0  0  0  0  0  0  0  0
  193.2180  174.2080  145.8480 C   0  0  1  0  0  3  0  0  0  0  0  0
  193.0460  173.1230  144.9950 C   0  0  0  0  0  0  0  0  0  0  0  0
  192.1120  172.1280  144.1020 S   0  0  0  0  0  0  0  0  0  0  0  0
  194.4180  173.5800  145.5000 N   0  0  0  0  0  2  0  0  0  0  0  0
  194.9690  176.8190  144.8290 O   0  0  0  0  0  0  0  0  0  0  0  0
  194.1780  175.8370  142.8810 N   0  0  0  0  0  1  0  0  0  0  0  0
  194.0950  176.0920  144.2820 C   0  0  0  0  0  0  0  0  0  0  0  0
  187.6950  177.4280  144.5370 C   0  0  2  0  0  3  0  0  0  0  0  0
  185.4560  177.7020  145.4970 N   0  0  0  0  0  2  0  0  0  0  0  0
  186.6740  176.8780  145.5330 C   0  0  2  0  0  3  0  0  0  0  0  0
  186.4250  177.8530  146.5920 C   0  0  2  0  0  3  0  0  0  0  0  0
  185.9490  177.1910  147.7220 O   0  0  0  0  0  1  0  0  0  0  0  0
  187.3770  175.6220  143.0620 O   0  0  0  0  0  0  0  0  0  0  0  0
  187.4950  176.8340  143.1710 C   0  0  0  0  0  0  0  0  0  0  0  0
  185.9710  178.4120  141.6650 C   0  0  0  0  0  2  0  0  0  0  0  0
  187.4810  177.8430  141.6970 S   0  0  0  0  0  0  0  0  0  0  0  0
  185.1030  178.1560  140.4810 C   0  0  0  0  0  2  0  0  0  0  0  0
  183.7080  178.2060  140.8820 N   0  0  0  0  0  2  0  0  0  0  0  0
  183.6930  178.2300  142.3340 C   0  0  0  0  0  1  0  0  0  0  0  0
  1 16  1  6  0  0  0
  1  5  1  0  0  0  0
  2  3  1  0  0  0  0
  4  2  1  0  0  0  0
  4  1  1  0  0  0  0
  5  7  1  6  0  0  0
  5  6  1  0  0  0  0
  6  3  1  6  0  0  0
  7  6  1  0  0  0  0
  8  3  2  0  0  0  0
  9  8  1  6  0  0  0
 10 12  1  0  0  0  0
 10  9  1  0  0  0  0
 11 10  2  0  0  0  0
 12  9  1  0  0  0  0
 14 15  1  0  0  0  0
 15 13  2  0  0  0  0
 15  8  1  0  0  0  0
 16 22  1  6  0  0  0
 17 18  1  0  0  0  0
 17 19  1  0  0  0  0
 18 16  1  6  0  0  0
 18 19  1  0  0  0  0
 19 20  1  1  0  0  0
 21 22  2  0  0  0  0
 23 24  1  0  0  0  0
 24 22  1  0  0  0  0
 25 26  1  0  0  0  0
 25 23  1  0  0  0  0
 26 27  1  0  0  0  0
M  END
>  <MODEL>
1

>  <REMARK>
 VINA RESULT:      -6.1      0.000      0.000
  Name = 
  8 active torsions:
  status: ('A' for Active; 'I' for Inactive)
    1  A    between atoms: C_1  and  C_24
    2  A    between atoms: C_2  and  C_17
    3  A    between atoms: C_3  and  C_10
    4  A    between atoms: C_10  and  CA_16
    5  A    between atoms: C_10  and  C_25
    6  A    between atoms: S_13  and  C_25
    7  A    between atoms: N_14  and  C_17
    8  A    between atoms: C_24  and  C_27
                            x       y       z     vdW  Elec       q    Type
                         _______ _______ _______ _____ _____    ______ ____

>  <TORSDO>
F 8

$$$$
=
 OpenBabel11042414233D

 27 30  0  0  1  0  0  0  0  0999 V2000
  190.4050  175.9970  145.8480 C   0  0  2  0  0  3  0  0  0  0  0  0
  188.2140  176.4990  146.8510 C   0  0  0  0  0  2  0  0  0  0  0  0
  187.8890  177.4550  145.7400 C   0  0  0  0  0  0  0  0  0  0  0  0
  189.0860  175.3880  146.3200 C   0  0  0  0  0  2  0  0  0  0  0  0
  190.2680  177.1310  144.8080 C   0  0  2  0  0  3  0  0  0  0  0  0
  188.9960  177.8940  144.7990 C   0  0  1  0  0  3  0  0  0  0  0  0
  189.2350  176.8300  143.8050 N   0  0  0  0  0  2  0  0  0  0  0  0
  186.6260  177.9260  145.5770 C   0  0  0  0  0  0  0  0  0  0  0  0
  186.3390  178.9060  144.4530 C   0  0  1  0  0  3  0  0  0  0  0  0
  185.7730  178.2390  143.3720 C   0  0  0  0  0  0  0  0  0  0  0  0
  185.8630  177.2210  142.1000 S   0  0  0  0  0  0  0  0  0  0  0  0
  184.9730  179.1640  144.2950 N   0  0  0  0  0  2  0  0  0  0  0  0
  184.8830  176.4950  146.3590 O   0  0  0  0  0  0  0  0  0  0  0  0
  185.2500  178.3890  147.6490 N   0  0  0  0  0  1  0  0  0  0  0  0
  185.5460  177.5550  146.5300 C   0  0  0  0  0  0  0  0  0  0  0  0
  191.4420  174.9520  145.4080 C   0  0  2  0  0  3  0  0  0  0  0  0
  193.7860  174.6680  146.0670 N   0  0  0  0  0  2  0  0  0  0  0  0
  192.8620  175.5050  145.2860 C   0  0  2  0  0  3  0  0  0  0  0  0
  193.3370  175.9680  146.5870 C   0  0  2  0  0  3  0  0  0  0  0  0
  194.3450  176.9120  146.3980 O   0  0  0  0  0  1  0  0  0  0  0  0
  191.5140  174.5680  143.0870 O   0  0  0  0  0  0  0  0  0  0  0  0
  191.0340  174.2240  144.1580 C   0  0  0  0  0  0  0  0  0  0  0  0
  189.6460  172.5530  142.6210 C   0  0  0  0  0  2  0  0  0  0  0  0
  189.8280  172.9070  144.1850 S   0  0  0  0  0  0  0  0  0  0  0  0
  188.2980  172.6350  141.9910 C   0  0  0  0  0  2  0  0  0  0  0  0
  187.8400  174.0130  142.0030 N   0  0  0  0  0  2  0  0  0  0  0  0
  188.5000  174.6810  140.8960 C   0  0  0  0  0  1  0  0  0  0  0  0
  1 16  1  6  0  0  0
  1  4  1  0  0  0  0
  3  2  1  0  0  0  0
  4  2  1  0  0  0  0
  5  7  1  6  0  0  0
  5  1  1  0  0  0  0
  6  7  1  6  0  0  0
  6  5  1  0  0  0  0
  6  3  1  0  0  0  0
  8  3  2  0  0  0  0
  8 15  1  0  0  0  0
  9  8  1  1  0  0  0
 10 12  1  0  0  0  0
 10  9  1  0  0  0  0
 11 10  2  0  0  0  0
 12  9  1  0  0  0  0
 13 15  2  0  0  0  0
 15 14  1  0  0  0  0
 16 22  1  6  0  0  0
 17 19  1  0  0  0  0
 18 16  1  1  0  0  0
 18 17  1  0  0  0  0
 18 19  1  0  0  0  0
 19 20  1  6  0  0  0
 21 22  2  0  0  0  0
 22 24  1  0  0  0  0
 23 24  1  0  0  0  0
 25 26  1  0  0  0  0
 25 23  1  0  0  0  0
 27 26  1  0  0  0  0
M  END
>  <MODEL>
2

>  <REMARK>
 VINA RESULT:      -6.0      2.260      6.823
  Name = 
  8 active torsions:
  status: ('A' for Active; 'I' for Inactive)
    1  A    between atoms: C_1  and  C_24
    2  A    between atoms: C_2  and  C_17
    3  A    between atoms: C_3  and  C_10
    4  A    between atoms: C_10  and  CA_16
    5  A    between atoms: C_10  and  C_25
    6  A    between atoms: S_13  and  C_25
    7  A    between atoms: N_14  and  C_17
    8  A    between atoms: C_24  and  C_27
                            x       y       z     vdW  Elec       q    Type
                         _______ _______ _______ _____ _____    ______ ____

>  <TORSDO>
F 8

$$$$
=
 OpenBabel11042414233D

 27 30  0  0  1  0  0  0  0  0999 V2000
  189.8900  175.9140  144.1830 C   0  0  2  0  0  3  0  0  0  0  0  0
  188.1750  176.5730  145.8210 C   0  0  0  0  0  2  0  0  0  0  0  0
  187.6560  177.6360  144.8970 C   0  0  0  0  0  0  0  0  0  0  0  0
  188.7060  175.4160  145.0110 C   0  0  0  0  0  2  0  0  0  0  0  0
  189.5930  177.1280  143.2770 C   0  0  2  0  0  3  0  0  0  0  0  0
  188.4800  178.0210  143.6810 C   0  0  1  0  0  3  0  0  0  0  0  0
  188.2790  177.0120  142.6230 N   0  0  0  0  0  2  0  0  0  0  0  0
  186.4700  178.2500  145.1410 C   0  0  0  0  0  0  0  0  0  0  0  0
  185.9860  179.3330  144.1930 C   0  0  1  0  0  3  0  0  0  0  0  0
  185.0590  178.8070  143.3000 C   0  0  0  0  0  0  0  0  0  0  0  0
  184.6620  177.8810  142.0170 S   0  0  0  0  0  0  0  0  0  0  0  0
  184.6720  179.7340  144.4560 N   0  0  0  0  0  2  0  0  0  0  0  0
  184.8640  176.9690  146.3580 O   0  0  0  0  0  0  0  0  0  0  0  0
  185.8490  178.6970  147.5530 N   0  0  0  0  0  1  0  0  0  0  0  0
  185.6840  177.9280  146.3630 C   0  0  0  0  0  0  0  0  0  0  0  0
  190.6130  174.7980  143.4120 C   0  0  2  0  0  3  0  0  0  0  0  0
  190.2620  172.7840  142.0610 N   0  0  0  0  0  2  0  0  0  0  0  0
  189.7770  173.5320  143.2300 C   0  0  2  0  0  3  0  0  0  0  0  0
  189.0360  173.5910  141.9730 C   0  0  2  0  0  3  0  0  0  0  0  0
  187.9260  172.7520  142.0550 O   0  0  0  0  0  1  0  0  0  0  0  0
  192.0300  173.9460  145.0870 O   0  0  0  0  0  0  0  0  0  0  0  0
  191.9650  174.4800  143.9880 C   0  0  0  0  0  0  0  0  0  0  0  0
  194.5240  175.1110  144.3490 C   0  0  0  0  0  2  0  0  0  0  0  0
  193.4770  174.9070  143.1390 S   0  0  0  0  0  0  0  0  0  0  0  0
  195.2370  176.4100  144.5070 C   0  0  0  0  0  2  0  0  0  0  0  0
  194.5000  177.2600  145.4260 N   0  0  0  0  0  2  0  0  0  0  0  0
  194.1450  176.4320  146.5650 C   0  0  0  0  0  1  0  0  0  0  0  0
  1 16  1  6  0  0  0
  1  4  1  0  0  0  0
  3  8  2  0  0  0  0
  3  2  1  0  0  0  0
  4  2  1  0  0  0  0
  5  7  1  6  0  0  0
  5  6  1  0  0  0  0
  5  1  1  0  0  0  0
  6  7  1  6  0  0  0
  6  3  1  0  0  0  0
  8 15  1  0  0  0  0
  9 12  1  0  0  0  0
  9  8  1  1  0  0  0
 10  9  1  0  0  0  0
 10 12  1  0  0  0  0
 11 10  2  0  0  0  0
 13 15  2  0  0  0  0
 15 14  1  0  0  0  0
 16 22  1  1  0  0  0
 17 18  1  0  0  0  0
 18 16  1  6  0  0  0
 19 20  1  1  0  0  0
 19 17  1  0  0  0  0
 19 18  1  0  0  0  0
 22 21  2  0  0  0  0
 23 25  1  0  0  0  0
 24 22  1  0  0  0  0
 24 23  1  0  0  0  0
 25 26  1  0  0  0  0
 26 27  1  0  0  0  0
M  END
>  <MODEL>
3

>  <REMARK>
 VINA RESULT:      -6.0      2.449      7.720
  Name = 
  8 active torsions:
  status: ('A' for Active; 'I' for Inactive)
    1  A    between atoms: C_1  and  C_24
    2  A    between atoms: C_2  and  C_17
    3  A    between atoms: C_3  and  C_10
    4  A    between atoms: C_10  and  CA_16
    5  A    between atoms: C_10  and  C_25
    6  A    between atoms: S_13  and  C_25
    7  A    between atoms: N_14  and  C_17
    8  A    between atoms: C_24  and  C_27
                            x       y       z     vdW  Elec       q    Type
                         _______ _______ _______ _____ _____    ______ ____

>  <TORSDO>
F 8

$$$$
=
 OpenBabel11042414233D

 27 30  0  0  1  0  0  0  0  0999 V2000
  190.1930  175.9450  145.6310 C   0  0  2  0  0  3  0  0  0  0  0  0
  188.0800  176.5590  146.7350 C   0  0  0  0  0  2  0  0  0  0  0  0
  187.7400  177.5080  145.6240 C   0  0  0  0  0  0  0  0  0  0  0  0
  188.8760  175.4020  146.1820 C   0  0  0  0  0  2  0  0  0  0  0  0
  190.0510  177.0650  144.5780 C   0  0  2  0  0  3  0  0  0  0  0  0
  188.8140  177.8830  144.6180 C   0  0  1  0  0  3  0  0  0  0  0  0
  188.9550  176.7920  143.6350 N   0  0  0  0  0  2  0  0  0  0  0  0
  186.4910  178.0320  145.5160 C   0  0  0  0  0  0  0  0  0  0  0  0
  186.1880  179.0030  144.3890 C   0  0  1  0  0  3  0  0  0  0  0  0
  185.5690  178.3360  143.3370 C   0  0  0  0  0  0  0  0  0  0  0  0
  185.5930  177.2990  142.0780 S   0  0  0  0  0  0  0  0  0  0  0  0
  184.8240  179.2910  144.2740 N   0  0  0  0  0  2  0  0  0  0  0  0
  184.7660  176.6660  146.4430 O   0  0  0  0  0  0  0  0  0  0  0  0
  185.2060  178.6200  147.6150 N   0  0  0  0  0  1  0  0  0  0  0  0
  185.4470  177.7240  146.5310 C   0  0  0  0  0  0  0  0  0  0  0  0
  191.1610  174.8480  145.1590 C   0  0  2  0  0  3  0  0  0  0  0  0
  191.3100  172.6540  144.0770 N   0  0  0  0  0  2  0  0  0  0  0  0
  190.5060  173.4770  144.9910 C   0  0  2  0  0  3  0  0  0  0  0  0
  190.0700  173.2910  143.6100 C   0  0  2  0  0  3  0  0  0  0  0  0
  189.0500  172.3410  143.5750 O   0  0  0  0  0  1  0  0  0  0  0  0
  192.2900  174.9060  147.2230 O   0  0  0  0  0  0  0  0  0  0  0  0
  192.3950  174.7600  146.0130 C   0  0  0  0  0  0  0  0  0  0  0  0
  194.8170  175.8290  145.7520 C   0  0  0  0  0  2  0  0  0  0  0  0
  194.0140  174.5010  145.3060 S   0  0  0  0  0  0  0  0  0  0  0  0
  195.4330  176.7090  144.7190 C   0  0  0  0  0  2  0  0  0  0  0  0
  195.5890  175.9670  143.4800 N   0  0  0  0  0  2  0  0  0  0  0  0
  196.6060  176.6580  142.7070 C   0  0  0  0  0  1  0  0  0  0  0  0
  1 16  1  6  0  0  0
  1  4  1  0  0  0  0
  3  2  1  0  0  0  0
  4  2  1  0  0  0  0
  5  7  1  6  0  0  0
  5  6  1  0  0  0  0
  5  1  1  0  0  0  0
  6  7  1  6  0  0  0
  6  3  1  0  0  0  0
  8  3  2  0  0  0  0
  8 15  1  0  0  0  0
  9  8  1  1  0  0  0
 10 12  1  0  0  0  0
 10  9  1  0  0  0  0
 11 10  2  0  0  0  0
 12  9  1  0  0  0  0
 13 15  2  0  0  0  0
 15 14  1  0  0  0  0
 16 22  1  1  0  0  0
 17 18  1  0  0  0  0
 18 16  1  6  0  0  0
 19 20  1  1  0  0  0
 19 17  1  0  0  0  0
 19 18  1  0  0  0  0
 22 21  2  0  0  0  0
 24 23  1  0  0  0  0
 24 22  1  0  0  0  0
 25 23  1  0  0  0  0
 26 25  1  0  0  0  0
 27 26  1  0  0  0  0
M  END
>  <MODEL>
4

>  <REMARK>
 VINA RESULT:      -6.0      2.176      7.881
  Name = 
  8 active torsions:
  status: ('A' for Active; 'I' for Inactive)
    1  A    between atoms: C_1  and  C_24
    2  A    between atoms: C_2  and  C_17
    3  A    between atoms: C_3  and  C_10
    4  A    between atoms: C_10  and  CA_16
    5  A    between atoms: C_10  and  C_25
    6  A    between atoms: S_13  and  C_25
    7  A    between atoms: N_14  and  C_17
    8  A    between atoms: C_24  and  C_27
                            x       y       z     vdW  Elec       q    Type
                         _______ _______ _______ _____ _____    ______ ____

>  <TORSDO>
F 8

$$$$
=
 OpenBabel11042414233D

 27 30  0  0  1  0  0  0  0  0999 V2000
  190.2760  175.9960  145.8820 C   0  0  2  0  0  3  0  0  0  0  0  0
  188.1160  176.6060  146.8950 C   0  0  0  0  0  2  0  0  0  0  0  0
  187.8140  177.5420  145.7610 C   0  0  0  0  0  0  0  0  0  0  0  0
  188.9410  175.4490  146.3860 C   0  0  0  0  0  2  0  0  0  0  0  0
  190.1680  177.1050  144.8130 C   0  0  2  0  0  3  0  0  0  0  0  0
  188.9250  177.9140  144.7950 C   0  0  1  0  0  3  0  0  0  0  0  0
  189.1120  176.8140  143.8290 N   0  0  0  0  0  2  0  0  0  0  0  0
  186.5670  178.0540  145.5980 C   0  0  0  0  0  0  0  0  0  0  0  0
  186.3020  179.0120  144.4490 C   0  0  1  0  0  3  0  0  0  0  0  0
  185.7240  178.3310  143.3840 C   0  0  0  0  0  0  0  0  0  0  0  0
  185.7960  177.2810  142.1380 S   0  0  0  0  0  0  0  0  0  0  0  0
  184.9420  179.2940  144.2820 N   0  0  0  0  0  2  0  0  0  0  0  0
  184.8150  176.6860  146.4690 O   0  0  0  0  0  0  0  0  0  0  0  0
  185.1960  178.6540  147.6380 N   0  0  0  0  0  1  0  0  0  0  0  0
  185.4850  177.7500  146.5730 C   0  0  0  0  0  0  0  0  0  0  0  0
  191.2690  174.9020  145.4610 C   0  0  2  0  0  3  0  0  0  0  0  0
  193.6160  174.6250  146.1120 N   0  0  0  0  0  2  0  0  0  0  0  0
  192.6990  175.4070  145.2690 C   0  0  2  0  0  3  0  0  0  0  0  0
  193.2050  175.9780  146.5150 C   0  0  2  0  0  3  0  0  0  0  0  0
  194.2310  176.8760  146.2240 O   0  0  0  0  0  1  0  0  0  0  0  0
  189.8710  173.3440  144.3850 O   0  0  0  0  0  0  0  0  0  0  0  0
  190.8010  174.1280  144.2600 C   0  0  0  0  0  0  0  0  0  0  0  0
  190.3550  174.2760  141.6410 C   0  0  0  0  0  2  0  0  0  0  0  0
  191.5990  174.2820  142.6690 S   0  0  0  0  0  0  0  0  0  0  0  0
  190.2840  173.2500  140.5630 C   0  0  0  0  0  2  0  0  0  0  0  0
  188.9020  173.0690  140.1550 N   0  0  0  0  0  2  0  0  0  0  0  0
  188.1100  173.0410  141.3720 C   0  0  0  0  0  1  0  0  0  0  0  0
  1 16  1  6  0  0  0
  1  4  1  0  0  0  0
  3  2  1  0  0  0  0
  4  2  1  0  0  0  0
  5  7  1  6  0  0  0
  5  1  1  0  0  0  0
  6  7  1  6  0  0  0
  6  5  1  0  0  0  0
  6  3  1  0  0  0  0
  8  3  2  0  0  0  0
  8 15  1  0  0  0  0
  9  8  1  1  0  0  0
 10 12  1  0  0  0  0
 10  9  1  0  0  0  0
 11 10  2  0  0  0  0
 12  9  1  0  0  0  0
 13 15  2  0  0  0  0
 15 14  1  0  0  0  0
 16 22  1  6  0  0  0
 17 19  1  0  0  0  0
 18 16  1  1  0  0  0
 18 17  1  0  0  0  0
 18 19  1  0  0  0  0
 19 20  1  6  0  0  0
 22 21  2  0  0  0  0
 23 24  1  0  0  0  0
 24 22  1  0  0  0  0
 25 23  1  0  0  0  0
 26 25  1  0  0  0  0
 26 27  1  0  0  0  0
M  END
>  <MODEL>
5

>  <REMARK>
 VINA RESULT:      -5.8      2.454      6.874
  Name = 
  8 active torsions:
  status: ('A' for Active; 'I' for Inactive)
    1  A    between atoms: C_1  and  C_24
    2  A    between atoms: C_2  and  C_17
    3  A    between atoms: C_3  and  C_10
    4  A    between atoms: C_10  and  CA_16
    5  A    between atoms: C_10  and  C_25
    6  A    between atoms: S_13  and  C_25
    7  A    between atoms: N_14  and  C_17
    8  A    between atoms: C_24  and  C_27
                            x       y       z     vdW  Elec       q    Type
                         _______ _______ _______ _____ _____    ______ ____

>  <TORSDO>
F 8

$$$$
=
 OpenBabel11042414233D

 27 30  0  0  1  0  0  0  0  0999 V2000
  188.8740  176.5440  145.7260 C   0  0  2  0  0  3  0  0  0  0  0  0
  191.2140  177.2140  145.3530 C   0  0  0  0  0  2  0  0  0  0  0  0
  191.7040  175.8760  145.8250 C   0  0  0  0  0  0  0  0  0  0  0  0
  189.8710  177.0500  144.6840 C   0  0  0  0  0  2  0  0  0  0  0  0
  189.2870  175.2460  146.4520 C   0  0  2  0  0  3  0  0  0  0  0  0
  190.7370  174.9440  146.5340 C   0  0  1  0  0  3  0  0  0  0  0  0
  189.8910  174.2720  145.5290 N   0  0  0  0  0  2  0  0  0  0  0  0
  192.9940  175.5000  145.6280 C   0  0  0  0  0  0  0  0  0  0  0  0
  193.4590  174.1470  146.1360 C   0  0  1  0  0  3  0  0  0  0  0  0
  193.4720  173.2250  145.0950 C   0  0  0  0  0  0  0  0  0  0  0  0
  192.7170  172.2620  144.0160 S   0  0  0  0  0  0  0  0  0  0  0  0
  194.7480  173.8190  145.7000 N   0  0  0  0  0  2  0  0  0  0  0  0
  194.1370  176.4170  143.7430 O   0  0  0  0  0  0  0  0  0  0  0  0
  194.7200  177.3430  145.7890 N   0  0  0  0  0  1  0  0  0  0  0  0
  193.9690  176.4290  144.9930 C   0  0  0  0  0  0  0  0  0  0  0  0
  187.4300  176.4640  145.2070 C   0  0  2  0  0  3  0  0  0  0  0  0
  186.2880  175.9030  143.1120 N   0  0  0  0  0  2  0  0  0  0  0  0
  187.2890  176.7920  143.7210 C   0  0  2  0  0  3  0  0  0  0  0  0
  187.7240  175.6570  142.9100 C   0  0  2  0  0  3  0  0  0  0  0  0
  188.0950  176.1120  141.6460 O   0  0  0  0  0  1  0  0  0  0  0  0
  186.0160  176.7910  147.0610 O   0  0  0  0  0  0  0  0  0  0  0  0
  186.4730  177.2760  146.0350 C   0  0  0  0  0  0  0  0  0  0  0  0
  184.3460  178.7330  145.3750 C   0  0  0  0  0  2  0  0  0  0  0  0
  185.9430  178.9070  145.5350 S   0  0  0  0  0  0  0  0  0  0  0  0
  183.6900  179.0400  144.0730 C   0  0  0  0  0  2  0  0  0  0  0  0
  184.6770  178.9870  143.0080 N   0  0  0  0  0  2  0  0  0  0  0  0
  184.0530  178.2910  141.8970 C   0  0  0  0  0  1  0  0  0  0  0  0
  1 16  1  6  0  0  0
  1  5  1  0  0  0  0
  2  3  1  0  0  0  0
  3  6  1  0  0  0  0
  4  2  1  0  0  0  0
  4  1  1  0  0  0  0
  5  7  1  6  0  0  0
  5  6  1  0  0  0  0
  6  7  1  6  0  0  0
  8  3  2  0  0  0  0
  9  8  1  6  0  0  0
 10 12  1  0  0  0  0
 10  9  1  0  0  0  0
 11 10  2  0  0  0  0
 12  9  1  0  0  0  0
 13 15  2  0  0  0  0
 15  8  1  0  0  0  0
 15 14  1  0  0  0  0
 16 22  1  1  0  0  0
 17 18  1  0  0  0  0
 18 16  1  1  0  0  0
 19 20  1  6  0  0  0
 19 17  1  0  0  0  0
 19 18  1  0  0  0  0
 22 21  2  0  0  0  0
 23 24  1  0  0  0  0
 24 22  1  0  0  0  0
 25 23  1  0  0  0  0
 26 25  1  0  0  0  0
 27 26  1  0  0  0  0
M  END
>  <MODEL>
6

>  <REMARK>
 VINA RESULT:      -5.8      1.616      2.606
  Name = 
  8 active torsions:
  status: ('A' for Active; 'I' for Inactive)
    1  A    between atoms: C_1  and  C_24
    2  A    between atoms: C_2  and  C_17
    3  A    between atoms: C_3  and  C_10
    4  A    between atoms: C_10  and  CA_16
    5  A    between atoms: C_10  and  C_25
    6  A    between atoms: S_13  and  C_25
    7  A    between atoms: N_14  and  C_17
    8  A    between atoms: C_24  and  C_27
                            x       y       z     vdW  Elec       q    Type
                         _______ _______ _______ _____ _____    ______ ____

>  <TORSDO>
F 8

$$$$
=
 OpenBabel11042414233D

 27 30  0  0  1  0  0  0  0  0999 V2000
  189.8910  176.0980  143.2810 C   0  0  2  0  0  3  0  0  0  0  0  0
  188.4090  176.4330  145.2180 C   0  0  0  0  0  2  0  0  0  0  0  0
  187.7230  177.5800  144.5330 C   0  0  0  0  0  0  0  0  0  0  0  0
  188.8580  175.4280  144.1860 C   0  0  0  0  0  2  0  0  0  0  0  0
  189.4210  177.4040  142.6050 C   0  0  2  0  0  3  0  0  0  0  0  0
  188.3470  178.1720  143.2820 C   0  0  1  0  0  3  0  0  0  0  0  0
  188.0320  177.3040  142.1300 N   0  0  0  0  0  2  0  0  0  0  0  0
  186.5640  178.0890  145.0240 C   0  0  0  0  0  0  0  0  0  0  0  0
  185.9080  179.2610  144.3160 C   0  0  1  0  0  3  0  0  0  0  0  0
  184.8640  178.8120  143.5160 C   0  0  0  0  0  0  0  0  0  0  0  0
  184.2890  178.0400  142.1980 S   0  0  0  0  0  0  0  0  0  0  0  0
  184.6440  179.5660  144.8300 N   0  0  0  0  0  2  0  0  0  0  0  0
  185.1380  176.6190  146.2520 O   0  0  0  0  0  0  0  0  0  0  0  0
  186.3530  178.1130  147.5460 N   0  0  0  0  0  1  0  0  0  0  0  0
  185.9750  177.5620  146.2860 C   0  0  0  0  0  0  0  0  0  0  0  0
  190.5340  175.1390  142.2660 C   0  0  2  0  0  3  0  0  0  0  0  0
  189.9380  173.3110  140.7470 N   0  0  0  0  0  2  0  0  0  0  0  0
  189.7970  173.8070  142.1240 C   0  0  2  0  0  3  0  0  0  0  0  0
  188.6850  173.9430  141.1870 C   0  0  2  0  0  3  0  0  0  0  0  0
  187.7390  172.9540  141.4520 O   0  0  0  0  0  1  0  0  0  0  0  0
  192.7850  175.8280  142.2730 O   0  0  0  0  0  0  0  0  0  0  0  0
  191.9990  174.9240  142.5230 C   0  0  0  0  0  0  0  0  0  0  0  0
  192.5140  173.5340  144.7330 C   0  0  0  0  0  2  0  0  0  0  0  0
  192.6320  173.3690  143.1320 S   0  0  0  0  0  0  0  0  0  0  0  0
  193.7270  173.3980  145.5880 C   0  0  0  0  0  2  0  0  0  0  0  0
  194.1180  172.0010  145.6550 N   0  0  0  0  0  2  0  0  0  0  0  0
  195.5460  171.9550  145.3980 C   0  0  0  0  0  1  0  0  0  0  0  0
  1 16  1  6  0  0  0
  1  4  1  0  0  0  0
  3  8  2  0  0  0  0
  3  2  1  0  0  0  0
  4  2  1  0  0  0  0
  5  7  1  6  0  0  0
  5  1  1  0  0  0  0
  5  6  1  0  0  0  0
  6  7  1  6  0  0  0
  6  3  1  0  0  0  0
  8 15  1  0  0  0  0
  9 12  1  0  0  0  0
  9  8  1  1  0  0  0
 10  9  1  0  0  0  0
 10 12  1  0  0  0  0
 11 10  2  0  0  0  0
 13 15  2  0  0  0  0
 15 14  1  0  0  0  0
 16 22  1  1  0  0  0
 17 19  1  0  0  0  0
 17 18  1  0  0  0  0
 18 16  1  6  0  0  0
 19 20  1  1  0  0  0
 19 18  1  0  0  0  0
 21 22  2  0  0  0  0
 22 24  1  0  0  0  0
 23 25  1  0  0  0  0
 24 23  1  0  0  0  0
 25 26  1  0  0  0  0
 27 26  1  0  0  0  0
M  END
>  <MODEL>
7

>  <REMARK>
 VINA RESULT:      -5.6      2.512      7.927
  Name = 
  8 active torsions:
  status: ('A' for Active; 'I' for Inactive)
    1  A    between atoms: C_1  and  C_24
    2  A    between atoms: C_2  and  C_17
    3  A    between atoms: C_3  and  C_10
    4  A    between atoms: C_10  and  CA_16
    5  A    between atoms: C_10  and  C_25
    6  A    between atoms: S_13  and  C_25
    7  A    between atoms: N_14  and  C_17
    8  A    between atoms: C_24  and  C_27
                            x       y       z     vdW  Elec       q    Type
                         _______ _______ _______ _____ _____    ______ ____

>  <TORSDO>
F 8

$$$$
=
 OpenBabel11042414233D

 27 30  0  0  1  0  0  0  0  0999 V2000
  190.2330  176.4860  144.5420 C   0  0  2  0  0  3  0  0  0  0  0  0
  192.5370  176.8490  143.7570 C   0  0  0  0  0  2  0  0  0  0  0  0
  193.0770  175.9420  144.8250 C   0  0  0  0  0  0  0  0  0  0  0  0
  191.1670  176.3740  143.3390 C   0  0  0  0  0  2  0  0  0  0  0  0
  190.7060  175.7450  145.8110 C   0  0  2  0  0  3  0  0  0  0  0  0
  192.1640  175.5170  145.9620 C   0  0  1  0  0  3  0  0  0  0  0  0
  191.2840  174.4300  145.4920 N   0  0  0  0  0  2  0  0  0  0  0  0
  194.3630  175.5080  144.7840 C   0  0  0  0  0  0  0  0  0  0  0  0
  194.8790  174.6070  145.8920 C   0  0  1  0  0  3  0  0  0  0  0  0
  194.8940  173.2850  145.4630 C   0  0  0  0  0  0  0  0  0  0  0  0
  194.1440  171.8960  145.0490 S   0  0  0  0  0  0  0  0  0  0  0  0
  196.1660  174.1210  145.6390 N   0  0  0  0  0  2  0  0  0  0  0  0
  196.0430  176.9600  143.9060 O   0  0  0  0  0  0  0  0  0  0  0  0
  195.3320  175.2930  142.4560 N   0  0  0  0  0  1  0  0  0  0  0  0
  195.2870  175.9690  143.7120 C   0  0  0  0  0  0  0  0  0  0  0  0
  188.7660  176.1610  144.2140 C   0  0  2  0  0  3  0  0  0  0  0  0
  187.2090  175.2690  142.5450 N   0  0  0  0  0  2  0  0  0  0  0  0
  188.5000  175.9500  142.7240 C   0  0  2  0  0  3  0  0  0  0  0  0
  188.4700  174.5240  142.4120 C   0  0  2  0  0  3  0  0  0  0  0  0
  188.7580  174.3430  141.0600 O   0  0  0  0  0  1  0  0  0  0  0  0
  187.6280  178.2220  144.2220 O   0  0  0  0  0  0  0  0  0  0  0  0
  187.8080  177.1600  144.8010 C   0  0  0  0  0  0  0  0  0  0  0  0
  185.4130  176.8420  145.9150 C   0  0  0  0  0  2  0  0  0  0  0  0
  186.9670  176.8610  146.3480 S   0  0  0  0  0  0  0  0  0  0  0  0
  184.4510  177.7910  146.5450 C   0  0  0  0  0  2  0  0  0  0  0  0
  184.4910  179.0600  145.8400 N   0  0  0  0  0  2  0  0  0  0  0  0
  184.1660  178.7770  144.4540 C   0  0  0  0  0  1  0  0  0  0  0  0
  1 16  1  6  0  0  0
  1  5  1  0  0  0  0
  2  3  1  0  0  0  0
  4  2  1  0  0  0  0
  4  1  1  0  0  0  0
  5  7  1  6  0  0  0
  5  6  1  0  0  0  0
  6  3  1  6  0  0  0
  7  6  1  0  0  0  0
  8  3  2  0  0  0  0
  9  8  1  6  0  0  0
 10 12  1  0  0  0  0
 10  9  1  0  0  0  0
 11 10  2  0  0  0  0
 12  9  1  0  0  0  0
 14 15  1  0  0  0  0
 15 13  2  0  0  0  0
 15  8  1  0  0  0  0
 16 22  1  6  0  0  0
 17 18  1  0  0  0  0
 18 16  1  1  0  0  0
 19 20  1  6  0  0  0
 19 17  1  0  0  0  0
 19 18  1  0  0  0  0
 21 22  2  0  0  0  0
 22 24  1  0  0  0  0
 23 24  1  0  0  0  0
 23 25  1  0  0  0  0
 26 25  1  0  0  0  0
 27 26  1  0  0  0  0
M  END
>  <MODEL>
8

>  <REMARK>
 VINA RESULT:      -5.5      2.305      3.257
  Name = 
  8 active torsions:
  status: ('A' for Active; 'I' for Inactive)
    1  A    between atoms: C_1  and  C_24
    2  A    between atoms: C_2  and  C_17
    3  A    between atoms: C_3  and  C_10
    4  A    between atoms: C_10  and  CA_16
    5  A    between atoms: C_10  and  C_25
    6  A    between atoms: S_13  and  C_25
    7  A    between atoms: N_14  and  C_17
    8  A    between atoms: C_24  and  C_27
                            x       y       z     vdW  Elec       q    Type
                         _______ _______ _______ _____ _____    ______ ____

>  <TORSDO>
F 8

$$$$
=
 OpenBabel11042414233D

 27 30  0  0  1  0  0  0  0  0999 V2000
  187.7390  177.4670  143.7330 C   0  0  2  0  0  3  0  0  0  0  0  0
  190.1960  177.6060  143.8100 C   0  0  0  0  0  2  0  0  0  0  0  0
  190.3080  176.1110  143.8970 C   0  0  0  0  0  0  0  0  0  0  0  0
  188.9790  177.9720  142.9960 C   0  0  0  0  0  2  0  0  0  0  0  0
  187.7430  175.9600  144.0650 C   0  0  2  0  0  3  0  0  0  0  0  0
  189.0620  175.2940  144.1910 C   0  0  1  0  0  3  0  0  0  0  0  0
  188.2730  175.1570  142.9520 N   0  0  0  0  0  2  0  0  0  0  0  0
  191.5040  175.4930  143.7210 C   0  0  0  0  0  0  0  0  0  0  0  0
  191.5820  173.9810  143.8350 C   0  0  1  0  0  3  0  0  0  0  0  0
  191.6310  173.4090  142.5680 C   0  0  0  0  0  0  0  0  0  0  0  0
  190.9430  172.9980  141.1470 S   0  0  0  0  0  0  0  0  0  0  0  0
  192.8440  173.4770  143.5000 N   0  0  0  0  0  2  0  0  0  0  0  0
  193.4120  176.7120  144.4780 O   0  0  0  0  0  0  0  0  0  0  0  0
  193.1940  176.5660  142.1730 N   0  0  0  0  0  1  0  0  0  0  0  0
  192.7440  176.2850  143.4970 C   0  0  0  0  0  0  0  0  0  0  0  0
  186.4170  177.8970  143.0770 C   0  0  2  0  0  3  0  0  0  0  0  0
  185.2870  178.2790  140.9360 N   0  0  0  0  0  2  0  0  0  0  0  0
  186.5740  178.3900  141.6380 C   0  0  2  0  0  3  0  0  0  0  0  0
  186.3510  177.2920  140.7010 C   0  0  2  0  0  3  0  0  0  0  0  0
  186.9890  177.5810  139.4960 O   0  0  0  0  0  1  0  0  0  0  0  0
  185.7600  180.0810  143.6600 O   0  0  0  0  0  0  0  0  0  0  0  0
  185.6540  178.8880  143.9100 C   0  0  0  0  0  0  0  0  0  0  0  0
  185.3340  179.1230  146.5410 C   0  0  0  0  0  2  0  0  0  0  0  0
  184.6400  178.3770  145.2890 S   0  0  0  0  0  0  0  0  0  0  0  0
  185.8310  178.3290  147.7000 C   0  0  0  0  0  2  0  0  0  0  0  0
  187.1650  177.8330  147.4110 N   0  0  0  0  0  2  0  0  0  0  0  0
  187.0790  176.3830  147.4140 C   0  0  0  0  0  1  0  0  0  0  0  0
  1 16  1  6  0  0  0
  1  5  1  0  0  0  0
  2  3  1  0  0  0  0
  3  6  1  0  0  0  0
  4  1  1  0  0  0  0
  4  2  1  0  0  0  0
  5  7  1  6  0  0  0
  5  6  1  0  0  0  0
  6  7  1  6  0  0  0
  8  3  2  0  0  0  0
  9  8  1  6  0  0  0
 10 12  1  0  0  0  0
 10  9  1  0  0  0  0
 11 10  2  0  0  0  0
 12  9  1  0  0  0  0
 14 15  1  0  0  0  0
 15  8  1  0  0  0  0
 15 13  2  0  0  0  0
 16 22  1  1  0  0  0
 17 18  1  0  0  0  0
 18 16  1  1  0  0  0
 19 20  1  6  0  0  0
 19 17  1  0  0  0  0
 19 18  1  0  0  0  0
 21 22  2  0  0  0  0
 22 24  1  0  0  0  0
 23 25  1  0  0  0  0
 24 23  1  0  0  0  0
 26 27  1  0  0  0  0
 26 25  1  0  0  0  0
M  END
>  <MODEL>
9

>  <REMARK>
 VINA RESULT:      -5.5      2.371      4.071
  Name = 
  8 active torsions:
  status: ('A' for Active; 'I' for Inactive)
    1  A    between atoms: C_1  and  C_24
    2  A    between atoms: C_2  and  C_17
    3  A    between atoms: C_3  and  C_10
    4  A    between atoms: C_10  and  CA_16
    5  A    between atoms: C_10  and  C_25
    6  A    between atoms: S_13  and  C_25
    7  A    between atoms: N_14  and  C_17
    8  A    between atoms: C_24  and  C_27
                            x       y       z     vdW  Elec       q    Type
                         _______ _______ _______ _____ _____    ______ ____

>  <TORSDO>
F 8

$$$$
