=
 OpenBabel11042415203D

 47 53  0  0  1  0  0  0  0  0999 V2000
  187.5590  178.1920  141.9070 C   0  0  1  0  0  3  0  0  0  0  0  0
  187.2550  176.9770  141.1480 C   0  0  2  0  0  0  0  0  0  0  0  0
  186.4930  177.2810  142.3790 N   0  0  0  0  0  0  0  0  0  0  0  0
  188.9070  177.9020  142.5860 C   0  0  2  0  0  3  0  0  0  0  0  0
  188.4330  176.0910  141.3310 C   0  0  0  0  0  0  0  0  0  0  0  0
  186.6810  177.2980  139.7700 C   0  0  0  0  0  1  0  0  0  0  0  0
  189.3180  176.5890  142.1210 N   0  0  0  0  0  0  0  0  0  0  0  0
  188.7850  172.1930  139.6650 C   0  0  0  0  0  3  0  0  0  0  0  0
  189.0560  173.6810  141.5370 C   0  0  0  0  0  3  0  0  0  0  0  0
  188.5620  174.7370  140.7610 C   0  0  0  0  0  0  0  0  0  0  0  0
  189.1750  172.4000  140.9950 C   0  0  0  0  0  0  0  0  0  0  0  0
  188.1870  174.4780  139.4380 C   0  0  0  0  0  3  0  0  0  0  0  0
  188.3050  173.2250  138.9230 N   0  0  0  0  0  0  0  0  0  0  0  0
  189.6820  171.3670  141.7950 O   0  0  0  0  0  0  0  0  0  0  0  0
  190.9470  170.7440  141.5860 C   0  0  0  0  0  0  0  0  0  0  0  0
  191.8070  171.6200  140.9490 F   0  0  0  0  0  0  0  0  0  0  0  0
  190.7930  169.6000  140.8220 F   0  0  0  0  0  0  0  0  0  0  0  0
  191.4870  170.3980  142.8110 F   0  0  0  0  0  0  0  0  0  0  0  0
  185.2740  177.8870  142.0440 N   0  0  0  0  0  2  0  0  0  0  0  0
  184.4750  177.8660  143.2010 N   0  0  0  0  0  2  0  0  0  0  0  0
  184.8300  179.1790  146.1480 C   0  0  2  0  0  3  0  0  0  0  0  0
  185.5320  179.4340  144.8180 C   0  0  0  0  0  2  0  0  0  0  0  0
  185.8810  179.3460  147.2560 C   0  0  0  0  0  2  0  0  0  0  0  0
  184.5230  177.7410  145.6840 C   0  0  1  0  0  3  0  0  0  0  0  0
  185.9910  178.1460  148.1820 C   0  0  0  0  0  2  0  0  0  0  0  0
  185.3080  177.9830  144.4050 C   0  0  1  0  0  3  0  0  0  0  0  0
  185.0730  176.5780  146.5250 C   0  0  0  0  0  2  0  0  0  0  0  0
  186.3040  176.9270  147.3410 C   0  0  0  0  0  2  0  0  0  0  0  0
  188.7880  177.9250  144.1040 C   0  0  0  0  0  2  0  0  0  0  0  0
  188.9360  175.9120  145.5260 C   0  0  0  0  0  2  0  0  0  0  0  0
  189.6690  177.0350  146.2290 C   0  0  2  0  0  3  0  0  0  0  0  0
  189.7320  176.9120  144.7160 C   0  0  2  0  0  3  0  0  0  0  0  0
  192.1160  176.4190  146.0020 N   0  0  0  0  0  2  0  0  0  0  0  0
  190.9490  176.5440  146.8200 C   0  0  0  0  0  0  0  0  0  0  0  0
  190.9840  176.2110  148.0340 O   0  0  0  0  0  0  0  0  0  0  0  0
  194.3420  174.9570  141.5220 C   0  0  0  0  0  2  0  0  0  0  0  0
  193.4970  174.3370  146.2280 C   0  0  0  0  0  2  0  0  0  0  0  0
  193.3600  175.8480  146.5080 C   0  0  1  0  0  3  0  0  0  0  0  0
  193.5660  171.5380  144.7700 O   0  0  0  0  0  1  0  0  0  0  0  0
  194.4120  176.0020  143.7130 C   0  0  0  0  0  3  0  0  0  0  0  0
  192.6580  173.8550  145.0420 C   0  0  0  0  0  2  0  0  0  0  0  0
  193.3840  172.8160  144.2550 C   0  0  0  0  0  0  0  0  0  0  0  0
  194.5510  176.6600  146.0590 C   0  0  0  0  0  3  0  0  0  0  0  0
  194.3330  173.5040  141.9180 C   0  0  0  0  0  3  0  0  0  0  0  0
  195.0280  176.7310  144.8140 C   0  0  0  0  0  3  0  0  0  0  0  0
  195.0190  175.8100  142.5530 C   0  0  0  0  0  3  0  0  0  0  0  0
  193.8490  173.1210  143.0730 C   0  0  0  0  0  0  0  0  0  0  0  0
  1  3  1  1  0  0  0
  1  4  1  0  0  0  0
  2  6  1  6  0  0  0
  2  5  1  0  0  0  0
  2  1  1  0  0  0  0
  2  3  1  0  0  0  0
  4 29  1  1  0  0  0
  5  7  2  0  0  0  0
  7  4  1  0  0  0  0
  8 11  1  0  0  0  0
 10  5  1  0  0  0  0
 10  9  1  0  0  0  0
 11  9  2  0  0  0  0
 11 14  1  0  0  0  0
 12 10  2  0  0  0  0
 13 12  1  0  0  0  0
 13  8  2  0  0  0  0
 15 14  1  0  0  0  0
 15 18  1  0  0  0  0
 16 15  1  0  0  0  0
 17 15  1  0  0  0  0
 19  3  1  0  0  0  0
 19 20  1  0  0  0  0
 21 22  1  6  0  0  0
 21 23  1  0  0  0  0
 23 25  1  0  0  0  0
 24 21  1  0  0  0  0
 24 27  1  1  0  0  0
 26 20  1  6  0  0  0
 26 22  1  0  0  0  0
 26 24  1  0  0  0  0
 27 28  1  0  0  0  0
 28 25  1  0  0  0  0
 30 31  1  0  0  0  0
 31 34  1  1  0  0  0
 32 29  1  6  0  0  0
 32 30  1  0  0  0  0
 32 31  1  0  0  0  0
 33 34  1  0  0  0  0
 34 35  2  0  0  0  0
 36 44  1  0  0  0  0
 36 46  1  0  0  0  0
 37 38  1  0  0  0  0
 38 33  1  6  0  0  0
 40 45  1  0  0  0  0
 41 37  1  0  0  0  0
 42 39  1  0  0  0  0
 42 41  1  0  0  0  0
 43 38  1  0  0  0  0
 44 47  2  0  0  0  0
 45 43  2  0  0  0  0
 46 40  2  0  0  0  0
 47 42  2  0  0  0  0
M  END
>  <MODEL>
1

>  <REMARK>
 VINA RESULT:      -9.1      0.000      0.000
  Name = 
  10 active torsions:
  status: ('A' for Active; 'I' for Inactive)
    1  A    between atoms: N_3  and  C_5
    2  A    between atoms: C_6  and  C_38
    3  A    between atoms: C_12  and  O_18
    4  A    between atoms: N_16  and  N_24
    5  A    between atoms: N_16  and  N_32
    6  A    between atoms: O_18  and  C_41
    7  A    between atoms: C_21  and  C_26
    8  A    between atoms: C_21  and  C_45
    9  A    between atoms: C_27  and  N_32
   10  A    between atoms: C_29  and  C_39
                            x       y       z     vdW  Elec       q    Type
                         _______ _______ _______ _____ _____    ______ ____

>  <TORSDO>
F 10

$$$$
=
 OpenBabel11042415203D

 47 53  0  0  1  0  0  0  0  0999 V2000
  190.5670  174.8390  142.0640 C   0  0  1  0  0  3  0  0  0  0  0  0
  189.7490  175.8950  142.6640 C   0  0  2  0  0  0  0  0  0  0  0  0
  190.1270  174.7140  143.4710 N   0  0  0  0  0  0  0  0  0  0  0  0
  189.6200  174.1120  141.0970 C   0  0  2  0  0  3  0  0  0  0  0  0
  188.4300  175.8070  141.9860 C   0  0  0  0  0  0  0  0  0  0  0  0
  190.5180  177.2090  142.7860 C   0  0  0  0  0  1  0  0  0  0  0  0
  188.3600  174.8320  141.1490 N   0  0  0  0  0  0  0  0  0  0  0  0
  185.0990  178.3130  142.8330 C   0  0  0  0  0  3  0  0  0  0  0  0
  186.6250  176.5860  143.5260 C   0  0  0  0  0  3  0  0  0  0  0  0
  187.2730  176.6690  142.2870 C   0  0  0  0  0  0  0  0  0  0  0  0
  185.5310  177.4040  143.8100 C   0  0  0  0  0  0  0  0  0  0  0  0
  186.8020  177.5910  141.3460 C   0  0  0  0  0  3  0  0  0  0  0  0
  185.7370  178.3860  141.6360 N   0  0  0  0  0  0  0  0  0  0  0  0
  184.9000  177.2910  145.0550 O   0  0  0  0  0  0  0  0  0  0  0  0
  185.4740  177.7300  146.2840 C   0  0  0  0  0  0  0  0  0  0  0  0
  186.3810  178.7470  146.0460 F   0  0  0  0  0  0  0  0  0  0  0  0
  186.1090  176.6740  146.9160 F   0  0  0  0  0  0  0  0  0  0  0  0
  184.4700  178.2080  147.1060 F   0  0  0  0  0  0  0  0  0  0  0  0
  191.2400  175.0210  144.2660 N   0  0  0  0  0  2  0  0  0  0  0  0
  191.1080  174.2840  145.4560 N   0  0  0  0  0  2  0  0  0  0  0  0
  191.8370  176.6640  147.5400 C   0  0  2  0  0  3  0  0  0  0  0  0
  191.6140  175.1660  147.7270 C   0  0  0  0  0  2  0  0  0  0  0  0
  191.2760  177.3670  148.7850 C   0  0  0  0  0  2  0  0  0  0  0  0
  190.9320  176.6190  146.2910 C   0  0  1  0  0  3  0  0  0  0  0  0
  190.2630  178.4540  148.4700 C   0  0  0  0  0  2  0  0  0  0  0  0
  190.6450  175.1490  146.5490 C   0  0  1  0  0  3  0  0  0  0  0  0
  189.6700  177.4950  146.2850 C   0  0  0  0  0  2  0  0  0  0  0  0
  189.1400  177.8350  147.6650 C   0  0  0  0  0  2  0  0  0  0  0  0
  189.4250  172.6540  141.4910 C   0  0  0  0  0  2  0  0  0  0  0  0
  190.4370  170.4030  141.3880 C   0  0  0  0  0  2  0  0  0  0  0  0
  191.0160  171.1220  142.5880 C   0  0  2  0  0  3  0  0  0  0  0  0
  190.7190  171.8890  141.3110 C   0  0  2  0  0  3  0  0  0  0  0  0
  193.3330  171.8570  143.3040 N   0  0  0  0  0  2  0  0  0  0  0  0
  192.4860  170.8810  142.6910 C   0  0  0  0  0  0  0  0  0  0  0  0
  192.9780  169.8270  142.2050 O   0  0  0  0  0  0  0  0  0  0  0  0
  194.6480  176.3760  145.5450 C   0  0  0  0  0  2  0  0  0  0  0  0
  195.5210  172.7620  142.4740 C   0  0  0  0  0  2  0  0  0  0  0  0
  194.7840  171.7150  143.3350 C   0  0  1  0  0  3  0  0  0  0  0  0
  196.4690  175.4960  141.2140 O   0  0  0  0  0  1  0  0  0  0  0  0
  194.8290  173.9650  145.3040 C   0  0  0  0  0  3  0  0  0  0  0  0
  194.7090  174.0360  142.2330 C   0  0  0  0  0  2  0  0  0  0  0  0
  195.5840  175.2450  142.2560 C   0  0  0  0  0  0  0  0  0  0  0  0
  195.2900  171.6320  144.7570 C   0  0  0  0  0  3  0  0  0  0  0  0
  195.4210  176.8240  144.3320 C   0  0  0  0  0  3  0  0  0  0  0  0
  195.3150  172.6330  145.6390 C   0  0  0  0  0  3  0  0  0  0  0  0
  195.1100  175.0340  146.0320 C   0  0  0  0  0  3  0  0  0  0  0  0
  195.5080  176.0670  143.2680 C   0  0  0  0  0  0  0  0  0  0  0  0
  1  2  1  0  0  0  0
  1  3  1  1  0  0  0
  2  6  1  1  0  0  0
  2  3  1  0  0  0  0
  3 19  1  0  0  0  0
  4  7  1  0  0  0  0
  4 29  1  1  0  0  0
  4  1  1  0  0  0  0
  5 10  1  0  0  0  0
  5  2  1  0  0  0  0
  7  5  2  0  0  0  0
  8 11  1  0  0  0  0
  9 11  2  0  0  0  0
 10  9  1  0  0  0  0
 11 14  1  0  0  0  0
 12 13  1  0  0  0  0
 12 10  2  0  0  0  0
 13  8  2  0  0  0  0
 14 15  1  0  0  0  0
 15 17  1  0  0  0  0
 15 18  1  0  0  0  0
 16 15  1  0  0  0  0
 19 20  1  0  0  0  0
 21 22  1  1  0  0  0
 21 23  1  0  0  0  0
 24 27  1  1  0  0  0
 24 26  1  0  0  0  0
 24 21  1  0  0  0  0
 25 23  1  0  0  0  0
 26 20  1  6  0  0  0
 26 22  1  0  0  0  0
 27 28  1  0  0  0  0
 28 25  1  0  0  0  0
 30 31  1  0  0  0  0
 31 34  1  6  0  0  0
 32 30  1  0  0  0  0
 32 29  1  1  0  0  0
 32 31  1  0  0  0  0
 34 33  1  0  0  0  0
 35 34  2  0  0  0  0
 36 46  1  0  0  0  0
 37 38  1  0  0  0  0
 38 33  1  1  0  0  0
 38 43  1  0  0  0  0
 39 42  1  0  0  0  0
 40 45  1  0  0  0  0
 40 46  2  0  0  0  0
 41 42  1  0  0  0  0
 41 37  1  0  0  0  0
 42 47  2  0  0  0  0
 43 45  2  0  0  0  0
 44 36  1  0  0  0  0
 47 44  2  0  0  0  0
M  END
>  <MODEL>
2

>  <REMARK>
 VINA RESULT:      -9.0      3.398      6.117
  Name = 
  10 active torsions:
  status: ('A' for Active; 'I' for Inactive)
    1  A    between atoms: N_3  and  C_5
    2  A    between atoms: C_6  and  C_38
    3  A    between atoms: C_12  and  O_18
    4  A    between atoms: N_16  and  N_24
    5  A    between atoms: N_16  and  N_32
    6  A    between atoms: O_18  and  C_41
    7  A    between atoms: C_21  and  C_26
    8  A    between atoms: C_21  and  C_45
    9  A    between atoms: C_27  and  N_32
   10  A    between atoms: C_29  and  C_39
                            x       y       z     vdW  Elec       q    Type
                         _______ _______ _______ _____ _____    ______ ____

>  <TORSDO>
F 10

$$$$
=
 OpenBabel11042415203D

 47 53  0  0  1  0  0  0  0  0999 V2000
  190.3250  174.8870  142.3760 C   0  0  1  0  0  3  0  0  0  0  0  0
  189.3340  175.9210  142.6810 C   0  0  2  0  0  0  0  0  0  0  0  0
  189.4520  174.7380  143.5610 N   0  0  0  0  0  0  0  0  0  0  0  0
  189.7620  174.1550  141.1480 C   0  0  2  0  0  3  0  0  0  0  0  0
  188.3120  175.8180  141.6080 C   0  0  0  0  0  0  0  0  0  0  0  0
  189.9930  177.2470  143.0550 C   0  0  0  0  0  1  0  0  0  0  0  0
  188.5400  174.8520  140.7890 N   0  0  0  0  0  0  0  0  0  0  0  0
  184.8300  178.2440  141.3240 C   0  0  0  0  0  3  0  0  0  0  0  0
  186.3360  176.9250  142.6590 C   0  0  0  0  0  3  0  0  0  0  0  0
  187.1010  176.6550  141.5180 C   0  0  0  0  0  0  0  0  0  0  0  0
  185.1920  177.7200  142.5720 C   0  0  0  0  0  0  0  0  0  0  0  0
  186.6970  177.2010  140.2960 C   0  0  0  0  0  3  0  0  0  0  0  0
  185.5820  177.9760  140.2240 N   0  0  0  0  0  0  0  0  0  0  0  0
  184.4420  177.9640  143.7310 O   0  0  0  0  0  0  0  0  0  0  0  0
  184.6750  179.0580  144.6160 C   0  0  0  0  0  0  0  0  0  0  0  0
  184.0940  180.2070  144.1110 F   0  0  0  0  0  0  0  0  0  0  0  0
  186.0360  179.2540  144.7800 F   0  0  0  0  0  0  0  0  0  0  0  0
  184.1100  178.7730  145.8450 F   0  0  0  0  0  0  0  0  0  0  0  0
  190.2370  175.0550  144.6770 N   0  0  0  0  0  2  0  0  0  0  0  0
  189.6920  174.3590  145.7720 N   0  0  0  0  0  2  0  0  0  0  0  0
  189.1780  177.4500  146.6190 C   0  0  2  0  0  3  0  0  0  0  0  0
  189.9880  176.3290  147.2620 C   0  0  0  0  0  2  0  0  0  0  0  0
  188.5740  178.2860  147.7580 C   0  0  0  0  0  2  0  0  0  0  0  0
  188.2680  176.3870  145.9690 C   0  0  1  0  0  3  0  0  0  0  0  0
  187.0660  178.4450  147.6660 C   0  0  0  0  0  2  0  0  0  0  0  0
  189.0280  175.2890  146.6950 C   0  0  1  0  0  3  0  0  0  0  0  0
  186.7690  176.4170  146.3080 C   0  0  0  0  0  2  0  0  0  0  0  0
  186.4450  177.0650  147.6400 C   0  0  0  0  0  2  0  0  0  0  0  0
  189.4810  172.6890  141.4480 C   0  0  0  0  0  2  0  0  0  0  0  0
  190.4450  170.4180  141.5480 C   0  0  0  0  0  2  0  0  0  0  0  0
  190.9820  171.2060  142.7240 C   0  0  2  0  0  3  0  0  0  0  0  0
  190.7640  171.8880  141.3850 C   0  0  2  0  0  3  0  0  0  0  0  0
  193.3100  171.9990  143.3370 N   0  0  0  0  0  2  0  0  0  0  0  0
  192.4400  170.9440  142.9150 C   0  0  0  0  0  0  0  0  0  0  0  0
  192.9020  169.7980  142.6710 O   0  0  0  0  0  0  0  0  0  0  0  0
  194.6330  176.4910  145.6250 C   0  0  0  0  0  2  0  0  0  0  0  0
  195.5570  172.8430  142.6100 C   0  0  0  0  0  2  0  0  0  0  0  0
  194.7540  171.8190  143.4380 C   0  0  1  0  0  3  0  0  0  0  0  0
  196.6330  175.5480  141.3890 O   0  0  0  0  0  1  0  0  0  0  0  0
  194.7630  174.0750  145.4000 C   0  0  0  0  0  3  0  0  0  0  0  0
  194.7900  174.1380  142.3270 C   0  0  0  0  0  2  0  0  0  0  0  0
  195.6940  175.3240  142.3870 C   0  0  0  0  0  0  0  0  0  0  0  0
  195.1890  171.7290  144.8810 C   0  0  0  0  0  3  0  0  0  0  0  0
  195.4740  176.9150  144.4500 C   0  0  0  0  0  3  0  0  0  0  0  0
  195.1980  172.7320  145.7620 C   0  0  0  0  0  3  0  0  0  0  0  0
  195.0370  175.1390  146.1380 C   0  0  0  0  0  3  0  0  0  0  0  0
  195.5920  176.1510  143.3920 C   0  0  0  0  0  0  0  0  0  0  0  0
  1  2  1  0  0  0  0
  1  3  1  1  0  0  0
  2  6  1  1  0  0  0
  2  3  1  0  0  0  0
  3 19  1  0  0  0  0
  4 29  1  1  0  0  0
  4  1  1  0  0  0  0
  5  2  1  0  0  0  0
  7  4  1  0  0  0  0
  7  5  2  0  0  0  0
  8 11  1  0  0  0  0
 10  5  1  0  0  0  0
 10  9  1  0  0  0  0
 11  9  2  0  0  0  0
 11 14  1  0  0  0  0
 12 10  2  0  0  0  0
 13 12  1  0  0  0  0
 13  8  2  0  0  0  0
 14 15  1  0  0  0  0
 15 17  1  0  0  0  0
 15 18  1  0  0  0  0
 16 15  1  0  0  0  0
 19 20  1  0  0  0  0
 21 22  1  1  0  0  0
 21 23  1  0  0  0  0
 24 27  1  1  0  0  0
 24 21  1  0  0  0  0
 24 26  1  0  0  0  0
 25 23  1  0  0  0  0
 26 20  1  6  0  0  0
 26 22  1  0  0  0  0
 27 28  1  0  0  0  0
 28 25  1  0  0  0  0
 30 31  1  0  0  0  0
 31 34  1  6  0  0  0
 32 29  1  1  0  0  0
 32 30  1  0  0  0  0
 32 31  1  0  0  0  0
 34 33  1  0  0  0  0
 35 34  2  0  0  0  0
 36 46  1  0  0  0  0
 37 38  1  0  0  0  0
 38 33  1  1  0  0  0
 38 43  1  0  0  0  0
 39 42  1  0  0  0  0
 40 45  1  0  0  0  0
 40 46  2  0  0  0  0
 41 42  1  0  0  0  0
 41 37  1  0  0  0  0
 42 47  2  0  0  0  0
 43 45  2  0  0  0  0
 44 36  1  0  0  0  0
 47 44  2  0  0  0  0
M  END
>  <MODEL>
3

>  <REMARK>
 VINA RESULT:      -8.8      3.632      5.836
  Name = 
  10 active torsions:
  status: ('A' for Active; 'I' for Inactive)
    1  A    between atoms: N_3  and  C_5
    2  A    between atoms: C_6  and  C_38
    3  A    between atoms: C_12  and  O_18
    4  A    between atoms: N_16  and  N_24
    5  A    between atoms: N_16  and  N_32
    6  A    between atoms: O_18  and  C_41
    7  A    between atoms: C_21  and  C_26
    8  A    between atoms: C_21  and  C_45
    9  A    between atoms: C_27  and  N_32
   10  A    between atoms: C_29  and  C_39
                            x       y       z     vdW  Elec       q    Type
                         _______ _______ _______ _____ _____    ______ ____

>  <TORSDO>
F 10

$$$$
=
 OpenBabel11042415203D

 47 53  0  0  1  0  0  0  0  0999 V2000
  188.1570  177.7610  141.9510 C   0  0  1  0  0  3  0  0  0  0  0  0
  187.9340  176.3890  141.4890 C   0  0  2  0  0  0  0  0  0  0  0  0
  187.0820  176.9470  142.5620 N   0  0  0  0  0  0  0  0  0  0  0  0
  189.4610  177.6940  142.7610 C   0  0  2  0  0  3  0  0  0  0  0  0
  189.1170  175.6180  141.9520 C   0  0  0  0  0  0  0  0  0  0  0  0
  187.4490  176.3490  140.0420 C   0  0  0  0  0  1  0  0  0  0  0  0
  189.9340  176.3250  142.6520 N   0  0  0  0  0  0  0  0  0  0  0  0
  189.6920  171.4480  141.3480 C   0  0  0  0  0  3  0  0  0  0  0  0
  189.8960  173.7080  140.5470 C   0  0  0  0  0  3  0  0  0  0  0  0
  189.3170  174.1740  141.7330 C   0  0  0  0  0  0  0  0  0  0  0  0
  190.0870  172.3400  140.3420 C   0  0  0  0  0  0  0  0  0  0  0  0
  188.9380  173.2430  142.7050 C   0  0  0  0  0  3  0  0  0  0  0  0
  189.1320  171.9130  142.4950 N   0  0  0  0  0  0  0  0  0  0  0  0
  190.6610  171.9050  139.1400 O   0  0  0  0  0  0  0  0  0  0  0  0
  189.9110  171.4560  138.0130 C   0  0  0  0  0  0  0  0  0  0  0  0
  189.4400  170.1750  138.2370 F   0  0  0  0  0  0  0  0  0  0  0  0
  190.7050  171.4730  136.8780 F   0  0  0  0  0  0  0  0  0  0  0  0
  188.8350  172.3030  137.8220 F   0  0  0  0  0  0  0  0  0  0  0  0
  185.8750  177.4070  142.0170 N   0  0  0  0  0  2  0  0  0  0  0  0
  184.9480  177.4750  143.0720 N   0  0  0  0  0  2  0  0  0  0  0  0
  184.9750  179.0830  145.8920 C   0  0  2  0  0  3  0  0  0  0  0  0
  185.8310  179.1990  144.6340 C   0  0  0  0  0  2  0  0  0  0  0  0
  185.8920  179.3610  147.0930 C   0  0  0  0  0  2  0  0  0  0  0  0
  184.7050  177.6050  145.5430 C   0  0  1  0  0  3  0  0  0  0  0  0
  185.8760  178.2620  148.1420 C   0  0  0  0  0  2  0  0  0  0  0  0
  185.6370  177.7130  144.3480 C   0  0  1  0  0  3  0  0  0  0  0  0
  185.1370  176.5340  146.5570 C   0  0  0  0  0  2  0  0  0  0  0  0
  186.2680  176.9630  147.4720 C   0  0  0  0  0  2  0  0  0  0  0  0
  189.2370  178.0740  144.2190 C   0  0  0  0  0  2  0  0  0  0  0  0
  189.2060  177.1990  146.5280 C   0  0  0  0  0  2  0  0  0  0  0  0
  190.6340  177.5710  146.1880 C   0  0  2  0  0  3  0  0  0  0  0  0
  189.7300  176.9670  145.1270 C   0  0  2  0  0  3  0  0  0  0  0  0
  192.7100  176.1490  145.8840 N   0  0  0  0  0  2  0  0  0  0  0  0
  191.5840  176.5290  146.6810 C   0  0  0  0  0  0  0  0  0  0  0  0
  191.3680  175.9660  147.7870 O   0  0  0  0  0  0  0  0  0  0  0  0
  194.3230  174.5590  141.1910 C   0  0  0  0  0  2  0  0  0  0  0  0
  193.1410  173.6810  145.7820 C   0  0  0  0  0  2  0  0  0  0  0  0
  193.6060  175.0670  146.2750 C   0  0  1  0  0  3  0  0  0  0  0  0
  192.1420  171.3180  143.9430 O   0  0  0  0  0  1  0  0  0  0  0  0
  194.7280  175.1750  143.5050 C   0  0  0  0  0  3  0  0  0  0  0  0
  192.2210  173.7420  144.5610 C   0  0  0  0  0  2  0  0  0  0  0  0
  192.5010  172.6190  143.6180 C   0  0  0  0  0  0  0  0  0  0  0  0
  195.0370  175.3920  145.9160 C   0  0  0  0  0  3  0  0  0  0  0  0
  193.7240  173.1900  141.3790 C   0  0  0  0  0  3  0  0  0  0  0  0
  195.5440  175.4390  144.6830 C   0  0  0  0  0  3  0  0  0  0  0  0
  195.2480  174.9200  142.3160 C   0  0  0  0  0  3  0  0  0  0  0  0
  193.0890  172.8750  142.4800 C   0  0  0  0  0  0  0  0  0  0  0  0
  1  3  1  1  0  0  0
  1  4  1  0  0  0  0
  2  6  1  6  0  0  0
  2  1  1  0  0  0  0
  2  5  1  0  0  0  0
  2  3  1  0  0  0  0
  4 29  1  1  0  0  0
  5  7  2  0  0  0  0
  7  4  1  0  0  0  0
  8 13  1  0  0  0  0
  9 10  2  0  0  0  0
 10  5  1  0  0  0  0
 10 12  1  0  0  0  0
 11  9  1  0  0  0  0
 11  8  2  0  0  0  0
 13 12  2  0  0  0  0
 14 11  1  0  0  0  0
 15 16  1  0  0  0  0
 15 14  1  0  0  0  0
 17 15  1  0  0  0  0
 18 15  1  0  0  0  0
 19  3  1  0  0  0  0
 19 20  1  0  0  0  0
 21 22  1  6  0  0  0
 21 23  1  0  0  0  0
 23 25  1  0  0  0  0
 24 21  1  0  0  0  0
 24 27  1  1  0  0  0
 26 20  1  6  0  0  0
 26 22  1  0  0  0  0
 26 24  1  0  0  0  0
 27 28  1  0  0  0  0
 28 25  1  0  0  0  0
 31 30  1  0  0  0  0
 31 34  1  1  0  0  0
 32 29  1  6  0  0  0
 32 31  1  0  0  0  0
 32 30  1  0  0  0  0
 33 34  1  0  0  0  0
 34 35  2  0  0  0  0
 36 44  1  0  0  0  0
 36 46  1  0  0  0  0
 37 38  1  0  0  0  0
 38 33  1  6  0  0  0
 40 45  1  0  0  0  0
 41 37  1  0  0  0  0
 42 39  1  0  0  0  0
 42 41  1  0  0  0  0
 43 38  1  0  0  0  0
 44 47  2  0  0  0  0
 45 43  2  0  0  0  0
 46 40  2  0  0  0  0
 47 42  2  0  0  0  0
M  END
>  <MODEL>
4

>  <REMARK>
 VINA RESULT:      -8.8      1.518      1.819
  Name = 
  10 active torsions:
  status: ('A' for Active; 'I' for Inactive)
    1  A    between atoms: N_3  and  C_5
    2  A    between atoms: C_6  and  C_38
    3  A    between atoms: C_12  and  O_18
    4  A    between atoms: N_16  and  N_24
    5  A    between atoms: N_16  and  N_32
    6  A    between atoms: O_18  and  C_41
    7  A    between atoms: C_21  and  C_26
    8  A    between atoms: C_21  and  C_45
    9  A    between atoms: C_27  and  N_32
   10  A    between atoms: C_29  and  C_39
                            x       y       z     vdW  Elec       q    Type
                         _______ _______ _______ _____ _____    ______ ____

>  <TORSDO>
F 10

$$$$
=
 OpenBabel11042415203D

 47 53  0  0  1  0  0  0  0  0999 V2000
  190.6990  175.2160  146.5040 C   0  0  1  0  0  3  0  0  0  0  0  0
  189.2450  175.3760  146.5630 C   0  0  2  0  0  0  0  0  0  0  0  0
  189.8690  174.7860  145.3580 N   0  0  0  0  0  0  0  0  0  0  0  0
  191.2420  176.6420  146.3200 C   0  0  2  0  0  3  0  0  0  0  0  0
  189.0050  176.8410  146.5020 C   0  0  0  0  0  0  0  0  0  0  0  0
  188.6190  174.4900  147.6380 C   0  0  0  0  0  1  0  0  0  0  0  0
  190.0880  177.5210  146.3570 N   0  0  0  0  0  0  0  0  0  0  0  0
  185.1640  178.6690  146.5500 C   0  0  0  0  0  3  0  0  0  0  0  0
  186.8430  177.3980  145.3840 C   0  0  0  0  0  3  0  0  0  0  0  0
  187.6740  177.4750  146.5090 C   0  0  0  0  0  0  0  0  0  0  0  0
  185.5820  177.9960  145.3930 C   0  0  0  0  0  0  0  0  0  0  0  0
  187.2110  178.1580  147.6380 C   0  0  0  0  0  3  0  0  0  0  0  0
  185.9790  178.7340  147.6360 N   0  0  0  0  0  0  0  0  0  0  0  0
  184.7780  177.9100  144.2480 O   0  0  0  0  0  0  0  0  0  0  0  0
  185.1060  178.5080  142.9960 C   0  0  0  0  0  0  0  0  0  0  0  0
  183.9630  178.6660  142.2330 F   0  0  0  0  0  0  0  0  0  0  0  0
  186.0170  177.7170  142.3160 F   0  0  0  0  0  0  0  0  0  0  0  0
  185.6700  179.7500  143.2220 F   0  0  0  0  0  0  0  0  0  0  0  0
  189.7930  173.3880  145.4240 N   0  0  0  0  0  2  0  0  0  0  0  0
  189.3510  172.9420  144.1650 N   0  0  0  0  0  2  0  0  0  0  0  0
  190.2710  172.7200  141.0600 C   0  0  2  0  0  3  0  0  0  0  0  0
  190.3540  171.7440  142.2290 C   0  0  0  0  0  2  0  0  0  0  0  0
  191.5310  172.5150  140.2040 C   0  0  0  0  0  2  0  0  0  0  0  0
  190.2880  173.8900  142.0650 C   0  0  1  0  0  3  0  0  0  0  0  0
  192.3210  173.7900  139.9640 C   0  0  0  0  0  2  0  0  0  0  0  0
  190.4680  172.9060  143.2100 C   0  0  1  0  0  3  0  0  0  0  0  0
  191.4280  174.9150  141.9590 C   0  0  0  0  0  2  0  0  0  0  0  0
  192.6890  174.3800  141.3080 C   0  0  0  0  0  2  0  0  0  0  0  0
  191.9930  176.7910  145.0030 C   0  0  0  0  0  2  0  0  0  0  0  0
  194.1360  176.3410  146.1450 C   0  0  0  0  0  2  0  0  0  0  0  0
  194.4440  176.7910  144.7330 C   0  0  2  0  0  3  0  0  0  0  0  0
  193.2310  175.9190  145.0080 C   0  0  2  0  0  3  0  0  0  0  0  0
  195.4960  174.5330  144.2710 N   0  0  0  0  0  2  0  0  0  0  0  0
  195.5290  175.9560  144.1370 C   0  0  0  0  0  0  0  0  0  0  0  0
  196.4890  176.5170  143.5430 O   0  0  0  0  0  0  0  0  0  0  0  0
  193.0050  169.9680  143.9200 C   0  0  0  0  0  2  0  0  0  0  0  0
  196.9690  172.5700  144.7920 C   0  0  0  0  0  2  0  0  0  0  0  0
  196.5830  173.6830  143.7970 C   0  0  1  0  0  3  0  0  0  0  0  0
  196.8160  170.1390  146.7990 O   0  0  0  0  0  1  0  0  0  0  0  0
  194.5040  171.6690  143.0480 C   0  0  0  0  0  3  0  0  0  0  0  0
  195.8450  172.2000  145.7630 C   0  0  0  0  0  2  0  0  0  0  0  0
  195.8240  170.7310  146.0280 C   0  0  0  0  0  0  0  0  0  0  0  0
  196.3070  173.1800  142.3990 C   0  0  0  0  0  3  0  0  0  0  0  0
  193.8960  169.3300  144.9530 C   0  0  0  0  0  3  0  0  0  0  0  0
  195.3830  172.2800  142.0590 C   0  0  0  0  0  3  0  0  0  0  0  0
  193.7990  170.5770  142.8020 C   0  0  0  0  0  3  0  0  0  0  0  0
  194.8600  170.0070  145.5260 C   0  0  0  0  0  0  0  0  0  0  0  0
  1  3  1  6  0  0  0
  1  2  1  0  0  0  0
  2  6  1  1  0  0  0
  3 19  1  0  0  0  0
  3  2  1  0  0  0  0
  4 29  1  6  0  0  0
  4  7  1  0  0  0  0
  4  1  1  0  0  0  0
  5 10  1  0  0  0  0
  5  2  1  0  0  0  0
  7  5  2  0  0  0  0
  8 13  1  0  0  0  0
  9 11  1  0  0  0  0
  9 10  2  0  0  0  0
 10 12  1  0  0  0  0
 11  8  2  0  0  0  0
 13 12  2  0  0  0  0
 14 11  1  0  0  0  0
 15 18  1  0  0  0  0
 15 14  1  0  0  0  0
 16 15  1  0  0  0  0
 17 15  1  0  0  0  0
 20 19  1  0  0  0  0
 21 23  1  6  0  0  0
 21 24  1  0  0  0  0
 21 22  1  0  0  0  0
 22 26  1  0  0  0  0
 24 27  1  6  0  0  0
 24 26  1  0  0  0  0
 25 23  1  0  0  0  0
 25 28  1  0  0  0  0
 26 20  1  1  0  0  0
 28 27  1  0  0  0  0
 31 34  1  6  0  0  0
 31 32  1  0  0  0  0
 31 30  1  0  0  0  0
 32 29  1  1  0  0  0
 32 30  1  0  0  0  0
 34 33  1  0  0  0  0
 35 34  2  0  0  0  0
 36 44  1  0  0  0  0
 37 41  1  0  0  0  0
 38 33  1  1  0  0  0
 38 37  1  0  0  0  0
 41 42  1  0  0  0  0
 42 39  1  0  0  0  0
 43 38  1  0  0  0  0
 44 47  2  0  0  0  0
 45 43  2  0  0  0  0
 45 40  1  0  0  0  0
 46 40  2  0  0  0  0
 46 36  1  0  0  0  0
 47 42  2  0  0  0  0
M  END
>  <MODEL>
5

>  <REMARK>
 VINA RESULT:      -8.5      3.714      7.170
  Name = 
  10 active torsions:
  status: ('A' for Active; 'I' for Inactive)
    1  A    between atoms: N_3  and  C_5
    2  A    between atoms: C_6  and  C_38
    3  A    between atoms: C_12  and  O_18
    4  A    between atoms: N_16  and  N_24
    5  A    between atoms: N_16  and  N_32
    6  A    between atoms: O_18  and  C_41
    7  A    between atoms: C_21  and  C_26
    8  A    between atoms: C_21  and  C_45
    9  A    between atoms: C_27  and  N_32
   10  A    between atoms: C_29  and  C_39
                            x       y       z     vdW  Elec       q    Type
                         _______ _______ _______ _____ _____    ______ ____

>  <TORSDO>
F 10

$$$$
=
 OpenBabel11042415203D

 47 53  0  0  1  0  0  0  0  0999 V2000
  190.7220  175.6600  146.0150 C   0  0  1  0  0  3  0  0  0  0  0  0
  189.3390  175.8660  145.5810 C   0  0  2  0  0  0  0  0  0  0  0  0
  190.1260  174.7510  145.0110 N   0  0  0  0  0  0  0  0  0  0  0  0
  191.5120  176.8030  145.3600 C   0  0  2  0  0  3  0  0  0  0  0  0
  189.3550  177.1250  144.7930 C   0  0  0  0  0  0  0  0  0  0  0  0
  188.3450  175.6270  146.7170 C   0  0  0  0  0  1  0  0  0  0  0  0
  190.5350  177.6210  144.6640 N   0  0  0  0  0  0  0  0  0  0  0  0
  185.9720  178.8380  142.8650 C   0  0  0  0  0  3  0  0  0  0  0  0
  187.1440  178.2810  144.8920 C   0  0  0  0  0  3  0  0  0  0  0  0
  188.1770  177.7180  144.1330 C   0  0  0  0  0  0  0  0  0  0  0  0
  186.0310  178.8430  144.2660 C   0  0  0  0  0  0  0  0  0  0  0  0
  188.0700  177.7360  142.7390 C   0  0  0  0  0  3  0  0  0  0  0  0
  186.9830  178.2910  142.1400 N   0  0  0  0  0  0  0  0  0  0  0  0
  185.0090  179.3910  145.0540 O   0  0  0  0  0  0  0  0  0  0  0  0
  184.3460  178.6870  146.1020 C   0  0  0  0  0  0  0  0  0  0  0  0
  183.0090  179.0400  146.1370 F   0  0  0  0  0  0  0  0  0  0  0  0
  184.9390  178.9780  147.3180 F   0  0  0  0  0  0  0  0  0  0  0  0
  184.4450  177.3280  145.8660 F   0  0  0  0  0  0  0  0  0  0  0  0
  189.8170  173.5610  145.6840 N   0  0  0  0  0  2  0  0  0  0  0  0
  189.9160  172.5200  144.7430 N   0  0  0  0  0  2  0  0  0  0  0  0
  189.6920  171.9110  141.5620 C   0  0  2  0  0  3  0  0  0  0  0  0
  190.8750  172.2520  142.4630 C   0  0  0  0  0  2  0  0  0  0  0  0
  189.9480  172.5800  140.2030 C   0  0  0  0  0  2  0  0  0  0  0  0
  188.7610  172.6520  142.5440 C   0  0  1  0  0  3  0  0  0  0  0  0
  188.8110  173.4740  139.7370 C   0  0  0  0  0  2  0  0  0  0  0  0
  189.9640  173.0630  143.3780 C   0  0  1  0  0  3  0  0  0  0  0  0
  187.9530  173.8450  142.0110 C   0  0  0  0  0  2  0  0  0  0  0  0
  188.5680  174.5230  140.8010 C   0  0  0  0  0  2  0  0  0  0  0  0
  192.5640  176.2770  144.3930 C   0  0  0  0  0  2  0  0  0  0  0  0
  194.5550  176.2830  145.8560 C   0  0  0  0  0  2  0  0  0  0  0  0
  194.9410  175.6360  144.5430 C   0  0  2  0  0  3  0  0  0  0  0  0
  193.5590  175.4050  145.1300 C   0  0  2  0  0  3  0  0  0  0  0  0
  195.3910  173.1590  144.2470 N   0  0  0  0  0  2  0  0  0  0  0  0
  195.7860  174.4270  144.7780 C   0  0  0  0  0  0  0  0  0  0  0  0
  196.8320  174.5270  145.4740 O   0  0  0  0  0  0  0  0  0  0  0  0
  193.3090  169.9790  140.6810 C   0  0  0  0  0  2  0  0  0  0  0  0
  195.2290  170.7820  145.0300 C   0  0  0  0  0  2  0  0  0  0  0  0
  196.1280  171.9340  144.5350 C   0  0  1  0  0  3  0  0  0  0  0  0
  192.9000  168.6640  145.2570 O   0  0  0  0  0  1  0  0  0  0  0  0
  195.2030  170.9120  141.8810 C   0  0  0  0  0  3  0  0  0  0  0  0
  193.7670  170.9180  144.5990 C   0  0  0  0  0  2  0  0  0  0  0  0
  193.1790  169.5880  144.2590 C   0  0  0  0  0  0  0  0  0  0  0  0
  197.0210  171.5540  143.3780 C   0  0  0  0  0  3  0  0  0  0  0  0
  192.7500  169.0600  141.7350 C   0  0  0  0  0  3  0  0  0  0  0  0
  196.6150  171.0940  142.1920 C   0  0  0  0  0  3  0  0  0  0  0  0
  194.7840  170.1910  140.8540 C   0  0  0  0  0  3  0  0  0  0  0  0
  192.9300  169.3030  143.0090 C   0  0  0  0  0  0  0  0  0  0  0  0
  1  3  1  6  0  0  0
  2  1  1  0  0  0  0
  2  6  1  1  0  0  0
  3  2  1  0  0  0  0
  3 19  1  0  0  0  0
  4 29  1  6  0  0  0
  4  1  1  0  0  0  0
  5  2  1  0  0  0  0
  7  5  2  0  0  0  0
  7  4  1  0  0  0  0
  8 11  1  0  0  0  0
 10  5  1  0  0  0  0
 10  9  1  0  0  0  0
 11  9  2  0  0  0  0
 11 14  1  0  0  0  0
 12 10  2  0  0  0  0
 13 12  1  0  0  0  0
 13  8  2  0  0  0  0
 14 15  1  0  0  0  0
 15 16  1  0  0  0  0
 15 17  1  0  0  0  0
 18 15  1  0  0  0  0
 20 19  1  0  0  0  0
 21 23  1  6  0  0  0
 21 22  1  0  0  0  0
 21 24  1  0  0  0  0
 22 26  1  0  0  0  0
 24 27  1  6  0  0  0
 24 26  1  0  0  0  0
 25 23  1  0  0  0  0
 25 28  1  0  0  0  0
 26 20  1  1  0  0  0
 28 27  1  0  0  0  0
 31 34  1  1  0  0  0
 31 32  1  0  0  0  0
 31 30  1  0  0  0  0
 32 29  1  6  0  0  0
 32 30  1  0  0  0  0
 33 34  1  0  0  0  0
 34 35  2  0  0  0  0
 36 46  1  0  0  0  0
 36 44  1  0  0  0  0
 38 33  1  6  0  0  0
 38 37  1  0  0  0  0
 40 45  1  0  0  0  0
 41 37  1  0  0  0  0
 42 41  1  0  0  0  0
 42 39  1  0  0  0  0
 43 38  1  0  0  0  0
 44 47  2  0  0  0  0
 45 43  2  0  0  0  0
 46 40  2  0  0  0  0
 47 42  2  0  0  0  0
M  END
>  <MODEL>
6

>  <REMARK>
 VINA RESULT:      -8.3      3.855      6.924
  Name = 
  10 active torsions:
  status: ('A' for Active; 'I' for Inactive)
    1  A    between atoms: N_3  and  C_5
    2  A    between atoms: C_6  and  C_38
    3  A    between atoms: C_12  and  O_18
    4  A    between atoms: N_16  and  N_24
    5  A    between atoms: N_16  and  N_32
    6  A    between atoms: O_18  and  C_41
    7  A    between atoms: C_21  and  C_26
    8  A    between atoms: C_21  and  C_45
    9  A    between atoms: C_27  and  N_32
   10  A    between atoms: C_29  and  C_39
                            x       y       z     vdW  Elec       q    Type
                         _______ _______ _______ _____ _____    ______ ____

>  <TORSDO>
F 10

$$$$
=
 OpenBabel11042415203D

 47 53  0  0  1  0  0  0  0  0999 V2000
  190.9960  175.8140  142.7790 C   0  0  1  0  0  3  0  0  0  0  0  0
  190.2320  176.9370  143.3280 C   0  0  2  0  0  0  0  0  0  0  0  0
  190.7600  175.8970  144.2380 N   0  0  0  0  0  0  0  0  0  0  0  0
  189.9490  174.9370  142.0750 C   0  0  2  0  0  3  0  0  0  0  0  0
  188.8360  176.7290  142.8650 C   0  0  0  0  0  0  0  0  0  0  0  0
  190.9630  178.2650  143.1440 C   0  0  0  0  0  1  0  0  0  0  0  0
  188.6850  175.6380  142.2000 N   0  0  0  0  0  0  0  0  0  0  0  0
  185.5650  179.2820  143.8000 C   0  0  0  0  0  3  0  0  0  0  0  0
  187.3570  177.8540  144.5340 C   0  0  0  0  0  3  0  0  0  0  0  0
  187.7010  177.6100  143.1990 C   0  0  0  0  0  0  0  0  0  0  0  0
  186.2840  178.6900  144.8470 C   0  0  0  0  0  0  0  0  0  0  0  0
  186.9510  178.2240  142.1910 C   0  0  0  0  0  3  0  0  0  0  0  0
  185.9100  179.0400  142.5090 N   0  0  0  0  0  0  0  0  0  0  0  0
  185.9600  178.9070  146.1930 O   0  0  0  0  0  0  0  0  0  0  0  0
  185.2330  177.9810  146.9980 C   0  0  0  0  0  0  0  0  0  0  0  0
  184.4420  177.1770  146.1980 F   0  0  0  0  0  0  0  0  0  0  0  0
  184.4410  178.6620  147.9070 F   0  0  0  0  0  0  0  0  0  0  0  0
  186.1280  177.1840  147.6890 F   0  0  0  0  0  0  0  0  0  0  0  0
  191.9610  176.3350  144.8110 N   0  0  0  0  0  2  0  0  0  0  0  0
  192.0520  175.7350  146.0800 N   0  0  0  0  0  2  0  0  0  0  0  0
  193.8490  173.5730  144.4590 C   0  0  2  0  0  3  0  0  0  0  0  0
  192.7990  173.4210  145.5540 C   0  0  0  0  0  2  0  0  0  0  0  0
  194.9180  172.4950  144.7000 C   0  0  0  0  0  2  0  0  0  0  0  0
  194.1550  174.9920  144.9800 C   0  0  1  0  0  3  0  0  0  0  0  0
  196.3300  173.0450  144.7980 C   0  0  0  0  0  2  0  0  0  0  0  0
  193.1730  174.7860  146.1220 C   0  0  1  0  0  3  0  0  0  0  0  0
  195.5850  175.2940  145.4530 C   0  0  0  0  0  2  0  0  0  0  0  0
  196.3620  174.0730  145.9090 C   0  0  0  0  0  2  0  0  0  0  0  0
  189.8640  173.5520  142.7020 C   0  0  0  0  0  2  0  0  0  0  0  0
  190.1400  171.1300  142.3080 C   0  0  0  0  0  2  0  0  0  0  0  0
  191.5190  171.7460  142.4140 C   0  0  2  0  0  3  0  0  0  0  0  0
  190.3920  172.5100  141.7390 C   0  0  2  0  0  3  0  0  0  0  0  0
  193.5750  171.9310  140.9440 N   0  0  0  0  0  2  0  0  0  0  0  0
  192.4310  171.1870  141.3720 C   0  0  0  0  0  0  0  0  0  0  0  0
  192.1670  170.0700  140.8520 O   0  0  0  0  0  0  0  0  0  0  0  0
  197.7120  175.0100  141.6970 C   0  0  0  0  0  2  0  0  0  0  0  0
  194.7260  172.5650  138.8070 C   0  0  0  0  0  2  0  0  0  0  0  0
  194.4350  171.4740  139.8590 C   0  0  1  0  0  3  0  0  0  0  0  0
  195.5520  175.2880  137.4430 O   0  0  0  0  0  1  0  0  0  0  0  0
  196.6970  172.8490  141.2510 C   0  0  0  0  0  3  0  0  0  0  0  0
  194.5710  173.9890  139.3450 C   0  0  0  0  0  2  0  0  0  0  0  0
  195.6110  174.8960  138.7750 C   0  0  0  0  0  0  0  0  0  0  0  0
  195.6770  170.8020  140.3980 C   0  0  0  0  0  3  0  0  0  0  0  0
  197.5480  175.6660  140.3520 C   0  0  0  0  0  3  0  0  0  0  0  0
  196.6910  171.4100  141.0170 C   0  0  0  0  0  3  0  0  0  0  0  0
  197.7910  173.5160  141.5810 C   0  0  0  0  0  3  0  0  0  0  0  0
  196.5780  175.3180  139.5440 C   0  0  0  0  0  0  0  0  0  0  0  0
  1  2  1  0  0  0  0
  1  3  1  1  0  0  0
  2  6  1  1  0  0  0
  2  3  1  0  0  0  0
  3 19  1  0  0  0  0
  4  7  1  0  0  0  0
  4 29  1  1  0  0  0
  4  1  1  0  0  0  0
  5 10  1  0  0  0  0
  5  2  1  0  0  0  0
  7  5  2  0  0  0  0
  8 11  1  0  0  0  0
  9 11  2  0  0  0  0
 10  9  1  0  0  0  0
 11 14  1  0  0  0  0
 12 13  1  0  0  0  0
 12 10  2  0  0  0  0
 13  8  2  0  0  0  0
 14 15  1  0  0  0  0
 15 18  1  0  0  0  0
 15 17  1  0  0  0  0
 16 15  1  0  0  0  0
 19 20  1  0  0  0  0
 21 23  1  1  0  0  0
 21 24  1  0  0  0  0
 21 22  1  0  0  0  0
 22 26  1  0  0  0  0
 23 25  1  0  0  0  0
 24 27  1  1  0  0  0
 24 26  1  0  0  0  0
 25 28  1  0  0  0  0
 26 20  1  6  0  0  0
 27 28  1  0  0  0  0
 30 31  1  0  0  0  0
 31 34  1  6  0  0  0
 32 30  1  0  0  0  0
 32 31  1  0  0  0  0
 32 29  1  1  0  0  0
 33 34  1  0  0  0  0
 35 34  2  0  0  0  0
 37 41  1  0  0  0  0
 37 38  1  0  0  0  0
 38 43  1  0  0  0  0
 38 33  1  1  0  0  0
 39 42  1  0  0  0  0
 40 46  2  0  0  0  0
 42 41  1  0  0  0  0
 42 47  2  0  0  0  0
 43 45  2  0  0  0  0
 44 36  1  0  0  0  0
 45 40  1  0  0  0  0
 46 36  1  0  0  0  0
 47 44  2  0  0  0  0
M  END
>  <MODEL>
7

>  <REMARK>
 VINA RESULT:      -8.2      3.786      7.667
  Name = 
  10 active torsions:
  status: ('A' for Active; 'I' for Inactive)
    1  A    between atoms: N_3  and  C_5
    2  A    between atoms: C_6  and  C_38
    3  A    between atoms: C_12  and  O_18
    4  A    between atoms: N_16  and  N_24
    5  A    between atoms: N_16  and  N_32
    6  A    between atoms: O_18  and  C_41
    7  A    between atoms: C_21  and  C_26
    8  A    between atoms: C_21  and  C_45
    9  A    between atoms: C_27  and  N_32
   10  A    between atoms: C_29  and  C_39
                            x       y       z     vdW  Elec       q    Type
                         _______ _______ _______ _____ _____    ______ ____

>  <TORSDO>
F 10

$$$$
=
 OpenBabel11042415203D

 47 53  0  0  1  0  0  0  0  0999 V2000
  189.3170  174.6590  146.0750 C   0  0  1  0  0  3  0  0  0  0  0  0
  190.4730  175.4580  146.4850 C   0  0  2  0  0  0  0  0  0  0  0  0
  189.2210  176.1350  146.0810 N   0  0  0  0  0  0  0  0  0  0  0  0
  189.6910  174.1110  144.6890 C   0  0  2  0  0  3  0  0  0  0  0  0
  191.4780  175.2820  145.4050 C   0  0  0  0  0  0  0  0  0  0  0  0
  190.8140  175.2500  147.9590 C   0  0  0  0  0  1  0  0  0  0  0  0
  191.0460  174.5640  144.4290 N   0  0  0  0  0  0  0  0  0  0  0  0
  195.2950  177.1600  145.3520 C   0  0  0  0  0  3  0  0  0  0  0  0
  193.5970  175.8780  144.2260 C   0  0  0  0  0  3  0  0  0  0  0  0
  192.8040  175.9270  145.3790 C   0  0  0  0  0  0  0  0  0  0  0  0
  194.8510  176.4910  144.2020 C   0  0  0  0  0  0  0  0  0  0  0  0
  193.2930  176.6060  146.5000 C   0  0  0  0  0  3  0  0  0  0  0  0
  194.5140  177.2030  146.4630 N   0  0  0  0  0  0  0  0  0  0  0  0
  195.6250  176.4160  143.0360 O   0  0  0  0  0  0  0  0  0  0  0  0
  197.0380  176.2240  143.0270 C   0  0  0  0  0  0  0  0  0  0  0  0
  197.3940  175.2810  143.9730 F   0  0  0  0  0  0  0  0  0  0  0  0
  197.6810  177.4210  143.2940 F   0  0  0  0  0  0  0  0  0  0  0  0
  197.4240  175.7750  141.7780 F   0  0  0  0  0  0  0  0  0  0  0  0
  188.4830  176.4820  147.2210 N   0  0  0  0  0  2  0  0  0  0  0  0
  187.8470  177.7040  146.9400 N   0  0  0  0  0  2  0  0  0  0  0  0
  185.3890  179.0530  145.3040 C   0  0  2  0  0  3  0  0  0  0  0  0
  185.4340  178.1600  146.5400 C   0  0  0  0  0  2  0  0  0  0  0  0
  184.1360  178.6630  144.5050 C   0  0  0  0  0  2  0  0  0  0  0  0
  186.7310  178.4470  144.8450 C   0  0  1  0  0  3  0  0  0  0  0  0
  184.4200  178.3060  143.0560 C   0  0  0  0  0  2  0  0  0  0  0  0
  186.7100  177.4970  146.0320 C   0  0  1  0  0  3  0  0  0  0  0  0
  186.7700  177.7250  143.4890 C   0  0  0  0  0  2  0  0  0  0  0  0
  185.4300  177.1780  143.0350 C   0  0  0  0  0  2  0  0  0  0  0  0
  188.7380  174.6110  143.6110 C   0  0  0  0  0  2  0  0  0  0  0  0
  188.5650  175.3610  141.2640 C   0  0  0  0  0  2  0  0  0  0  0  0
  188.6100  173.8480  141.2690 C   0  0  2  0  0  3  0  0  0  0  0  0
  189.4370  174.6380  142.2690 C   0  0  2  0  0  3  0  0  0  0  0  0
  190.5330  172.3980  140.4790 N   0  0  0  0  0  2  0  0  0  0  0  0
  189.4990  173.3410  140.1820 C   0  0  0  0  0  0  0  0  0  0  0  0
  189.3520  173.7750  139.0080 O   0  0  0  0  0  0  0  0  0  0  0  0
  194.7420  171.6820  143.4700 C   0  0  0  0  0  2  0  0  0  0  0  0
  192.6790  172.9190  139.2910 C   0  0  0  0  0  2  0  0  0  0  0  0
  191.4900  171.9540  139.4720 C   0  0  1  0  0  3  0  0  0  0  0  0
  195.1490  174.7980  139.8690 O   0  0  0  0  0  1  0  0  0  0  0  0
  193.2050  170.9840  141.7230 C   0  0  0  0  0  3  0  0  0  0  0  0
  192.9460  173.7990  140.5140 C   0  0  0  0  0  2  0  0  0  0  0  0
  194.4100  173.9950  140.7280 C   0  0  0  0  0  0  0  0  0  0  0  0
  191.9020  170.5200  139.7120 C   0  0  0  0  0  3  0  0  0  0  0  0
  195.5220  172.7390  142.7340 C   0  0  0  0  0  3  0  0  0  0  0  0
  192.6690  170.0810  140.7120 C   0  0  0  0  0  3  0  0  0  0  0  0
  194.1920  170.6450  142.5350 C   0  0  0  0  0  3  0  0  0  0  0  0
  194.9910  173.4000  141.7360 C   0  0  0  0  0  0  0  0  0  0  0  0
  1  3  1  6  0  0  0
  1  2  1  0  0  0  0
  2  6  1  1  0  0  0
  3  2  1  0  0  0  0
  3 19  1  0  0  0  0
  4 29  1  6  0  0  0
  4  1  1  0  0  0  0
  5  2  1  0  0  0  0
  7  4  1  0  0  0  0
  7  5  2  0  0  0  0
  8 13  1  0  0  0  0
  9 10  2  0  0  0  0
 10  5  1  0  0  0  0
 10 12  1  0  0  0  0
 11  9  1  0  0  0  0
 11  8  2  0  0  0  0
 13 12  2  0  0  0  0
 14 11  1  0  0  0  0
 15 14  1  0  0  0  0
 15 17  1  0  0  0  0
 15 16  1  0  0  0  0
 18 15  1  0  0  0  0
 20 19  1  0  0  0  0
 21 23  1  6  0  0  0
 21 22  1  0  0  0  0
 24 27  1  6  0  0  0
 24 21  1  0  0  0  0
 24 26  1  0  0  0  0
 25 23  1  0  0  0  0
 26 22  1  0  0  0  0
 26 20  1  1  0  0  0
 28 25  1  0  0  0  0
 28 27  1  0  0  0  0
 30 31  1  0  0  0  0
 30 32  1  0  0  0  0
 31 34  1  6  0  0  0
 31 32  1  0  0  0  0
 32 29  1  1  0  0  0
 34 33  1  0  0  0  0
 35 34  2  0  0  0  0
 37 38  1  0  0  0  0
 37 41  1  0  0  0  0
 38 43  1  0  0  0  0
 38 33  1  1  0  0  0
 39 42  1  0  0  0  0
 40 46  2  0  0  0  0
 41 42  1  0  0  0  0
 42 47  2  0  0  0  0
 43 45  2  0  0  0  0
 44 36  1  0  0  0  0
 45 40  1  0  0  0  0
 46 36  1  0  0  0  0
 47 44  2  0  0  0  0
M  END
>  <MODEL>
8

>  <REMARK>
 VINA RESULT:      -8.2      3.193      6.325
  Name = 
  10 active torsions:
  status: ('A' for Active; 'I' for Inactive)
    1  A    between atoms: N_3  and  C_5
    2  A    between atoms: C_6  and  C_38
    3  A    between atoms: C_12  and  O_18
    4  A    between atoms: N_16  and  N_24
    5  A    between atoms: N_16  and  N_32
    6  A    between atoms: O_18  and  C_41
    7  A    between atoms: C_21  and  C_26
    8  A    between atoms: C_21  and  C_45
    9  A    between atoms: C_27  and  N_32
   10  A    between atoms: C_29  and  C_39
                            x       y       z     vdW  Elec       q    Type
                         _______ _______ _______ _____ _____    ______ ____

>  <TORSDO>
F 10

$$$$
=
 OpenBabel11042415203D

 47 53  0  0  1  0  0  0  0  0999 V2000
  191.7480  170.5140  140.5350 C   0  0  1  0  0  3  0  0  0  0  0  0
  193.0000  171.2400  140.7580 C   0  0  2  0  0  0  0  0  0  0  0  0
  192.0400  171.0770  141.8720 N   0  0  0  0  0  0  0  0  0  0  0  0
  190.8910  171.4640  139.6850 C   0  0  2  0  0  3  0  0  0  0  0  0
  192.8690  172.5020  139.9840 C   0  0  0  0  0  0  0  0  0  0  0  0
  194.2170  170.3260  140.6290 C   0  0  0  0  0  1  0  0  0  0  0  0
  191.7200  172.6250  139.4170 N   0  0  0  0  0  0  0  0  0  0  0  0
  195.8290  175.5510  139.8120 C   0  0  0  0  0  3  0  0  0  0  0  0
  194.0250  174.4740  140.9870 C   0  0  0  0  0  3  0  0  0  0  0  0
  193.8900  173.5640  139.9320 C   0  0  0  0  0  0  0  0  0  0  0  0
  194.9940  175.4780  140.9360 C   0  0  0  0  0  0  0  0  0  0  0  0
  194.7470  173.6800  138.8320 C   0  0  0  0  0  3  0  0  0  0  0  0
  195.6890  174.6600  138.7960 N   0  0  0  0  0  0  0  0  0  0  0  0
  195.0990  176.3790  142.0030 O   0  0  0  0  0  0  0  0  0  0  0  0
  196.0800  176.2850  143.0340 C   0  0  0  0  0  0  0  0  0  0  0  0
  197.0130  177.2970  142.8930 F   0  0  0  0  0  0  0  0  0  0  0  0
  196.7120  175.0540  142.9770 F   0  0  0  0  0  0  0  0  0  0  0  0
  195.4590  176.4150  144.2620 F   0  0  0  0  0  0  0  0  0  0  0  0
  192.4320  170.0010  142.6800 N   0  0  0  0  0  2  0  0  0  0  0  0
  192.5650  170.4980  143.9890 N   0  0  0  0  0  2  0  0  0  0  0  0
  194.2670  172.6930  145.6680 C   0  0  2  0  0  3  0  0  0  0  0  0
  193.6410  172.7230  144.2770 C   0  0  0  0  0  2  0  0  0  0  0  0
  195.5780  173.4910  145.5930 C   0  0  0  0  0  2  0  0  0  0  0  0
  194.3740  171.1580  145.5620 C   0  0  1  0  0  3  0  0  0  0  0  0
  196.7930  172.7200  146.0800 C   0  0  0  0  0  2  0  0  0  0  0  0
  193.8370  171.2160  144.1410 C   0  0  1  0  0  3  0  0  0  0  0  0
  195.7700  170.5230  145.6610 C   0  0  0  0  0  2  0  0  0  0  0  0
  196.9040  171.4490  145.2640 C   0  0  0  0  0  2  0  0  0  0  0  0
  189.6130  171.8680  140.4090 C   0  0  0  0  0  2  0  0  0  0  0  0
  189.1520  173.0100  142.5500 C   0  0  0  0  0  2  0  0  0  0  0  0
  188.5100  173.8180  141.4420 C   0  0  2  0  0  3  0  0  0  0  0  0
  189.8460  173.1310  141.2100 C   0  0  2  0  0  3  0  0  0  0  0  0
  189.6670  175.7260  142.6430 N   0  0  0  0  0  2  0  0  0  0  0  0
  188.7350  175.2780  141.6540 C   0  0  0  0  0  0  0  0  0  0  0  0
  188.0740  176.1120  140.9800 O   0  0  0  0  0  0  0  0  0  0  0  0
  192.2250  175.3400  147.1680 C   0  0  0  0  0  2  0  0  0  0  0  0
  189.1110  177.5760  144.2430 C   0  0  0  0  0  2  0  0  0  0  0  0
  189.8450  177.1390  142.9580 C   0  0  1  0  0  3  0  0  0  0  0  0
  188.0760  177.7110  147.2220 O   0  0  0  0  0  1  0  0  0  0  0  0
  191.9020  176.2970  144.9590 C   0  0  0  0  0  3  0  0  0  0  0  0
  188.8410  176.4250  145.2150 C   0  0  0  0  0  2  0  0  0  0  0  0
  189.0060  176.8660  146.6320 C   0  0  0  0  0  0  0  0  0  0  0  0
  191.3060  177.5200  142.9330 C   0  0  0  0  0  3  0  0  0  0  0  0
  191.1200  176.0310  147.9240 C   0  0  0  0  0  3  0  0  0  0  0  0
  192.2290  177.1500  143.8240 C   0  0  0  0  0  3  0  0  0  0  0  0
  192.7000  176.1600  146.0050 C   0  0  0  0  0  3  0  0  0  0  0  0
  190.0390  176.4460  147.3120 C   0  0  0  0  0  0  0  0  0  0  0  0
  1  2  1  0  0  0  0
  1  3  1  1  0  0  0
  2  6  1  1  0  0  0
  2  3  1  0  0  0  0
  3 19  1  0  0  0  0
  4 29  1  1  0  0  0
  4  1  1  0  0  0  0
  5  2  1  0  0  0  0
  7  4  1  0  0  0  0
  7  5  2  0  0  0  0
  8 11  1  0  0  0  0
 10  5  1  0  0  0  0
 10  9  1  0  0  0  0
 11  9  2  0  0  0  0
 11 14  1  0  0  0  0
 12 10  2  0  0  0  0
 13 12  1  0  0  0  0
 13  8  2  0  0  0  0
 14 15  1  0  0  0  0
 15 18  1  0  0  0  0
 16 15  1  0  0  0  0
 17 15  1  0  0  0  0
 19 20  1  0  0  0  0
 21 22  1  6  0  0  0
 23 21  1  0  0  0  0
 23 25  1  0  0  0  0
 24 27  1  6  0  0  0
 24 21  1  0  0  0  0
 26 20  1  1  0  0  0
 26 22  1  0  0  0  0
 26 24  1  0  0  0  0
 28 27  1  0  0  0  0
 28 25  1  0  0  0  0
 31 34  1  1  0  0  0
 31 30  1  0  0  0  0
 32 29  1  6  0  0  0
 32 31  1  0  0  0  0
 32 30  1  0  0  0  0
 34 33  1  0  0  0  0
 35 34  2  0  0  0  0
 36 44  1  0  0  0  0
 37 41  1  0  0  0  0
 38 33  1  1  0  0  0
 38 37  1  0  0  0  0
 40 46  2  0  0  0  0
 41 42  1  0  0  0  0
 42 39  1  0  0  0  0
 42 47  2  0  0  0  0
 43 38  1  0  0  0  0
 43 45  2  0  0  0  0
 45 40  1  0  0  0  0
 46 36  1  0  0  0  0
 47 44  2  0  0  0  0
M  END
>  <MODEL>
9

>  <REMARK>
 VINA RESULT:      -8.2      3.380      7.906
  Name = 
  10 active torsions:
  status: ('A' for Active; 'I' for Inactive)
    1  A    between atoms: N_3  and  C_5
    2  A    between atoms: C_6  and  C_38
    3  A    between atoms: C_12  and  O_18
    4  A    between atoms: N_16  and  N_24
    5  A    between atoms: N_16  and  N_32
    6  A    between atoms: O_18  and  C_41
    7  A    between atoms: C_21  and  C_26
    8  A    between atoms: C_21  and  C_45
    9  A    between atoms: C_27  and  N_32
   10  A    between atoms: C_29  and  C_39
                            x       y       z     vdW  Elec       q    Type
                         _______ _______ _______ _____ _____    ______ ____

>  <TORSDO>
F 10

$$$$
