=
 OpenBabel11042417223D

 26 29  0  0  1  0  0  0  0  0999 V2000
  187.0110  177.6650  144.4380 C   0  0  0  0  0  0  0  0  0  0  0  0
  187.9050  177.1490  142.2430 C   0  0  0  0  0  3  0  0  0  0  0  0
  189.1740  175.8980  146.0390 N   0  0  2  0  0  0  0  0  0  0  0  0
  190.2500  176.1590  146.9840 C   0  0  0  0  0  2  0  0  0  0  0  0
  188.1080  177.5780  143.5610 C   0  0  0  0  0  0  0  0  0  0  0  0
  190.0890  175.0000  143.9420 C   0  0  0  0  0  2  0  0  0  0  0  0
  191.1470  176.1190  143.9160 C   0  0  1  0  0  3  0  0  0  0  0  0
  185.5740  176.8930  142.6770 N   0  0  0  0  0  0  0  0  0  0  0  0
  186.6200  176.8130  141.8150 C   0  0  0  0  0  3  0  0  0  0  0  0
  185.7400  177.2990  143.9630 C   0  0  0  0  0  3  0  0  0  0  0  0
  191.3360  176.9990  146.3240 C   0  0  0  0  0  2  0  0  0  0  0  0
  186.1230  178.9240  146.3960 C   0  0  0  0  0  3  0  0  0  0  0  0
  187.9650  175.6480  146.8070 C   0  0  0  0  0  2  0  0  0  0  0  0
  189.4260  177.9020  144.0210 N   0  0  0  0  0  2  0  0  0  0  0  0
  187.0740  176.8540  146.7850 C   0  0  0  0  0  0  0  0  0  0  0  0
  190.6340  177.4490  143.3420 C   0  0  0  0  0  2  0  0  0  0  0  0
  187.2180  178.0420  145.8850 C   0  0  1  0  0  3  0  0  0  0  0  0
  185.4820  178.3250  147.3900 C   0  0  0  0  0  3  0  0  0  0  0  0
  192.0190  176.2360  145.1880 C   0  0  2  0  0  3  0  0  0  0  0  0
  189.5160  174.6770  145.3260 C   0  0  0  0  0  2  0  0  0  0  0  0
  186.0810  177.0210  147.6410 C   0  0  0  0  0  3  0  0  0  0  0  0
  193.4150  176.8040  144.9220 C   0  0  2  0  0  3  0  0  0  0  0  0
  193.9740  176.2770  143.7540 O   0  0  0  0  0  1  0  0  0  0  0  0
  194.8510  175.3310  146.3480 O   0  0  0  0  0  0  0  0  0  0  0  0
  194.6020  177.5530  146.8480 O   0  0  0  0  0  1  0  0  0  0  0  0
  194.3300  176.5910  146.0840 C   0  0  0  0  0  0  0  0  0  0  0  0
  1 17  1  0  0  0  0
  2  5  1  0  0  0  0
  3 20  1  1  0  0  0
  3 13  1  0  0  0  0
  3  4  1  0  0  0  0
  5 14  1  0  0  0  0
  5  1  2  0  0  0  0
  6 20  1  0  0  0  0
  7 16  1  1  0  0  0
  7  6  1  0  0  0  0
  7 19  1  0  0  0  0
  8 10  2  0  0  0  0
  9  2  2  0  0  0  0
  9  8  1  0  0  0  0
 10  1  1  0  0  0  0
 11  4  1  0  0  0  0
 12 18  2  0  0  0  0
 15 13  1  0  0  0  0
 15 21  2  0  0  0  0
 16 14  1  0  0  0  0
 17 12  1  1  0  0  0
 17 15  1  0  0  0  0
 18 21  1  0  0  0  0
 19 22  1  6  0  0  0
 19 11  1  0  0  0  0
 22 23  1  6  0  0  0
 22 26  1  0  0  0  0
 26 24  2  0  0  0  0
 26 25  1  0  0  0  0
M  END
>  <MODEL>
1

>  <REMARK>
 VINA RESULT:      -7.9      0.000      0.000
  Name = 
  2 active torsions:
  status: ('A' for Active; 'I' for Inactive)
    1  A    between atoms: C_1  and  C_12
    2  A    between atoms: C_1  and  C_23
                            x       y       z     vdW  Elec       q    Type
                         _______ _______ _______ _____ _____    ______ ____

>  <TORSDO>
F 2

$$$$
=
 OpenBabel11042417223D

 26 29  0  0  1  0  0  0  0  0999 V2000
  186.6150  178.2820  143.2170 C   0  0  0  0  0  0  0  0  0  0  0  0
  187.8760  177.7170  141.2250 C   0  0  0  0  0  3  0  0  0  0  0  0
  188.2430  176.2880  145.1500 N   0  0  2  0  0  0  0  0  0  0  0  0
  189.1290  176.4260  146.2970 C   0  0  0  0  0  2  0  0  0  0  0  0
  187.8520  178.1030  142.5710 C   0  0  0  0  0  0  0  0  0  0  0  0
  189.4710  175.3380  143.2440 C   0  0  0  0  0  2  0  0  0  0  0  0
  190.6120  176.3480  143.4660 C   0  0  1  0  0  3  0  0  0  0  0  0
  185.4920  177.6820  141.1820 N   0  0  0  0  0  0  0  0  0  0  0  0
  186.6770  177.5140  140.5410 C   0  0  0  0  0  3  0  0  0  0  0  0
  185.4350  178.0490  142.4890 C   0  0  0  0  0  3  0  0  0  0  0  0
  190.3970  177.1680  145.8930 C   0  0  0  0  0  2  0  0  0  0  0  0
  185.4750  179.5900  145.0050 C   0  0  0  0  0  3  0  0  0  0  0  0
  186.8880  176.1440  145.6550 C   0  0  0  0  0  2  0  0  0  0  0  0
  189.0760  178.2890  143.2920 N   0  0  0  0  0  2  0  0  0  0  0  0
  186.1330  177.4310  145.5010 C   0  0  0  0  0  0  0  0  0  0  0  0
  190.3480  177.7310  142.8490 C   0  0  0  0  0  2  0  0  0  0  0  0
  186.5630  178.6140  144.6890 C   0  0  1  0  0  3  0  0  0  0  0  0
  184.5960  179.0410  145.8320 C   0  0  0  0  0  3  0  0  0  0  0  0
  191.2190  176.3600  144.8880 C   0  0  2  0  0  3  0  0  0  0  0  0
  188.6060  175.0500  144.4760 C   0  0  0  0  0  2  0  0  0  0  0  0
  185.0090  177.6800  146.1500 C   0  0  0  0  0  3  0  0  0  0  0  0
  192.6870  176.7940  144.9220 C   0  0  2  0  0  3  0  0  0  0  0  0
  193.3750  176.3780  143.7780 O   0  0  0  0  0  1  0  0  0  0  0  0
  194.1910  177.1660  146.8880 O   0  0  0  0  0  1  0  0  0  0  0  0
  193.2490  175.1110  146.5130 O   0  0  0  0  0  0  0  0  0  0  0  0
  193.3780  176.3100  146.1550 C   0  0  0  0  0  0  0  0  0  0  0  0
  1 17  1  0  0  0  0
  2  5  2  0  0  0  0
  3 20  1  1  0  0  0
  3 13  1  0  0  0  0
  3  4  1  0  0  0  0
  5  1  1  0  0  0  0
  5 14  1  0  0  0  0
  6  7  1  0  0  0  0
  6 20  1  0  0  0  0
  7 16  1  1  0  0  0
  7 19  1  0  0  0  0
  8 10  1  0  0  0  0
  9  8  2  0  0  0  0
  9  2  1  0  0  0  0
 10  1  2  0  0  0  0
 11  4  1  0  0  0  0
 12 18  2  0  0  0  0
 15 13  1  0  0  0  0
 15 21  2  0  0  0  0
 16 14  1  0  0  0  0
 17 12  1  6  0  0  0
 17 15  1  0  0  0  0
 18 21  1  0  0  0  0
 19 22  1  6  0  0  0
 19 11  1  0  0  0  0
 22 23  1  6  0  0  0
 22 26  1  0  0  0  0
 26 25  2  0  0  0  0
 26 24  1  0  0  0  0
M  END
>  <MODEL>
2

>  <REMARK>
 VINA RESULT:      -7.8      1.239      1.447
  Name = 
  2 active torsions:
  status: ('A' for Active; 'I' for Inactive)
    1  A    between atoms: C_1  and  C_12
    2  A    between atoms: C_1  and  C_23
                            x       y       z     vdW  Elec       q    Type
                         _______ _______ _______ _____ _____    ______ ____

>  <TORSDO>
F 2

$$$$
=
 OpenBabel11042417223D

 26 29  0  0  1  0  0  0  0  0999 V2000
  188.2380  177.4820  144.6870 C   0  0  0  0  0  0  0  0  0  0  0  0
  189.5780  177.2350  142.6810 C   0  0  0  0  0  3  0  0  0  0  0  0
  189.9330  175.3600  146.4150 N   0  0  2  0  0  0  0  0  0  0  0  0
  190.7810  175.4060  147.5970 C   0  0  0  0  0  2  0  0  0  0  0  0
  189.4980  177.4520  144.0620 C   0  0  0  0  0  0  0  0  0  0  0  0
  191.2600  174.7200  144.4470 C   0  0  0  0  0  2  0  0  0  0  0  0
  192.3340  175.7570  144.8250 C   0  0  1  0  0  3  0  0  0  0  0  0
  187.2020  177.0740  142.5600 N   0  0  0  0  0  0  0  0  0  0  0  0
  188.4100  177.0520  141.9410 C   0  0  0  0  0  3  0  0  0  0  0  0
  187.0920  177.2750  143.9000 C   0  0  0  0  0  3  0  0  0  0  0  0
  192.0130  176.2600  147.3260 C   0  0  0  0  0  2  0  0  0  0  0  0
  186.9800  178.4960  146.5830 C   0  0  0  0  0  3  0  0  0  0  0  0
  188.5770  175.0810  146.8570 C   0  0  0  0  0  2  0  0  0  0  0  0
  190.6920  177.6160  144.8390 N   0  0  0  0  0  2  0  0  0  0  0  0
  187.7520  176.3330  146.8350 C   0  0  0  0  0  0  0  0  0  0  0  0
  192.0050  177.1880  144.3710 C   0  0  0  0  0  2  0  0  0  0  0  0
  188.1310  177.6280  146.1850 C   0  0  1  0  0  3  0  0  0  0  0  0
  186.1150  177.8030  147.3100 C   0  0  0  0  0  3  0  0  0  0  0  0
  192.9050  175.6280  146.2560 C   0  0  2  0  0  3  0  0  0  0  0  0
  190.3840  174.2360  145.6080 C   0  0  0  0  0  2  0  0  0  0  0  0
  186.6000  176.4390  147.4750 C   0  0  0  0  0  3  0  0  0  0  0  0
  194.3440  176.1350  146.3880 C   0  0  2  0  0  3  0  0  0  0  0  0
  194.3930  177.5270  146.5140 O   0  0  0  0  0  1  0  0  0  0  0  0
  195.6360  176.5910  144.2920 O   0  0  0  0  0  0  0  0  0  0  0  0
  195.4880  174.4640  145.1320 O   0  0  0  0  0  1  0  0  0  0  0  0
  195.1960  175.6820  145.2470 C   0  0  0  0  0  0  0  0  0  0  0  0
  1 17  1  0  0  0  0
  2  5  2  0  0  0  0
  3 20  1  6  0  0  0
  3 13  1  0  0  0  0
  3  4  1  0  0  0  0
  5  1  1  0  0  0  0
  5 14  1  0  0  0  0
  6  7  1  0  0  0  0
  6 20  1  0  0  0  0
  7 16  1  1  0  0  0
  7 19  1  0  0  0  0
  8 10  1  0  0  0  0
  9  8  2  0  0  0  0
  9  2  1  0  0  0  0
 10  1  2  0  0  0  0
 11  4  1  0  0  0  0
 12 18  2  0  0  0  0
 15 13  1  0  0  0  0
 15 21  2  0  0  0  0
 16 14  1  0  0  0  0
 17 12  1  6  0  0  0
 17 15  1  0  0  0  0
 18 21  1  0  0  0  0
 19 22  1  6  0  0  0
 19 11  1  0  0  0  0
 22 23  1  6  0  0  0
 24 26  2  0  0  0  0
 25 26  1  0  0  0  0
 26 22  1  0  0  0  0
M  END
>  <MODEL>
3

>  <REMARK>
 VINA RESULT:      -7.6      1.178      1.655
  Name = 
  2 active torsions:
  status: ('A' for Active; 'I' for Inactive)
    1  A    between atoms: C_1  and  C_12
    2  A    between atoms: C_1  and  C_23
                            x       y       z     vdW  Elec       q    Type
                         _______ _______ _______ _____ _____    ______ ____

>  <TORSDO>
F 2

$$$$
=
 OpenBabel11042417223D

 26 29  0  0  1  0  0  0  0  0999 V2000
  187.6820  176.9220  146.1360 C   0  0  0  0  0  0  0  0  0  0  0  0
  190.0370  176.3530  146.2120 C   0  0  0  0  0  3  0  0  0  0  0  0
  187.5940  177.3110  142.9420 N   0  0  2  0  0  0  0  0  0  0  0  0
  186.9410  176.6500  141.8200 C   0  0  0  0  0  2  0  0  0  0  0  0
  188.7640  176.1580  145.6620 C   0  0  0  0  0  0  0  0  0  0  0  0
  190.0320  177.0440  142.7770 C   0  0  0  0  0  2  0  0  0  0  0  0
  189.8570  175.5360  142.5140 C   0  0  1  0  0  3  0  0  0  0  0  0
  189.1660  178.0350  147.6600 N   0  0  0  0  0  0  0  0  0  0  0  0
  190.2190  177.2990  147.2210 C   0  0  0  0  0  3  0  0  0  0  0  0
  187.9200  177.8750  147.1410 C   0  0  0  0  0  3  0  0  0  0  0  0
  187.4410  175.2160  141.6930 C   0  0  0  0  0  2  0  0  0  0  0  0
  185.2200  176.8660  146.5120 C   0  0  0  0  0  3  0  0  0  0  0  0
  186.7200  178.3810  143.3910 C   0  0  0  0  0  2  0  0  0  0  0  0
  188.5690  175.2070  144.6080 N   0  0  0  0  0  2  0  0  0  0  0  0
  186.0000  177.9780  144.6420 C   0  0  0  0  0  0  0  0  0  0  0  0
  189.6620  174.6990  143.7880 C   0  0  0  0  0  2  0  0  0  0  0  0
  186.3190  176.7920  145.5010 C   0  0  1  0  0  3  0  0  0  0  0  0
  184.4420  177.9110  146.2660 C   0  0  0  0  0  3  0  0  0  0  0  0
  188.9270  175.1740  141.3320 C   0  0  2  0  0  3  0  0  0  0  0  0
  188.8170  177.9110  142.4310 C   0  0  0  0  0  2  0  0  0  0  0  0
  184.9280  178.6130  145.0850 C   0  0  0  0  0  3  0  0  0  0  0  0
  189.2800  173.8430  140.6630 C   0  0  2  0  0  3  0  0  0  0  0  0
  190.6290  173.7890  140.2990 O   0  0  0  0  0  1  0  0  0  0  0  0
  188.2130  174.5410  138.5090 O   0  0  0  0  0  0  0  0  0  0  0  0
  187.8160  172.4620  139.3870 O   0  0  0  0  0  1  0  0  0  0  0  0
  188.4070  173.5690  139.4830 C   0  0  0  0  0  0  0  0  0  0  0  0
  1 10  1  0  0  0  0
  2  9  2  0  0  0  0
  3  4  1  6  0  0  0
  3 13  1  0  0  0  0
  5  1  2  0  0  0  0
  5  2  1  0  0  0  0
  7  6  1  1  0  0  0
  7 16  1  0  0  0  0
  9  8  1  0  0  0  0
 10  8  2  0  0  0  0
 11  4  1  0  0  0  0
 13 15  1  0  0  0  0
 14  5  1  0  0  0  0
 15 21  2  0  0  0  0
 15 17  1  0  0  0  0
 16 14  1  0  0  0  0
 17  1  1  0  0  0  0
 17 12  1  1  0  0  0
 18 12  2  0  0  0  0
 19 22  1  1  0  0  0
 19 11  1  0  0  0  0
 19  7  1  0  0  0  0
 20  6  1  0  0  0  0
 20  3  1  0  0  0  0
 21 18  1  0  0  0  0
 22 23  1  6  0  0  0
 24 26  2  0  0  0  0
 25 26  1  0  0  0  0
 26 22  1  0  0  0  0
M  END
>  <MODEL>
4

>  <REMARK>
 VINA RESULT:      -7.5      3.067      5.315
  Name = 
  2 active torsions:
  status: ('A' for Active; 'I' for Inactive)
    1  A    between atoms: C_1  and  C_12
    2  A    between atoms: C_1  and  C_23
                            x       y       z     vdW  Elec       q    Type
                         _______ _______ _______ _____ _____    ______ ____

>  <TORSDO>
F 2

$$$$
=
 OpenBabel11042417223D

 26 29  0  0  1  0  0  0  0  0999 V2000
  189.5100  173.9520  142.3080 C   0  0  0  0  0  0  0  0  0  0  0  0
  188.1270  174.7630  140.4890 C   0  0  0  0  0  3  0  0  0  0  0  0
  189.7200  176.8040  143.7870 N   0  0  2  0  0  0  0  0  0  0  0  0
  189.2800  177.3640  145.0570 C   0  0  0  0  0  2  0  0  0  0  0  0
  188.3790  174.6600  141.8630 C   0  0  0  0  0  0  0  0  0  0  0  0
  188.5740  177.9280  141.9250 C   0  0  0  0  0  2  0  0  0  0  0  0
  187.2220  177.7510  142.6410 C   0  0  1  0  0  3  0  0  0  0  0  0
  190.0910  173.4940  140.0240 N   0  0  0  0  0  0  0  0  0  0  0  0
  188.9990  174.1650  139.5790 C   0  0  0  0  0  3  0  0  0  0  0  0
  190.3670  173.3820  141.3500 C   0  0  0  0  0  3  0  0  0  0  0  0
  187.7580  177.3720  145.1270 C   0  0  0  0  0  2  0  0  0  0  0  0
  190.3760  172.5610  144.1840 C   0  0  0  0  0  3  0  0  0  0  0  0
  191.0590  176.2740  143.9810 C   0  0  0  0  0  2  0  0  0  0  0  0
  187.5050  175.2920  142.8080 N   0  0  0  0  0  2  0  0  0  0  0  0
  191.0180  174.7800  144.1010 C   0  0  0  0  0  0  0  0  0  0  0  0
  186.5880  176.3650  142.4420 C   0  0  0  0  0  2  0  0  0  0  0  0
  189.8490  173.9010  143.7780 C   0  0  1  0  0  3  0  0  0  0  0  0
  191.6170  172.6780  144.6370 C   0  0  0  0  0  3  0  0  0  0  0  0
  187.1570  178.3120  144.0810 C   0  0  2  0  0  3  0  0  0  0  0  0
  189.8040  177.9050  142.8400 C   0  0  0  0  0  2  0  0  0  0  0  0
  192.0240  174.0760  144.5900 C   0  0  0  0  0  3  0  0  0  0  0  0
  185.7520  178.7550  144.5000 C   0  0  2  0  0  3  0  0  0  0  0  0
  185.5480  180.1180  144.2640 O   0  0  0  0  0  1  0  0  0  0  0  0
  184.8150  177.2440  146.2620 O   0  0  0  0  0  0  0  0  0  0  0  0
  185.8020  179.2310  146.8350 O   0  0  0  0  0  1  0  0  0  0  0  0
  185.4710  178.4230  145.9290 C   0  0  0  0  0  0  0  0  0  0  0  0
  1 17  1  0  0  0  0
  2  5  2  0  0  0  0
  3 20  1  6  0  0  0
  3 13  1  0  0  0  0
  3  4  1  0  0  0  0
  4 11  1  0  0  0  0
  5  1  1  0  0  0  0
  5 14  1  0  0  0  0
  6 20  1  0  0  0  0
  7  6  1  1  0  0  0
  7 19  1  0  0  0  0
  8 10  1  0  0  0  0
  9  8  2  0  0  0  0
  9  2  1  0  0  0  0
 10  1  2  0  0  0  0
 12 18  2  0  0  0  0
 13 15  1  0  0  0  0
 15 21  2  0  0  0  0
 16  7  1  0  0  0  0
 16 14  1  0  0  0  0
 17 15  1  0  0  0  0
 17 12  1  6  0  0  0
 19 22  1  1  0  0  0
 19 11  1  0  0  0  0
 21 18  1  0  0  0  0
 22 23  1  1  0  0  0
 22 26  1  0  0  0  0
 26 24  2  0  0  0  0
 26 25  1  0  0  0  0
M  END
>  <MODEL>
5

>  <REMARK>
 VINA RESULT:      -7.1      3.826      6.093
  Name = 
  2 active torsions:
  status: ('A' for Active; 'I' for Inactive)
    1  A    between atoms: C_1  and  C_12
    2  A    between atoms: C_1  and  C_23
                            x       y       z     vdW  Elec       q    Type
                         _______ _______ _______ _____ _____    ______ ____

>  <TORSDO>
F 2

$$$$
=
 OpenBabel11042417223D

 26 29  0  0  1  0  0  0  0  0999 V2000
  186.2570  177.7260  145.0400 C   0  0  0  0  0  0  0  0  0  0  0  0
  187.1440  177.5560  147.2900 C   0  0  0  0  0  3  0  0  0  0  0  0
  189.0970  177.2840  143.5900 N   0  0  2  0  0  0  0  0  0  0  0  0
  189.6900  176.2730  142.7260 C   0  0  0  0  0  2  0  0  0  0  0  0
  187.0320  177.0400  145.9930 C   0  0  0  0  0  0  0  0  0  0  0  0
  190.2810  177.3550  145.7430 C   0  0  0  0  0  2  0  0  0  0  0  0
  190.1930  175.8220  145.8510 C   0  0  1  0  0  3  0  0  0  0  0  0
  185.7520  179.3960  146.6890 N   0  0  0  0  0  0  0  0  0  0  0  0
  186.4880  178.7410  147.6230 C   0  0  0  0  0  3  0  0  0  0  0  0
  185.6300  178.9250  145.4200 C   0  0  0  0  0  3  0  0  0  0  0  0
  189.7930  174.9450  143.4670 C   0  0  0  0  0  2  0  0  0  0  0  0
  184.8240  177.3950  143.0300 C   0  0  0  0  0  3  0  0  0  0  0  0
  188.4860  178.2880  142.7360 C   0  0  0  0  0  2  0  0  0  0  0  0
  187.7220  175.8370  145.6310 N   0  0  0  0  0  2  0  0  0  0  0  0
  186.9980  178.1070  142.6990 C   0  0  0  0  0  0  0  0  0  0  0  0
  188.8490  175.3110  146.3930 C   0  0  0  0  0  2  0  0  0  0  0  0
  186.1920  177.2370  143.6140 C   0  0  1  0  0  3  0  0  0  0  0  0
  184.8650  178.2150  141.9890 C   0  0  0  0  0  3  0  0  0  0  0  0
  190.7640  175.0390  144.6450 C   0  0  2  0  0  3  0  0  0  0  0  0
  190.1870  177.9150  144.3200 C   0  0  0  0  0  2  0  0  0  0  0  0
  186.2350  178.6640  141.7750 C   0  0  0  0  0  3  0  0  0  0  0  0
  191.2960  173.6510  145.0150 C   0  0  2  0  0  3  0  0  0  0  0  0
  192.6530  173.5190  144.7070 O   0  0  0  0  0  1  0  0  0  0  0  0
  189.3530  172.0730  144.9730 O   0  0  0  0  0  1  0  0  0  0  0  0
  190.8980  172.0680  143.2790 O   0  0  0  0  0  0  0  0  0  0  0  0
  190.5030  172.5640  144.3660 C   0  0  0  0  0  0  0  0  0  0  0  0
  1 10  2  0  0  0  0
  1  5  1  0  0  0  0
  2  9  1  0  0  0  0
  3  4  1  6  0  0  0
  3 20  1  0  0  0  0
  4 11  1  0  0  0  0
  5  2  2  0  0  0  0
  7  6  1  6  0  0  0
  7 16  1  0  0  0  0
  8  9  2  0  0  0  0
 10  8  1  0  0  0  0
 11 19  1  0  0  0  0
 13  3  1  0  0  0  0
 14  5  1  0  0  0  0
 14 16  1  0  0  0  0
 15 13  1  0  0  0  0
 15 17  1  0  0  0  0
 17 12  1  6  0  0  0
 17  1  1  0  0  0  0
 18 12  2  0  0  0  0
 19 22  1  1  0  0  0
 19  7  1  0  0  0  0
 20  6  1  0  0  0  0
 21 18  1  0  0  0  0
 21 15  2  0  0  0  0
 22 23  1  6  0  0  0
 25 26  2  0  0  0  0
 26 24  1  0  0  0  0
 26 22  1  0  0  0  0
M  END
>  <MODEL>
6

>  <REMARK>
 VINA RESULT:      -6.8      2.339      4.318
  Name = 
  2 active torsions:
  status: ('A' for Active; 'I' for Inactive)
    1  A    between atoms: C_1  and  C_12
    2  A    between atoms: C_1  and  C_23
                            x       y       z     vdW  Elec       q    Type
                         _______ _______ _______ _____ _____    ______ ____

>  <TORSDO>
F 2

$$$$
=
 OpenBabel11042417223D

 26 29  0  0  1  0  0  0  0  0999 V2000
  190.6230  174.1290  142.8510 C   0  0  0  0  0  0  0  0  0  0  0  0
  189.2040  174.1660  140.8850 C   0  0  0  0  0  3  0  0  0  0  0  0
  189.7610  177.0600  143.8670 N   0  0  2  0  0  0  0  0  0  0  0  0
  189.0580  177.6080  145.0190 C   0  0  0  0  0  2  0  0  0  0  0  0
  189.3620  174.3450  142.2650 C   0  0  0  0  0  0  0  0  0  0  0  0
  188.4670  177.4620  141.8170 C   0  0  0  0  0  2  0  0  0  0  0  0
  187.1940  176.9400  142.5090 C   0  0  1  0  0  3  0  0  0  0  0  0
  191.5080  173.5820  140.6880 N   0  0  0  0  0  0  0  0  0  0  0  0
  190.2960  173.7770  140.1080 C   0  0  0  0  0  3  0  0  0  0  0  0
  191.6950  173.7550  142.0230 C   0  0  0  0  0  3  0  0  0  0  0  0
  187.6180  177.1120  145.0390 C   0  0  0  0  0  2  0  0  0  0  0  0
  191.7410  173.3870  144.9500 C   0  0  0  0  0  3  0  0  0  0  0  0
  191.1790  177.0460  144.1840 C   0  0  0  0  0  2  0  0  0  0  0  0
  188.2550  174.7690  143.0710 N   0  0  0  0  0  2  0  0  0  0  0  0
  191.6220  175.6570  144.5370 C   0  0  0  0  0  0  0  0  0  0  0  0
  187.0690  175.4080  142.5120 C   0  0  0  0  0  2  0  0  0  0  0  0
  190.8380  174.3990  144.3210 C   0  0  1  0  0  3  0  0  0  0  0  0
  192.8330  173.9760  145.4170 C   0  0  0  0  0  3  0  0  0  0  0  0
  186.8290  177.6390  143.8400 C   0  0  2  0  0  3  0  0  0  0  0  0
  189.5550  177.9820  142.7610 C   0  0  0  0  0  2  0  0  0  0  0  0
  192.7600  175.4090  145.1620 C   0  0  0  0  0  3  0  0  0  0  0  0
  185.3280  177.6360  144.1400 C   0  0  2  0  0  3  0  0  0  0  0  0
  184.5720  177.9150  142.9980 O   0  0  0  0  0  1  0  0  0  0  0  0
  184.2370  178.1540  146.3330 O   0  0  0  0  0  1  0  0  0  0  0  0
  185.3410  179.7870  145.1640 O   0  0  0  0  0  0  0  0  0  0  0  0
  184.9830  178.5840  145.2410 C   0  0  0  0  0  0  0  0  0  0  0  0
  1 17  1  0  0  0  0
  2  5  2  0  0  0  0
  3 20  1  6  0  0  0
  3 13  1  0  0  0  0
  3  4  1  0  0  0  0
  4 11  1  0  0  0  0
  5  1  1  0  0  0  0
  5 14  1  0  0  0  0
  6 20  1  0  0  0  0
  7  6  1  1  0  0  0
  7 16  1  0  0  0  0
  7 19  1  0  0  0  0
  8 10  1  0  0  0  0
  9  8  2  0  0  0  0
  9  2  1  0  0  0  0
 10  1  2  0  0  0  0
 12 18  2  0  0  0  0
 13 15  1  0  0  0  0
 15 21  2  0  0  0  0
 16 14  1  0  0  0  0
 17 15  1  0  0  0  0
 17 12  1  6  0  0  0
 19 22  1  1  0  0  0
 19 11  1  0  0  0  0
 21 18  1  0  0  0  0
 22 23  1  6  0  0  0
 22 26  1  0  0  0  0
 25 26  2  0  0  0  0
 26 24  1  0  0  0  0
M  END
>  <MODEL>
7

>  <REMARK>
 VINA RESULT:      -6.8      3.930      6.369
  Name = 
  2 active torsions:
  status: ('A' for Active; 'I' for Inactive)
    1  A    between atoms: C_1  and  C_12
    2  A    between atoms: C_1  and  C_23
                            x       y       z     vdW  Elec       q    Type
                         _______ _______ _______ _____ _____    ______ ____

>  <TORSDO>
F 2

$$$$
=
 OpenBabel11042417223D

 26 29  0  0  1  0  0  0  0  0999 V2000
  192.5140  173.9290  144.8830 C   0  0  0  0  0  0  0  0  0  0  0  0
  190.4770  172.6220  144.7360 C   0  0  0  0  0  3  0  0  0  0  0  0
  191.2390  176.5760  143.5660 N   0  0  2  0  0  0  0  0  0  0  0  0
  190.9480  177.9330  144.0060 C   0  0  0  0  0  2  0  0  0  0  0  0
  191.1320  173.8020  145.1120 C   0  0  0  0  0  0  0  0  0  0  0  0
  189.1490  175.3900  143.0470 C   0  0  0  0  0  2  0  0  0  0  0  0
  188.5410  175.8630  144.3800 C   0  0  1  0  0  3  0  0  0  0  0  0
  192.5310  171.7320  143.9160 N   0  0  0  0  0  0  0  0  0  0  0  0
  191.2000  171.5890  144.1390 C   0  0  0  0  0  3  0  0  0  0  0  0
  193.1940  172.8670  144.2630 C   0  0  0  0  0  3  0  0  0  0  0  0
  189.9070  177.9120  145.1190 C   0  0  0  0  0  2  0  0  0  0  0  0
  194.5880  174.9880  145.7670 C   0  0  0  0  0  3  0  0  0  0  0  0
  192.5730  176.5760  142.9910 C   0  0  0  0  0  2  0  0  0  0  0  0
  190.3960  174.8810  145.7030 N   0  0  0  0  0  2  0  0  0  0  0  0
  193.5580  175.9840  143.9540 C   0  0  0  0  0  0  0  0  0  0  0  0
  188.9470  175.0050  145.5900 C   0  0  0  0  0  2  0  0  0  0  0  0
  193.2240  175.2230  145.2000 C   0  0  1  0  0  3  0  0  0  0  0  0
  195.5100  175.5130  144.9710 C   0  0  0  0  0  3  0  0  0  0  0  0
  188.5610  177.3920  144.6120 C   0  0  2  0  0  3  0  0  0  0  0  0
  190.2920  176.2570  142.5080 C   0  0  0  0  0  2  0  0  0  0  0  0
  194.8640  176.1450  143.8290 C   0  0  0  0  0  3  0  0  0  0  0  0
  187.4210  177.8880  145.5070 C   0  0  2  0  0  3  0  0  0  0  0  0
  187.6740  177.6300  146.8570 O   0  0  0  0  0  1  0  0  0  0  0  0
  185.4040  176.4790  145.9630 O   0  0  0  0  0  1  0  0  0  0  0  0
  185.6480  177.5500  143.9520 O   0  0  0  0  0  0  0  0  0  0  0  0
  186.1060  177.3100  145.0990 C   0  0  0  0  0  0  0  0  0  0  0  0
  1  5  1  0  0  0  0
  1 17  1  0  0  0  0
  2  5  2  0  0  0  0
  3 20  1  6  0  0  0
  3  4  1  0  0  0  0
  4 11  1  0  0  0  0
  5 14  1  0  0  0  0
  7  6  1  6  0  0  0
  7 19  1  0  0  0  0
  7 16  1  0  0  0  0
  8  9  2  0  0  0  0
  8 10  1  0  0  0  0
  9  2  1  0  0  0  0
 10  1  2  0  0  0  0
 13  3  1  0  0  0  0
 13 15  1  0  0  0  0
 15 17  1  0  0  0  0
 16 14  1  0  0  0  0
 17 12  1  6  0  0  0
 18 12  2  0  0  0  0
 19 11  1  0  0  0  0
 19 22  1  1  0  0  0
 20  6  1  0  0  0  0
 21 15  2  0  0  0  0
 21 18  1  0  0  0  0
 22 23  1  1  0  0  0
 25 26  2  0  0  0  0
 26 22  1  0  0  0  0
 26 24  1  0  0  0  0
M  END
>  <MODEL>
8

>  <REMARK>
 VINA RESULT:      -6.6      3.466      6.681
  Name = 
  2 active torsions:
  status: ('A' for Active; 'I' for Inactive)
    1  A    between atoms: C_1  and  C_12
    2  A    between atoms: C_1  and  C_23
                            x       y       z     vdW  Elec       q    Type
                         _______ _______ _______ _____ _____    ______ ____

>  <TORSDO>
F 2

$$$$
=
 OpenBabel11042417223D

 26 29  0  0  1  0  0  0  0  0999 V2000
  188.9420  175.7180  144.4710 C   0  0  0  0  0  0  0  0  0  0  0  0
  189.5970  174.6860  146.5660 C   0  0  0  0  0  3  0  0  0  0  0  0
  191.9110  176.7000  143.7070 N   0  0  2  0  0  0  0  0  0  0  0  0
  192.8810  176.4010  142.6630 C   0  0  0  0  0  2  0  0  0  0  0  0
  189.7900  174.8550  145.1890 C   0  0  0  0  0  0  0  0  0  0  0  0
  192.7800  175.9880  145.8940 C   0  0  0  0  0  2  0  0  0  0  0  0
  193.1710  174.6210  145.3020 C   0  0  1  0  0  3  0  0  0  0  0  0
  187.7650  176.2110  146.5040 N   0  0  0  0  0  0  0  0  0  0  0  0
  188.5680  175.3750  147.2090 C   0  0  0  0  0  3  0  0  0  0  0  0
  187.9320  176.4010  145.1690 C   0  0  0  0  0  3  0  0  0  0  0  0
  193.3210  174.9460  142.7560 C   0  0  0  0  0  2  0  0  0  0  0  0
  187.9060  176.0840  142.2350 C   0  0  0  0  0  3  0  0  0  0  0  0
  191.1060  177.8210  143.2530 C   0  0  0  0  0  2  0  0  0  0  0  0
  190.8600  174.1730  144.5210 N   0  0  0  0  0  2  0  0  0  0  0  0
  189.7650  177.3450  142.7830 C   0  0  0  0  0  0  0  0  0  0  0  0
  192.0080  173.6190  145.2270 C   0  0  0  0  0  2  0  0  0  0  0  0
  189.1850  175.9810  143.0050 C   0  0  1  0  0  3  0  0  0  0  0  0
  187.7940  177.2900  141.6970 C   0  0  0  0  0  3  0  0  0  0  0  0
  194.0830  174.6760  144.0540 C   0  0  2  0  0  3  0  0  0  0  0  0
  192.6620  177.1290  144.8780 C   0  0  0  0  0  2  0  0  0  0  0  0
  188.9650  178.0870  142.0360 C   0  0  0  0  0  3  0  0  0  0  0  0
  194.9860  173.4480  143.9030 C   0  0  2  0  0  3  0  0  0  0  0  0
  194.2890  172.3550  143.3810 O   0  0  0  0  0  1  0  0  0  0  0  0
  196.5410  173.9550  145.7980 O   0  0  0  0  0  1  0  0  0  0  0  0
  195.4070  171.9650  145.7200 O   0  0  0  0  0  0  0  0  0  0  0  0
  195.6430  173.0840  145.1940 C   0  0  0  0  0  0  0  0  0  0  0  0
  1 10  2  0  0  0  0
  1  5  1  0  0  0  0
  2  9  1  0  0  0  0
  3  4  1  6  0  0  0
  3 20  1  0  0  0  0
  4 11  1  0  0  0  0
  5  2  2  0  0  0  0
  7 16  1  6  0  0  0
  7  6  1  0  0  0  0
  8  9  2  0  0  0  0
 10  8  1  0  0  0  0
 11 19  1  0  0  0  0
 13  3  1  0  0  0  0
 14  5  1  0  0  0  0
 14 16  1  0  0  0  0
 15 17  1  0  0  0  0
 15 13  1  0  0  0  0
 17 12  1  6  0  0  0
 17  1  1  0  0  0  0
 18 21  1  0  0  0  0
 18 12  2  0  0  0  0
 19 22  1  6  0  0  0
 19  7  1  0  0  0  0
 20  6  1  0  0  0  0
 21 15  2  0  0  0  0
 22 23  1  1  0  0  0
 22 26  1  0  0  0  0
 26 25  2  0  0  0  0
 26 24  1  0  0  0  0
M  END
>  <MODEL>
9

>  <REMARK>
 VINA RESULT:      -6.5      2.342      4.427
  Name = 
  2 active torsions:
  status: ('A' for Active; 'I' for Inactive)
    1  A    between atoms: C_1  and  C_12
    2  A    between atoms: C_1  and  C_23
                            x       y       z     vdW  Elec       q    Type
                         _______ _______ _______ _____ _____    ______ ____

>  <TORSDO>
F 2

$$$$
