=
 OpenBabel11042418573D

 68 79  0  0  1  0  0  0  0  0999 V2000
  190.6450  169.5970  138.1700 S   0  0  0  0  0  0  0  0  0  0  0  0
  192.4230  169.8930  138.5820 C   0  0  1  0  0  3  0  0  0  0  0  0
  190.9850  172.7470  139.8460 C   0  0  0  0  0  0  0  0  0  0  0  0
  189.4080  172.6720  143.5510 C   0  0  0  0  0  1  0  0  0  0  0  0
  190.4280  171.4120  137.9550 C   0  0  0  0  0  2  0  0  0  0  0  0
  190.5100  173.3600  140.9310 C   0  0  0  0  0  0  0  0  0  0  0  0
  190.4570  174.6230  141.8650 N   0  0  0  0  0  0  0  0  0  0  0  0
  192.5920  171.2350  139.0550 N   0  0  0  0  0  2  0  0  0  0  0  0
  190.3610  173.2650  142.3370 C   0  0  1  0  0  0  0  0  0  0  0  0
  191.4260  172.0440  138.8500 C   0  0  0  0  0  0  0  0  0  0  0  0
  189.0410  173.9950  141.4530 C   0  0  1  0  0  0  0  0  0  0  0  0
  188.1000  172.6470  141.1980 C   0  0  0  0  0  1  0  0  0  0  0  0
  187.9990  175.0760  141.9410 C   0  0  2  0  0  3  0  0  0  0  0  0
  188.3060  174.9360  140.4740 C   0  0  0  0  0  2  0  0  0  0  0  0
  187.5340  177.2850  142.6220 C   0  0  0  0  0  2  0  0  0  0  0  0
  189.2780  175.9720  145.9180 N   0  0  0  0  0  0  0  0  0  0  0  0
  188.4930  175.6670  144.6830 C   0  0  2  0  0  3  0  0  0  0  0  0
  187.8390  178.6920  147.7980 C   0  0  0  0  0  2  0  0  0  0  0  0
  189.5420  174.9460  146.8630 C   0  0  0  0  0  0  0  0  0  0  0  0
  188.6260  176.3560  142.3470 N   0  0  1  0  0  0  0  0  0  0  0  0
  189.2610  173.6190  146.5360 O   0  0  0  0  0  0  0  0  0  0  0  0
  188.1250  178.1700  146.3820 C   0  0  2  0  0  3  0  0  0  0  0  0
  186.2350  176.6340  146.9020 N   0  0  0  0  0  2  0  0  0  0  0  0
  188.4070  176.9050  143.7360 C   0  0  2  0  0  0  0  0  0  0  0  0
  186.3400  178.8750  148.0250 C   0  0  0  0  0  2  0  0  0  0  0  0
  190.1440  175.1770  147.9560 O   0  0  0  0  0  1  0  0  0  0  0  0
  186.9120  177.3760  145.8190 C   0  0  2  0  0  3  0  0  0  0  0  0
  185.5720  177.5520  147.8330 C   0  0  0  0  0  2  0  0  0  0  0  0
  189.3530  177.3380  146.3910 C   0  0  0  0  0  0  0  0  0  0  0  0
  187.2170  176.4270  144.6030 C   0  0  2  0  0  3  0  0  0  0  0  0
  190.4720  177.8200  146.7140 O   0  0  0  0  0  0  0  0  0  0  0  0
  191.9730  171.3140  142.9520 C   0  0  1  0  0  3  0  0  0  0  0  0
  191.6460  172.1460  144.0730 O   0  0  0  0  0  0  0  0  0  0  0  0
  191.7990  172.8130  142.8340 C   0  0  2  0  0  3  0  0  0  0  0  0
  192.8870  169.0860  144.6380 O   0  0  0  0  0  0  0  0  0  0  0  0
  193.3650  170.8730  143.1930 N   0  0  0  0  0  2  0  0  0  0  0  0
  193.5760  170.1190  144.3920 C   0  0  0  0  0  0  0  0  0  0  0  0
  194.5620  170.6410  145.4230 C   0  0  0  0  0  2  0  0  0  0  0  0
  194.7150  172.0780  145.3400 N   0  0  0  0  0  2  0  0  0  0  0  0
  196.1450  172.3990  145.1560 C   0  0  1  0  0  3  0  0  0  0  0  0
  196.8240  171.3830  144.4400 O   0  0  0  0  0  1  0  0  0  0  0  0
  195.6840  174.9050  145.5270 C   0  0  0  0  0  2  0  0  0  0  0  0
  196.2890  173.8350  144.5850 C   0  0  2  0  0  3  0  0  0  0  0  0
  195.3640  175.1800  142.6130 C   0  0  0  0  0  2  0  0  0  0  0  0
  194.5360  176.0400  143.5640 C   0  0  2  0  0  3  0  0  0  0  0  0
  195.5810  173.7890  143.2130 C   0  0  0  0  0  2  0  0  0  0  0  0
  195.3970  176.2110  144.8240 C   0  0  0  0  0  2  0  0  0  0  0  0
  192.4420  176.4370  144.2670 C   0  0  0  0  0  1  0  0  0  0  0  0
  193.3140  175.4250  143.8360 O   0  0  0  0  0  0  0  0  0  0  0  0
  193.0990  168.8910  139.4560 C   0  0  0  0  0  0  0  0  0  0  0  0
  192.5070  168.3930  140.4100 O   0  0  0  0  0  0  0  0  0  0  0  0
  194.3650  168.2990  138.9200 C   0  0  0  0  0  2  0  0  0  0  0  0
  195.6570  168.8680  139.4050 C   0  0  0  0  0  0  0  0  0  0  0  0
  195.6490  169.7340  140.3880 C   0  0  0  0  0  2  0  0  0  0  0  0
  196.6820  168.9910  138.3980 N   0  0  0  0  0  2  0  0  0  0  0  0
  197.2910  170.2180  138.0530 N   0  0  0  0  0  2  0  0  0  0  0  0
  196.5070  173.1880  138.3800 C   0  0  0  0  0  2  0  0  0  0  0  0
  197.5390  175.2090  139.4030 C   0  0  0  0  0  1  0  0  0  0  0  0
  197.9410  171.7940  135.9400 S   0  0  0  0  0  0  0  0  0  0  0  0
  196.8590  170.5500  136.6860 C   0  0  2  0  0  3  0  0  0  0  0  0
  195.6000  171.4010  136.6830 C   0  0  1  0  0  0  0  0  0  0  0  0
  195.9850  175.4180  137.5760 O   0  0  0  0  0  0  0  0  0  0  0  0
  194.6290  175.1520  137.2440 C   0  0  0  0  0  2  0  0  0  0  0  0
  194.4270  170.9070  135.8430 C   0  0  0  0  0  1  0  0  0  0  0  0
  195.6020  172.8260  137.2040 C   0  0  1  0  0  0  0  0  0  0  0  0
  194.3480  173.6520  137.0230 C   0  0  0  0  0  2  0  0  0  0  0  0
  196.2810  174.6580  138.7450 C   0  0  1  0  0  3  0  0  0  0  0  0
  196.2830  172.5420  135.8920 C   0  0  1  0  0  3  0  0  0  0  0  0
  1  2  1  0  0  0  0
  2  8  1  0  0  0  0
  2 50  1  1  0  0  0
  3  6  2  0  0  0  0
  5  1  1  0  0  0  0
  5 10  1  0  0  0  0
  6  7  1  0  0  0  0
  6  9  1  0  0  0  0
  7  9  1  0  0  0  0
  9 34  1  0  0  0  0
  9  4  1  1  0  0  0
 10  8  1  0  0  0  0
 10  3  2  0  0  0  0
 11 12  1  1  0  0  0
 11  7  1  0  0  0  0
 11 13  1  0  0  0  0
 13 14  1  6  0  0  0
 13 20  1  0  0  0  0
 14 11  1  0  0  0  0
 16 29  1  0  0  0  0
 16 19  1  0  0  0  0
 17 16  1  1  0  0  0
 18 25  1  0  0  0  0
 19 26  1  0  0  0  0
 20 15  1  6  0  0  0
 20 24  1  0  0  0  0
 21 19  2  0  0  0  0
 22 29  1  0  0  0  0
 22 18  1  1  0  0  0
 23 28  1  0  0  0  0
 24 15  1  1  0  0  0
 24 30  1  0  0  0  0
 24 17  1  0  0  0  0
 27 22  1  0  0  0  0
 27 23  1  1  0  0  0
 28 25  1  0  0  0  0
 29 31  2  0  0  0  0
 30 17  1  0  0  0  0
 30 27  1  0  0  0  0
 32 36  1  0  0  0  0
 32 33  1  0  0  0  0
 34 32  1  0  0  0  0
 34 33  1  0  0  0  0
 36 37  1  0  0  0  0
 37 35  2  0  0  0  0
 37 38  1  0  0  0  0
 39 38  1  0  0  0  0
 40 39  1  0  0  0  0
 41 40  1  0  0  0  0
 43 40  1  0  0  0  0
 43 42  1  0  0  0  0
 44 46  1  0  0  0  0
 44 45  1  0  0  0  0
 45 49  1  0  0  0  0
 45 47  1  0  0  0  0
 46 43  1  0  0  0  0
 47 42  1  0  0  0  0
 49 48  1  0  0  0  0
 50 51  2  0  0  0  0
 52 53  1  0  0  0  0
 52 50  1  0  0  0  0
 53 54  2  0  0  0  0
 55 53  1  0  0  0  0
 56 55  1  0  0  0  0
 57 67  1  0  0  0  0
 59 60  1  0  0  0  0
 60 56  1  0  0  0  0
 61 60  1  0  0  0  0
 61 65  1  0  0  0  0
 62 67  1  0  0  0  0
 63 62  1  0  0  0  0
 64 61  1  0  0  0  0
 65 57  1  0  0  0  0
 66 65  1  0  0  0  0
 66 63  1  0  0  0  0
 67 58  1  0  0  0  0
 68 59  1  0  0  0  0
 68 61  1  0  0  0  0
 68 65  1  0  0  0  0
M  END
>  <MODEL>
1

>  <REMARK>
 VINA RESULT:      -6.3      0.000      0.000
  Name = 
  15 active torsions:
  status: ('A' for Active; 'I' for Inactive)
    1  A    between atoms: C_7  and  N_29
    2  A    between atoms: C_8  and  C_12
    3  A    between atoms: C_8  and  N_38
    4  A    between atoms: C_9  and  C_17
    5  A    between atoms: C_16  and  N_39
    6  A    between atoms: C_17  and  C_47
    7  A    between atoms: N_22  and  C_28
    8  A    between atoms: O_23  and  C_57
    9  A    between atoms: C_30  and  N_36
   10  A    between atoms: C_30  and  C_47
   11  A    between atoms: N_31  and  C_35
   12  A    between atoms: N_31  and  N_36
   13  A    between atoms: N_38  and  C_50
   14  A    between atoms: C_43  and  C_64
   15  A    between atoms: C_50  and  C_51
                            x       y       z     vdW  Elec       q    Type
                         _______ _______ _______ _____ _____    ______ ____

>  <TORSDO>
F 15

$$$$
=
 OpenBabel11042418573D

 68 79  0  0  1  0  0  0  0  0999 V2000
  191.9250  169.2230  138.2540 S   0  0  0  0  0  0  0  0  0  0  0  0
  193.5960  169.7390  138.8560 C   0  0  1  0  0  3  0  0  0  0  0  0
  191.7230  172.4900  139.7160 C   0  0  0  0  0  0  0  0  0  0  0  0
  189.6960  172.4720  143.1950 C   0  0  0  0  0  1  0  0  0  0  0  0
  191.5550  170.9860  137.8770 C   0  0  0  0  0  2  0  0  0  0  0  0
  191.0530  173.1130  140.6860 C   0  0  0  0  0  0  0  0  0  0  0  0
  190.7510  174.4180  141.5080 N   0  0  0  0  0  0  0  0  0  0  0  0
  193.5650  171.1190  139.2430 N   0  0  0  0  0  2  0  0  0  0  0  0
  190.7330  173.0890  142.0650 C   0  0  1  0  0  0  0  0  0  0  0  0
  192.3600  171.7800  138.8370 C   0  0  0  0  0  0  0  0  0  0  0  0
  189.4710  173.6130  140.9750 C   0  0  1  0  0  0  0  0  0  0  0  0
  188.7060  172.1580  140.7260 C   0  0  0  0  0  1  0  0  0  0  0  0
  188.2750  174.6140  141.2180 C   0  0  2  0  0  3  0  0  0  0  0  0
  188.7960  174.3900  139.8240 C   0  0  0  0  0  2  0  0  0  0  0  0
  187.5110  176.8030  141.6480 C   0  0  0  0  0  2  0  0  0  0  0  0
  188.9630  175.9360  145.2220 N   0  0  0  0  0  0  0  0  0  0  0  0
  188.3680  175.4570  143.9370 C   0  0  2  0  0  3  0  0  0  0  0  0
  187.0390  178.6140  146.6850 C   0  0  0  0  0  2  0  0  0  0  0  0
  189.2100  175.0170  146.2760 C   0  0  0  0  0  0  0  0  0  0  0  0
  188.7160  175.9820  141.5810 N   0  0  1  0  0  0  0  0  0  0  0  0
  189.1040  173.6470  146.0350 O   0  0  0  0  0  0  0  0  0  0  0  0
  187.5470  178.0230  145.3600 C   0  0  2  0  0  3  0  0  0  0  0  0
  185.7700  176.3320  145.7930 N   0  0  0  0  0  2  0  0  0  0  0  0
  188.2750  176.6040  142.8830 C   0  0  2  0  0  0  0  0  0  0  0  0
  185.5130  178.6480  146.7230 C   0  0  0  0  0  2  0  0  0  0  0  0
  189.6480  175.3940  147.4070 O   0  0  0  0  0  1  0  0  0  0  0  0
  186.4970  177.0620  144.7340 C   0  0  2  0  0  3  0  0  0  0  0  0
  184.9110  177.2380  146.5590 C   0  0  0  0  0  2  0  0  0  0  0  0
  188.8420  177.3330  145.5810 C   0  0  0  0  0  0  0  0  0  0  0  0
  187.0430  176.0640  143.6470 C   0  0  2  0  0  3  0  0  0  0  0  0
  189.8590  177.9570  145.9860 O   0  0  0  0  0  0  0  0  0  0  0  0
  192.3370  173.6080  144.0500 C   0  0  1  0  0  3  0  0  0  0  0  0
  192.8470  174.0530  142.7860 O   0  0  0  0  0  0  0  0  0  0  0  0
  192.1330  172.8310  142.7680 C   0  0  2  0  0  3  0  0  0  0  0  0
  193.7170  175.1460  146.1420 O   0  0  0  0  0  0  0  0  0  0  0  0
  193.5310  173.2090  144.8280 N   0  0  0  0  0  2  0  0  0  0  0  0
  194.2810  174.2850  145.4060 C   0  0  0  0  0  0  0  0  0  0  0  0
  195.7440  174.4450  145.0290 C   0  0  0  0  0  2  0  0  0  0  0  0
  196.2290  173.3120  144.2680 N   0  0  0  0  0  2  0  0  0  0  0  0
  197.2120  172.5700  145.0840 C   0  0  1  0  0  3  0  0  0  0  0  0
  197.0140  172.7850  146.4700 O   0  0  0  0  0  1  0  0  0  0  0  0
  196.1080  170.7410  143.6470 C   0  0  0  0  0  2  0  0  0  0  0  0
  197.2510  171.0860  144.6330 C   0  0  2  0  0  3  0  0  0  0  0  0
  196.9060  168.7830  145.6960 C   0  0  0  0  0  2  0  0  0  0  0  0
  195.6050  168.5990  144.9180 C   0  0  2  0  0  3  0  0  0  0  0  0
  197.1670  170.2710  145.9420 C   0  0  0  0  0  2  0  0  0  0  0  0
  195.8440  169.2570  143.5520 C   0  0  0  0  0  2  0  0  0  0  0  0
  193.3840  168.9140  144.8580 C   0  0  0  0  0  1  0  0  0  0  0  0
  194.5400  169.1790  145.6080 O   0  0  0  0  0  0  0  0  0  0  0  0
  194.2510  168.8740  139.8790 C   0  0  0  0  0  0  0  0  0  0  0  0
  193.6380  168.5150  140.8810 O   0  0  0  0  0  0  0  0  0  0  0  0
  195.5290  168.2160  139.4620 C   0  0  0  0  0  2  0  0  0  0  0  0
  196.7140  169.0910  139.2200 C   0  0  0  0  0  0  0  0  0  0  0  0
  196.9950  170.0440  140.0740 C   0  0  0  0  0  2  0  0  0  0  0  0
  197.0360  169.3060  137.8300 N   0  0  0  0  0  2  0  0  0  0  0  0
  197.0020  170.5750  137.2110 N   0  0  0  0  0  2  0  0  0  0  0  0
  195.9830  173.4270  136.6010 C   0  0  0  0  0  2  0  0  0  0  0  0
  196.9110  175.7310  136.7600 C   0  0  0  0  0  1  0  0  0  0  0  0
  197.3260  171.3590  134.6320 S   0  0  0  0  0  0  0  0  0  0  0  0
  196.4280  170.3900  135.8690 C   0  0  2  0  0  3  0  0  0  0  0  0
  195.1020  171.1160  135.7180 C   0  0  1  0  0  0  0  0  0  0  0  0
  195.1970  175.2100  135.1540 O   0  0  0  0  0  0  0  0  0  0  0  0
  193.8470  174.7700  135.0830 C   0  0  0  0  0  2  0  0  0  0  0  0
  193.9100  170.2980  135.2280 C   0  0  0  0  0  1  0  0  0  0  0  0
  195.0180  172.6310  135.7240 C   0  0  1  0  0  0  0  0  0  0  0  0
  193.6850  173.2730  135.4140 C   0  0  0  0  0  2  0  0  0  0  0  0
  195.6580  174.9170  136.4700 C   0  0  1  0  0  3  0  0  0  0  0  0
  195.6090  171.9500  134.5180 C   0  0  1  0  0  3  0  0  0  0  0  0
  1  2  1  0  0  0  0
  2  8  1  0  0  0  0
  2 50  1  1  0  0  0
  3  6  2  0  0  0  0
  5  1  1  0  0  0  0
  5 10  1  0  0  0  0
  6  7  1  0  0  0  0
  6  9  1  0  0  0  0
  7  9  1  0  0  0  0
  9 34  1  0  0  0  0
  9  4  1  1  0  0  0
 10  8  1  0  0  0  0
 10  3  2  0  0  0  0
 11 12  1  1  0  0  0
 11 13  1  0  0  0  0
 11  7  1  0  0  0  0
 13 14  1  6  0  0  0
 13 20  1  0  0  0  0
 14 11  1  0  0  0  0
 16 29  1  0  0  0  0
 16 19  1  0  0  0  0
 17 16  1  1  0  0  0
 18 25  1  0  0  0  0
 19 26  1  0  0  0  0
 20 15  1  6  0  0  0
 20 24  1  0  0  0  0
 21 19  2  0  0  0  0
 22 29  1  0  0  0  0
 22 18  1  1  0  0  0
 23 28  1  0  0  0  0
 24 15  1  1  0  0  0
 24 30  1  0  0  0  0
 24 17  1  0  0  0  0
 27 22  1  0  0  0  0
 27 23  1  1  0  0  0
 28 25  1  0  0  0  0
 29 31  2  0  0  0  0
 30 17  1  0  0  0  0
 30 27  1  0  0  0  0
 32 36  1  0  0  0  0
 33 32  1  0  0  0  0
 34 33  1  0  0  0  0
 34 32  1  0  0  0  0
 36 37  1  0  0  0  0
 37 35  2  0  0  0  0
 38 37  1  0  0  0  0
 39 38  1  0  0  0  0
 39 40  1  0  0  0  0
 40 41  1  0  0  0  0
 42 43  1  0  0  0  0
 43 40  1  0  0  0  0
 43 46  1  0  0  0  0
 44 46  1  0  0  0  0
 45 49  1  0  0  0  0
 45 44  1  0  0  0  0
 47 42  1  0  0  0  0
 47 45  1  0  0  0  0
 48 49  1  0  0  0  0
 50 51  2  0  0  0  0
 52 50  1  0  0  0  0
 53 52  1  0  0  0  0
 53 54  2  0  0  0  0
 55 53  1  0  0  0  0
 56 55  1  0  0  0  0
 59 60  1  0  0  0  0
 60 56  1  0  0  0  0
 61 65  1  0  0  0  0
 61 60  1  0  0  0  0
 62 67  1  0  0  0  0
 63 62  1  0  0  0  0
 63 66  1  0  0  0  0
 64 61  1  0  0  0  0
 65 57  1  0  0  0  0
 66 65  1  0  0  0  0
 67 57  1  0  0  0  0
 67 58  1  0  0  0  0
 68 59  1  0  0  0  0
 68 61  1  0  0  0  0
 68 65  1  0  0  0  0
M  END
>  <MODEL>
2

>  <REMARK>
 VINA RESULT:      -5.5      1.448      2.727
  Name = 
  15 active torsions:
  status: ('A' for Active; 'I' for Inactive)
    1  A    between atoms: C_7  and  N_29
    2  A    between atoms: C_8  and  C_12
    3  A    between atoms: C_8  and  N_38
    4  A    between atoms: C_9  and  C_17
    5  A    between atoms: C_16  and  N_39
    6  A    between atoms: C_17  and  C_47
    7  A    between atoms: N_22  and  C_28
    8  A    between atoms: O_23  and  C_57
    9  A    between atoms: C_30  and  N_36
   10  A    between atoms: C_30  and  C_47
   11  A    between atoms: N_31  and  C_35
   12  A    between atoms: N_31  and  N_36
   13  A    between atoms: N_38  and  C_50
   14  A    between atoms: C_43  and  C_64
   15  A    between atoms: C_50  and  C_51
                            x       y       z     vdW  Elec       q    Type
                         _______ _______ _______ _____ _____    ______ ____

>  <TORSDO>
F 15

$$$$
=
 OpenBabel11042418573D

 68 79  0  0  1  0  0  0  0  0999 V2000
  197.3970  175.4140  137.5000 S   0  0  0  0  0  0  0  0  0  0  0  0
  197.1880  173.5770  137.5010 C   0  0  1  0  0  3  0  0  0  0  0  0
  196.3390  174.3240  140.7470 C   0  0  0  0  0  0  0  0  0  0  0  0
  192.5650  175.4600  141.5730 C   0  0  0  0  0  1  0  0  0  0  0  0
  197.9130  175.3220  139.2640 C   0  0  0  0  0  2  0  0  0  0  0  0
  195.3450  174.5540  141.6050 C   0  0  0  0  0  0  0  0  0  0  0  0
  194.6490  174.2730  142.9860 N   0  0  0  0  0  0  0  0  0  0  0  0
  196.9760  173.1150  138.8420 N   0  0  0  0  0  2  0  0  0  0  0  0
  193.9380  174.5590  141.7660 C   0  0  1  0  0  0  0  0  0  0  0  0
  197.2270  174.1310  139.8220 C   0  0  0  0  0  0  0  0  0  0  0  0
  194.8270  175.8160  142.5920 C   0  0  1  0  0  0  0  0  0  0  0  0
  194.9540  176.9800  141.4110 C   0  0  0  0  0  1  0  0  0  0  0  0
  194.1380  176.5860  143.7850 C   0  0  2  0  0  3  0  0  0  0  0  0
  195.6390  176.5530  143.6810 C   0  0  0  0  0  2  0  0  0  0  0  0
  193.3450  176.5940  146.0060 C   0  0  0  0  0  2  0  0  0  0  0  0
  190.4000  174.5820  144.3000 N   0  0  0  0  0  0  0  0  0  0  0  0
  191.4990  175.5880  144.1720 C   0  0  2  0  0  3  0  0  0  0  0  0
  188.2560  175.2750  147.1160 C   0  0  0  0  0  2  0  0  0  0  0  0
  189.5310  174.3370  143.2040 C   0  0  0  0  0  0  0  0  0  0  0  0
  193.8110  175.7140  144.9380 N   0  0  1  0  0  0  0  0  0  0  0  0
  189.8360  174.8670  141.9500 O   0  0  0  0  0  0  0  0  0  0  0  0
  189.7110  175.2960  146.6220 C   0  0  2  0  0  3  0  0  0  0  0  0
  188.9270  177.2970  145.3630 N   0  0  0  0  0  2  0  0  0  0  0  0
  192.3940  175.6270  145.4500 C   0  0  2  0  0  0  0  0  0  0  0  0
  187.7880  176.6740  147.5100 C   0  0  0  0  0  2  0  0  0  0  0  0
  188.5440  173.5440  143.2930 O   0  0  0  0  0  1  0  0  0  0  0  0
  190.0880  176.6900  146.0440 C   0  0  2  0  0  3  0  0  0  0  0  0
  187.8830  177.6570  146.3270 C   0  0  0  0  0  2  0  0  0  0  0  0
  189.9160  174.2250  145.6160 C   0  0  0  0  0  0  0  0  0  0  0  0
  191.3580  176.7270  145.1160 C   0  0  2  0  0  3  0  0  0  0  0  0
  189.7670  173.0090  145.9110 O   0  0  0  0  0  0  0  0  0  0  0  0
  192.4350  172.4380  141.9230 C   0  0  1  0  0  3  0  0  0  0  0  0
  193.8340  172.1430  142.0230 O   0  0  0  0  0  0  0  0  0  0  0  0
  193.4850  173.1790  141.1240 C   0  0  2  0  0  3  0  0  0  0  0  0
  190.4380  170.5480  142.9660 O   0  0  0  0  0  0  0  0  0  0  0  0
  191.8430  171.2720  141.2300 N   0  0  0  0  0  2  0  0  0  0  0  0
  191.2960  170.2580  142.0810 C   0  0  0  0  0  0  0  0  0  0  0  0
  191.8440  168.8450  141.9850 C   0  0  0  0  0  2  0  0  0  0  0  0
  192.3330  168.3700  143.2620 N   0  0  0  0  0  2  0  0  0  0  0  0
  193.8090  168.4270  143.2620 C   0  0  1  0  0  3  0  0  0  0  0  0
  194.3130  169.0180  142.0780 O   0  0  0  0  0  1  0  0  0  0  0  0
  193.8660  170.5300  144.7470 C   0  0  0  0  0  2  0  0  0  0  0  0
  194.3080  169.0540  144.5920 C   0  0  2  0  0  3  0  0  0  0  0  0
  196.5490  169.7110  145.6420 C   0  0  0  0  0  2  0  0  0  0  0  0
  196.1990  171.1900  145.5050 C   0  0  2  0  0  3  0  0  0  0  0  0
  195.8450  168.9000  144.5510 C   0  0  0  0  0  2  0  0  0  0  0  0
  194.6890  171.2850  145.7640 C   0  0  0  0  0  2  0  0  0  0  0  0
  197.9400  171.8560  144.2560 C   0  0  0  0  0  1  0  0  0  0  0  0
  196.5510  171.6580  144.2400 O   0  0  0  0  0  0  0  0  0  0  0  0
  196.2080  172.9990  136.5370 C   0  0  0  0  0  0  0  0  0  0  0  0
  195.1880  173.6140  136.2380 O   0  0  0  0  0  0  0  0  0  0  0  0
  196.6880  171.8320  135.7310 C   0  0  0  0  0  2  0  0  0  0  0  0
  196.1300  170.4870  136.0560 C   0  0  0  0  0  0  0  0  0  0  0  0
  196.8500  169.6420  136.7510 C   0  0  0  0  0  2  0  0  0  0  0  0
  195.2180  169.9550  135.0720 N   0  0  0  0  0  2  0  0  0  0  0  0
  193.9940  170.5730  134.7310 N   0  0  0  0  0  2  0  0  0  0  0  0
  192.2150  172.9390  135.6140 C   0  0  0  0  0  2  0  0  0  0  0  0
  191.2320  174.9450  134.5160 C   0  0  0  0  0  1  0  0  0  0  0  0
  191.3280  170.0680  134.6510 S   0  0  0  0  0  0  0  0  0  0  0  0
  192.9310  169.8700  135.4670 C   0  0  2  0  0  3  0  0  0  0  0  0
  192.5570  170.5960  136.7480 C   0  0  1  0  0  0  0  0  0  0  0  0
  190.1690  173.9560  136.4350 O   0  0  0  0  0  0  0  0  0  0  0  0
  190.4040  173.6880  137.8120 C   0  0  0  0  0  2  0  0  0  0  0  0
  192.5830  169.7870  138.0410 C   0  0  0  0  0  1  0  0  0  0  0  0
  191.8710  171.9490  136.7250 C   0  0  1  0  0  0  0  0  0  0  0  0
  191.3960  172.5300  138.0380 C   0  0  0  0  0  2  0  0  0  0  0  0
  191.4370  174.2370  135.8480 C   0  0  1  0  0  3  0  0  0  0  0  0
  191.0750  170.7360  136.3250 C   0  0  1  0  0  3  0  0  0  0  0  0
  1  2  1  0  0  0  0
  1  5  1  0  0  0  0
  2 50  1  6  0  0  0
  2  8  1  0  0  0  0
  3  6  2  0  0  0  0
  5 10  1  0  0  0  0
  6  9  1  0  0  0  0
  6  7  1  0  0  0  0
  8 10  1  0  0  0  0
  9  4  1  6  0  0  0
  9  7  1  0  0  0  0
 10  3  2  0  0  0  0
 11 12  1  6  0  0  0
 11  7  1  0  0  0  0
 11 14  1  0  0  0  0
 11 13  1  0  0  0  0
 13 14  1  1  0  0  0
 13 20  1  0  0  0  0
 16 29  1  0  0  0  0
 17 16  1  1  0  0  0
 17 30  1  0  0  0  0
 17 24  1  0  0  0  0
 18 25  1  0  0  0  0
 19 26  1  0  0  0  0
 19 16  1  0  0  0  0
 20 24  1  0  0  0  0
 20 15  1  1  0  0  0
 21 19  2  0  0  0  0
 22 18  1  6  0  0  0
 23 28  1  0  0  0  0
 24 15  1  1  0  0  0
 27 23  1  6  0  0  0
 27 22  1  0  0  0  0
 28 25  1  0  0  0  0
 29 31  2  0  0  0  0
 29 22  1  0  0  0  0
 30 24  1  0  0  0  0
 30 27  1  0  0  0  0
 32 33  1  0  0  0  0
 34  9  1  0  0  0  0
 34 32  1  0  0  0  0
 34 33  1  0  0  0  0
 36 32  1  0  0  0  0
 36 37  1  0  0  0  0
 37 35  2  0  0  0  0
 38 37  1  0  0  0  0
 38 39  1  0  0  0  0
 40 39  1  0  0  0  0
 40 43  1  0  0  0  0
 41 40  1  0  0  0  0
 42 47  1  0  0  0  0
 43 42  1  0  0  0  0
 45 44  1  0  0  0  0
 45 47  1  0  0  0  0
 46 43  1  0  0  0  0
 46 44  1  0  0  0  0
 49 48  1  0  0  0  0
 49 45  1  0  0  0  0
 51 50  2  0  0  0  0
 52 53  1  0  0  0  0
 52 50  1  0  0  0  0
 53 54  2  0  0  0  0
 55 53  1  0  0  0  0
 56 55  1  0  0  0  0
 56 60  1  0  0  0  0
 57 67  1  0  0  0  0
 57 65  1  0  0  0  0
 58 67  1  0  0  0  0
 59 60  1  0  0  0  0
 59 68  1  0  0  0  0
 60 61  1  0  0  0  0
 61 64  1  0  0  0  0
 62 63  1  0  0  0  0
 63 66  1  0  0  0  0
 65 61  1  0  0  0  0
 65 66  1  0  0  0  0
 67 62  1  0  0  0  0
 68 65  1  0  0  0  0
 68 61  1  0  0  0  0
M  END
>  <MODEL>
3

>  <REMARK>
 VINA RESULT:      -4.6      2.287      5.075
  Name = 
  15 active torsions:
  status: ('A' for Active; 'I' for Inactive)
    1  A    between atoms: C_7  and  N_29
    2  A    between atoms: C_8  and  C_12
    3  A    between atoms: C_8  and  N_38
    4  A    between atoms: C_9  and  C_17
    5  A    between atoms: C_16  and  N_39
    6  A    between atoms: C_17  and  C_47
    7  A    between atoms: N_22  and  C_28
    8  A    between atoms: O_23  and  C_57
    9  A    between atoms: C_30  and  N_36
   10  A    between atoms: C_30  and  C_47
   11  A    between atoms: N_31  and  C_35
   12  A    between atoms: N_31  and  N_36
   13  A    between atoms: N_38  and  C_50
   14  A    between atoms: C_43  and  C_64
   15  A    between atoms: C_50  and  C_51
                            x       y       z     vdW  Elec       q    Type
                         _______ _______ _______ _____ _____    ______ ____

>  <TORSDO>
F 15

$$$$
=
 OpenBabel11042418573D

 68 79  0  0  1  0  0  0  0  0999 V2000
  192.6340  175.8470  146.9260 S   0  0  0  0  0  0  0  0  0  0  0  0
  191.0530  176.3770  146.1250 C   0  0  1  0  0  3  0  0  0  0  0  0
  193.1960  176.4600  143.4390 C   0  0  0  0  0  0  0  0  0  0  0  0
  193.9130  173.0630  141.3980 C   0  0  0  0  0  1  0  0  0  0  0  0
  193.5510  176.9230  145.7480 C   0  0  0  0  0  2  0  0  0  0  0  0
  193.6560  175.8090  142.3700 C   0  0  0  0  0  0  0  0  0  0  0  0
  194.0050  175.7880  140.8370 N   0  0  0  0  0  0  0  0  0  0  0  0
  191.3160  176.8270  144.7900 N   0  0  0  0  0  2  0  0  0  0  0  0
  193.4950  174.6540  141.5650 C   0  0  1  0  0  0  0  0  0  0  0  0
  192.7160  176.9830  144.5240 C   0  0  0  0  0  0  0  0  0  0  0  0
  195.1310  175.2130  141.8210 C   0  0  1  0  0  0  0  0  0  0  0  0
  195.5240  174.3460  143.1850 C   0  0  0  0  0  1  0  0  0  0  0  0
  196.3660  174.9670  140.8690 C   0  0  2  0  0  3  0  0  0  0  0  0
  196.3680  176.1390  141.8140 C   0  0  0  0  0  2  0  0  0  0  0  0
  197.4500  175.3320  138.8070 C   0  0  0  0  0  2  0  0  0  0  0  0
  194.5460  172.9510  137.5720 N   0  0  0  0  0  0  0  0  0  0  0  0
  195.4450  173.3960  138.6800 C   0  0  2  0  0  3  0  0  0  0  0  0
  196.3780  172.2370  134.5480 C   0  0  0  0  0  2  0  0  0  0  0  0
  193.6740  171.8470  137.7650 C   0  0  0  0  0  0  0  0  0  0  0  0
  196.1960  175.5580  139.5200 N   0  0  1  0  0  0  0  0  0  0  0  0
  193.5000  171.3220  139.0460 O   0  0  0  0  0  1  0  0  0  0  0  0
  196.2910  173.1770  135.7600 C   0  0  2  0  0  3  0  0  0  0  0  0
  197.2430  171.2130  136.9590 N   0  0  0  0  0  2  0  0  0  0  0  0
  196.2410  174.6810  138.2930 C   0  0  2  0  0  0  0  0  0  0  0  0
  197.7180  171.5060  134.5130 C   0  0  0  0  0  2  0  0  0  0  0  0
  192.9460  171.3940  136.8290 O   0  0  0  0  0  0  0  0  0  0  0  0
  197.2080  172.6890  136.9180 C   0  0  2  0  0  3  0  0  0  0  0  0
  197.9410  170.6710  135.7900 C   0  0  0  0  0  2  0  0  0  0  0  0
  194.8810  173.2940  136.2060 C   0  0  0  0  0  0  0  0  0  0  0  0
  196.8880  173.2760  138.3410 C   0  0  2  0  0  3  0  0  0  0  0  0
  193.9900  173.7700  135.4520 O   0  0  0  0  0  0  0  0  0  0  0  0
  191.4380  173.2410  140.8220 C   0  0  1  0  0  3  0  0  0  0  0  0
  191.7020  174.3470  139.9510 O   0  0  0  0  0  0  0  0  0  0  0  0
  191.9270  174.5810  141.3280 C   0  0  2  0  0  3  0  0  0  0  0  0
  189.5930  173.7090  138.5810 O   0  0  0  0  0  0  0  0  0  0  0  0
  189.9660  173.0860  140.8140 N   0  0  0  0  0  2  0  0  0  0  0  0
  189.2720  173.8240  139.8000 C   0  0  0  0  0  0  0  0  0  0  0  0
  188.2190  174.8350  140.2200 C   0  0  0  0  0  2  0  0  0  0  0  0
  187.8760  174.7030  141.6200 N   0  0  0  0  0  2  0  0  0  0  0  0
  188.3080  175.9190  142.3380 C   0  0  1  0  0  3  0  0  0  0  0  0
  189.6160  176.3130  141.9650 O   0  0  0  0  0  1  0  0  0  0  0  0
  187.6420  178.3470  142.8800 C   0  0  0  0  0  2  0  0  0  0  0  0
  187.2150  177.0150  142.2160 C   0  0  2  0  0  3  0  0  0  0  0  0
  184.8540  177.4290  143.1140 C   0  0  0  0  0  2  0  0  0  0  0  0
  185.3690  178.5640  143.9950 C   0  0  2  0  0  3  0  0  0  0  0  0
  185.9620  176.4000  142.8780 C   0  0  0  0  0  2  0  0  0  0  0  0
  186.4710  179.2540  143.1790 C   0  0  0  0  0  2  0  0  0  0  0  0
  184.7420  178.0190  146.0790 C   0  0  0  0  0  1  0  0  0  0  0  0
  185.8410  178.0620  145.2080 O   0  0  0  0  0  0  0  0  0  0  0  0
  189.9020  175.4320  146.1920 C   0  0  0  0  0  0  0  0  0  0  0  0
  188.7640  175.8130  145.9300 O   0  0  0  0  0  0  0  0  0  0  0  0
  190.2470  173.9770  146.2600 C   0  0  0  0  0  2  0  0  0  0  0  0
  190.6210  173.2930  144.9870 C   0  0  0  0  0  0  0  0  0  0  0  0
  189.7200  173.1440  144.0480 C   0  0  0  0  0  2  0  0  0  0  0  0
  191.6390  172.2790  145.1200 N   0  0  0  0  0  2  0  0  0  0  0  0
  192.4920  171.8900  144.0620 N   0  0  0  0  0  2  0  0  0  0  0  0
  195.3800  170.8660  143.6760 C   0  0  0  0  0  2  0  0  0  0  0  0
  197.5450  171.1240  144.8770 C   0  0  0  0  0  1  0  0  0  0  0  0
  192.9710  169.4410  145.1330 S   0  0  0  0  0  0  0  0  0  0  0  0
  192.2550  170.4580  143.8180 C   0  0  2  0  0  3  0  0  0  0  0  0
  193.1330  169.9240  142.6990 C   0  0  1  0  0  0  0  0  0  0  0  0
  197.1040  169.1610  143.5570 O   0  0  0  0  0  0  0  0  0  0  0  0
  196.8420  168.7670  142.2160 C   0  0  0  0  0  2  0  0  0  0  0  0
  192.4370  169.1910  141.5560 C   0  0  0  0  0  1  0  0  0  0  0  0
  194.6390  169.8170  142.8500 C   0  0  1  0  0  0  0  0  0  0  0  0
  195.4190  169.1330  141.7490 C   0  0  0  0  0  2  0  0  0  0  0  0
  196.8810  170.5670  143.6250 C   0  0  1  0  0  3  0  0  0  0  0  0
  193.7720  168.8500  143.6100 C   0  0  1  0  0  3  0  0  0  0  0  0
  2 50  1  6  0  0  0
  2  1  1  0  0  0  0
  3 10  2  0  0  0  0
  5  1  1  0  0  0  0
  6  3  2  0  0  0  0
  7  9  1  0  0  0  0
  7 11  1  0  0  0  0
  7  6  1  0  0  0  0
  8  2  1  0  0  0  0
  9  4  1  1  0  0  0
  9  6  1  0  0  0  0
 10  8  1  0  0  0  0
 10  5  1  0  0  0  0
 11 12  1  1  0  0  0
 13 14  1  1  0  0  0
 13 11  1  0  0  0  0
 14 11  1  0  0  0  0
 16 19  1  0  0  0  0
 17 16  1  6  0  0  0
 19 21  1  0  0  0  0
 20 15  1  6  0  0  0
 20 13  1  0  0  0  0
 22 18  1  6  0  0  0
 22 29  1  0  0  0  0
 22 27  1  0  0  0  0
 24 30  1  0  0  0  0
 24 17  1  0  0  0  0
 24 15  1  6  0  0  0
 24 20  1  0  0  0  0
 25 18  1  0  0  0  0
 25 28  1  0  0  0  0
 26 19  2  0  0  0  0
 27 23  1  1  0  0  0
 27 30  1  0  0  0  0
 28 23  1  0  0  0  0
 29 16  1  0  0  0  0
 30 17  1  0  0  0  0
 31 29  2  0  0  0  0
 32 34  1  0  0  0  0
 33 32  1  0  0  0  0
 33 34  1  0  0  0  0
 34  9  1  0  0  0  0
 35 37  2  0  0  0  0
 36 32  1  0  0  0  0
 37 38  1  0  0  0  0
 37 36  1  0  0  0  0
 38 39  1  0  0  0  0
 39 40  1  0  0  0  0
 41 40  1  0  0  0  0
 42 47  1  0  0  0  0
 43 40  1  0  0  0  0
 43 46  1  0  0  0  0
 43 42  1  0  0  0  0
 44 45  1  0  0  0  0
 45 49  1  0  0  0  0
 46 44  1  0  0  0  0
 47 45  1  0  0  0  0
 49 48  1  0  0  0  0
 50 52  1  0  0  0  0
 51 50  2  0  0  0  0
 53 55  1  0  0  0  0
 53 52  1  0  0  0  0
 54 53  2  0  0  0  0
 56 55  1  0  0  0  0
 60 56  1  0  0  0  0
 60 59  1  0  0  0  0
 61 65  1  0  0  0  0
 61 68  1  0  0  0  0
 61 60  1  0  0  0  0
 62 67  1  0  0  0  0
 63 62  1  0  0  0  0
 64 61  1  0  0  0  0
 65 68  1  0  0  0  0
 65 57  1  0  0  0  0
 66 63  1  0  0  0  0
 66 65  1  0  0  0  0
 67 57  1  0  0  0  0
 67 58  1  0  0  0  0
 68 59  1  0  0  0  0
M  END
>  <MODEL>
4

>  <REMARK>
 VINA RESULT:      -4.4      2.817      9.548
  Name = 
  15 active torsions:
  status: ('A' for Active; 'I' for Inactive)
    1  A    between atoms: C_7  and  N_29
    2  A    between atoms: C_8  and  C_12
    3  A    between atoms: C_8  and  N_38
    4  A    between atoms: C_9  and  C_17
    5  A    between atoms: C_16  and  N_39
    6  A    between atoms: C_17  and  C_47
    7  A    between atoms: N_22  and  C_28
    8  A    between atoms: O_23  and  C_57
    9  A    between atoms: C_30  and  N_36
   10  A    between atoms: C_30  and  C_47
   11  A    between atoms: N_31  and  C_35
   12  A    between atoms: N_31  and  N_36
   13  A    between atoms: N_38  and  C_50
   14  A    between atoms: C_43  and  C_64
   15  A    between atoms: C_50  and  C_51
                            x       y       z     vdW  Elec       q    Type
                         _______ _______ _______ _____ _____    ______ ____

>  <TORSDO>
F 15

$$$$
=
 OpenBabel11042418573D

 68 79  0  0  1  0  0  0  0  0999 V2000
  194.6740  168.4360  143.5390 S   0  0  0  0  0  0  0  0  0  0  0  0
  194.8450  168.1670  141.7180 C   0  0  1  0  0  3  0  0  0  0  0  0
  191.8310  169.8130  141.8450 C   0  0  0  0  0  0  0  0  0  0  0  0
  191.7990  173.8380  141.9610 C   0  0  0  0  0  1  0  0  0  0  0  0
  192.8490  168.2800  143.3560 C   0  0  0  0  0  2  0  0  0  0  0  0
  191.2040  170.9850  141.7310 C   0  0  0  0  0  0  0  0  0  0  0  0
  190.0380  171.8500  141.1290 N   0  0  0  0  0  0  0  0  0  0  0  0
  193.6220  168.5200  141.0600 N   0  0  0  0  0  2  0  0  0  0  0  0
  191.3640  172.3500  141.3880 C   0  0  1  0  0  0  0  0  0  0  0  0
  192.5430  168.7380  141.9800 C   0  0  0  0  0  0  0  0  0  0  0  0
  190.2750  171.9940  142.7070 C   0  0  1  0  0  0  0  0  0  0  0  0
  191.3120  171.9160  144.0060 C   0  0  0  0  0  1  0  0  0  0  0  0
  189.2370  173.1020  143.1390 C   0  0  2  0  0  3  0  0  0  0  0  0
  188.9760  171.6580  143.4730 C   0  0  0  0  0  2  0  0  0  0  0  0
  186.9480  173.4860  142.7220 C   0  0  0  0  0  2  0  0  0  0  0  0
  188.3500  177.0790  141.8540 N   0  0  0  0  0  0  0  0  0  0  0  0
  188.4990  175.8030  142.6190 C   0  0  2  0  0  3  0  0  0  0  0  0
  185.0460  178.4830  142.1960 C   0  0  0  0  0  2  0  0  0  0  0  0
  189.2520  178.1520  142.0820 C   0  0  0  0  0  0  0  0  0  0  0  0
  188.2580  173.4370  142.0780 N   0  0  1  0  0  0  0  0  0  0  0  0
  190.3960  177.9400  142.8500 O   0  0  0  0  0  1  0  0  0  0  0  0
  185.8350  177.1720  142.0560 C   0  0  2  0  0  3  0  0  0  0  0  0
  186.4230  177.6360  144.4320 N   0  0  0  0  0  2  0  0  0  0  0  0
  187.4750  174.7250  142.1440 C   0  0  2  0  0  0  0  0  0  0  0  0
  184.2640  178.5180  143.5070 C   0  0  0  0  0  2  0  0  0  0  0  0
  189.1190  179.2750  141.5060 O   0  0  0  0  0  0  0  0  0  0  0  0
  186.1660  176.5640  143.4490 C   0  0  2  0  0  3  0  0  0  0  0  0
  185.1970  178.3830  144.7270 C   0  0  0  0  0  2  0  0  0  0  0  0
  187.0690  177.4080  141.2680 C   0  0  0  0  0  0  0  0  0  0  0  0
  187.3230  175.4980  143.4760 C   0  0  2  0  0  3  0  0  0  0  0  0
  187.0190  177.8020  140.0710 O   0  0  0  0  0  0  0  0  0  0  0  0
  193.6850  172.3700  140.2070 C   0  0  1  0  0  3  0  0  0  0  0  0
  192.8880  173.5190  139.8950 O   0  0  0  0  0  0  0  0  0  0  0  0
  192.1840  172.2980  140.0290 C   0  0  2  0  0  3  0  0  0  0  0  0
  195.3390  174.2520  138.6680 O   0  0  0  0  0  0  0  0  0  0  0  0
  194.4650  172.0950  138.9790 N   0  0  0  0  0  2  0  0  0  0  0  0
  194.7670  173.2380  138.1700 C   0  0  0  0  0  0  0  0  0  0  0  0
  194.2880  173.2640  136.7290 C   0  0  0  0  0  2  0  0  0  0  0  0
  193.3150  174.3130  136.5050 N   0  0  0  0  0  2  0  0  0  0  0  0
  192.5540  174.0080  135.2760 C   0  0  1  0  0  3  0  0  0  0  0  0
  193.1300  172.9360  134.5530 O   0  0  0  0  0  1  0  0  0  0  0  0
  190.7470  174.1880  137.1020 C   0  0  0  0  0  2  0  0  0  0  0  0
  191.0480  173.8560  135.6200 C   0  0  2  0  0  3  0  0  0  0  0  0
  189.3370  171.9580  135.7930 C   0  0  0  0  0  2  0  0  0  0  0  0
  189.2870  172.1180  137.3100 C   0  0  2  0  0  3  0  0  0  0  0  0
  190.7060  172.3920  135.2620 C   0  0  0  0  0  2  0  0  0  0  0  0
  189.4270  173.6240  137.5730 C   0  0  0  0  0  2  0  0  0  0  0  0
  189.9220  170.0300  137.8330 C   0  0  0  0  0  1  0  0  0  0  0  0
  190.3050  171.3780  137.9110 O   0  0  0  0  0  0  0  0  0  0  0  0
  196.0420  168.7540  141.0500 C   0  0  0  0  0  0  0  0  0  0  0  0
  196.0590  168.9220  139.8330 O   0  0  0  0  0  0  0  0  0  0  0  0
  197.0400  169.4140  141.9490 C   0  0  0  0  0  2  0  0  0  0  0  0
  197.1960  170.8950  141.8440 C   0  0  0  0  0  0  0  0  0  0  0  0
  197.2570  171.4540  140.6610 C   0  0  0  0  0  2  0  0  0  0  0  0
  197.9340  171.5050  142.9230 N   0  0  0  0  0  2  0  0  0  0  0  0
  197.6080  172.7660  143.4730 N   0  0  0  0  0  2  0  0  0  0  0  0
  195.6650  175.1610  143.3030 C   0  0  0  0  0  2  0  0  0  0  0  0
  194.2930  176.2290  141.5220 C   0  0  0  0  0  1  0  0  0  0  0  0
  195.0430  172.1860  144.1500 S   0  0  0  0  0  0  0  0  0  0  0  0
  196.7520  172.5210  144.6450 C   0  0  2  0  0  3  0  0  0  0  0  0
  196.4560  173.8020  145.4060 C   0  0  1  0  0  0  0  0  0  0  0  0
  193.6300  176.3740  143.8310 O   0  0  0  0  0  0  0  0  0  0  0  0
  194.0750  176.8920  145.0770 C   0  0  0  0  0  2  0  0  0  0  0  0
  196.7570  173.8100  146.9020 C   0  0  0  0  0  1  0  0  0  0  0  0
  195.6030  174.9050  144.8070 C   0  0  1  0  0  0  0  0  0  0  0  0
  195.2310  176.0760  145.6890 C   0  0  0  0  0  2  0  0  0  0  0  0
  194.7620  176.3500  142.9650 C   0  0  1  0  0  3  0  0  0  0  0  0
  194.9270  173.6330  145.2470 C   0  0  1  0  0  3  0  0  0  0  0  0
  2 50  1  6  0  0  0
  2  1  1  0  0  0  0
  3 10  2  0  0  0  0
  5  1  1  0  0  0  0
  6  3  2  0  0  0  0
  7  9  1  0  0  0  0
  7  6  1  0  0  0  0
  7 11  1  0  0  0  0
  8  2  1  0  0  0  0
  8 10  1  0  0  0  0
  9  6  1  0  0  0  0
  9  4  1  1  0  0  0
 10  5  1  0  0  0  0
 11 13  1  0  0  0  0
 11 14  1  0  0  0  0
 11 12  1  1  0  0  0
 13 14  1  1  0  0  0
 16 19  1  0  0  0  0
 17 16  1  6  0  0  0
 17 30  1  0  0  0  0
 18 25  1  0  0  0  0
 19 21  1  0  0  0  0
 20 24  1  0  0  0  0
 20 15  1  1  0  0  0
 20 13  1  0  0  0  0
 22 18  1  1  0  0  0
 22 27  1  0  0  0  0
 23 28  1  0  0  0  0
 24 17  1  0  0  0  0
 24 15  1  6  0  0  0
 24 30  1  0  0  0  0
 25 28  1  0  0  0  0
 26 19  2  0  0  0  0
 27 30  1  0  0  0  0
 27 23  1  1  0  0  0
 29 16  1  0  0  0  0
 29 22  1  0  0  0  0
 31 29  2  0  0  0  0
 33 34  1  0  0  0  0
 33 32  1  0  0  0  0
 34 32  1  0  0  0  0
 34  9  1  0  0  0  0
 36 32  1  0  0  0  0
 37 35  2  0  0  0  0
 37 36  1  0  0  0  0
 38 37  1  0  0  0  0
 39 38  1  0  0  0  0
 40 43  1  0  0  0  0
 40 39  1  0  0  0  0
 41 40  1  0  0  0  0
 42 47  1  0  0  0  0
 43 42  1  0  0  0  0
 44 45  1  0  0  0  0
 45 47  1  0  0  0  0
 45 49  1  0  0  0  0
 46 43  1  0  0  0  0
 46 44  1  0  0  0  0
 48 49  1  0  0  0  0
 50 52  1  0  0  0  0
 51 50  2  0  0  0  0
 53 52  1  0  0  0  0
 53 55  1  0  0  0  0
 54 53  2  0  0  0  0
 55 56  1  0  0  0  0
 56 60  1  0  0  0  0
 57 65  1  0  0  0  0
 58 67  1  0  0  0  0
 59 60  1  0  0  0  0
 59 68  1  0  0  0  0
 60 61  1  0  0  0  0
 61 64  1  0  0  0  0
 62 63  1  0  0  0  0
 63 66  1  0  0  0  0
 65 68  1  0  0  0  0
 65 61  1  0  0  0  0
 65 66  1  0  0  0  0
 67 57  1  0  0  0  0
 67 62  1  0  0  0  0
 68 61  1  0  0  0  0
M  END
>  <MODEL>
5

>  <REMARK>
 VINA RESULT:      -4.1      2.999      6.425
  Name = 
  15 active torsions:
  status: ('A' for Active; 'I' for Inactive)
    1  A    between atoms: C_7  and  N_29
    2  A    between atoms: C_8  and  C_12
    3  A    between atoms: C_8  and  N_38
    4  A    between atoms: C_9  and  C_17
    5  A    between atoms: C_16  and  N_39
    6  A    between atoms: C_17  and  C_47
    7  A    between atoms: N_22  and  C_28
    8  A    between atoms: O_23  and  C_57
    9  A    between atoms: C_30  and  N_36
   10  A    between atoms: C_30  and  C_47
   11  A    between atoms: N_31  and  C_35
   12  A    between atoms: N_31  and  N_36
   13  A    between atoms: N_38  and  C_50
   14  A    between atoms: C_43  and  C_64
   15  A    between atoms: C_50  and  C_51
                            x       y       z     vdW  Elec       q    Type
                         _______ _______ _______ _____ _____    ______ ____

>  <TORSDO>
F 15

$$$$
=
 OpenBabel11042418573D

 68 79  0  0  1  0  0  0  0  0999 V2000
  194.9030  168.8100  144.7230 S   0  0  0  0  0  0  0  0  0  0  0  0
  195.0340  168.1670  142.9950 C   0  0  1  0  0  3  0  0  0  0  0  0
  192.0430  169.8510  142.8310 C   0  0  0  0  0  0  0  0  0  0  0  0
  192.0600  173.8120  142.1080 C   0  0  0  0  0  1  0  0  0  0  0  0
  193.0740  168.6480  144.6090 C   0  0  0  0  0  2  0  0  0  0  0  0
  191.4270  170.9830  142.4870 C   0  0  0  0  0  0  0  0  0  0  0  0
  190.2600  171.7230  141.7390 N   0  0  0  0  0  0  0  0  0  0  0  0
  193.8010  168.3950  142.3000 N   0  0  0  0  0  2  0  0  0  0  0  0
  191.5970  172.2440  141.8650 C   0  0  1  0  0  0  0  0  0  0  0  0
  192.7450  168.8150  143.1730 C   0  0  0  0  0  0  0  0  0  0  0  0
  190.5310  172.1870  143.2490 C   0  0  1  0  0  0  0  0  0  0  0  0
  191.5890  172.3490  144.5220 C   0  0  0  0  0  1  0  0  0  0  0  0
  189.5360  173.3960  143.4500 C   0  0  2  0  0  3  0  0  0  0  0  0
  189.2370  172.0640  144.0840 C   0  0  0  0  0  2  0  0  0  0  0  0
  187.2280  173.5180  142.9810 C   0  0  0  0  0  2  0  0  0  0  0  0
  188.2990  177.1300  141.7830 N   0  0  0  0  0  0  0  0  0  0  0  0
  188.5540  175.9520  142.6670 C   0  0  2  0  0  3  0  0  0  0  0  0
  184.8710  178.2370  141.9630 C   0  0  0  0  0  2  0  0  0  0  0  0
  189.0910  178.3010  141.9130 C   0  0  0  0  0  0  0  0  0  0  0  0
  188.5470  173.5340  142.3540 N   0  0  1  0  0  0  0  0  0  0  0  0
  190.2370  178.2730  142.7080 O   0  0  0  0  0  1  0  0  0  0  0  0
  185.7830  177.0000  141.9560 C   0  0  2  0  0  3  0  0  0  0  0  0
  186.2840  177.7420  144.2800 N   0  0  0  0  0  2  0  0  0  0  0  0
  187.6450  174.7420  142.2900 C   0  0  2  0  0  0  0  0  0  0  0  0
  184.0670  178.3220  143.2580 C   0  0  0  0  0  2  0  0  0  0  0  0
  188.8620  179.3470  141.2310 O   0  0  0  0  0  0  0  0  0  0  0  0
  186.1460  176.5620  143.4030 C   0  0  2  0  0  3  0  0  0  0  0  0
  184.9880  178.3920  144.4920 C   0  0  0  0  0  2  0  0  0  0  0  0
  187.0020  177.2780  141.1580 C   0  0  0  0  0  0  0  0  0  0  0  0
  187.3980  175.6190  143.5410 C   0  0  2  0  0  3  0  0  0  0  0  0
  186.9360  177.5500  139.9290 O   0  0  0  0  0  0  0  0  0  0  0  0
  191.8910  172.6370  139.3080 C   0  0  1  0  0  3  0  0  0  0  0  0
  191.4800  171.3010  139.6260 O   0  0  0  0  0  0  0  0  0  0  0  0
  192.3870  171.8990  140.5330 C   0  0  2  0  0  3  0  0  0  0  0  0
  191.1870  171.4770  136.6990 O   0  0  0  0  0  0  0  0  0  0  0  0
  192.7560  172.5000  138.1140 N   0  0  0  0  0  2  0  0  0  0  0  0
  192.3590  171.4930  137.1750 C   0  0  0  0  0  0  0  0  0  0  0  0
  193.3320  170.3740  136.8440 C   0  0  0  0  0  2  0  0  0  0  0  0
  194.3810  170.2640  137.8360 N   0  0  0  0  0  2  0  0  0  0  0  0
  195.2940  169.1690  137.4490 C   0  0  1  0  0  3  0  0  0  0  0  0
  194.6380  168.1880  136.6670 O   0  0  0  0  0  1  0  0  0  0  0  0
  196.9750  171.1200  137.4730 C   0  0  0  0  0  2  0  0  0  0  0  0
  196.5910  169.7630  136.8350 C   0  0  2  0  0  3  0  0  0  0  0  0
  197.3430  170.7140  134.5800 C   0  0  0  0  0  2  0  0  0  0  0  0
  197.4260  172.1150  135.1790 C   0  0  2  0  0  3  0  0  0  0  0  0
  196.2930  169.8850  135.3240 C   0  0  0  0  0  2  0  0  0  0  0  0
  197.9270  171.9220  136.6170 C   0  0  0  0  0  2  0  0  0  0  0  0
  196.4250  174.1180  135.0330 C   0  0  0  0  0  1  0  0  0  0  0  0
  196.1800  172.7400  135.1300 O   0  0  0  0  0  0  0  0  0  0  0  0
  196.2240  168.5830  142.1980 C   0  0  0  0  0  0  0  0  0  0  0  0
  196.1620  168.6550  140.9730 O   0  0  0  0  0  0  0  0  0  0  0  0
  197.3440  169.2110  142.9670 C   0  0  0  0  0  2  0  0  0  0  0  0
  197.4960  170.6930  142.8850 C   0  0  0  0  0  0  0  0  0  0  0  0
  197.9170  171.2360  141.7690 C   0  0  0  0  0  2  0  0  0  0  0  0
  197.8440  171.3370  144.1280 N   0  0  0  0  0  2  0  0  0  0  0  0
  197.7550  172.7330  144.3330 N   0  0  0  0  0  2  0  0  0  0  0  0
  196.6560  174.4900  142.0430 C   0  0  0  0  0  2  0  0  0  0  0  0
  196.6030  174.3640  139.5580 C   0  0  0  0  0  1  0  0  0  0  0  0
  195.1450  172.2920  143.7290 S   0  0  0  0  0  0  0  0  0  0  0  0
  196.3950  173.0150  144.8200 C   0  0  2  0  0  3  0  0  0  0  0  0
  196.0020  174.4640  144.5860 C   0  0  1  0  0  0  0  0  0  0  0  0
  194.9030  175.5710  140.7590 O   0  0  0  0  0  0  0  0  0  0  0  0
  194.7430  176.6900  141.6220 C   0  0  0  0  0  2  0  0  0  0  0  0
  195.4990  175.2530  145.7910 C   0  0  0  0  0  1  0  0  0  0  0  0
  195.7930  175.0160  143.1890 C   0  0  1  0  0  0  0  0  0  0  0  0
  195.2540  176.4230  143.0520 C   0  0  0  0  0  2  0  0  0  0  0  0
  196.2890  175.2420  140.7610 C   0  0  1  0  0  3  0  0  0  0  0  0
  194.7630  174.0700  143.7460 C   0  0  1  0  0  3  0  0  0  0  0  0
  2 50  1  6  0  0  0
  2  1  1  0  0  0  0
  3 10  2  0  0  0  0
  5  1  1  0  0  0  0
  6  3  2  0  0  0  0
  7  9  1  0  0  0  0
  7  6  1  0  0  0  0
  7 11  1  0  0  0  0
  8  2  1  0  0  0  0
  8 10  1  0  0  0  0
  9  4  1  1  0  0  0
  9  6  1  0  0  0  0
 10  5  1  0  0  0  0
 11 13  1  0  0  0  0
 11 14  1  0  0  0  0
 11 12  1  1  0  0  0
 13 14  1  1  0  0  0
 16 19  1  0  0  0  0
 17 16  1  6  0  0  0
 17 30  1  0  0  0  0
 18 25  1  0  0  0  0
 19 21  1  0  0  0  0
 20 15  1  1  0  0  0
 20 13  1  0  0  0  0
 22 18  1  1  0  0  0
 22 27  1  0  0  0  0
 23 28  1  0  0  0  0
 24 20  1  0  0  0  0
 24 17  1  0  0  0  0
 24 15  1  6  0  0  0
 24 30  1  0  0  0  0
 25 28  1  0  0  0  0
 26 19  2  0  0  0  0
 27 30  1  0  0  0  0
 27 23  1  1  0  0  0
 29 16  1  0  0  0  0
 29 22  1  0  0  0  0
 31 29  2  0  0  0  0
 32 33  1  0  0  0  0
 32 34  1  0  0  0  0
 33 34  1  0  0  0  0
 34  9  1  0  0  0  0
 35 37  2  0  0  0  0
 36 32  1  0  0  0  0
 37 36  1  0  0  0  0
 38 37  1  0  0  0  0
 38 39  1  0  0  0  0
 40 39  1  0  0  0  0
 41 40  1  0  0  0  0
 43 40  1  0  0  0  0
 43 42  1  0  0  0  0
 44 45  1  0  0  0  0
 44 46  1  0  0  0  0
 45 47  1  0  0  0  0
 46 43  1  0  0  0  0
 47 42  1  0  0  0  0
 48 49  1  0  0  0  0
 49 45  1  0  0  0  0
 50 52  1  0  0  0  0
 51 50  2  0  0  0  0
 53 52  1  0  0  0  0
 53 55  1  0  0  0  0
 54 53  2  0  0  0  0
 55 56  1  0  0  0  0
 56 60  1  0  0  0  0
 57 65  1  0  0  0  0
 58 67  1  0  0  0  0
 59 68  1  0  0  0  0
 59 60  1  0  0  0  0
 61 60  1  0  0  0  0
 61 64  1  0  0  0  0
 62 67  1  0  0  0  0
 62 63  1  0  0  0  0
 63 66  1  0  0  0  0
 65 68  1  0  0  0  0
 65 61  1  0  0  0  0
 66 65  1  0  0  0  0
 67 57  1  0  0  0  0
 68 61  1  0  0  0  0
M  END
>  <MODEL>
6

>  <REMARK>
 VINA RESULT:      -3.7      2.962      6.203
  Name = 
  15 active torsions:
  status: ('A' for Active; 'I' for Inactive)
    1  A    between atoms: C_7  and  N_29
    2  A    between atoms: C_8  and  C_12
    3  A    between atoms: C_8  and  N_38
    4  A    between atoms: C_9  and  C_17
    5  A    between atoms: C_16  and  N_39
    6  A    between atoms: C_17  and  C_47
    7  A    between atoms: N_22  and  C_28
    8  A    between atoms: O_23  and  C_57
    9  A    between atoms: C_30  and  N_36
   10  A    between atoms: C_30  and  C_47
   11  A    between atoms: N_31  and  C_35
   12  A    between atoms: N_31  and  N_36
   13  A    between atoms: N_38  and  C_50
   14  A    between atoms: C_43  and  C_64
   15  A    between atoms: C_50  and  C_51
                            x       y       z     vdW  Elec       q    Type
                         _______ _______ _______ _____ _____    ______ ____

>  <TORSDO>
F 15

$$$$
=
 OpenBabel11042418573D

 68 79  0  0  1  0  0  0  0  0999 V2000
  188.0510  178.0400  144.2020 S   0  0  0  0  0  0  0  0  0  0  0  0
  188.0010  177.6650  142.3930 C   0  0  1  0  0  3  0  0  0  0  0  0
  191.1610  176.5740  143.1890 C   0  0  0  0  0  0  0  0  0  0  0  0
  191.6380  172.8570  144.6640 C   0  0  0  0  0  1  0  0  0  0  0  0
  189.8550  178.3700  144.0490 C   0  0  0  0  0  2  0  0  0  0  0  0
  191.9240  175.5260  143.5040 C   0  0  0  0  0  0  0  0  0  0  0  0
  193.2250  174.6760  143.2780 N   0  0  0  0  0  0  0  0  0  0  0  0
  189.3060  177.2810  141.9420 N   0  0  0  0  0  2  0  0  0  0  0  0
  191.9480  174.1160  143.6380 C   0  0  1  0  0  0  0  0  0  0  0  0
  190.3230  177.5270  142.9230 C   0  0  0  0  0  0  0  0  0  0  0  0
  192.8770  175.0320  144.8010 C   0  0  1  0  0  0  0  0  0  0  0  0
  191.7300  175.3060  145.9740 C   0  0  0  0  0  1  0  0  0  0  0  0
  194.0830  174.4160  145.6120 C   0  0  2  0  0  3  0  0  0  0  0  0
  193.9950  175.9060  145.4120 C   0  0  0  0  0  2  0  0  0  0  0  0
  196.3180  173.6650  145.6470 C   0  0  0  0  0  2  0  0  0  0  0  0
  194.5950  170.4250  144.1780 N   0  0  0  0  0  0  0  0  0  0  0  0
  194.4840  171.6620  145.0090 C   0  0  2  0  0  3  0  0  0  0  0  0
  197.4790  168.4520  145.0690 C   0  0  0  0  0  2  0  0  0  0  0  0
  193.5080  169.5130  144.1130 C   0  0  0  0  0  0  0  0  0  0  0  0
  195.2070  173.9770  144.7520 N   0  0  1  0  0  0  0  0  0  0  0  0
  192.2700  169.8780  144.6420 O   0  0  0  0  0  1  0  0  0  0  0  0
  196.9570  169.8850  144.8900 C   0  0  2  0  0  3  0  0  0  0  0  0
  195.7930  169.3970  147.0380 N   0  0  0  0  0  2  0  0  0  0  0  0
  195.7440  172.5710  144.8600 C   0  0  2  0  0  0  0  0  0  0  0  0
  197.9370  168.2070  146.5050 C   0  0  0  0  0  2  0  0  0  0  0  0
  193.5860  168.4190  143.4760 O   0  0  0  0  0  0  0  0  0  0  0  0
  196.4260  170.4620  146.2340 C   0  0  2  0  0  3  0  0  0  0  0  0
  196.7910  168.4340  147.5110 C   0  0  0  0  0  2  0  0  0  0  0  0
  195.9060  169.9110  143.8440 C   0  0  0  0  0  0  0  0  0  0  0  0
  195.4740  171.7090  146.1170 C   0  0  2  0  0  3  0  0  0  0  0  0
  196.1560  169.5830  142.6520 O   0  0  0  0  0  0  0  0  0  0  0  0
  192.1220  172.7410  141.4340 C   0  0  1  0  0  3  0  0  0  0  0  0
  191.9420  174.1450  141.2060 O   0  0  0  0  0  0  0  0  0  0  0  0
  191.2420  173.6050  142.3110 C   0  0  2  0  0  3  0  0  0  0  0  0
  192.0000  169.8630  140.8430 O   0  0  0  0  0  0  0  0  0  0  0  0
  191.4150  172.0750  140.3170 N   0  0  0  0  0  2  0  0  0  0  0  0
  191.8980  170.7720  139.9680 C   0  0  0  0  0  0  0  0  0  0  0  0
  192.3950  170.5280  138.5540 C   0  0  0  0  0  2  0  0  0  0  0  0
  193.7810  170.1090  138.5360 N   0  0  0  0  0  2  0  0  0  0  0  0
  194.6000  171.1820  137.9370 C   0  0  1  0  0  3  0  0  0  0  0  0
  193.8170  172.3100  137.5890 O   0  0  0  0  0  1  0  0  0  0  0  0
  195.4140  171.8950  140.2740 C   0  0  0  0  0  2  0  0  0  0  0  0
  195.8270  171.4700  138.8440 C   0  0  2  0  0  3  0  0  0  0  0  0
  197.7110  173.1990  138.9720 C   0  0  0  0  0  2  0  0  0  0  0  0
  197.1020  173.7940  140.2390 C   0  0  2  0  0  3  0  0  0  0  0  0
  196.6150  172.5740  138.1050 C   0  0  0  0  0  2  0  0  0  0  0  0
  196.5210  172.6050  141.0170 C   0  0  0  0  0  2  0  0  0  0  0  0
  196.4050  175.8800  140.6860 C   0  0  0  0  0  1  0  0  0  0  0  0
  196.1310  174.7410  139.9140 O   0  0  0  0  0  0  0  0  0  0  0  0
  186.9370  176.7350  141.9150 C   0  0  0  0  0  0  0  0  0  0  0  0
  185.9860  176.4490  142.6380 O   0  0  0  0  0  0  0  0  0  0  0  0
  186.9190  176.4550  140.4450 C   0  0  0  0  0  2  0  0  0  0  0  0
  186.1630  177.3970  139.5690 C   0  0  0  0  0  0  0  0  0  0  0  0
  184.9760  177.8100  139.9400 C   0  0  0  0  0  2  0  0  0  0  0  0
  186.4220  177.2530  138.1570 N   0  0  0  0  0  2  0  0  0  0  0  0
  187.6830  177.4970  137.5680 N   0  0  0  0  0  2  0  0  0  0  0  0
  188.6080  174.5630  137.8520 C   0  0  0  0  0  2  0  0  0  0  0  0
  188.0600  172.6520  139.3500 C   0  0  0  0  0  1  0  0  0  0  0  0
  186.3620  175.7400  135.9740 S   0  0  0  0  0  0  0  0  0  0  0  0
  187.6070  177.0390  136.1710 C   0  0  2  0  0  3  0  0  0  0  0  0
  188.8030  176.1810  135.7930 C   0  0  1  0  0  0  0  0  0  0  0  0
  188.8640  172.2650  137.1140 O   0  0  0  0  0  0  0  0  0  0  0  0
  190.0050  172.4890  136.2970 C   0  0  0  0  0  2  0  0  0  0  0  0
  189.5860  176.5860  134.5480 C   0  0  0  0  0  1  0  0  0  0  0  0
  189.0240  174.8090  136.4030 C   0  0  1  0  0  0  0  0  0  0  0  0
  190.1500  173.9600  135.8590 C   0  0  0  0  0  2  0  0  0  0  0  0
  188.9850  173.1310  138.2400 C   0  0  1  0  0  3  0  0  0  0  0  0
  187.9120  174.9780  135.4030 C   0  0  1  0  0  3  0  0  0  0  0  0
  2 50  1  1  0  0  0
  2  1  1  0  0  0  0
  3  6  2  0  0  0  0
  5  1  1  0  0  0  0
  6  9  1  0  0  0  0
  7  6  1  0  0  0  0
  7  9  1  0  0  0  0
  7 11  1  0  0  0  0
  8  2  1  0  0  0  0
  8 10  1  0  0  0  0
  9  4  1  1  0  0  0
 10  3  2  0  0  0  0
 10  5  1  0  0  0  0
 11 14  1  0  0  0  0
 11 13  1  0  0  0  0
 11 12  1  1  0  0  0
 13 14  1  1  0  0  0
 17 16  1  6  0  0  0
 17 30  1  0  0  0  0
 18 25  1  0  0  0  0
 19 16  1  0  0  0  0
 19 21  1  0  0  0  0
 20 24  1  0  0  0  0
 20 13  1  0  0  0  0
 20 15  1  1  0  0  0
 22 18  1  1  0  0  0
 22 27  1  0  0  0  0
 23 28  1  0  0  0  0
 24 17  1  0  0  0  0
 24 15  1  6  0  0  0
 24 30  1  0  0  0  0
 25 28  1  0  0  0  0
 26 19  2  0  0  0  0
 27 23  1  6  0  0  0
 29 16  1  0  0  0  0
 29 22  1  0  0  0  0
 30 27  1  0  0  0  0
 31 29  2  0  0  0  0
 32 34  1  0  0  0  0
 33 32  1  0  0  0  0
 33 34  1  0  0  0  0
 34  9  1  0  0  0  0
 36 32  1  0  0  0  0
 37 36  1  0  0  0  0
 37 35  2  0  0  0  0
 38 37  1  0  0  0  0
 39 38  1  0  0  0  0
 40 39  1  0  0  0  0
 40 43  1  0  0  0  0
 41 40  1  0  0  0  0
 42 47  1  0  0  0  0
 43 42  1  0  0  0  0
 44 45  1  0  0  0  0
 45 47  1  0  0  0  0
 46 43  1  0  0  0  0
 46 44  1  0  0  0  0
 49 45  1  0  0  0  0
 49 48  1  0  0  0  0
 50 51  2  0  0  0  0
 52 50  1  0  0  0  0
 53 54  2  0  0  0  0
 53 52  1  0  0  0  0
 55 53  1  0  0  0  0
 56 55  1  0  0  0  0
 57 67  1  0  0  0  0
 59 60  1  0  0  0  0
 60 56  1  0  0  0  0
 61 60  1  0  0  0  0
 61 65  1  0  0  0  0
 62 67  1  0  0  0  0
 63 62  1  0  0  0  0
 64 61  1  0  0  0  0
 65 57  1  0  0  0  0
 66 63  1  0  0  0  0
 66 65  1  0  0  0  0
 67 58  1  0  0  0  0
 68 61  1  0  0  0  0
 68 59  1  0  0  0  0
 68 65  1  0  0  0  0
M  END
>  <MODEL>
7

>  <REMARK>
 VINA RESULT:      -3.7      3.243      8.507
  Name = 
  15 active torsions:
  status: ('A' for Active; 'I' for Inactive)
    1  A    between atoms: C_7  and  N_29
    2  A    between atoms: C_8  and  C_12
    3  A    between atoms: C_8  and  N_38
    4  A    between atoms: C_9  and  C_17
    5  A    between atoms: C_16  and  N_39
    6  A    between atoms: C_17  and  C_47
    7  A    between atoms: N_22  and  C_28
    8  A    between atoms: O_23  and  C_57
    9  A    between atoms: C_30  and  N_36
   10  A    between atoms: C_30  and  C_47
   11  A    between atoms: N_31  and  C_35
   12  A    between atoms: N_31  and  N_36
   13  A    between atoms: N_38  and  C_50
   14  A    between atoms: C_43  and  C_64
   15  A    between atoms: C_50  and  C_51
                            x       y       z     vdW  Elec       q    Type
                         _______ _______ _______ _____ _____    ______ ____

>  <TORSDO>
F 15

$$$$
=
 OpenBabel11042418573D

 68 79  0  0  1  0  0  0  0  0999 V2000
  186.8730  177.4770  145.5460 S   0  0  0  0  0  0  0  0  0  0  0  0
  187.0290  177.8990  143.7520 C   0  0  1  0  0  3  0  0  0  0  0  0
  190.1820  176.7000  144.4090 C   0  0  0  0  0  0  0  0  0  0  0  0
  190.8410  172.7300  144.2560 C   0  0  0  0  0  1  0  0  0  0  0  0
  188.6480  177.9120  145.7680 C   0  0  0  0  0  2  0  0  0  0  0  0
  191.0000  175.6480  144.3530 C   0  0  0  0  0  0  0  0  0  0  0  0
  192.3870  175.0250  143.9560 N   0  0  0  0  0  0  0  0  0  0  0  0
  188.4010  177.7940  143.3490 N   0  0  0  0  0  2  0  0  0  0  0  0
  191.1350  174.3160  143.8920 C   0  0  1  0  0  0  0  0  0  0  0  0
  189.2930  177.6430  144.4600 C   0  0  0  0  0  0  0  0  0  0  0  0
  191.8650  174.6910  145.4340 C   0  0  1  0  0  0  0  0  0  0  0  0
  190.6050  174.2950  146.4450 C   0  0  0  0  0  1  0  0  0  0  0  0
  193.1090  174.0040  146.1220 C   0  0  2  0  0  3  0  0  0  0  0  0
  192.7370  175.4170  146.4830 C   0  0  0  0  0  2  0  0  0  0  0  0
  195.4340  173.6110  146.1770 C   0  0  0  0  0  2  0  0  0  0  0  0
  194.4450  171.1040  143.2840 N   0  0  0  0  0  0  0  0  0  0  0  0
  194.0470  171.8450  144.5190 C   0  0  2  0  0  3  0  0  0  0  0  0
  197.5600  169.3370  143.7100 C   0  0  0  0  0  2  0  0  0  0  0  0
  193.5490  170.1720  142.6950 C   0  0  0  0  0  0  0  0  0  0  0  0
  194.3580  174.1230  145.3320 N   0  0  1  0  0  0  0  0  0  0  0  0
  192.2280  170.1110  143.1400 O   0  0  0  0  0  1  0  0  0  0  0  0
  196.8030  170.6290  144.0540 C   0  0  2  0  0  3  0  0  0  0  0  0
  195.5830  169.1280  145.6220 N   0  0  0  0  0  2  0  0  0  0  0  0
  195.1300  172.8880  144.9380 C   0  0  2  0  0  0  0  0  0  0  0  0
  197.9410  168.5690  144.9740 C   0  0  0  0  0  2  0  0  0  0  0  0
  193.8740  169.4720  141.6880 O   0  0  0  0  0  0  0  0  0  0  0  0
  196.0730  170.5060  145.4220 C   0  0  2  0  0  3  0  0  0  0  0  0
  196.6980  168.1950  145.8050 C   0  0  0  0  0  2  0  0  0  0  0  0
  195.8490  170.9580  142.9660 C   0  0  0  0  0  0  0  0  0  0  0  0
  194.9230  171.5470  145.6830 C   0  0  2  0  0  3  0  0  0  0  0  0
  196.2470  171.2020  141.7940 O   0  0  0  0  0  0  0  0  0  0  0  0
  191.6490  174.0390  141.3540 C   0  0  1  0  0  3  0  0  0  0  0  0
  191.3370  175.3900  141.7190 O   0  0  0  0  0  0  0  0  0  0  0  0
  190.6070  174.3840  142.3960 C   0  0  2  0  0  3  0  0  0  0  0  0
  192.7680  172.4200  139.1700 O   0  0  0  0  0  0  0  0  0  0  0  0
  191.1170  173.8780  139.9820 N   0  0  0  0  0  2  0  0  0  0  0  0
  192.0680  173.4600  138.9950 C   0  0  0  0  0  0  0  0  0  0  0  0
  192.3080  174.3460  137.7850 C   0  0  0  0  0  2  0  0  0  0  0  0
  193.6880  174.7750  137.6980 N   0  0  0  0  0  2  0  0  0  0  0  0
  194.2270  174.3970  136.3760 C   0  0  1  0  0  3  0  0  0  0  0  0
  193.6840  175.1930  135.3390 O   0  0  0  0  0  1  0  0  0  0  0  0
  196.3740  173.3660  135.3960 C   0  0  0  0  0  2  0  0  0  0  0  0
  195.7770  174.3420  136.4400 C   0  0  2  0  0  3  0  0  0  0  0  0
  197.5680  173.5350  138.0830 C   0  0  0  0  0  2  0  0  0  0  0  0
  197.9350  172.3870  137.1460 C   0  0  2  0  0  3  0  0  0  0  0  0
  196.0990  173.9220  137.8920 C   0  0  0  0  0  2  0  0  0  0  0  0
  197.7880  172.9490  135.7250 C   0  0  0  0  0  2  0  0  0  0  0  0
  197.4110  170.3430  136.3840 C   0  0  0  0  0  1  0  0  0  0  0  0
  197.1030  171.2900  137.3720 O   0  0  0  0  0  0  0  0  0  0  0  0
  186.1020  177.2160  142.8050 C   0  0  0  0  0  0  0  0  0  0  0  0
  184.9090  177.0950  143.0760 O   0  0  0  0  0  0  0  0  0  0  0  0
  186.6190  177.0040  141.4170 C   0  0  0  0  0  2  0  0  0  0  0  0
  185.9190  177.7060  140.3010 C   0  0  0  0  0  0  0  0  0  0  0  0
  184.8380  178.4010  140.5550 C   0  0  0  0  0  2  0  0  0  0  0  0
  186.0260  177.0590  139.0150 N   0  0  0  0  0  2  0  0  0  0  0  0
  187.2190  177.0230  138.2590 N   0  0  0  0  0  2  0  0  0  0  0  0
  188.6140  174.5200  137.1060 C   0  0  0  0  0  2  0  0  0  0  0  0
  188.7850  172.1180  137.7350 C   0  0  0  0  0  1  0  0  0  0  0  0
  185.7940  175.7180  136.3520 S   0  0  0  0  0  0  0  0  0  0  0  0
  186.8370  177.1140  136.8410 C   0  0  2  0  0  3  0  0  0  0  0  0
  188.0000  176.7810  135.9210 C   0  0  1  0  0  0  0  0  0  0  0  0
  189.0020  172.8010  135.4370 O   0  0  0  0  0  0  0  0  0  0  0  0
  189.8320  173.5870  134.5930 C   0  0  0  0  0  2  0  0  0  0  0  0
  188.3480  177.8010  134.8400 C   0  0  0  0  0  1  0  0  0  0  0  0
  188.5810  175.3820  135.8450 C   0  0  1  0  0  0  0  0  0  0  0  0
  189.6320  175.1020  134.7950 C   0  0  0  0  0  2  0  0  0  0  0  0
  189.2930  173.1880  136.7780 C   0  0  1  0  0  3  0  0  0  0  0  0
  187.2270  175.6300  135.2350 C   0  0  1  0  0  3  0  0  0  0  0  0
  1  5  1  0  0  0  0
  2 50  1  6  0  0  0
  2  1  1  0  0  0  0
  3 10  2  0  0  0  0
  6  3  2  0  0  0  0
  7  6  1  0  0  0  0
  7 11  1  0  0  0  0
  8  2  1  0  0  0  0
  8 10  1  0  0  0  0
  9  7  1  0  0  0  0
  9  4  1  1  0  0  0
  9  6  1  0  0  0  0
 10  5  1  0  0  0  0
 11 13  1  0  0  0  0
 11 12  1  1  0  0  0
 11 14  1  0  0  0  0
 13 14  1  1  0  0  0
 17 16  1  6  0  0  0
 17 24  1  0  0  0  0
 17 30  1  0  0  0  0
 18 25  1  0  0  0  0
 19 21  1  0  0  0  0
 19 16  1  0  0  0  0
 20 13  1  0  0  0  0
 20 15  1  1  0  0  0
 22 18  1  6  0  0  0
 22 27  1  0  0  0  0
 23 28  1  0  0  0  0
 24 20  1  0  0  0  0
 24 30  1  0  0  0  0
 24 15  1  6  0  0  0
 25 28  1  0  0  0  0
 26 19  2  0  0  0  0
 27 23  1  6  0  0  0
 27 30  1  0  0  0  0
 29 16  1  0  0  0  0
 29 22  1  0  0  0  0
 31 29  2  0  0  0  0
 32 33  1  0  0  0  0
 32 34  1  0  0  0  0
 33 34  1  0  0  0  0
 34  9  1  0  0  0  0
 36 32  1  0  0  0  0
 37 35  2  0  0  0  0
 37 36  1  0  0  0  0
 38 37  1  0  0  0  0
 39 38  1  0  0  0  0
 40 43  1  0  0  0  0
 40 39  1  0  0  0  0
 41 40  1  0  0  0  0
 42 47  1  0  0  0  0
 42 43  1  0  0  0  0
 43 46  1  0  0  0  0
 45 49  1  0  0  0  0
 45 44  1  0  0  0  0
 46 44  1  0  0  0  0
 47 45  1  0  0  0  0
 48 49  1  0  0  0  0
 50 51  2  0  0  0  0
 52 50  1  0  0  0  0
 53 54  2  0  0  0  0
 53 52  1  0  0  0  0
 55 53  1  0  0  0  0
 56 55  1  0  0  0  0
 59 60  1  0  0  0  0
 60 56  1  0  0  0  0
 61 60  1  0  0  0  0
 62 67  1  0  0  0  0
 63 66  1  0  0  0  0
 63 62  1  0  0  0  0
 64 61  1  0  0  0  0
 65 61  1  0  0  0  0
 65 57  1  0  0  0  0
 66 65  1  0  0  0  0
 67 57  1  0  0  0  0
 67 58  1  0  0  0  0
 68 65  1  0  0  0  0
 68 61  1  0  0  0  0
 68 59  1  0  0  0  0
M  END
>  <MODEL>
8

>  <REMARK>
 VINA RESULT:      -3.6      3.424      9.155
  Name = 
  15 active torsions:
  status: ('A' for Active; 'I' for Inactive)
    1  A    between atoms: C_7  and  N_29
    2  A    between atoms: C_8  and  C_12
    3  A    between atoms: C_8  and  N_38
    4  A    between atoms: C_9  and  C_17
    5  A    between atoms: C_16  and  N_39
    6  A    between atoms: C_17  and  C_47
    7  A    between atoms: N_22  and  C_28
    8  A    between atoms: O_23  and  C_57
    9  A    between atoms: C_30  and  N_36
   10  A    between atoms: C_30  and  C_47
   11  A    between atoms: N_31  and  C_35
   12  A    between atoms: N_31  and  N_36
   13  A    between atoms: N_38  and  C_50
   14  A    between atoms: C_43  and  C_64
   15  A    between atoms: C_50  and  C_51
                            x       y       z     vdW  Elec       q    Type
                         _______ _______ _______ _____ _____    ______ ____

>  <TORSDO>
F 15

$$$$
