=
 OpenBabel11042419583D

 41 46  0  0  1  0  0  0  0  0999 V2000
  190.5910  176.5150  144.8000 C   0  0  2  0  0  3  0  0  0  0  0  0
  187.3640  176.5170  146.7110 C   0  0  0  0  0  3  0  0  0  0  0  0
  189.1380  176.8320  144.9820 C   0  0  0  0  0  0  0  0  0  0  0  0
  184.0420  178.6450  145.8910 C   0  0  0  0  0  3  0  0  0  0  0  0
  184.8910  178.4780  144.8780 C   0  0  0  0  0  2  0  0  0  0  0  0
  187.1150  178.0480  144.0750 C   0  0  0  0  0  3  0  0  0  0  0  0
  186.2900  178.0940  145.1220 C   0  0  0  0  0  0  0  0  0  0  0  0
  185.7300  178.1120  147.5830 C   0  0  0  0  0  3  0  0  0  0  0  0
  186.7870  177.8810  146.5340 C   0  0  0  0  0  0  0  0  0  0  0  0
  188.5400  177.6600  144.1090 C   0  0  0  0  0  3  0  0  0  0  0  0
  184.4750  178.4590  147.2850 C   0  0  0  0  0  3  0  0  0  0  0  0
  188.4280  176.0830  146.0380 C   0  0  0  0  0  3  0  0  0  0  0  0
  191.3470  177.0800  145.8630 O   0  0  0  0  0  0  0  0  0  0  0  0
  192.1510  176.3070  146.7030 C   0  0  0  0  0  0  0  0  0  0  0  0
  191.6460  175.6120  147.6250 O   0  0  0  0  0  0  0  0  0  0  0  0
  193.6310  176.3390  146.5340 C   0  0  0  0  0  2  0  0  0  0  0  0
  194.1280  175.0110  146.0740 C   0  0  0  0  0  0  0  0  0  0  0  0
  193.6870  172.6910  145.2870 C   0  0  0  0  0  2  0  0  0  0  0  0
  195.5720  174.7960  145.9010 C   0  0  0  0  0  3  0  0  0  0  0  0
  196.0390  173.5950  145.5670 C   0  0  0  0  0  3  0  0  0  0  0  0
  195.1390  172.4930  145.3580 N   0  0  0  0  0  0  0  0  0  0  0  0
  193.2560  174.0340  145.8130 C   0  0  0  0  0  3  0  0  0  0  0  0
  196.7120  170.7600  146.0940 C   0  0  0  0  0  1  0  0  0  0  0  0
  195.6540  171.1570  145.0800 C   0  0  0  0  0  3  0  0  0  0  0  0
  194.5290  170.1390  145.0680 C   0  0  0  0  0  1  0  0  0  0  0  0
  191.2150  177.1130  143.1890 S   0  0  0  0  0  0  0  0  0  0  0  0
  190.0000  173.4860  141.7600 C   0  0  0  0  0  3  0  0  0  0  0  0
  196.8520  173.6330  141.8390 C   0  0  0  0  0  0  0  0  0  0  0  0
  196.7200  172.1820  141.5290 C   0  0  0  0  0  3  0  0  0  0  0  0
  195.1940  171.9270  141.5430 C   0  0  0  0  0  3  0  0  0  0  0  0
  195.2320  175.4650  142.2790 C   0  0  0  0  0  3  0  0  0  0  0  0
  193.8050  175.8160  142.4150 C   0  0  0  0  0  3  0  0  0  0  0  0
  195.5480  174.2020  142.0290 C   0  0  0  0  0  0  0  0  0  0  0  0
  191.4200  175.4520  142.5150 C   0  0  0  0  0  0  0  0  0  0  0  0
  194.5660  173.2080  141.8700 N   0  0  0  0  0  0  0  0  0  0  0  0
  190.2710  174.8240  142.2790 C   0  0  0  0  0  3  0  0  0  0  0  0
  192.7940  174.9320  142.2580 C   0  0  0  0  0  0  0  0  0  0  0  0
  197.9410  174.2630  141.9090 O   0  0  0  0  0  0  0  0  0  0  0  0
  192.3160  172.5380  141.5820 C   0  0  0  0  0  3  0  0  0  0  0  0
  193.1610  173.5170  141.9090 C   0  0  0  0  0  0  0  0  0  0  0  0
  190.8610  172.5250  141.4710 C   0  0  0  0  0  3  0  0  0  0  0  0
  1 26  1  6  0  0  0
  1  3  1  0  0  0  0
  1 13  1  0  0  0  0
  3 12  1  0  0  0  0
  4 11  2  0  0  0  0
  5  7  1  0  0  0  0
  5  4  1  0  0  0  0
  6 10  1  0  0  0  0
  6  7  2  0  0  0  0
  7  9  1  0  0  0  0
  9  2  1  0  0  0  0
  9  8  2  0  0  0  0
 10  3  2  0  0  0  0
 11  8  1  0  0  0  0
 12  2  2  0  0  0  0
 13 14  1  0  0  0  0
 14 15  2  0  0  0  0
 16 14  1  0  0  0  0
 17 16  1  0  0  0  0
 18 21  1  0  0  0  0
 18 22  1  0  0  0  0
 19 17  1  0  0  0  0
 20 19  2  0  0  0  0
 21 20  1  0  0  0  0
 22 17  2  0  0  0  0
 24 21  1  0  0  0  0
 24 23  1  0  0  0  0
 25 24  1  0  0  0  0
 27 36  1  0  0  0  0
 28 38  2  0  0  0  0
 28 33  1  0  0  0  0
 29 30  2  0  0  0  0
 29 28  1  0  0  0  0
 30 35  1  0  0  0  0
 31 32  1  0  0  0  0
 33 31  2  0  0  0  0
 34 26  1  0  0  0  0
 35 40  1  0  0  0  0
 35 33  1  0  0  0  0
 36 34  2  0  0  0  0
 37 32  2  0  0  0  0
 37 34  1  0  0  0  0
 39 40  2  0  0  0  0
 40 37  1  0  0  0  0
 41 39  1  0  0  0  0
 41 27  2  0  0  0  0
M  END
>  <MODEL>
1

>  <REMARK>
 VINA RESULT:      -8.5      0.000      0.000
  Name = 
  8 active torsions:
  status: ('A' for Active; 'I' for Inactive)
    1  A    between atoms: C_1  and  C_9
    2  A    between atoms: C_1  and  O_18
    3  A    between atoms: C_3  and  C_9
    4  A    between atoms: C_4  and  C_19
    5  A    between atoms: O_18  and  C_19
    6  A    between atoms: C_19  and  S_33
    7  A    between atoms: C_21  and  S_33
    8  A    between atoms: C_22  and  N_38
                            x       y       z     vdW  Elec       q    Type
                         _______ _______ _______ _____ _____    ______ ____

>  <TORSDO>
F 8

$$$$
=
 OpenBabel11042419583D

 41 46  0  0  1  0  0  0  0  0999 V2000
  189.8530  174.9950  144.4100 C   0  0  2  0  0  3  0  0  0  0  0  0
  187.2790  177.7190  144.2540 C   0  0  0  0  0  3  0  0  0  0  0  0
  188.8160  175.8980  145.0040 C   0  0  0  0  0  0  0  0  0  0  0  0
  184.5480  178.6600  147.0630 C   0  0  0  0  0  3  0  0  0  0  0  0
  185.6010  177.9620  147.4860 C   0  0  0  0  0  3  0  0  0  0  0  0
  187.4150  176.4520  147.0350 C   0  0  0  0  0  3  0  0  0  0  0  0
  186.4420  177.2160  146.5380 C   0  0  0  0  0  0  0  0  0  0  0  0
  184.9020  178.0480  144.7180 C   0  0  0  0  0  3  0  0  0  0  0  0
  186.1220  177.2320  145.0600 C   0  0  1  0  0  3  0  0  0  0  0  0
  188.3790  175.6530  146.2510 C   0  0  0  0  0  3  0  0  0  0  0  0
  184.1860  178.7020  145.6370 C   0  0  0  0  0  3  0  0  0  0  0  0
  188.4540  177.0930  144.2160 C   0  0  0  0  0  3  0  0  0  0  0  0
  189.3430  174.3790  143.2340 O   0  0  0  0  0  0  0  0  0  0  0  0
  190.0820  174.2970  142.0520 C   0  0  0  0  0  0  0  0  0  0  0  0
  189.7420  174.9500  141.0290 O   0  0  0  0  0  0  0  0  0  0  0  0
  191.2620  173.3900  141.9870 C   0  0  0  0  0  2  0  0  0  0  0  0
  192.5230  174.1840  141.9530 C   0  0  0  0  0  0  0  0  0  0  0  0
  193.7610  176.2980  142.3970 C   0  0  0  0  0  2  0  0  0  0  0  0
  193.7690  173.5490  141.4970 C   0  0  0  0  0  3  0  0  0  0  0  0
  194.8860  174.2630  141.3860 C   0  0  0  0  0  3  0  0  0  0  0  0
  194.8970  175.6620  141.7210 N   0  0  0  0  0  0  0  0  0  0  0  0
  192.5110  175.4600  142.3480 C   0  0  0  0  0  3  0  0  0  0  0  0
  196.7660  176.7960  142.8370 C   0  0  0  0  0  1  0  0  0  0  0  0
  196.0970  176.4650  141.5150 C   0  0  0  0  0  3  0  0  0  0  0  0
  197.0710  175.7500  140.5970 C   0  0  0  0  0  1  0  0  0  0  0  0
  190.4040  173.7230  145.6040 S   0  0  0  0  0  0  0  0  0  0  0  0
  193.0590  176.6290  146.6910 C   0  0  0  0  0  3  0  0  0  0  0  0
  196.5420  171.3390  144.0700 C   0  0  0  0  0  0  0  0  0  0  0  0
  197.6940  172.2820  144.1360 C   0  0  0  0  0  3  0  0  0  0  0  0
  197.0750  173.6040  144.6490 C   0  0  0  0  0  3  0  0  0  0  0  0
  194.1250  171.5180  144.6170 C   0  0  0  0  0  3  0  0  0  0  0  0
  193.0510  172.4120  145.0940 C   0  0  0  0  0  3  0  0  0  0  0  0
  195.3470  172.0150  144.4930 C   0  0  0  0  0  0  0  0  0  0  0  0
  192.0300  174.4710  145.8330 C   0  0  0  0  0  0  0  0  0  0  0  0
  195.6450  173.3490  144.8240 N   0  0  0  0  0  0  0  0  0  0  0  0
  191.9880  175.6910  146.3640 C   0  0  0  0  0  3  0  0  0  0  0  0
  193.2490  173.7000  145.4550 C   0  0  0  0  0  0  0  0  0  0  0  0
  196.6120  170.1340  143.7140 O   0  0  0  0  0  0  0  0  0  0  0  0
  195.0730  175.4220  145.8070 C   0  0  0  0  0  3  0  0  0  0  0  0
  194.6510  174.2330  145.3730 C   0  0  0  0  0  0  0  0  0  0  0  0
  194.3550  176.5160  146.4530 C   0  0  0  0  0  3  0  0  0  0  0  0
  1 13  1  6  0  0  0
  1  3  1  0  0  0  0
  1 26  1  0  0  0  0
  3 10  2  0  0  0  0
  4  5  2  0  0  0  0
  7  6  2  0  0  0  0
  7  5  1  0  0  0  0
  8  9  1  0  0  0  0
  8 11  2  0  0  0  0
  9  2  1  6  0  0  0
  9  7  1  0  0  0  0
 10  6  1  0  0  0  0
 11  4  1  0  0  0  0
 12  2  2  0  0  0  0
 12  3  1  0  0  0  0
 14 13  1  0  0  0  0
 15 14  2  0  0  0  0
 16 14  1  0  0  0  0
 17 16  1  0  0  0  0
 17 22  2  0  0  0  0
 19 17  1  0  0  0  0
 20 19  2  0  0  0  0
 20 21  1  0  0  0  0
 21 18  1  0  0  0  0
 22 18  1  0  0  0  0
 24 21  1  0  0  0  0
 24 23  1  0  0  0  0
 25 24  1  0  0  0  0
 26 34  1  0  0  0  0
 28 29  1  0  0  0  0
 28 33  1  0  0  0  0
 29 30  2  0  0  0  0
 30 35  1  0  0  0  0
 31 32  1  0  0  0  0
 32 37  2  0  0  0  0
 33 31  2  0  0  0  0
 33 35  1  0  0  0  0
 34 36  2  0  0  0  0
 35 40  1  0  0  0  0
 36 27  1  0  0  0  0
 37 34  1  0  0  0  0
 38 28  2  0  0  0  0
 39 41  1  0  0  0  0
 40 37  1  0  0  0  0
 40 39  2  0  0  0  0
 41 27  2  0  0  0  0
M  END
>  <MODEL>
2

>  <REMARK>
 VINA RESULT:      -8.5      1.842      4.386
  Name = 
  8 active torsions:
  status: ('A' for Active; 'I' for Inactive)
    1  A    between atoms: C_1  and  C_9
    2  A    between atoms: C_1  and  O_18
    3  A    between atoms: C_3  and  C_9
    4  A    between atoms: C_4  and  C_19
    5  A    between atoms: O_18  and  C_19
    6  A    between atoms: C_19  and  S_33
    7  A    between atoms: C_21  and  S_33
    8  A    between atoms: C_22  and  N_38
                            x       y       z     vdW  Elec       q    Type
                         _______ _______ _______ _____ _____    ______ ____

>  <TORSDO>
F 8

$$$$
=
 OpenBabel11042419583D

 41 46  0  0  1  0  0  0  0  0999 V2000
  190.6640  176.5850  144.8670 C   0  0  2  0  0  3  0  0  0  0  0  0
  187.4040  176.4840  146.7200 C   0  0  0  0  0  3  0  0  0  0  0  0
  189.2080  176.8920  145.0410 C   0  0  0  0  0  0  0  0  0  0  0  0
  184.0960  178.6560  145.9580 C   0  0  0  0  0  3  0  0  0  0  0  0
  184.9630  178.5440  144.9530 C   0  0  0  0  0  2  0  0  0  0  0  0
  187.2010  178.1560  144.1670 C   0  0  0  0  0  3  0  0  0  0  0  0
  186.3570  178.1460  145.2000 C   0  0  0  0  0  0  0  0  0  0  0  0
  185.7540  178.0300  147.6480 C   0  0  0  0  0  3  0  0  0  0  0  0
  186.8290  177.8560  146.6070 C   0  0  0  0  0  0  0  0  0  0  0  0
  188.6250  177.7670  144.2040 C   0  0  0  0  0  3  0  0  0  0  0  0
  184.5040  178.3940  147.3480 C   0  0  0  0  0  3  0  0  0  0  0  0
  188.4800  176.0880  146.0430 C   0  0  0  0  0  3  0  0  0  0  0  0
  191.3520  176.7890  146.0950 O   0  0  0  0  0  0  0  0  0  0  0  0
  191.8820  175.7340  146.8400 C   0  0  0  0  0  0  0  0  0  0  0  0
  191.2540  175.2570  147.8240 O   0  0  0  0  0  0  0  0  0  0  0  0
  193.2270  175.1950  146.4950 C   0  0  0  0  0  2  0  0  0  0  0  0
  193.0940  173.9260  145.7260 C   0  0  0  0  0  0  0  0  0  0  0  0
  194.0840  171.8250  144.8300 C   0  0  0  0  0  2  0  0  0  0  0  0
  191.7810  173.5380  145.1870 C   0  0  0  0  0  3  0  0  0  0  0  0
  191.6590  172.4490  144.4320 C   0  0  0  0  0  3  0  0  0  0  0  0
  192.8040  171.6280  144.1410 N   0  0  0  0  0  0  0  0  0  0  0  0
  194.1640  173.1480  145.5430 C   0  0  0  0  0  3  0  0  0  0  0  0
  192.9590  169.1850  143.9750 C   0  0  0  0  0  1  0  0  0  0  0  0
  192.6890  170.4870  143.2410 C   0  0  0  0  0  3  0  0  0  0  0  0
  191.3180  170.4490  142.5920 C   0  0  0  0  0  1  0  0  0  0  0  0
  191.4140  177.5970  143.5430 S   0  0  0  0  0  0  0  0  0  0  0  0
  194.6580  175.2730  142.6790 C   0  0  0  0  0  3  0  0  0  0  0  0
  189.1490  172.5860  139.6110 C   0  0  0  0  0  0  0  0  0  0  0  0
  190.1560  171.7140  138.9420 C   0  0  0  0  0  3  0  0  0  0  0  0
  191.5170  172.2320  139.4640 C   0  0  0  0  0  3  0  0  0  0  0  0
  189.2900  174.4580  141.2380 C   0  0  0  0  0  3  0  0  0  0  0  0
  190.1970  175.3170  142.0240 C   0  0  0  0  0  3  0  0  0  0  0  0
  189.8240  173.5380  140.4460 C   0  0  0  0  0  0  0  0  0  0  0  0
  192.2990  176.2050  142.8140 C   0  0  0  0  0  0  0  0  0  0  0  0
  191.2150  173.3490  140.3600 N   0  0  0  0  0  0  0  0  0  0  0  0
  193.6030  176.1980  143.0830 C   0  0  0  0  0  3  0  0  0  0  0  0
  191.5430  175.1940  142.0190 C   0  0  0  0  0  0  0  0  0  0  0  0
  187.9010  172.4890  139.4730 O   0  0  0  0  0  0  0  0  0  0  0  0
  193.4150  173.7350  141.1350 C   0  0  0  0  0  3  0  0  0  0  0  0
  192.1340  174.1040  141.1700 C   0  0  0  0  0  0  0  0  0  0  0  0
  194.5790  174.2400  141.8560 C   0  0  0  0  0  3  0  0  0  0  0  0
  1 26  1  6  0  0  0
  1  3  1  0  0  0  0
  1 13  1  0  0  0  0
  3 12  1  0  0  0  0
  4 11  2  0  0  0  0
  5  7  1  0  0  0  0
  5  4  1  0  0  0  0
  6 10  1  0  0  0  0
  6  7  2  0  0  0  0
  7  9  1  0  0  0  0
  9  2  1  0  0  0  0
  9  8  2  0  0  0  0
 10  3  2  0  0  0  0
 11  8  1  0  0  0  0
 12  2  2  0  0  0  0
 13 14  1  0  0  0  0
 14 15  2  0  0  0  0
 16 14  1  0  0  0  0
 17 16  1  0  0  0  0
 18 22  1  0  0  0  0
 19 17  1  0  0  0  0
 20 19  2  0  0  0  0
 21 20  1  0  0  0  0
 21 18  1  0  0  0  0
 22 17  2  0  0  0  0
 24 23  1  0  0  0  0
 24 21  1  0  0  0  0
 25 24  1  0  0  0  0
 27 36  1  0  0  0  0
 28 33  1  0  0  0  0
 29 30  2  0  0  0  0
 29 28  1  0  0  0  0
 30 35  1  0  0  0  0
 31 32  1  0  0  0  0
 33 31  2  0  0  0  0
 34 36  2  0  0  0  0
 34 26  1  0  0  0  0
 35 33  1  0  0  0  0
 35 40  1  0  0  0  0
 37 32  2  0  0  0  0
 37 34  1  0  0  0  0
 38 28  2  0  0  0  0
 39 40  2  0  0  0  0
 39 41  1  0  0  0  0
 40 37  1  0  0  0  0
 41 27  2  0  0  0  0
M  END
>  <MODEL>
3

>  <REMARK>
 VINA RESULT:      -8.5      1.929      3.533
  Name = 
  8 active torsions:
  status: ('A' for Active; 'I' for Inactive)
    1  A    between atoms: C_1  and  C_9
    2  A    between atoms: C_1  and  O_18
    3  A    between atoms: C_3  and  C_9
    4  A    between atoms: C_4  and  C_19
    5  A    between atoms: O_18  and  C_19
    6  A    between atoms: C_19  and  S_33
    7  A    between atoms: C_21  and  S_33
    8  A    between atoms: C_22  and  N_38
                            x       y       z     vdW  Elec       q    Type
                         _______ _______ _______ _____ _____    ______ ____

>  <TORSDO>
F 8

$$$$
=
 OpenBabel11042419583D

 41 46  0  0  1  0  0  0  0  0999 V2000
  190.4770  176.6200  144.6680 C   0  0  2  0  0  3  0  0  0  0  0  0
  186.9660  176.7900  145.9770 C   0  0  0  0  0  3  0  0  0  0  0  0
  189.0310  177.0000  144.5860 C   0  0  0  0  0  0  0  0  0  0  0  0
  183.9390  179.0410  144.5590 C   0  0  0  0  0  3  0  0  0  0  0  0
  184.9460  178.8200  143.7150 C   0  0  0  0  0  2  0  0  0  0  0  0
  187.2550  178.2830  143.3230 C   0  0  0  0  0  3  0  0  0  0  0  0
  186.2610  178.3820  144.2060 C   0  0  0  0  0  0  0  0  0  0  0  0
  185.2760  178.4670  146.5290 C   0  0  0  0  0  3  0  0  0  0  0  0
  186.4900  178.1740  145.6860 C   0  0  0  0  0  0  0  0  0  0  0  0
  188.6330  177.8370  143.6130 C   0  0  0  0  0  3  0  0  0  0  0  0
  184.1100  178.8620  146.0090 C   0  0  0  0  0  3  0  0  0  0  0  0
  188.1120  176.3010  145.5080 C   0  0  0  0  0  3  0  0  0  0  0  0
  191.0560  177.1650  145.8460 O   0  0  0  0  0  0  0  0  0  0  0  0
  191.5600  176.3650  146.8730 C   0  0  0  0  0  0  0  0  0  0  0  0
  191.8540  176.8590  147.9950 O   0  0  0  0  0  0  0  0  0  0  0  0
  191.7940  174.9140  146.6240 C   0  0  0  0  0  2  0  0  0  0  0  0
  193.1680  174.6970  146.0900 C   0  0  0  0  0  0  0  0  0  0  0  0
  194.9230  173.1790  145.1880 C   0  0  0  0  0  2  0  0  0  0  0  0
  194.0600  175.8490  145.8880 C   0  0  0  0  0  3  0  0  0  0  0  0
  195.3150  175.6660  145.4860 C   0  0  0  0  0  3  0  0  0  0  0  0
  195.8160  174.3420  145.2310 N   0  0  0  0  0  0  0  0  0  0  0  0
  193.5720  173.4600  145.7890 C   0  0  0  0  0  3  0  0  0  0  0  0
  197.4510  172.7130  144.3960 C   0  0  0  0  0  1  0  0  0  0  0  0
  197.2150  174.1340  144.8780 C   0  0  0  0  0  3  0  0  0  0  0  0
  197.6570  175.1270  143.8200 C   0  0  0  0  0  1  0  0  0  0  0  0
  191.4040  177.1710  143.1910 S   0  0  0  0  0  0  0  0  0  0  0  0
  191.0570  173.1130  142.8930 C   0  0  0  0  0  3  0  0  0  0  0  0
  197.0930  175.0020  140.2520 C   0  0  0  0  0  0  0  0  0  0  0  0
  197.3530  173.5350  140.2300 C   0  0  0  0  0  3  0  0  0  0  0  0
  196.0930  172.9150  140.8800 C   0  0  0  0  0  3  0  0  0  0  0  0
  195.2000  176.4140  141.0240 C   0  0  0  0  0  3  0  0  0  0  0  0
  193.8670  176.4160  141.6580 C   0  0  0  0  0  3  0  0  0  0  0  0
  195.8140  175.2510  140.8550 C   0  0  0  0  0  0  0  0  0  0  0  0
  191.9110  175.5000  142.7380 C   0  0  0  0  0  0  0  0  0  0  0  0
  195.2220  174.0350  141.2390 N   0  0  0  0  0  0  0  0  0  0  0  0
  191.0250  174.5620  143.0660 C   0  0  0  0  0  3  0  0  0  0  0  0
  193.2130  175.2960  142.0390 C   0  0  0  0  0  0  0  0  0  0  0  0
  197.8700  175.8820  139.7970 O   0  0  0  0  0  0  0  0  0  0  0  0
  193.3590  172.7680  141.9580 C   0  0  0  0  0  3  0  0  0  0  0  0
  193.8910  173.9790  141.7820 C   0  0  0  0  0  0  0  0  0  0  0  0
  192.0410  172.3590  142.4310 C   0  0  0  0  0  3  0  0  0  0  0  0
  1 26  1  6  0  0  0
  1 13  1  0  0  0  0
  3  1  1  0  0  0  0
  3 12  1  0  0  0  0
  4 11  2  0  0  0  0
  5  7  1  0  0  0  0
  5  4  1  0  0  0  0
  6 10  1  0  0  0  0
  6  7  2  0  0  0  0
  7  9  1  0  0  0  0
  9  2  1  0  0  0  0
  9  8  2  0  0  0  0
 10  3  2  0  0  0  0
 11  8  1  0  0  0  0
 12  2  2  0  0  0  0
 13 14  1  0  0  0  0
 14 15  2  0  0  0  0
 16 14  1  0  0  0  0
 17 16  1  0  0  0  0
 18 21  1  0  0  0  0
 18 22  1  0  0  0  0
 19 17  1  0  0  0  0
 20 19  2  0  0  0  0
 21 20  1  0  0  0  0
 22 17  2  0  0  0  0
 23 24  1  0  0  0  0
 24 21  1  0  0  0  0
 25 24  1  0  0  0  0
 27 36  1  0  0  0  0
 28 33  1  0  0  0  0
 29 28  1  0  0  0  0
 29 30  2  0  0  0  0
 30 35  1  0  0  0  0
 31 32  1  0  0  0  0
 32 37  2  0  0  0  0
 33 31  2  0  0  0  0
 33 35  1  0  0  0  0
 34 36  2  0  0  0  0
 34 26  1  0  0  0  0
 35 40  1  0  0  0  0
 37 34  1  0  0  0  0
 38 28  2  0  0  0  0
 39 41  1  0  0  0  0
 40 39  2  0  0  0  0
 40 37  1  0  0  0  0
 41 27  2  0  0  0  0
M  END
>  <MODEL>
4

>  <REMARK>
 VINA RESULT:      -8.4      1.294      1.730
  Name = 
  8 active torsions:
  status: ('A' for Active; 'I' for Inactive)
    1  A    between atoms: C_1  and  C_9
    2  A    between atoms: C_1  and  O_18
    3  A    between atoms: C_3  and  C_9
    4  A    between atoms: C_4  and  C_19
    5  A    between atoms: O_18  and  C_19
    6  A    between atoms: C_19  and  S_33
    7  A    between atoms: C_21  and  S_33
    8  A    between atoms: C_22  and  N_38
                            x       y       z     vdW  Elec       q    Type
                         _______ _______ _______ _____ _____    ______ ____

>  <TORSDO>
F 8

$$$$
=
 OpenBabel11042419583D

 41 46  0  0  1  0  0  0  0  0999 V2000
  190.5000  176.1770  144.7910 C   0  0  2  0  0  3  0  0  0  0  0  0
  187.3240  176.4570  146.7660 C   0  0  0  0  0  3  0  0  0  0  0  0
  189.0790  176.6040  144.9950 C   0  0  0  0  0  0  0  0  0  0  0  0
  184.1500  178.8070  145.9650 C   0  0  0  0  0  3  0  0  0  0  0  0
  184.9630  178.5560  144.9390 C   0  0  0  0  0  2  0  0  0  0  0  0
  187.1310  177.9460  144.1020 C   0  0  0  0  0  3  0  0  0  0  0  0
  186.3350  178.0750  145.1630 C   0  0  0  0  0  0  0  0  0  0  0  0
  185.8310  178.1860  147.6350 C   0  0  0  0  0  3  0  0  0  0  0  0
  186.8450  177.8560  146.5700 C   0  0  0  0  0  0  0  0  0  0  0  0
  188.5240  177.4550  144.1160 C   0  0  0  0  0  3  0  0  0  0  0  0
  184.5980  178.6190  147.3540 C   0  0  0  0  0  3  0  0  0  0  0  0
  188.3390  175.9320  146.0820 C   0  0  0  0  0  3  0  0  0  0  0  0
  191.3350  176.7920  145.7630 O   0  0  0  0  0  0  0  0  0  0  0  0
  192.2110  176.0600  146.5670 C   0  0  0  0  0  0  0  0  0  0  0  0
  191.8680  174.9500  147.0560 O   0  0  0  0  0  0  0  0  0  0  0  0
  193.5530  176.6210  146.8890 C   0  0  0  0  0  2  0  0  0  0  0  0
  194.5700  176.1140  145.9240 C   0  0  0  0  0  0  0  0  0  0  0  0
  196.3000  174.4420  145.2860 C   0  0  0  0  0  2  0  0  0  0  0  0
  194.7460  176.7910  144.6310 C   0  0  0  0  0  3  0  0  0  0  0  0
  195.7010  176.4010  143.7910 C   0  0  0  0  0  3  0  0  0  0  0  0
  196.5670  175.3030  144.1280 N   0  0  0  0  0  0  0  0  0  0  0  0
  195.3020  175.0420  146.2390 C   0  0  0  0  0  3  0  0  0  0  0  0
  197.7340  173.4270  143.0600 C   0  0  0  0  0  1  0  0  0  0  0  0
  197.6710  174.9320  143.2490 C   0  0  0  0  0  3  0  0  0  0  0  0
  197.5460  175.6260  141.9060 C   0  0  0  0  0  1  0  0  0  0  0  0
  191.0890  176.5740  143.1060 S   0  0  0  0  0  0  0  0  0  0  0  0
  188.7320  173.9610  141.0330 C   0  0  0  0  0  3  0  0  0  0  0  0
  194.0130  170.5090  143.7120 C   0  0  0  0  0  0  0  0  0  0  0  0
  193.2460  169.3150  143.2570 C   0  0  0  0  0  3  0  0  0  0  0  0
  191.9390  169.9020  142.6720 C   0  0  0  0  0  3  0  0  0  0  0  0
  193.5990  172.9580  143.6530 C   0  0  0  0  0  3  0  0  0  0  0  0
  192.6490  174.0190  143.2670 C   0  0  0  0  0  3  0  0  0  0  0  0
  193.2530  171.6960  143.4400 C   0  0  0  0  0  0  0  0  0  0  0  0
  190.5970  174.9770  142.4270 C   0  0  0  0  0  0  0  0  0  0  0  0
  192.0280  171.3530  142.8400 N   0  0  0  0  0  0  0  0  0  0  0  0
  189.4680  175.0170  141.7240 C   0  0  0  0  0  3  0  0  0  0  0  0
  191.4600  173.7840  142.6670 C   0  0  0  0  0  0  0  0  0  0  0  0
  195.1560  170.4780  144.2390 O   0  0  0  0  0  0  0  0  0  0  0  0
  190.0560  171.9270  141.6690 C   0  0  0  0  0  3  0  0  0  0  0  0
  191.1070  172.3540  142.3700 C   0  0  0  0  0  0  0  0  0  0  0  0
  188.9780  172.6620  141.0150 C   0  0  0  0  0  3  0  0  0  0  0  0
  1 26  1  6  0  0  0
  1  3  1  0  0  0  0
  1 13  1  0  0  0  0
  3 12  1  0  0  0  0
  4 11  2  0  0  0  0
  5  7  1  0  0  0  0
  5  4  1  0  0  0  0
  6 10  1  0  0  0  0
  6  7  2  0  0  0  0
  7  9  1  0  0  0  0
  9  2  1  0  0  0  0
  9  8  2  0  0  0  0
 10  3  2  0  0  0  0
 11  8  1  0  0  0  0
 12  2  2  0  0  0  0
 13 14  1  0  0  0  0
 14 16  1  0  0  0  0
 14 15  2  0  0  0  0
 17 22  2  0  0  0  0
 17 16  1  0  0  0  0
 18 22  1  0  0  0  0
 19 17  1  0  0  0  0
 20 21  1  0  0  0  0
 20 19  2  0  0  0  0
 21 18  1  0  0  0  0
 23 24  1  0  0  0  0
 24 21  1  0  0  0  0
 25 24  1  0  0  0  0
 27 36  1  0  0  0  0
 28 38  2  0  0  0  0
 29 28  1  0  0  0  0
 30 35  1  0  0  0  0
 30 29  2  0  0  0  0
 32 31  1  0  0  0  0
 33 31  2  0  0  0  0
 33 28  1  0  0  0  0
 34 37  1  0  0  0  0
 34 26  1  0  0  0  0
 35 33  1  0  0  0  0
 36 34  2  0  0  0  0
 37 32  2  0  0  0  0
 39 40  2  0  0  0  0
 40 37  1  0  0  0  0
 40 35  1  0  0  0  0
 41 27  2  0  0  0  0
 41 39  1  0  0  0  0
M  END
>  <MODEL>
5

>  <REMARK>
 VINA RESULT:      -8.3      1.729      2.645
  Name = 
  8 active torsions:
  status: ('A' for Active; 'I' for Inactive)
    1  A    between atoms: C_1  and  C_9
    2  A    between atoms: C_1  and  O_18
    3  A    between atoms: C_3  and  C_9
    4  A    between atoms: C_4  and  C_19
    5  A    between atoms: O_18  and  C_19
    6  A    between atoms: C_19  and  S_33
    7  A    between atoms: C_21  and  S_33
    8  A    between atoms: C_22  and  N_38
                            x       y       z     vdW  Elec       q    Type
                         _______ _______ _______ _____ _____    ______ ____

>  <TORSDO>
F 8

$$$$
=
 OpenBabel11042419583D

 41 46  0  0  1  0  0  0  0  0999 V2000
  190.9560  175.3460  143.5370 C   0  0  2  0  0  3  0  0  0  0  0  0
  194.6340  174.8770  144.0970 C   0  0  0  0  0  3  0  0  0  0  0  0
  192.1670  174.5440  143.9000 C   0  0  0  0  0  0  0  0  0  0  0  0
  196.4500  171.7770  145.9210 C   0  0  0  0  0  3  0  0  0  0  0  0
  195.2180  171.5460  145.4700 C   0  0  0  0  0  3  0  0  0  0  0  0
  193.0530  172.3610  144.8180 C   0  0  0  0  0  3  0  0  0  0  0  0
  194.3060  172.6590  145.1630 C   0  0  0  0  0  0  0  0  0  0  0  0
  196.1650  174.2090  145.8820 C   0  0  0  0  0  3  0  0  0  0  0  0
  194.7570  174.0890  145.3580 C   0  0  1  0  0  3  0  0  0  0  0  0
  192.0000  173.3290  144.4490 C   0  0  0  0  0  3  0  0  0  0  0  0
  196.9370  173.1490  146.1370 C   0  0  0  0  0  3  0  0  0  0  0  0
  193.4720  175.0960  143.4850 C   0  0  0  0  0  3  0  0  0  0  0  0
  190.5890  175.0880  142.1880 O   0  0  0  0  0  0  0  0  0  0  0  0
  189.4740  174.3190  141.8490 C   0  0  0  0  0  0  0  0  0  0  0  0
  188.3970  174.4170  142.4980 O   0  0  0  0  0  0  0  0  0  0  0  0
  189.5730  173.3360  140.7340 C   0  0  0  0  0  2  0  0  0  0  0  0
  190.5350  172.2520  141.0830 C   0  0  0  0  0  0  0  0  0  0  0  0
  191.0070  170.0110  142.0580 C   0  0  0  0  0  2  0  0  0  0  0  0
  191.9480  172.3840  140.6980 C   0  0  0  0  0  3  0  0  0  0  0  0
  192.8350  171.4640  141.0690 C   0  0  0  0  0  3  0  0  0  0  0  0
  192.4250  170.3210  141.8410 N   0  0  0  0  0  0  0  0  0  0  0  0
  190.1020  171.1680  141.7320 C   0  0  0  0  0  3  0  0  0  0  0  0
  194.8160  169.9240  142.2240 C   0  0  0  0  0  1  0  0  0  0  0  0
  193.4100  169.3610  142.3240 C   0  0  0  0  0  3  0  0  0  0  0  0
  193.1070  168.9530  143.7540 C   0  0  0  0  0  1  0  0  0  0  0  0
  191.2330  177.1370  143.7870 S   0  0  0  0  0  0  0  0  0  0  0  0
  188.7720  177.3850  147.0360 C   0  0  0  0  0  3  0  0  0  0  0  0
  185.0330  178.3290  141.3700 C   0  0  0  0  0  0  0  0  0  0  0  0
  183.8840  178.2300  142.3140 C   0  0  0  0  0  3  0  0  0  0  0  0
  184.5400  177.9310  143.6830 C   0  0  0  0  0  3  0  0  0  0  0  0
  187.4980  178.1530  141.6190 C   0  0  0  0  0  3  0  0  0  0  0  0
  188.6080  177.9090  142.5610 C   0  0  0  0  0  3  0  0  0  0  0  0
  186.2580  178.1080  142.0850 C   0  0  0  0  0  0  0  0  0  0  0  0
  189.6730  177.3780  144.6620 C   0  0  0  0  0  0  0  0  0  0  0  0
  185.9820  177.8620  143.4420 N   0  0  0  0  0  0  0  0  0  0  0  0
  189.7790  177.2750  145.9850 C   0  0  0  0  0  3  0  0  0  0  0  0
  188.4390  177.6850  143.8830 C   0  0  0  0  0  0  0  0  0  0  0  0
  184.9400  178.5820  140.1400 O   0  0  0  0  0  0  0  0  0  0  0  0
  186.6680  177.6400  145.6930 C   0  0  0  0  0  3  0  0  0  0  0  0
  187.0320  177.7030  144.4120 C   0  0  0  0  0  0  0  0  0  0  0  0
  187.4630  177.5340  146.9130 C   0  0  0  0  0  3  0  0  0  0  0  0
  1 13  1  6  0  0  0
  1 26  1  0  0  0  0
  1  3  1  0  0  0  0
  3 10  2  0  0  0  0
  4 11  1  0  0  0  0
  5  4  2  0  0  0  0
  6  7  2  0  0  0  0
  7  9  1  0  0  0  0
  7  5  1  0  0  0  0
  8 11  2  0  0  0  0
  9  2  1  6  0  0  0
  9  8  1  0  0  0  0
 10  6  1  0  0  0  0
 12  3  1  0  0  0  0
 12  2  2  0  0  0  0
 14 13  1  0  0  0  0
 14 15  2  0  0  0  0
 16 17  1  0  0  0  0
 16 14  1  0  0  0  0
 17 22  2  0  0  0  0
 19 20  2  0  0  0  0
 19 17  1  0  0  0  0
 20 21  1  0  0  0  0
 21 18  1  0  0  0  0
 21 24  1  0  0  0  0
 22 18  1  0  0  0  0
 23 24  1  0  0  0  0
 24 25  1  0  0  0  0
 26 34  1  0  0  0  0
 28 33  1  0  0  0  0
 28 29  1  0  0  0  0
 29 30  2  0  0  0  0
 31 33  2  0  0  0  0
 31 32  1  0  0  0  0
 32 37  2  0  0  0  0
 33 35  1  0  0  0  0
 34 36  2  0  0  0  0
 35 30  1  0  0  0  0
 35 40  1  0  0  0  0
 36 27  1  0  0  0  0
 37 40  1  0  0  0  0
 37 34  1  0  0  0  0
 38 28  2  0  0  0  0
 39 41  1  0  0  0  0
 40 39  2  0  0  0  0
 41 27  2  0  0  0  0
M  END
>  <MODEL>
6

>  <REMARK>
 VINA RESULT:      -8.2      2.826      8.220
  Name = 
  8 active torsions:
  status: ('A' for Active; 'I' for Inactive)
    1  A    between atoms: C_1  and  C_9
    2  A    between atoms: C_1  and  O_18
    3  A    between atoms: C_3  and  C_9
    4  A    between atoms: C_4  and  C_19
    5  A    between atoms: O_18  and  C_19
    6  A    between atoms: C_19  and  S_33
    7  A    between atoms: C_21  and  S_33
    8  A    between atoms: C_22  and  N_38
                            x       y       z     vdW  Elec       q    Type
                         _______ _______ _______ _____ _____    ______ ____

>  <TORSDO>
F 8

$$$$
=
 OpenBabel11042419583D

 41 46  0  0  1  0  0  0  0  0999 V2000
  190.6350  176.0020  145.1540 C   0  0  2  0  0  3  0  0  0  0  0  0
  187.3560  176.4850  146.9090 C   0  0  0  0  0  3  0  0  0  0  0  0
  189.2010  176.4280  145.2260 C   0  0  0  0  0  0  0  0  0  0  0  0
  184.2070  178.6560  145.6420 C   0  0  0  0  0  3  0  0  0  0  0  0
  185.0750  178.2870  144.7010 C   0  0  0  0  0  2  0  0  0  0  0  0
  187.2910  177.6090  144.0650 C   0  0  0  0  0  3  0  0  0  0  0  0
  186.4380  177.8620  145.0570 C   0  0  0  0  0  0  0  0  0  0  0  0
  185.8010  178.2880  147.4630 C   0  0  0  0  0  3  0  0  0  0  0  0
  186.8740  177.8390  146.5050 C   0  0  0  0  0  0  0  0  0  0  0  0
  188.6860  177.1470  144.2150 C   0  0  0  0  0  3  0  0  0  0  0  0
  184.5810  178.6600  147.0640 C   0  0  0  0  0  3  0  0  0  0  0  0
  188.4110  175.8920  146.3530 C   0  0  0  0  0  3  0  0  0  0  0  0
  191.4220  176.7970  146.0310 O   0  0  0  0  0  0  0  0  0  0  0  0
  192.3850  176.2470  146.8790 C   0  0  0  0  0  0  0  0  0  0  0  0
  192.0990  175.2920  147.6520 O   0  0  0  0  0  0  0  0  0  0  0  0
  193.7570  176.8270  146.9040 C   0  0  0  0  0  2  0  0  0  0  0  0
  194.6070  176.1880  145.8590 C   0  0  0  0  0  0  0  0  0  0  0  0
  195.6640  176.2340  143.6060 C   0  0  0  0  0  2  0  0  0  0  0  0
  195.2670  174.9060  146.1440 C   0  0  0  0  0  3  0  0  0  0  0  0
  195.9650  174.2830  145.1980 C   0  0  0  0  0  3  0  0  0  0  0  0
  196.0960  174.8600  143.8860 N   0  0  0  0  0  0  0  0  0  0  0  0
  194.7700  176.7930  144.6800 C   0  0  0  0  0  3  0  0  0  0  0  0
  195.8930  173.0600  142.2310 C   0  0  0  0  0  1  0  0  0  0  0  0
  196.7850  174.1370  142.8230 C   0  0  0  0  0  3  0  0  0  0  0  0
  197.2500  175.0900  141.7380 C   0  0  0  0  0  1  0  0  0  0  0  0
  191.2850  176.1050  143.4480 S   0  0  0  0  0  0  0  0  0  0  0  0
  192.6830  172.4550  144.6290 C   0  0  0  0  0  3  0  0  0  0  0  0
  189.6310  171.7710  138.5300 C   0  0  0  0  0  0  0  0  0  0  0  0
  190.2230  170.4050  138.5750 C   0  0  0  0  0  3  0  0  0  0  0  0
  191.0430  170.3870  139.8870 C   0  0  0  0  0  3  0  0  0  0  0  0
  189.7080  173.7420  140.0410 C   0  0  0  0  0  3  0  0  0  0  0  0
  190.2550  174.2860  141.2990 C   0  0  0  0  0  3  0  0  0  0  0  0
  190.0480  172.5110  139.6880 C   0  0  0  0  0  0  0  0  0  0  0  0
  191.5740  174.3290  143.3220 C   0  0  0  0  0  0  0  0  0  0  0  0
  190.8880  171.7130  140.4870 N   0  0  0  0  0  0  0  0  0  0  0  0
  192.2410  173.8190  144.3550 C   0  0  0  0  0  3  0  0  0  0  0  0
  191.0510  173.5860  142.1390 C   0  0  0  0  0  0  0  0  0  0  0  0
  188.8700  172.2020  137.6240 O   0  0  0  0  0  0  0  0  0  0  0  0
  192.0250  171.2780  142.5130 C   0  0  0  0  0  3  0  0  0  0  0  0
  191.3760  172.1680  141.7610 C   0  0  0  0  0  0  0  0  0  0  0  0
  192.5950  171.3880  143.8520 C   0  0  0  0  0  3  0  0  0  0  0  0
  1 26  1  6  0  0  0
  1  3  1  0  0  0  0
  1 13  1  0  0  0  0
  3 12  1  0  0  0  0
  4 11  2  0  0  0  0
  5  7  1  0  0  0  0
  5  4  1  0  0  0  0
  6 10  1  0  0  0  0
  6  7  2  0  0  0  0
  7  9  1  0  0  0  0
  9  2  1  0  0  0  0
  9  8  2  0  0  0  0
 10  3  2  0  0  0  0
 11  8  1  0  0  0  0
 12  2  2  0  0  0  0
 13 14  1  0  0  0  0
 14 16  1  0  0  0  0
 14 15  2  0  0  0  0
 17 19  1  0  0  0  0
 17 16  1  0  0  0  0
 18 21  1  0  0  0  0
 18 22  1  0  0  0  0
 20 19  2  0  0  0  0
 21 20  1  0  0  0  0
 22 17  2  0  0  0  0
 23 24  1  0  0  0  0
 24 21  1  0  0  0  0
 25 24  1  0  0  0  0
 28 29  1  0  0  0  0
 28 33  1  0  0  0  0
 29 30  2  0  0  0  0
 30 35  1  0  0  0  0
 31 32  1  0  0  0  0
 32 37  2  0  0  0  0
 33 31  2  0  0  0  0
 33 35  1  0  0  0  0
 34 26  1  0  0  0  0
 34 36  2  0  0  0  0
 35 40  1  0  0  0  0
 36 27  1  0  0  0  0
 37 34  1  0  0  0  0
 38 28  2  0  0  0  0
 39 41  1  0  0  0  0
 40 37  1  0  0  0  0
 40 39  2  0  0  0  0
 41 27  2  0  0  0  0
M  END
>  <MODEL>
7

>  <REMARK>
 VINA RESULT:      -8.2      2.194      3.607
  Name = 
  8 active torsions:
  status: ('A' for Active; 'I' for Inactive)
    1  A    between atoms: C_1  and  C_9
    2  A    between atoms: C_1  and  O_18
    3  A    between atoms: C_3  and  C_9
    4  A    between atoms: C_4  and  C_19
    5  A    between atoms: O_18  and  C_19
    6  A    between atoms: C_19  and  S_33
    7  A    between atoms: C_21  and  S_33
    8  A    between atoms: C_22  and  N_38
                            x       y       z     vdW  Elec       q    Type
                         _______ _______ _______ _____ _____    ______ ____

>  <TORSDO>
F 8

$$$$
=
 OpenBabel11042419583D

 41 46  0  0  1  0  0  0  0  0999 V2000
  190.5450  174.7120  144.7450 C   0  0  2  0  0  3  0  0  0  0  0  0
  188.6670  177.9240  145.2180 C   0  0  0  0  0  3  0  0  0  0  0  0
  189.5780  175.6110  145.4530 C   0  0  0  0  0  0  0  0  0  0  0  0
  185.5200  178.5760  147.6480 C   0  0  0  0  0  3  0  0  0  0  0  0
  186.2730  177.5170  147.9420 C   0  0  0  0  0  3  0  0  0  0  0  0
  187.8230  175.8110  147.2610 C   0  0  0  0  0  3  0  0  0  0  0  0
  187.1780  176.9330  146.9410 C   0  0  0  0  0  0  0  0  0  0  0  0
  186.3590  178.7170  145.3520 C   0  0  0  0  0  3  0  0  0  0  0  0
  187.2670  177.5320  145.5540 C   0  0  1  0  0  3  0  0  0  0  0  0
  188.7890  175.0910  146.4090 C   0  0  0  0  0  3  0  0  0  0  0  0
  185.5620  179.1930  146.3130 C   0  0  0  0  0  3  0  0  0  0  0  0
  189.6700  177.0520  145.1440 C   0  0  0  0  0  3  0  0  0  0  0  0
  189.8370  173.7430  143.9830 O   0  0  0  0  0  0  0  0  0  0  0  0
  189.7320  173.8130  142.5930 C   0  0  0  0  0  0  0  0  0  0  0  0
  189.4820  172.7840  141.9090 O   0  0  0  0  0  0  0  0  0  0  0  0
  189.9620  175.1150  141.9050 C   0  0  0  0  0  2  0  0  0  0  0  0
  188.7340  175.9580  141.9690 C   0  0  0  0  0  0  0  0  0  0  0  0
  186.3120  176.2150  142.4790 C   0  0  0  0  0  2  0  0  0  0  0  0
  188.8180  177.3890  141.6400 C   0  0  0  0  0  3  0  0  0  0  0  0
  187.7190  178.1390  141.6160 C   0  0  0  0  0  3  0  0  0  0  0  0
  186.4360  177.5660  141.9220 N   0  0  0  0  0  0  0  0  0  0  0  0
  187.5740  175.4070  142.3340 C   0  0  0  0  0  3  0  0  0  0  0  0
  184.6460  178.2860  140.4040 C   0  0  0  0  0  1  0  0  0  0  0  0
  185.2210  178.3650  141.8080 C   0  0  0  0  0  3  0  0  0  0  0  0
  184.1870  177.9210  142.8250 C   0  0  0  0  0  1  0  0  0  0  0  0
  191.6850  173.8910  145.9150 S   0  0  0  0  0  0  0  0  0  0  0  0
  194.0200  177.1350  146.7530 C   0  0  0  0  0  3  0  0  0  0  0  0
  196.0670  174.4350  140.7950 C   0  0  0  0  0  0  0  0  0  0  0  0
  196.8910  175.6730  140.7090 C   0  0  0  0  0  3  0  0  0  0  0  0
  196.4990  176.4800  141.9700 C   0  0  0  0  0  3  0  0  0  0  0  0
  194.4200  173.5610  142.4370 C   0  0  0  0  0  3  0  0  0  0  0  0
  193.7050  173.8320  143.6990 C   0  0  0  0  0  3  0  0  0  0  0  0
  195.2550  174.4820  141.9780 C   0  0  0  0  0  0  0  0  0  0  0  0
  193.0130  175.0830  145.6450 C   0  0  0  0  0  0  0  0  0  0  0  0
  195.4910  175.6840  142.6710 N   0  0  0  0  0  0  0  0  0  0  0  0
  193.1080  176.0040  146.6010 C   0  0  0  0  0  3  0  0  0  0  0  0
  193.8830  174.9470  144.4420 C   0  0  0  0  0  0  0  0  0  0  0  0
  196.0930  173.4890  139.9640 O   0  0  0  0  0  0  0  0  0  0  0  0
  195.2990  177.0420  144.5970 C   0  0  0  0  0  3  0  0  0  0  0  0
  194.8830  175.9540  143.9470 C   0  0  0  0  0  0  0  0  0  0  0  0
  194.9370  177.5730  145.9070 C   0  0  0  0  0  3  0  0  0  0  0  0
  1 13  1  1  0  0  0
  1  3  1  0  0  0  0
  1 26  1  0  0  0  0
  3 10  2  0  0  0  0
  4  5  2  0  0  0  0
  7  6  2  0  0  0  0
  7  5  1  0  0  0  0
  8  9  1  0  0  0  0
  8 11  2  0  0  0  0
  9  2  1  1  0  0  0
  9  7  1  0  0  0  0
 10  6  1  0  0  0  0
 11  4  1  0  0  0  0
 12  2  2  0  0  0  0
 12  3  1  0  0  0  0
 14 13  1  0  0  0  0
 15 14  2  0  0  0  0
 16 17  1  0  0  0  0
 16 14  1  0  0  0  0
 17 22  2  0  0  0  0
 19 17  1  0  0  0  0
 20 19  2  0  0  0  0
 20 21  1  0  0  0  0
 21 18  1  0  0  0  0
 22 18  1  0  0  0  0
 23 24  1  0  0  0  0
 24 21  1  0  0  0  0
 24 25  1  0  0  0  0
 28 33  1  0  0  0  0
 29 28  1  0  0  0  0
 29 30  2  0  0  0  0
 30 35  1  0  0  0  0
 31 32  1  0  0  0  0
 32 37  2  0  0  0  0
 33 31  2  0  0  0  0
 33 35  1  0  0  0  0
 34 26  1  0  0  0  0
 34 36  2  0  0  0  0
 35 40  1  0  0  0  0
 36 27  1  0  0  0  0
 37 34  1  0  0  0  0
 38 28  2  0  0  0  0
 39 41  1  0  0  0  0
 40 37  1  0  0  0  0
 40 39  2  0  0  0  0
 41 27  2  0  0  0  0
M  END
>  <MODEL>
8

>  <REMARK>
 VINA RESULT:      -8.2      2.647      6.116
  Name = 
  8 active torsions:
  status: ('A' for Active; 'I' for Inactive)
    1  A    between atoms: C_1  and  C_9
    2  A    between atoms: C_1  and  O_18
    3  A    between atoms: C_3  and  C_9
    4  A    between atoms: C_4  and  C_19
    5  A    between atoms: O_18  and  C_19
    6  A    between atoms: C_19  and  S_33
    7  A    between atoms: C_21  and  S_33
    8  A    between atoms: C_22  and  N_38
                            x       y       z     vdW  Elec       q    Type
                         _______ _______ _______ _____ _____    ______ ____

>  <TORSDO>
F 8

$$$$
=
 OpenBabel11042419583D

 41 46  0  0  1  0  0  0  0  0999 V2000
  189.8310  176.7180  142.7100 C   0  0  2  0  0  3  0  0  0  0  0  0
  187.3600  176.5520  145.5260 C   0  0  0  0  0  3  0  0  0  0  0  0
  188.5150  177.0140  143.3600 C   0  0  0  0  0  0  0  0  0  0  0  0
  183.9970  178.7290  145.9530 C   0  0  0  0  0  3  0  0  0  0  0  0
  184.4850  178.6490  144.7160 C   0  0  0  0  0  2  0  0  0  0  0  0
  186.3380  178.2940  143.2290 C   0  0  0  0  0  3  0  0  0  0  0  0
  185.8810  178.2510  144.4800 C   0  0  0  0  0  0  0  0  0  0  0  0
  186.1140  178.0640  146.9870 C   0  0  0  0  0  3  0  0  0  0  0  0
  186.7870  177.9240  145.6460 C   0  0  0  0  0  0  0  0  0  0  0  0
  187.6940  177.9090  142.7860 C   0  0  0  0  0  3  0  0  0  0  0  0
  184.8370  178.4310  147.1240 C   0  0  0  0  0  3  0  0  0  0  0  0
  188.1520  176.1790  144.5220 C   0  0  0  0  0  3  0  0  0  0  0  0
  190.2890  175.4310  143.1050 O   0  0  0  0  0  0  0  0  0  0  0  0
  190.2560  174.3290  142.2490 C   0  0  0  0  0  0  0  0  0  0  0  0
  189.1970  173.6640  142.0880 O   0  0  0  0  0  0  0  0  0  0  0  0
  191.5020  173.9060  141.5500 C   0  0  0  0  0  2  0  0  0  0  0  0
  192.3780  173.1330  142.4760 C   0  0  0  0  0  0  0  0  0  0  0  0
  192.7550  172.0170  144.6690 C   0  0  0  0  0  2  0  0  0  0  0  0
  193.7010  172.6830  142.0190 C   0  0  0  0  0  3  0  0  0  0  0  0
  194.5260  172.0600  142.8560 C   0  0  0  0  0  3  0  0  0  0  0  0
  194.1340  171.8060  144.2160 N   0  0  0  0  0  0  0  0  0  0  0  0
  191.9470  172.8470  143.7080 C   0  0  0  0  0  3  0  0  0  0  0  0
  194.5380  169.8870  145.6910 C   0  0  0  0  0  1  0  0  0  0  0  0
  195.0710  171.2050  145.1580 C   0  0  0  0  0  3  0  0  0  0  0  0
  196.4280  171.0000  144.5110 C   0  0  0  0  0  1  0  0  0  0  0  0
  191.0840  177.9880  143.1120 S   0  0  0  0  0  0  0  0  0  0  0  0
  191.8090  175.8580  146.5190 C   0  0  0  0  0  3  0  0  0  0  0  0
  197.1480  175.1150  142.2850 C   0  0  0  0  0  0  0  0  0  0  0  0
  197.7820  174.4690  143.4690 C   0  0  0  0  0  3  0  0  0  0  0  0
  196.7260  174.6100  144.5910 C   0  0  0  0  0  3  0  0  0  0  0  0
  194.9500  176.1990  141.8750 C   0  0  0  0  0  3  0  0  0  0  0  0
  193.6620  176.5960  142.4750 C   0  0  0  0  0  3  0  0  0  0  0  0
  195.8470  175.6030  142.6470 C   0  0  0  0  0  0  0  0  0  0  0  0
  192.0110  176.8990  144.2110 C   0  0  0  0  0  0  0  0  0  0  0  0
  195.5920  175.3230  144.0020 N   0  0  0  0  0  0  0  0  0  0  0  0
  191.3990  176.6590  145.3690 C   0  0  0  0  0  3  0  0  0  0  0  0
  193.3220  176.3500  143.7600 C   0  0  0  0  0  0  0  0  0  0  0  0
  197.6690  175.2040  141.1430 O   0  0  0  0  0  0  0  0  0  0  0  0
  194.1230  175.1600  145.8480 C   0  0  0  0  0  3  0  0  0  0  0  0
  194.3210  175.6140  144.6100 C   0  0  0  0  0  0  0  0  0  0  0  0
  192.9560  175.2320  146.7210 C   0  0  0  0  0  3  0  0  0  0  0  0
  1 13  1  1  0  0  0
  1 26  1  0  0  0  0
  1  3  1  0  0  0  0
  2  9  1  0  0  0  0
  3 12  1  0  0  0  0
  4 11  2  0  0  0  0
  5  4  1  0  0  0  0
  6  7  2  0  0  0  0
  7  5  1  0  0  0  0
  7  9  1  0  0  0  0
  8 11  1  0  0  0  0
  9  8  2  0  0  0  0
 10  6  1  0  0  0  0
 10  3  2  0  0  0  0
 12  2  2  0  0  0  0
 14 13  1  0  0  0  0
 15 14  2  0  0  0  0
 16 14  1  0  0  0  0
 16 17  1  0  0  0  0
 17 22  2  0  0  0  0
 19 17  1  0  0  0  0
 19 20  2  0  0  0  0
 20 21  1  0  0  0  0
 21 18  1  0  0  0  0
 21 24  1  0  0  0  0
 22 18  1  0  0  0  0
 24 23  1  0  0  0  0
 25 24  1  0  0  0  0
 26 34  1  0  0  0  0
 27 41  2  0  0  0  0
 28 33  1  0  0  0  0
 28 29  1  0  0  0  0
 29 30  2  0  0  0  0
 31 32  1  0  0  0  0
 31 33  2  0  0  0  0
 32 37  2  0  0  0  0
 33 35  1  0  0  0  0
 34 36  2  0  0  0  0
 35 30  1  0  0  0  0
 35 40  1  0  0  0  0
 36 27  1  0  0  0  0
 37 34  1  0  0  0  0
 37 40  1  0  0  0  0
 38 28  2  0  0  0  0
 39 41  1  0  0  0  0
 40 39  2  0  0  0  0
M  END
>  <MODEL>
9

>  <REMARK>
 VINA RESULT:      -8.1      1.617      3.099
  Name = 
  8 active torsions:
  status: ('A' for Active; 'I' for Inactive)
    1  A    between atoms: C_1  and  C_9
    2  A    between atoms: C_1  and  O_18
    3  A    between atoms: C_3  and  C_9
    4  A    between atoms: C_4  and  C_19
    5  A    between atoms: O_18  and  C_19
    6  A    between atoms: C_19  and  S_33
    7  A    between atoms: C_21  and  S_33
    8  A    between atoms: C_22  and  N_38
                            x       y       z     vdW  Elec       q    Type
                         _______ _______ _______ _____ _____    ______ ____

>  <TORSDO>
F 8

$$$$
