=
 OpenBabel11042413493D

 25 28  0  0  0  0  0  0  0  0999 V2000
  185.5610  178.3840  146.8290 C   0  0  0  0  0  3  0  0  0  0  0  0
  189.4790  176.2610  143.7670 O   0  0  0  0  0  0  0  0  0  0  0  0
  187.2350  177.9200  144.2920 C   0  0  0  0  0  0  0  0  0  0  0  0
  186.3670  177.3970  147.2170 C   0  0  0  0  0  0  0  0  0  0  0  0
  186.2610  178.8150  144.4960 C   0  0  0  0  0  3  0  0  0  0  0  0
  187.3430  177.3040  140.5160 N   0  0  0  0  0  0  0  0  0  0  0  0
  187.7010  177.1450  146.6340 C   0  0  0  0  0  3  0  0  0  0  0  0
  187.6770  177.5790  142.9110 C   0  0  0  0  0  0  0  0  0  0  0  0
  185.9440  179.4150  145.8250 C   0  0  0  0  0  2  0  0  0  0  0  0
  189.1270  177.1830  142.7610 C   0  0  0  0  0  2  0  0  0  0  0  0
  188.1040  177.3990  145.3780 C   0  0  0  0  0  0  0  0  0  0  0  0
  185.1050  177.7800  140.3910 N   0  0  0  0  0  0  0  0  0  0  0  0
  186.3930  177.1660  138.3450 N   0  0  0  0  0  1  0  0  0  0  0  0
  189.3920  176.9310  144.9500 N   0  0  0  0  0  0  0  0  0  0  0  0
  185.4240  177.9310  141.8010 C   0  0  0  0  0  3  0  0  0  0  0  0
  185.9390  176.5630  148.2400 O   0  0  0  0  0  1  0  0  0  0  0  0
  186.8840  177.6180  141.8260 C   0  0  0  0  0  0  0  0  0  0  0  0
  186.3160  177.4080  139.7450 C   0  0  0  0  0  0  0  0  0  0  0  0
  190.5910  177.1320  145.7560 C   0  0  0  0  0  2  0  0  0  0  0  0
  193.4160  174.7490  146.1940 C   0  0  0  0  0  2  0  0  0  0  0  0
  191.6920  176.1700  145.3300 C   0  0  0  0  0  3  0  0  0  0  0  0
  192.8010  176.9240  144.7140 N   0  0  0  0  0  2  0  0  0  0  0  0
  192.1130  175.3450  146.4740 N   0  0  0  0  0  2  0  0  0  0  0  0
  193.8760  177.1660  145.6760 C   0  0  0  0  0  2  0  0  0  0  0  0
  194.4860  175.8390  146.1300 C   0  0  0  0  0  2  0  0  0  0  0  0
  1  4  2  0  0  0  0
  2 14  1  0  0  0  0
  3  5  2  0  0  0  0
  3 11  1  0  0  0  0
  4 16  1  0  0  0  0
  5  9  1  0  0  0  0
  6 17  1  0  0  0  0
  7  4  1  0  0  0  0
  8  3  1  0  0  0  0
  9  1  1  0  0  0  0
 10  8  1  0  0  0  0
 10  2  1  0  0  0  0
 11  7  2  0  0  0  0
 12 15  2  0  0  0  0
 13 18  1  0  0  0  0
 14 11  1  0  0  0  0
 14 19  1  0  0  0  0
 15 17  1  0  0  0  0
 17  8  2  0  0  0  0
 18 12  1  0  0  0  0
 18  6  2  0  0  0  0
 20 23  1  0  0  0  0
 21 19  1  0  0  0  0
 21 23  1  0  0  0  0
 22 21  1  0  0  0  0
 22 24  1  0  0  0  0
 24 25  1  0  0  0  0
 25 20  1  0  0  0  0
M  END
>  <MODEL>
1

>  <REMARK>
 VINA RESULT:      -7.5      0.000      0.000
  Name = 
  2 active torsions:
  status: ('A' for Active; 'I' for Inactive)
    1  A    between atoms: C_2  and  C_11
    2  A    between atoms: C_11  and  N_21
                            x       y       z     vdW  Elec       q    Type
                         _______ _______ _______ _____ _____    ______ ____

>  <TORSDO>
F 2

$$$$
=
 OpenBabel11042413493D

 25 28  0  0  0  0  0  0  0  0999 V2000
  188.4730  175.3300  147.4460 C   0  0  0  0  0  3  0  0  0  0  0  0
  190.0910  177.2000  142.6380 O   0  0  0  0  0  0  0  0  0  0  0  0
  190.3430  175.6950  145.0330 C   0  0  0  0  0  0  0  0  0  0  0  0
  187.8250  176.2570  146.7430 C   0  0  0  0  0  0  0  0  0  0  0  0
  190.4790  174.8680  146.0760 C   0  0  0  0  0  3  0  0  0  0  0  0
  193.8760  176.3280  143.7020 N   0  0  0  0  0  0  0  0  0  0  0  0
  187.9520  176.4210  145.2800 C   0  0  0  0  0  3  0  0  0  0  0  0
  191.5050  176.0150  144.1570 C   0  0  0  0  0  0  0  0  0  0  0  0
  189.3350  174.2820  146.8330 C   0  0  0  0  0  2  0  0  0  0  0  0
  191.1820  176.3120  142.7120 C   0  0  0  0  0  2  0  0  0  0  0  0
  189.0250  176.1480  144.5190 C   0  0  0  0  0  0  0  0  0  0  0  0
  194.7100  176.0070  145.8120 N   0  0  0  0  0  0  0  0  0  0  0  0
  196.2300  176.5460  143.9090 N   0  0  0  0  0  1  0  0  0  0  0  0
  189.0130  176.5310  143.1350 N   0  0  0  0  0  0  0  0  0  0  0  0
  193.2750  175.8250  145.9640 C   0  0  0  0  0  3  0  0  0  0  0  0
  186.9650  177.1110  147.4190 O   0  0  0  0  0  1  0  0  0  0  0  0
  192.7850  176.0370  144.5690 C   0  0  0  0  0  0  0  0  0  0  0  0
  194.9320  176.3000  144.4380 C   0  0  0  0  0  0  0  0  0  0  0  0
  187.8780  176.2420  142.2660 C   0  0  0  0  0  2  0  0  0  0  0  0
  184.7640  178.2390  141.8640 C   0  0  0  0  0  2  0  0  0  0  0  0
  187.0310  177.4900  142.0580 C   0  0  0  0  0  3  0  0  0  0  0  0
  187.1680  177.9600  140.6660 N   0  0  0  0  0  2  0  0  0  0  0  0
  185.6360  177.2240  142.4480 N   0  0  0  0  0  2  0  0  0  0  0  0
  186.0550  177.4990  139.8390 C   0  0  0  0  0  2  0  0  0  0  0  0
  184.7410  178.0960  140.3430 C   0  0  0  0  0  2  0  0  0  0  0  0
  2 10  1  0  0  0  0
  2 14  1  0  0  0  0
  3  5  2  0  0  0  0
  4 16  1  0  0  0  0
  4  1  2  0  0  0  0
  5  9  1  0  0  0  0
  6 18  2  0  0  0  0
  6 17  1  0  0  0  0
  7  4  1  0  0  0  0
  8 17  2  0  0  0  0
  8  3  1  0  0  0  0
  9  1  1  0  0  0  0
 10  8  1  0  0  0  0
 11  3  1  0  0  0  0
 11  7  2  0  0  0  0
 12 15  2  0  0  0  0
 13 18  1  0  0  0  0
 14 11  1  0  0  0  0
 17 15  1  0  0  0  0
 18 12  1  0  0  0  0
 19 14  1  0  0  0  0
 20 23  1  0  0  0  0
 21 19  1  0  0  0  0
 21 23  1  0  0  0  0
 22 21  1  0  0  0  0
 24 25  1  0  0  0  0
 24 22  1  0  0  0  0
 25 20  1  0  0  0  0
M  END
>  <MODEL>
2

>  <REMARK>
 VINA RESULT:      -7.3      1.831      6.875
  Name = 
  2 active torsions:
  status: ('A' for Active; 'I' for Inactive)
    1  A    between atoms: C_2  and  C_11
    2  A    between atoms: C_11  and  N_21
                            x       y       z     vdW  Elec       q    Type
                         _______ _______ _______ _____ _____    ______ ____

>  <TORSDO>
F 2

$$$$
=
 OpenBabel11042413493D

 25 28  0  0  0  0  0  0  0  0999 V2000
  187.8280  176.3650  147.4090 C   0  0  0  0  0  3  0  0  0  0  0  0
  189.3080  176.5540  142.2120 O   0  0  0  0  0  0  0  0  0  0  0  0
  187.7630  177.2910  144.4780 C   0  0  0  0  0  0  0  0  0  0  0  0
  188.7110  175.5400  146.8470 C   0  0  0  0  0  0  0  0  0  0  0  0
  187.0790  177.7760  145.5200 C   0  0  0  0  0  3  0  0  0  0  0  0
  185.7040  178.1390  141.3640 N   0  0  0  0  0  0  0  0  0  0  0  0
  189.4770  175.8600  145.6250 C   0  0  0  0  0  3  0  0  0  0  0  0
  187.3410  177.5970  143.0820 C   0  0  0  0  0  0  0  0  0  0  0  0
  187.5730  177.7510  146.9280 C   0  0  0  0  0  2  0  0  0  0  0  0
  188.4480  177.6590  142.0560 C   0  0  0  0  0  2  0  0  0  0  0  0
  189.0940  176.6460  144.6050 C   0  0  0  0  0  0  0  0  0  0  0  0
  183.7930  178.0510  142.6240 N   0  0  0  0  0  0  0  0  0  0  0  0
  183.6880  178.5670  140.1850 N   0  0  0  0  0  1  0  0  0  0  0  0
  189.9100  176.7030  143.4250 N   0  0  0  0  0  0  0  0  0  0  0  0
  184.8570  177.7540  143.5690 C   0  0  0  0  0  3  0  0  0  0  0  0
  188.9390  174.3130  147.4530 O   0  0  0  0  0  1  0  0  0  0  0  0
  186.0720  177.8290  142.7030 C   0  0  0  0  0  0  0  0  0  0  0  0
  184.4210  178.2560  141.3650 C   0  0  0  0  0  0  0  0  0  0  0  0
  191.3550  176.8900  143.4960 C   0  0  0  0  0  2  0  0  0  0  0  0
  193.1570  173.6770  142.9730 C   0  0  0  0  0  2  0  0  0  0  0  0
  192.0770  175.7990  142.7170 C   0  0  0  0  0  3  0  0  0  0  0  0
  193.4090  176.2810  142.3020 N   0  0  0  0  0  2  0  0  0  0  0  0
  192.1270  174.5600  143.5110 N   0  0  0  0  0  2  0  0  0  0  0  0
  194.4490  175.8180  143.2200 C   0  0  0  0  0  2  0  0  0  0  0  0
  194.5390  174.2920  143.1890 C   0  0  0  0  0  2  0  0  0  0  0  0
  2 14  1  0  0  0  0
  3 11  1  0  0  0  0
  3  5  2  0  0  0  0
  4  1  2  0  0  0  0
  4 16  1  0  0  0  0
  5  9  1  0  0  0  0
  6 18  2  0  0  0  0
  6 17  1  0  0  0  0
  7  4  1  0  0  0  0
  8  3  1  0  0  0  0
  9  1  1  0  0  0  0
 10  2  1  0  0  0  0
 10  8  1  0  0  0  0
 11  7  2  0  0  0  0
 12 15  2  0  0  0  0
 13 18  1  0  0  0  0
 14 19  1  0  0  0  0
 14 11  1  0  0  0  0
 17  8  2  0  0  0  0
 17 15  1  0  0  0  0
 18 12  1  0  0  0  0
 20 25  1  0  0  0  0
 20 23  1  0  0  0  0
 21 19  1  0  0  0  0
 21 23  1  0  0  0  0
 22 21  1  0  0  0  0
 22 24  1  0  0  0  0
 25 24  1  0  0  0  0
M  END
>  <MODEL>
3

>  <REMARK>
 VINA RESULT:      -7.1      2.116      2.474
  Name = 
  2 active torsions:
  status: ('A' for Active; 'I' for Inactive)
    1  A    between atoms: C_2  and  C_11
    2  A    between atoms: C_11  and  N_21
                            x       y       z     vdW  Elec       q    Type
                         _______ _______ _______ _____ _____    ______ ____

>  <TORSDO>
F 2

$$$$
=
 OpenBabel11042413493D

 25 28  0  0  0  0  0  0  0  0999 V2000
  191.1900  176.6980  148.2940 C   0  0  0  0  0  3  0  0  0  0  0  0
  190.2760  177.3750  143.0080 O   0  0  0  0  0  0  0  0  0  0  0  0
  191.6160  176.3090  145.2740 C   0  0  0  0  0  0  0  0  0  0  0  0
  190.3250  177.5750  147.7860 C   0  0  0  0  0  0  0  0  0  0  0  0
  192.2140  175.6740  146.2880 C   0  0  0  0  0  3  0  0  0  0  0  0
  194.0350  176.1070  142.3140 N   0  0  0  0  0  0  0  0  0  0  0  0
  189.7110  177.4470  146.4480 C   0  0  0  0  0  3  0  0  0  0  0  0
  192.1990  176.2710  143.9030 C   0  0  0  0  0  0  0  0  0  0  0  0
  191.5740  175.4300  147.6140 C   0  0  0  0  0  2  0  0  0  0  0  0
  191.2110  176.3500  142.7630 C   0  0  0  0  0  2  0  0  0  0  0  0
  190.2430  176.8700  145.3580 C   0  0  0  0  0  0  0  0  0  0  0  0
  195.7960  176.0430  143.7800 N   0  0  0  0  0  0  0  0  0  0  0  0
  196.1850  175.9730  141.3160 N   0  0  0  0  0  1  0  0  0  0  0  0
  189.5600  176.9910  144.1010 N   0  0  0  0  0  0  0  0  0  0  0  0
  194.6230  176.1280  144.6340 C   0  0  0  0  0  3  0  0  0  0  0  0
  189.9640  178.6660  148.5640 O   0  0  0  0  0  1  0  0  0  0  0  0
  193.5120  176.1600  143.6370 C   0  0  0  0  0  0  0  0  0  0  0  0
  195.3160  176.0410  142.4410 C   0  0  0  0  0  0  0  0  0  0  0  0
  188.1290  176.7380  143.9750 C   0  0  0  0  0  2  0  0  0  0  0  0
  185.5650  179.4030  144.3930 C   0  0  0  0  0  2  0  0  0  0  0  0
  187.3830  178.0260  143.6570 C   0  0  0  0  0  3  0  0  0  0  0  0
  186.5800  177.8480  142.4310 N   0  0  0  0  0  2  0  0  0  0  0  0
  186.5830  178.4470  144.8200 N   0  0  0  0  0  2  0  0  0  0  0  0
  185.1870  177.5380  142.7500 C   0  0  0  0  0  2  0  0  0  0  0  0
  184.5440  178.7100  143.4930 C   0  0  0  0  0  2  0  0  0  0  0  0
  2 14  1  0  0  0  0
  3 11  1  0  0  0  0
  3  5  2  0  0  0  0
  4  1  2  0  0  0  0
  4 16  1  0  0  0  0
  5  9  1  0  0  0  0
  6 18  2  0  0  0  0
  6 17  1  0  0  0  0
  7  4  1  0  0  0  0
  8  3  1  0  0  0  0
  9  1  1  0  0  0  0
 10  2  1  0  0  0  0
 10  8  1  0  0  0  0
 11  7  2  0  0  0  0
 12 15  2  0  0  0  0
 13 18  1  0  0  0  0
 14 11  1  0  0  0  0
 17  8  2  0  0  0  0
 17 15  1  0  0  0  0
 18 12  1  0  0  0  0
 19 14  1  0  0  0  0
 20 23  1  0  0  0  0
 21 19  1  0  0  0  0
 21 23  1  0  0  0  0
 22 24  1  0  0  0  0
 22 21  1  0  0  0  0
 24 25  1  0  0  0  0
 25 20  1  0  0  0  0
M  END
>  <MODEL>
4

>  <REMARK>
 VINA RESULT:      -7.0      2.355      6.818
  Name = 
  2 active torsions:
  status: ('A' for Active; 'I' for Inactive)
    1  A    between atoms: C_2  and  C_11
    2  A    between atoms: C_11  and  N_21
                            x       y       z     vdW  Elec       q    Type
                         _______ _______ _______ _____ _____    ______ ____

>  <TORSDO>
F 2

$$$$
=
 OpenBabel11042413493D

 25 28  0  0  0  0  0  0  0  0999 V2000
  191.2880  174.4710  145.7050 C   0  0  0  0  0  3  0  0  0  0  0  0
  188.4300  177.5440  142.2950 O   0  0  0  0  0  0  0  0  0  0  0  0
  189.4030  175.0960  143.3580 C   0  0  0  0  0  0  0  0  0  0  0  0
  191.3510  175.8010  145.6580 C   0  0  0  0  0  0  0  0  0  0  0  0
  189.7210  173.9050  143.8770 C   0  0  0  0  0  3  0  0  0  0  0  0
  188.3710  174.4380  139.7310 N   0  0  0  0  0  0  0  0  0  0  0  0
  190.2750  176.6580  145.1190 C   0  0  0  0  0  3  0  0  0  0  0  0
  188.7830  175.1970  142.0070 C   0  0  0  0  0  0  0  0  0  0  0  0
  190.0860  173.6880  145.3080 C   0  0  0  0  0  2  0  0  0  0  0  0
  187.8460  176.3630  141.7950 C   0  0  0  0  0  2  0  0  0  0  0  0
  189.4000  176.3550  144.1470 C   0  0  0  0  0  0  0  0  0  0  0  0
  189.7700  172.6240  139.6800 N   0  0  0  0  0  0  0  0  0  0  0  0
  188.4290  173.2570  137.6730 N   0  0  0  0  0  1  0  0  0  0  0  0
  188.5310  177.3820  143.6440 N   0  0  0  0  0  0  0  0  0  0  0  0
  189.9250  173.1570  141.0240 C   0  0  0  0  0  3  0  0  0  0  0  0
  192.4860  176.4220  146.1590 O   0  0  0  0  0  1  0  0  0  0  0  0
  188.9950  174.3250  141.0050 C   0  0  0  0  0  0  0  0  0  0  0  0
  188.8320  173.4670  139.0220 C   0  0  0  0  0  0  0  0  0  0  0  0
  187.7830  178.2620  144.5350 C   0  0  0  0  0  2  0  0  0  0  0  0
  184.1440  178.8180  145.0750 C   0  0  0  0  0  2  0  0  0  0  0  0
  186.2930  177.9570  144.4630 C   0  0  0  0  0  3  0  0  0  0  0  0
  185.9660  176.8490  145.3820 N   0  0  0  0  0  2  0  0  0  0  0  0
  185.5140  179.1780  144.7240 N   0  0  0  0  0  2  0  0  0  0  0  0
  185.4400  177.3500  146.6510 C   0  0  0  0  0  2  0  0  0  0  0  0
  184.1220  178.0900  146.4190 C   0  0  0  0  0  2  0  0  0  0  0  0
  2 14  1  0  0  0  0
  3  5  2  0  0  0  0
  3 11  1  0  0  0  0
  4  1  2  0  0  0  0
  4 16  1  0  0  0  0
  5  9  1  0  0  0  0
  6 17  1  0  0  0  0
  7  4  1  0  0  0  0
  8  3  1  0  0  0  0
  9  1  1  0  0  0  0
 10  8  1  0  0  0  0
 10  2  1  0  0  0  0
 11  7  2  0  0  0  0
 12 15  2  0  0  0  0
 13 18  1  0  0  0  0
 14 11  1  0  0  0  0
 14 19  1  0  0  0  0
 17 15  1  0  0  0  0
 17  8  2  0  0  0  0
 18 12  1  0  0  0  0
 18  6  2  0  0  0  0
 20 25  1  0  0  0  0
 21 19  1  0  0  0  0
 21 23  1  0  0  0  0
 21 22  1  0  0  0  0
 22 24  1  0  0  0  0
 23 20  1  0  0  0  0
 25 24  1  0  0  0  0
M  END
>  <MODEL>
5

>  <REMARK>
 VINA RESULT:      -6.9      2.924      5.865
  Name = 
  2 active torsions:
  status: ('A' for Active; 'I' for Inactive)
    1  A    between atoms: C_2  and  C_11
    2  A    between atoms: C_11  and  N_21
                            x       y       z     vdW  Elec       q    Type
                         _______ _______ _______ _____ _____    ______ ____

>  <TORSDO>
F 2

$$$$
=
 OpenBabel11042413493D

 25 28  0  0  0  0  0  0  0  0999 V2000
  190.3760  175.3170  147.6780 C   0  0  0  0  0  3  0  0  0  0  0  0
  189.4190  176.5860  142.5100 O   0  0  0  0  0  0  0  0  0  0  0  0
  189.5990  174.8390  144.7420 C   0  0  0  0  0  0  0  0  0  0  0  0
  190.6240  176.5090  147.1370 C   0  0  0  0  0  0  0  0  0  0  0  0
  189.5420  173.9830  145.7680 C   0  0  0  0  0  3  0  0  0  0  0  0
  189.9140  172.6970  141.5850 N   0  0  0  0  0  0  0  0  0  0  0  0
  189.9480  177.0230  145.9290 C   0  0  0  0  0  3  0  0  0  0  0  0
  189.5450  174.3460  143.3360 C   0  0  0  0  0  0  0  0  0  0  0  0
  189.3160  174.3930  147.1860 C   0  0  0  0  0  2  0  0  0  0  0  0
  188.9150  175.2820  142.3320 C   0  0  0  0  0  2  0  0  0  0  0  0
  189.4660  176.3100  144.8980 C   0  0  0  0  0  0  0  0  0  0  0  0
  190.9820  171.0810  142.8080 N   0  0  0  0  0  0  0  0  0  0  0  0
  190.5800  170.7720  140.3650 N   0  0  0  0  0  1  0  0  0  0  0  0
  188.9890  177.0020  143.7340 N   0  0  0  0  0  0  0  0  0  0  0  0
  190.6950  172.1280  143.7740 C   0  0  0  0  0  3  0  0  0  0  0  0
  191.5620  177.3250  147.7530 O   0  0  0  0  0  1  0  0  0  0  0  0
  189.9980  173.1470  142.9320 C   0  0  0  0  0  0  0  0  0  0  0  0
  190.4760  171.5380  141.5600 C   0  0  0  0  0  0  0  0  0  0  0  0
  188.0840  178.1420  143.8320 C   0  0  0  0  0  2  0  0  0  0  0  0
  184.3840  178.3240  143.4790 C   0  0  0  0  0  2  0  0  0  0  0  0
  186.6410  177.6730  143.9500 C   0  0  0  0  0  3  0  0  0  0  0  0
  186.2190  177.7090  145.3640 N   0  0  0  0  0  2  0  0  0  0  0  0
  185.7760  178.4690  143.0640 N   0  0  0  0  0  2  0  0  0  0  0  0
  185.4720  178.9310  145.6620 C   0  0  0  0  0  2  0  0  0  0  0  0
  184.1780  178.9690  144.8490 C   0  0  0  0  0  2  0  0  0  0  0  0
  2 14  1  0  0  0  0
  3 11  1  0  0  0  0
  3  5  2  0  0  0  0
  4  1  2  0  0  0  0
  4 16  1  0  0  0  0
  5  9  1  0  0  0  0
  6 17  1  0  0  0  0
  7  4  1  0  0  0  0
  8  3  1  0  0  0  0
  9  1  1  0  0  0  0
 10  2  1  0  0  0  0
 10  8  1  0  0  0  0
 11  7  2  0  0  0  0
 12 15  2  0  0  0  0
 13 18  1  0  0  0  0
 14 19  1  0  0  0  0
 14 11  1  0  0  0  0
 17  8  2  0  0  0  0
 17 15  1  0  0  0  0
 18  6  2  0  0  0  0
 18 12  1  0  0  0  0
 19 21  1  0  0  0  0
 20 25  1  0  0  0  0
 21 22  1  0  0  0  0
 22 24  1  0  0  0  0
 23 20  1  0  0  0  0
 23 21  1  0  0  0  0
 25 24  1  0  0  0  0
M  END
>  <MODEL>
6

>  <REMARK>
 VINA RESULT:      -6.9      3.420      6.235
  Name = 
  2 active torsions:
  status: ('A' for Active; 'I' for Inactive)
    1  A    between atoms: C_2  and  C_11
    2  A    between atoms: C_11  and  N_21
                            x       y       z     vdW  Elec       q    Type
                         _______ _______ _______ _____ _____    ______ ____

>  <TORSDO>
F 2

$$$$
=
 OpenBabel11042413493D

 25 28  0  0  0  0  0  0  0  0999 V2000
  189.0960  176.5140  146.9660 C   0  0  0  0  0  3  0  0  0  0  0  0
  188.3690  174.3350  142.0710 O   0  0  0  0  0  0  0  0  0  0  0  0
  188.3400  176.4310  143.9870 C   0  0  0  0  0  0  0  0  0  0  0  0
  189.2090  175.2150  146.6970 C   0  0  0  0  0  0  0  0  0  0  0  0
  188.4150  177.4920  144.7980 C   0  0  0  0  0  3  0  0  0  0  0  0
  185.8810  177.3830  141.2120 N   0  0  0  0  0  0  0  0  0  0  0  0
  189.4990  174.6730  145.3530 C   0  0  0  0  0  3  0  0  0  0  0  0
  187.6050  176.5130  142.6930 C   0  0  0  0  0  0  0  0  0  0  0  0
  189.3420  177.5880  145.9640 C   0  0  0  0  0  2  0  0  0  0  0  0
  188.1260  175.6330  141.5810 C   0  0  0  0  0  2  0  0  0  0  0  0
  189.1600  175.2060  144.1680 C   0  0  0  0  0  0  0  0  0  0  0  0
  184.7950  178.7730  142.6740 N   0  0  0  0  0  0  0  0  0  0  0  0
  184.0090  178.5370  140.3180 N   0  0  0  0  0  1  0  0  0  0  0  0
  189.3860  174.4460  142.9710 N   0  0  0  0  0  0  0  0  0  0  0  0
  185.8740  178.2000  143.4610 C   0  0  0  0  0  3  0  0  0  0  0  0
  189.0620  174.3130  147.7420 O   0  0  0  0  0  1  0  0  0  0  0  0
  186.5490  177.3140  142.4660 C   0  0  0  0  0  0  0  0  0  0  0  0
  184.9070  178.2110  141.3720 C   0  0  0  0  0  0  0  0  0  0  0  0
  190.6570  173.7790  142.7110 C   0  0  0  0  0  2  0  0  0  0  0  0
  193.6520  175.0490  140.9050 C   0  0  0  0  0  2  0  0  0  0  0  0
  191.7160  174.7880  142.2920 C   0  0  0  0  0  3  0  0  0  0  0  0
  192.6470  175.0280  143.4110 N   0  0  0  0  0  2  0  0  0  0  0  0
  192.3890  174.3350  141.0630 N   0  0  0  0  0  2  0  0  0  0  0  0
  193.8630  174.2280  143.2710 C   0  0  0  0  0  2  0  0  0  0  0  0
  194.6240  174.6430  142.0110 C   0  0  0  0  0  2  0  0  0  0  0  0
  2 14  1  0  0  0  0
  3 11  1  0  0  0  0
  3  5  2  0  0  0  0
  4  1  2  0  0  0  0
  4 16  1  0  0  0  0
  5  9  1  0  0  0  0
  6 18  2  0  0  0  0
  6 17  1  0  0  0  0
  7  4  1  0  0  0  0
  8  3  1  0  0  0  0
  9  1  1  0  0  0  0
 10  2  1  0  0  0  0
 10  8  1  0  0  0  0
 11  7  2  0  0  0  0
 12 15  2  0  0  0  0
 13 18  1  0  0  0  0
 14 11  1  0  0  0  0
 17  8  2  0  0  0  0
 17 15  1  0  0  0  0
 18 12  1  0  0  0  0
 19 14  1  0  0  0  0
 20 23  1  0  0  0  0
 20 25  1  0  0  0  0
 21 19  1  0  0  0  0
 21 22  1  0  0  0  0
 23 21  1  0  0  0  0
 24 22  1  0  0  0  0
 25 24  1  0  0  0  0
M  END
>  <MODEL>
7

>  <REMARK>
 VINA RESULT:      -6.7      2.683      3.280
  Name = 
  2 active torsions:
  status: ('A' for Active; 'I' for Inactive)
    1  A    between atoms: C_2  and  C_11
    2  A    between atoms: C_11  and  N_21
                            x       y       z     vdW  Elec       q    Type
                         _______ _______ _______ _____ _____    ______ ____

>  <TORSDO>
F 2

$$$$
=
 OpenBabel11042413493D

 25 28  0  0  0  0  0  0  0  0999 V2000
  188.6430  176.4340  146.8800 C   0  0  0  0  0  3  0  0  0  0  0  0
  188.2290  174.9000  141.7120 O   0  0  0  0  0  0  0  0  0  0  0  0
  187.8860  176.6660  143.9090 C   0  0  0  0  0  0  0  0  0  0  0  0
  188.9560  175.2200  146.4280 C   0  0  0  0  0  0  0  0  0  0  0  0
  187.8000  177.5970  144.8660 C   0  0  0  0  0  3  0  0  0  0  0  0
  185.2870  177.6140  141.2630 N   0  0  0  0  0  0  0  0  0  0  0  0
  189.3180  174.9310  145.0250 C   0  0  0  0  0  3  0  0  0  0  0  0
  187.1380  176.8190  142.6290 C   0  0  0  0  0  0  0  0  0  0  0  0
  188.7100  177.6660  146.0470 C   0  0  0  0  0  2  0  0  0  0  0  0
  187.7820  176.2010  141.4100 C   0  0  0  0  0  2  0  0  0  0  0  0
  188.8900  175.5710  143.9240 C   0  0  0  0  0  0  0  0  0  0  0  0
  184.0070  178.5890  142.8940 N   0  0  0  0  0  0  0  0  0  0  0  0
  183.2500  178.5770  140.5170 N   0  0  0  0  0  1  0  0  0  0  0  0
  189.2230  175.0380  142.6330 N   0  0  0  0  0  0  0  0  0  0  0  0
  185.1690  178.0840  143.6070 C   0  0  0  0  0  3  0  0  0  0  0  0
  188.9610  174.1650  147.3290 O   0  0  0  0  0  1  0  0  0  0  0  0
  185.9670  177.4680  142.5050 C   0  0  0  0  0  0  0  0  0  0  0  0
  184.1970  178.2470  141.5270 C   0  0  0  0  0  0  0  0  0  0  0  0
  190.5810  174.6220  142.2990 C   0  0  0  0  0  2  0  0  0  0  0  0
  190.6230  170.9020  142.3270 C   0  0  0  0  0  2  0  0  0  0  0  0
  190.5840  173.2170  141.7140 C   0  0  0  0  0  3  0  0  0  0  0  0
  191.8920  172.9390  141.0890 N   0  0  0  0  0  2  0  0  0  0  0  0
  190.2140  172.2380  142.7490 N   0  0  0  0  0  2  0  0  0  0  0  0
  192.7590  172.1820  141.9900 C   0  0  0  0  0  2  0  0  0  0  0  0
  192.1470  170.8120  142.2830 C   0  0  0  0  0  2  0  0  0  0  0  0
  2 14  1  0  0  0  0
  3 11  1  0  0  0  0
  3  5  2  0  0  0  0
  4  1  2  0  0  0  0
  4 16  1  0  0  0  0
  5  9  1  0  0  0  0
  6 18  2  0  0  0  0
  6 17  1  0  0  0  0
  7  4  1  0  0  0  0
  8  3  1  0  0  0  0
  9  1  1  0  0  0  0
 10  2  1  0  0  0  0
 10  8  1  0  0  0  0
 11  7  2  0  0  0  0
 12 15  2  0  0  0  0
 13 18  1  0  0  0  0
 14 11  1  0  0  0  0
 17  8  2  0  0  0  0
 17 15  1  0  0  0  0
 18 12  1  0  0  0  0
 19 14  1  0  0  0  0
 20 23  1  0  0  0  0
 21 19  1  0  0  0  0
 21 23  1  0  0  0  0
 22 21  1  0  0  0  0
 22 24  1  0  0  0  0
 24 25  1  0  0  0  0
 25 20  1  0  0  0  0
M  END
>  <MODEL>
8

>  <REMARK>
 VINA RESULT:      -6.7      3.193      3.795
  Name = 
  2 active torsions:
  status: ('A' for Active; 'I' for Inactive)
    1  A    between atoms: C_2  and  C_11
    2  A    between atoms: C_11  and  N_21
                            x       y       z     vdW  Elec       q    Type
                         _______ _______ _______ _____ _____    ______ ____

>  <TORSDO>
F 2

$$$$
=
 OpenBabel11042413493D

 25 28  0  0  0  0  0  0  0  0999 V2000
  191.9020  175.6200  145.2180 C   0  0  0  0  0  3  0  0  0  0  0  0
  187.3410  174.7880  142.4370 O   0  0  0  0  0  0  0  0  0  0  0  0
  189.0880  176.2360  144.1450 C   0  0  0  0  0  0  0  0  0  0  0  0
  191.6010  174.4850  144.5900 C   0  0  0  0  0  0  0  0  0  0  0  0
  189.9010  177.0280  144.8530 C   0  0  0  0  0  3  0  0  0  0  0  0
  185.5320  177.4820  144.8230 N   0  0  0  0  0  0  0  0  0  0  0  0
  190.6510  174.3940  143.4620 C   0  0  0  0  0  3  0  0  0  0  0  0
  187.6340  176.5460  144.0310 C   0  0  0  0  0  0  0  0  0  0  0  0
  191.3910  176.9550  144.8000 C   0  0  0  0  0  2  0  0  0  0  0  0
  186.9650  176.1100  142.7490 C   0  0  0  0  0  2  0  0  0  0  0  0
  189.5760  175.1680  143.2360 C   0  0  0  0  0  0  0  0  0  0  0  0
  186.1980  178.2060  146.8930 N   0  0  0  0  0  0  0  0  0  0  0  0
  183.8380  178.4990  146.1390 N   0  0  0  0  0  1  0  0  0  0  0  0
  188.6770  174.8190  142.1730 N   0  0  0  0  0  0  0  0  0  0  0  0
  187.4010  177.6310  146.3110 C   0  0  0  0  0  3  0  0  0  0  0  0
  192.2260  173.3190  145.0070 O   0  0  0  0  0  1  0  0  0  0  0  0
  186.9160  177.1840  144.9710 C   0  0  0  0  0  0  0  0  0  0  0  0
  185.1720  178.0540  145.9200 C   0  0  0  0  0  0  0  0  0  0  0  0
  189.1570  174.4780  140.8380 C   0  0  0  0  0  2  0  0  0  0  0  0
  190.2430  171.0850  139.7660 C   0  0  0  0  0  2  0  0  0  0  0  0
  189.0340  172.9820  140.5900 C   0  0  0  0  0  3  0  0  0  0  0  0
  188.1310  172.7380  139.4490 N   0  0  0  0  0  2  0  0  0  0  0  0
  190.3700  172.3870  140.4120 N   0  0  0  0  0  2  0  0  0  0  0  0
  188.8830  172.5200  138.2140 C   0  0  0  0  0  2  0  0  0  0  0  0
  189.7390  171.2590  138.3340 C   0  0  0  0  0  2  0  0  0  0  0  0
  2 10  1  0  0  0  0
  3  5  2  0  0  0  0
  4 16  1  0  0  0  0
  4  1  2  0  0  0  0
  6 17  1  0  0  0  0
  6 18  2  0  0  0  0
  7  4  1  0  0  0  0
  8  3  1  0  0  0  0
  8 17  2  0  0  0  0
  9  5  1  0  0  0  0
  9  1  1  0  0  0  0
 10  8  1  0  0  0  0
 11  7  2  0  0  0  0
 11  3  1  0  0  0  0
 14  2  1  0  0  0  0
 14 11  1  0  0  0  0
 15 12  2  0  0  0  0
 17 15  1  0  0  0  0
 18 13  1  0  0  0  0
 18 12  1  0  0  0  0
 19 14  1  0  0  0  0
 20 23  1  0  0  0  0
 21 19  1  0  0  0  0
 22 21  1  0  0  0  0
 23 21  1  0  0  0  0
 24 25  1  0  0  0  0
 24 22  1  0  0  0  0
 25 20  1  0  0  0  0
M  END
>  <MODEL>
9

>  <REMARK>
 VINA RESULT:      -6.5      3.753      6.163
  Name = 
  2 active torsions:
  status: ('A' for Active; 'I' for Inactive)
    1  A    between atoms: C_2  and  C_11
    2  A    between atoms: C_11  and  N_21
                            x       y       z     vdW  Elec       q    Type
                         _______ _______ _______ _____ _____    ______ ____

>  <TORSDO>
F 2

$$$$
