=
 OpenBabel11042416443D

 48 52  0  0  1  0  0  0  0  0999 V2000
  190.9570  172.8850  142.7130 S   0  0  0  0  0  0  0  0  0  0  0  0
  188.0370  173.3920  140.1470 O   0  0  0  0  0  0  0  0  0  0  0  0
  190.1200  172.7970  141.1370 C   0  0  0  0  0  0  0  0  0  0  0  0
  190.0560  175.4840  142.3770 C   0  0  0  0  0  0  0  0  0  0  0  0
  191.3300  174.6550  142.4750 C   0  0  1  0  0  3  0  0  0  0  0  0
  190.5920  171.9520  140.2170 C   0  0  0  0  0  3  0  0  0  0  0  0
  187.7250  177.0720  142.1400 C   0  0  0  0  0  0  0  0  0  0  0  0
  189.9950  176.7610  142.9530 C   0  0  0  0  0  3  0  0  0  0  0  0
  188.8460  177.5470  142.8360 C   0  0  0  0  0  3  0  0  0  0  0  0
  188.9500  175.0220  141.6180 C   0  0  0  0  0  0  0  0  0  0  0  0
  187.8060  175.8250  141.5080 C   0  0  0  0  0  3  0  0  0  0  0  0
  188.9820  173.7170  140.9180 C   0  0  0  0  0  0  0  0  0  0  0  0
  189.5950  171.6720  137.8330 N   0  0  0  0  0  0  0  0  0  0  0  0
  190.0420  171.7990  138.8940 C   0  0  0  0  0  0  0  0  0  0  0  0
  192.3450  175.1330  143.5200 C   0  0  0  0  0  2  0  0  0  0  0  0
  193.6400  175.6350  142.8900 C   0  0  0  0  0  2  0  0  0  0  0  0
  194.5900  176.1120  143.9750 C   0  0  2  0  0  3  0  0  0  0  0  0
  196.0110  176.0370  143.4300 C   0  0  0  0  0  1  0  0  0  0  0  0
  194.5570  176.1390  146.4880 C   0  0  0  0  0  1  0  0  0  0  0  0
  194.4350  175.2650  145.2480 C   0  0  2  0  0  3  0  0  0  0  0  0
  195.4520  174.1640  145.3230 C   0  0  0  0  0  0  0  0  0  0  0  0
  197.2140  169.9340  146.0010 C   0  0  0  0  0  1  0  0  0  0  0  0
  194.2770  169.8750  146.0840 O   0  0  0  0  0  0  0  0  0  0  0  0
  196.6930  172.2030  144.9380 C   0  0  1  0  0  3  0  0  0  0  0  0
  197.2680  173.1070  145.8710 O   0  0  0  0  0  0  0  0  0  0  0  0
  196.2930  170.9880  145.6170 N   0  0  0  0  0  0  0  0  0  0  0  0
  195.3790  172.9070  144.5230 C   0  0  1  0  0  3  0  0  0  0  0  0
  194.8880  170.8750  145.6200 C   0  0  0  0  0  0  0  0  0  0  0  0
  196.5120  174.2340  146.0530 N   0  0  0  0  0  0  0  0  0  0  0  0
  194.2140  172.0310  145.0070 C   0  0  0  0  0  2  0  0  0  0  0  0
  186.4990  177.9450  141.9500 C   0  0  1  0  0  3  0  0  0  0  0  0
  184.6850  178.2030  140.2640 C   0  0  0  0  0  2  0  0  0  0  0  0
  185.9540  177.9060  140.5410 C   0  0  0  0  0  3  0  0  0  0  0  0
  185.3970  177.6690  142.9820 C   0  0  0  0  0  2  0  0  0  0  0  0
  184.5480  178.8360  146.7460 C   0  0  1  0  0  3  0  0  0  0  0  0
  184.8410  178.4640  145.3280 N   0  0  0  0  0  0  0  0  0  0  0  0
  185.5660  179.9360  143.6840 O   0  0  0  0  0  0  0  0  0  0  0  0
  184.3430  177.5230  146.3720 C   0  0  0  0  0  2  0  0  0  0  0  0
  185.2970  178.7510  144.0090 C   0  0  0  0  0  0  0  0  0  0  0  0
  185.8690  179.0160  147.4800 C   0  0  0  0  0  2  0  0  0  0  0  0
  186.4330  177.7780  147.7950 O   0  0  0  0  0  0  0  0  0  0  0  0
  187.8120  177.9770  147.7250 C   0  0  0  0  0  2  0  0  0  0  0  0
  187.6950  176.1060  146.0900 C   0  0  0  0  0  1  0  0  0  0  0  0
  188.3400  177.4440  146.4020 C   0  0  2  0  0  3  0  0  0  0  0  0
  189.8480  177.2680  146.4600 C   0  0  0  0  0  2  0  0  0  0  0  0
  190.2140  175.8010  146.6050 C   0  0  0  0  0  2  0  0  0  0  0  0
  191.4110  176.9200  148.3930 N   0  0  0  0  0  1  0  0  0  0  0  0
  191.1290  175.6250  147.7990 C   0  0  0  0  0  2  0  0  0  0  0  0
  2 12  2  0  0  0  0
  3  1  1  0  0  0  0
  4  5  1  0  0  0  0
  4  8  1  0  0  0  0
  5  1  1  0  0  0  0
  5 15  1  1  0  0  0
  6  3  2  0  0  0  0
  7  9  1  0  0  0  0
  9  8  2  0  0  0  0
 10  4  2  0  0  0  0
 11 10  1  0  0  0  0
 11  7  2  0  0  0  0
 12  3  1  0  0  0  0
 12 10  1  0  0  0  0
 13 14  3  0  0  0  0
 14  6  1  0  0  0  0
 16 15  1  0  0  0  0
 16 17  1  0  0  0  0
 17 18  1  6  0  0  0
 17 20  1  0  0  0  0
 20 21  1  0  0  0  0
 20 19  1  1  0  0  0
 21 29  2  0  0  0  0
 24 26  1  0  0  0  0
 24 25  1  1  0  0  0
 25 29  1  0  0  0  0
 26 28  1  0  0  0  0
 26 22  1  0  0  0  0
 27 24  1  0  0  0  0
 27 30  1  1  0  0  0
 27 21  1  0  0  0  0
 28 23  2  0  0  0  0
 30 28  1  0  0  0  0
 31 33  1  6  0  0  0
 31  7  1  0  0  0  0
 31 34  1  0  0  0  0
 32 33  2  0  0  0  0
 34 39  1  0  0  0  0
 35 40  1  1  0  0  0
 36 38  1  0  0  0  0
 36 35  1  0  0  0  0
 37 39  2  0  0  0  0
 38 35  1  0  0  0  0
 39 36  1  0  0  0  0
 40 41  1  0  0  0  0
 42 41  1  0  0  0  0
 44 43  1  1  0  0  0
 44 45  1  0  0  0  0
 44 42  1  0  0  0  0
 45 46  1  0  0  0  0
 46 48  1  0  0  0  0
 48 47  1  0  0  0  0
M  END
>  <MODEL>
1

>  <REMARK>
 VINA RESULT:      -7.2      0.000      0.000
  Name = 
  17 active torsions:
  status: ('A' for Active; 'I' for Inactive)
    1  A    between atoms: C_1  and  C_11
    2  A    between atoms: C_5  and  C_8
    3  A    between atoms: C_5  and  O_37
    4  A    between atoms: C_11  and  C_24
    5  A    between atoms: C_19  and  C_44
    6  A    between atoms: C_20  and  C_25
    7  A    between atoms: C_21  and  C_24
    8  A    between atoms: C_21  and  C_44
    9  A    between atoms: C_26  and  C_36
   10  A    between atoms: C_26  and  C_47
   11  A    between atoms: C_27  and  C_33
   12  A    between atoms: C_32  and  C_33
   13  A    between atoms: C_32  and  C_48
   14  A    between atoms: C_33  and  C_42
   15  A    between atoms: C_36  and  C_46
   16  A    between atoms: O_37  and  C_43
   17  A    between atoms: C_43  and  C_47
                            x       y       z     vdW  Elec       q    Type
                         _______ _______ _______ _____ _____    ______ ____

>  <TORSDO>
F 17

$$$$
=
 OpenBabel11042416443D

 48 52  0  0  1  0  0  0  0  0999 V2000
  192.8940  170.3360  144.0350 S   0  0  0  0  0  0  0  0  0  0  0  0
  191.0590  173.1030  141.9490 O   0  0  0  0  0  0  0  0  0  0  0  0
  192.4620  171.2860  142.5840 C   0  0  0  0  0  0  0  0  0  0  0  0
  193.1900  172.9440  144.9260 C   0  0  0  0  0  0  0  0  0  0  0  0
  193.9770  171.6700  144.6490 C   0  0  1  0  0  3  0  0  0  0  0  0
  192.7540  170.7750  141.3850 C   0  0  0  0  0  3  0  0  0  0  0  0
  191.7900  175.3550  145.4140 C   0  0  0  0  0  0  0  0  0  0  0  0
  193.5120  173.7510  146.0260 C   0  0  0  0  0  3  0  0  0  0  0  0
  192.8230  174.9420  146.2680 C   0  0  0  0  0  3  0  0  0  0  0  0
  192.1900  173.3860  144.0220 C   0  0  0  0  0  0  0  0  0  0  0  0
  191.5110  174.5860  144.2770 C   0  0  0  0  0  3  0  0  0  0  0  0
  191.8590  172.6200  142.7980 C   0  0  0  0  0  0  0  0  0  0  0  0
  192.2920  171.9700  139.1230 N   0  0  0  0  0  0  0  0  0  0  0  0
  192.4970  171.4410  140.1330 C   0  0  0  0  0  0  0  0  0  0  0  0
  194.8390  171.1660  145.8130 C   0  0  0  0  0  2  0  0  0  0  0  0
  196.2660  171.7040  145.7600 C   0  0  0  0  0  2  0  0  0  0  0  0
  196.7190  171.8210  144.3150 C   0  0  2  0  0  3  0  0  0  0  0  0
  197.9110  170.8940  144.1140 C   0  0  0  0  0  1  0  0  0  0  0  0
  197.0790  174.1350  145.2270 C   0  0  0  0  0  1  0  0  0  0  0  0
  197.0780  173.2750  143.9710 C   0  0  2  0  0  3  0  0  0  0  0  0
  196.1300  173.8700  142.9710 C   0  0  0  0  0  0  0  0  0  0  0  0
  194.4770  175.2870  138.8820 C   0  0  0  0  0  1  0  0  0  0  0  0
  196.9390  173.7210  138.5350 O   0  0  0  0  0  0  0  0  0  0  0  0
  194.6310  174.1820  141.1850 C   0  0  1  0  0  3  0  0  0  0  0  0
  194.7890  175.3030  142.0430 O   0  0  0  0  0  0  0  0  0  0  0  0
  195.1690  174.4870  139.8770 N   0  0  0  0  0  0  0  0  0  0  0  0
  195.5830  173.1270  141.7990 C   0  0  1  0  0  3  0  0  0  0  0  0
  196.3160  173.7050  139.6300 C   0  0  0  0  0  0  0  0  0  0  0  0
  195.6650  175.0670  143.0690 N   0  0  0  0  0  0  0  0  0  0  0  0
  196.6920  172.8550  140.7720 C   0  0  0  0  0  2  0  0  0  0  0  0
  191.0830  176.6800  145.6300 C   0  0  1  0  0  3  0  0  0  0  0  0
  190.5870  178.0420  143.6060 C   0  0  0  0  0  2  0  0  0  0  0  0
  190.2180  177.0890  144.4610 C   0  0  0  0  0  3  0  0  0  0  0  0
  190.3010  176.7370  146.9490 C   0  0  0  0  0  2  0  0  0  0  0  0
  186.2720  176.8740  147.0230 C   0  0  1  0  0  3  0  0  0  0  0  0
  187.7630  176.7610  147.0220 N   0  0  0  0  0  0  0  0  0  0  0  0
  188.9520  174.7940  146.6860 O   0  0  0  0  0  0  0  0  0  0  0  0
  187.0020  178.0190  147.2720 C   0  0  0  0  0  2  0  0  0  0  0  0
  188.9800  176.0400  146.8560 C   0  0  0  0  0  0  0  0  0  0  0  0
  185.7840  176.8170  145.5820 C   0  0  0  0  0  2  0  0  0  0  0  0
  184.6160  177.5660  145.4250 O   0  0  0  0  0  0  0  0  0  0  0  0
  184.6420  178.0110  144.1030 C   0  0  0  0  0  2  0  0  0  0  0  0
  185.6060  180.3000  144.2340 C   0  0  0  0  0  1  0  0  0  0  0  0
  185.8870  178.8540  143.8720 C   0  0  2  0  0  3  0  0  0  0  0  0
  186.3190  178.7800  142.4160 C   0  0  0  0  0  2  0  0  0  0  0  0
  185.5630  177.6830  141.6860 C   0  0  0  0  0  2  0  0  0  0  0  0
  183.5980  178.1430  140.3430 N   0  0  0  0  0  1  0  0  0  0  0  0
  185.0470  178.2190  140.3670 C   0  0  0  0  0  2  0  0  0  0  0  0
  1  5  1  0  0  0  0
  2 12  2  0  0  0  0
  3 12  1  0  0  0  0
  3  1  1  0  0  0  0
  4  8  1  0  0  0  0
  5  4  1  0  0  0  0
  5 15  1  1  0  0  0
  6  3  2  0  0  0  0
  7 31  1  0  0  0  0
  7  9  1  0  0  0  0
  8  9  2  0  0  0  0
 10 11  1  0  0  0  0
 10  4  2  0  0  0  0
 11  7  2  0  0  0  0
 12 10  1  0  0  0  0
 13 14  3  0  0  0  0
 14  6  1  0  0  0  0
 16 15  1  0  0  0  0
 17 18  1  1  0  0  0
 17 16  1  0  0  0  0
 20 17  1  0  0  0  0
 20 19  1  1  0  0  0
 21 29  2  0  0  0  0
 21 20  1  0  0  0  0
 22 26  1  0  0  0  0
 23 28  2  0  0  0  0
 24 27  1  0  0  0  0
 24 25  1  1  0  0  0
 25 29  1  0  0  0  0
 26 24  1  0  0  0  0
 27 30  1  6  0  0  0
 27 21  1  0  0  0  0
 28 26  1  0  0  0  0
 28 30  1  0  0  0  0
 31 33  1  6  0  0  0
 31 34  1  0  0  0  0
 32 33  2  0  0  0  0
 35 40  1  6  0  0  0
 35 38  1  0  0  0  0
 36 35  1  0  0  0  0
 36 38  1  0  0  0  0
 37 39  2  0  0  0  0
 39 34  1  0  0  0  0
 39 36  1  0  0  0  0
 41 40  1  0  0  0  0
 42 41  1  0  0  0  0
 44 42  1  0  0  0  0
 44 43  1  6  0  0  0
 45 44  1  0  0  0  0
 46 45  1  0  0  0  0
 47 48  1  0  0  0  0
 48 46  1  0  0  0  0
M  END
>  <MODEL>
2

>  <REMARK>
 VINA RESULT:      -6.6      2.805      5.386
  Name = 
  17 active torsions:
  status: ('A' for Active; 'I' for Inactive)
    1  A    between atoms: C_1  and  C_11
    2  A    between atoms: C_5  and  C_8
    3  A    between atoms: C_5  and  O_37
    4  A    between atoms: C_11  and  C_24
    5  A    between atoms: C_19  and  C_44
    6  A    between atoms: C_20  and  C_25
    7  A    between atoms: C_21  and  C_24
    8  A    between atoms: C_21  and  C_44
    9  A    between atoms: C_26  and  C_36
   10  A    between atoms: C_26  and  C_47
   11  A    between atoms: C_27  and  C_33
   12  A    between atoms: C_32  and  C_33
   13  A    between atoms: C_32  and  C_48
   14  A    between atoms: C_33  and  C_42
   15  A    between atoms: C_36  and  C_46
   16  A    between atoms: O_37  and  C_43
   17  A    between atoms: C_43  and  C_47
                            x       y       z     vdW  Elec       q    Type
                         _______ _______ _______ _____ _____    ______ ____

>  <TORSDO>
F 17

$$$$
=
 OpenBabel11042416443D

 48 52  0  0  1  0  0  0  0  0999 V2000
  191.2960  172.8970  141.2280 S   0  0  0  0  0  0  0  0  0  0  0  0
  194.1210  170.1850  141.0280 O   0  0  0  0  0  0  0  0  0  0  0  0
  192.0340  171.3160  140.8390 C   0  0  0  0  0  0  0  0  0  0  0  0
  192.5000  172.1990  143.6250 C   0  0  0  0  0  0  0  0  0  0  0  0
  191.1390  172.4470  142.9890 C   0  0  1  0  0  3  0  0  0  0  0  0
  191.4110  170.5290  139.9570 C   0  0  0  0  0  3  0  0  0  0  0  0
  194.9970  171.6790  144.8510 C   0  0  0  0  0  0  0  0  0  0  0  0
  192.7510  172.6040  144.9440 C   0  0  0  0  0  3  0  0  0  0  0  0
  193.9830  172.3470  145.5510 C   0  0  0  0  0  3  0  0  0  0  0  0
  193.4980  171.4670  142.9320 C   0  0  0  0  0  0  0  0  0  0  0  0
  194.7280  171.2140  143.5580 C   0  0  0  0  0  3  0  0  0  0  0  0
  193.2660  170.9410  141.5670 C   0  0  0  0  0  0  0  0  0  0  0  0
  192.2430  168.1660  139.2640 N   0  0  0  0  0  0  0  0  0  0  0  0
  191.8690  169.2170  139.5720 C   0  0  0  0  0  0  0  0  0  0  0  0
  190.2470  173.4580  143.7220 C   0  0  0  0  0  2  0  0  0  0  0  0
  190.0320  174.7370  142.9190 C   0  0  0  0  0  2  0  0  0  0  0  0
  188.5610  175.1110  142.9300 C   0  0  2  0  0  3  0  0  0  0  0  0
  187.8010  174.0760  142.1100 C   0  0  0  0  0  1  0  0  0  0  0  0
  189.6170  177.3590  142.5440 C   0  0  0  0  0  1  0  0  0  0  0  0
  188.3530  176.5280  142.3720 C   0  0  2  0  0  3  0  0  0  0  0  0
  187.2080  177.2350  143.0360 C   0  0  0  0  0  0  0  0  0  0  0  0
  184.2010  178.4500  146.3450 C   0  0  0  0  0  1  0  0  0  0  0  0
  186.3520  176.7740  147.4420 O   0  0  0  0  0  0  0  0  0  0  0  0
  185.9010  178.6010  144.4370 C   0  0  1  0  0  3  0  0  0  0  0  0
  185.1990  177.9890  143.3650 O   0  0  0  0  0  0  0  0  0  0  0  0
  185.4400  178.0570  145.6970 N   0  0  0  0  0  0  0  0  0  0  0  0
  187.3480  178.0810  144.2580 C   0  0  1  0  0  3  0  0  0  0  0  0
  186.4640  177.3010  146.3030 C   0  0  0  0  0  0  0  0  0  0  0  0
  186.0050  177.2130  142.5760 N   0  0  0  0  0  0  0  0  0  0  0  0
  187.6800  177.2100  145.4780 C   0  0  0  0  0  2  0  0  0  0  0  0
  196.3130  171.3350  145.5250 C   0  0  1  0  0  3  0  0  0  0  0  0
  195.7320  169.0740  146.3900 C   0  0  0  0  0  2  0  0  0  0  0  0
  196.5380  169.8480  145.6640 C   0  0  0  0  0  3  0  0  0  0  0  0
  197.5210  172.0230  144.8750 C   0  0  0  0  0  2  0  0  0  0  0  0
  197.4060  175.4930  142.8260 C   0  0  1  0  0  3  0  0  0  0  0  0
  197.4770  174.2400  143.6380 N   0  0  0  0  0  0  0  0  0  0  0  0
  197.2450  174.1300  145.9460 O   0  0  0  0  0  0  0  0  0  0  0  0
  197.6600  174.3120  142.1600 C   0  0  0  0  0  2  0  0  0  0  0  0
  197.3850  173.5130  144.8590 C   0  0  0  0  0  0  0  0  0  0  0  0
  195.9460  175.9080  142.7060 C   0  0  0  0  0  2  0  0  0  0  0  0
  195.5100  176.5290  143.8780 O   0  0  0  0  0  0  0  0  0  0  0  0
  194.2440  175.9970  144.1230 C   0  0  0  0  0  2  0  0  0  0  0  0
  194.3560  176.2540  146.5950 C   0  0  0  0  0  1  0  0  0  0  0  0
  193.6270  176.6800  145.3350 C   0  0  2  0  0  3  0  0  0  0  0  0
  192.1570  176.3160  145.4620 C   0  0  0  0  0  2  0  0  0  0  0  0
  191.9100  175.5100  146.7260 C   0  0  0  0  0  2  0  0  0  0  0  0
  189.6730  174.8450  147.3830 N   0  0  0  0  0  1  0  0  0  0  0  0
  190.6090  175.9540  147.3610 C   0  0  0  0  0  2  0  0  0  0  0  0
  1  5  1  0  0  0  0
  2 12  2  0  0  0  0
  3  1  1  0  0  0  0
  3 12  1  0  0  0  0
  4  8  1  0  0  0  0
  5  4  1  0  0  0  0
  5 15  1  1  0  0  0
  6  3  2  0  0  0  0
  7 31  1  0  0  0  0
  7  9  1  0  0  0  0
  8  9  2  0  0  0  0
 10 11  1  0  0  0  0
 10  4  2  0  0  0  0
 11  7  2  0  0  0  0
 12 10  1  0  0  0  0
 13 14  3  0  0  0  0
 14  6  1  0  0  0  0
 16 17  1  0  0  0  0
 16 15  1  0  0  0  0
 17 18  1  6  0  0  0
 20 19  1  1  0  0  0
 20 17  1  0  0  0  0
 20 21  1  0  0  0  0
 21 27  1  0  0  0  0
 24 25  1  6  0  0  0
 24 26  1  0  0  0  0
 26 28  1  0  0  0  0
 26 22  1  0  0  0  0
 27 24  1  0  0  0  0
 27 30  1  1  0  0  0
 28 23  2  0  0  0  0
 29 21  2  0  0  0  0
 29 25  1  0  0  0  0
 30 28  1  0  0  0  0
 31 34  1  6  0  0  0
 31 33  1  0  0  0  0
 33 32  2  0  0  0  0
 35 40  1  6  0  0  0
 35 36  1  0  0  0  0
 36 39  1  0  0  0  0
 38 35  1  0  0  0  0
 38 36  1  0  0  0  0
 39 34  1  0  0  0  0
 39 37  2  0  0  0  0
 40 41  1  0  0  0  0
 41 42  1  0  0  0  0
 42 44  1  0  0  0  0
 44 45  1  0  0  0  0
 44 43  1  1  0  0  0
 45 46  1  0  0  0  0
 46 48  1  0  0  0  0
 48 47  1  0  0  0  0
M  END
>  <MODEL>
3

>  <REMARK>
 VINA RESULT:      -6.6      2.117      9.226
  Name = 
  17 active torsions:
  status: ('A' for Active; 'I' for Inactive)
    1  A    between atoms: C_1  and  C_11
    2  A    between atoms: C_5  and  C_8
    3  A    between atoms: C_5  and  O_37
    4  A    between atoms: C_11  and  C_24
    5  A    between atoms: C_19  and  C_44
    6  A    between atoms: C_20  and  C_25
    7  A    between atoms: C_21  and  C_24
    8  A    between atoms: C_21  and  C_44
    9  A    between atoms: C_26  and  C_36
   10  A    between atoms: C_26  and  C_47
   11  A    between atoms: C_27  and  C_33
   12  A    between atoms: C_32  and  C_33
   13  A    between atoms: C_32  and  C_48
   14  A    between atoms: C_33  and  C_42
   15  A    between atoms: C_36  and  C_46
   16  A    between atoms: O_37  and  C_43
   17  A    between atoms: C_43  and  C_47
                            x       y       z     vdW  Elec       q    Type
                         _______ _______ _______ _____ _____    ______ ____

>  <TORSDO>
F 17

$$$$
=
 OpenBabel11042416443D

 48 52  0  0  1  0  0  0  0  0999 V2000
  189.8990  173.2920  139.9720 S   0  0  0  0  0  0  0  0  0  0  0  0
  192.2170  170.1300  139.9080 O   0  0  0  0  0  0  0  0  0  0  0  0
  190.3910  171.6220  139.5690 C   0  0  0  0  0  0  0  0  0  0  0  0
  190.6850  172.2970  142.4360 C   0  0  0  0  0  0  0  0  0  0  0  0
  189.4680  172.8080  141.6770 C   0  0  1  0  0  3  0  0  0  0  0  0
  189.7460  170.9940  138.5820 C   0  0  0  0  0  3  0  0  0  0  0  0
  192.9000  171.2910  143.8820 C   0  0  0  0  0  0  0  0  0  0  0  0
  190.8520  172.5980  143.7950 C   0  0  0  0  0  3  0  0  0  0  0  0
  191.9450  172.1010  144.5110 C   0  0  0  0  0  3  0  0  0  0  0  0
  191.6140  171.4260  141.8080 C   0  0  0  0  0  0  0  0  0  0  0  0
  192.7020  170.9330  142.5430 C   0  0  0  0  0  3  0  0  0  0  0  0
  191.4500  171.0050  140.3980 C   0  0  0  0  0  0  0  0  0  0  0  0
  190.2290  168.5490  137.8440 N   0  0  0  0  0  0  0  0  0  0  0  0
  190.0100  169.6380  138.1710 C   0  0  0  0  0  0  0  0  0  0  0  0
  188.6880  173.9320  142.3710 C   0  0  0  0  0  2  0  0  0  0  0  0
  189.0220  175.3100  141.8080 C   0  0  0  0  0  2  0  0  0  0  0  0
  187.7750  176.1750  141.7890 C   0  0  2  0  0  3  0  0  0  0  0  0
  187.3760  176.4040  140.3370 C   0  0  0  0  0  1  0  0  0  0  0  0
  189.4600  177.9650  142.3130 C   0  0  0  0  0  1  0  0  0  0  0  0
  188.0230  177.5070  142.5170 C   0  0  2  0  0  3  0  0  0  0  0  0
  187.7430  177.4080  143.9880 C   0  0  0  0  0  0  0  0  0  0  0  0
  185.5850  178.0410  148.0380 C   0  0  0  0  0  1  0  0  0  0  0  0
  183.9340  179.0030  145.8050 O   0  0  0  0  0  0  0  0  0  0  0  0
  186.7850  176.9130  146.0790 C   0  0  1  0  0  3  0  0  0  0  0  0
  188.0700  177.5140  146.1310 O   0  0  0  0  0  0  0  0  0  0  0  0
  185.7960  177.8230  146.6180 N   0  0  0  0  0  0  0  0  0  0  0  0
  186.4940  176.8260  144.5600 C   0  0  1  0  0  3  0  0  0  0  0  0
  184.9300  178.2590  145.5960 C   0  0  0  0  0  0  0  0  0  0  0  0
  188.5870  177.7740  144.8900 N   0  0  0  0  0  0  0  0  0  0  0  0
  185.2950  177.7390  144.2670 C   0  0  0  0  0  2  0  0  0  0  0  0
  194.0520  170.6920  144.6680 C   0  0  1  0  0  3  0  0  0  0  0  0
  194.4430  168.6760  146.0760 C   0  0  0  0  0  2  0  0  0  0  0  0
  193.8300  169.2440  145.0390 C   0  0  0  0  0  3  0  0  0  0  0  0
  195.4140  170.8900  143.9880 C   0  0  0  0  0  2  0  0  0  0  0  0
  196.4940  174.7720  143.8640 C   0  0  1  0  0  3  0  0  0  0  0  0
  196.1540  173.3180  143.9370 N   0  0  0  0  0  0  0  0  0  0  0  0
  196.8860  171.8570  145.5870 O   0  0  0  0  0  0  0  0  0  0  0  0
  195.7110  174.2460  142.8570 C   0  0  0  0  0  2  0  0  0  0  0  0
  196.1750  172.0400  144.5660 C   0  0  0  0  0  0  0  0  0  0  0  0
  195.6610  175.5140  144.9000 C   0  0  0  0  0  2  0  0  0  0  0  0
  195.1130  176.6770  144.3540 O   0  0  0  0  0  0  0  0  0  0  0  0
  194.1770  177.1140  145.2910 C   0  0  0  0  0  2  0  0  0  0  0  0
  192.0690  176.1540  144.3830 C   0  0  0  0  0  1  0  0  0  0  0  0
  193.1090  176.0480  145.4830 C   0  0  2  0  0  3  0  0  0  0  0  0
  192.4270  176.2120  146.8310 C   0  0  0  0  0  2  0  0  0  0  0  0
  191.7020  174.9370  147.2260 C   0  0  0  0  0  2  0  0  0  0  0  0
  189.4070  174.3960  146.6620 N   0  0  0  0  0  1  0  0  0  0  0  0
  190.2430  175.2470  147.4890 C   0  0  0  0  0  2  0  0  0  0  0  0
  1  5  1  0  0  0  0
  2 12  2  0  0  0  0
  3  1  1  0  0  0  0
  3 12  1  0  0  0  0
  4  8  1  0  0  0  0
  5 15  1  1  0  0  0
  5  4  1  0  0  0  0
  6  3  2  0  0  0  0
  7  9  1  0  0  0  0
  7 31  1  0  0  0  0
  8  9  2  0  0  0  0
 10  4  2  0  0  0  0
 10 11  1  0  0  0  0
 11  7  2  0  0  0  0
 12 10  1  0  0  0  0
 13 14  3  0  0  0  0
 14  6  1  0  0  0  0
 16 15  1  0  0  0  0
 17 18  1  6  0  0  0
 17 16  1  0  0  0  0
 17 20  1  0  0  0  0
 20 19  1  1  0  0  0
 20 21  1  0  0  0  0
 21 27  1  0  0  0  0
 21 29  2  0  0  0  0
 24 25  1  6  0  0  0
 24 26  1  0  0  0  0
 26 22  1  0  0  0  0
 27 30  1  1  0  0  0
 27 24  1  0  0  0  0
 28 23  2  0  0  0  0
 28 26  1  0  0  0  0
 29 25  1  0  0  0  0
 30 28  1  0  0  0  0
 31 34  1  6  0  0  0
 31 33  1  0  0  0  0
 33 32  2  0  0  0  0
 34 39  1  0  0  0  0
 35 36  1  0  0  0  0
 35 40  1  1  0  0  0
 36 39  1  0  0  0  0
 38 35  1  0  0  0  0
 38 36  1  0  0  0  0
 39 37  2  0  0  0  0
 41 40  1  0  0  0  0
 41 42  1  0  0  0  0
 42 44  1  0  0  0  0
 44 43  1  6  0  0  0
 44 45  1  0  0  0  0
 45 46  1  0  0  0  0
 46 48  1  0  0  0  0
 47 48  1  0  0  0  0
M  END
>  <MODEL>
4

>  <REMARK>
 VINA RESULT:      -6.6      2.090      8.720
  Name = 
  17 active torsions:
  status: ('A' for Active; 'I' for Inactive)
    1  A    between atoms: C_1  and  C_11
    2  A    between atoms: C_5  and  C_8
    3  A    between atoms: C_5  and  O_37
    4  A    between atoms: C_11  and  C_24
    5  A    between atoms: C_19  and  C_44
    6  A    between atoms: C_20  and  C_25
    7  A    between atoms: C_21  and  C_24
    8  A    between atoms: C_21  and  C_44
    9  A    between atoms: C_26  and  C_36
   10  A    between atoms: C_26  and  C_47
   11  A    between atoms: C_27  and  C_33
   12  A    between atoms: C_32  and  C_33
   13  A    between atoms: C_32  and  C_48
   14  A    between atoms: C_33  and  C_42
   15  A    between atoms: C_36  and  C_46
   16  A    between atoms: O_37  and  C_43
   17  A    between atoms: C_43  and  C_47
                            x       y       z     vdW  Elec       q    Type
                         _______ _______ _______ _____ _____    ______ ____

>  <TORSDO>
F 17

$$$$
=
 OpenBabel11042416443D

 48 52  0  0  1  0  0  0  0  0999 V2000
  191.5190  175.1780  147.6930 S   0  0  0  0  0  0  0  0  0  0  0  0
  194.4550  174.5030  145.1840 O   0  0  0  0  0  0  0  0  0  0  0  0
  192.8840  175.5810  146.6130 C   0  0  0  0  0  0  0  0  0  0  0  0
  190.8610  173.8130  145.3730 C   0  0  0  0  0  0  0  0  0  0  0  0
  190.3960  174.9490  146.2730 C   0  0  1  0  0  3  0  0  0  0  0  0
  193.4580  176.7810  146.7420 C   0  0  0  0  0  3  0  0  0  0  0  0
  191.7000  171.7420  143.6350 C   0  0  0  0  0  0  0  0  0  0  0  0
  189.9260  172.9580  144.7690 C   0  0  0  0  0  3  0  0  0  0  0  0
  190.3390  171.9360  143.9110 C   0  0  0  0  0  3  0  0  0  0  0  0
  192.2340  173.6620  145.0500 C   0  0  0  0  0  0  0  0  0  0  0  0
  192.6300  172.6340  144.1830 C   0  0  0  0  0  3  0  0  0  0  0  0
  193.2620  174.5820  145.5900 C   0  0  0  0  0  0  0  0  0  0  0  0
  195.4190  177.6360  145.2650 N   0  0  0  0  0  0  0  0  0  0  0  0
  194.5430  177.2560  145.9200 C   0  0  0  0  0  0  0  0  0  0  0  0
  188.9420  174.8550  146.7510 C   0  0  0  0  0  2  0  0  0  0  0  0
  188.2860  176.2240  146.9020 C   0  0  0  0  0  2  0  0  0  0  0  0
  188.1310  176.8740  145.5380 C   0  0  2  0  0  3  0  0  0  0  0  0
  189.2860  177.8480  145.3430 C   0  0  0  0  0  1  0  0  0  0  0  0
  185.6900  176.7820  146.1270 C   0  0  0  0  0  1  0  0  0  0  0  0
  186.7740  177.5850  145.4220 C   0  0  2  0  0  3  0  0  0  0  0  0
  186.3710  177.8050  143.9940 C   0  0  0  0  0  0  0  0  0  0  0  0
  186.3930  177.4110  139.3780 C   0  0  0  0  0  1  0  0  0  0  0  0
  188.1860  175.4360  140.6100 O   0  0  0  0  0  0  0  0  0  0  0  0
  185.5720  177.5140  141.8000 C   0  0  1  0  0  3  0  0  0  0  0  0
  185.8740  178.8550  142.1600 O   0  0  0  0  0  0  0  0  0  0  0  0
  186.4970  177.0600  140.7830 N   0  0  0  0  0  0  0  0  0  0  0  0
  185.9240  176.7150  143.0780 C   0  0  1  0  0  3  0  0  0  0  0  0
  187.3360  176.0550  141.3050 C   0  0  0  0  0  0  0  0  0  0  0  0
  186.3270  178.9700  143.4470 N   0  0  0  0  0  0  0  0  0  0  0  0
  187.1000  175.7890  142.7340 C   0  0  0  0  0  2  0  0  0  0  0  0
  192.1510  170.6780  142.6510 C   0  0  1  0  0  3  0  0  0  0  0  0
  193.0980  168.9750  144.2000 C   0  0  0  0  0  2  0  0  0  0  0  0
  193.2720  169.8160  143.1820 C   0  0  0  0  0  3  0  0  0  0  0  0
  190.9950  169.8230  142.1160 C   0  0  0  0  0  2  0  0  0  0  0  0
  189.8840  171.8220  138.7960 C   0  0  1  0  0  3  0  0  0  0  0  0
  190.2820  171.0220  139.9950 N   0  0  0  0  0  0  0  0  0  0  0  0
  191.2630  168.9180  139.9320 O   0  0  0  0  0  0  0  0  0  0  0  0
  189.6200  172.3580  140.0400 C   0  0  0  0  0  2  0  0  0  0  0  0
  190.8790  169.8940  140.6270 C   0  0  0  0  0  0  0  0  0  0  0  0
  191.1400  172.4190  138.1780 C   0  0  0  0  0  2  0  0  0  0  0  0
  191.3740  173.7040  138.6740 O   0  0  0  0  0  0  0  0  0  0  0  0
  192.7610  173.8120  138.7670 C   0  0  0  0  0  2  0  0  0  0  0  0
  192.4580  174.4280  141.1580 C   0  0  0  0  0  1  0  0  0  0  0  0
  193.2030  173.5240  140.1940 C   0  0  2  0  0  3  0  0  0  0  0  0
  194.6970  173.7560  140.3470 C   0  0  0  0  0  2  0  0  0  0  0  0
  195.0340  174.1760  141.7670 C   0  0  0  0  0  2  0  0  0  0  0  0
  195.9530  172.2720  142.9530 N   0  0  0  0  0  1  0  0  0  0  0  0
  196.2980  173.4730  142.2150 C   0  0  0  0  0  2  0  0  0  0  0  0
  2 12  2  0  0  0  0
  3  6  2  0  0  0  0
  3  1  1  0  0  0  0
  4  5  1  0  0  0  0
  5 15  1  1  0  0  0
  5  1  1  0  0  0  0
  7  9  2  0  0  0  0
  7 11  1  0  0  0  0
  8  4  2  0  0  0  0
  9  8  1  0  0  0  0
 10  4  1  0  0  0  0
 10 12  1  0  0  0  0
 11 10  2  0  0  0  0
 12  3  1  0  0  0  0
 13 14  3  0  0  0  0
 14  6  1  0  0  0  0
 15 16  1  0  0  0  0
 17 18  1  1  0  0  0
 17 16  1  0  0  0  0
 20 17  1  0  0  0  0
 20 19  1  6  0  0  0
 21 20  1  0  0  0  0
 22 26  1  0  0  0  0
 23 28  2  0  0  0  0
 24 25  1  1  0  0  0
 24 27  1  0  0  0  0
 25 29  1  0  0  0  0
 26 28  1  0  0  0  0
 26 24  1  0  0  0  0
 27 30  1  6  0  0  0
 27 21  1  0  0  0  0
 28 30  1  0  0  0  0
 29 21  2  0  0  0  0
 31 34  1  1  0  0  0
 31 33  1  0  0  0  0
 31  7  1  0  0  0  0
 33 32  2  0  0  0  0
 35 40  1  6  0  0  0
 35 36  1  0  0  0  0
 35 38  1  0  0  0  0
 36 38  1  0  0  0  0
 36 39  1  0  0  0  0
 37 39  2  0  0  0  0
 39 34  1  0  0  0  0
 40 41  1  0  0  0  0
 41 42  1  0  0  0  0
 42 44  1  0  0  0  0
 44 45  1  0  0  0  0
 44 43  1  1  0  0  0
 45 46  1  0  0  0  0
 46 48  1  0  0  0  0
 48 47  1  0  0  0  0
M  END
>  <MODEL>
5

>  <REMARK>
 VINA RESULT:      -6.4      2.574      9.357
  Name = 
  17 active torsions:
  status: ('A' for Active; 'I' for Inactive)
    1  A    between atoms: C_1  and  C_11
    2  A    between atoms: C_5  and  C_8
    3  A    between atoms: C_5  and  O_37
    4  A    between atoms: C_11  and  C_24
    5  A    between atoms: C_19  and  C_44
    6  A    between atoms: C_20  and  C_25
    7  A    between atoms: C_21  and  C_24
    8  A    between atoms: C_21  and  C_44
    9  A    between atoms: C_26  and  C_36
   10  A    between atoms: C_26  and  C_47
   11  A    between atoms: C_27  and  C_33
   12  A    between atoms: C_32  and  C_33
   13  A    between atoms: C_32  and  C_48
   14  A    between atoms: C_33  and  C_42
   15  A    between atoms: C_36  and  C_46
   16  A    between atoms: O_37  and  C_43
   17  A    between atoms: C_43  and  C_47
                            x       y       z     vdW  Elec       q    Type
                         _______ _______ _______ _____ _____    ______ ____

>  <TORSDO>
F 17

$$$$
=
 OpenBabel11042416443D

 48 52  0  0  1  0  0  0  0  0999 V2000
  189.4240  173.3430  139.5600 S   0  0  0  0  0  0  0  0  0  0  0  0
  192.4270  170.8230  139.6460 O   0  0  0  0  0  0  0  0  0  0  0  0
  190.2680  171.7820  139.3440 C   0  0  0  0  0  0  0  0  0  0  0  0
  190.6670  172.9980  142.0130 C   0  0  0  0  0  0  0  0  0  0  0  0
  189.2940  173.0810  141.3610 C   0  0  1  0  0  3  0  0  0  0  0  0
  189.7020  170.8620  138.5580 C   0  0  0  0  0  3  0  0  0  0  0  0
  193.1910  172.7860  143.2750 C   0  0  0  0  0  0  0  0  0  0  0  0
  190.8880  173.5620  143.2780 C   0  0  0  0  0  3  0  0  0  0  0  0
  192.1330  173.4580  143.9030 C   0  0  0  0  0  3  0  0  0  0  0  0
  191.7140  172.2620  141.3990 C   0  0  0  0  0  0  0  0  0  0  0  0
  192.9570  172.1640  142.0430 C   0  0  0  0  0  3  0  0  0  0  0  0
  191.5210  171.5740  140.1030 C   0  0  0  0  0  0  0  0  0  0  0  0
  190.6810  168.4940  138.1210 N   0  0  0  0  0  0  0  0  0  0  0  0
  190.2480  169.5500  138.3190 C   0  0  0  0  0  0  0  0  0  0  0  0
  188.3340  174.1040  141.9820 C   0  0  0  0  0  2  0  0  0  0  0  0
  188.6950  175.5410  141.6170 C   0  0  0  0  0  2  0  0  0  0  0  0
  187.4410  176.3960  141.5870 C   0  0  2  0  0  3  0  0  0  0  0  0
  187.0760  176.6540  140.1310 C   0  0  0  0  0  1  0  0  0  0  0  0
  189.0220  178.3010  142.0200 C   0  0  0  0  0  1  0  0  0  0  0  0
  187.6580  177.7120  142.3510 C   0  0  2  0  0  3  0  0  0  0  0  0
  187.5500  177.5290  143.8360 C   0  0  0  0  0  0  0  0  0  0  0  0
  185.8690  177.9090  148.1360 C   0  0  0  0  0  1  0  0  0  0  0  0
  183.9650  178.9710  146.1650 O   0  0  0  0  0  0  0  0  0  0  0  0
  186.8420  176.9070  145.9920 C   0  0  1  0  0  3  0  0  0  0  0  0
  188.1210  177.5210  145.9300 O   0  0  0  0  0  0  0  0  0  0  0  0
  185.9170  177.7730  146.6910 N   0  0  0  0  0  0  0  0  0  0  0  0
  186.3800  176.9000  144.5140 C   0  0  1  0  0  3  0  0  0  0  0  0
  184.9350  178.2530  145.8010 C   0  0  0  0  0  0  0  0  0  0  0  0
  188.4890  177.8560  144.6550 N   0  0  0  0  0  0  0  0  0  0  0  0
  185.1480  177.8110  144.4130 C   0  0  0  0  0  2  0  0  0  0  0  0
  194.5260  172.6090  143.9760 C   0  0  1  0  0  3  0  0  0  0  0  0
  194.5820  170.7890  145.6740 C   0  0  0  0  0  2  0  0  0  0  0  0
  194.3920  172.0760  145.3830 C   0  0  0  0  0  3  0  0  0  0  0  0
  195.5300  171.7830  143.1600 C   0  0  0  0  0  2  0  0  0  0  0  0
  197.9400  173.9540  140.7670 C   0  0  1  0  0  3  0  0  0  0  0  0
  197.1020  173.1220  141.6830 N   0  0  0  0  0  0  0  0  0  0  0  0
  197.6770  172.5360  143.8560 O   0  0  0  0  0  0  0  0  0  0  0  0
  196.7450  173.4680  140.2780 C   0  0  0  0  0  2  0  0  0  0  0  0
  196.8170  172.5130  142.9390 C   0  0  0  0  0  0  0  0  0  0  0  0
  197.8250  175.4100  141.1970 C   0  0  0  0  0  2  0  0  0  0  0  0
  196.7090  176.0120  140.6130 O   0  0  0  0  0  0  0  0  0  0  0  0
  196.1410  176.7870  141.6240 C   0  0  0  0  0  2  0  0  0  0  0  0
  193.7450  176.3550  142.1350 C   0  0  0  0  0  1  0  0  0  0  0  0
  195.1730  175.9400  142.4360 C   0  0  2  0  0  3  0  0  0  0  0  0
  195.4370  176.1050  143.9230 C   0  0  0  0  0  2  0  0  0  0  0  0
  194.1500  176.4190  144.6660 C   0  0  0  0  0  2  0  0  0  0  0  0
  193.0870  176.2870  146.8410 N   0  0  0  0  0  1  0  0  0  0  0  0
  194.2010  175.8010  146.0480 C   0  0  0  0  0  2  0  0  0  0  0  0
  1  5  1  0  0  0  0
  2 12  2  0  0  0  0
  3  1  1  0  0  0  0
  3 12  1  0  0  0  0
  4  8  1  0  0  0  0
  5 15  1  1  0  0  0
  5  4  1  0  0  0  0
  6  3  2  0  0  0  0
  7  9  1  0  0  0  0
  7 31  1  0  0  0  0
  8  9  2  0  0  0  0
 10  4  2  0  0  0  0
 10 11  1  0  0  0  0
 11  7  2  0  0  0  0
 12 10  1  0  0  0  0
 13 14  3  0  0  0  0
 14  6  1  0  0  0  0
 16 15  1  0  0  0  0
 17 18  1  6  0  0  0
 17 16  1  0  0  0  0
 17 20  1  0  0  0  0
 20 19  1  1  0  0  0
 20 21  1  0  0  0  0
 21 27  1  0  0  0  0
 21 29  2  0  0  0  0
 24 25  1  6  0  0  0
 24 26  1  0  0  0  0
 26 22  1  0  0  0  0
 27 30  1  1  0  0  0
 27 24  1  0  0  0  0
 28 23  2  0  0  0  0
 28 26  1  0  0  0  0
 29 25  1  0  0  0  0
 30 28  1  0  0  0  0
 31 34  1  6  0  0  0
 31 33  1  0  0  0  0
 33 32  2  0  0  0  0
 35 40  1  1  0  0  0
 35 36  1  0  0  0  0
 36 39  1  0  0  0  0
 38 35  1  0  0  0  0
 38 36  1  0  0  0  0
 39 34  1  0  0  0  0
 39 37  2  0  0  0  0
 41 40  1  0  0  0  0
 41 42  1  0  0  0  0
 42 44  1  0  0  0  0
 44 43  1  1  0  0  0
 44 45  1  0  0  0  0
 45 46  1  0  0  0  0
 46 48  1  0  0  0  0
 48 47  1  0  0  0  0
M  END
>  <MODEL>
6

>  <REMARK>
 VINA RESULT:      -6.3      2.321      9.181
  Name = 
  17 active torsions:
  status: ('A' for Active; 'I' for Inactive)
    1  A    between atoms: C_1  and  C_11
    2  A    between atoms: C_5  and  C_8
    3  A    between atoms: C_5  and  O_37
    4  A    between atoms: C_11  and  C_24
    5  A    between atoms: C_19  and  C_44
    6  A    between atoms: C_20  and  C_25
    7  A    between atoms: C_21  and  C_24
    8  A    between atoms: C_21  and  C_44
    9  A    between atoms: C_26  and  C_36
   10  A    between atoms: C_26  and  C_47
   11  A    between atoms: C_27  and  C_33
   12  A    between atoms: C_32  and  C_33
   13  A    between atoms: C_32  and  C_48
   14  A    between atoms: C_33  and  C_42
   15  A    between atoms: C_36  and  C_46
   16  A    between atoms: O_37  and  C_43
   17  A    between atoms: C_43  and  C_47
                            x       y       z     vdW  Elec       q    Type
                         _______ _______ _______ _____ _____    ______ ____

>  <TORSDO>
F 17

$$$$
=
 OpenBabel11042416443D

 48 52  0  0  1  0  0  0  0  0999 V2000
  187.1880  178.3120  143.9970 S   0  0  0  0  0  0  0  0  0  0  0  0
  186.4580  177.1740  140.3170 O   0  0  0  0  0  0  0  0  0  0  0  0
  186.2000  177.9650  142.5480 C   0  0  0  0  0  0  0  0  0  0  0  0
  188.0130  175.7550  143.3160 C   0  0  0  0  0  0  0  0  0  0  0  0
  187.2970  176.5380  144.4090 C   0  0  1  0  0  3  0  0  0  0  0  0
  184.9760  178.4940  142.4780 C   0  0  0  0  0  3  0  0  0  0  0  0
  189.2920  174.2380  141.2980 C   0  0  0  0  0  0  0  0  0  0  0  0
  188.8770  174.7010  143.6480 C   0  0  0  0  0  3  0  0  0  0  0  0
  189.5080  173.9510  142.6530 C   0  0  0  0  0  3  0  0  0  0  0  0
  187.7400  176.0120  141.9480 C   0  0  0  0  0  0  0  0  0  0  0  0
  188.3790  175.2460  140.9620 C   0  0  0  0  0  3  0  0  0  0  0  0
  186.7770  177.0570  141.5330 C   0  0  0  0  0  0  0  0  0  0  0  0
  183.3230  178.0990  140.5100 N   0  0  0  0  0  0  0  0  0  0  0  0
  184.0560  178.2740  141.3890 C   0  0  0  0  0  0  0  0  0  0  0  0
  187.8590  176.3510  145.8240 C   0  0  0  0  0  2  0  0  0  0  0  0
  188.9990  177.3170  146.1330 C   0  0  0  0  0  2  0  0  0  0  0  0
  190.3120  176.5580  146.2020 C   0  0  2  0  0  3  0  0  0  0  0  0
  190.8050  176.5920  147.6440 C   0  0  0  0  0  1  0  0  0  0  0  0
  190.6770  178.1400  144.2840 C   0  0  0  0  0  1  0  0  0  0  0  0
  191.3470  177.1670  145.2430 C   0  0  2  0  0  3  0  0  0  0  0  0
  192.0700  176.1180  144.4500 C   0  0  0  0  0  0  0  0  0  0  0  0
  195.4710  173.2590  143.1370 C   0  0  0  0  0  1  0  0  0  0  0  0
  196.0980  174.5250  145.7140 O   0  0  0  0  0  0  0  0  0  0  0  0
  193.1550  174.1430  143.7750 C   0  0  1  0  0  3  0  0  0  0  0  0
  192.8960  175.0740  142.7350 O   0  0  0  0  0  0  0  0  0  0  0  0
  194.5830  174.0310  143.9870 N   0  0  0  0  0  0  0  0  0  0  0  0
  192.5950  174.8480  145.0330 C   0  0  1  0  0  3  0  0  0  0  0  0
  194.9280  174.5610  145.2470 C   0  0  0  0  0  0  0  0  0  0  0  0
  192.2570  176.2010  143.1790 N   0  0  0  0  0  0  0  0  0  0  0  0
  193.7790  175.1360  145.9670 C   0  0  0  0  0  2  0  0  0  0  0  0
  189.9200  173.3860  140.2110 C   0  0  1  0  0  3  0  0  0  0  0  0
  192.2560  172.5610  140.4570 C   0  0  0  0  0  2  0  0  0  0  0  0
  190.9600  172.4250  140.7360 C   0  0  0  0  0  3  0  0  0  0  0  0
  188.8850  172.6630  139.3380 C   0  0  0  0  0  2  0  0  0  0  0  0
  191.1860  172.6030  136.0290 C   0  0  1  0  0  3  0  0  0  0  0  0
  190.2970  172.5740  137.2300 N   0  0  0  0  0  0  0  0  0  0  0  0
  189.3120  170.6670  138.1170 O   0  0  0  0  0  0  0  0  0  0  0  0
  190.8990  173.8060  136.6430 C   0  0  0  0  0  2  0  0  0  0  0  0
  189.5190  171.9040  138.2170 C   0  0  0  0  0  0  0  0  0  0  0  0
  192.5560  172.0760  136.4320 C   0  0  0  0  0  2  0  0  0  0  0  0
  193.5530  173.0090  136.1360 O   0  0  0  0  0  0  0  0  0  0  0  0
  194.4350  172.9560  137.2160 C   0  0  0  0  0  2  0  0  0  0  0  0
  195.2660  175.2850  136.9470 C   0  0  0  0  0  1  0  0  0  0  0  0
  194.5310  174.3280  137.8660 C   0  0  2  0  0  3  0  0  0  0  0  0
  195.2720  174.2400  139.1900 C   0  0  0  0  0  2  0  0  0  0  0  0
  195.0160  175.4770  140.0330 C   0  0  0  0  0  2  0  0  0  0  0  0
  196.0650  176.6430  141.8820 N   0  0  0  0  0  1  0  0  0  0  0  0
  196.3220  175.9640  140.6250 C   0  0  0  0  0  2  0  0  0  0  0  0
  1  5  1  0  0  0  0
  2 12  2  0  0  0  0
  3  1  1  0  0  0  0
  4  8  1  0  0  0  0
  4  5  1  0  0  0  0
  5 15  1  1  0  0  0
  6  3  2  0  0  0  0
  7  9  1  0  0  0  0
  9  8  2  0  0  0  0
 10  4  2  0  0  0  0
 11  7  2  0  0  0  0
 11 10  1  0  0  0  0
 12 10  1  0  0  0  0
 12  3  1  0  0  0  0
 13 14  3  0  0  0  0
 14  6  1  0  0  0  0
 15 16  1  0  0  0  0
 16 17  1  0  0  0  0
 17 18  1  1  0  0  0
 20 19  1  6  0  0  0
 20 17  1  0  0  0  0
 21 27  1  0  0  0  0
 21 20  1  0  0  0  0
 22 26  1  0  0  0  0
 24 25  1  6  0  0  0
 24 26  1  0  0  0  0
 24 27  1  0  0  0  0
 25 29  1  0  0  0  0
 26 28  1  0  0  0  0
 27 30  1  1  0  0  0
 28 23  2  0  0  0  0
 28 30  1  0  0  0  0
 29 21  2  0  0  0  0
 31 34  1  1  0  0  0
 31 33  1  0  0  0  0
 31  7  1  0  0  0  0
 32 33  2  0  0  0  0
 35 40  1  1  0  0  0
 35 38  1  0  0  0  0
 35 36  1  0  0  0  0
 36 39  1  0  0  0  0
 37 39  2  0  0  0  0
 38 36  1  0  0  0  0
 39 34  1  0  0  0  0
 41 40  1  0  0  0  0
 41 42  1  0  0  0  0
 42 44  1  0  0  0  0
 44 43  1  6  0  0  0
 44 45  1  0  0  0  0
 45 46  1  0  0  0  0
 46 48  1  0  0  0  0
 48 47  1  0  0  0  0
M  END
>  <MODEL>
7

>  <REMARK>
 VINA RESULT:      -6.2      3.057      7.779
  Name = 
  17 active torsions:
  status: ('A' for Active; 'I' for Inactive)
    1  A    between atoms: C_1  and  C_11
    2  A    between atoms: C_5  and  C_8
    3  A    between atoms: C_5  and  O_37
    4  A    between atoms: C_11  and  C_24
    5  A    between atoms: C_19  and  C_44
    6  A    between atoms: C_20  and  C_25
    7  A    between atoms: C_21  and  C_24
    8  A    between atoms: C_21  and  C_44
    9  A    between atoms: C_26  and  C_36
   10  A    between atoms: C_26  and  C_47
   11  A    between atoms: C_27  and  C_33
   12  A    between atoms: C_32  and  C_33
   13  A    between atoms: C_32  and  C_48
   14  A    between atoms: C_33  and  C_42
   15  A    between atoms: C_36  and  C_46
   16  A    between atoms: O_37  and  C_43
   17  A    between atoms: C_43  and  C_47
                            x       y       z     vdW  Elec       q    Type
                         _______ _______ _______ _____ _____    ______ ____

>  <TORSDO>
F 17

$$$$
=
 OpenBabel11042416443D

 48 52  0  0  1  0  0  0  0  0999 V2000
  193.1320  174.7970  146.0570 S   0  0  0  0  0  0  0  0  0  0  0  0
  194.7150  174.6170  142.4750 O   0  0  0  0  0  0  0  0  0  0  0  0
  194.1790  175.2900  144.6950 C   0  0  0  0  0  0  0  0  0  0  0  0
  191.3580  174.8280  143.9290 C   0  0  0  0  0  0  0  0  0  0  0  0
  191.6600  175.5150  145.2530 C   0  0  1  0  0  3  0  0  0  0  0  0
  195.1940  176.1200  144.9490 C   0  0  0  0  0  3  0  0  0  0  0  0
  190.7720  173.6230  141.4350 C   0  0  0  0  0  0  0  0  0  0  0  0
  190.0310  174.5970  143.5360 C   0  0  0  0  0  3  0  0  0  0  0  0
  189.7400  174.0020  142.3050 C   0  0  0  0  0  3  0  0  0  0  0  0
  192.4050  174.5040  143.0270 C   0  0  0  0  0  0  0  0  0  0  0  0
  192.0950  173.9130  141.7940 C   0  0  0  0  0  3  0  0  0  0  0  0
  193.8200  174.7970  143.3470 C   0  0  0  0  0  0  0  0  0  0  0  0
  196.8190  177.0350  143.1380 N   0  0  0  0  0  0  0  0  0  0  0  0
  196.0980  176.6290  143.9470 C   0  0  0  0  0  0  0  0  0  0  0  0
  190.4880  175.5790  146.2410 C   0  0  0  0  0  2  0  0  0  0  0  0
  190.0440  177.0100  146.5290 C   0  0  0  0  0  2  0  0  0  0  0  0
  188.6490  177.2370  145.9720 C   0  0  2  0  0  3  0  0  0  0  0  0
  187.7450  176.1240  146.4850 C   0  0  0  0  0  1  0  0  0  0  0  0
  189.6940  178.2910  143.9430 C   0  0  0  0  0  1  0  0  0  0  0  0
  188.6740  177.2740  144.4360 C   0  0  2  0  0  3  0  0  0  0  0  0
  187.3310  177.6090  143.8560 C   0  0  0  0  0  0  0  0  0  0  0  0
  184.0890  178.5020  140.6690 C   0  0  0  0  0  1  0  0  0  0  0  0
  186.5650  177.5410  139.4100 O   0  0  0  0  0  0  0  0  0  0  0  0
  185.2760  177.5200  142.7130 C   0  0  1  0  0  3  0  0  0  0  0  0
  185.4650  178.6680  143.5270 O   0  0  0  0  0  0  0  0  0  0  0  0
  185.2440  177.9090  141.3190 N   0  0  0  0  0  0  0  0  0  0  0  0
  186.5940  176.7300  142.9010 C   0  0  1  0  0  3  0  0  0  0  0  0
  186.3800  177.4080  140.6500 C   0  0  0  0  0  0  0  0  0  0  0  0
  186.6700  178.6670  144.1760 N   0  0  0  0  0  0  0  0  0  0  0  0
  187.3100  176.6970  141.5430 C   0  0  0  0  0  2  0  0  0  0  0  0
  190.4640  173.0400  140.0680 C   0  0  1  0  0  3  0  0  0  0  0  0
  191.5570  172.7390  137.8520 C   0  0  0  0  0  2  0  0  0  0  0  0
  191.5280  173.3420  139.0400 C   0  0  0  0  0  3  0  0  0  0  0  0
  190.1410  171.5400  140.1120 C   0  0  0  0  0  2  0  0  0  0  0  0
  193.6280  169.8400  141.2100 C   0  0  1  0  0  3  0  0  0  0  0  0
  192.3020  170.4240  140.8410 N   0  0  0  0  0  0  0  0  0  0  0  0
  190.4400  170.4920  142.2270 O   0  0  0  0  0  0  0  0  0  0  0  0
  193.4850  170.3510  139.9360 C   0  0  0  0  0  2  0  0  0  0  0  0
  190.9620  170.8120  141.1280 C   0  0  0  0  0  0  0  0  0  0  0  0
  194.3430  170.8150  142.1340 C   0  0  0  0  0  2  0  0  0  0  0  0
  194.3560  170.3350  143.4460 O   0  0  0  0  0  0  0  0  0  0  0  0
  195.7050  170.1720  143.7620 C   0  0  0  0  0  2  0  0  0  0  0  0
  194.5760  170.4400  145.9620 C   0  0  0  0  0  1  0  0  0  0  0  0
  195.8660  170.0440  145.2690 C   0  0  2  0  0  3  0  0  0  0  0  0
  196.9920  170.9380  145.7630 C   0  0  0  0  0  2  0  0  0  0  0  0
  197.5680  171.7570  144.6210 C   0  0  0  0  0  2  0  0  0  0  0  0
  197.1910  173.4160  146.3480 N   0  0  0  0  0  1  0  0  0  0  0  0
  197.4020  173.2320  144.9240 C   0  0  0  0  0  2  0  0  0  0  0  0
  2 12  2  0  0  0  0
  3  6  2  0  0  0  0
  3  1  1  0  0  0  0
  4  5  1  0  0  0  0
  5  1  1  0  0  0  0
  5 15  1  1  0  0  0
  7 11  2  0  0  0  0
  7  9  1  0  0  0  0
  8  4  1  0  0  0  0
  9  8  2  0  0  0  0
 10 12  1  0  0  0  0
 10  4  2  0  0  0  0
 11 10  1  0  0  0  0
 12  3  1  0  0  0  0
 13 14  3  0  0  0  0
 14  6  1  0  0  0  0
 15 16  1  0  0  0  0
 17 18  1  6  0  0  0
 17 16  1  0  0  0  0
 20 19  1  1  0  0  0
 20 17  1  0  0  0  0
 21 29  2  0  0  0  0
 21 20  1  0  0  0  0
 22 26  1  0  0  0  0
 23 28  2  0  0  0  0
 24 27  1  0  0  0  0
 24 25  1  1  0  0  0
 25 29  1  0  0  0  0
 26 24  1  0  0  0  0
 27 30  1  6  0  0  0
 27 21  1  0  0  0  0
 28 26  1  0  0  0  0
 28 30  1  0  0  0  0
 31 33  1  6  0  0  0
 31 34  1  0  0  0  0
 31  7  1  0  0  0  0
 32 33  2  0  0  0  0
 34 39  1  0  0  0  0
 35 40  1  1  0  0  0
 36 39  1  0  0  0  0
 36 35  1  0  0  0  0
 38 36  1  0  0  0  0
 38 35  1  0  0  0  0
 39 37  2  0  0  0  0
 40 41  1  0  0  0  0
 41 42  1  0  0  0  0
 42 44  1  0  0  0  0
 44 45  1  0  0  0  0
 44 43  1  1  0  0  0
 46 48  1  0  0  0  0
 46 45  1  0  0  0  0
 48 47  1  0  0  0  0
M  END
>  <MODEL>
8

>  <REMARK>
 VINA RESULT:      -6.2      2.325      9.215
  Name = 
  17 active torsions:
  status: ('A' for Active; 'I' for Inactive)
    1  A    between atoms: C_1  and  C_11
    2  A    between atoms: C_5  and  C_8
    3  A    between atoms: C_5  and  O_37
    4  A    between atoms: C_11  and  C_24
    5  A    between atoms: C_19  and  C_44
    6  A    between atoms: C_20  and  C_25
    7  A    between atoms: C_21  and  C_24
    8  A    between atoms: C_21  and  C_44
    9  A    between atoms: C_26  and  C_36
   10  A    between atoms: C_26  and  C_47
   11  A    between atoms: C_27  and  C_33
   12  A    between atoms: C_32  and  C_33
   13  A    between atoms: C_32  and  C_48
   14  A    between atoms: C_33  and  C_42
   15  A    between atoms: C_36  and  C_46
   16  A    between atoms: O_37  and  C_43
   17  A    between atoms: C_43  and  C_47
                            x       y       z     vdW  Elec       q    Type
                         _______ _______ _______ _____ _____    ______ ____

>  <TORSDO>
F 17

$$$$
=
 OpenBabel11042416443D

 48 52  0  0  1  0  0  0  0  0999 V2000
  189.6700  174.8180  145.1140 S   0  0  0  0  0  0  0  0  0  0  0  0
  193.0790  175.4160  146.9570 O   0  0  0  0  0  0  0  0  0  0  0  0
  190.8070  175.5810  146.2630 C   0  0  0  0  0  0  0  0  0  0  0  0
  191.8550  175.3750  143.5030 C   0  0  0  0  0  0  0  0  0  0  0  0
  190.3910  175.7360  143.7120 C   0  0  1  0  0  3  0  0  0  0  0  0
  190.3000  176.3070  147.2640 C   0  0  0  0  0  3  0  0  0  0  0  0
  194.5920  174.7810  143.0940 C   0  0  0  0  0  0  0  0  0  0  0  0
  192.3830  175.2720  142.2070 C   0  0  0  0  0  3  0  0  0  0  0  0
  193.7340  174.9800  142.0040 C   0  0  0  0  0  3  0  0  0  0  0  0
  192.7310  175.2380  144.6110 C   0  0  0  0  0  0  0  0  0  0  0  0
  194.0850  174.9490  144.3890 C   0  0  0  0  0  3  0  0  0  0  0  0
  192.2540  175.4160  146.0020 C   0  0  0  0  0  0  0  0  0  0  0  0
  191.7240  177.5700  149.0340 N   0  0  0  0  0  0  0  0  0  0  0  0
  191.0930  177.0070  148.2430 C   0  0  0  0  0  0  0  0  0  0  0  0
  189.4990  175.6040  142.4710 C   0  0  0  0  0  2  0  0  0  0  0  0
  188.0890  175.1330  142.8120 C   0  0  0  0  0  2  0  0  0  0  0  0
  187.0720  175.9380  142.0230 C   0  0  2  0  0  3  0  0  0  0  0  0
  187.8200  176.9990  141.2260 C   0  0  0  0  0  1  0  0  0  0  0  0
  185.2960  177.7020  142.2520 C   0  0  0  0  0  1  0  0  0  0  0  0
  186.0320  176.5730  142.9600 C   0  0  2  0  0  3  0  0  0  0  0  0
  186.6540  177.1060  144.2170 C   0  0  0  0  0  0  0  0  0  0  0  0
  186.9650  179.1120  148.3810 C   0  0  0  0  0  1  0  0  0  0  0  0
  184.1590  178.6380  147.6500 O   0  0  0  0  0  0  0  0  0  0  0  0
  187.2800  177.4530  146.4580 C   0  0  1  0  0  3  0  0  0  0  0  0
  187.9890  178.2330  145.5060 O   0  0  0  0  0  0  0  0  0  0  0  0
  186.4570  178.3140  147.2800 N   0  0  0  0  0  0  0  0  0  0  0  0
  186.2970  176.6340  145.5870 C   0  0  1  0  0  3  0  0  0  0  0  0
  185.0920  178.0730  147.0190 C   0  0  0  0  0  0  0  0  0  0  0  0
  187.5930  177.9880  144.2180 N   0  0  0  0  0  0  0  0  0  0  0  0
  184.8740  177.0810  145.9540 C   0  0  0  0  0  2  0  0  0  0  0  0
  196.0740  174.5310  142.8830 C   0  0  1  0  0  3  0  0  0  0  0  0
  196.9430  176.8560  143.0910 C   0  0  0  0  0  2  0  0  0  0  0  0
  196.8140  175.7440  142.3680 C   0  0  0  0  0  3  0  0  0  0  0  0
  196.7670  173.9390  144.1180 C   0  0  0  0  0  2  0  0  0  0  0  0
  195.0700  170.4460  145.1990 C   0  0  1  0  0  3  0  0  0  0  0  0
  195.7600  171.7110  144.8010 N   0  0  0  0  0  0  0  0  0  0  0  0
  197.6960  171.8310  143.5240 O   0  0  0  0  0  0  0  0  0  0  0  0
  194.5370  171.6360  145.6510 C   0  0  0  0  0  2  0  0  0  0  0  0
  196.7650  172.4440  144.1070 C   0  0  0  0  0  0  0  0  0  0  0  0
  194.3140  169.9090  143.9920 C   0  0  0  0  0  2  0  0  0  0  0  0
  192.9460  169.8240  144.2620 O   0  0  0  0  0  0  0  0  0  0  0  0
  192.3220  169.9370  143.0200 C   0  0  0  0  0  2  0  0  0  0  0  0
  190.5930  171.7010  143.3160 C   0  0  0  0  0  1  0  0  0  0  0  0
  191.9690  171.3930  142.7550 C   0  0  2  0  0  3  0  0  0  0  0  0
  191.9750  171.6810  141.2630 C   0  0  0  0  0  2  0  0  0  0  0  0
  190.7710  172.5210  140.8720 C   0  0  0  0  0  2  0  0  0  0  0  0
  191.9830  173.4690  138.9990 N   0  0  0  0  0  1  0  0  0  0  0  0
  190.7800  172.7490  139.3750 C   0  0  0  0  0  2  0  0  0  0  0  0
  1  3  1  0  0  0  0
  3  6  2  0  0  0  0
  4  5  1  0  0  0  0
  4 10  1  0  0  0  0
  5 15  1  6  0  0  0
  5  1  1  0  0  0  0
  6 14  1  0  0  0  0
  7 11  1  0  0  0  0
  8  4  2  0  0  0  0
  9  8  1  0  0  0  0
  9  7  2  0  0  0  0
 10 12  1  0  0  0  0
 11 10  2  0  0  0  0
 12  3  1  0  0  0  0
 12  2  2  0  0  0  0
 14 13  3  0  0  0  0
 15 16  1  0  0  0  0
 17 18  1  1  0  0  0
 17 16  1  0  0  0  0
 17 20  1  0  0  0  0
 20 19  1  6  0  0  0
 20 21  1  0  0  0  0
 21 29  2  0  0  0  0
 21 27  1  0  0  0  0
 24 25  1  6  0  0  0
 24 26  1  0  0  0  0
 26 22  1  0  0  0  0
 27 30  1  1  0  0  0
 27 24  1  0  0  0  0
 28 26  1  0  0  0  0
 28 23  2  0  0  0  0
 29 25  1  0  0  0  0
 30 28  1  0  0  0  0
 31 33  1  1  0  0  0
 31  7  1  0  0  0  0
 31 34  1  0  0  0  0
 33 32  2  0  0  0  0
 35 40  1  6  0  0  0
 35 38  1  0  0  0  0
 36 35  1  0  0  0  0
 36 38  1  0  0  0  0
 37 39  2  0  0  0  0
 39 34  1  0  0  0  0
 39 36  1  0  0  0  0
 40 41  1  0  0  0  0
 42 41  1  0  0  0  0
 44 42  1  0  0  0  0
 44 43  1  6  0  0  0
 45 44  1  0  0  0  0
 46 45  1  0  0  0  0
 47 48  1  0  0  0  0
 48 46  1  0  0  0  0
M  END
>  <MODEL>
9

>  <REMARK>
 VINA RESULT:      -6.2      1.996      9.714
  Name = 
  17 active torsions:
  status: ('A' for Active; 'I' for Inactive)
    1  A    between atoms: C_1  and  C_11
    2  A    between atoms: C_5  and  C_8
    3  A    between atoms: C_5  and  O_37
    4  A    between atoms: C_11  and  C_24
    5  A    between atoms: C_19  and  C_44
    6  A    between atoms: C_20  and  C_25
    7  A    between atoms: C_21  and  C_24
    8  A    between atoms: C_21  and  C_44
    9  A    between atoms: C_26  and  C_36
   10  A    between atoms: C_26  and  C_47
   11  A    between atoms: C_27  and  C_33
   12  A    between atoms: C_32  and  C_33
   13  A    between atoms: C_32  and  C_48
   14  A    between atoms: C_33  and  C_42
   15  A    between atoms: C_36  and  C_46
   16  A    between atoms: O_37  and  C_43
   17  A    between atoms: C_43  and  C_47
                            x       y       z     vdW  Elec       q    Type
                         _______ _______ _______ _____ _____    ______ ____

>  <TORSDO>
F 17

$$$$
