=
 OpenBabel11042416193D

 66 68  0  0  1  0  0  0  0  0999 V2000
  188.1470  176.4670  142.2240 C   0  0  1  0  0  3  0  0  0  0  0  0
  188.9830  178.4370  141.6300 C   0  0  0  0  0  1  0  0  0  0  0  0
  188.0020  177.5040  141.2930 O   0  0  0  0  0  0  0  0  0  0  0  0
  187.1600  176.6530  143.3790 C   0  0  2  0  0  3  0  0  0  0  0  0
  185.8940  176.1680  143.0310 O   0  0  0  0  0  0  0  0  0  0  0  0
  185.1660  177.2800  142.6140 C   0  0  0  0  0  1  0  0  0  0  0  0
  187.0550  178.0150  143.6780 O   0  0  0  0  0  0  0  0  0  0  0  0
  186.2270  178.6060  145.8340 C   0  0  0  0  0  1  0  0  0  0  0  0
  187.4300  178.1560  145.0220 C   0  0  1  0  0  3  0  0  0  0  0  0
  188.9440  174.7850  147.3240 C   0  0  0  0  0  2  0  0  0  0  0  0
  187.9820  176.8450  145.5890 C   0  0  2  0  0  3  0  0  0  0  0  0
  187.0480  176.3060  146.6810 C   0  0  0  0  0  2  0  0  0  0  0  0
  190.0070  175.6310  146.5870 C   0  0  1  0  0  0  0  0  0  0  0  0
  189.4380  176.9750  146.0600 C   0  0  0  0  0  2  0  0  0  0  0  0
  187.7840  175.6300  147.8410 C   0  0  0  0  0  2  0  0  0  0  0  0
  191.1390  175.8350  147.4220 O   0  0  0  0  0  0  0  0  0  0  0  0
  192.2800  175.2380  146.8560 C   0  0  0  0  0  1  0  0  0  0  0  0
  190.4510  174.7820  145.3900 C   0  0  0  0  0  2  0  0  0  0  0  0
  189.5420  173.5850  145.1350 C   0  0  0  0  0  2  0  0  0  0  0  0
  190.3510  172.3780  144.6940 C   0  0  0  0  0  2  0  0  0  0  0  0
  189.8040  171.8390  143.3830 C   0  0  0  0  0  2  0  0  0  0  0  0
  190.8290  171.0610  142.7060 N   0  0  0  0  0  2  0  0  0  0  0  0
  192.0060  171.0670  143.5590 C   0  0  0  0  0  2  0  0  0  0  0  0
  192.8770  170.0580  143.1520 O   0  0  0  0  0  0  0  0  0  0  0  0
  193.7260  170.6770  142.2340 C   0  0  0  0  0  2  0  0  0  0  0  0
  195.0650  170.9760  142.8880 C   0  0  2  0  0  3  0  0  0  0  0  0
  196.1160  171.1150  141.8320 C   0  0  0  0  0  3  0  0  0  0  0  0
  196.4340  170.1580  141.1450 O   0  0  0  0  0  0  0  0  0  0  0  0
  195.4360  169.8440  143.8330 C   0  0  0  0  0  2  0  0  0  0  0  0
  197.2460  170.3960  145.7490 O   0  0  0  0  0  0  0  0  0  0  0  0
  195.3070  171.8910  145.5790 O   0  0  0  0  0  0  0  0  0  0  0  0
  195.7690  170.4650  145.4730 S   0  0  0  0  0  0  0  0  0  0  0  0
  194.3950  168.1960  145.9980 C   0  0  0  0  0  1  0  0  0  0  0  0
  194.8940  169.4660  146.6560 C   0  0  0  0  0  2  0  0  0  0  0  0
  187.9420  175.1120  141.5490 C   0  0  0  0  0  2  0  0  0  0  0  0
  189.1880  174.3570  141.5280 N   0  0  0  0  0  0  0  0  0  0  0  0
  190.1940  175.2020  141.9600 O   0  0  0  0  0  0  0  0  0  0  0  0
  191.9030  173.8090  141.2700 O   0  0  0  0  0  0  0  0  0  0  0  0
  192.5260  175.6270  142.5730 N   0  0  0  0  0  2  0  0  0  0  0  0
  191.5450  174.8450  141.8930 C   0  0  0  0  0  0  0  0  0  0  0  0
  191.9060  177.8650  143.7670 C   0  0  0  0  0  3  0  0  0  0  0  0
  192.1930  176.8330  143.2110 C   0  0  0  0  0  0  0  0  0  0  0  0
  189.4690  174.0590  140.1300 C   0  0  0  0  0  2  0  0  0  0  0  0
  188.2660  174.4040  139.2640 C   0  0  0  0  0  2  0  0  0  0  0  0
  188.4240  173.8320  137.8620 C   0  0  1  0  0  3  0  0  0  0  0  0
  188.1930  174.8380  136.9220 O   0  0  0  0  0  1  0  0  0  0  0  0
  189.7870  173.3400  137.7050 N   0  0  0  0  0  2  0  0  0  0  0  0
  190.3480  172.8980  135.3860 C   0  0  0  0  0  1  0  0  0  0  0  0
  190.3500  173.9300  136.4960 C   0  0  2  0  0  3  0  0  0  0  0  0
  191.7510  174.4070  136.7360 C   0  0  0  0  0  0  0  0  0  0  0  0
  192.4760  175.0850  135.8210 N   0  0  0  0  0  0  0  0  0  0  0  0
  193.5750  174.8280  137.7140 C   0  0  0  0  0  0  0  0  0  0  0  0
  192.3860  174.2310  137.9120 N   0  0  0  0  0  0  0  0  0  0  0  0
  193.6480  175.3390  136.4370 C   0  0  0  0  0  2  0  0  0  0  0  0
  195.7870  173.8690  138.8010 C   0  0  2  0  0  3  0  0  0  0  0  0
  194.4810  175.6230  139.8640 O   0  0  0  0  0  1  0  0  0  0  0  0
  194.6810  174.8440  138.7240 C   0  0  2  0  0  0  0  0  0  0  0  0
  195.9750  175.1560  138.0990 N   0  0  0  0  0  2  0  0  0  0  0  0
  196.7550  171.7750  138.1820 O   0  0  0  0  0  1  0  0  0  0  0  0
  195.7130  172.6450  137.8490 C   0  0  2  0  0  0  0  0  0  0  0  0
  196.9930  172.4210  135.8140 O   0  0  0  0  0  1  0  0  0  0  0  0
  195.9860  173.1670  136.4360 C   0  0  0  0  0  2  0  0  0  0  0  0
  194.3870  171.8450  137.9030 C   0  0  0  0  0  2  0  0  0  0  0  0
  194.5190  170.3700  137.6650 C   0  0  0  0  0  0  0  0  0  0  0  0
  194.7670  169.8960  136.3830 O   0  0  0  0  0  0  0  0  0  0  0  0
  194.4120  169.5580  138.6200 O   0  0  0  0  0  1  0  0  0  0  0  0
  1 35  1  6  0  0  0
  1  4  1  0  0  0  0
  3  2  1  0  0  0  0
  3  1  1  0  0  0  0
  4  5  1  6  0  0  0
  4  7  1  0  0  0  0
  6  5  1  0  0  0  0
  7  9  1  0  0  0  0
  9  8  1  1  0  0  0
 10 15  1  0  0  0  0
 11  9  1  1  0  0  0
 11 14  1  0  0  0  0
 11 12  1  0  0  0  0
 12 15  1  0  0  0  0
 13 18  1  6  0  0  0
 13 10  1  0  0  0  0
 13 16  1  0  0  0  0
 14 13  1  0  0  0  0
 17 16  1  0  0  0  0
 19 18  1  0  0  0  0
 20 19  1  0  0  0  0
 21 20  1  0  0  0  0
 22 21  1  0  0  0  0
 22 23  1  0  0  0  0
 24 23  1  0  0  0  0
 25 26  1  0  0  0  0
 25 24  1  0  0  0  0
 26 27  1  6  0  0  0
 26 29  1  0  0  0  0
 28 27  2  0  0  0  0
 29 32  1  0  0  0  0
 32 31  2  0  0  0  0
 32 30  2  0  0  0  0
 32 34  1  0  0  0  0
 33 34  1  0  0  0  0
 36 35  1  0  0  0  0
 36 37  1  0  0  0  0
 38 40  2  0  0  0  0
 39 42  1  0  0  0  0
 40 37  1  0  0  0  0
 40 39  1  0  0  0  0
 42 41  3  0  0  0  0
 43 36  1  0  0  0  0
 44 43  1  0  0  0  0
 45 46  1  6  0  0  0
 45 44  1  0  0  0  0
 47 45  1  0  0  0  0
 49 48  1  6  0  0  0
 49 50  1  0  0  0  0
 49 47  1  0  0  0  0
 50 53  1  0  0  0  0
 51 54  1  0  0  0  0
 51 50  2  0  0  0  0
 52 53  2  0  0  0  0
 52 57  1  0  0  0  0
 54 52  1  0  0  0  0
 55 60  1  6  0  0  0
 57 55  1  0  0  0  0
 57 56  1  1  0  0  0
 58 57  1  0  0  0  0
 58 55  1  0  0  0  0
 60 63  1  0  0  0  0
 60 59  1  1  0  0  0
 61 62  1  0  0  0  0
 62 60  1  0  0  0  0
 64 63  1  0  0  0  0
 64 66  1  0  0  0  0
 65 64  2  0  0  0  0
M  END
>  <MODEL>
1

>  <REMARK>
 VINA RESULT:      -4.3      0.000      0.000
  Name = 
  36 active torsions:
  status: ('A' for Active; 'I' for Inactive)
    1  A    between atoms: C_4  and  C_44
    2  A    between atoms: C_6  and  N_25
    3  A    between atoms: C_6  and  C_62
    4  A    between atoms: C_8  and  C_29
    5  A    between atoms: C_8  and  C_49
    6  A    between atoms: N_9  and  C_61
    7  A    between atoms: C_10  and  C_33
    8  A    between atoms: C_10  and  S_48
    9  A    between atoms: C_11  and  C_34
   10  A    between atoms: C_11  and  N_42
   11  A    between atoms: O_14  and  C_45
   12  A    between atoms: C_15  and  C_58
   13  A    between atoms: C_18  and  C_24
   14  A    between atoms: C_18  and  C_50
   15  A    between atoms: C_19  and  C_30
   16  A    between atoms: C_22  and  C_33
   17  A    between atoms: N_25  and  C_46
   18  A    between atoms: N_25  and  O_54
   19  A    between atoms: C_26  and  S_48
   20  A    between atoms: C_27  and  C_45
   21  A    between atoms: C_27  and  C_49
   22  A    between atoms: C_28  and  O_54
   23  A    between atoms: C_29  and  N_56
   24  A    between atoms: C_30  and  O_36
   25  A    between atoms: C_31  and  O_52
   26  A    between atoms: C_31  and  N_56
   27  A    between atoms: C_33  and  C_64
   28  A    between atoms: C_34  and  C_46
   29  A    between atoms: O_36  and  C_39
   30  A    between atoms: C_39  and  O_41
   31  A    between atoms: C_39  and  C_62
   32  A    between atoms: O_40  and  C_62
   33  A    between atoms: N_42  and  C_44
   34  A    between atoms: C_43  and  C_50
   35  A    between atoms: C_50  and  C_60
   36  A    between atoms: O_52  and  C_64
                            x       y       z     vdW  Elec       q    Type
                         _______ _______ _______ _____ _____    ______ ____

>  <TORSDO>
F 36

$$$$
=
 OpenBabel11042416193D

 66 68  0  0  1  0  0  0  0  0999 V2000
  193.2900  174.5200  144.9040 C   0  0  1  0  0  3  0  0  0  0  0  0
  191.5540  174.2000  146.2510 C   0  0  0  0  0  1  0  0  0  0  0  0
  192.2860  175.1980  145.6070 O   0  0  0  0  0  0  0  0  0  0  0  0
  193.7890  173.3230  145.7160 C   0  0  2  0  0  3  0  0  0  0  0  0
  195.1130  173.5210  146.1280 O   0  0  0  0  0  0  0  0  0  0  0  0
  195.4820  174.7660  145.6230 C   0  0  0  0  0  1  0  0  0  0  0  0
  193.7320  172.1730  144.9210 O   0  0  0  0  0  0  0  0  0  0  0  0
  194.1080  170.2670  146.3030 C   0  0  0  0  0  1  0  0  0  0  0  0
  194.7340  171.3130  145.3950 C   0  0  1  0  0  3  0  0  0  0  0  0
  197.4330  169.8290  142.3190 C   0  0  0  0  0  2  0  0  0  0  0  0
  195.4740  170.6290  144.2430 C   0  0  2  0  0  3  0  0  0  0  0  0
  196.8000  170.0380  144.7430 C   0  0  0  0  0  2  0  0  0  0  0  0
  196.3590  170.8340  141.8470 C   0  0  1  0  0  0  0  0  0  0  0  0
  195.6520  171.5500  143.0280 C   0  0  0  0  0  2  0  0  0  0  0  0
  197.9400  170.1350  143.7250 C   0  0  0  0  0  2  0  0  0  0  0  0
  196.9260  171.7670  140.9350 O   0  0  0  0  0  0  0  0  0  0  0  0
  197.6240  172.7700  141.6330 C   0  0  0  0  0  1  0  0  0  0  0  0
  195.3220  170.0020  141.0850 C   0  0  0  0  0  2  0  0  0  0  0  0
  195.0240  168.6620  141.7490 C   0  0  0  0  0  2  0  0  0  0  0  0
  193.6380  168.1700  141.3740 C   0  0  0  0  0  2  0  0  0  0  0  0
  192.6270  169.2920  141.5390 C   0  0  0  0  0  2  0  0  0  0  0  0
  191.7080  169.2960  140.4120 N   0  0  0  0  0  2  0  0  0  0  0  0
  192.3960  168.6700  139.2960 C   0  0  0  0  0  2  0  0  0  0  0  0
  191.5130  168.5380  138.2250 O   0  0  0  0  0  0  0  0  0  0  0  0
  192.3370  168.3750  137.1100 C   0  0  0  0  0  2  0  0  0  0  0  0
  192.9070  169.7200  136.6880 C   0  0  2  0  0  3  0  0  0  0  0  0
  191.8050  170.5890  136.1710 C   0  0  0  0  0  3  0  0  0  0  0  0
  190.8020  170.7810  136.8400 O   0  0  0  0  0  0  0  0  0  0  0  0
  193.9510  169.5150  135.6020 C   0  0  0  0  0  2  0  0  0  0  0  0
  195.4900  169.2980  137.8020 O   0  0  0  0  0  0  0  0  0  0  0  0
  196.2760  168.1660  135.7710 O   0  0  0  0  0  0  0  0  0  0  0  0
  195.5870  169.3910  136.3040 S   0  0  0  0  0  0  0  0  0  0  0  0
  196.0370  171.3760  134.5230 C   0  0  0  0  0  1  0  0  0  0  0  0
  196.5180  170.8400  135.8550 C   0  0  0  0  0  2  0  0  0  0  0  0
  192.7720  174.0690  143.5390 C   0  0  0  0  0  2  0  0  0  0  0  0
  193.8000  174.2380  142.5200 N   0  0  0  0  0  0  0  0  0  0  0  0
  193.8480  175.5820  142.1960 O   0  0  0  0  0  0  0  0  0  0  0  0
  195.4790  176.9260  143.1290 O   0  0  0  0  0  0  0  0  0  0  0  0
  195.7880  176.3330  140.9050 N   0  0  0  0  0  2  0  0  0  0  0  0
  195.0540  176.2890  142.1270 C   0  0  0  0  0  0  0  0  0  0  0  0
  195.0630  174.9220  138.8310 C   0  0  0  0  0  3  0  0  0  0  0  0
  195.4020  175.5760  139.7870 C   0  0  0  0  0  0  0  0  0  0  0  0
  193.3260  173.5420  141.3320 C   0  0  0  0  0  2  0  0  0  0  0  0
  192.1110  174.2530  140.7520 C   0  0  0  0  0  2  0  0  0  0  0  0
  191.0450  173.2510  140.3320 C   0  0  1  0  0  3  0  0  0  0  0  0
  191.6510  172.1760  139.6790 O   0  0  0  0  0  1  0  0  0  0  0  0
  190.3640  172.7600  141.5230 N   0  0  0  0  0  2  0  0  0  0  0  0
  188.4970  173.2650  140.0580 C   0  0  0  0  0  1  0  0  0  0  0  0
  188.9860  173.2390  141.4930 C   0  0  2  0  0  3  0  0  0  0  0  0
  188.8840  174.6130  142.0840 C   0  0  0  0  0  0  0  0  0  0  0  0
  188.6640  175.7260  141.3530 N   0  0  0  0  0  0  0  0  0  0  0  0
  188.7890  176.1690  143.5080 C   0  0  0  0  0  0  0  0  0  0  0  0
  188.9640  174.8390  143.4110 N   0  0  0  0  0  0  0  0  0  0  0  0
  188.6200  176.7230  142.2580 C   0  0  0  0  0  2  0  0  0  0  0  0
  187.7070  177.5080  145.5160 C   0  0  2  0  0  3  0  0  0  0  0  0
  190.1120  177.4130  145.1740 O   0  0  0  0  0  1  0  0  0  0  0  0
  188.8590  176.9300  144.7970 C   0  0  2  0  0  0  0  0  0  0  0  0
  188.2350  176.1810  145.8970 N   0  0  0  0  0  2  0  0  0  0  0  0
  186.4320  176.5380  143.7440 O   0  0  0  0  0  1  0  0  0  0  0  0
  186.3310  177.4480  144.8010 C   0  0  2  0  0  0  0  0  0  0  0  0
  184.8900  178.8570  143.4700 O   0  0  0  0  0  1  0  0  0  0  0  0
  186.0880  178.8320  144.1910 C   0  0  0  0  0  2  0  0  0  0  0  0
  185.1400  177.0140  145.6930 C   0  0  0  0  0  2  0  0  0  0  0  0
  184.7910  177.9630  146.8010 C   0  0  0  0  0  0  0  0  0  0  0  0
  183.7810  178.8980  146.6180 O   0  0  0  0  0  0  0  0  0  0  0  0
  185.4050  177.9140  147.8990 O   0  0  0  0  0  1  0  0  0  0  0  0
  1 35  1  6  0  0  0
  1  3  1  0  0  0  0
  1  4  1  0  0  0  0
  3  2  1  0  0  0  0
  4  7  1  6  0  0  0
  4  5  1  0  0  0  0
  6  5  1  0  0  0  0
  7  9  1  0  0  0  0
  9  8  1  1  0  0  0
 10 15  1  0  0  0  0
 11 12  1  0  0  0  0
 11  9  1  1  0  0  0
 13 18  1  6  0  0  0
 13 10  1  0  0  0  0
 13 14  1  0  0  0  0
 14 11  1  0  0  0  0
 15 12  1  0  0  0  0
 16 17  1  0  0  0  0
 16 13  1  0  0  0  0
 18 19  1  0  0  0  0
 20 21  1  0  0  0  0
 20 19  1  0  0  0  0
 22 21  1  0  0  0  0
 23 22  1  0  0  0  0
 24 23  1  0  0  0  0
 25 24  1  0  0  0  0
 26 29  1  6  0  0  0
 26 25  1  0  0  0  0
 27 26  1  0  0  0  0
 27 28  2  0  0  0  0
 29 32  1  0  0  0  0
 31 32  2  0  0  0  0
 32 30  2  0  0  0  0
 33 34  1  0  0  0  0
 34 32  1  0  0  0  0
 36 35  1  0  0  0  0
 37 36  1  0  0  0  0
 39 40  1  0  0  0  0
 40 37  1  0  0  0  0
 40 38  2  0  0  0  0
 41 42  3  0  0  0  0
 42 39  1  0  0  0  0
 43 36  1  0  0  0  0
 44 43  1  0  0  0  0
 45 46  1  1  0  0  0
 45 44  1  0  0  0  0
 45 47  1  0  0  0  0
 49 48  1  6  0  0  0
 49 47  1  0  0  0  0
 49 50  1  0  0  0  0
 50 53  1  0  0  0  0
 51 50  2  0  0  0  0
 51 54  1  0  0  0  0
 52 57  1  0  0  0  0
 53 52  2  0  0  0  0
 54 52  1  0  0  0  0
 55 60  1  6  0  0  0
 55 58  1  0  0  0  0
 57 56  1  1  0  0  0
 57 55  1  0  0  0  0
 57 58  1  0  0  0  0
 60 59  1  6  0  0  0
 60 63  1  0  0  0  0
 61 62  1  0  0  0  0
 62 60  1  0  0  0  0
 63 64  1  0  0  0  0
 64 66  1  0  0  0  0
 65 64  2  0  0  0  0
M  END
>  <MODEL>
2

>  <REMARK>
 VINA RESULT:      -3.1      2.728      8.898
  Name = 
  36 active torsions:
  status: ('A' for Active; 'I' for Inactive)
    1  A    between atoms: C_4  and  C_44
    2  A    between atoms: C_6  and  N_25
    3  A    between atoms: C_6  and  C_62
    4  A    between atoms: C_8  and  C_29
    5  A    between atoms: C_8  and  C_49
    6  A    between atoms: N_9  and  C_61
    7  A    between atoms: C_10  and  C_33
    8  A    between atoms: C_10  and  S_48
    9  A    between atoms: C_11  and  C_34
   10  A    between atoms: C_11  and  N_42
   11  A    between atoms: O_14  and  C_45
   12  A    between atoms: C_15  and  C_58
   13  A    between atoms: C_18  and  C_24
   14  A    between atoms: C_18  and  C_50
   15  A    between atoms: C_19  and  C_30
   16  A    between atoms: C_22  and  C_33
   17  A    between atoms: N_25  and  C_46
   18  A    between atoms: N_25  and  O_54
   19  A    between atoms: C_26  and  S_48
   20  A    between atoms: C_27  and  C_45
   21  A    between atoms: C_27  and  C_49
   22  A    between atoms: C_28  and  O_54
   23  A    between atoms: C_29  and  N_56
   24  A    between atoms: C_30  and  O_36
   25  A    between atoms: C_31  and  O_52
   26  A    between atoms: C_31  and  N_56
   27  A    between atoms: C_33  and  C_64
   28  A    between atoms: C_34  and  C_46
   29  A    between atoms: O_36  and  C_39
   30  A    between atoms: C_39  and  O_41
   31  A    between atoms: C_39  and  C_62
   32  A    between atoms: O_40  and  C_62
   33  A    between atoms: N_42  and  C_44
   34  A    between atoms: C_43  and  C_50
   35  A    between atoms: C_50  and  C_60
   36  A    between atoms: O_52  and  C_64
                            x       y       z     vdW  Elec       q    Type
                         _______ _______ _______ _____ _____    ______ ____

>  <TORSDO>
F 36

$$$$
=
 OpenBabel11042416193D

 66 68  0  0  1  0  0  0  0  0999 V2000
  187.7800  176.9400  142.4280 C   0  0  1  0  0  3  0  0  0  0  0  0
  188.7580  178.7490  141.5910 C   0  0  0  0  0  1  0  0  0  0  0  0
  188.1920  177.5280  141.2260 O   0  0  0  0  0  0  0  0  0  0  0  0
  186.3800  177.4290  142.8040 C   0  0  2  0  0  3  0  0  0  0  0  0
  185.4090  176.8110  142.0060 O   0  0  0  0  0  0  0  0  0  0  0  0
  184.9270  177.8070  141.1600 C   0  0  0  0  0  1  0  0  0  0  0  0
  186.3100  178.8130  142.6090 O   0  0  0  0  0  0  0  0  0  0  0  0
  185.4200  180.5290  144.0050 C   0  0  0  0  0  1  0  0  0  0  0  0
  186.4280  179.3980  143.8780 C   0  0  1  0  0  3  0  0  0  0  0  0
  185.1980  176.9390  147.2530 C   0  0  0  0  0  2  0  0  0  0  0  0
  186.2040  178.3710  144.9910 C   0  0  2  0  0  3  0  0  0  0  0  0
  184.7560  177.8600  144.9560 C   0  0  0  0  0  2  0  0  0  0  0  0
  186.4330  177.8390  147.4880 C   0  0  1  0  0  0  0  0  0  0  0  0
  186.6160  178.9020  146.3720 C   0  0  0  0  0  2  0  0  0  0  0  0
  184.1640  177.5940  146.3430 C   0  0  0  0  0  2  0  0  0  0  0  0
  186.3650  178.4390  148.7750 O   0  0  0  0  0  0  0  0  0  0  0  0
  187.5580  179.1310  149.0550 C   0  0  0  0  0  1  0  0  0  0  0  0
  187.6400  176.8950  147.4710 C   0  0  0  0  0  2  0  0  0  0  0  0
  188.1380  176.5850  146.0640 C   0  0  0  0  0  2  0  0  0  0  0  0
  189.6240  176.2730  146.0740 C   0  0  0  0  0  2  0  0  0  0  0  0
  189.8460  174.8190  146.4550 C   0  0  0  0  0  2  0  0  0  0  0  0
  191.0330  174.3110  145.7860 N   0  0  0  0  0  2  0  0  0  0  0  0
  192.1830  174.9120  146.4380 C   0  0  0  0  0  2  0  0  0  0  0  0
  193.2560  174.0230  146.3950 O   0  0  0  0  0  0  0  0  0  0  0  0
  193.3420  173.6410  145.0550 C   0  0  0  0  0  2  0  0  0  0  0  0
  194.8000  173.4910  144.6530 C   0  0  2  0  0  3  0  0  0  0  0  0
  195.3040  174.7920  144.1120 C   0  0  0  0  0  3  0  0  0  0  0  0
  195.2650  175.8030  144.7950 O   0  0  0  0  0  0  0  0  0  0  0  0
  194.9280  172.4110  143.5910 C   0  0  0  0  0  2  0  0  0  0  0  0
  196.6330  170.6690  144.7370 O   0  0  0  0  0  0  0  0  0  0  0  0
  194.3180  170.6680  145.5520 O   0  0  0  0  0  0  0  0  0  0  0  0
  195.1900  170.8110  144.3360 S   0  0  0  0  0  0  0  0  0  0  0  0
  195.1560  169.9970  141.7580 C   0  0  0  0  0  1  0  0  0  0  0  0
  194.7730  169.5490  143.1530 C   0  0  0  0  0  2  0  0  0  0  0  0
  187.8090  175.4170  142.3140 C   0  0  0  0  0  2  0  0  0  0  0  0
  189.1070  174.8970  142.7230 N   0  0  0  0  0  0  0  0  0  0  0  0
  190.0300  175.9160  142.5710 O   0  0  0  0  0  0  0  0  0  0  0  0
  191.8990  174.6070  142.2110 O   0  0  0  0  0  0  0  0  0  0  0  0
  192.2660  176.6570  143.2380 N   0  0  0  0  0  2  0  0  0  0  0  0
  191.4090  175.6880  142.6380 C   0  0  0  0  0  0  0  0  0  0  0  0
  191.3630  178.9840  144.0030 C   0  0  0  0  0  3  0  0  0  0  0  0
  191.7840  177.9090  143.6520 C   0  0  0  0  0  0  0  0  0  0  0  0
  189.4650  173.8660  141.7590 C   0  0  0  0  0  2  0  0  0  0  0  0
  188.3170  173.6320  140.7870 C   0  0  0  0  0  2  0  0  0  0  0  0
  188.8260  173.0400  139.4790 C   0  0  1  0  0  3  0  0  0  0  0  0
  188.7420  171.6480  139.5370 O   0  0  0  0  0  1  0  0  0  0  0  0
  187.9890  173.5210  138.3880 N   0  0  0  0  0  2  0  0  0  0  0  0
  187.9570  175.3100  136.7480 C   0  0  0  0  0  1  0  0  0  0  0  0
  188.8230  174.3050  137.4830 C   0  0  2  0  0  3  0  0  0  0  0  0
  189.5160  173.4190  136.4910 C   0  0  0  0  0  0  0  0  0  0  0  0
  189.3260  173.4990  135.1570 N   0  0  0  0  0  0  0  0  0  0  0  0
  190.8150  171.9630  135.6840 C   0  0  0  0  0  0  0  0  0  0  0  0
  190.4240  172.4920  136.8570 N   0  0  0  0  0  0  0  0  0  0  0  0
  190.1410  172.5590  134.6410 C   0  0  0  0  0  2  0  0  0  0  0  0
  193.2530  170.9380  135.6510 C   0  0  2  0  0  3  0  0  0  0  0  0
  191.3000  169.6460  134.9970 O   0  0  0  0  0  1  0  0  0  0  0  0
  191.7840  170.8260  135.5610 C   0  0  2  0  0  0  0  0  0  0  0  0
  192.4600  170.5560  136.8380 N   0  0  0  0  0  2  0  0  0  0  0  0
  193.1380  173.1820  134.8400 O   0  0  0  0  0  1  0  0  0  0  0  0
  193.8450  172.3700  135.7320 C   0  0  2  0  0  0  0  0  0  0  0  0
  195.6420  173.4390  134.5230 O   0  0  0  0  0  1  0  0  0  0  0  0
  195.2870  172.2820  135.2240 C   0  0  0  0  0  2  0  0  0  0  0  0
  193.7850  173.0330  137.1320 C   0  0  0  0  0  2  0  0  0  0  0  0
  193.6330  174.5250  137.1280 C   0  0  0  0  0  0  0  0  0  0  0  0
  194.7480  175.3330  136.9470 O   0  0  0  0  0  0  0  0  0  0  0  0
  192.5000  175.0510  137.2820 O   0  0  0  0  0  1  0  0  0  0  0  0
  1 35  1  6  0  0  0
  1  4  1  0  0  0  0
  3  2  1  0  0  0  0
  3  1  1  0  0  0  0
  4  5  1  6  0  0  0
  6  5  1  0  0  0  0
  7  4  1  0  0  0  0
  7  9  1  0  0  0  0
  9  8  1  6  0  0  0
 10 13  1  0  0  0  0
 11  9  1  6  0  0  0
 11 14  1  0  0  0  0
 12 11  1  0  0  0  0
 12 15  1  0  0  0  0
 13 18  1  6  0  0  0
 13 16  1  0  0  0  0
 14 13  1  0  0  0  0
 15 10  1  0  0  0  0
 16 17  1  0  0  0  0
 19 20  1  0  0  0  0
 19 18  1  0  0  0  0
 20 21  1  0  0  0  0
 22 23  1  0  0  0  0
 22 21  1  0  0  0  0
 24 23  1  0  0  0  0
 25 24  1  0  0  0  0
 26 29  1  6  0  0  0
 26 25  1  0  0  0  0
 27 26  1  0  0  0  0
 27 28  2  0  0  0  0
 29 32  1  0  0  0  0
 32 30  2  0  0  0  0
 32 31  2  0  0  0  0
 33 34  1  0  0  0  0
 34 32  1  0  0  0  0
 35 36  1  0  0  0  0
 37 40  1  0  0  0  0
 37 36  1  0  0  0  0
 38 40  2  0  0  0  0
 39 42  1  0  0  0  0
 40 39  1  0  0  0  0
 42 41  3  0  0  0  0
 43 36  1  0  0  0  0
 44 43  1  0  0  0  0
 45 46  1  1  0  0  0
 45 44  1  0  0  0  0
 47 45  1  0  0  0  0
 49 48  1  6  0  0  0
 49 47  1  0  0  0  0
 50 53  1  0  0  0  0
 50 49  1  0  0  0  0
 51 50  2  0  0  0  0
 52 53  2  0  0  0  0
 54 51  1  0  0  0  0
 54 52  1  0  0  0  0
 55 60  1  1  0  0  0
 55 58  1  0  0  0  0
 57 56  1  6  0  0  0
 57 55  1  0  0  0  0
 57 52  1  0  0  0  0
 57 58  1  0  0  0  0
 60 59  1  6  0  0  0
 60 63  1  0  0  0  0
 61 62  1  0  0  0  0
 62 60  1  0  0  0  0
 64 63  1  0  0  0  0
 64 66  1  0  0  0  0
 65 64  2  0  0  0  0
M  END
>  <MODEL>
3

>  <REMARK>
 VINA RESULT:      -2.6      2.204      3.633
  Name = 
  36 active torsions:
  status: ('A' for Active; 'I' for Inactive)
    1  A    between atoms: C_4  and  C_44
    2  A    between atoms: C_6  and  N_25
    3  A    between atoms: C_6  and  C_62
    4  A    between atoms: C_8  and  C_29
    5  A    between atoms: C_8  and  C_49
    6  A    between atoms: N_9  and  C_61
    7  A    between atoms: C_10  and  C_33
    8  A    between atoms: C_10  and  S_48
    9  A    between atoms: C_11  and  C_34
   10  A    between atoms: C_11  and  N_42
   11  A    between atoms: O_14  and  C_45
   12  A    between atoms: C_15  and  C_58
   13  A    between atoms: C_18  and  C_24
   14  A    between atoms: C_18  and  C_50
   15  A    between atoms: C_19  and  C_30
   16  A    between atoms: C_22  and  C_33
   17  A    between atoms: N_25  and  C_46
   18  A    between atoms: N_25  and  O_54
   19  A    between atoms: C_26  and  S_48
   20  A    between atoms: C_27  and  C_45
   21  A    between atoms: C_27  and  C_49
   22  A    between atoms: C_28  and  O_54
   23  A    between atoms: C_29  and  N_56
   24  A    between atoms: C_30  and  O_36
   25  A    between atoms: C_31  and  O_52
   26  A    between atoms: C_31  and  N_56
   27  A    between atoms: C_33  and  C_64
   28  A    between atoms: C_34  and  C_46
   29  A    between atoms: O_36  and  C_39
   30  A    between atoms: C_39  and  O_41
   31  A    between atoms: C_39  and  C_62
   32  A    between atoms: O_40  and  C_62
   33  A    between atoms: N_42  and  C_44
   34  A    between atoms: C_43  and  C_50
   35  A    between atoms: C_50  and  C_60
   36  A    between atoms: O_52  and  C_64
                            x       y       z     vdW  Elec       q    Type
                         _______ _______ _______ _____ _____    ______ ____

>  <TORSDO>
F 36

$$$$
=
 OpenBabel11042416193D

 66 68  0  0  1  0  0  0  0  0999 V2000
  196.5230  174.4230  139.2490 C   0  0  1  0  0  3  0  0  0  0  0  0
  197.8590  176.0590  138.5630 C   0  0  0  0  0  1  0  0  0  0  0  0
  197.7950  174.6740  138.7200 O   0  0  0  0  0  0  0  0  0  0  0  0
  196.4060  175.0220  140.6520 C   0  0  2  0  0  3  0  0  0  0  0  0
  197.6290  174.9420  141.3280 O   0  0  0  0  0  0  0  0  0  0  0  0
  197.4840  175.7320  142.4660 C   0  0  0  0  0  1  0  0  0  0  0  0
  195.4440  174.3090  141.3760 O   0  0  0  0  0  0  0  0  0  0  0  0
  193.2300  174.9680  140.7840 C   0  0  0  0  0  1  0  0  0  0  0  0
  194.4260  175.2230  141.6870 C   0  0  1  0  0  3  0  0  0  0  0  0
  193.9820  175.0120  146.0130 C   0  0  0  0  0  2  0  0  0  0  0  0
  194.0040  175.1110  143.1550 C   0  0  2  0  0  3  0  0  0  0  0  0
  194.4850  176.3410  143.9390 C   0  0  0  0  0  2  0  0  0  0  0  0
  193.9700  173.6590  145.2660 C   0  0  1  0  0  0  0  0  0  0  0  0
  194.4440  173.7870  143.7940 C   0  0  0  0  0  2  0  0  0  0  0  0
  194.9260  176.0240  145.3700 C   0  0  0  0  0  2  0  0  0  0  0  0
  194.7360  172.6970  145.9800 O   0  0  0  0  0  0  0  0  0  0  0  0
  194.7840  171.4840  145.2680 C   0  0  0  0  0  1  0  0  0  0  0  0
  192.5090  173.1970  145.2740 C   0  0  0  0  0  2  0  0  0  0  0  0
  191.5450  174.2670  145.7740 C   0  0  0  0  0  2  0  0  0  0  0  0
  191.1540  175.2090  144.6490 C   0  0  0  0  0  2  0  0  0  0  0  0
  190.2840  174.4780  143.6410 C   0  0  0  0  0  2  0  0  0  0  0  0
  189.0290  175.1920  143.4640 N   0  0  0  0  0  2  0  0  0  0  0  0
  189.1870  176.0560  142.3070 C   0  0  0  0  0  2  0  0  0  0  0  0
  188.0460  175.9730  141.5100 O   0  0  0  0  0  0  0  0  0  0  0  0
  186.9840  175.9880  142.4160 C   0  0  0  0  0  2  0  0  0  0  0  0
  186.0360  177.1290  142.0830 C   0  0  2  0  0  3  0  0  0  0  0  0
  186.1770  177.4880  140.6380 C   0  0  0  0  0  3  0  0  0  0  0  0
  185.2710  178.0570  140.0500 O   0  0  0  0  0  0  0  0  0  0  0  0
  186.3670  178.3350  142.9470 C   0  0  0  0  0  2  0  0  0  0  0  0
  185.0860  180.2560  144.3340 O   0  0  0  0  0  0  0  0  0  0  0  0
  183.6960  178.5990  143.1730 O   0  0  0  0  0  0  0  0  0  0  0  0
  184.9670  178.8070  143.9480 S   0  0  0  0  0  0  0  0  0  0  0  0
  186.2790  177.1110  145.5960 C   0  0  0  0  0  1  0  0  0  0  0  0
  184.9420  177.8000  145.4150 C   0  0  0  0  0  2  0  0  0  0  0  0
  195.4420  174.9860  138.3270 C   0  0  0  0  0  2  0  0  0  0  0  0
  194.8170  173.9180  137.5590 N   0  0  0  0  0  0  0  0  0  0  0  0
  195.8290  173.1200  137.0560 O   0  0  0  0  0  0  0  0  0  0  0  0
  195.1680  171.5690  135.4760 O   0  0  0  0  0  0  0  0  0  0  0  0
  196.5420  173.2820  134.7200 N   0  0  0  0  0  2  0  0  0  0  0  0
  195.8040  172.6240  135.7480 C   0  0  0  0  0  0  0  0  0  0  0  0
  197.7580  175.5500  135.1570 C   0  0  0  0  0  3  0  0  0  0  0  0
  197.1980  174.5020  134.9500 C   0  0  0  0  0  0  0  0  0  0  0  0
  194.1790  174.5510  136.4120 C   0  0  0  0  0  2  0  0  0  0  0  0
  192.8330  175.1360  136.8120 C   0  0  0  0  0  2  0  0  0  0  0  0
  191.8180  174.0330  137.0750 C   0  0  1  0  0  3  0  0  0  0  0  0
  190.5380  174.5870  137.1420 O   0  0  0  0  0  1  0  0  0  0  0  0
  191.8640  173.0770  135.9760 N   0  0  0  0  0  2  0  0  0  0  0  0
  189.6570  172.1560  135.5670 C   0  0  0  0  0  1  0  0  0  0  0  0
  190.9730  171.9680  136.2960 C   0  0  2  0  0  3  0  0  0  0  0  0
  190.7230  171.8900  137.7720 C   0  0  0  0  0  0  0  0  0  0  0  0
  189.5910  172.3280  138.3620 N   0  0  0  0  0  0  0  0  0  0  0  0
  190.9830  171.4360  139.8180 C   0  0  0  0  0  0  0  0  0  0  0  0
  191.6020  171.3320  138.6290 N   0  0  0  0  0  0  0  0  0  0  0  0
  189.7610  172.0550  139.6700 C   0  0  0  0  0  2  0  0  0  0  0  0
  192.8180  170.1990  141.2660 C   0  0  2  0  0  3  0  0  0  0  0  0
  190.7830  171.0940  142.2510 O   0  0  0  0  0  1  0  0  0  0  0  0
  191.5930  171.0090  141.1190 C   0  0  2  0  0  0  0  0  0  0  0  0
  192.8840  171.6730  141.3490 N   0  0  0  0  0  2  0  0  0  0  0  0
  193.4590  170.6360  139.0070 O   0  0  0  0  0  1  0  0  0  0  0  0
  193.4380  169.6190  139.9670 C   0  0  2  0  0  0  0  0  0  0  0  0
  192.4850  168.4730  138.0670 O   0  0  0  0  0  1  0  0  0  0  0  0
  192.4800  168.5350  139.4640 C   0  0  0  0  0  2  0  0  0  0  0  0
  194.8790  169.0680  140.1110 C   0  0  0  0  0  2  0  0  0  0  0  0
  195.9700  170.0100  139.6930 C   0  0  0  0  0  0  0  0  0  0  0  0
  195.9910  171.3070  140.1900 O   0  0  0  0  0  1  0  0  0  0  0  0
  196.8690  169.6320  138.8990 O   0  0  0  0  0  0  0  0  0  0  0  0
  1 35  1  6  0  0  0
  1  4  1  0  0  0  0
  2  3  1  0  0  0  0
  3  1  1  0  0  0  0
  4  5  1  1  0  0  0
  4  7  1  0  0  0  0
  5  6  1  0  0  0  0
  7  9  1  0  0  0  0
  9  8  1  6  0  0  0
 11  9  1  6  0  0  0
 11 14  1  0  0  0  0
 11 12  1  0  0  0  0
 12 15  1  0  0  0  0
 13 18  1  6  0  0  0
 13 16  1  0  0  0  0
 13 10  1  0  0  0  0
 14 13  1  0  0  0  0
 15 10  1  0  0  0  0
 17 16  1  0  0  0  0
 18 19  1  0  0  0  0
 20 19  1  0  0  0  0
 21 20  1  0  0  0  0
 22 21  1  0  0  0  0
 23 22  1  0  0  0  0
 24 23  1  0  0  0  0
 24 25  1  0  0  0  0
 26 27  1  6  0  0  0
 26 25  1  0  0  0  0
 26 29  1  0  0  0  0
 28 27  2  0  0  0  0
 29 32  1  0  0  0  0
 31 32  2  0  0  0  0
 32 30  2  0  0  0  0
 32 34  1  0  0  0  0
 34 33  1  0  0  0  0
 36 35  1  0  0  0  0
 37 36  1  0  0  0  0
 38 40  2  0  0  0  0
 39 42  1  0  0  0  0
 39 40  1  0  0  0  0
 40 37  1  0  0  0  0
 42 41  3  0  0  0  0
 43 44  1  0  0  0  0
 43 36  1  0  0  0  0
 44 45  1  0  0  0  0
 45 46  1  6  0  0  0
 47 49  1  0  0  0  0
 47 45  1  0  0  0  0
 49 48  1  6  0  0  0
 49 50  1  0  0  0  0
 50 51  2  0  0  0  0
 50 53  1  0  0  0  0
 51 54  1  0  0  0  0
 52 57  1  0  0  0  0
 53 52  2  0  0  0  0
 54 52  1  0  0  0  0
 55 60  1  6  0  0  0
 55 58  1  0  0  0  0
 57 55  1  0  0  0  0
 57 58  1  0  0  0  0
 57 56  1  1  0  0  0
 60 59  1  6  0  0  0
 60 63  1  0  0  0  0
 61 62  1  0  0  0  0
 62 60  1  0  0  0  0
 64 63  1  0  0  0  0
 64 65  1  0  0  0  0
 66 64  2  0  0  0  0
M  END
>  <MODEL>
4

>  <REMARK>
 VINA RESULT:      -2.3      2.835      7.832
  Name = 
  36 active torsions:
  status: ('A' for Active; 'I' for Inactive)
    1  A    between atoms: C_4  and  C_44
    2  A    between atoms: C_6  and  N_25
    3  A    between atoms: C_6  and  C_62
    4  A    between atoms: C_8  and  C_29
    5  A    between atoms: C_8  and  C_49
    6  A    between atoms: N_9  and  C_61
    7  A    between atoms: C_10  and  C_33
    8  A    between atoms: C_10  and  S_48
    9  A    between atoms: C_11  and  C_34
   10  A    between atoms: C_11  and  N_42
   11  A    between atoms: O_14  and  C_45
   12  A    between atoms: C_15  and  C_58
   13  A    between atoms: C_18  and  C_24
   14  A    between atoms: C_18  and  C_50
   15  A    between atoms: C_19  and  C_30
   16  A    between atoms: C_22  and  C_33
   17  A    between atoms: N_25  and  C_46
   18  A    between atoms: N_25  and  O_54
   19  A    between atoms: C_26  and  S_48
   20  A    between atoms: C_27  and  C_45
   21  A    between atoms: C_27  and  C_49
   22  A    between atoms: C_28  and  O_54
   23  A    between atoms: C_29  and  N_56
   24  A    between atoms: C_30  and  O_36
   25  A    between atoms: C_31  and  O_52
   26  A    between atoms: C_31  and  N_56
   27  A    between atoms: C_33  and  C_64
   28  A    between atoms: C_34  and  C_46
   29  A    between atoms: O_36  and  C_39
   30  A    between atoms: C_39  and  O_41
   31  A    between atoms: C_39  and  C_62
   32  A    between atoms: O_40  and  C_62
   33  A    between atoms: N_42  and  C_44
   34  A    between atoms: C_43  and  C_50
   35  A    between atoms: C_50  and  C_60
   36  A    between atoms: O_52  and  C_64
                            x       y       z     vdW  Elec       q    Type
                         _______ _______ _______ _____ _____    ______ ____

>  <TORSDO>
F 36

$$$$
=
 OpenBabel11042416193D

 66 68  0  0  1  0  0  0  0  0999 V2000
  190.8100  172.2730  140.6370 C   0  0  1  0  0  3  0  0  0  0  0  0
  189.0470  172.3500  139.2880 C   0  0  0  0  0  1  0  0  0  0  0  0
  190.1000  173.1230  139.7790 O   0  0  0  0  0  0  0  0  0  0  0  0
  192.0370  171.7040  139.9220 C   0  0  2  0  0  3  0  0  0  0  0  0
  192.0520  172.0960  138.5780 O   0  0  0  0  0  0  0  0  0  0  0  0
  192.0480  170.9140  137.8390 C   0  0  0  0  0  1  0  0  0  0  0  0
  191.9960  170.3070  139.9830 O   0  0  0  0  0  0  0  0  0  0  0  0
  190.8100  168.8880  141.4890 C   0  0  0  0  0  1  0  0  0  0  0  0
  191.8640  169.9730  141.3390 C   0  0  1  0  0  3  0  0  0  0  0  0
  195.5000  169.1260  143.5780 C   0  0  0  0  0  2  0  0  0  0  0  0
  193.1940  169.4940  141.9280 C   0  0  2  0  0  3  0  0  0  0  0  0
  192.9960  169.0390  143.3810 C   0  0  0  0  0  2  0  0  0  0  0  0
  195.6690  170.0220  142.3300 C   0  0  1  0  0  0  0  0  0  0  0  0
  194.3130  170.5340  141.7760 C   0  0  0  0  0  2  0  0  0  0  0  0
  194.1770  169.3710  144.2960 C   0  0  0  0  0  2  0  0  0  0  0  0
  196.5570  171.0960  142.6120 O   0  0  0  0  0  0  0  0  0  0  0  0
  197.8270  170.6020  142.9630 C   0  0  0  0  0  1  0  0  0  0  0  0
  196.3290  169.1310  141.2710 C   0  0  0  0  0  2  0  0  0  0  0  0
  196.0300  169.5770  139.8440 C   0  0  0  0  0  2  0  0  0  0  0  0
  197.3080  169.9600  139.1190 C   0  0  0  0  0  2  0  0  0  0  0  0
  197.0030  170.9810  138.0360 C   0  0  0  0  0  2  0  0  0  0  0  0
  195.9030  170.5090  137.2100 N   0  0  0  0  0  2  0  0  0  0  0  0
  196.4170  170.3520  135.8600 C   0  0  0  0  0  2  0  0  0  0  0  0
  195.7140  171.1930  134.9980 O   0  0  0  0  0  0  0  0  0  0  0  0
  195.2850  172.2460  135.8070 C   0  0  0  0  0  2  0  0  0  0  0  0
  195.5710  173.5730  135.1240 C   0  0  2  0  0  3  0  0  0  0  0  0
  196.1100  174.5440  136.1250 C   0  0  0  0  0  3  0  0  0  0  0  0
  197.2980  174.8240  136.1390 O   0  0  0  0  0  0  0  0  0  0  0  0
  194.2900  174.1210  134.5160 C   0  0  0  0  0  2  0  0  0  0  0  0
  192.1570  175.4560  135.4740 O   0  0  0  0  0  0  0  0  0  0  0  0
  194.1590  175.3840  136.8910 O   0  0  0  0  0  0  0  0  0  0  0  0
  193.6600  175.4860  135.4770 S   0  0  0  0  0  0  0  0  0  0  0  0
  193.4600  178.1800  135.3350 C   0  0  0  0  0  1  0  0  0  0  0  0
  194.2270  177.0100  134.7540 C   0  0  0  0  0  2  0  0  0  0  0  0
  191.2200  173.0190  141.9060 C   0  0  0  0  0  2  0  0  0  0  0  0
  191.8670  174.2810  141.5710 N   0  0  0  0  0  0  0  0  0  0  0  0
  193.1780  174.2050  142.0090 O   0  0  0  0  0  0  0  0  0  0  0  0
  194.1140  175.4790  140.3240 O   0  0  0  0  0  0  0  0  0  0  0  0
  195.3100  175.3690  142.3110 N   0  0  0  0  0  2  0  0  0  0  0  0
  194.1790  175.0420  141.5050 C   0  0  0  0  0  0  0  0  0  0  0  0
  195.4700  174.6470  144.8150 C   0  0  0  0  0  3  0  0  0  0  0  0
  195.3920  174.9790  143.6570 C   0  0  0  0  0  0  0  0  0  0  0  0
  191.2200  175.3060  142.3780 C   0  0  0  0  0  2  0  0  0  0  0  0
  191.6930  175.2200  143.8210 C   0  0  0  0  0  2  0  0  0  0  0  0
  190.5250  175.3700  144.7860 C   0  0  1  0  0  3  0  0  0  0  0  0
  189.8010  174.1770  144.8250 O   0  0  0  0  0  1  0  0  0  0  0  0
  191.0460  175.6530  146.1170 N   0  0  0  0  0  2  0  0  0  0  0  0
  189.3260  174.0900  146.8130 C   0  0  0  0  0  1  0  0  0  0  0  0
  189.9760  175.4320  147.0840 C   0  0  2  0  0  3  0  0  0  0  0  0
  188.9450  176.5170  146.9980 C   0  0  0  0  0  0  0  0  0  0  0  0
  189.2450  177.8330  146.9840 N   0  0  0  0  0  0  0  0  0  0  0  0
  187.0770  177.4820  146.8020 C   0  0  0  0  0  0  0  0  0  0  0  0
  187.6260  176.2570  146.8850 N   0  0  0  0  0  0  0  0  0  0  0  0
  188.0530  178.4520  146.8770 C   0  0  0  0  0  2  0  0  0  0  0  0
  184.8290  177.9460  145.4890 C   0  0  2  0  0  3  0  0  0  0  0  0
  184.9700  178.1220  147.9090 O   0  0  0  0  0  1  0  0  0  0  0  0
  185.6010  177.7330  146.7280 C   0  0  2  0  0  0  0  0  0  0  0  0
  184.8950  176.6040  146.1050 N   0  0  0  0  0  2  0  0  0  0  0  0
  186.6680  178.9870  144.3750 O   0  0  0  0  0  1  0  0  0  0  0  0
  185.6370  178.0650  144.1680 C   0  0  2  0  0  0  0  0  0  0  0  0
  183.3560  178.5170  143.5160 O   0  0  0  0  0  1  0  0  0  0  0  0
  184.6910  178.6640  143.1240 C   0  0  0  0  0  2  0  0  0  0  0  0
  186.2700  176.7460  143.6590 C   0  0  0  0  0  2  0  0  0  0  0  0
  187.5690  176.9010  142.9240 C   0  0  0  0  0  0  0  0  0  0  0  0
  187.6640  176.5040  141.5960 O   0  0  0  0  0  0  0  0  0  0  0  0
  188.5730  177.3930  143.5010 O   0  0  0  0  0  1  0  0  0  0  0  0
  1 35  1  1  0  0  0
  2  3  1  0  0  0  0
  3  1  1  0  0  0  0
  4  5  1  6  0  0  0
  4  7  1  0  0  0  0
  4  1  1  0  0  0  0
  6  5  1  0  0  0  0
  7  9  1  0  0  0  0
  9  8  1  6  0  0  0
 10 15  1  0  0  0  0
 11  9  1  1  0  0  0
 11 12  1  0  0  0  0
 12 15  1  0  0  0  0
 13 18  1  6  0  0  0
 13 16  1  0  0  0  0
 13 10  1  0  0  0  0
 14 11  1  0  0  0  0
 14 13  1  0  0  0  0
 16 17  1  0  0  0  0
 19 18  1  0  0  0  0
 20 19  1  0  0  0  0
 21 20  1  0  0  0  0
 22 21  1  0  0  0  0
 23 22  1  0  0  0  0
 24 25  1  0  0  0  0
 24 23  1  0  0  0  0
 26 29  1  1  0  0  0
 26 25  1  0  0  0  0
 26 27  1  0  0  0  0
 27 28  2  0  0  0  0
 29 32  1  0  0  0  0
 30 32  2  0  0  0  0
 32 31  2  0  0  0  0
 34 33  1  0  0  0  0
 34 32  1  0  0  0  0
 36 35  1  0  0  0  0
 36 37  1  0  0  0  0
 36 43  1  0  0  0  0
 38 40  2  0  0  0  0
 39 42  1  0  0  0  0
 40 37  1  0  0  0  0
 40 39  1  0  0  0  0
 42 41  3  0  0  0  0
 43 44  1  0  0  0  0
 44 45  1  0  0  0  0
 45 46  1  1  0  0  0
 45 47  1  0  0  0  0
 47 49  1  0  0  0  0
 49 48  1  6  0  0  0
 50 49  1  0  0  0  0
 51 50  2  0  0  0  0
 52 54  1  0  0  0  0
 52 53  2  0  0  0  0
 53 50  1  0  0  0  0
 54 51  1  0  0  0  0
 55 60  1  6  0  0  0
 55 58  1  0  0  0  0
 55 57  1  0  0  0  0
 57 52  1  0  0  0  0
 57 56  1  1  0  0  0
 58 57  1  0  0  0  0
 60 59  1  1  0  0  0
 62 61  1  0  0  0  0
 62 60  1  0  0  0  0
 63 60  1  0  0  0  0
 64 66  1  0  0  0  0
 64 63  1  0  0  0  0
 65 64  2  0  0  0  0
M  END
>  <MODEL>
5

>  <REMARK>
 VINA RESULT:      -2.3      2.979      9.733
  Name = 
  36 active torsions:
  status: ('A' for Active; 'I' for Inactive)
    1  A    between atoms: C_4  and  C_44
    2  A    between atoms: C_6  and  N_25
    3  A    between atoms: C_6  and  C_62
    4  A    between atoms: C_8  and  C_29
    5  A    between atoms: C_8  and  C_49
    6  A    between atoms: N_9  and  C_61
    7  A    between atoms: C_10  and  C_33
    8  A    between atoms: C_10  and  S_48
    9  A    between atoms: C_11  and  C_34
   10  A    between atoms: C_11  and  N_42
   11  A    between atoms: O_14  and  C_45
   12  A    between atoms: C_15  and  C_58
   13  A    between atoms: C_18  and  C_24
   14  A    between atoms: C_18  and  C_50
   15  A    between atoms: C_19  and  C_30
   16  A    between atoms: C_22  and  C_33
   17  A    between atoms: N_25  and  C_46
   18  A    between atoms: N_25  and  O_54
   19  A    between atoms: C_26  and  S_48
   20  A    between atoms: C_27  and  C_45
   21  A    between atoms: C_27  and  C_49
   22  A    between atoms: C_28  and  O_54
   23  A    between atoms: C_29  and  N_56
   24  A    between atoms: C_30  and  O_36
   25  A    between atoms: C_31  and  O_52
   26  A    between atoms: C_31  and  N_56
   27  A    between atoms: C_33  and  C_64
   28  A    between atoms: C_34  and  C_46
   29  A    between atoms: O_36  and  C_39
   30  A    between atoms: C_39  and  O_41
   31  A    between atoms: C_39  and  C_62
   32  A    between atoms: O_40  and  C_62
   33  A    between atoms: N_42  and  C_44
   34  A    between atoms: C_43  and  C_50
   35  A    between atoms: C_50  and  C_60
   36  A    between atoms: O_52  and  C_64
                            x       y       z     vdW  Elec       q    Type
                         _______ _______ _______ _____ _____    ______ ____

>  <TORSDO>
F 36

$$$$
=
 OpenBabel11042416193D

 66 68  0  0  1  0  0  0  0  0999 V2000
  190.1100  172.4240  141.3750 C   0  0  1  0  0  3  0  0  0  0  0  0
  188.0370  173.2170  141.4590 C   0  0  0  0  0  1  0  0  0  0  0  0
  188.8880  172.2780  142.0440 O   0  0  0  0  0  0  0  0  0  0  0  0
  191.2590  171.9340  142.2590 C   0  0  2  0  0  3  0  0  0  0  0  0
  190.9360  170.7100  142.8570 O   0  0  0  0  0  0  0  0  0  0  0  0
  192.1480  170.1590  143.2670 C   0  0  0  0  0  1  0  0  0  0  0  0
  191.4980  172.8770  143.2650 O   0  0  0  0  0  0  0  0  0  0  0  0
  189.7690  172.8310  144.9070 C   0  0  0  0  0  1  0  0  0  0  0  0
  190.2510  173.4290  143.5950 C   0  0  1  0  0  3  0  0  0  0  0  0
  190.8790  177.6230  144.5810 C   0  0  0  0  0  2  0  0  0  0  0  0
  190.3290  174.9530  143.7140 C   0  0  2  0  0  3  0  0  0  0  0  0
  191.7920  175.4010  143.8370 C   0  0  0  0  0  2  0  0  0  0  0  0
  189.4840  177.0500  144.9230 C   0  0  1  0  0  0  0  0  0  0  0  0
  189.4400  175.5010  144.8400 C   0  0  0  0  0  2  0  0  0  0  0  0
  191.9920  176.5980  144.7720 C   0  0  0  0  0  2  0  0  0  0  0  0
  189.0600  177.5170  146.1970 O   0  0  0  0  0  0  0  0  0  0  0  0
  190.1150  177.4340  147.1240 C   0  0  0  0  0  1  0  0  0  0  0  0
  188.5330  177.6260  143.8690 C   0  0  0  0  0  2  0  0  0  0  0  0
  187.0700  177.2840  144.1310 C   0  0  0  0  0  2  0  0  0  0  0  0
  186.2570  178.5420  144.3750 C   0  0  0  0  0  2  0  0  0  0  0  0
  185.4590  178.4030  145.6600 C   0  0  0  0  0  2  0  0  0  0  0  0
  184.0580  178.6980  145.4030 N   0  0  0  0  0  2  0  0  0  0  0  0
  183.9280  178.9530  143.9790 C   0  0  0  0  0  2  0  0  0  0  0  0
  182.6200  178.6830  143.5780 O   0  0  0  0  0  0  0  0  0  0  0  0
  182.4870  179.3380  142.3530 C   0  0  0  0  0  2  0  0  0  0  0  0
  181.4170  178.6550  141.5160 C   0  0  2  0  0  3  0  0  0  0  0  0
  182.0410  178.0750  140.2870 C   0  0  0  0  0  3  0  0  0  0  0  0
  183.2270  177.7860  140.2710 O   0  0  0  0  0  0  0  0  0  0  0  0
  180.3530  179.6670  141.1220 C   0  0  0  0  0  2  0  0  0  0  0  0
  177.6930  180.0830  141.1820 O   0  0  0  0  0  0  0  0  0  0  0  0
  178.4670  177.9190  140.3220 O   0  0  0  0  0  0  0  0  0  0  0  0
  178.7160  178.9920  141.3440 S   0  0  0  0  0  0  0  0  0  0  0  0
  177.9620  176.9250  142.9150 C   0  0  0  0  0  1  0  0  0  0  0  0
  178.5950  178.2990  142.9780 C   0  0  0  0  0  2  0  0  0  0  0  0
  190.0850  171.6650  140.0490 C   0  0  0  0  0  2  0  0  0  0  0  0
  190.4980  172.5340  138.9550 N   0  0  0  0  0  0  0  0  0  0  0  0
  189.7300  172.2070  137.8520 O   0  0  0  0  0  0  0  0  0  0  0  0
  188.7210  174.2400  137.4160 O   0  0  0  0  0  0  0  0  0  0  0  0
  189.2800  172.9550  135.5640 N   0  0  0  0  0  2  0  0  0  0  0  0
  189.2400  173.1800  136.9720 C   0  0  0  0  0  0  0  0  0  0  0  0
  190.4790  170.8720  134.5460 C   0  0  0  0  0  3  0  0  0  0  0  0
  189.9200  171.8330  135.0160 C   0  0  0  0  0  0  0  0  0  0  0  0
  191.8690  172.1660  138.6280 C   0  0  0  0  0  2  0  0  0  0  0  0
  191.9620  170.6750  138.3390 C   0  0  0  0  0  2  0  0  0  0  0  0
  193.4080  170.2020  138.3820 C   0  0  1  0  0  3  0  0  0  0  0  0
  193.7150  169.5420  137.1910 O   0  0  0  0  0  1  0  0  0  0  0  0
  194.2790  171.3620  138.5200 N   0  0  0  0  0  2  0  0  0  0  0  0
  194.3640  173.4650  139.7280 C   0  0  0  0  0  1  0  0  0  0  0  0
  193.9990  171.9950  139.8040 C   0  0  2  0  0  3  0  0  0  0  0  0
  194.7770  171.3400  140.9050 C   0  0  0  0  0  0  0  0  0  0  0  0
  195.3510  170.1240  140.7920 N   0  0  0  0  0  0  0  0  0  0  0  0
  195.7510  171.0430  142.7550 C   0  0  0  0  0  0  0  0  0  0  0  0
  195.0000  171.9400  142.0920 N   0  0  0  0  0  0  0  0  0  0  0  0
  195.9590  169.9240  141.9780 C   0  0  0  0  0  2  0  0  0  0  0  0
  196.5500  172.5080  144.8070 C   0  0  2  0  0  3  0  0  0  0  0  0
  196.6660  170.0790  144.8310 O   0  0  0  0  0  1  0  0  0  0  0  0
  196.2100  171.2200  144.1700 C   0  0  2  0  0  0  0  0  0  0  0  0
  195.2030  171.9240  144.9780 N   0  0  0  0  0  2  0  0  0  0  0  0
  195.5880  173.6000  142.9130 O   0  0  0  0  0  1  0  0  0  0  0  0
  196.5750  173.7600  143.8900 C   0  0  2  0  0  0  0  0  0  0  0  0
  197.7740  173.5070  141.8090 O   0  0  0  0  0  1  0  0  0  0  0  0
  197.9300  173.7590  143.1760 C   0  0  0  0  0  2  0  0  0  0  0  0
  196.3220  175.1100  144.6080 C   0  0  0  0  0  2  0  0  0  0  0  0
  196.1500  176.2940  143.7030 C   0  0  0  0  0  0  0  0  0  0  0  0
  197.2170  177.1550  143.4810 O   0  0  0  0  0  1  0  0  0  0  0  0
  195.0470  176.5100  143.1380 O   0  0  0  0  0  0  0  0  0  0  0  0
  1 35  1  6  0  0  0
  1  3  1  0  0  0  0
  1  4  1  0  0  0  0
  2  3  1  0  0  0  0
  4  5  1  1  0  0  0
  4  7  1  0  0  0  0
  5  6  1  0  0  0  0
  7  9  1  0  0  0  0
  9  8  1  1  0  0  0
 10 15  1  0  0  0  0
 10 13  1  0  0  0  0
 11  9  1  1  0  0  0
 11 12  1  0  0  0  0
 11 14  1  0  0  0  0
 12 15  1  0  0  0  0
 13 18  1  6  0  0  0
 13 16  1  0  0  0  0
 14 13  1  0  0  0  0
 16 17  1  0  0  0  0
 18 19  1  0  0  0  0
 19 20  1  0  0  0  0
 20 21  1  0  0  0  0
 22 21  1  0  0  0  0
 23 22  1  0  0  0  0
 24 23  1  0  0  0  0
 25 24  1  0  0  0  0
 26 27  1  6  0  0  0
 26 25  1  0  0  0  0
 28 27  2  0  0  0  0
 29 32  1  0  0  0  0
 29 26  1  0  0  0  0
 30 32  2  0  0  0  0
 31 32  2  0  0  0  0
 32 34  1  0  0  0  0
 33 34  1  0  0  0  0
 36 35  1  0  0  0  0
 37 36  1  0  0  0  0
 39 40  1  0  0  0  0
 40 38  2  0  0  0  0
 40 37  1  0  0  0  0
 41 42  3  0  0  0  0
 42 39  1  0  0  0  0
 43 36  1  0  0  0  0
 44 45  1  0  0  0  0
 44 43  1  0  0  0  0
 45 46  1  6  0  0  0
 45 47  1  0  0  0  0
 47 49  1  0  0  0  0
 49 48  1  6  0  0  0
 49 50  1  0  0  0  0
 50 53  1  0  0  0  0
 51 50  2  0  0  0  0
 51 54  1  0  0  0  0
 52 57  1  0  0  0  0
 53 52  2  0  0  0  0
 54 52  1  0  0  0  0
 55 60  1  6  0  0  0
 55 58  1  0  0  0  0
 57 55  1  0  0  0  0
 57 56  1  1  0  0  0
 57 58  1  0  0  0  0
 60 59  1  6  0  0  0
 60 63  1  0  0  0  0
 61 62  1  0  0  0  0
 62 60  1  0  0  0  0
 64 63  1  0  0  0  0
 65 64  1  0  0  0  0
 66 64  2  0  0  0  0
M  END
>  <MODEL>
6

>  <REMARK>
 VINA RESULT:      -2.2      4.162      9.400
  Name = 
  36 active torsions:
  status: ('A' for Active; 'I' for Inactive)
    1  A    between atoms: C_4  and  C_44
    2  A    between atoms: C_6  and  N_25
    3  A    between atoms: C_6  and  C_62
    4  A    between atoms: C_8  and  C_29
    5  A    between atoms: C_8  and  C_49
    6  A    between atoms: N_9  and  C_61
    7  A    between atoms: C_10  and  C_33
    8  A    between atoms: C_10  and  S_48
    9  A    between atoms: C_11  and  C_34
   10  A    between atoms: C_11  and  N_42
   11  A    between atoms: O_14  and  C_45
   12  A    between atoms: C_15  and  C_58
   13  A    between atoms: C_18  and  C_24
   14  A    between atoms: C_18  and  C_50
   15  A    between atoms: C_19  and  C_30
   16  A    between atoms: C_22  and  C_33
   17  A    between atoms: N_25  and  C_46
   18  A    between atoms: N_25  and  O_54
   19  A    between atoms: C_26  and  S_48
   20  A    between atoms: C_27  and  C_45
   21  A    between atoms: C_27  and  C_49
   22  A    between atoms: C_28  and  O_54
   23  A    between atoms: C_29  and  N_56
   24  A    between atoms: C_30  and  O_36
   25  A    between atoms: C_31  and  O_52
   26  A    between atoms: C_31  and  N_56
   27  A    between atoms: C_33  and  C_64
   28  A    between atoms: C_34  and  C_46
   29  A    between atoms: O_36  and  C_39
   30  A    between atoms: C_39  and  O_41
   31  A    between atoms: C_39  and  C_62
   32  A    between atoms: O_40  and  C_62
   33  A    between atoms: N_42  and  C_44
   34  A    between atoms: C_43  and  C_50
   35  A    between atoms: C_50  and  C_60
   36  A    between atoms: O_52  and  C_64
                            x       y       z     vdW  Elec       q    Type
                         _______ _______ _______ _____ _____    ______ ____

>  <TORSDO>
F 36

$$$$
=
 OpenBabel11042416193D

 66 68  0  0  1  0  0  0  0  0999 V2000
  193.0890  173.0830  144.3740 C   0  0  1  0  0  3  0  0  0  0  0  0
  190.9850  173.0930  145.0860 C   0  0  0  0  0  1  0  0  0  0  0  0
  192.1250  173.8920  144.9890 O   0  0  0  0  0  0  0  0  0  0  0  0
  193.0960  171.6910  145.0100 C   0  0  2  0  0  3  0  0  0  0  0  0
  194.2530  171.5030  145.7750 O   0  0  0  0  0  0  0  0  0  0  0  0
  194.8520  172.7580  145.8700 C   0  0  0  0  0  1  0  0  0  0  0  0
  193.0620  170.7250  143.9990 O   0  0  0  0  0  0  0  0  0  0  0  0
  192.9400  168.4550  144.7170 C   0  0  0  0  0  1  0  0  0  0  0  0
  193.8410  169.6500  144.4520 C   0  0  1  0  0  3  0  0  0  0  0  0
  197.4110  168.7500  142.1290 C   0  0  0  0  0  2  0  0  0  0  0  0
  194.9210  169.2740  143.4340 C   0  0  2  0  0  3  0  0  0  0  0  0
  195.8460  168.1960  144.0170 C   0  0  0  0  0  2  0  0  0  0  0  0
  196.7450  170.1140  141.8410 C   0  0  1  0  0  0  0  0  0  0  0  0
  195.6860  170.4970  142.9090 C   0  0  0  0  0  2  0  0  0  0  0  0
  197.3110  168.3500  143.5980 C   0  0  0  0  0  2  0  0  0  0  0  0
  197.7350  171.1250  141.7020 O   0  0  0  0  0  0  0  0  0  0  0  0
  197.4110  172.2400  142.4960 C   0  0  0  0  0  1  0  0  0  0  0  0
  196.0420  169.9520  140.4890 C   0  0  0  0  0  2  0  0  0  0  0  0
  195.1430  168.7230  140.4250 C   0  0  0  0  0  2  0  0  0  0  0  0
  194.7620  168.4070  138.9890 C   0  0  0  0  0  2  0  0  0  0  0  0
  193.2740  168.6350  138.7850 C   0  0  0  0  0  2  0  0  0  0  0  0
  193.0020  168.8720  137.3760 N   0  0  0  0  0  2  0  0  0  0  0  0
  194.1440  168.3750  136.6290 C   0  0  0  0  0  2  0  0  0  0  0  0
  195.1580  169.3310  136.6440 O   0  0  0  0  0  0  0  0  0  0  0  0
  195.0490  169.9770  135.4110 C   0  0  0  0  0  2  0  0  0  0  0  0
  195.6570  171.3670  135.5000 C   0  0  2  0  0  3  0  0  0  0  0  0
  197.0860  171.2600  135.9300 C   0  0  0  0  0  3  0  0  0  0  0  0
  197.9380  171.9760  135.4300 O   0  0  0  0  0  0  0  0  0  0  0  0
  194.8800  172.2010  136.5070 C   0  0  0  0  0  2  0  0  0  0  0  0
  194.7760  174.7850  137.2590 O   0  0  0  0  0  0  0  0  0  0  0  0
  196.1100  174.2520  135.2690 O   0  0  0  0  0  0  0  0  0  0  0  0
  194.8580  173.9210  136.0310 S   0  0  0  0  0  0  0  0  0  0  0  0
  192.7980  172.8990  134.6080 C   0  0  0  0  0  1  0  0  0  0  0  0
  193.4380  174.2150  134.9990 C   0  0  0  0  0  2  0  0  0  0  0  0
  192.8250  172.9900  142.8720 C   0  0  0  0  0  2  0  0  0  0  0  0
  193.7540  173.8380  142.1360 N   0  0  0  0  0  0  0  0  0  0  0  0
  193.7680  175.0750  142.7550 O   0  0  0  0  0  0  0  0  0  0  0  0
  195.2410  176.2080  141.3830 O   0  0  0  0  0  0  0  0  0  0  0  0
  195.3830  176.6820  143.6520 N   0  0  0  0  0  2  0  0  0  0  0  0
  194.7960  176.0010  142.5440 C   0  0  0  0  0  0  0  0  0  0  0  0
  194.4320  176.4270  146.0690 C   0  0  0  0  0  3  0  0  0  0  0  0
  194.8710  176.5500  144.9520 C   0  0  0  0  0  0  0  0  0  0  0  0
  193.1730  174.0420  140.8160 C   0  0  0  0  0  2  0  0  0  0  0  0
  191.6540  174.0370  140.9010 C   0  0  0  0  0  2  0  0  0  0  0  0
  191.0800  172.7690  140.2830 C   0  0  1  0  0  3  0  0  0  0  0  0
  192.1010  171.8320  140.1170 O   0  0  0  0  0  1  0  0  0  0  0  0
  190.0730  172.2200  141.1810 N   0  0  0  0  0  2  0  0  0  0  0  0
  188.6410  172.5410  139.2490 C   0  0  0  0  0  1  0  0  0  0  0  0
  188.7650  172.7020  140.7520 C   0  0  2  0  0  3  0  0  0  0  0  0
  188.5760  174.1420  141.1200 C   0  0  0  0  0  0  0  0  0  0  0  0
  189.2380  174.7470  142.1300 N   0  0  0  0  0  0  0  0  0  0  0  0
  187.9100  176.1450  141.0640 C   0  0  0  0  0  0  0  0  0  0  0  0
  187.7540  174.9650  140.4380 N   0  0  0  0  0  0  0  0  0  0  0  0
  188.8010  176.0220  142.1070 C   0  0  0  0  0  2  0  0  0  0  0  0
  186.2800  178.1490  141.6330 C   0  0  2  0  0  3  0  0  0  0  0  0
  186.9660  177.6500  139.3540 O   0  0  0  0  0  1  0  0  0  0  0  0
  187.1440  177.3850  140.7120 C   0  0  2  0  0  0  0  0  0  0  0  0
  187.6810  178.5630  141.4080 N   0  0  0  0  0  2  0  0  0  0  0  0
  186.5470  176.2350  143.0370 O   0  0  0  0  0  1  0  0  0  0  0  0
  186.0300  177.5340  143.0360 C   0  0  2  0  0  0  0  0  0  0  0  0
  183.8490  178.3380  142.3820 O   0  0  0  0  0  1  0  0  0  0  0  0
  184.5120  177.4220  143.2060 C   0  0  0  0  0  2  0  0  0  0  0  0
  186.6700  178.3030  144.2200 C   0  0  0  0  0  2  0  0  0  0  0  0
  186.5320  177.6450  145.5600 C   0  0  0  0  0  0  0  0  0  0  0  0
  185.4170  177.9060  146.3470 O   0  0  0  0  0  1  0  0  0  0  0  0
  187.4170  176.8540  145.9760 O   0  0  0  0  0  0  0  0  0  0  0  0
  1 35  1  6  0  0  0
  1  3  1  0  0  0  0
  1  4  1  0  0  0  0
  3  2  1  0  0  0  0
  4  7  1  6  0  0  0
  4  5  1  0  0  0  0
  5  6  1  0  0  0  0
  7  9  1  0  0  0  0
  9  8  1  6  0  0  0
 10 15  1  0  0  0  0
 11 12  1  0  0  0  0
 11  9  1  1  0  0  0
 13 18  1  6  0  0  0
 13 10  1  0  0  0  0
 13 14  1  0  0  0  0
 14 11  1  0  0  0  0
 15 12  1  0  0  0  0
 16 13  1  0  0  0  0
 16 17  1  0  0  0  0
 19 18  1  0  0  0  0
 20 19  1  0  0  0  0
 21 20  1  0  0  0  0
 22 21  1  0  0  0  0
 23 24  1  0  0  0  0
 23 22  1  0  0  0  0
 25 24  1  0  0  0  0
 26 25  1  1  0  0  0
 26 27  1  0  0  0  0
 26 29  1  0  0  0  0
 28 27  2  0  0  0  0
 31 32  2  0  0  0  0
 32 29  1  0  0  0  0
 32 30  2  0  0  0  0
 33 34  1  0  0  0  0
 34 32  1  0  0  0  0
 36 37  1  0  0  0  0
 36 35  1  0  0  0  0
 38 40  2  0  0  0  0
 39 42  1  0  0  0  0
 40 37  1  0  0  0  0
 40 39  1  0  0  0  0
 42 41  3  0  0  0  0
 43 44  1  0  0  0  0
 43 36  1  0  0  0  0
 45 46  1  1  0  0  0
 45 44  1  0  0  0  0
 45 47  1  0  0  0  0
 49 48  1  6  0  0  0
 49 50  1  0  0  0  0
 49 47  1  0  0  0  0
 50 51  2  0  0  0  0
 52 54  1  0  0  0  0
 53 52  2  0  0  0  0
 53 50  1  0  0  0  0
 54 51  1  0  0  0  0
 55 60  1  1  0  0  0
 57 56  1  6  0  0  0
 57 52  1  0  0  0  0
 57 58  1  0  0  0  0
 57 55  1  0  0  0  0
 58 55  1  0  0  0  0
 60 59  1  6  0  0  0
 60 62  1  0  0  0  0
 60 63  1  0  0  0  0
 61 62  1  0  0  0  0
 63 64  1  0  0  0  0
 64 66  2  0  0  0  0
 64 65  1  0  0  0  0
M  END
>  <MODEL>
7

>  <REMARK>
 VINA RESULT:      -1.9      2.725      8.889
  Name = 
  36 active torsions:
  status: ('A' for Active; 'I' for Inactive)
    1  A    between atoms: C_4  and  C_44
    2  A    between atoms: C_6  and  N_25
    3  A    between atoms: C_6  and  C_62
    4  A    between atoms: C_8  and  C_29
    5  A    between atoms: C_8  and  C_49
    6  A    between atoms: N_9  and  C_61
    7  A    between atoms: C_10  and  C_33
    8  A    between atoms: C_10  and  S_48
    9  A    between atoms: C_11  and  C_34
   10  A    between atoms: C_11  and  N_42
   11  A    between atoms: O_14  and  C_45
   12  A    between atoms: C_15  and  C_58
   13  A    between atoms: C_18  and  C_24
   14  A    between atoms: C_18  and  C_50
   15  A    between atoms: C_19  and  C_30
   16  A    between atoms: C_22  and  C_33
   17  A    between atoms: N_25  and  C_46
   18  A    between atoms: N_25  and  O_54
   19  A    between atoms: C_26  and  S_48
   20  A    between atoms: C_27  and  C_45
   21  A    between atoms: C_27  and  C_49
   22  A    between atoms: C_28  and  O_54
   23  A    between atoms: C_29  and  N_56
   24  A    between atoms: C_30  and  O_36
   25  A    between atoms: C_31  and  O_52
   26  A    between atoms: C_31  and  N_56
   27  A    between atoms: C_33  and  C_64
   28  A    between atoms: C_34  and  C_46
   29  A    between atoms: O_36  and  C_39
   30  A    between atoms: C_39  and  O_41
   31  A    between atoms: C_39  and  C_62
   32  A    between atoms: O_40  and  C_62
   33  A    between atoms: N_42  and  C_44
   34  A    between atoms: C_43  and  C_50
   35  A    between atoms: C_50  and  C_60
   36  A    between atoms: O_52  and  C_64
                            x       y       z     vdW  Elec       q    Type
                         _______ _______ _______ _____ _____    ______ ____

>  <TORSDO>
F 36

$$$$
