=
 OpenBabel11042416043D

 58 63  0  0  1  0  0  0  0  0999 V2000
  190.9800  178.2140  143.1240 N   0  0  0  0  0  0  0  0  0  0  0  0
  191.0550  175.8140  144.6680 C   0  0  2  0  0  3  0  0  0  0  0  0
  189.8330  176.7020  144.6290 C   0  0  0  0  0  0  0  0  0  0  0  0
  189.8270  177.8080  143.8710 C   0  0  0  0  0  3  0  0  0  0  0  0
  192.1140  177.5960  143.2260 C   0  0  0  0  0  3  0  0  0  0  0  0
  192.2570  176.4560  144.0860 N   0  0  0  0  0  0  0  0  0  0  0  0
  194.5400  175.7840  143.3840 C   0  0  0  0  0  3  0  0  0  0  0  0
  196.1330  174.9520  145.0010 C   0  0  0  0  0  3  0  0  0  0  0  0
  195.8120  175.2920  143.6860 C   0  0  0  0  0  0  0  0  0  0  0  0
  195.1900  175.1290  146.0120 C   0  0  0  0  0  3  0  0  0  0  0  0
  193.9240  175.6320  145.7100 C   0  0  0  0  0  3  0  0  0  0  0  0
  193.5740  175.9620  144.3910 C   0  0  0  0  0  0  0  0  0  0  0  0
  197.0090  174.9850  142.3830 S   0  0  0  0  0  0  0  0  0  0  0  0
  196.4400  173.3210  141.8720 C   0  0  2  0  0  0  0  0  0  0  0  0
  197.2970  172.2550  142.5640 C   0  0  0  0  0  2  0  0  0  0  0  0
  195.3010  170.8810  143.2440 N   0  0  0  0  0  0  0  0  0  0  0  0
  196.5790  173.1940  140.4870 O   0  0  0  0  0  1  0  0  0  0  0  0
  196.5800  170.9060  142.4990 C   0  0  0  0  0  2  0  0  0  0  0  0
  194.7150  172.2160  143.4680 C   0  0  0  0  0  2  0  0  0  0  0  0
  194.9480  173.1830  142.2940 C   0  0  2  0  0  3  0  0  0  0  0  0
  192.9080  172.1090  141.3000 C   0  0  0  0  0  3  0  0  0  0  0  0
  193.9480  173.0440  141.1670 C   0  0  0  0  0  0  0  0  0  0  0  0
  192.0020  172.8130  139.1680 C   0  0  0  0  0  3  0  0  0  0  0  0
  193.0260  173.7570  139.0410 C   0  0  0  0  0  3  0  0  0  0  0  0
  193.9890  173.8760  140.0410 C   0  0  0  0  0  3  0  0  0  0  0  0
  191.9370  171.9920  140.3020 C   0  0  0  0  0  3  0  0  0  0  0  0
  195.3620  170.2440  144.5720 C   0  0  2  0  0  3  0  0  0  0  0  0
  194.2370  169.2920  144.9060 C   0  0  0  0  0  0  0  0  0  0  0  0
  194.1870  168.6560  146.1480 O   0  0  0  0  0  1  0  0  0  0  0  0
  193.3530  169.0230  144.0430 O   0  0  0  0  0  0  0  0  0  0  0  0
  196.8560  171.4100  146.0520 O   0  0  0  0  0  1  0  0  0  0  0  0
  195.5190  171.3040  145.6590 C   0  0  0  0  0  2  0  0  0  0  0  0
  186.9360  177.3330  147.1440 N   0  0  0  0  0  0  0  0  0  0  0  0
  188.0230  177.0760  146.3270 C   0  0  0  0  0  0  0  0  0  0  0  0
  188.6520  176.2800  145.3220 N   0  0  0  0  0  2  0  0  0  0  0  0
  188.0610  178.1190  147.1750 N   0  0  0  0  0  0  0  0  0  0  0  0
  185.6600  177.0210  147.6340 N   0  0  0  0  0  2  0  0  0  0  0  0
  184.8590  178.2450  147.5910 C   0  0  0  0  0  2  0  0  0  0  0  0
  184.4510  178.5590  146.2140 C   0  0  0  0  0  0  0  0  0  0  0  0
  184.0820  178.8340  145.0980 C   0  0  0  0  0  0  0  0  0  0  0  0
  183.6220  179.1650  143.8150 N   0  0  0  0  0  2  0  0  0  0  0  0
  183.7740  178.3280  142.6860 N   0  0  0  0  0  0  0  0  0  0  0  0
  187.2560  176.4250  141.1510 C   0  0  0  0  0  0  0  0  0  0  0  0
  186.7810  176.0380  142.3400 C   0  0  0  0  0  3  0  0  0  0  0  0
  185.8980  176.9550  143.1530 C   0  0  0  0  0  2  0  0  0  0  0  0
  188.0810  175.6000  140.4560 F   0  0  0  0  0  0  0  0  0  0  0  0
  185.0600  177.8560  142.2650 C   0  0  0  0  0  0  0  0  0  0  0  0
  185.5470  178.2120  141.0650 C   0  0  0  0  0  3  0  0  0  0  0  0
  186.9130  177.7870  140.6050 C   0  0  0  0  0  2  0  0  0  0  0  0
  182.6130  178.1220  141.8090 C   0  0  0  0  0  2  0  0  0  0  0  0
  181.5740  179.0130  142.1780 O   0  0  0  0  0  0  0  0  0  0  0  0
  180.5010  180.0970  140.4440 O   0  0  0  0  0  0  0  0  0  0  0  0
  180.4590  179.2260  141.3590 C   0  0  0  0  0  0  0  0  0  0  0  0
  178.7670  177.6220  140.6620 C   0  0  0  0  0  2  0  0  0  0  0  0
  179.2230  178.4580  141.5850 C   0  0  0  0  0  0  0  0  0  0  0  0
  178.5380  178.5040  142.9100 C   0  0  0  0  0  1  0  0  0  0  0  0
  190.8540  173.6170  144.9460 C   0  0  0  0  0  1  0  0  0  0  0  0
  190.7840  174.6220  143.9840 O   0  0  0  0  0  0  0  0  0  0  0  0
  1  5  2  0  0  0  0
  1  4  1  0  0  0  0
  2 58  1  6  0  0  0
  3  2  1  0  0  0  0
  3 35  1  0  0  0  0
  4  3  2  0  0  0  0
  5  6  1  0  0  0  0
  6 12  1  0  0  0  0
  6  2  1  0  0  0  0
  7  9  2  0  0  0  0
  7 12  1  0  0  0  0
  8 10  2  0  0  0  0
  9  8  1  0  0  0  0
 11 10  1  0  0  0  0
 12 11  2  0  0  0  0
 13  9  1  0  0  0  0
 14 17  1  6  0  0  0
 14 20  1  0  0  0  0
 14 13  1  0  0  0  0
 14 15  1  0  0  0  0
 16 19  1  0  0  0  0
 16 27  1  0  0  0  0
 18 15  1  0  0  0  0
 18 16  1  0  0  0  0
 20 22  1  6  0  0  0
 20 19  1  0  0  0  0
 22 21  1  0  0  0  0
 23 26  1  0  0  0  0
 24 23  2  0  0  0  0
 24 25  1  0  0  0  0
 25 22  2  0  0  0  0
 26 21  2  0  0  0  0
 27 28  1  0  0  0  0
 27 32  1  1  0  0  0
 28 29  1  0  0  0  0
 30 28  2  0  0  0  0
 32 31  1  0  0  0  0
 33 36  1  0  0  0  0
 33 37  1  0  0  0  0
 34 33  1  0  0  0  0
 34 36  2  0  0  0  0
 35 34  1  0  0  0  0
 38 37  1  0  0  0  0
 39 38  1  0  0  0  0
 40 39  3  0  0  0  0
 41 40  1  0  0  0  0
 42 41  1  0  0  0  0
 43 44  2  0  0  0  0
 44 45  1  0  0  0  0
 46 43  1  0  0  0  0
 47 42  1  0  0  0  0
 47 45  1  0  0  0  0
 48 47  2  0  0  0  0
 49 48  1  0  0  0  0
 49 43  1  0  0  0  0
 50 51  1  0  0  0  0
 50 42  1  0  0  0  0
 52 53  2  0  0  0  0
 53 55  1  0  0  0  0
 53 51  1  0  0  0  0
 54 55  2  0  0  0  0
 55 56  1  0  0  0  0
 58 57  1  0  0  0  0
M  END
>  <MODEL>
1

>  <REMARK>
 VINA RESULT:      -7.1      0.000      0.000
  Name = 
  19 active torsions:
  status: ('A' for Active; 'I' for Inactive)
    1  A    between atoms: C_4  and  S_14
    2  A    between atoms: N_5  and  N_56
    3  A    between atoms: C_8  and  O_37
    4  A    between atoms: S_14  and  C_27
    5  A    between atoms: C_17  and  N_23
    6  A    between atoms: C_18  and  C_19
    7  A    between atoms: C_19  and  N_56
    8  A    between atoms: C_20  and  C_43
    9  A    between atoms: N_21  and  C_30
   10  A    between atoms: C_25  and  C_49
   11  A    between atoms: C_29  and  N_48
   12  A    between atoms: C_30  and  C_31
   13  A    between atoms: C_30  and  C_40
   14  A    between atoms: N_35  and  C_47
   15  A    between atoms: N_35  and  N_48
   16  A    between atoms: N_45  and  C_55
   17  A    between atoms: C_46  and  N_48
   18  A    between atoms: C_46  and  O_54
   19  A    between atoms: C_49  and  O_54
                            x       y       z     vdW  Elec       q    Type
                         _______ _______ _______ _____ _____    ______ ____

>  <TORSDO>
F 19

$$$$
=
 OpenBabel11042416043D

 58 63  0  0  1  0  0  0  0  0999 V2000
  184.1810  178.2830  141.5870 N   0  0  0  0  0  0  0  0  0  0  0  0
  186.8950  177.6080  142.1550 C   0  0  2  0  0  3  0  0  0  0  0  0
  186.3360  177.5580  140.7520 C   0  0  0  0  0  0  0  0  0  0  0  0
  185.0620  177.9070  140.5220 C   0  0  0  0  0  3  0  0  0  0  0  0
  184.5370  178.2020  142.8310 C   0  0  0  0  0  3  0  0  0  0  0  0
  185.8480  177.7450  143.1930 N   0  0  0  0  0  0  0  0  0  0  0  0
  187.2910  176.7090  144.9250 C   0  0  0  0  0  3  0  0  0  0  0  0
  186.6240  176.7070  147.2480 C   0  0  0  0  0  3  0  0  0  0  0  0
  187.5460  176.3700  146.2560 C   0  0  0  0  0  0  0  0  0  0  0  0
  185.4650  177.4030  146.9100 C   0  0  0  0  0  3  0  0  0  0  0  0
  185.2190  177.7510  145.5800 C   0  0  0  0  0  3  0  0  0  0  0  0
  186.1230  177.4040  144.5650 C   0  0  0  0  0  0  0  0  0  0  0  0
  188.9950  175.4050  146.6960 S   0  0  0  0  0  0  0  0  0  0  0  0
  189.9050  175.5360  145.1120 C   0  0  2  0  0  0  0  0  0  0  0  0
  190.6500  176.8740  145.0620 C   0  0  0  0  0  2  0  0  0  0  0  0
  192.7910  175.8180  144.2650 N   0  0  0  0  0  0  0  0  0  0  0  0
  188.9940  175.4770  144.0540 O   0  0  0  0  0  1  0  0  0  0  0  0
  191.7320  176.8120  143.9820 C   0  0  0  0  0  2  0  0  0  0  0  0
  192.3810  174.7600  145.2070 C   0  0  0  0  0  2  0  0  0  0  0  0
  190.9070  174.3470  145.0460 C   0  0  2  0  0  3  0  0  0  0  0  0
  189.4790  172.5760  143.9860 C   0  0  0  0  0  3  0  0  0  0  0  0
  190.6630  173.3300  143.9530 C   0  0  0  0  0  0  0  0  0  0  0  0
  190.1010  171.5100  141.9020 C   0  0  0  0  0  3  0  0  0  0  0  0
  191.2720  172.2720  141.8580 C   0  0  0  0  0  3  0  0  0  0  0  0
  191.5470  173.1830  142.8760 C   0  0  0  0  0  3  0  0  0  0  0  0
  189.1970  171.6650  142.9630 C   0  0  0  0  0  3  0  0  0  0  0  0
  194.0430  176.3760  144.8100 C   0  0  2  0  0  3  0  0  0  0  0  0
  195.3170  175.9580  144.1130 C   0  0  0  0  0  0  0  0  0  0  0  0
  195.7620  174.6360  144.1760 O   0  0  0  0  0  1  0  0  0  0  0  0
  196.0200  176.8140  143.5050 O   0  0  0  0  0  0  0  0  0  0  0  0
  194.4230  177.2830  147.0040 O   0  0  0  0  0  1  0  0  0  0  0  0
  194.1300  176.1060  146.3100 C   0  0  0  0  0  2  0  0  0  0  0  0
  186.9830  176.4060  137.0960 N   0  0  0  0  0  0  0  0  0  0  0  0
  186.7520  176.7180  138.4240 C   0  0  0  0  0  0  0  0  0  0  0  0
  187.2170  177.2410  139.6680 N   0  0  0  0  0  2  0  0  0  0  0  0
  185.7710  176.1610  137.6920 N   0  0  0  0  0  0  0  0  0  0  0  0
  187.8200  176.3320  135.9730 N   0  0  0  0  0  2  0  0  0  0  0  0
  188.1030  174.9180  135.7260 C   0  0  0  0  0  2  0  0  0  0  0  0
  189.1750  174.4350  136.6080 C   0  0  0  0  0  0  0  0  0  0  0  0
  190.0320  174.0420  137.3630 C   0  0  0  0  0  0  0  0  0  0  0  0
  191.0060  173.5970  138.2690 N   0  0  0  0  0  2  0  0  0  0  0  0
  192.3610  173.3950  137.9290 N   0  0  0  0  0  0  0  0  0  0  0  0
  195.7260  174.8430  140.0940 C   0  0  0  0  0  0  0  0  0  0  0  0
  194.5950  174.5810  140.7590 C   0  0  0  0  0  3  0  0  0  0  0  0
  193.2670  174.5520  140.0400 C   0  0  0  0  0  2  0  0  0  0  0  0
  196.9040  174.9050  140.7670 F   0  0  0  0  0  0  0  0  0  0  0  0
  193.4190  174.0880  138.6030 C   0  0  0  0  0  0  0  0  0  0  0  0
  194.5730  174.3400  137.9630 C   0  0  0  0  0  3  0  0  0  0  0  0
  195.6890  175.1120  138.6120 C   0  0  0  0  0  2  0  0  0  0  0  0
  192.6700  172.6250  136.7160 C   0  0  0  0  0  2  0  0  0  0  0  0
  193.1230  171.3310  137.0780 O   0  0  0  0  0  0  0  0  0  0  0  0
  192.5820  170.1390  138.9800 O   0  0  0  0  0  0  0  0  0  0  0  0
  192.3110  170.4350  137.7820 C   0  0  0  0  0  0  0  0  0  0  0  0
  191.3110  169.1320  135.9850 C   0  0  0  0  0  2  0  0  0  0  0  0
  191.1560  169.8100  137.1150 C   0  0  0  0  0  0  0  0  0  0  0  0
  189.8150  169.8100  137.7700 C   0  0  0  0  0  1  0  0  0  0  0  0
  189.0370  178.1490  141.8980 C   0  0  0  0  0  1  0  0  0  0  0  0
  187.7980  178.6750  142.2560 O   0  0  0  0  0  0  0  0  0  0  0  0
  1  5  2  0  0  0  0
  2 58  1  6  0  0  0
  2  6  1  0  0  0  0
  3  2  1  0  0  0  0
  4  3  2  0  0  0  0
  4  1  1  0  0  0  0
  5  6  1  0  0  0  0
  6 12  1  0  0  0  0
  7  9  1  0  0  0  0
  9 13  1  0  0  0  0
  9  8  2  0  0  0  0
 10  8  1  0  0  0  0
 11 10  2  0  0  0  0
 12  7  2  0  0  0  0
 12 11  1  0  0  0  0
 14 17  1  6  0  0  0
 14 13  1  0  0  0  0
 15 14  1  0  0  0  0
 16 27  1  0  0  0  0
 16 19  1  0  0  0  0
 18 16  1  0  0  0  0
 18 15  1  0  0  0  0
 20 22  1  6  0  0  0
 20 14  1  0  0  0  0
 20 19  1  0  0  0  0
 22 21  1  0  0  0  0
 23 26  1  0  0  0  0
 24 23  2  0  0  0  0
 24 25  1  0  0  0  0
 25 22  2  0  0  0  0
 26 21  2  0  0  0  0
 27 32  1  1  0  0  0
 28 29  1  0  0  0  0
 28 27  1  0  0  0  0
 30 28  2  0  0  0  0
 32 31  1  0  0  0  0
 33 36  1  0  0  0  0
 33 34  1  0  0  0  0
 34 35  1  0  0  0  0
 35  3  1  0  0  0  0
 36 34  2  0  0  0  0
 37 33  1  0  0  0  0
 38 37  1  0  0  0  0
 38 39  1  0  0  0  0
 39 40  3  0  0  0  0
 40 41  1  0  0  0  0
 42 41  1  0  0  0  0
 42 47  1  0  0  0  0
 43 44  2  0  0  0  0
 43 46  1  0  0  0  0
 45 44  1  0  0  0  0
 47 45  1  0  0  0  0
 48 47  2  0  0  0  0
 48 49  1  0  0  0  0
 49 43  1  0  0  0  0
 50 51  1  0  0  0  0
 50 42  1  0  0  0  0
 51 53  1  0  0  0  0
 53 52  2  0  0  0  0
 54 55  2  0  0  0  0
 55 56  1  0  0  0  0
 55 53  1  0  0  0  0
 57 58  1  0  0  0  0
M  END
>  <MODEL>
2

>  <REMARK>
 VINA RESULT:      -6.8      3.696      9.086
  Name = 
  19 active torsions:
  status: ('A' for Active; 'I' for Inactive)
    1  A    between atoms: C_4  and  S_14
    2  A    between atoms: N_5  and  N_56
    3  A    between atoms: C_8  and  O_37
    4  A    between atoms: S_14  and  C_27
    5  A    between atoms: C_17  and  N_23
    6  A    between atoms: C_18  and  C_19
    7  A    between atoms: C_19  and  N_56
    8  A    between atoms: C_20  and  C_43
    9  A    between atoms: N_21  and  C_30
   10  A    between atoms: C_25  and  C_49
   11  A    between atoms: C_29  and  N_48
   12  A    between atoms: C_30  and  C_31
   13  A    between atoms: C_30  and  C_40
   14  A    between atoms: N_35  and  C_47
   15  A    between atoms: N_35  and  N_48
   16  A    between atoms: N_45  and  C_55
   17  A    between atoms: C_46  and  N_48
   18  A    between atoms: C_46  and  O_54
   19  A    between atoms: C_49  and  O_54
                            x       y       z     vdW  Elec       q    Type
                         _______ _______ _______ _____ _____    ______ ____

>  <TORSDO>
F 19

$$$$
=
 OpenBabel11042416043D

 58 63  0  0  1  0  0  0  0  0999 V2000
  183.8350  178.1880  141.2840 N   0  0  0  0  0  0  0  0  0  0  0  0
  186.5780  177.6890  141.8950 C   0  0  2  0  0  3  0  0  0  0  0  0
  186.0420  177.5900  140.4850 C   0  0  0  0  0  0  0  0  0  0  0  0
  184.7520  177.8560  140.2340 C   0  0  0  0  0  3  0  0  0  0  0  0
  184.1780  178.1420  142.5330 C   0  0  0  0  0  3  0  0  0  0  0  0
  185.5100  177.7720  142.9170 N   0  0  0  0  0  0  0  0  0  0  0  0
  186.9550  176.7750  144.6710 C   0  0  0  0  0  3  0  0  0  0  0  0
  186.2920  176.8300  146.9950 C   0  0  0  0  0  3  0  0  0  0  0  0
  187.2110  176.4670  146.0100 C   0  0  0  0  0  0  0  0  0  0  0  0
  185.1330  177.5210  146.6420 C   0  0  0  0  0  3  0  0  0  0  0  0
  184.8860  177.8370  145.3050 C   0  0  0  0  0  3  0  0  0  0  0  0
  185.7880  177.4640  144.2960 C   0  0  0  0  0  0  0  0  0  0  0  0
  188.6590  175.5100  146.4700 S   0  0  0  0  0  0  0  0  0  0  0  0
  189.6400  175.7420  144.9410 C   0  0  2  0  0  0  0  0  0  0  0  0
  190.3700  177.0880  145.0030 C   0  0  0  0  0  2  0  0  0  0  0  0
  192.5590  176.1030  144.2500 N   0  0  0  0  0  0  0  0  0  0  0  0
  188.7810  175.7340  143.8400 O   0  0  0  0  0  1  0  0  0  0  0  0
  191.5010  177.1000  143.9750 C   0  0  0  0  0  2  0  0  0  0  0  0
  192.1200  174.9880  145.1090 C   0  0  0  0  0  2  0  0  0  0  0  0
  190.6600  174.5690  144.8560 C   0  0  2  0  0  3  0  0  0  0  0  0
  189.8490  172.3820  143.9280 C   0  0  0  0  0  3  0  0  0  0  0  0
  190.4810  173.6140  143.6960 C   0  0  0  0  0  0  0  0  0  0  0  0
  190.0220  171.8500  141.5720 C   0  0  0  0  0  3  0  0  0  0  0  0
  190.6360  173.0830  141.3350 C   0  0  0  0  0  3  0  0  0  0  0  0
  190.8560  173.9640  142.3920 C   0  0  0  0  0  3  0  0  0  0  0  0
  189.6210  171.4990  142.8680 C   0  0  0  0  0  3  0  0  0  0  0  0
  193.7760  176.6410  144.8860 C   0  0  2  0  0  3  0  0  0  0  0  0
  195.0920  176.1520  144.3240 C   0  0  0  0  0  0  0  0  0  0  0  0
  195.4790  176.4860  143.0250 O   0  0  0  0  0  0  0  0  0  0  0  0
  195.8350  175.3940  145.0090 O   0  0  0  0  0  1  0  0  0  0  0  0
  194.3730  177.4720  147.0620 O   0  0  0  0  0  1  0  0  0  0  0  0
  193.7180  176.4320  146.3970 C   0  0  0  0  0  2  0  0  0  0  0  0
  186.8150  176.3910  136.8690 N   0  0  0  0  0  0  0  0  0  0  0  0
  186.5480  176.7200  138.1860 C   0  0  0  0  0  0  0  0  0  0  0  0
  186.9570  177.3170  139.4170 N   0  0  0  0  0  2  0  0  0  0  0  0
  185.6230  176.0620  137.4650 N   0  0  0  0  0  0  0  0  0  0  0  0
  187.6650  176.3550  135.7540 N   0  0  0  0  0  2  0  0  0  0  0  0
  188.2650  175.0220  135.6990 C   0  0  0  0  0  2  0  0  0  0  0  0
  189.7300  175.1000  135.7800 C   0  0  0  0  0  0  0  0  0  0  0  0
  190.9330  175.2000  135.8290 C   0  0  0  0  0  0  0  0  0  0  0  0
  192.3280  175.3460  135.8640 N   0  0  0  0  0  2  0  0  0  0  0  0
  193.1720  174.6200  136.7330 N   0  0  0  0  0  0  0  0  0  0  0  0
  193.2300  170.4800  137.7160 C   0  0  0  0  0  0  0  0  0  0  0  0
  193.8260  170.8840  136.5880 C   0  0  0  0  0  3  0  0  0  0  0  0
  193.4370  172.1890  135.9350 C   0  0  0  0  0  2  0  0  0  0  0  0
  193.5660  169.2840  138.2630 F   0  0  0  0  0  0  0  0  0  0  0  0
  192.9920  173.2160  136.9600 C   0  0  0  0  0  0  0  0  0  0  0  0
  192.4180  172.7870  138.0960 C   0  0  0  0  0  3  0  0  0  0  0  0
  192.1600  171.3280  138.3520 C   0  0  0  0  0  2  0  0  0  0  0  0
  194.1100  175.3670  137.5810 C   0  0  0  0  0  2  0  0  0  0  0  0
  195.4400  174.9920  137.2620 O   0  0  0  0  0  0  0  0  0  0  0  0
  197.5450  175.0210  138.2120 O   0  0  0  0  0  0  0  0  0  0  0  0
  196.3530  174.6020  138.2490 C   0  0  0  0  0  0  0  0  0  0  0  0
  195.2870  174.1200  140.3840 C   0  0  0  0  0  2  0  0  0  0  0  0
  195.9340  173.6750  139.3130 C   0  0  0  0  0  0  0  0  0  0  0  0
  196.1060  172.2030  139.1430 C   0  0  0  0  0  1  0  0  0  0  0  0
  188.7060  178.3320  141.8120 C   0  0  0  0  0  1  0  0  0  0  0  0
  187.4110  178.8120  141.9950 O   0  0  0  0  0  0  0  0  0  0  0  0
  1  5  2  0  0  0  0
  2 58  1  6  0  0  0
  2  6  1  0  0  0  0
  3  2  1  0  0  0  0
  4  3  2  0  0  0  0
  4  1  1  0  0  0  0
  5  6  1  0  0  0  0
  6 12  1  0  0  0  0
  7  9  1  0  0  0  0
  9 13  1  0  0  0  0
  9  8  2  0  0  0  0
 10  8  1  0  0  0  0
 11 10  2  0  0  0  0
 12  7  2  0  0  0  0
 12 11  1  0  0  0  0
 14 17  1  6  0  0  0
 14 15  1  0  0  0  0
 14 13  1  0  0  0  0
 16 27  1  0  0  0  0
 16 19  1  0  0  0  0
 18 16  1  0  0  0  0
 18 15  1  0  0  0  0
 20 22  1  6  0  0  0
 20 14  1  0  0  0  0
 20 19  1  0  0  0  0
 22 21  1  0  0  0  0
 23 26  1  0  0  0  0
 24 23  2  0  0  0  0
 24 25  1  0  0  0  0
 25 22  2  0  0  0  0
 26 21  2  0  0  0  0
 27 32  1  1  0  0  0
 28 27  1  0  0  0  0
 28 30  1  0  0  0  0
 29 28  2  0  0  0  0
 32 31  1  0  0  0  0
 33 36  1  0  0  0  0
 33 34  1  0  0  0  0
 34 35  1  0  0  0  0
 35  3  1  0  0  0  0
 36 34  2  0  0  0  0
 37 33  1  0  0  0  0
 38 37  1  0  0  0  0
 38 39  1  0  0  0  0
 39 40  3  0  0  0  0
 40 41  1  0  0  0  0
 41 42  1  0  0  0  0
 42 47  1  0  0  0  0
 42 50  1  0  0  0  0
 43 46  1  0  0  0  0
 43 49  1  0  0  0  0
 44 43  2  0  0  0  0
 45 44  1  0  0  0  0
 45 47  1  0  0  0  0
 47 48  2  0  0  0  0
 48 49  1  0  0  0  0
 51 50  1  0  0  0  0
 51 53  1  0  0  0  0
 52 53  2  0  0  0  0
 53 55  1  0  0  0  0
 55 54  2  0  0  0  0
 56 55  1  0  0  0  0
 57 58  1  0  0  0  0
M  END
>  <MODEL>
3

>  <REMARK>
 VINA RESULT:      -6.7      3.743      9.735
  Name = 
  19 active torsions:
  status: ('A' for Active; 'I' for Inactive)
    1  A    between atoms: C_4  and  S_14
    2  A    between atoms: N_5  and  N_56
    3  A    between atoms: C_8  and  O_37
    4  A    between atoms: S_14  and  C_27
    5  A    between atoms: C_17  and  N_23
    6  A    between atoms: C_18  and  C_19
    7  A    between atoms: C_19  and  N_56
    8  A    between atoms: C_20  and  C_43
    9  A    between atoms: N_21  and  C_30
   10  A    between atoms: C_25  and  C_49
   11  A    between atoms: C_29  and  N_48
   12  A    between atoms: C_30  and  C_31
   13  A    between atoms: C_30  and  C_40
   14  A    between atoms: N_35  and  C_47
   15  A    between atoms: N_35  and  N_48
   16  A    between atoms: N_45  and  C_55
   17  A    between atoms: C_46  and  N_48
   18  A    between atoms: C_46  and  O_54
   19  A    between atoms: C_49  and  O_54
                            x       y       z     vdW  Elec       q    Type
                         _______ _______ _______ _____ _____    ______ ____

>  <TORSDO>
F 19

$$$$
=
 OpenBabel11042416043D

 58 63  0  0  1  0  0  0  0  0999 V2000
  187.7970  175.8400  140.6140 N   0  0  0  0  0  0  0  0  0  0  0  0
  189.9540  174.5050  141.9210 C   0  0  2  0  0  3  0  0  0  0  0  0
  189.4760  175.8700  142.3600 C   0  0  0  0  0  0  0  0  0  0  0  0
  188.4420  176.4540  141.7360 C   0  0  0  0  0  3  0  0  0  0  0  0
  188.2440  174.7470  140.0800 C   0  0  0  0  0  3  0  0  0  0  0  0
  189.4050  174.0910  140.6090 N   0  0  0  0  0  0  0  0  0  0  0  0
  191.4300  173.0240  139.6520 C   0  0  0  0  0  3  0  0  0  0  0  0
  191.2520  171.0240  138.3070 C   0  0  0  0  0  3  0  0  0  0  0  0
  192.0360  172.0160  138.8970 C   0  0  0  0  0  0  0  0  0  0  0  0
  189.8710  171.0280  138.4930 C   0  0  0  0  0  3  0  0  0  0  0  0
  189.2710  172.0300  139.2580 C   0  0  0  0  0  3  0  0  0  0  0  0
  190.0380  173.0480  139.8440 C   0  0  0  0  0  0  0  0  0  0  0  0
  193.8030  172.0420  138.5830 S   0  0  0  0  0  0  0  0  0  0  0  0
  193.7760  172.7860  136.9100 C   0  0  2  0  0  0  0  0  0  0  0  0
  192.5320  172.3020  136.1570 C   0  0  0  0  0  2  0  0  0  0  0  0
  191.9360  174.6130  135.3570 N   0  0  0  0  0  0  0  0  0  0  0  0
  194.9190  172.3880  136.2120 O   0  0  0  0  0  1  0  0  0  0  0  0
  192.2680  173.2240  134.9660 C   0  0  0  0  0  2  0  0  0  0  0  0
  192.3970  174.9780  136.7090 C   0  0  0  0  0  2  0  0  0  0  0  0
  193.7440  174.3330  137.0830 C   0  0  2  0  0  3  0  0  0  0  0  0
  196.1770  174.9280  137.2480 C   0  0  0  0  0  3  0  0  0  0  0  0
  194.9540  175.0850  136.5750 C   0  0  0  0  0  0  0  0  0  0  0  0
  197.2560  176.3620  135.6210 C   0  0  0  0  0  3  0  0  0  0  0  0
  196.0430  176.5060  134.9400 C   0  0  0  0  0  3  0  0  0  0  0  0
  194.9010  175.8630  135.4110 C   0  0  0  0  0  3  0  0  0  0  0  0
  197.3270  175.5670  136.7730 C   0  0  0  0  0  3  0  0  0  0  0  0
  190.5000  174.9460  135.3220 C   0  0  2  0  0  3  0  0  0  0  0  0
  190.1540  176.3490  134.8760 C   0  0  0  0  0  0  0  0  0  0  0  0
  188.8230  176.7650  134.8070 O   0  0  0  0  0  1  0  0  0  0  0  0
  191.0650  177.1450  134.5140 O   0  0  0  0  0  0  0  0  0  0  0  0
  188.5970  174.0390  136.4780 O   0  0  0  0  0  1  0  0  0  0  0  0
  189.8510  174.6260  136.6650 C   0  0  0  0  0  2  0  0  0  0  0  0
  189.3380  177.0090  146.0740 N   0  0  0  0  0  0  0  0  0  0  0  0
  189.3480  176.6940  144.7270 C   0  0  0  0  0  0  0  0  0  0  0  0
  190.0710  176.4710  143.5160 N   0  0  0  0  0  2  0  0  0  0  0  0
  188.1770  176.7590  145.3860 N   0  0  0  0  0  0  0  0  0  0  0  0
  189.9910  177.3690  147.2620 N   0  0  0  0  0  2  0  0  0  0  0  0
  190.7100  176.1910  147.7450 C   0  0  0  0  0  2  0  0  0  0  0  0
  192.1050  176.1980  147.2810 C   0  0  0  0  0  0  0  0  0  0  0  0
  193.2510  176.1630  146.9020 C   0  0  0  0  0  0  0  0  0  0  0  0
  194.5830  176.0880  146.4690 N   0  0  0  0  0  2  0  0  0  0  0  0
  195.0100  175.3080  145.3720 N   0  0  0  0  0  0  0  0  0  0  0  0
  194.6390  175.9830  141.1870 C   0  0  0  0  0  0  0  0  0  0  0  0
  195.8330  176.1570  141.7650 C   0  0  0  0  0  3  0  0  0  0  0  0
  195.9400  176.4220  143.2480 C   0  0  0  0  0  2  0  0  0  0  0  0
  194.5630  175.7860  139.8460 F   0  0  0  0  0  0  0  0  0  0  0  0
  194.8230  175.7440  144.0200 C   0  0  0  0  0  0  0  0  0  0  0  0
  193.6400  175.5570  143.4110 C   0  0  0  0  0  3  0  0  0  0  0  0
  193.3800  176.0470  142.0130 C   0  0  0  0  0  2  0  0  0  0  0  0
  195.4560  173.9310  145.6250 C   0  0  0  0  0  2  0  0  0  0  0  0
  194.3500  173.0480  145.5240 O   0  0  0  0  0  0  0  0  0  0  0  0
  195.1010  170.9060  145.9470 O   0  0  0  0  0  0  0  0  0  0  0  0
  194.5100  171.7040  145.1670 C   0  0  0  0  0  0  0  0  0  0  0  0
  193.1980  170.1860  143.7880 C   0  0  0  0  0  2  0  0  0  0  0  0
  194.0190  171.2270  143.8630 C   0  0  0  0  0  0  0  0  0  0  0  0
  194.3240  171.9870  142.6160 C   0  0  0  0  0  1  0  0  0  0  0  0
  190.8140  173.0830  143.4000 C   0  0  0  0  0  1  0  0  0  0  0  0
  189.6060  173.5580  142.8940 O   0  0  0  0  0  0  0  0  0  0  0  0
  1  4  1  0  0  0  0
  2  3  1  0  0  0  0
  2 58  1  1  0  0  0
  3 35  1  0  0  0  0
  4  3  2  0  0  0  0
  5  6  1  0  0  0  0
  5  1  2  0  0  0  0
  6  2  1  0  0  0  0
  7 12  1  0  0  0  0
  8 10  2  0  0  0  0
  8  9  1  0  0  0  0
  9  7  2  0  0  0  0
 10 11  1  0  0  0  0
 11 12  2  0  0  0  0
 12  6  1  0  0  0  0
 13  9  1  0  0  0  0
 14 17  1  6  0  0  0
 14 20  1  0  0  0  0
 14 13  1  0  0  0  0
 15 14  1  0  0  0  0
 16 19  1  0  0  0  0
 18 16  1  0  0  0  0
 18 15  1  0  0  0  0
 19 20  1  0  0  0  0
 20 22  1  6  0  0  0
 22 21  2  0  0  0  0
 23 26  2  0  0  0  0
 24 25  2  0  0  0  0
 24 23  1  0  0  0  0
 25 22  1  0  0  0  0
 26 21  1  0  0  0  0
 27 16  1  0  0  0  0
 27 32  1  1  0  0  0
 28 27  1  0  0  0  0
 29 28  1  0  0  0  0
 30 28  2  0  0  0  0
 31 32  1  0  0  0  0
 33 37  1  0  0  0  0
 34 36  2  0  0  0  0
 34 33  1  0  0  0  0
 35 34  1  0  0  0  0
 36 33  1  0  0  0  0
 37 38  1  0  0  0  0
 39 38  1  0  0  0  0
 40 39  3  0  0  0  0
 41 40  1  0  0  0  0
 42 50  1  0  0  0  0
 42 41  1  0  0  0  0
 43 44  2  0  0  0  0
 43 49  1  0  0  0  0
 44 45  1  0  0  0  0
 45 47  1  0  0  0  0
 46 43  1  0  0  0  0
 47 42  1  0  0  0  0
 48 47  2  0  0  0  0
 49 48  1  0  0  0  0
 51 50  1  0  0  0  0
 53 51  1  0  0  0  0
 53 52  2  0  0  0  0
 54 55  2  0  0  0  0
 55 53  1  0  0  0  0
 56 55  1  0  0  0  0
 58 57  1  0  0  0  0
M  END
>  <MODEL>
4

>  <REMARK>
 VINA RESULT:      -6.6      4.258      9.263
  Name = 
  19 active torsions:
  status: ('A' for Active; 'I' for Inactive)
    1  A    between atoms: C_4  and  S_14
    2  A    between atoms: N_5  and  N_56
    3  A    between atoms: C_8  and  O_37
    4  A    between atoms: S_14  and  C_27
    5  A    between atoms: C_17  and  N_23
    6  A    between atoms: C_18  and  C_19
    7  A    between atoms: C_19  and  N_56
    8  A    between atoms: C_20  and  C_43
    9  A    between atoms: N_21  and  C_30
   10  A    between atoms: C_25  and  C_49
   11  A    between atoms: C_29  and  N_48
   12  A    between atoms: C_30  and  C_31
   13  A    between atoms: C_30  and  C_40
   14  A    between atoms: N_35  and  C_47
   15  A    between atoms: N_35  and  N_48
   16  A    between atoms: N_45  and  C_55
   17  A    between atoms: C_46  and  N_48
   18  A    between atoms: C_46  and  O_54
   19  A    between atoms: C_49  and  O_54
                            x       y       z     vdW  Elec       q    Type
                         _______ _______ _______ _____ _____    ______ ____

>  <TORSDO>
F 19

$$$$
=
 OpenBabel11042416043D

 58 63  0  0  1  0  0  0  0  0999 V2000
  192.7830  175.6980  144.3360 N   0  0  0  0  0  0  0  0  0  0  0  0
  190.9520  173.5160  144.1610 C   0  0  2  0  0  3  0  0  0  0  0  0
  190.7300  174.6720  145.1090 C   0  0  0  0  0  0  0  0  0  0  0  0
  191.6000  175.6910  145.1440 C   0  0  0  0  0  3  0  0  0  0  0  0
  193.1260  174.6770  143.6150 C   0  0  0  0  0  3  0  0  0  0  0  0
  192.3140  173.4940  143.5820 N   0  0  0  0  0  0  0  0  0  0  0  0
  194.1110  172.2700  142.3860 C   0  0  0  0  0  3  0  0  0  0  0  0
  193.8540  169.9310  141.8330 C   0  0  0  0  0  3  0  0  0  0  0  0
  194.6160  171.1000  141.8130 C   0  0  0  0  0  0  0  0  0  0  0  0
  192.6020  169.9300  142.4460 C   0  0  0  0  0  3  0  0  0  0  0  0
  192.1050  171.0970  143.0280 C   0  0  0  0  0  3  0  0  0  0  0  0
  192.8470  172.2890  143.0010 C   0  0  0  0  0  0  0  0  0  0  0  0
  196.1910  171.1060  140.9510 S   0  0  0  0  0  0  0  0  0  0  0  0
  195.5740  171.3870  139.2500 C   0  0  2  0  0  0  0  0  0  0  0  0
  194.4690  170.3740  138.9340 C   0  0  0  0  0  2  0  0  0  0  0  0
  192.9360  172.1230  137.9730 N   0  0  0  0  0  0  0  0  0  0  0  0
  196.6260  171.2170  138.3470 O   0  0  0  0  0  1  0  0  0  0  0  0
  193.6650  170.8580  137.7270 C   0  0  0  0  0  2  0  0  0  0  0  0
  193.4860  172.9220  139.0830 C   0  0  0  0  0  2  0  0  0  0  0  0
  195.0200  172.8410  139.1850 C   0  0  2  0  0  3  0  0  0  0  0  0
  195.2630  173.9890  136.9660 C   0  0  0  0  0  3  0  0  0  0  0  0
  195.7540  173.7930  138.2670 C   0  0  0  0  0  0  0  0  0  0  0  0
  197.0020  175.6240  136.5560 C   0  0  0  0  0  3  0  0  0  0  0  0
  197.4830  175.4430  137.8560 C   0  0  0  0  0  3  0  0  0  0  0  0
  196.8550  174.5380  138.7090 C   0  0  0  0  0  3  0  0  0  0  0  0
  195.8860  174.9020  136.1100 C   0  0  0  0  0  3  0  0  0  0  0  0
  191.4990  171.9690  138.2640 C   0  0  2  0  0  3  0  0  0  0  0  0
  190.5510  172.7040  137.3430 C   0  0  0  0  0  0  0  0  0  0  0  0
  190.4690  174.0970  137.3710 O   0  0  0  0  0  1  0  0  0  0  0  0
  189.7860  172.0590  136.5710 O   0  0  0  0  0  0  0  0  0  0  0  0
  190.1580  171.5480  140.2150 O   0  0  0  0  0  1  0  0  0  0  0  0
  191.2170  172.3160  139.7240 C   0  0  0  0  0  2  0  0  0  0  0  0
  187.6580  176.5610  146.5620 N   0  0  0  0  0  0  0  0  0  0  0  0
  188.8030  175.9180  146.1270 C   0  0  0  0  0  0  0  0  0  0  0  0
  189.5230  174.7100  145.8800 N   0  0  0  0  0  2  0  0  0  0  0  0
  188.7500  177.2620  146.1130 N   0  0  0  0  0  0  0  0  0  0  0  0
  186.3650  176.5470  147.1050 N   0  0  0  0  0  2  0  0  0  0  0  0
  185.8870  177.9280  147.1410 C   0  0  0  0  0  2  0  0  0  0  0  0
  185.1550  178.2650  145.9110 C   0  0  0  0  0  0  0  0  0  0  0  0
  184.5700  178.5090  144.8840 C   0  0  0  0  0  0  0  0  0  0  0  0
  183.9080  178.7650  143.6730 N   0  0  0  0  0  2  0  0  0  0  0  0
  184.2650  178.1710  142.4420 N   0  0  0  0  0  0  0  0  0  0  0  0
  188.2970  176.8140  142.3300 C   0  0  0  0  0  0  0  0  0  0  0  0
  187.9670  177.9130  141.6420 C   0  0  0  0  0  3  0  0  0  0  0  0
  186.5340  178.1650  141.2320 C   0  0  0  0  0  2  0  0  0  0  0  0
  189.5960  176.5870  142.6530 F   0  0  0  0  0  0  0  0  0  0  0  0
  185.5550  177.5830  142.2350 C   0  0  0  0  0  0  0  0  0  0  0  0
  185.9170  176.4940  142.9330 C   0  0  0  0  0  3  0  0  0  0  0  0
  187.2380  175.8100  142.7090 C   0  0  0  0  0  2  0  0  0  0  0  0
  183.3700  178.3580  141.2920 C   0  0  0  0  0  2  0  0  0  0  0  0
  182.1270  177.7260  141.5500 O   0  0  0  0  0  0  0  0  0  0  0  0
  180.9900  179.5240  142.4490 O   0  0  0  0  0  0  0  0  0  0  0  0
  180.9560  178.4630  141.7630 C   0  0  0  0  0  0  0  0  0  0  0  0
  179.4560  177.9800  139.9070 C   0  0  0  0  0  2  0  0  0  0  0  0
  179.6760  177.9830  141.2160 C   0  0  0  0  0  0  0  0  0  0  0  0
  178.6570  177.3640  142.1130 C   0  0  0  0  0  1  0  0  0  0  0  0
  189.1190  172.5300  143.3770 C   0  0  0  0  0  1  0  0  0  0  0  0
  190.0050  173.5750  143.1290 O   0  0  0  0  0  0  0  0  0  0  0  0
  1  4  1  0  0  0  0
  2 58  1  6  0  0  0
  2  3  1  0  0  0  0
  3  4  2  0  0  0  0
  3 35  1  0  0  0  0
  5  1  2  0  0  0  0
  6  5  1  0  0  0  0
  6  2  1  0  0  0  0
  7 12  1  0  0  0  0
  8 10  2  0  0  0  0
  9  8  1  0  0  0  0
  9  7  2  0  0  0  0
 10 11  1  0  0  0  0
 12 11  2  0  0  0  0
 12  6  1  0  0  0  0
 13  9  1  0  0  0  0
 14 17  1  6  0  0  0
 14 13  1  0  0  0  0
 15 14  1  0  0  0  0
 16 27  1  0  0  0  0
 16 19  1  0  0  0  0
 18 16  1  0  0  0  0
 18 15  1  0  0  0  0
 19 20  1  0  0  0  0
 20 22  1  6  0  0  0
 20 14  1  0  0  0  0
 21 22  1  0  0  0  0
 22 25  2  0  0  0  0
 23 24  2  0  0  0  0
 24 25  1  0  0  0  0
 26 23  1  0  0  0  0
 26 21  2  0  0  0  0
 27 32  1  1  0  0  0
 28 29  1  0  0  0  0
 28 27  1  0  0  0  0
 30 28  2  0  0  0  0
 32 31  1  0  0  0  0
 33 37  1  0  0  0  0
 34 33  1  0  0  0  0
 35 34  1  0  0  0  0
 36 34  2  0  0  0  0
 36 33  1  0  0  0  0
 37 38  1  0  0  0  0
 39 38  1  0  0  0  0
 40 39  3  0  0  0  0
 41 40  1  0  0  0  0
 42 41  1  0  0  0  0
 43 46  1  0  0  0  0
 43 49  1  0  0  0  0
 44 43  2  0  0  0  0
 45 44  1  0  0  0  0
 45 47  1  0  0  0  0
 47 42  1  0  0  0  0
 47 48  2  0  0  0  0
 49 48  1  0  0  0  0
 50 51  1  0  0  0  0
 50 42  1  0  0  0  0
 51 53  1  0  0  0  0
 53 52  2  0  0  0  0
 54 55  2  0  0  0  0
 55 53  1  0  0  0  0
 55 56  1  0  0  0  0
 58 57  1  0  0  0  0
M  END
>  <MODEL>
5

>  <REMARK>
 VINA RESULT:      -6.4      2.642      4.314
  Name = 
  19 active torsions:
  status: ('A' for Active; 'I' for Inactive)
    1  A    between atoms: C_4  and  S_14
    2  A    between atoms: N_5  and  N_56
    3  A    between atoms: C_8  and  O_37
    4  A    between atoms: S_14  and  C_27
    5  A    between atoms: C_17  and  N_23
    6  A    between atoms: C_18  and  C_19
    7  A    between atoms: C_19  and  N_56
    8  A    between atoms: C_20  and  C_43
    9  A    between atoms: N_21  and  C_30
   10  A    between atoms: C_25  and  C_49
   11  A    between atoms: C_29  and  N_48
   12  A    between atoms: C_30  and  C_31
   13  A    between atoms: C_30  and  C_40
   14  A    between atoms: N_35  and  C_47
   15  A    between atoms: N_35  and  N_48
   16  A    between atoms: N_45  and  C_55
   17  A    between atoms: C_46  and  N_48
   18  A    between atoms: C_46  and  O_54
   19  A    between atoms: C_49  and  O_54
                            x       y       z     vdW  Elec       q    Type
                         _______ _______ _______ _____ _____    ______ ____

>  <TORSDO>
F 19

$$$$
=
 OpenBabel11042416043D

 58 63  0  0  1  0  0  0  0  0999 V2000
  191.5920  176.5970  142.9860 N   0  0  0  0  0  0  0  0  0  0  0  0
  189.7220  174.4410  142.9480 C   0  0  2  0  0  3  0  0  0  0  0  0
  189.5130  175.6660  143.8080 C   0  0  0  0  0  0  0  0  0  0  0  0
  190.4020  176.6700  143.7790 C   0  0  0  0  0  3  0  0  0  0  0  0
  191.9230  175.5200  142.3440 C   0  0  0  0  0  3  0  0  0  0  0  0
  191.0900  174.3520  142.3870 N   0  0  0  0  0  0  0  0  0  0  0  0
  191.7970  172.0040  142.7630 C   0  0  0  0  0  3  0  0  0  0  0  0
  192.6570  170.6670  140.9420 C   0  0  0  0  0  3  0  0  0  0  0  0
  192.3110  170.7950  142.2880 C   0  0  0  0  0  0  0  0  0  0  0  0
  192.4670  171.7400  140.0730 C   0  0  0  0  0  3  0  0  0  0  0  0
  191.9430  172.9430  140.5480 C   0  0  0  0  0  3  0  0  0  0  0  0
  191.6060  173.0990  141.9020 C   0  0  0  0  0  0  0  0  0  0  0  0
  192.6350  169.4320  143.4110 S   0  0  0  0  0  0  0  0  0  0  0  0
  194.4480  169.6290  143.5690 C   0  0  2  0  0  0  0  0  0  0  0  0
  194.9860  170.3920  142.3540 C   0  0  0  0  0  2  0  0  0  0  0  0
  196.3900  171.9360  143.7610 N   0  0  0  0  0  0  0  0  0  0  0  0
  195.0440  168.3660  143.6190 O   0  0  0  0  0  1  0  0  0  0  0  0
  196.3800  170.9340  142.6710 C   0  0  0  0  0  2  0  0  0  0  0  0
  195.2160  171.8620  144.6500 C   0  0  0  0  0  2  0  0  0  0  0  0
  194.7230  170.4220  144.8800 C   0  0  2  0  0  3  0  0  0  0  0  0
  196.8400  169.9250  146.1340 C   0  0  0  0  0  3  0  0  0  0  0  0
  195.4680  169.6770  145.9650 C   0  0  0  0  0  0  0  0  0  0  0  0
  196.8810  168.4140  148.0250 C   0  0  0  0  0  3  0  0  0  0  0  0
  195.5120  168.1780  147.8710 C   0  0  0  0  0  3  0  0  0  0  0  0
  194.8080  168.8140  146.8500 C   0  0  0  0  0  3  0  0  0  0  0  0
  197.5470  169.2940  147.1610 C   0  0  0  0  0  3  0  0  0  0  0  0
  196.4670  173.3410  143.3180 C   0  0  2  0  0  3  0  0  0  0  0  0
  196.9360  174.3390  144.3520 C   0  0  0  0  0  0  0  0  0  0  0  0
  196.3190  175.5860  144.4680 O   0  0  0  0  0  0  0  0  0  0  0  0
  197.9270  174.0730  145.0900 O   0  0  0  0  0  1  0  0  0  0  0  0
  195.2700  173.9670  141.3290 O   0  0  0  0  0  1  0  0  0  0  0  0
  195.1380  173.7750  142.7070 C   0  0  0  0  0  2  0  0  0  0  0  0
  187.5340  176.8290  146.9450 N   0  0  0  0  0  0  0  0  0  0  0  0
  188.2600  176.3290  145.8790 C   0  0  0  0  0  0  0  0  0  0  0  0
  188.3000  175.7810  144.5610 N   0  0  0  0  0  2  0  0  0  0  0  0
  188.9020  176.7280  146.9910 N   0  0  0  0  0  0  0  0  0  0  0  0
  186.3200  177.1560  147.5670 N   0  0  0  0  0  2  0  0  0  0  0  0
  185.9980  178.5370  147.2060 C   0  0  0  0  0  2  0  0  0  0  0  0
  185.0110  178.5800  146.1180 C   0  0  0  0  0  0  0  0  0  0  0  0
  184.2270  178.6330  145.2000 C   0  0  0  0  0  0  0  0  0  0  0  0
  183.3400  178.7160  144.1170 N   0  0  0  0  0  2  0  0  0  0  0  0
  183.6490  178.2670  142.8140 N   0  0  0  0  0  0  0  0  0  0  0  0
  187.6780  177.9640  141.4810 C   0  0  0  0  0  0  0  0  0  0  0  0
  187.4390  178.4440  142.7060 C   0  0  0  0  0  3  0  0  0  0  0  0
  186.0920  179.0340  143.0540 C   0  0  0  0  0  2  0  0  0  0  0  0
  188.9090  177.4750  141.1790 F   0  0  0  0  0  0  0  0  0  0  0  0
  184.9720  178.3680  142.2750 C   0  0  0  0  0  0  0  0  0  0  0  0
  185.2420  177.8710  141.0560 C   0  0  0  0  0  3  0  0  0  0  0  0
  186.6020  178.0030  140.4270 C   0  0  0  0  0  2  0  0  0  0  0  0
  182.5410  177.8910  141.9240 C   0  0  0  0  0  2  0  0  0  0  0  0
  181.4300  178.7380  142.1650 O   0  0  0  0  0  0  0  0  0  0  0  0
  180.5720  178.6540  140.0230 O   0  0  0  0  0  0  0  0  0  0  0  0
  180.3710  178.8420  141.2560 C   0  0  0  0  0  0  0  0  0  0  0  0
  178.2060  179.9180  140.9690 C   0  0  0  0  0  2  0  0  0  0  0  0
  179.0260  179.2060  141.7320 C   0  0  0  0  0  0  0  0  0  0  0  0
  178.5100  178.6640  143.0230 C   0  0  0  0  0  1  0  0  0  0  0  0
  188.1790  173.1900  141.9500 C   0  0  0  0  0  1  0  0  0  0  0  0
  188.7870  174.4420  141.9050 O   0  0  0  0  0  0  0  0  0  0  0  0
  1  4  1  0  0  0  0
  2 58  1  6  0  0  0
  2  3  1  0  0  0  0
  3 35  1  0  0  0  0
  4  3  2  0  0  0  0
  5  6  1  0  0  0  0
  5  1  2  0  0  0  0
  6  2  1  0  0  0  0
  8  9  2  0  0  0  0
  9  7  1  0  0  0  0
  9 13  1  0  0  0  0
 10 11  2  0  0  0  0
 10  8  1  0  0  0  0
 11 12  1  0  0  0  0
 12  6  1  0  0  0  0
 12  7  2  0  0  0  0
 13 14  1  0  0  0  0
 14 17  1  1  0  0  0
 14 20  1  0  0  0  0
 15 18  1  0  0  0  0
 15 14  1  0  0  0  0
 16 19  1  0  0  0  0
 18 16  1  0  0  0  0
 19 20  1  0  0  0  0
 20 22  1  6  0  0  0
 21 26  1  0  0  0  0
 22 21  2  0  0  0  0
 22 25  1  0  0  0  0
 24 23  1  0  0  0  0
 25 24  2  0  0  0  0
 26 23  2  0  0  0  0
 27 32  1  1  0  0  0
 27 16  1  0  0  0  0
 27 28  1  0  0  0  0
 28 29  2  0  0  0  0
 28 30  1  0  0  0  0
 31 32  1  0  0  0  0
 33 36  1  0  0  0  0
 33 37  1  0  0  0  0
 34 33  1  0  0  0  0
 34 36  2  0  0  0  0
 35 34  1  0  0  0  0
 38 37  1  0  0  0  0
 39 38  1  0  0  0  0
 40 39  3  0  0  0  0
 41 40  1  0  0  0  0
 42 41  1  0  0  0  0
 43 44  2  0  0  0  0
 44 45  1  0  0  0  0
 46 43  1  0  0  0  0
 47 42  1  0  0  0  0
 47 45  1  0  0  0  0
 48 47  2  0  0  0  0
 49 48  1  0  0  0  0
 49 43  1  0  0  0  0
 50 51  1  0  0  0  0
 50 42  1  0  0  0  0
 52 53  2  0  0  0  0
 53 55  1  0  0  0  0
 53 51  1  0  0  0  0
 54 55  2  0  0  0  0
 55 56  1  0  0  0  0
 58 57  1  0  0  0  0
M  END
>  <MODEL>
6

>  <REMARK>
 VINA RESULT:      -6.4      2.009      4.367
  Name = 
  19 active torsions:
  status: ('A' for Active; 'I' for Inactive)
    1  A    between atoms: C_4  and  S_14
    2  A    between atoms: N_5  and  N_56
    3  A    between atoms: C_8  and  O_37
    4  A    between atoms: S_14  and  C_27
    5  A    between atoms: C_17  and  N_23
    6  A    between atoms: C_18  and  C_19
    7  A    between atoms: C_19  and  N_56
    8  A    between atoms: C_20  and  C_43
    9  A    between atoms: N_21  and  C_30
   10  A    between atoms: C_25  and  C_49
   11  A    between atoms: C_29  and  N_48
   12  A    between atoms: C_30  and  C_31
   13  A    between atoms: C_30  and  C_40
   14  A    between atoms: N_35  and  C_47
   15  A    between atoms: N_35  and  N_48
   16  A    between atoms: N_45  and  C_55
   17  A    between atoms: C_46  and  N_48
   18  A    between atoms: C_46  and  O_54
   19  A    between atoms: C_49  and  O_54
                            x       y       z     vdW  Elec       q    Type
                         _______ _______ _______ _____ _____    ______ ____

>  <TORSDO>
F 19

$$$$
=
 OpenBabel11042416043D

 58 63  0  0  1  0  0  0  0  0999 V2000
  196.0370  172.4840  145.1650 N   0  0  0  0  0  0  0  0  0  0  0  0
  194.0870  172.8240  143.1080 C   0  0  2  0  0  3  0  0  0  0  0  0
  195.3000  171.9410  142.9230 C   0  0  0  0  0  0  0  0  0  0  0  0
  196.1810  171.7860  143.9220 C   0  0  0  0  0  3  0  0  0  0  0  0
  195.1150  173.3760  145.3470 C   0  0  0  0  0  3  0  0  0  0  0  0
  194.1780  173.6900  144.3060 N   0  0  0  0  0  0  0  0  0  0  0  0
  192.6350  175.1290  145.6110 C   0  0  0  0  0  3  0  0  0  0  0  0
  191.7000  177.1350  144.6400 C   0  0  0  0  0  3  0  0  0  0  0  0
  191.8220  176.2600  145.7210 C   0  0  0  0  0  0  0  0  0  0  0  0
  192.4090  176.8900  143.4650 C   0  0  0  0  0  3  0  0  0  0  0  0
  193.2280  175.7640  143.3640 C   0  0  0  0  0  3  0  0  0  0  0  0
  193.3500  174.8610  144.4310 C   0  0  0  0  0  0  0  0  0  0  0  0
  190.8440  176.5470  147.1980 S   0  0  0  0  0  0  0  0  0  0  0  0
  189.2300  175.9350  146.5840 C   0  0  2  0  0  0  0  0  0  0  0  0
  188.1090  176.8340  147.1160 C   0  0  0  0  0  2  0  0  0  0  0  0
  186.9900  177.0160  144.8690 N   0  0  0  0  0  0  0  0  0  0  0  0
  189.0310  174.6310  147.0430 O   0  0  0  0  0  1  0  0  0  0  0  0
  186.8440  176.6120  146.2860 C   0  0  0  0  0  2  0  0  0  0  0  0
  188.3890  177.0680  144.4040 C   0  0  0  0  0  2  0  0  0  0  0  0
  189.2740  175.9740  145.0290 C   0  0  2  0  0  3  0  0  0  0  0  0
  188.6100  174.5780  143.0510 C   0  0  0  0  0  3  0  0  0  0  0  0
  189.1950  174.6370  144.3270 C   0  0  0  0  0  0  0  0  0  0  0  0
  189.1170  172.2130  142.9280 C   0  0  0  0  0  3  0  0  0  0  0  0
  189.7150  172.2720  144.1900 C   0  0  0  0  0  3  0  0  0  0  0  0
  189.7610  173.4810  144.8810 C   0  0  0  0  0  3  0  0  0  0  0  0
  188.5690  173.3680  142.3520 C   0  0  0  0  0  3  0  0  0  0  0  0
  186.4070  178.3270  144.5280 C   0  0  2  0  0  3  0  0  0  0  0  0
  185.3560  178.8540  145.4780 C   0  0  0  0  0  0  0  0  0  0  0  0
  183.9980  178.6540  145.2190 O   0  0  0  0  0  0  0  0  0  0  0  0
  185.6940  179.5260  146.4940 O   0  0  0  0  0  1  0  0  0  0  0  0
  185.3800  177.0570  142.7640 O   0  0  0  0  0  1  0  0  0  0  0  0
  185.8880  178.3160  143.0930 C   0  0  0  0  0  2  0  0  0  0  0  0
  195.4640  171.7140  139.0450 N   0  0  0  0  0  0  0  0  0  0  0  0
  195.3040  171.7880  140.4170 C   0  0  0  0  0  0  0  0  0  0  0  0
  195.4270  171.1910  141.7090 N   0  0  0  0  0  2  0  0  0  0  0  0
  194.9390  172.8300  139.6500 N   0  0  0  0  0  0  0  0  0  0  0  0
  195.8290  171.0240  137.8800 N   0  0  0  0  0  2  0  0  0  0  0  0
  194.7050  170.1670  137.5040 C   0  0  0  0  0  2  0  0  0  0  0  0
  193.6890  170.9270  136.7620 C   0  0  0  0  0  0  0  0  0  0  0  0
  192.8710  171.5390  136.1180 C   0  0  0  0  0  0  0  0  0  0  0  0
  191.9410  172.2440  135.3390 N   0  0  0  0  0  2  0  0  0  0  0  0
  191.1820  173.3350  135.8180 N   0  0  0  0  0  0  0  0  0  0  0  0
  193.2700  177.0390  135.6340 C   0  0  0  0  0  0  0  0  0  0  0  0
  193.6790  176.1100  136.5060 C   0  0  0  0  0  3  0  0  0  0  0  0
  192.7390  175.0240  136.9750 C   0  0  0  0  0  2  0  0  0  0  0  0
  194.1190  178.0280  135.2580 F   0  0  0  0  0  0  0  0  0  0  0  0
  191.7310  174.6560  135.9020 C   0  0  0  0  0  0  0  0  0  0  0  0
  191.3530  175.5980  135.0220 C   0  0  0  0  0  3  0  0  0  0  0  0
  191.8590  177.0110  135.1050 C   0  0  0  0  0  2  0  0  0  0  0  0
  189.8810  173.0600  136.4430 C   0  0  0  0  0  2  0  0  0  0  0  0
  189.8700  173.5740  137.7640 O   0  0  0  0  0  0  0  0  0  0  0  0
  188.7490  172.1260  139.1700 O   0  0  0  0  0  0  0  0  0  0  0  0
  189.8180  172.7340  138.8820 C   0  0  0  0  0  0  0  0  0  0  0  0
  191.6250  171.4160  139.8450 C   0  0  0  0  0  2  0  0  0  0  0  0
  191.0030  172.5840  139.7450 C   0  0  0  0  0  0  0  0  0  0  0  0
  191.6060  173.7740  140.4130 C   0  0  0  0  0  1  0  0  0  0  0  0
  193.1630  171.1690  144.2720 C   0  0  0  0  0  1  0  0  0  0  0  0
  192.9400  172.0230  143.1950 O   0  0  0  0  0  0  0  0  0  0  0  0
  1  5  2  0  0  0  0
  2 58  1  1  0  0  0
  2  6  1  0  0  0  0
  3  2  1  0  0  0  0
  3  4  2  0  0  0  0
  4  1  1  0  0  0  0
  6 12  1  0  0  0  0
  6  5  1  0  0  0  0
  7  9  1  0  0  0  0
  8  9  2  0  0  0  0
  9 13  1  0  0  0  0
 10  8  1  0  0  0  0
 11 10  2  0  0  0  0
 11 12  1  0  0  0  0
 12  7  2  0  0  0  0
 14 17  1  1  0  0  0
 14 15  1  0  0  0  0
 14 13  1  0  0  0  0
 16 18  1  0  0  0  0
 18 15  1  0  0  0  0
 19 16  1  0  0  0  0
 19 20  1  0  0  0  0
 20 22  1  6  0  0  0
 20 14  1  0  0  0  0
 21 22  1  0  0  0  0
 22 25  2  0  0  0  0
 23 24  2  0  0  0  0
 24 25  1  0  0  0  0
 26 23  1  0  0  0  0
 26 21  2  0  0  0  0
 27 32  1  6  0  0  0
 27 16  1  0  0  0  0
 27 28  1  0  0  0  0
 28 30  1  0  0  0  0
 29 28  2  0  0  0  0
 31 32  1  0  0  0  0
 33 36  1  0  0  0  0
 33 34  1  0  0  0  0
 34 35  1  0  0  0  0
 35  3  1  0  0  0  0
 36 34  2  0  0  0  0
 37 33  1  0  0  0  0
 38 37  1  0  0  0  0
 39 38  1  0  0  0  0
 40 39  3  0  0  0  0
 41 42  1  0  0  0  0
 41 40  1  0  0  0  0
 42 47  1  0  0  0  0
 42 50  1  0  0  0  0
 43 44  2  0  0  0  0
 44 45  1  0  0  0  0
 46 43  1  0  0  0  0
 47 45  1  0  0  0  0
 48 49  1  0  0  0  0
 48 47  2  0  0  0  0
 49 43  1  0  0  0  0
 50 51  1  0  0  0  0
 51 53  1  0  0  0  0
 53 52  2  0  0  0  0
 53 55  1  0  0  0  0
 55 54  2  0  0  0  0
 55 56  1  0  0  0  0
 58 57  1  0  0  0  0
M  END
>  <MODEL>
7

>  <REMARK>
 VINA RESULT:      -6.2      3.666      9.887
  Name = 
  19 active torsions:
  status: ('A' for Active; 'I' for Inactive)
    1  A    between atoms: C_4  and  S_14
    2  A    between atoms: N_5  and  N_56
    3  A    between atoms: C_8  and  O_37
    4  A    between atoms: S_14  and  C_27
    5  A    between atoms: C_17  and  N_23
    6  A    between atoms: C_18  and  C_19
    7  A    between atoms: C_19  and  N_56
    8  A    between atoms: C_20  and  C_43
    9  A    between atoms: N_21  and  C_30
   10  A    between atoms: C_25  and  C_49
   11  A    between atoms: C_29  and  N_48
   12  A    between atoms: C_30  and  C_31
   13  A    between atoms: C_30  and  C_40
   14  A    between atoms: N_35  and  C_47
   15  A    between atoms: N_35  and  N_48
   16  A    between atoms: N_45  and  C_55
   17  A    between atoms: C_46  and  N_48
   18  A    between atoms: C_46  and  O_54
   19  A    between atoms: C_49  and  O_54
                            x       y       z     vdW  Elec       q    Type
                         _______ _______ _______ _____ _____    ______ ____

>  <TORSDO>
F 19

$$$$
=
 OpenBabel11042416043D

 58 63  0  0  1  0  0  0  0  0999 V2000
  183.8220  178.2330  141.1390 N   0  0  0  0  0  0  0  0  0  0  0  0
  186.5170  177.6730  141.8970 C   0  0  2  0  0  3  0  0  0  0  0  0
  186.0390  177.5220  140.4710 C   0  0  0  0  0  0  0  0  0  0  0  0
  184.7710  177.8180  140.1500 C   0  0  0  0  0  3  0  0  0  0  0  0
  184.1090  178.2380  142.4040 C   0  0  0  0  0  3  0  0  0  0  0  0
  185.4090  177.8430  142.8650 N   0  0  0  0  0  0  0  0  0  0  0  0
  186.7780  176.9570  144.7350 C   0  0  0  0  0  3  0  0  0  0  0  0
  185.9810  177.0780  147.0140 C   0  0  0  0  0  3  0  0  0  0  0  0
  186.9650  176.7070  146.0970 C   0  0  0  0  0  0  0  0  0  0  0  0
  184.8250  177.7190  146.5690 C   0  0  0  0  0  3  0  0  0  0  0  0
  184.6470  177.9770  145.2090 C   0  0  0  0  0  3  0  0  0  0  0  0
  185.6150  177.5950  144.2680 C   0  0  0  0  0  0  0  0  0  0  0  0
  188.4110  175.8130  146.6750 S   0  0  0  0  0  0  0  0  0  0  0  0
  189.5370  176.1750  145.2770 C   0  0  2  0  0  0  0  0  0  0  0  0
  190.7140  177.0200  145.7760 C   0  0  0  0  0  2  0  0  0  0  0  0
  192.4240  175.6050  144.5890 N   0  0  0  0  0  0  0  0  0  0  0  0
  188.8390  176.8890  144.3000 O   0  0  0  0  0  1  0  0  0  0  0  0
  191.8510  176.9600  144.7550 C   0  0  0  0  0  2  0  0  0  0  0  0
  191.5210  174.5190  145.0130 C   0  0  0  0  0  2  0  0  0  0  0  0
  190.0400  174.8130  144.7130 C   0  0  2  0  0  3  0  0  0  0  0  0
  190.4640  174.8350  142.2390 C   0  0  0  0  0  3  0  0  0  0  0  0
  189.6150  174.4800  143.3010 C   0  0  0  0  0  0  0  0  0  0  0  0
  188.9390  173.7940  140.6720 C   0  0  0  0  0  3  0  0  0  0  0  0
  188.1010  173.4250  141.7280 C   0  0  0  0  0  3  0  0  0  0  0  0
  188.4430  173.7590  143.0360 C   0  0  0  0  0  3  0  0  0  0  0  0
  190.1270  174.4950  140.9260 C   0  0  0  0  0  3  0  0  0  0  0  0
  193.6930  175.3710  145.3020 C   0  0  2  0  0  3  0  0  0  0  0  0
  194.3510  176.5900  145.9080 C   0  0  0  0  0  0  0  0  0  0  0  0
  193.9770  177.0450  147.1740 O   0  0  0  0  0  1  0  0  0  0  0  0
  195.2130  177.2400  145.2520 O   0  0  0  0  0  0  0  0  0  0  0  0
  193.9790  173.7990  143.5050 O   0  0  0  0  0  1  0  0  0  0  0  0
  194.6700  174.6150  144.4050 C   0  0  0  0  0  2  0  0  0  0  0  0
  186.9220  176.3610  136.8670 N   0  0  0  0  0  0  0  0  0  0  0  0
  186.6000  176.6760  138.1750 C   0  0  0  0  0  0  0  0  0  0  0  0
  186.9890  177.1660  139.4590 N   0  0  0  0  0  2  0  0  0  0  0  0
  185.6540  176.1770  137.3600 N   0  0  0  0  0  0  0  0  0  0  0  0
  187.8430  176.2500  135.8150 N   0  0  0  0  0  2  0  0  0  0  0  0
  188.2310  174.8430  135.7150 C   0  0  0  0  0  2  0  0  0  0  0  0
  189.5020  174.5970  136.4120 C   0  0  0  0  0  0  0  0  0  0  0  0
  190.5650  174.3920  136.9480 C   0  0  0  0  0  0  0  0  0  0  0  0
  191.8130  174.1470  137.5390 N   0  0  0  0  0  2  0  0  0  0  0  0
  192.3670  172.8570  137.6970 N   0  0  0  0  0  0  0  0  0  0  0  0
  190.9150  170.8560  141.1610 C   0  0  0  0  0  0  0  0  0  0  0  0
  192.0260  171.5940  141.2610 C   0  0  0  0  0  3  0  0  0  0  0  0
  192.8560  171.9090  140.0380 C   0  0  0  0  0  2  0  0  0  0  0  0
  190.2080  170.5510  142.2790 F   0  0  0  0  0  0  0  0  0  0  0  0
  191.9970  172.0070  138.7900 C   0  0  0  0  0  0  0  0  0  0  0  0
  190.8720  171.2750  138.7220 C   0  0  0  0  0  3  0  0  0  0  0  0
  190.4740  170.3280  139.8200 C   0  0  0  0  0  2  0  0  0  0  0  0
  193.5010  172.4740  136.8450 C   0  0  0  0  0  2  0  0  0  0  0  0
  194.5870  172.0600  137.6580 O   0  0  0  0  0  0  0  0  0  0  0  0
  195.3480  174.0800  138.4790 O   0  0  0  0  0  0  0  0  0  0  0  0
  195.6180  172.9380  138.0130 C   0  0  0  0  0  0  0  0  0  0  0  0
  197.5790  171.6050  138.5680 C   0  0  0  0  0  2  0  0  0  0  0  0
  197.0220  172.5410  137.8100 C   0  0  0  0  0  0  0  0  0  0  0  0
  197.8020  173.0860  136.6600 C   0  0  0  0  0  1  0  0  0  0  0  0
  188.6470  178.2710  141.6760 C   0  0  0  0  0  1  0  0  0  0  0  0
  187.3840  178.7710  141.9800 O   0  0  0  0  0  0  0  0  0  0  0  0
  1  5  2  0  0  0  0
  2 58  1  6  0  0  0
  2  6  1  0  0  0  0
  3  2  1  0  0  0  0
  4  3  2  0  0  0  0
  4  1  1  0  0  0  0
  5  6  1  0  0  0  0
  6 12  1  0  0  0  0
  7  9  1  0  0  0  0
  9 13  1  0  0  0  0
  9  8  2  0  0  0  0
 10  8  1  0  0  0  0
 11 10  2  0  0  0  0
 12  7  2  0  0  0  0
 12 11  1  0  0  0  0
 14 17  1  6  0  0  0
 14 15  1  0  0  0  0
 14 13  1  0  0  0  0
 16 18  1  0  0  0  0
 16 19  1  0  0  0  0
 16 27  1  0  0  0  0
 18 15  1  0  0  0  0
 20 22  1  6  0  0  0
 20 19  1  0  0  0  0
 20 14  1  0  0  0  0
 21 22  1  0  0  0  0
 23 26  1  0  0  0  0
 23 24  2  0  0  0  0
 24 25  1  0  0  0  0
 25 22  2  0  0  0  0
 26 21  2  0  0  0  0
 27 32  1  6  0  0  0
 27 28  1  0  0  0  0
 28 29  1  0  0  0  0
 30 28  2  0  0  0  0
 31 32  1  0  0  0  0
 33 36  1  0  0  0  0
 33 34  1  0  0  0  0
 34 35  1  0  0  0  0
 35  3  1  0  0  0  0
 36 34  2  0  0  0  0
 37 33  1  0  0  0  0
 38 37  1  0  0  0  0
 38 39  1  0  0  0  0
 39 40  3  0  0  0  0
 40 41  1  0  0  0  0
 41 42  1  0  0  0  0
 42 47  1  0  0  0  0
 43 44  2  0  0  0  0
 43 46  1  0  0  0  0
 45 44  1  0  0  0  0
 47 45  1  0  0  0  0
 48 47  2  0  0  0  0
 48 49  1  0  0  0  0
 49 43  1  0  0  0  0
 50 51  1  0  0  0  0
 50 42  1  0  0  0  0
 51 53  1  0  0  0  0
 53 52  2  0  0  0  0
 55 53  1  0  0  0  0
 55 54  2  0  0  0  0
 56 55  1  0  0  0  0
 57 58  1  0  0  0  0
M  END
>  <MODEL>
8

>  <REMARK>
 VINA RESULT:      -6.1      3.614      9.745
  Name = 
  19 active torsions:
  status: ('A' for Active; 'I' for Inactive)
    1  A    between atoms: C_4  and  S_14
    2  A    between atoms: N_5  and  N_56
    3  A    between atoms: C_8  and  O_37
    4  A    between atoms: S_14  and  C_27
    5  A    between atoms: C_17  and  N_23
    6  A    between atoms: C_18  and  C_19
    7  A    between atoms: C_19  and  N_56
    8  A    between atoms: C_20  and  C_43
    9  A    between atoms: N_21  and  C_30
   10  A    between atoms: C_25  and  C_49
   11  A    between atoms: C_29  and  N_48
   12  A    between atoms: C_30  and  C_31
   13  A    between atoms: C_30  and  C_40
   14  A    between atoms: N_35  and  C_47
   15  A    between atoms: N_35  and  N_48
   16  A    between atoms: N_45  and  C_55
   17  A    between atoms: C_46  and  N_48
   18  A    between atoms: C_46  and  O_54
   19  A    between atoms: C_49  and  O_54
                            x       y       z     vdW  Elec       q    Type
                         _______ _______ _______ _____ _____    ______ ____

>  <TORSDO>
F 19

$$$$
=
 OpenBabel11042416043D

 58 63  0  0  1  0  0  0  0  0999 V2000
  186.0870  176.8620  144.8150 N   0  0  0  0  0  0  0  0  0  0  0  0
  188.6490  176.4500  143.6260 C   0  0  2  0  0  3  0  0  0  0  0  0
  187.3700  176.3460  142.8270 C   0  0  0  0  0  0  0  0  0  0  0  0
  186.1870  176.5710  143.4150 C   0  0  0  0  0  3  0  0  0  0  0  0
  187.1170  176.8160  145.6000 C   0  0  0  0  0  3  0  0  0  0  0  0
  188.4170  176.4870  145.0890 N   0  0  0  0  0  0  0  0  0  0  0  0
  190.8070  176.5600  145.7520 C   0  0  0  0  0  3  0  0  0  0  0  0
  191.5520  175.5170  147.8010 C   0  0  0  0  0  3  0  0  0  0  0  0
  191.8350  176.2420  146.6430 C   0  0  0  0  0  0  0  0  0  0  0  0
  190.2400  175.1340  148.0760 C   0  0  0  0  0  3  0  0  0  0  0  0
  189.2140  175.4630  147.1890 C   0  0  0  0  0  3  0  0  0  0  0  0
  189.4800  176.1750  146.0090 C   0  0  0  0  0  0  0  0  0  0  0  0
  193.5390  176.6600  146.2630 S   0  0  0  0  0  0  0  0  0  0  0  0
  193.7150  175.7180  144.7030 C   0  0  2  0  0  0  0  0  0  0  0  0
  195.1730  175.7710  144.2370 C   0  0  0  0  0  2  0  0  0  0  0  0
  195.2680  173.2990  143.7710 N   0  0  0  0  0  0  0  0  0  0  0  0
  192.8980  176.2930  143.7260 O   0  0  0  0  0  1  0  0  0  0  0  0
  195.4200  174.6620  143.2130 C   0  0  0  0  0  2  0  0  0  0  0  0
  194.4500  173.2440  144.9970 C   0  0  0  0  0  2  0  0  0  0  0  0
  193.2840  174.2490  144.9900 C   0  0  2  0  0  3  0  0  0  0  0  0
  191.9950  173.8940  142.8660 C   0  0  0  0  0  3  0  0  0  0  0  0
  192.0500  173.7630  144.2630 C   0  0  0  0  0  0  0  0  0  0  0  0
  189.8420  172.7850  142.8470 C   0  0  0  0  0  3  0  0  0  0  0  0
  189.9020  172.6390  144.2360 C   0  0  0  0  0  3  0  0  0  0  0  0
  191.0050  173.1180  144.9390 C   0  0  0  0  0  3  0  0  0  0  0  0
  190.8920  173.4070  142.1580 C   0  0  0  0  0  3  0  0  0  0  0  0
  196.5320  172.6150  144.1030 C   0  0  2  0  0  3  0  0  0  0  0  0
  196.5610  171.1220  143.8720 C   0  0  0  0  0  0  0  0  0  0  0  0
  196.5950  170.2350  144.9500 O   0  0  0  0  0  1  0  0  0  0  0  0
  196.6040  170.6600  142.6960 O   0  0  0  0  0  0  0  0  0  0  0  0
  197.6800  174.1470  145.5590 O   0  0  0  0  0  1  0  0  0  0  0  0
  196.9540  172.9530  145.5310 C   0  0  0  0  0  2  0  0  0  0  0  0
  186.6280  177.3510  139.1460 N   0  0  0  0  0  0  0  0  0  0  0  0
  186.8020  176.9460  140.4570 C   0  0  0  0  0  0  0  0  0  0  0  0
  187.4560  176.1140  141.4160 N   0  0  0  0  0  2  0  0  0  0  0  0
  185.9000  177.9010  140.1710 N   0  0  0  0  0  0  0  0  0  0  0  0
  186.9170  177.2590  137.7760 N   0  0  0  0  0  2  0  0  0  0  0  0
  186.6820  175.8740  137.3680 C   0  0  0  0  0  2  0  0  0  0  0  0
  187.8970  175.2830  136.7900 C   0  0  0  0  0  0  0  0  0  0  0  0
  188.9080  174.7880  136.3520 C   0  0  0  0  0  0  0  0  0  0  0  0
  190.0950  174.2100  135.8780 N   0  0  0  0  0  2  0  0  0  0  0  0
  190.8220  173.2220  136.5770 N   0  0  0  0  0  0  0  0  0  0  0  0
  194.3920  174.7360  138.3290 C   0  0  0  0  0  0  0  0  0  0  0  0
  194.4080  174.3780  137.0400 C   0  0  0  0  0  3  0  0  0  0  0  0
  193.3860  173.4060  136.4980 C   0  0  0  0  0  2  0  0  0  0  0  0
  195.3440  175.5790  138.8050 F   0  0  0  0  0  0  0  0  0  0  0  0
  192.0620  173.5200  137.2300 C   0  0  0  0  0  0  0  0  0  0  0  0
  192.0690  173.9050  138.5180 C   0  0  0  0  0  3  0  0  0  0  0  0
  193.3490  174.1740  139.2600 C   0  0  0  0  0  2  0  0  0  0  0  0
  190.4020  171.8200  136.4440 C   0  0  0  0  0  2  0  0  0  0  0  0
  191.1630  171.0110  137.3260 O   0  0  0  0  0  0  0  0  0  0  0  0
  189.3890  170.3520  138.6480 O   0  0  0  0  0  0  0  0  0  0  0  0
  190.6340  170.5320  138.5290 C   0  0  0  0  0  0  0  0  0  0  0  0
  192.8320  170.4730  139.5730 C   0  0  0  0  0  2  0  0  0  0  0  0
  191.5250  170.2700  139.6720 C   0  0  0  0  0  0  0  0  0  0  0  0
  190.9580  169.9020  141.0020 C   0  0  0  0  0  1  0  0  0  0  0  0
  190.3510  177.1490  142.3780 C   0  0  0  0  0  1  0  0  0  0  0  0
  189.3490  177.5980  143.2330 O   0  0  0  0  0  0  0  0  0  0  0  0
  1  5  2  0  0  0  0
  2 58  1  6  0  0  0
  2  6  1  0  0  0  0
  3  4  2  0  0  0  0
  3  2  1  0  0  0  0
  4  1  1  0  0  0  0
  6  5  1  0  0  0  0
  6 12  1  0  0  0  0
  7 12  2  0  0  0  0
  7  9  1  0  0  0  0
  8 10  1  0  0  0  0
  9  8  2  0  0  0  0
 11 10  2  0  0  0  0
 12 11  1  0  0  0  0
 13  9  1  0  0  0  0
 14 17  1  6  0  0  0
 14 20  1  0  0  0  0
 14 13  1  0  0  0  0
 15 14  1  0  0  0  0
 16 27  1  0  0  0  0
 16 19  1  0  0  0  0
 18 16  1  0  0  0  0
 18 15  1  0  0  0  0
 20 22  1  6  0  0  0
 20 19  1  0  0  0  0
 21 22  1  0  0  0  0
 22 25  2  0  0  0  0
 23 24  2  0  0  0  0
 24 25  1  0  0  0  0
 26 23  1  0  0  0  0
 26 21  2  0  0  0  0
 27 32  1  1  0  0  0
 28 27  1  0  0  0  0
 28 29  1  0  0  0  0
 30 28  2  0  0  0  0
 32 31  1  0  0  0  0
 33 36  1  0  0  0  0
 33 34  1  0  0  0  0
 34 35  1  0  0  0  0
 35  3  1  0  0  0  0
 36 34  2  0  0  0  0
 37 33  1  0  0  0  0
 38 37  1  0  0  0  0
 39 38  1  0  0  0  0
 40 39  3  0  0  0  0
 41 40  1  0  0  0  0
 41 42  1  0  0  0  0
 42 47  1  0  0  0  0
 43 46  1  0  0  0  0
 43 49  1  0  0  0  0
 44 43  2  0  0  0  0
 45 44  1  0  0  0  0
 45 47  1  0  0  0  0
 47 48  2  0  0  0  0
 48 49  1  0  0  0  0
 50 42  1  0  0  0  0
 50 51  1  0  0  0  0
 51 53  1  0  0  0  0
 53 52  2  0  0  0  0
 53 55  1  0  0  0  0
 54 55  2  0  0  0  0
 55 56  1  0  0  0  0
 57 58  1  0  0  0  0
M  END
>  <MODEL>
9

>  <REMARK>
 VINA RESULT:      -6.1      3.538      7.616
  Name = 
  19 active torsions:
  status: ('A' for Active; 'I' for Inactive)
    1  A    between atoms: C_4  and  S_14
    2  A    between atoms: N_5  and  N_56
    3  A    between atoms: C_8  and  O_37
    4  A    between atoms: S_14  and  C_27
    5  A    between atoms: C_17  and  N_23
    6  A    between atoms: C_18  and  C_19
    7  A    between atoms: C_19  and  N_56
    8  A    between atoms: C_20  and  C_43
    9  A    between atoms: N_21  and  C_30
   10  A    between atoms: C_25  and  C_49
   11  A    between atoms: C_29  and  N_48
   12  A    between atoms: C_30  and  C_31
   13  A    between atoms: C_30  and  C_40
   14  A    between atoms: N_35  and  C_47
   15  A    between atoms: N_35  and  N_48
   16  A    between atoms: N_45  and  C_55
   17  A    between atoms: C_46  and  N_48
   18  A    between atoms: C_46  and  O_54
   19  A    between atoms: C_49  and  O_54
                            x       y       z     vdW  Elec       q    Type
                         _______ _______ _______ _____ _____    ______ ____

>  <TORSDO>
F 19

$$$$
