=
 OpenBabel11042414213D

 27 32  0  0  1  0  0  0  0  0999 V2000
  191.9100  175.4650  147.8630 C   0  0  0  0  0  2  0  0  0  0  0  0
  191.1330  176.7900  147.7050 C   0  0  0  0  0  2  0  0  0  0  0  0
  190.5880  176.8960  146.2970 C   0  0  1  0  0  3  0  0  0  0  0  0
  189.6930  175.7400  146.1450 N   0  0  2  0  0  0  0  0  0  0  0  0
  190.4020  175.0540  145.0620 C   0  0  1  0  0  3  0  0  0  0  0  0
  191.5320  174.1840  145.6660 C   0  0  0  0  0  2  0  0  0  0  0  0
  192.5410  174.9460  146.5530 C   0  0  0  0  0  2  0  0  0  0  0  0
  189.1840  177.1430  146.0650 C   0  0  2  0  0  3  0  0  0  0  0  0
  187.5650  177.7370  144.1520 C   0  0  0  0  0  0  0  0  0  0  0  0
  188.4710  178.1620  141.9250 C   0  0  0  0  0  3  0  0  0  0  0  0
  189.7650  178.0240  142.4170 C   0  0  0  0  0  3  0  0  0  0  0  0
  187.3830  177.9960  142.7820 C   0  0  0  0  0  3  0  0  0  0  0  0
  188.8900  177.6110  144.6560 C   0  0  0  0  0  0  0  0  0  0  0  0
  189.9670  177.7270  143.7640 C   0  0  0  0  0  3  0  0  0  0  0  0
  186.3390  177.3850  144.9720 C   0  0  1  0  0  3  0  0  0  0  0  0
  184.0970  178.2070  145.7580 N   0  0  0  0  0  2  0  0  0  0  0  0
  184.8390  178.2890  146.9470 N   0  0  2  0  0  0  0  0  0  0  0  0
  186.1310  178.2830  146.1930 C   0  0  1  0  0  0  0  0  0  0  0  0
  185.2660  178.4250  144.9360 C   0  0  1  0  0  0  0  0  0  0  0  0
  185.4670  179.8600  144.4610 C   0  0  0  0  0  1  0  0  0  0  0  0
  185.7470  177.1770  147.0870 C   0  0  0  0  0  2  0  0  0  0  0  0
  189.4520  174.1620  144.2570 C   0  0  0  0  0  2  0  0  0  0  0  0
  190.0610  173.6400  142.9590 C   0  0  0  0  0  2  0  0  0  0  0  0
  188.5400  174.1670  141.0300 C   0  0  0  0  0  0  0  0  0  0  0  0
  188.2300  174.9210  140.0720 O   0  0  0  0  0  0  0  0  0  0  0  0
  187.7810  173.0320  141.2870 O   0  0  0  0  0  1  0  0  0  0  0  0
  189.6670  174.4830  141.8420 N   0  0  0  0  0  2  0  0  0  0  0  0
  2  1  1  0  0  0  0
  3  2  1  1  0  0  0
  4  3  1  0  0  0  0
  5  6  1  0  0  0  0
  5  4  1  0  0  0  0
  6  7  1  0  0  0  0
  7  1  1  0  0  0  0
  8  4  1  0  0  0  0
  8  3  1  0  0  0  0
  9 13  1  0  0  0  0
  9 15  1  0  0  0  0
 10 11  2  0  0  0  0
 10 12  1  0  0  0  0
 11 14  1  0  0  0  0
 12  9  2  0  0  0  0
 13  8  1  0  0  0  0
 14 13  2  0  0  0  0
 15 18  1  0  0  0  0
 16 17  1  0  0  0  0
 17 21  1  0  0  0  0
 18 17  1  0  0  0  0
 18 21  1  0  0  0  0
 19 15  1  0  0  0  0
 19 16  1  0  0  0  0
 19 18  1  0  0  0  0
 20 19  1  0  0  0  0
 22  5  1  0  0  0  0
 23 22  1  0  0  0  0
 24 26  1  0  0  0  0
 24 27  1  0  0  0  0
 25 24  2  0  0  0  0
 27 23  1  0  0  0  0
M  END
>  <MODEL>
1

>  <REMARK>
 VINA RESULT:      -7.7      0.000      0.000
  Name = 
  5 active torsions:
  status: ('A' for Active; 'I' for Inactive)
    1  A    between atoms: C_1  and  C_6
    2  A    between atoms: C_2  and  C_14
    3  A    between atoms: C_2  and  N_20
    4  A    between atoms: C_14  and  C_19
    5  A    between atoms: C_17  and  C_27
                            x       y       z     vdW  Elec       q    Type
                         _______ _______ _______ _____ _____    ______ ____

>  <TORSDO>
F 5

$$$$
=
 OpenBabel11042414213D

 27 32  0  0  1  0  0  0  0  0999 V2000
  192.6610  176.6970  143.8790 C   0  0  0  0  0  2  0  0  0  0  0  0
  191.6880  177.8900  144.0050 C   0  0  0  0  0  2  0  0  0  0  0  0
  190.3940  177.5680  143.2870 C   0  0  1  0  0  3  0  0  0  0  0  0
  189.8620  176.3800  143.9710 N   0  0  2  0  0  0  0  0  0  0  0  0
  189.8960  175.4450  142.8440 C   0  0  1  0  0  3  0  0  0  0  0  0
  191.3140  174.8310  142.7360 C   0  0  0  0  0  2  0  0  0  0  0  0
  192.4610  175.8540  142.6020 C   0  0  0  0  0  2  0  0  0  0  0  0
  189.1240  177.6800  143.9670 C   0  0  2  0  0  3  0  0  0  0  0  0
  186.6460  177.2780  143.3970 C   0  0  0  0  0  0  0  0  0  0  0  0
  185.9130  177.5080  141.0800 C   0  0  0  0  0  3  0  0  0  0  0  0
  187.1880  177.9220  140.7100 C   0  0  0  0  0  3  0  0  0  0  0  0
  185.6540  177.1670  142.4070 C   0  0  0  0  0  3  0  0  0  0  0  0
  187.9460  177.7150  143.0190 C   0  0  0  0  0  0  0  0  0  0  0  0
  188.1980  177.9990  141.6680 C   0  0  0  0  0  3  0  0  0  0  0  0
  186.3390  176.7110  144.7700 C   0  0  1  0  0  3  0  0  0  0  0  0
  184.9230  176.9890  146.8290 N   0  0  0  0  0  2  0  0  0  0  0  0
  186.1730  177.4120  147.3090 N   0  0  2  0  0  0  0  0  0  0  0  0
  186.6710  177.6610  145.9210 C   0  0  1  0  0  0  0  0  0  0  0  0
  185.2260  177.4120  145.4800 C   0  0  1  0  0  0  0  0  0  0  0  0
  184.6750  178.7790  145.0880 C   0  0  0  0  0  1  0  0  0  0  0  0
  187.2480  176.6100  146.7770 C   0  0  0  0  0  2  0  0  0  0  0  0
  188.8700  174.3220  143.0260 C   0  0  0  0  0  2  0  0  0  0  0  0
  187.9400  174.1470  141.8300 C   0  0  0  0  0  2  0  0  0  0  0  0
  188.5750  173.7320  139.4350 C   0  0  0  0  0  0  0  0  0  0  0  0
  189.1700  174.1100  138.3930 O   0  0  0  0  0  0  0  0  0  0  0  0
  187.8870  172.5250  139.4360 O   0  0  0  0  0  1  0  0  0  0  0  0
  188.6140  174.5450  140.6050 N   0  0  0  0  0  2  0  0  0  0  0  0
  1  2  1  0  0  0  0
  3  8  1  0  0  0  0
  3  4  1  0  0  0  0
  3  2  1  1  0  0  0
  5 22  1  0  0  0  0
  5  4  1  0  0  0  0
  6  5  1  0  0  0  0
  7  6  1  0  0  0  0
  7  1  1  0  0  0  0
  8  4  1  0  0  0  0
  9 15  1  0  0  0  0
 10 12  1  0  0  0  0
 11 10  2  0  0  0  0
 11 14  1  0  0  0  0
 12  9  2  0  0  0  0
 13  9  1  0  0  0  0
 13  8  1  0  0  0  0
 14 13  2  0  0  0  0
 15 19  1  0  0  0  0
 15 18  1  0  0  0  0
 16 17  1  0  0  0  0
 18 21  1  0  0  0  0
 18 17  1  0  0  0  0
 19 18  1  0  0  0  0
 19 16  1  0  0  0  0
 20 19  1  0  0  0  0
 21 17  1  0  0  0  0
 23 22  1  0  0  0  0
 24 26  1  0  0  0  0
 24 27  1  0  0  0  0
 25 24  2  0  0  0  0
 27 23  1  0  0  0  0
M  END
>  <MODEL>
2

>  <REMARK>
 VINA RESULT:      -7.7      1.983      2.373
  Name = 
  5 active torsions:
  status: ('A' for Active; 'I' for Inactive)
    1  A    between atoms: C_1  and  C_6
    2  A    between atoms: C_2  and  C_14
    3  A    between atoms: C_2  and  N_20
    4  A    between atoms: C_14  and  C_19
    5  A    between atoms: C_17  and  C_27
                            x       y       z     vdW  Elec       q    Type
                         _______ _______ _______ _____ _____    ______ ____

>  <TORSDO>
F 5

$$$$
=
 OpenBabel11042414213D

 27 32  0  0  1  0  0  0  0  0999 V2000
  184.9600  178.7390  143.2450 C   0  0  0  0  0  2  0  0  0  0  0  0
  185.8920  178.3890  142.0640 C   0  0  0  0  0  2  0  0  0  0  0  0
  187.2700  178.0460  142.5860 C   0  0  1  0  0  3  0  0  0  0  0  0
  187.0690  176.8810  143.4610 N   0  0  2  0  0  0  0  0  0  0  0  0
  187.5110  177.4760  144.7240 C   0  0  1  0  0  3  0  0  0  0  0  0
  186.3290  178.2450  145.3640 C   0  0  0  0  0  2  0  0  0  0  0  0
  185.6930  179.3300  144.4690 C   0  0  0  0  0  2  0  0  0  0  0  0
  187.9080  176.8000  142.2260 C   0  0  2  0  0  3  0  0  0  0  0  0
  190.1810  175.6120  142.4530 C   0  0  0  0  0  0  0  0  0  0  0  0
  192.0840  176.8590  143.3380 C   0  0  0  0  0  3  0  0  0  0  0  0
  191.3120  178.0150  143.3900 C   0  0  0  0  0  3  0  0  0  0  0  0
  191.5150  175.6650  142.8960 C   0  0  0  0  0  3  0  0  0  0  0  0
  189.3970  176.7990  142.4940 C   0  0  0  0  0  0  0  0  0  0  0  0
  189.9760  177.9750  142.9950 C   0  0  0  0  0  3  0  0  0  0  0  0
  189.5860  174.2470  142.1690 C   0  0  1  0  0  3  0  0  0  0  0  0
  188.8990  172.0590  143.2000 N   0  0  0  0  0  2  0  0  0  0  0  0
  190.0570  171.6720  142.5070 N   0  0  2  0  0  0  0  0  0  0  0  0
  190.5430  173.0850  142.4410 C   0  0  1  0  0  0  0  0  0  0  0  0
  189.3840  173.4070  143.3890 C   0  0  1  0  0  0  0  0  0  0  0  0
  190.0290  173.6810  144.7440 C   0  0  0  0  0  1  0  0  0  0  0  0
  190.1620  172.3350  141.2310 C   0  0  0  0  0  2  0  0  0  0  0  0
  188.0040  176.4020  145.6990 C   0  0  0  0  0  2  0  0  0  0  0  0
  188.7330  176.9700  146.9120 C   0  0  0  0  0  2  0  0  0  0  0  0
  191.1480  176.3120  147.1310 C   0  0  0  0  0  0  0  0  0  0  0  0
  192.3560  176.5190  146.8430 O   0  0  0  0  0  0  0  0  0  0  0  0
  190.8090  175.2490  147.9590 O   0  0  0  0  0  1  0  0  0  0  0  0
  190.1400  177.1720  146.6060 N   0  0  0  0  0  2  0  0  0  0  0  0
  1  7  1  0  0  0  0
  2  1  1  0  0  0  0
  3  2  1  6  0  0  0
  3  4  1  0  0  0  0
  4  5  1  0  0  0  0
  5  6  1  0  0  0  0
  5 22  1  0  0  0  0
  7  6  1  0  0  0  0
  8 13  1  0  0  0  0
  8  3  1  0  0  0  0
  8  4  1  0  0  0  0
  9 13  2  0  0  0  0
  9 12  1  0  0  0  0
 10 11  1  0  0  0  0
 12 10  2  0  0  0  0
 13 14  1  0  0  0  0
 14 11  2  0  0  0  0
 15 18  1  0  0  0  0
 15  9  1  0  0  0  0
 15 19  1  0  0  0  0
 16 19  1  0  0  0  0
 17 16  1  0  0  0  0
 18 17  1  0  0  0  0
 18 19  1  0  0  0  0
 19 20  1  0  0  0  0
 21 18  1  0  0  0  0
 21 17  1  0  0  0  0
 22 23  1  0  0  0  0
 24 26  1  0  0  0  0
 25 24  2  0  0  0  0
 27 23  1  0  0  0  0
 27 24  1  0  0  0  0
M  END
>  <MODEL>
3

>  <REMARK>
 VINA RESULT:      -7.4      2.728      6.266
  Name = 
  5 active torsions:
  status: ('A' for Active; 'I' for Inactive)
    1  A    between atoms: C_1  and  C_6
    2  A    between atoms: C_2  and  C_14
    3  A    between atoms: C_2  and  N_20
    4  A    between atoms: C_14  and  C_19
    5  A    between atoms: C_17  and  C_27
                            x       y       z     vdW  Elec       q    Type
                         _______ _______ _______ _____ _____    ______ ____

>  <TORSDO>
F 5

$$$$
=
 OpenBabel11042414213D

 27 32  0  0  1  0  0  0  0  0999 V2000
  191.2200  173.8120  140.4800 C   0  0  0  0  0  2  0  0  0  0  0  0
  189.8360  173.6390  141.1430 C   0  0  0  0  0  2  0  0  0  0  0  0
  189.8830  174.1600  142.5630 C   0  0  1  0  0  3  0  0  0  0  0  0
  190.2310  175.5830  142.4370 N   0  0  2  0  0  0  0  0  0  0  0  0
  191.5080  175.5610  143.1530 C   0  0  1  0  0  3  0  0  0  0  0  0
  192.6310  175.1310  142.1770 C   0  0  0  0  0  2  0  0  0  0  0  0
  192.4010  173.7760  141.4730 C   0  0  0  0  0  2  0  0  0  0  0  0
  188.9270  175.1430  143.0210 C   0  0  2  0  0  3  0  0  0  0  0  0
  188.3760  176.4070  145.1960 C   0  0  0  0  0  0  0  0  0  0  0  0
  189.1030  175.4650  147.3270 C   0  0  0  0  0  3  0  0  0  0  0  0
  189.5910  174.3400  146.6720 C   0  0  0  0  0  3  0  0  0  0  0  0
  188.5230  176.4980  146.5910 C   0  0  0  0  0  3  0  0  0  0  0  0
  188.8630  175.2470  144.5290 C   0  0  0  0  0  0  0  0  0  0  0  0
  189.4930  174.2470  145.2850 C   0  0  0  0  0  3  0  0  0  0  0  0
  187.9100  177.6440  144.4530 C   0  0  1  0  0  3  0  0  0  0  0  0
  186.0160  179.2740  144.1780 N   0  0  0  0  0  2  0  0  0  0  0  0
  185.9140  178.5470  142.9810 N   0  0  2  0  0  0  0  0  0  0  0  0
  186.6950  177.4080  143.5550 C   0  0  1  0  0  0  0  0  0  0  0  0
  186.5720  178.1470  144.8910 C   0  0  1  0  0  0  0  0  0  0  0  0
  185.5730  177.3410  145.7150 C   0  0  0  0  0  1  0  0  0  0  0  0
  187.2120  178.2220  142.4420 C   0  0  0  0  0  2  0  0  0  0  0  0
  191.8420  176.9400  143.7320 C   0  0  0  0  0  2  0  0  0  0  0  0
  192.0120  176.9380  145.2480 C   0  0  0  0  0  2  0  0  0  0  0  0
  194.3440  176.2840  145.9140 C   0  0  0  0  0  0  0  0  0  0  0  0
  195.1610  175.3890  146.2560 O   0  0  0  0  0  1  0  0  0  0  0  0
  194.7720  177.6010  145.8010 O   0  0  0  0  0  0  0  0  0  0  0  0
  192.9880  175.9370  145.6450 N   0  0  0  0  0  2  0  0  0  0  0  0
  1  2  1  0  0  0  0
  1  7  1  0  0  0  0
  3  2  1  6  0  0  0
  3  8  1  0  0  0  0
  4  3  1  0  0  0  0
  4  8  1  0  0  0  0
  4  5  1  0  0  0  0
  5 22  1  0  0  0  0
  6  5  1  0  0  0  0
  7  6  1  0  0  0  0
  8 13  1  0  0  0  0
  9 12  1  0  0  0  0
 11 10  1  0  0  0  0
 12 10  2  0  0  0  0
 13  9  2  0  0  0  0
 13 14  1  0  0  0  0
 14 11  2  0  0  0  0
 15 19  1  0  0  0  0
 15  9  1  0  0  0  0
 16 19  1  0  0  0  0
 17 18  1  0  0  0  0
 17 16  1  0  0  0  0
 18 15  1  0  0  0  0
 18 19  1  0  0  0  0
 19 20  1  0  0  0  0
 21 17  1  0  0  0  0
 21 18  1  0  0  0  0
 22 23  1  0  0  0  0
 23 27  1  0  0  0  0
 24 25  1  0  0  0  0
 26 24  2  0  0  0  0
 27 24  1  0  0  0  0
M  END
>  <MODEL>
4

>  <REMARK>
 VINA RESULT:      -7.1      3.127      5.049
  Name = 
  5 active torsions:
  status: ('A' for Active; 'I' for Inactive)
    1  A    between atoms: C_1  and  C_6
    2  A    between atoms: C_2  and  C_14
    3  A    between atoms: C_2  and  N_20
    4  A    between atoms: C_14  and  C_19
    5  A    between atoms: C_17  and  C_27
                            x       y       z     vdW  Elec       q    Type
                         _______ _______ _______ _____ _____    ______ ____

>  <TORSDO>
F 5

$$$$
=
 OpenBabel11042414213D

 27 32  0  0  1  0  0  0  0  0999 V2000
  185.1730  177.8400  140.2130 C   0  0  0  0  0  2  0  0  0  0  0  0
  186.6510  177.5260  139.8960 C   0  0  0  0  0  2  0  0  0  0  0  0
  187.4470  177.4670  141.1820 C   0  0  1  0  0  3  0  0  0  0  0  0
  186.8340  176.3820  141.9630 N   0  0  2  0  0  0  0  0  0  0  0  0
  186.3760  177.1690  143.1100 C   0  0  1  0  0  3  0  0  0  0  0  0
  185.0000  177.7990  142.7780 C   0  0  0  0  0  2  0  0  0  0  0  0
  184.9690  178.6660  141.5020 C   0  0  0  0  0  2  0  0  0  0  0  0
  188.2540  176.3120  141.5000 C   0  0  2  0  0  3  0  0  0  0  0  0
  189.7290  175.5650  143.4750 C   0  0  0  0  0  0  0  0  0  0  0  0
  190.8970  177.2610  144.7860 C   0  0  0  0  0  3  0  0  0  0  0  0
  190.4350  178.2530  143.9270 C   0  0  0  0  0  3  0  0  0  0  0  0
  190.5260  175.9340  144.5730 C   0  0  0  0  0  3  0  0  0  0  0  0
  189.2690  176.5800  142.5890 C   0  0  0  0  0  0  0  0  0  0  0  0
  189.6090  177.9150  142.8560 C   0  0  0  0  0  3  0  0  0  0  0  0
  189.2170  174.1390  143.4220 C   0  0  1  0  0  3  0  0  0  0  0  0
  189.8990  171.7250  143.2400 N   0  0  0  0  0  2  0  0  0  0  0  0
  189.3550  171.9430  141.9640 N   0  0  2  0  0  0  0  0  0  0  0  0
  189.5100  173.4240  142.1020 C   0  0  1  0  0  0  0  0  0  0  0  0
  190.2990  173.1080  143.3750 C   0  0  1  0  0  0  0  0  0  0  0  0
  191.7570  173.3990  143.0370 C   0  0  0  0  0  1  0  0  0  0  0  0
  188.1850  172.7850  142.0190 C   0  0  0  0  0  2  0  0  0  0  0  0
  186.2450  176.2970  144.3620 C   0  0  0  0  0  2  0  0  0  0  0  0
  186.9610  176.8690  145.5810 C   0  0  0  0  0  2  0  0  0  0  0  0
  185.3420  178.4240  146.7090 C   0  0  0  0  0  0  0  0  0  0  0  0
  184.5200  178.6430  147.6370 O   0  0  0  0  0  1  0  0  0  0  0  0
  185.5950  179.4120  145.7650 O   0  0  0  0  0  0  0  0  0  0  0  0
  186.0050  177.1650  146.6360 N   0  0  0  0  0  2  0  0  0  0  0  0
  1  7  1  0  0  0  0
  2  1  1  0  0  0  0
  3  2  1  6  0  0  0
  3  8  1  0  0  0  0
  3  4  1  0  0  0  0
  4  5  1  0  0  0  0
  5 22  1  0  0  0  0
  6  5  1  0  0  0  0
  7  6  1  0  0  0  0
  8  4  1  0  0  0  0
  8 13  1  0  0  0  0
  9 12  1  0  0  0  0
 11 10  1  0  0  0  0
 12 10  2  0  0  0  0
 13 14  1  0  0  0  0
 13  9  2  0  0  0  0
 14 11  2  0  0  0  0
 15  9  1  0  0  0  0
 16 19  1  0  0  0  0
 17 21  1  0  0  0  0
 17 18  1  0  0  0  0
 17 16  1  0  0  0  0
 18 19  1  0  0  0  0
 18 15  1  0  0  0  0
 19 15  1  0  0  0  0
 20 19  1  0  0  0  0
 21 18  1  0  0  0  0
 22 23  1  0  0  0  0
 23 27  1  0  0  0  0
 24 25  1  0  0  0  0
 26 24  2  0  0  0  0
 27 24  1  0  0  0  0
M  END
>  <MODEL>
5

>  <REMARK>
 VINA RESULT:      -7.1      2.939      6.776
  Name = 
  5 active torsions:
  status: ('A' for Active; 'I' for Inactive)
    1  A    between atoms: C_1  and  C_6
    2  A    between atoms: C_2  and  C_14
    3  A    between atoms: C_2  and  N_20
    4  A    between atoms: C_14  and  C_19
    5  A    between atoms: C_17  and  C_27
                            x       y       z     vdW  Elec       q    Type
                         _______ _______ _______ _____ _____    ______ ____

>  <TORSDO>
F 5

$$$$
=
 OpenBabel11042414213D

 27 32  0  0  1  0  0  0  0  0999 V2000
  190.6520  174.9070  147.3710 C   0  0  0  0  0  2  0  0  0  0  0  0
  189.1280  174.7150  147.2040 C   0  0  0  0  0  2  0  0  0  0  0  0
  188.5050  176.0020  146.7070 C   0  0  1  0  0  3  0  0  0  0  0  0
  189.1470  176.2620  145.4100 N   0  0  2  0  0  0  0  0  0  0  0  0
  189.7970  177.5330  145.7380 C   0  0  1  0  0  3  0  0  0  0  0  0
  191.1540  177.2460  146.4290 C   0  0  0  0  0  2  0  0  0  0  0  0
  191.0710  176.3590  147.6890 C   0  0  0  0  0  2  0  0  0  0  0  0
  187.6780  176.0120  145.5220 C   0  0  2  0  0  3  0  0  0  0  0  0
  186.6970  177.9800  144.1820 C   0  0  0  0  0  0  0  0  0  0  0  0
  185.5090  179.7480  145.3750 C   0  0  0  0  0  3  0  0  0  0  0  0
  185.6530  179.0480  146.5690 C   0  0  0  0  0  3  0  0  0  0  0  0
  186.0480  179.2270  144.1990 C   0  0  0  0  0  3  0  0  0  0  0  0
  186.8310  177.2600  145.4020 C   0  0  0  0  0  0  0  0  0  0  0  0
  186.3290  177.8300  146.5820 C   0  0  0  0  0  3  0  0  0  0  0  0
  187.4160  177.5760  142.9090 C   0  0  1  0  0  3  0  0  0  0  0  0
  187.2080  177.3980  140.4100 N   0  0  0  0  0  2  0  0  0  0  0  0
  187.1480  176.0440  140.7770 N   0  0  2  0  0  0  0  0  0  0  0  0
  186.7720  176.3960  142.1810 C   0  0  1  0  0  0  0  0  0  0  0  0
  186.6310  177.8300  141.6630 C   0  0  1  0  0  0  0  0  0  0  0  0
  185.1310  178.1070  141.6260 C   0  0  0  0  0  1  0  0  0  0  0  0
  188.0530  175.7440  141.8600 C   0  0  0  0  0  2  0  0  0  0  0  0
  190.0370  178.3730  144.4800 C   0  0  0  0  0  2  0  0  0  0  0  0
  191.3910  178.1160  143.8260 C   0  0  0  0  0  2  0  0  0  0  0  0
  191.9590  175.8830  142.8240 C   0  0  0  0  0  0  0  0  0  0  0  0
  191.8210  175.0490  141.8910 O   0  0  0  0  0  0  0  0  0  0  0  0
  192.7900  175.5860  143.8960 O   0  0  0  0  0  1  0  0  0  0  0  0
  191.2610  177.1250  142.7700 N   0  0  0  0  0  2  0  0  0  0  0  0
  1  7  1  0  0  0  0
  2  1  1  0  0  0  0
  3  2  1  6  0  0  0
  4  8  1  0  0  0  0
  4  5  1  0  0  0  0
  4  3  1  0  0  0  0
  5  6  1  0  0  0  0
  6  7  1  0  0  0  0
  8  3  1  0  0  0  0
  9 12  2  0  0  0  0
  9 13  1  0  0  0  0
 10 11  2  0  0  0  0
 11 14  1  0  0  0  0
 12 10  1  0  0  0  0
 13  8  1  0  0  0  0
 13 14  2  0  0  0  0
 15  9  1  0  0  0  0
 16 17  1  0  0  0  0
 16 19  1  0  0  0  0
 17 21  1  0  0  0  0
 17 18  1  0  0  0  0
 18 15  1  0  0  0  0
 19 18  1  0  0  0  0
 19 15  1  0  0  0  0
 20 19  1  0  0  0  0
 21 18  1  0  0  0  0
 22  5  1  0  0  0  0
 23 22  1  0  0  0  0
 24 26  1  0  0  0  0
 25 24  2  0  0  0  0
 27 24  1  0  0  0  0
 27 23  1  0  0  0  0
M  END
>  <MODEL>
6

>  <REMARK>
 VINA RESULT:      -7.1      2.393      3.988
  Name = 
  5 active torsions:
  status: ('A' for Active; 'I' for Inactive)
    1  A    between atoms: C_1  and  C_6
    2  A    between atoms: C_2  and  C_14
    3  A    between atoms: C_2  and  N_20
    4  A    between atoms: C_14  and  C_19
    5  A    between atoms: C_17  and  C_27
                            x       y       z     vdW  Elec       q    Type
                         _______ _______ _______ _____ _____    ______ ____

>  <TORSDO>
F 5

$$$$
=
 OpenBabel11042414213D

 27 32  0  0  1  0  0  0  0  0999 V2000
  192.7040  176.4130  146.8570 C   0  0  0  0  0  2  0  0  0  0  0  0
  192.7860  176.2230  145.3270 C   0  0  0  0  0  2  0  0  0  0  0  0
  191.5710  175.4590  144.8440 C   0  0  1  0  0  3  0  0  0  0  0  0
  190.4210  176.2990  145.2090 N   0  0  2  0  0  0  0  0  0  0  0  0
  189.7580  175.3750  146.1310 C   0  0  1  0  0  3  0  0  0  0  0  0
  190.3930  175.5160  147.5360 C   0  0  0  0  0  2  0  0  0  0  0  0
  191.9210  175.3020  147.5880 C   0  0  0  0  0  2  0  0  0  0  0  0
  190.7420  175.9850  143.7830 C   0  0  2  0  0  3  0  0  0  0  0  0
  188.7070  175.2790  142.3720 C   0  0  0  0  0  0  0  0  0  0  0  0
  188.0390  172.9320  142.3510 C   0  0  0  0  0  3  0  0  0  0  0  0
  189.1380  172.6040  143.1390 C   0  0  0  0  0  3  0  0  0  0  0  0
  187.8150  174.2610  141.9930 C   0  0  0  0  0  3  0  0  0  0  0  0
  189.8390  174.9400  143.1650 C   0  0  0  0  0  0  0  0  0  0  0  0
  190.0120  173.6050  143.5600 C   0  0  0  0  0  3  0  0  0  0  0  0
  188.2950  176.7140  142.1040 C   0  0  1  0  0  3  0  0  0  0  0  0
  186.6100  178.4970  142.6590 N   0  0  0  0  0  2  0  0  0  0  0  0
  186.2240  178.1660  141.3500 N   0  0  2  0  0  0  0  0  0  0  0  0
  186.9310  176.8510  141.4260 C   0  0  1  0  0  0  0  0  0  0  0  0
  187.1220  177.1680  142.9120 C   0  0  1  0  0  0  0  0  0  0  0  0
  186.1710  176.2370  143.6560 C   0  0  0  0  0  1  0  0  0  0  0  0
  187.3650  177.9140  140.5040 C   0  0  0  0  0  2  0  0  0  0  0  0
  188.2570  175.6660  146.2220 C   0  0  0  0  0  2  0  0  0  0  0  0
  187.9350  177.0100  146.8670 C   0  0  0  0  0  2  0  0  0  0  0  0
  185.6590  178.0710  146.7920 C   0  0  0  0  0  0  0  0  0  0  0  0
  184.4560  178.0770  147.1610 O   0  0  0  0  0  1  0  0  0  0  0  0
  186.1190  179.0530  145.9230 O   0  0  0  0  0  0  0  0  0  0  0  0
  186.5380  177.0560  147.2690 N   0  0  0  0  0  2  0  0  0  0  0  0
  1  7  1  0  0  0  0
  2  1  1  0  0  0  0
  3  4  1  0  0  0  0
  3  2  1  6  0  0  0
  4  5  1  0  0  0  0
  5 22  1  0  0  0  0
  5  6  1  0  0  0  0
  6  7  1  0  0  0  0
  8  3  1  0  0  0  0
  8  4  1  0  0  0  0
  9 13  1  0  0  0  0
 10 11  2  0  0  0  0
 11 14  1  0  0  0  0
 12 10  1  0  0  0  0
 12  9  2  0  0  0  0
 13 14  2  0  0  0  0
 13  8  1  0  0  0  0
 15  9  1  0  0  0  0
 15 19  1  0  0  0  0
 16 19  1  0  0  0  0
 17 18  1  0  0  0  0
 17 16  1  0  0  0  0
 18 15  1  0  0  0  0
 18 19  1  0  0  0  0
 19 20  1  0  0  0  0
 21 17  1  0  0  0  0
 21 18  1  0  0  0  0
 22 23  1  0  0  0  0
 23 27  1  0  0  0  0
 24 25  1  0  0  0  0
 24 27  1  0  0  0  0
 26 24  2  0  0  0  0
M  END
>  <MODEL>
7

>  <REMARK>
 VINA RESULT:      -7.1      2.837      4.638
  Name = 
  5 active torsions:
  status: ('A' for Active; 'I' for Inactive)
    1  A    between atoms: C_1  and  C_6
    2  A    between atoms: C_2  and  C_14
    3  A    between atoms: C_2  and  N_20
    4  A    between atoms: C_14  and  C_19
    5  A    between atoms: C_17  and  C_27
                            x       y       z     vdW  Elec       q    Type
                         _______ _______ _______ _____ _____    ______ ____

>  <TORSDO>
F 5

$$$$
=
 OpenBabel11042414213D

 27 32  0  0  1  0  0  0  0  0999 V2000
  190.7020  175.3410  147.4670 C   0  0  0  0  0  2  0  0  0  0  0  0
  191.2500  175.4820  146.0300 C   0  0  0  0  0  2  0  0  0  0  0  0
  190.1010  175.6910  145.0660 C   0  0  1  0  0  3  0  0  0  0  0  0
  189.4530  176.9350  145.5070 N   0  0  2  0  0  0  0  0  0  0  0  0
  188.1390  176.3890  145.8490 C   0  0  1  0  0  3  0  0  0  0  0  0
  188.1830  175.8220  147.2900 C   0  0  0  0  0  2  0  0  0  0  0  0
  189.2740  174.7590  147.5410 C   0  0  0  0  0  2  0  0  0  0  0  0
  190.0920  176.8170  144.1610 C   0  0  2  0  0  3  0  0  0  0  0  0
  188.7580  175.3840  142.4890 C   0  0  0  0  0  0  0  0  0  0  0  0
  187.5290  176.4940  140.6960 C   0  0  0  0  0  3  0  0  0  0  0  0
  187.8830  177.7360  141.2130 C   0  0  0  0  0  3  0  0  0  0  0  0
  187.9840  175.3310  141.3160 C   0  0  0  0  0  3  0  0  0  0  0  0
  189.1070  176.6550  143.0240 C   0  0  0  0  0  0  0  0  0  0  0  0
  188.6840  177.8110  142.3510 C   0  0  0  0  0  3  0  0  0  0  0  0
  189.3670  174.0890  142.9910 C   0  0  1  0  0  3  0  0  0  0  0  0
  191.1920  172.4020  142.6090 N   0  0  0  0  0  2  0  0  0  0  0  0
  190.0690  171.6780  142.1760 N   0  0  2  0  0  0  0  0  0  0  0  0
  189.2760  172.9330  141.9930 C   0  0  1  0  0  0  0  0  0  0  0  0
  190.5950  173.6680  142.2490 C   0  0  1  0  0  0  0  0  0  0  0  0
  191.0220  174.2270  140.8960 C   0  0  0  0  0  1  0  0  0  0  0  0
  188.9190  171.9280  143.0100 C   0  0  0  0  0  2  0  0  0  0  0  0
  187.0520  177.4650  145.7620 C   0  0  0  0  0  2  0  0  0  0  0  0
  185.6880  176.9210  145.3470 C   0  0  0  0  0  2  0  0  0  0  0  0
  184.6370  178.0110  143.3420 C   0  0  0  0  0  0  0  0  0  0  0  0
  184.5130  178.0850  142.0920 O   0  0  0  0  0  0  0  0  0  0  0  0
  183.9190  178.8760  144.1590 O   0  0  0  0  0  1  0  0  0  0  0  0
  185.5140  177.0410  143.9080 N   0  0  0  0  0  2  0  0  0  0  0  0
  1  7  1  0  0  0  0
  2  1  1  0  0  0  0
  3  4  1  0  0  0  0
  3  2  1  1  0  0  0
  4  5  1  0  0  0  0
  5  6  1  0  0  0  0
  6  7  1  0  0  0  0
  8  3  1  0  0  0  0
  8  4  1  0  0  0  0
  9 15  1  0  0  0  0
  9 13  1  0  0  0  0
 10 11  2  0  0  0  0
 10 12  1  0  0  0  0
 11 14  1  0  0  0  0
 12  9  2  0  0  0  0
 13  8  1  0  0  0  0
 14 13  2  0  0  0  0
 17 16  1  0  0  0  0
 17 21  1  0  0  0  0
 18 17  1  0  0  0  0
 18 19  1  0  0  0  0
 18 15  1  0  0  0  0
 18 21  1  0  0  0  0
 19 16  1  0  0  0  0
 19 15  1  0  0  0  0
 20 19  1  0  0  0  0
 22  5  1  0  0  0  0
 23 22  1  0  0  0  0
 24 27  1  0  0  0  0
 24 26  1  0  0  0  0
 25 24  2  0  0  0  0
 27 23  1  0  0  0  0
M  END
>  <MODEL>
8

>  <REMARK>
 VINA RESULT:      -7.0      2.389      5.261
  Name = 
  5 active torsions:
  status: ('A' for Active; 'I' for Inactive)
    1  A    between atoms: C_1  and  C_6
    2  A    between atoms: C_2  and  C_14
    3  A    between atoms: C_2  and  N_20
    4  A    between atoms: C_14  and  C_19
    5  A    between atoms: C_17  and  C_27
                            x       y       z     vdW  Elec       q    Type
                         _______ _______ _______ _____ _____    ______ ____

>  <TORSDO>
F 5

$$$$
=
 OpenBabel11042414213D

 27 32  0  0  1  0  0  0  0  0999 V2000
  187.4190  176.0720  140.4110 C   0  0  0  0  0  2  0  0  0  0  0  0
  187.7510  175.4280  141.7750 C   0  0  0  0  0  2  0  0  0  0  0  0
  187.3310  176.3590  142.8920 C   0  0  1  0  0  3  0  0  0  0  0  0
  185.8790  176.5260  142.7280 N   0  0  2  0  0  0  0  0  0  0  0  0
  185.8510  177.9670  142.4700 C   0  0  1  0  0  3  0  0  0  0  0  0
  186.1190  178.2190  140.9650 C   0  0  0  0  0  2  0  0  0  0  0  0
  187.4330  177.6160  140.4250 C   0  0  0  0  0  2  0  0  0  0  0  0
  186.4640  175.8980  143.9520 C   0  0  2  0  0  3  0  0  0  0  0  0
  187.6780  177.2180  145.8000 C   0  0  0  0  0  0  0  0  0  0  0  0
  186.3640  178.2110  147.6020 C   0  0  0  0  0  3  0  0  0  0  0  0
  185.1890  177.7950  146.9840 C   0  0  0  0  0  3  0  0  0  0  0  0
  187.5960  177.9030  147.0250 C   0  0  0  0  0  3  0  0  0  0  0  0
  186.4740  176.8050  145.1630 C   0  0  0  0  0  0  0  0  0  0  0  0
  185.2490  177.0770  145.7900 C   0  0  0  0  0  3  0  0  0  0  0  0
  189.0480  176.7590  145.3390 C   0  0  1  0  0  3  0  0  0  0  0  0
  190.8520  175.0410  145.6780 N   0  0  0  0  0  2  0  0  0  0  0  0
  191.4510  176.1710  146.2560 N   0  0  2  0  0  0  0  0  0  0  0  0
  190.1270  176.8450  146.4190 C   0  0  1  0  0  0  0  0  0  0  0  0
  189.5200  175.5030  145.9980 C   0  0  1  0  0  0  0  0  0  0  0  0
  188.9140  174.9110  147.2660 C   0  0  0  0  0  1  0  0  0  0  0  0
  191.1600  177.3700  145.5110 C   0  0  0  0  0  2  0  0  0  0  0  0
  184.4960  178.5710  142.8510 C   0  0  0  0  0  2  0  0  0  0  0  0
  183.3950  178.2860  141.8350 C   0  0  0  0  0  2  0  0  0  0  0  0
  180.9190  178.6240  141.5750 C   0  0  0  0  0  0  0  0  0  0  0  0
  179.8170  178.9780  142.0700 O   0  0  0  0  0  1  0  0  0  0  0  0
  180.9710  178.1750  140.2610 O   0  0  0  0  0  0  0  0  0  0  0  0
  182.1020  178.6860  142.3670 N   0  0  0  0  0  2  0  0  0  0  0  0
  1  7  1  0  0  0  0
  1  2  1  0  0  0  0
  3  2  1  6  0  0  0
  3  8  1  0  0  0  0
  4  3  1  0  0  0  0
  4  8  1  0  0  0  0
  5  4  1  0  0  0  0
  5 22  1  0  0  0  0
  6  5  1  0  0  0  0
  7  6  1  0  0  0  0
  8 13  1  0  0  0  0
  9 12  1  0  0  0  0
 11 10  1  0  0  0  0
 12 10  2  0  0  0  0
 13 14  1  0  0  0  0
 13  9  2  0  0  0  0
 14 11  2  0  0  0  0
 15  9  1  0  0  0  0
 15 19  1  0  0  0  0
 15 18  1  0  0  0  0
 16 19  1  0  0  0  0
 16 17  1  0  0  0  0
 17 18  1  0  0  0  0
 19 18  1  0  0  0  0
 19 20  1  0  0  0  0
 21 17  1  0  0  0  0
 21 18  1  0  0  0  0
 23 27  1  0  0  0  0
 23 22  1  0  0  0  0
 24 25  1  0  0  0  0
 24 27  1  0  0  0  0
 26 24  2  0  0  0  0
M  END
>  <MODEL>
9

>  <REMARK>
 VINA RESULT:      -7.0      3.247      6.556
  Name = 
  5 active torsions:
  status: ('A' for Active; 'I' for Inactive)
    1  A    between atoms: C_1  and  C_6
    2  A    between atoms: C_2  and  C_14
    3  A    between atoms: C_2  and  N_20
    4  A    between atoms: C_14  and  C_19
    5  A    between atoms: C_17  and  C_27
                            x       y       z     vdW  Elec       q    Type
                         _______ _______ _______ _____ _____    ______ ____

>  <TORSDO>
F 5

$$$$
