=
 OpenBabel11042417253D

 56 61  0  0  1  0  0  0  0  0999 V2000
  190.5680  173.2890  140.5760 C   0  0  0  0  0  2  0  0  0  0  0  0
  189.1980  173.7100  140.0300 C   0  0  1  0  0  3  0  0  0  0  0  0
  193.4430  174.6790  140.7070 C   0  0  0  0  0  3  0  0  0  0  0  0
  195.4600  174.9190  139.3350 C   0  0  0  0  0  0  0  0  0  0  0  0
  191.5900  172.8590  138.2300 C   0  0  0  0  0  0  0  0  0  0  0  0
  189.4520  171.5840  138.5310 C   0  0  0  0  0  2  0  0  0  0  0  0
  194.8480  174.2100  138.2850 C   0  0  0  0  0  3  0  0  0  0  0  0
  194.7600  175.1580  140.5460 C   0  0  0  0  0  0  0  0  0  0  0  0
  192.8740  173.9640  139.6550 C   0  0  0  0  0  0  0  0  0  0  0  0
  192.7700  173.0840  137.6040 N   0  0  0  0  0  0  0  0  0  0  0  0
  190.3890  172.2680  137.5450 C   0  0  0  0  0  2  0  0  0  0  0  0
  188.5160  172.5860  139.2130 C   0  0  0  0  0  2  0  0  0  0  0  0
  191.6230  173.3980  139.5180 C   0  0  0  0  0  0  0  0  0  0  0  0
  193.5470  173.7490  138.4800 C   0  0  0  0  0  0  0  0  0  0  0  0
  196.7970  175.3910  139.1620 N   0  0  0  0  0  1  0  0  0  0  0  0
  188.2730  174.1520  141.1800 C   0  0  1  0  0  3  0  0  0  0  0  0
  188.2740  173.1950  142.2030 O   0  0  0  0  0  1  0  0  0  0  0  0
  185.6050  178.4450  143.8520 C   0  0  0  0  0  2  0  0  0  0  0  0
  187.7770  176.6470  141.2370 C   0  0  0  0  0  2  0  0  0  0  0  0
  188.5310  175.4740  143.1920 O   0  0  0  0  0  0  0  0  0  0  0  0
  187.2100  176.7190  144.8580 C   0  0  0  0  0  2  0  0  0  0  0  0
  187.3320  177.3300  142.4840 C   0  0  2  0  0  3  0  0  0  0  0  0
  188.6600  175.5170  141.7780 C   0  0  1  0  0  3  0  0  0  0  0  0
  187.3570  176.1900  143.4430 C   0  0  1  0  0  3  0  0  0  0  0  0
  185.9220  177.8890  142.4550 C   0  0  0  0  0  2  0  0  0  0  0  0
  185.8200  177.3860  144.9610 C   0  0  1  0  0  3  0  0  0  0  0  0
  184.0180  178.0110  146.5900 C   0  0  0  0  0  1  0  0  0  0  0  0
  185.5160  177.9290  146.3700 C   0  0  0  0  0  0  0  0  0  0  0  0
  186.0840  176.9940  147.4240 C   0  0  0  0  0  1  0  0  0  0  0  0
  186.1160  179.3110  146.5660 C   0  0  0  0  0  1  0  0  0  0  0  0
  193.1040  172.7510  136.2230 C   0  0  0  0  0  2  0  0  0  0  0  0
  195.1000  171.4980  135.8940 O   0  0  0  0  0  1  0  0  0  0  0  0
  193.7350  171.3720  136.1600 C   0  0  0  0  0  2  0  0  0  0  0  0
  195.3780  176.0240  141.6020 C   0  0  0  0  0  2  0  0  0  0  0  0
  196.3480  175.2520  142.4860 C   0  0  0  0  0  2  0  0  0  0  0  0
  195.6420  174.6760  143.7080 C   0  0  1  0  0  3  0  0  0  0  0  0
  196.6330  174.1840  144.7390 C   0  0  0  0  0  0  0  0  0  0  0  0
  197.8110  174.4750  144.6170 O   0  0  0  0  0  0  0  0  0  0  0  0
  196.2180  173.2840  145.8670 C   0  0  0  0  0  2  0  0  0  0  0  0
  195.9730  171.8630  145.3850 C   0  0  2  0  0  3  0  0  0  0  0  0
  192.3260  171.4610  144.0270 C   0  0  0  0  0  2  0  0  0  0  0  0
  194.5760  171.5550  145.5630 N   0  0  0  0  0  0  0  0  0  0  0  0
  193.7380  171.5980  144.5920 C   0  0  0  0  0  0  0  0  0  0  0  0
  193.3700  171.8300  143.1270 C   0  0  0  0  0  2  0  0  0  0  0  0
  196.7910  170.9340  146.1560 N   0  0  0  0  0  2  0  0  0  0  0  0
  196.9920  169.8020  145.3530 N   0  0  0  0  0  1  0  0  0  0  0  0
  194.7120  175.7420  144.2710 C   0  0  0  0  0  2  0  0  0  0  0  0
  193.4910  175.1070  144.9150 C   0  0  1  0  0  3  0  0  0  0  0  0
  193.3380  175.5260  146.3470 C   0  0  0  0  0  0  0  0  0  0  0  0
  192.3260  175.0070  147.1390 O   0  0  0  0  0  1  0  0  0  0  0  0
  194.1440  176.3520  146.8480 O   0  0  0  0  0  0  0  0  0  0  0  0
  192.2640  175.5070  144.1120 C   0  0  0  0  0  2  0  0  0  0  0  0
  192.2330  177.0130  143.9210 C   0  0  1  0  0  3  0  0  0  0  0  0
  192.0760  177.3130  142.5680 O   0  0  0  0  0  1  0  0  0  0  0  0
  190.2470  178.2660  144.1140 O   0  0  0  0  0  0  0  0  0  0  0  0
  191.0890  177.5920  144.6850 C   0  0  0  0  0  3  0  0  0  0  0  0
  2  1  1  0  0  0  0
  2 16  1  1  0  0  0
  4  8  2  0  0  0  0
  5 13  2  0  0  0  0
  6 12  1  0  0  0  0
  7 14  2  0  0  0  0
  7  4  1  0  0  0  0
  8  3  1  0  0  0  0
  8 34  1  0  0  0  0
  9  3  2  0  0  0  0
 10  5  1  0  0  0  0
 10 14  1  0  0  0  0
 11  5  1  0  0  0  0
 11  6  1  0  0  0  0
 12  2  1  0  0  0  0
 13  9  1  0  0  0  0
 13  1  1  0  0  0  0
 14  9  1  0  0  0  0
 15  4  1  0  0  0  0
 16 17  1  1  0  0  0
 18 26  1  0  0  0  0
 19 23  1  0  0  0  0
 20 24  1  0  0  0  0
 21 26  1  0  0  0  0
 22 19  1  6  0  0  0
 22 24  1  0  0  0  0
 23 16  1  6  0  0  0
 23 20  1  0  0  0  0
 24 21  1  1  0  0  0
 25 22  1  0  0  0  0
 25 18  1  0  0  0  0
 26 28  1  1  0  0  0
 28 30  1  0  0  0  0
 28 27  1  0  0  0  0
 28 29  1  0  0  0  0
 31 10  1  0  0  0  0
 32 33  1  0  0  0  0
 33 31  1  0  0  0  0
 34 35  1  0  0  0  0
 36 35  1  6  0  0  0
 36 47  1  0  0  0  0
 36 37  1  0  0  0  0
 37 39  1  0  0  0  0
 38 37  2  0  0  0  0
 40 42  1  0  0  0  0
 40 39  1  1  0  0  0
 40 45  1  0  0  0  0
 41 43  1  0  0  0  0
 43 42  2  0  0  0  0
 44 41  1  0  0  0  0
 44 43  1  0  0  0  0
 46 45  1  0  0  0  0
 47 48  1  0  0  0  0
 48 52  1  6  0  0  0
 48 49  1  0  0  0  0
 49 51  2  0  0  0  0
 49 50  1  0  0  0  0
 53 54  1  6  0  0  0
 53 52  1  0  0  0  0
 53 56  1  0  0  0  0
 55 56  2  0  0  0  0
M  END
>  <MODEL>
1

>  <REMARK>
 VINA RESULT:      -6.6      0.000      0.000
  Name = 
  19 active torsions:
  status: ('A' for Active; 'I' for Inactive)
    1  A    between atoms: C_4  and  C_28
    2  A    between atoms: C_4  and  C_46
    3  A    between atoms: C_6  and  C_15
    4  A    between atoms: C_6  and  C_39
    5  A    between atoms: C_10  and  C_23
    6  A    between atoms: C_10  and  C_28
    7  A    between atoms: C_11  and  C_50
    8  A    between atoms: N_13  and  C_40
    9  A    between atoms: C_14  and  C_36
   10  A    between atoms: C_14  and  C_46
   11  A    between atoms: C_16  and  C_36
   12  A    between atoms: C_17  and  C_53
   13  A    between atoms: C_19  and  C_30
   14  A    between atoms: C_19  and  C_56
   15  A    between atoms: C_23  and  C_40
   16  A    between atoms: N_24  and  C_40
   17  A    between atoms: C_28  and  C_56
   18  A    between atoms: N_32  and  C_50
   19  A    between atoms: C_37  and  C_46
                            x       y       z     vdW  Elec       q    Type
                         _______ _______ _______ _____ _____    ______ ____

>  <TORSDO>
F 19

$$$$
=
 OpenBabel11042417253D

 56 61  0  0  1  0  0  0  0  0999 V2000
  190.4750  173.4470  140.3150 C   0  0  0  0  0  2  0  0  0  0  0  0
  189.1830  174.1340  139.8560 C   0  0  1  0  0  3  0  0  0  0  0  0
  193.4550  174.4480  140.8900 C   0  0  0  0  0  3  0  0  0  0  0  0
  195.5600  174.8180  139.6890 C   0  0  0  0  0  0  0  0  0  0  0  0
  191.5830  173.5260  137.9700 C   0  0  0  0  0  0  0  0  0  0  0  0
  189.3220  172.4470  137.8640 C   0  0  0  0  0  2  0  0  0  0  0  0
  194.9450  174.4690  138.4740 C   0  0  0  0  0  3  0  0  0  0  0  0
  194.8180  174.8120  140.9000 C   0  0  0  0  0  0  0  0  0  0  0  0
  192.8820  174.0900  139.6710 C   0  0  0  0  0  0  0  0  0  0  0  0
  192.8130  173.7780  137.4600 N   0  0  0  0  0  0  0  0  0  0  0  0
  190.3730  173.2580  137.1190 C   0  0  0  0  0  2  0  0  0  0  0  0
  188.4460  173.3350  138.7540 C   0  0  0  0  0  2  0  0  0  0  0  0
  191.5930  173.7120  139.3550 C   0  0  0  0  0  0  0  0  0  0  0  0
  193.5970  174.1130  138.5020 C   0  0  0  0  0  0  0  0  0  0  0  0
  196.9430  175.1760  139.6860 N   0  0  0  0  0  1  0  0  0  0  0  0
  188.2400  174.3630  141.0520 C   0  0  1  0  0  3  0  0  0  0  0  0
  188.0500  173.1680  141.7600 O   0  0  0  0  0  1  0  0  0  0  0  0
  186.0740  178.9300  143.7240 C   0  0  0  0  0  2  0  0  0  0  0  0
  188.4470  176.8550  141.5210 C   0  0  0  0  0  2  0  0  0  0  0  0
  188.1320  175.2680  143.2950 O   0  0  0  0  0  0  0  0  0  0  0  0
  186.7030  176.6620  144.7400 C   0  0  0  0  0  2  0  0  0  0  0  0
  187.7990  177.4880  142.7050 C   0  0  2  0  0  3  0  0  0  0  0  0
  188.7480  175.4400  142.0280 C   0  0  1  0  0  3  0  0  0  0  0  0
  187.1830  176.2940  143.3480 C   0  0  1  0  0  3  0  0  0  0  0  0
  186.6930  178.4770  142.3930 C   0  0  0  0  0  2  0  0  0  0  0  0
  185.5980  177.7300  144.5810 C   0  0  1  0  0  3  0  0  0  0  0  0
  185.9070  179.1370  146.6350 C   0  0  0  0  0  1  0  0  0  0  0  0
  184.9840  178.1650  145.9250 C   0  0  0  0  0  0  0  0  0  0  0  0
  183.6620  178.8760  145.6910 C   0  0  0  0  0  1  0  0  0  0  0  0
  184.7430  176.9690  146.8310 C   0  0  0  0  0  1  0  0  0  0  0  0
  193.1910  173.7760  136.0510 C   0  0  0  0  0  2  0  0  0  0  0  0
  193.7110  176.0740  135.7220 O   0  0  0  0  0  1  0  0  0  0  0  0
  192.7810  175.0830  135.4010 C   0  0  0  0  0  2  0  0  0  0  0  0
  195.4540  175.3090  142.1620 C   0  0  0  0  0  2  0  0  0  0  0  0
  195.4080  174.2740  143.2780 C   0  0  0  0  0  2  0  0  0  0  0  0
  195.5350  174.9330  144.6460 C   0  0  1  0  0  3  0  0  0  0  0  0
  194.4580  175.9730  144.8620 C   0  0  0  0  0  0  0  0  0  0  0  0
  194.7830  177.1160  145.1330 O   0  0  0  0  0  0  0  0  0  0  0  0
  193.0000  175.6190  144.8260 C   0  0  0  0  0  2  0  0  0  0  0  0
  192.1300  176.8040  145.2170 C   0  0  2  0  0  3  0  0  0  0  0  0
  189.5670  174.7930  147.3820 C   0  0  0  0  0  2  0  0  0  0  0  0
  191.4840  176.5020  146.4700 N   0  0  0  0  0  0  0  0  0  0  0  0
  190.5850  175.5930  146.5720 C   0  0  0  0  0  0  0  0  0  0  0  0
  189.7010  174.4880  145.9950 C   0  0  0  0  0  2  0  0  0  0  0  0
  191.1290  177.0410  144.1840 N   0  0  0  0  0  2  0  0  0  0  0  0
  191.8200  177.2110  142.9750 N   0  0  0  0  0  1  0  0  0  0  0  0
  195.4980  173.8420  145.7090 C   0  0  0  0  0  2  0  0  0  0  0  0
  195.5090  172.4650  145.0680 C   0  0  1  0  0  3  0  0  0  0  0  0
  196.7650  171.7120  145.3930 C   0  0  0  0  0  0  0  0  0  0  0  0
  196.7990  170.7920  146.4290 O   0  0  0  0  0  1  0  0  0  0  0  0
  197.8050  171.9040  144.7120 O   0  0  0  0  0  0  0  0  0  0  0  0
  194.2910  171.6990  145.5590 C   0  0  0  0  0  2  0  0  0  0  0  0
  193.4140  171.3040  144.3830 C   0  0  1  0  0  3  0  0  0  0  0  0
  193.0580  169.9600  144.4920 O   0  0  0  0  0  1  0  0  0  0  0  0
  191.1260  171.6760  143.9620 O   0  0  0  0  0  0  0  0  0  0  0  0
  192.1770  172.1380  144.3790 C   0  0  0  0  0  3  0  0  0  0  0  0
  2  1  1  0  0  0  0
  2 16  1  1  0  0  0
  3  8  1  0  0  0  0
  4  8  2  0  0  0  0
  5 13  2  0  0  0  0
  6 12  1  0  0  0  0
  7 14  2  0  0  0  0
  7  4  1  0  0  0  0
  8 34  1  0  0  0  0
  9  3  2  0  0  0  0
 10  5  1  0  0  0  0
 10 14  1  0  0  0  0
 11  6  1  0  0  0  0
 11  5  1  0  0  0  0
 12  2  1  0  0  0  0
 13  9  1  0  0  0  0
 13  1  1  0  0  0  0
 14  9  1  0  0  0  0
 15  4  1  0  0  0  0
 16 17  1  1  0  0  0
 18 26  1  0  0  0  0
 19 23  1  0  0  0  0
 20 24  1  0  0  0  0
 22 19  1  6  0  0  0
 22 24  1  0  0  0  0
 23 16  1  6  0  0  0
 23 20  1  0  0  0  0
 24 21  1  1  0  0  0
 25 22  1  0  0  0  0
 25 18  1  0  0  0  0
 26 21  1  0  0  0  0
 26 28  1  1  0  0  0
 28 27  1  0  0  0  0
 28 30  1  0  0  0  0
 29 28  1  0  0  0  0
 31 10  1  0  0  0  0
 33 32  1  0  0  0  0
 33 31  1  0  0  0  0
 34 35  1  0  0  0  0
 36 35  1  6  0  0  0
 36 37  1  0  0  0  0
 36 47  1  0  0  0  0
 37 38  2  0  0  0  0
 39 37  1  0  0  0  0
 40 39  1  6  0  0  0
 40 42  1  0  0  0  0
 42 43  2  0  0  0  0
 43 41  1  0  0  0  0
 44 43  1  0  0  0  0
 44 41  1  0  0  0  0
 45 40  1  0  0  0  0
 46 45  1  0  0  0  0
 48 49  1  0  0  0  0
 48 52  1  1  0  0  0
 48 47  1  0  0  0  0
 49 50  1  0  0  0  0
 51 49  2  0  0  0  0
 53 54  1  1  0  0  0
 53 52  1  0  0  0  0
 55 56  2  0  0  0  0
 56 53  1  0  0  0  0
M  END
>  <MODEL>
2

>  <REMARK>
 VINA RESULT:      -6.5      2.249      3.664
  Name = 
  19 active torsions:
  status: ('A' for Active; 'I' for Inactive)
    1  A    between atoms: C_4  and  C_28
    2  A    between atoms: C_4  and  C_46
    3  A    between atoms: C_6  and  C_15
    4  A    between atoms: C_6  and  C_39
    5  A    between atoms: C_10  and  C_23
    6  A    between atoms: C_10  and  C_28
    7  A    between atoms: C_11  and  C_50
    8  A    between atoms: N_13  and  C_40
    9  A    between atoms: C_14  and  C_36
   10  A    between atoms: C_14  and  C_46
   11  A    between atoms: C_16  and  C_36
   12  A    between atoms: C_17  and  C_53
   13  A    between atoms: C_19  and  C_30
   14  A    between atoms: C_19  and  C_56
   15  A    between atoms: C_23  and  C_40
   16  A    between atoms: N_24  and  C_40
   17  A    between atoms: C_28  and  C_56
   18  A    between atoms: N_32  and  C_50
   19  A    between atoms: C_37  and  C_46
                            x       y       z     vdW  Elec       q    Type
                         _______ _______ _______ _____ _____    ______ ____

>  <TORSDO>
F 19

$$$$
=
 OpenBabel11042417253D

 56 61  0  0  1  0  0  0  0  0999 V2000
  190.3120  173.3510  140.6390 C   0  0  0  0  0  2  0  0  0  0  0  0
  189.1340  174.1470  140.0620 C   0  0  1  0  0  3  0  0  0  0  0  0
  193.3670  174.0310  141.2840 C   0  0  0  0  0  3  0  0  0  0  0  0
  195.5490  174.0420  140.1670 C   0  0  0  0  0  0  0  0  0  0  0  0
  191.5160  173.0970  138.3550 C   0  0  0  0  0  0  0  0  0  0  0  0
  189.1440  172.2930  138.2190 C   0  0  0  0  0  2  0  0  0  0  0  0
  194.9450  173.6680  138.9530 C   0  0  0  0  0  3  0  0  0  0  0  0
  194.7630  174.2270  141.3340 C   0  0  0  0  0  0  0  0  0  0  0  0
  192.8040  173.6420  140.0700 C   0  0  0  0  0  0  0  0  0  0  0  0
  192.7870  173.1550  137.8890 N   0  0  0  0  0  0  0  0  0  0  0  0
  190.3180  172.9060  137.4670 C   0  0  0  0  0  2  0  0  0  0  0  0
  188.3500  173.3520  138.9910 C   0  0  0  0  0  2  0  0  0  0  0  0
  191.4920  173.3960  139.7190 C   0  0  0  0  0  0  0  0  0  0  0  0
  193.5630  173.4800  138.9410 C   0  0  0  0  0  0  0  0  0  0  0  0
  196.9640  174.2290  140.2050 N   0  0  0  0  0  1  0  0  0  0  0  0
  188.1790  174.5870  141.1870 C   0  0  1  0  0  3  0  0  0  0  0  0
  187.8710  173.5030  142.0190 O   0  0  0  0  0  1  0  0  0  0  0  0
  186.0840  178.9160  144.2790 C   0  0  0  0  0  2  0  0  0  0  0  0
  188.1910  177.0940  141.6280 C   0  0  0  0  0  2  0  0  0  0  0  0
  188.4180  175.5050  143.4150 O   0  0  0  0  0  0  0  0  0  0  0  0
  187.1560  176.7490  145.1280 C   0  0  0  0  0  2  0  0  0  0  0  0
  187.7240  177.6650  142.9230 C   0  0  2  0  0  3  0  0  0  0  0  0
  188.7460  175.7290  142.0510 C   0  0  1  0  0  3  0  0  0  0  0  0
  187.3880  176.4180  143.6650 C   0  0  1  0  0  3  0  0  0  0  0  0
  186.4730  178.5180  142.8470 C   0  0  0  0  0  2  0  0  0  0  0  0
  185.9270  177.6830  145.2020 C   0  0  1  0  0  3  0  0  0  0  0  0
  186.1200  179.4230  146.9980 C   0  0  0  0  0  1  0  0  0  0  0  0
  185.5480  178.0630  146.6450 C   0  0  0  0  0  0  0  0  0  0  0  0
  184.0380  178.1520  146.7830 C   0  0  0  0  0  1  0  0  0  0  0  0
  186.0710  177.0390  147.6390 C   0  0  0  0  0  1  0  0  0  0  0  0
  193.2190  172.9880  136.5070 C   0  0  0  0  0  2  0  0  0  0  0  0
  194.5650  174.6830  135.5170 O   0  0  0  0  0  1  0  0  0  0  0  0
  193.2440  174.3330  135.8040 C   0  0  0  0  0  2  0  0  0  0  0  0
  195.4030  174.7500  142.5840 C   0  0  0  0  0  2  0  0  0  0  0  0
  194.4140  174.8610  143.7360 C   0  0  0  0  0  2  0  0  0  0  0  0
  194.5930  173.7200  144.7300 C   0  0  1  0  0  3  0  0  0  0  0  0
  195.7810  173.9560  145.6360 C   0  0  0  0  0  0  0  0  0  0  0  0
  195.7360  174.8650  146.4490 O   0  0  0  0  0  0  0  0  0  0  0  0
  197.0420  173.1520  145.5120 C   0  0  0  0  0  2  0  0  0  0  0  0
  196.7790  171.7970  144.8730 C   0  0  2  0  0  3  0  0  0  0  0  0
  196.0040  168.8610  147.3390 C   0  0  0  0  0  2  0  0  0  0  0  0
  197.1900  170.7700  145.7960 N   0  0  0  0  0  0  0  0  0  0  0  0
  196.3470  169.9970  146.3770 C   0  0  0  0  0  0  0  0  0  0  0  0
  194.9290  169.5010  146.6550 C   0  0  0  0  0  2  0  0  0  0  0  0
  197.5340  171.6840  143.6310 N   0  0  0  0  0  2  0  0  0  0  0  0
  196.6200  171.3290  142.6280 N   0  0  0  0  0  1  0  0  0  0  0  0
  193.2990  173.5590  145.5150 C   0  0  0  0  0  2  0  0  0  0  0  0
  192.1060  173.9970  144.6830 C   0  0  1  0  0  3  0  0  0  0  0  0
  191.1000  172.8940  144.5310 C   0  0  0  0  0  0  0  0  0  0  0  0
  189.8420  172.9910  145.1050 O   0  0  0  0  0  1  0  0  0  0  0  0
  191.3910  171.8690  143.8640 O   0  0  0  0  0  0  0  0  0  0  0  0
  191.4710  175.2040  145.3550 C   0  0  0  0  0  2  0  0  0  0  0  0
  191.9900  175.3430  146.7760 C   0  0  1  0  0  3  0  0  0  0  0  0
  192.6560  176.5610  146.9150 O   0  0  0  0  0  1  0  0  0  0  0  0
  189.7430  175.6940  147.3920 O   0  0  0  0  0  0  0  0  0  0  0  0
  190.8470  175.3000  147.7340 C   0  0  0  0  0  3  0  0  0  0  0  0
  2  1  1  0  0  0  0
  2 16  1  1  0  0  0
  3  8  1  0  0  0  0
  4 15  1  0  0  0  0
  4  8  2  0  0  0  0
  5 13  2  0  0  0  0
  6 12  1  0  0  0  0
  7  4  1  0  0  0  0
  8 34  1  0  0  0  0
  9  3  2  0  0  0  0
 10  5  1  0  0  0  0
 10 14  1  0  0  0  0
 11  6  1  0  0  0  0
 11  5  1  0  0  0  0
 12  2  1  0  0  0  0
 13  9  1  0  0  0  0
 13  1  1  0  0  0  0
 14  7  2  0  0  0  0
 14  9  1  0  0  0  0
 16 17  1  1  0  0  0
 18 26  1  0  0  0  0
 19 23  1  0  0  0  0
 20 24  1  0  0  0  0
 21 26  1  0  0  0  0
 22 19  1  6  0  0  0
 22 24  1  0  0  0  0
 23 16  1  6  0  0  0
 23 20  1  0  0  0  0
 24 21  1  1  0  0  0
 25 22  1  0  0  0  0
 25 18  1  0  0  0  0
 26 28  1  1  0  0  0
 28 29  1  0  0  0  0
 28 27  1  0  0  0  0
 28 30  1  0  0  0  0
 31 10  1  0  0  0  0
 32 33  1  0  0  0  0
 33 31  1  0  0  0  0
 34 35  1  0  0  0  0
 36 35  1  6  0  0  0
 36 47  1  0  0  0  0
 36 37  1  0  0  0  0
 37 38  2  0  0  0  0
 39 37  1  0  0  0  0
 40 39  1  1  0  0  0
 40 42  1  0  0  0  0
 42 43  2  0  0  0  0
 43 44  1  0  0  0  0
 43 41  1  0  0  0  0
 44 41  1  0  0  0  0
 45 40  1  0  0  0  0
 46 45  1  0  0  0  0
 48 52  1  1  0  0  0
 48 47  1  0  0  0  0
 49 48  1  0  0  0  0
 49 50  1  0  0  0  0
 51 49  2  0  0  0  0
 52 53  1  0  0  0  0
 53 54  1  6  0  0  0
 53 56  1  0  0  0  0
 55 56  2  0  0  0  0
M  END
>  <MODEL>
3

>  <REMARK>
 VINA RESULT:      -6.4      1.575      2.339
  Name = 
  19 active torsions:
  status: ('A' for Active; 'I' for Inactive)
    1  A    between atoms: C_4  and  C_28
    2  A    between atoms: C_4  and  C_46
    3  A    between atoms: C_6  and  C_15
    4  A    between atoms: C_6  and  C_39
    5  A    between atoms: C_10  and  C_23
    6  A    between atoms: C_10  and  C_28
    7  A    between atoms: C_11  and  C_50
    8  A    between atoms: N_13  and  C_40
    9  A    between atoms: C_14  and  C_36
   10  A    between atoms: C_14  and  C_46
   11  A    between atoms: C_16  and  C_36
   12  A    between atoms: C_17  and  C_53
   13  A    between atoms: C_19  and  C_30
   14  A    between atoms: C_19  and  C_56
   15  A    between atoms: C_23  and  C_40
   16  A    between atoms: N_24  and  C_40
   17  A    between atoms: C_28  and  C_56
   18  A    between atoms: N_32  and  C_50
   19  A    between atoms: C_37  and  C_46
                            x       y       z     vdW  Elec       q    Type
                         _______ _______ _______ _____ _____    ______ ____

>  <TORSDO>
F 19

$$$$
=
 OpenBabel11042417253D

 56 61  0  0  1  0  0  0  0  0999 V2000
  190.5020  173.3090  140.5480 C   0  0  0  0  0  2  0  0  0  0  0  0
  189.1970  173.5870  139.7890 C   0  0  1  0  0  3  0  0  0  0  0  0
  193.2850  174.8510  140.8450 C   0  0  0  0  0  3  0  0  0  0  0  0
  195.4510  175.0220  139.7100 C   0  0  0  0  0  0  0  0  0  0  0  0
  191.8290  172.6430  138.4200 C   0  0  0  0  0  0  0  0  0  0  0  0
  189.7170  171.3060  138.6230 C   0  0  0  0  0  2  0  0  0  0  0  0
  195.0030  174.1570  138.6950 C   0  0  0  0  0  3  0  0  0  0  0  0
  194.5940  175.3750  140.7860 C   0  0  0  0  0  0  0  0  0  0  0  0
  192.8800  173.9820  139.8340 C   0  0  0  0  0  0  0  0  0  0  0  0
  193.0710  172.8480  137.9190 N   0  0  0  0  0  0  0  0  0  0  0  0
  190.7470  171.9090  137.6770 C   0  0  0  0  0  2  0  0  0  0  0  0
  188.6660  172.3360  139.0480 C   0  0  0  0  0  2  0  0  0  0  0  0
  191.6780  173.3400  139.6210 C   0  0  0  0  0  0  0  0  0  0  0  0
  193.7050  173.6570  138.7890 C   0  0  0  0  0  0  0  0  0  0  0  0
  196.7810  175.5380  139.6410 N   0  0  0  0  0  1  0  0  0  0  0  0
  188.1180  174.1210  140.7490 C   0  0  1  0  0  3  0  0  0  0  0  0
  187.9580  173.2510  141.8360 O   0  0  0  0  0  1  0  0  0  0  0  0
  185.2030  178.3930  143.1850 C   0  0  0  0  0  2  0  0  0  0  0  0
  187.4960  176.5870  140.6810 C   0  0  0  0  0  2  0  0  0  0  0  0
  188.2840  175.5480  142.6980 O   0  0  0  0  0  0  0  0  0  0  0  0
  186.8810  176.8010  144.2890 C   0  0  0  0  0  2  0  0  0  0  0  0
  187.0010  177.3050  141.8900 C   0  0  2  0  0  3  0  0  0  0  0  0
  188.4280  175.5310  141.2850 C   0  0  1  0  0  3  0  0  0  0  0  0
  187.0720  176.2150  142.9030 C   0  0  1  0  0  3  0  0  0  0  0  0
  185.5650  177.7880  141.8200 C   0  0  0  0  0  2  0  0  0  0  0  0
  185.4570  177.4000  144.3460 C   0  0  1  0  0  3  0  0  0  0  0  0
  183.8060  178.7670  145.6500 C   0  0  0  0  0  1  0  0  0  0  0  0
  185.1090  177.9930  145.7240 C   0  0  0  0  0  0  0  0  0  0  0  0
  184.9230  176.8800  146.7410 C   0  0  0  0  0  1  0  0  0  0  0  0
  186.2050  178.9260  146.2130 C   0  0  0  0  0  1  0  0  0  0  0  0
  193.5900  172.3630  136.6450 C   0  0  0  0  0  2  0  0  0  0  0  0
  195.6030  171.1270  136.9280 O   0  0  0  0  0  1  0  0  0  0  0  0
  194.2170  170.9940  136.8270 C   0  0  0  0  0  2  0  0  0  0  0  0
  195.0410  176.3960  141.7860 C   0  0  0  0  0  2  0  0  0  0  0  0
  195.6280  175.7590  143.0390 C   0  0  0  0  0  2  0  0  0  0  0  0
  194.5330  175.3750  144.0270 C   0  0  1  0  0  3  0  0  0  0  0  0
  195.0920  174.5950  145.1960 C   0  0  0  0  0  0  0  0  0  0  0  0
  195.3880  175.1890  146.2200 O   0  0  0  0  0  0  0  0  0  0  0  0
  195.3630  173.1220  145.1060 C   0  0  0  0  0  2  0  0  0  0  0  0
  194.9150  172.5540  143.7680 C   0  0  2  0  0  3  0  0  0  0  0  0
  192.0370  170.2300  142.4930 C   0  0  0  0  0  2  0  0  0  0  0  0
  193.7310  171.7590  143.9840 N   0  0  0  0  0  0  0  0  0  0  0  0
  193.1500  171.1270  143.0310 C   0  0  0  0  0  0  0  0  0  0  0  0
  193.0210  170.6940  141.5710 C   0  0  0  0  0  2  0  0  0  0  0  0
  195.9750  171.7270  143.2050 N   0  0  0  0  0  2  0  0  0  0  0  0
  196.4090  172.3620  142.0320 N   0  0  0  0  0  1  0  0  0  0  0  0
  193.8230  176.6460  144.4740 C   0  0  0  0  0  2  0  0  0  0  0  0
  192.3480  176.3810  144.7200 C   0  0  1  0  0  3  0  0  0  0  0  0
  191.4780  177.2690  143.8810 C   0  0  0  0  0  0  0  0  0  0  0  0
  190.3400  177.8600  144.4080 O   0  0  0  0  0  1  0  0  0  0  0  0
  191.7850  177.4960  142.6820 O   0  0  0  0  0  0  0  0  0  0  0  0
  192.0660  174.9190  144.4140 C   0  0  0  0  0  2  0  0  0  0  0  0
  191.5340  174.2190  145.6520 C   0  0  1  0  0  3  0  0  0  0  0  0
  191.8230  174.9820  146.7840 O   0  0  0  0  0  1  0  0  0  0  0  0
  189.5770  173.4110  144.6180 O   0  0  0  0  0  0  0  0  0  0  0  0
  190.0550  174.0550  145.5390 C   0  0  0  0  0  3  0  0  0  0  0  0
  2  1  1  0  0  0  0
  2 16  1  1  0  0  0
  4  8  2  0  0  0  0
  5 13  2  0  0  0  0
  6 12  1  0  0  0  0
  7 14  2  0  0  0  0
  7  4  1  0  0  0  0
  8  3  1  0  0  0  0
  8 34  1  0  0  0  0
  9  3  2  0  0  0  0
 10  5  1  0  0  0  0
 10 14  1  0  0  0  0
 11  5  1  0  0  0  0
 11  6  1  0  0  0  0
 12  2  1  0  0  0  0
 13  9  1  0  0  0  0
 13  1  1  0  0  0  0
 14  9  1  0  0  0  0
 15  4  1  0  0  0  0
 16 17  1  1  0  0  0
 18 26  1  0  0  0  0
 19 23  1  0  0  0  0
 20 24  1  0  0  0  0
 21 26  1  0  0  0  0
 22 19  1  6  0  0  0
 22 24  1  0  0  0  0
 23 16  1  6  0  0  0
 23 20  1  0  0  0  0
 24 21  1  1  0  0  0
 25 22  1  0  0  0  0
 25 18  1  0  0  0  0
 26 28  1  1  0  0  0
 27 28  1  0  0  0  0
 28 30  1  0  0  0  0
 28 29  1  0  0  0  0
 31 33  1  0  0  0  0
 31 10  1  0  0  0  0
 33 32  1  0  0  0  0
 34 35  1  0  0  0  0
 36 35  1  6  0  0  0
 36 47  1  0  0  0  0
 36 37  1  0  0  0  0
 37 38  2  0  0  0  0
 39 37  1  0  0  0  0
 40 42  1  0  0  0  0
 40 39  1  1  0  0  0
 41 43  1  0  0  0  0
 43 42  2  0  0  0  0
 44 41  1  0  0  0  0
 44 43  1  0  0  0  0
 45 40  1  0  0  0  0
 46 45  1  0  0  0  0
 47 48  1  0  0  0  0
 48 52  1  6  0  0  0
 49 50  1  0  0  0  0
 49 48  1  0  0  0  0
 51 49  2  0  0  0  0
 52 53  1  0  0  0  0
 53 54  1  1  0  0  0
 55 56  2  0  0  0  0
 56 53  1  0  0  0  0
M  END
>  <MODEL>
4

>  <REMARK>
 VINA RESULT:      -6.3      1.238      1.938
  Name = 
  19 active torsions:
  status: ('A' for Active; 'I' for Inactive)
    1  A    between atoms: C_4  and  C_28
    2  A    between atoms: C_4  and  C_46
    3  A    between atoms: C_6  and  C_15
    4  A    between atoms: C_6  and  C_39
    5  A    between atoms: C_10  and  C_23
    6  A    between atoms: C_10  and  C_28
    7  A    between atoms: C_11  and  C_50
    8  A    between atoms: N_13  and  C_40
    9  A    between atoms: C_14  and  C_36
   10  A    between atoms: C_14  and  C_46
   11  A    between atoms: C_16  and  C_36
   12  A    between atoms: C_17  and  C_53
   13  A    between atoms: C_19  and  C_30
   14  A    between atoms: C_19  and  C_56
   15  A    between atoms: C_23  and  C_40
   16  A    between atoms: N_24  and  C_40
   17  A    between atoms: C_28  and  C_56
   18  A    between atoms: N_32  and  C_50
   19  A    between atoms: C_37  and  C_46
                            x       y       z     vdW  Elec       q    Type
                         _______ _______ _______ _____ _____    ______ ____

>  <TORSDO>
F 19

$$$$
=
 OpenBabel11042417253D

 56 61  0  0  1  0  0  0  0  0999 V2000
  190.6960  173.1600  140.1080 C   0  0  0  0  0  2  0  0  0  0  0  0
  189.2580  173.6750  139.9620 C   0  0  1  0  0  3  0  0  0  0  0  0
  193.5860  174.4510  139.6680 C   0  0  0  0  0  3  0  0  0  0  0  0
  195.2220  174.7890  137.8740 C   0  0  0  0  0  0  0  0  0  0  0  0
  191.0970  172.9670  137.5520 C   0  0  0  0  0  0  0  0  0  0  0  0
  189.0310  171.7230  138.2390 C   0  0  0  0  0  2  0  0  0  0  0  0
  194.3380  174.2170  136.9410 C   0  0  0  0  0  3  0  0  0  0  0  0
  194.8490  174.9100  139.2380 C   0  0  0  0  0  0  0  0  0  0  0  0
  192.7430  173.8730  138.7210 C   0  0  0  0  0  0  0  0  0  0  0  0
  192.1010  173.2280  136.6810 N   0  0  0  0  0  0  0  0  0  0  0  0
  189.7370  172.4870  137.1270 C   0  0  0  0  0  2  0  0  0  0  0  0
  188.3410  172.6680  139.2270 C   0  0  0  0  0  2  0  0  0  0  0  0
  191.4680  173.3580  138.8400 C   0  0  0  0  0  0  0  0  0  0  0  0
  193.1000  173.7720  137.4020 C   0  0  0  0  0  0  0  0  0  0  0  0
  196.5000  175.2420  137.4260 N   0  0  0  0  0  1  0  0  0  0  0  0
  188.6630  174.0110  141.3420 C   0  0  1  0  0  3  0  0  0  0  0  0
  189.2860  173.2500  142.3410 O   0  0  0  0  0  1  0  0  0  0  0  0
  185.3320  178.0140  143.7020 C   0  0  0  0  0  2  0  0  0  0  0  0
  187.6320  176.3270  141.1230 C   0  0  0  0  0  2  0  0  0  0  0  0
  188.7820  175.6500  143.1200 O   0  0  0  0  0  0  0  0  0  0  0  0
  187.3550  176.8340  144.7430 C   0  0  0  0  0  2  0  0  0  0  0  0
  187.1480  177.0860  142.3110 C   0  0  2  0  0  3  0  0  0  0  0  0
  188.7850  175.5020  141.7080 C   0  0  1  0  0  3  0  0  0  0  0  0
  187.5020  176.1370  143.4030 C   0  0  1  0  0  3  0  0  0  0  0  0
  185.6520  177.3280  142.3650 C   0  0  0  0  0  2  0  0  0  0  0  0
  185.8650  177.2050  144.9110 C   0  0  1  0  0  3  0  0  0  0  0  0
  184.0730  177.8380  146.5490 C   0  0  0  0  0  1  0  0  0  0  0  0
  185.5620  177.8830  146.2600 C   0  0  0  0  0  0  0  0  0  0  0  0
  186.2690  177.1470  147.3860 C   0  0  0  0  0  1  0  0  0  0  0  0
  186.0170  179.3330  146.2610 C   0  0  0  0  0  1  0  0  0  0  0  0
  192.0730  173.0420  135.2340 C   0  0  0  0  0  2  0  0  0  0  0  0
  192.0890  175.3100  134.5140 O   0  0  0  0  0  1  0  0  0  0  0  0
  191.2910  174.1660  134.5810 C   0  0  0  0  0  2  0  0  0  0  0  0
  195.7490  175.6370  140.1910 C   0  0  0  0  0  2  0  0  0  0  0  0
  194.9740  176.3160  141.3120 C   0  0  0  0  0  2  0  0  0  0  0  0
  195.2930  175.6880  142.6630 C   0  0  1  0  0  3  0  0  0  0  0  0
  196.6890  176.0460  143.1240 C   0  0  0  0  0  0  0  0  0  0  0  0
  196.9780  177.2190  143.2860 O   0  0  0  0  0  0  0  0  0  0  0  0
  197.7500  175.0020  143.3160 C   0  0  0  0  0  2  0  0  0  0  0  0
  197.1590  173.6000  143.3140 C   0  0  2  0  0  3  0  0  0  0  0  0
  196.7600  170.9590  146.1720 C   0  0  0  0  0  2  0  0  0  0  0  0
  197.6480  172.8980  144.4750 N   0  0  0  0  0  0  0  0  0  0  0  0
  196.9570  171.9920  145.0660 C   0  0  0  0  0  0  0  0  0  0  0  0
  195.7090  171.1230  145.2220 C   0  0  0  0  0  2  0  0  0  0  0  0
  197.5600  172.8980  142.1010 N   0  0  0  0  0  2  0  0  0  0  0  0
  196.3890  172.4020  141.5090 N   0  0  0  0  0  1  0  0  0  0  0  0
  194.2310  176.1290  143.6610 C   0  0  0  0  0  2  0  0  0  0  0  0
  194.5990  175.6920  145.0690 C   0  0  1  0  0  3  0  0  0  0  0  0
  194.4790  176.8220  146.0480 C   0  0  0  0  0  0  0  0  0  0  0  0
  195.0000  178.0750  145.7610 O   0  0  0  0  0  0  0  0  0  0  0  0
  193.8890  176.6420  147.1440 O   0  0  0  0  0  1  0  0  0  0  0  0
  193.6850  174.5450  145.4690 C   0  0  0  0  0  2  0  0  0  0  0  0
  192.3540  174.6610  144.7450 C   0  0  1  0  0  3  0  0  0  0  0  0
  192.0490  173.4480  144.1260 O   0  0  0  0  0  1  0  0  0  0  0  0
  190.7100  176.0740  145.6660 O   0  0  0  0  0  0  0  0  0  0  0  0
  191.2780  174.9950  145.7230 C   0  0  0  0  0  3  0  0  0  0  0  0
  2  1  1  0  0  0  0
  2 16  1  1  0  0  0
  4  8  2  0  0  0  0
  5 13  2  0  0  0  0
  6 12  1  0  0  0  0
  7 14  2  0  0  0  0
  7  4  1  0  0  0  0
  8  3  1  0  0  0  0
  8 34  1  0  0  0  0
  9 13  1  0  0  0  0
  9  3  2  0  0  0  0
 10 14  1  0  0  0  0
 10  5  1  0  0  0  0
 11  5  1  0  0  0  0
 11  6  1  0  0  0  0
 12  2  1  0  0  0  0
 13  1  1  0  0  0  0
 14  9  1  0  0  0  0
 15  4  1  0  0  0  0
 16 17  1  1  0  0  0
 18 26  1  0  0  0  0
 19 23  1  0  0  0  0
 20 24  1  0  0  0  0
 21 26  1  0  0  0  0
 22 19  1  6  0  0  0
 22 25  1  0  0  0  0
 22 24  1  0  0  0  0
 23 16  1  1  0  0  0
 23 20  1  0  0  0  0
 24 21  1  1  0  0  0
 25 18  1  0  0  0  0
 26 28  1  1  0  0  0
 28 30  1  0  0  0  0
 28 27  1  0  0  0  0
 28 29  1  0  0  0  0
 31 10  1  0  0  0  0
 32 33  1  0  0  0  0
 33 31  1  0  0  0  0
 34 35  1  0  0  0  0
 36 35  1  6  0  0  0
 36 37  1  0  0  0  0
 36 47  1  0  0  0  0
 37 38  2  0  0  0  0
 37 39  1  0  0  0  0
 40 39  1  6  0  0  0
 40 42  1  0  0  0  0
 42 43  2  0  0  0  0
 43 44  1  0  0  0  0
 43 41  1  0  0  0  0
 44 41  1  0  0  0  0
 45 40  1  0  0  0  0
 46 45  1  0  0  0  0
 48 47  1  6  0  0  0
 48 52  1  0  0  0  0
 48 49  1  0  0  0  0
 49 51  1  0  0  0  0
 50 49  2  0  0  0  0
 53 54  1  1  0  0  0
 53 52  1  0  0  0  0
 53 56  1  0  0  0  0
 55 56  2  0  0  0  0
M  END
>  <MODEL>
5

>  <REMARK>
 VINA RESULT:      -6.2      1.729      2.224
  Name = 
  19 active torsions:
  status: ('A' for Active; 'I' for Inactive)
    1  A    between atoms: C_4  and  C_28
    2  A    between atoms: C_4  and  C_46
    3  A    between atoms: C_6  and  C_15
    4  A    between atoms: C_6  and  C_39
    5  A    between atoms: C_10  and  C_23
    6  A    between atoms: C_10  and  C_28
    7  A    between atoms: C_11  and  C_50
    8  A    between atoms: N_13  and  C_40
    9  A    between atoms: C_14  and  C_36
   10  A    between atoms: C_14  and  C_46
   11  A    between atoms: C_16  and  C_36
   12  A    between atoms: C_17  and  C_53
   13  A    between atoms: C_19  and  C_30
   14  A    between atoms: C_19  and  C_56
   15  A    between atoms: C_23  and  C_40
   16  A    between atoms: N_24  and  C_40
   17  A    between atoms: C_28  and  C_56
   18  A    between atoms: N_32  and  C_50
   19  A    between atoms: C_37  and  C_46
                            x       y       z     vdW  Elec       q    Type
                         _______ _______ _______ _____ _____    ______ ____

>  <TORSDO>
F 19

$$$$
=
 OpenBabel11042417253D

 56 61  0  0  1  0  0  0  0  0999 V2000
  189.8060  174.9460  145.2440 C   0  0  0  0  0  2  0  0  0  0  0  0
  190.3160  176.1590  146.0340 C   0  0  1  0  0  3  0  0  0  0  0  0
  189.8560  174.1060  142.1620 C   0  0  0  0  0  3  0  0  0  0  0  0
  188.5250  174.4110  140.1260 C   0  0  0  0  0  0  0  0  0  0  0  0
  187.7970  176.2190  144.2050 C   0  0  0  0  0  0  0  0  0  0  0  0
  187.8030  176.4280  146.7040 C   0  0  0  0  0  2  0  0  0  0  0  0
  187.6360  175.2540  140.8160 C   0  0  0  0  0  3  0  0  0  0  0  0
  189.6380  173.8380  140.7930 C   0  0  0  0  0  0  0  0  0  0  0  0
  188.9450  174.9290  142.8200 C   0  0  0  0  0  0  0  0  0  0  0  0
  187.1800  176.2880  143.0010 N   0  0  0  0  0  0  0  0  0  0  0  0
  187.4150  177.0740  145.3810 C   0  0  0  0  0  2  0  0  0  0  0  0
  189.2740  176.6840  147.0510 C   0  0  0  0  0  2  0  0  0  0  0  0
  188.9070  175.3750  144.1260 C   0  0  0  0  0  0  0  0  0  0  0  0
  187.8800  175.4950  142.1680 C   0  0  0  0  0  0  0  0  0  0  0  0
  188.2880  174.1420  138.7430 N   0  0  0  0  0  1  0  0  0  0  0  0
  191.6270  175.8140  146.7640 C   0  0  1  0  0  3  0  0  0  0  0  0
  191.9500  174.4630  146.5760 O   0  0  0  0  0  1  0  0  0  0  0  0
  196.4700  175.0160  143.8310 C   0  0  0  0  0  2  0  0  0  0  0  0
  194.1600  176.0590  146.7230 C   0  0  0  0  0  2  0  0  0  0  0  0
  192.7980  176.8100  144.8930 O   0  0  0  0  0  0  0  0  0  0  0  0
  194.3480  176.2330  143.0660 C   0  0  0  0  0  2  0  0  0  0  0  0
  194.9270  176.0680  145.4460 C   0  0  2  0  0  3  0  0  0  0  0  0
  192.8190  176.6750  146.3070 C   0  0  1  0  0  3  0  0  0  0  0  0
  193.8160  175.9540  144.4600 C   0  0  1  0  0  3  0  0  0  0  0  0
  195.8630  174.8930  145.2370 C   0  0  0  0  0  2  0  0  0  0  0  0
  195.3810  175.1310  142.7360 C   0  0  1  0  0  3  0  0  0  0  0  0
  196.4640  176.6810  141.0880 C   0  0  0  0  0  1  0  0  0  0  0  0
  195.9720  175.2660  141.3200 C   0  0  0  0  0  0  0  0  0  0  0  0
  197.1610  174.3340  141.1590 C   0  0  0  0  0  1  0  0  0  0  0  0
  194.9370  174.9270  140.2600 C   0  0  0  0  0  1  0  0  0  0  0  0
  186.0370  177.1240  142.6520 C   0  0  0  0  0  2  0  0  0  0  0  0
  185.6980  179.4370  143.0940 O   0  0  0  0  0  1  0  0  0  0  0  0
  186.4960  178.5430  142.3770 C   0  0  0  0  0  2  0  0  0  0  0  0
  190.6450  173.0480  140.0140 C   0  0  0  0  0  2  0  0  0  0  0  0
  190.3760  171.5510  140.0730 C   0  0  0  0  0  2  0  0  0  0  0  0
  191.6770  170.7590  140.1280 C   0  0  1  0  0  3  0  0  0  0  0  0
  191.9510  170.0530  138.8190 C   0  0  0  0  0  0  0  0  0  0  0  0
  193.0220  169.4900  138.6610 O   0  0  0  0  0  0  0  0  0  0  0  0
  190.9730  170.0890  137.6820 C   0  0  0  0  0  2  0  0  0  0  0  0
  191.5600  170.7840  136.4630 C   0  0  2  0  0  3  0  0  0  0  0  0
  192.5500  174.5210  137.0630 C   0  0  0  0  0  2  0  0  0  0  0  0
  191.2410  172.1880  136.5410 N   0  0  0  0  0  0  0  0  0  0  0  0
  192.1270  173.0750  136.8120 C   0  0  0  0  0  0  0  0  0  0  0  0
  193.5540  173.5110  137.1420 C   0  0  0  0  0  2  0  0  0  0  0  0
  190.9930  170.2100  135.2480 N   0  0  0  0  0  2  0  0  0  0  0  0
  190.1140  171.1650  134.7160 N   0  0  0  0  0  1  0  0  0  0  0  0
  192.8020  171.7100  140.5120 C   0  0  0  0  0  2  0  0  0  0  0  0
  193.4640  171.2680  141.8060 C   0  0  1  0  0  3  0  0  0  0  0  0
  194.9580  171.3710  141.7280 C   0  0  0  0  0  0  0  0  0  0  0  0
  195.7220  171.5660  142.8680 O   0  0  0  0  0  1  0  0  0  0  0  0
  195.5360  171.2670  140.6150 O   0  0  0  0  0  0  0  0  0  0  0  0
  192.9320  172.1350  142.9360 C   0  0  0  0  0  2  0  0  0  0  0  0
  192.0780  171.3020  143.8760 C   0  0  1  0  0  3  0  0  0  0  0  0
  190.7770  171.2180  143.3800 O   0  0  0  0  0  1  0  0  0  0  0  0
  193.6190  169.7200  144.6980 O   0  0  0  0  0  0  0  0  0  0  0  0
  192.6490  169.9280  143.9860 C   0  0  0  0  0  3  0  0  0  0  0  0
  1  2  1  0  0  0  0
  2 16  1  1  0  0  0
  2 12  1  0  0  0  0
  3  9  1  0  0  0  0
  4  8  1  0  0  0  0
  4  7  2  0  0  0  0
  5 11  1  0  0  0  0
  6 12  1  0  0  0  0
  7 14  1  0  0  0  0
  8  3  2  0  0  0  0
  9 13  1  0  0  0  0
 10  5  1  0  0  0  0
 11  6  1  0  0  0  0
 13  5  2  0  0  0  0
 13  1  1  0  0  0  0
 14  9  2  0  0  0  0
 14 10  1  0  0  0  0
 15  4  1  0  0  0  0
 16 17  1  6  0  0  0
 18 25  1  0  0  0  0
 20 23  1  0  0  0  0
 22 25  1  1  0  0  0
 22 19  1  0  0  0  0
 23 19  1  0  0  0  0
 23 16  1  6  0  0  0
 24 21  1  6  0  0  0
 24 20  1  0  0  0  0
 24 22  1  0  0  0  0
 26 28  1  6  0  0  0
 26 21  1  0  0  0  0
 26 18  1  0  0  0  0
 27 28  1  0  0  0  0
 29 28  1  0  0  0  0
 30 28  1  0  0  0  0
 31 10  1  0  0  0  0
 33 31  1  0  0  0  0
 33 32  1  0  0  0  0
 34 35  1  0  0  0  0
 34  8  1  0  0  0  0
 36 35  1  6  0  0  0
 36 47  1  0  0  0  0
 37 36  1  0  0  0  0
 38 37  2  0  0  0  0
 39 37  1  0  0  0  0
 40 42  1  0  0  0  0
 40 39  1  1  0  0  0
 41 44  1  0  0  0  0
 42 43  2  0  0  0  0
 43 41  1  0  0  0  0
 43 44  1  0  0  0  0
 45 40  1  0  0  0  0
 46 45  1  0  0  0  0
 48 47  1  6  0  0  0
 48 52  1  0  0  0  0
 49 48  1  0  0  0  0
 49 50  1  0  0  0  0
 51 49  2  0  0  0  0
 52 53  1  0  0  0  0
 53 54  1  6  0  0  0
 53 56  1  0  0  0  0
 56 55  2  0  0  0  0
M  END
>  <MODEL>
6

>  <REMARK>
 VINA RESULT:      -6.0      3.225      8.577
  Name = 
  19 active torsions:
  status: ('A' for Active; 'I' for Inactive)
    1  A    between atoms: C_4  and  C_28
    2  A    between atoms: C_4  and  C_46
    3  A    between atoms: C_6  and  C_15
    4  A    between atoms: C_6  and  C_39
    5  A    between atoms: C_10  and  C_23
    6  A    between atoms: C_10  and  C_28
    7  A    between atoms: C_11  and  C_50
    8  A    between atoms: N_13  and  C_40
    9  A    between atoms: C_14  and  C_36
   10  A    between atoms: C_14  and  C_46
   11  A    between atoms: C_16  and  C_36
   12  A    between atoms: C_17  and  C_53
   13  A    between atoms: C_19  and  C_30
   14  A    between atoms: C_19  and  C_56
   15  A    between atoms: C_23  and  C_40
   16  A    between atoms: N_24  and  C_40
   17  A    between atoms: C_28  and  C_56
   18  A    between atoms: N_32  and  C_50
   19  A    between atoms: C_37  and  C_46
                            x       y       z     vdW  Elec       q    Type
                         _______ _______ _______ _____ _____    ______ ____

>  <TORSDO>
F 19

$$$$
=
 OpenBabel11042417253D

 56 61  0  0  1  0  0  0  0  0999 V2000
  191.0340  172.7650  141.2260 C   0  0  0  0  0  2  0  0  0  0  0  0
  189.9450  173.8260  141.4340 C   0  0  1  0  0  3  0  0  0  0  0  0
  194.2160  172.8550  140.9460 C   0  0  0  0  0  3  0  0  0  0  0  0
  195.9260  173.1440  139.2140 C   0  0  0  0  0  0  0  0  0  0  0  0
  191.4360  173.3810  138.7380 C   0  0  0  0  0  0  0  0  0  0  0  0
  189.0120  172.9090  139.1710 C   0  0  0  0  0  2  0  0  0  0  0  0
  194.9290  173.3590  138.2450 C   0  0  0  0  0  3  0  0  0  0  0  0
  195.5740  172.8950  140.5660 C   0  0  0  0  0  0  0  0  0  0  0  0
  193.2540  173.0540  139.9580 C   0  0  0  0  0  0  0  0  0  0  0  0
  192.4980  173.5180  137.9070 N   0  0  0  0  0  0  0  0  0  0  0  0
  190.0200  173.6770  138.3270 C   0  0  0  0  0  2  0  0  0  0  0  0
  188.7290  173.6160  140.5000 C   0  0  0  0  0  2  0  0  0  0  0  0
  191.8760  173.0880  140.0310 C   0  0  0  0  0  0  0  0  0  0  0  0
  193.5980  173.3110  138.6560 C   0  0  0  0  0  0  0  0  0  0  0  0
  197.2970  173.1780  138.8130 N   0  0  0  0  0  1  0  0  0  0  0  0
  189.4780  173.8400  142.9010 C   0  0  1  0  0  3  0  0  0  0  0  0
  190.0650  172.7830  143.6100 O   0  0  0  0  0  1  0  0  0  0  0  0
  186.6170  178.5210  144.5090 C   0  0  0  0  0  2  0  0  0  0  0  0
  189.3300  176.3790  142.8240 C   0  0  0  0  0  2  0  0  0  0  0  0
  189.1640  175.1750  144.8960 O   0  0  0  0  0  0  0  0  0  0  0  0
  187.5060  176.6310  145.9950 C   0  0  0  0  0  2  0  0  0  0  0  0
  188.5580  177.1510  143.8390 C   0  0  2  0  0  3  0  0  0  0  0  0
  189.8000  175.1600  143.6270 C   0  0  1  0  0  3  0  0  0  0  0  0
  188.0840  176.0460  144.7190 C   0  0  1  0  0  3  0  0  0  0  0  0
  187.3420  177.8870  143.3120 C   0  0  0  0  0  2  0  0  0  0  0  0
  186.2730  177.4760  145.5990 C   0  0  1  0  0  3  0  0  0  0  0  0
  185.8070  177.2610  148.0550 C   0  0  0  0  0  1  0  0  0  0  0  0
  185.5550  178.0950  146.8130 C   0  0  0  0  0  0  0  0  0  0  0  0
  186.0910  179.4910  147.0820 C   0  0  0  0  0  1  0  0  0  0  0  0
  184.0560  178.1830  146.5780 C   0  0  0  0  0  1  0  0  0  0  0  0
  192.4620  173.9030  136.5010 C   0  0  0  0  0  2  0  0  0  0  0  0
  191.4470  175.8810  135.6520 O   0  0  0  0  0  1  0  0  0  0  0  0
  192.5470  175.4130  136.3740 C   0  0  0  0  0  2  0  0  0  0  0  0
  196.6480  172.7950  141.6060 C   0  0  0  0  0  2  0  0  0  0  0  0
  196.2020  171.9940  142.8220 C   0  0  0  0  0  2  0  0  0  0  0  0
  196.2870  172.8290  144.0940 C   0  0  1  0  0  3  0  0  0  0  0  0
  196.7760  172.0060  145.2650 C   0  0  0  0  0  0  0  0  0  0  0  0
  196.9890  172.5570  146.3310 O   0  0  0  0  0  0  0  0  0  0  0  0
  197.0770  170.5410  145.1300 C   0  0  0  0  0  2  0  0  0  0  0  0
  196.0080  169.6890  145.7970 C   0  0  2  0  0  3  0  0  0  0  0  0
  192.6010  170.4420  144.0290 C   0  0  0  0  0  2  0  0  0  0  0  0
  194.7480  170.3840  145.7070 N   0  0  0  0  0  0  0  0  0  0  0  0
  193.9170  170.1690  144.7540 C   0  0  0  0  0  0  0  0  0  0  0  0
  193.4760  169.4630  143.4720 C   0  0  0  0  0  2  0  0  0  0  0  0
  196.3580  169.4680  147.1960 N   0  0  0  0  0  2  0  0  0  0  0  0
  195.4060  168.5820  147.7200 N   0  0  0  0  0  1  0  0  0  0  0  0
  197.1870  174.0270  143.8220 C   0  0  0  0  0  2  0  0  0  0  0  0
  196.4900  175.3220  144.2010 C   0  0  1  0  0  3  0  0  0  0  0  0
  196.6260  176.3600  143.1270 C   0  0  0  0  0  0  0  0  0  0  0  0
  195.9840  176.2130  141.9060 O   0  0  0  0  0  0  0  0  0  0  0  0
  197.3210  177.3880  143.3320 O   0  0  0  0  0  1  0  0  0  0  0  0
  195.0240  175.0190  144.4620 C   0  0  0  0  0  2  0  0  0  0  0  0
  194.3050  176.2740  144.9240 C   0  0  1  0  0  3  0  0  0  0  0  0
  193.0520  176.3490  144.3140 O   0  0  0  0  0  1  0  0  0  0  0  0
  193.0040  176.2260  146.8880 O   0  0  0  0  0  0  0  0  0  0  0  0
  194.1250  176.2340  146.4040 C   0  0  0  0  0  3  0  0  0  0  0  0
  1  2  1  0  0  0  0
  2 16  1  1  0  0  0
  4  8  2  0  0  0  0
  5 13  2  0  0  0  0
  6 12  1  0  0  0  0
  7 14  2  0  0  0  0
  7  4  1  0  0  0  0
  8  3  1  0  0  0  0
  8 34  1  0  0  0  0
  9 13  1  0  0  0  0
  9  3  2  0  0  0  0
 10 14  1  0  0  0  0
 10  5  1  0  0  0  0
 11  5  1  0  0  0  0
 11  6  1  0  0  0  0
 12  2  1  0  0  0  0
 13  1  1  0  0  0  0
 14  9  1  0  0  0  0
 15  4  1  0  0  0  0
 16 17  1  1  0  0  0
 18 26  1  0  0  0  0
 19 23  1  0  0  0  0
 22 19  1  6  0  0  0
 22 24  1  0  0  0  0
 23 16  1  6  0  0  0
 23 20  1  0  0  0  0
 24 20  1  0  0  0  0
 24 21  1  1  0  0  0
 25 22  1  0  0  0  0
 25 18  1  0  0  0  0
 26 21  1  0  0  0  0
 26 28  1  1  0  0  0
 28 29  1  0  0  0  0
 28 27  1  0  0  0  0
 30 28  1  0  0  0  0
 31 10  1  0  0  0  0
 32 33  1  0  0  0  0
 33 31  1  0  0  0  0
 34 35  1  0  0  0  0
 36 35  1  6  0  0  0
 36 37  1  0  0  0  0
 37 38  2  0  0  0  0
 39 37  1  0  0  0  0
 40 39  1  1  0  0  0
 40 45  1  0  0  0  0
 41 43  1  0  0  0  0
 42 40  1  0  0  0  0
 43 42  2  0  0  0  0
 44 41  1  0  0  0  0
 44 43  1  0  0  0  0
 45 46  1  0  0  0  0
 47 36  1  0  0  0  0
 48 47  1  6  0  0  0
 48 52  1  0  0  0  0
 49 51  1  0  0  0  0
 49 48  1  0  0  0  0
 50 49  2  0  0  0  0
 52 53  1  0  0  0  0
 53 54  1  6  0  0  0
 53 56  1  0  0  0  0
 56 55  2  0  0  0  0
M  END
>  <MODEL>
7

>  <REMARK>
 VINA RESULT:      -5.9      1.848      2.581
  Name = 
  19 active torsions:
  status: ('A' for Active; 'I' for Inactive)
    1  A    between atoms: C_4  and  C_28
    2  A    between atoms: C_4  and  C_46
    3  A    between atoms: C_6  and  C_15
    4  A    between atoms: C_6  and  C_39
    5  A    between atoms: C_10  and  C_23
    6  A    between atoms: C_10  and  C_28
    7  A    between atoms: C_11  and  C_50
    8  A    between atoms: N_13  and  C_40
    9  A    between atoms: C_14  and  C_36
   10  A    between atoms: C_14  and  C_46
   11  A    between atoms: C_16  and  C_36
   12  A    between atoms: C_17  and  C_53
   13  A    between atoms: C_19  and  C_30
   14  A    between atoms: C_19  and  C_56
   15  A    between atoms: C_23  and  C_40
   16  A    between atoms: N_24  and  C_40
   17  A    between atoms: C_28  and  C_56
   18  A    between atoms: N_32  and  C_50
   19  A    between atoms: C_37  and  C_46
                            x       y       z     vdW  Elec       q    Type
                         _______ _______ _______ _____ _____    ______ ____

>  <TORSDO>
F 19

$$$$
=
 OpenBabel11042417253D

 56 61  0  0  1  0  0  0  0  0999 V2000
  193.4430  171.0510  144.3570 C   0  0  0  0  0  2  0  0  0  0  0  0
  193.5940  170.5050  142.9310 C   0  0  1  0  0  3  0  0  0  0  0  0
  192.8840  173.9450  145.5930 C   0  0  0  0  0  3  0  0  0  0  0  0
  194.1220  175.9380  146.3040 C   0  0  0  0  0  0  0  0  0  0  0  0
  195.7720  172.1960  144.3760 C   0  0  0  0  0  0  0  0  0  0  0  0
  195.9620  169.7720  143.7620 C   0  0  0  0  0  2  0  0  0  0  0  0
  195.3290  175.3600  145.8720 C   0  0  0  0  0  3  0  0  0  0  0  0
  192.8960  175.2350  146.1630 C   0  0  0  0  0  0  0  0  0  0  0  0
  194.1000  173.3940  145.1940 C   0  0  0  0  0  0  0  0  0  0  0  0
  196.3020  173.3630  144.8140 N   0  0  0  0  0  0  0  0  0  0  0  0
  196.5560  171.1660  143.6120 C   0  0  0  0  0  2  0  0  0  0  0  0
  194.7990  169.5440  142.7900 C   0  0  0  0  0  2  0  0  0  0  0  0
  194.3930  172.1830  144.6010 C   0  0  0  0  0  0  0  0  0  0  0  0
  195.2790  174.0820  145.3160 C   0  0  0  0  0  0  0  0  0  0  0  0
  194.1500  177.2410  146.8870 N   0  0  0  0  0  1  0  0  0  0  0  0
  192.3040  169.7900  142.4890 C   0  0  1  0  0  3  0  0  0  0  0  0
  191.2000  170.6410  142.6330 O   0  0  0  0  0  1  0  0  0  0  0  0
  189.9950  171.2860  137.4770 C   0  0  0  0  0  2  0  0  0  0  0  0
  190.9530  169.0570  140.4600 C   0  0  0  0  0  2  0  0  0  0  0  0
  193.0280  170.2440  140.2240 O   0  0  0  0  0  0  0  0  0  0  0  0
  192.4240  171.5790  138.2420 C   0  0  0  0  0  2  0  0  0  0  0  0
  191.0070  169.8030  139.1710 C   0  0  2  0  0  3  0  0  0  0  0  0
  192.3570  169.2900  141.0340 C   0  0  1  0  0  3  0  0  0  0  0  0
  191.9960  170.8630  139.5110 C   0  0  1  0  0  3  0  0  0  0  0  0
  189.7160  170.4800  138.7550 C   0  0  0  0  0  2  0  0  0  0  0  0
  191.1730  172.2750  137.6600 C   0  0  1  0  0  3  0  0  0  0  0  0
  191.7070  174.5440  136.7320 C   0  0  0  0  0  1  0  0  0  0  0  0
  191.4750  173.0850  136.3850 C   0  0  0  0  0  0  0  0  0  0  0  0
  192.7380  172.5650  135.7210 C   0  0  0  0  0  1  0  0  0  0  0  0
  190.3270  172.9950  135.3930 C   0  0  0  0  0  1  0  0  0  0  0  0
  197.6890  173.7950  144.6860 C   0  0  0  0  0  2  0  0  0  0  0  0
  197.6930  175.7700  143.3590 O   0  0  0  0  0  1  0  0  0  0  0  0
  197.9220  174.3940  143.3120 C   0  0  0  0  0  2  0  0  0  0  0  0
  191.6070  175.9160  146.5090 C   0  0  0  0  0  2  0  0  0  0  0  0
  190.4450  174.9360  146.6050 C   0  0  0  0  0  2  0  0  0  0  0  0
  189.2340  175.4400  145.8290 C   0  0  1  0  0  3  0  0  0  0  0  0
  188.1680  175.9790  146.7560 C   0  0  0  0  0  0  0  0  0  0  0  0
  187.8720  175.3450  147.7550 O   0  0  0  0  0  0  0  0  0  0  0  0
  187.4100  177.2370  146.4430 C   0  0  0  0  0  2  0  0  0  0  0  0
  185.9340  177.0970  146.7810 C   0  0  2  0  0  3  0  0  0  0  0  0
  184.6960  178.8300  143.4990 C   0  0  0  0  0  2  0  0  0  0  0  0
  185.1820  177.1030  145.5510 N   0  0  0  0  0  0  0  0  0  0  0  0
  185.1650  178.1170  144.7660 C   0  0  0  0  0  0  0  0  0  0  0  0
  185.5800  179.5330  144.3700 C   0  0  0  0  0  2  0  0  0  0  0  0
  185.5160  178.2090  147.6270 N   0  0  0  0  0  2  0  0  0  0  0  0
  186.6800  178.8880  148.0150 N   0  0  0  0  0  1  0  0  0  0  0  0
  189.7060  176.4870  144.8300 C   0  0  0  0  0  2  0  0  0  0  0  0
  189.4780  176.0130  143.4040 C   0  0  1  0  0  3  0  0  0  0  0  0
  188.7350  177.0330  142.5930 C   0  0  0  0  0  0  0  0  0  0  0  0
  189.2750  178.2870  142.3540 O   0  0  0  0  0  1  0  0  0  0  0  0
  187.6090  176.7490  142.1080 O   0  0  0  0  0  0  0  0  0  0  0  0
  190.8310  175.7200  142.7750 C   0  0  0  0  0  2  0  0  0  0  0  0
  190.9860  174.2270  142.5430 C   0  0  1  0  0  3  0  0  0  0  0  0
  189.7500  173.6730  142.2080 O   0  0  0  0  0  1  0  0  0  0  0  0
  193.1310  174.2490  141.5680 O   0  0  0  0  0  0  0  0  0  0  0  0
  191.9460  173.9910  141.4250 C   0  0  0  0  0  3  0  0  0  0  0  0
  1 13  1  0  0  0  0
  2 16  1  1  0  0  0
  2  1  1  0  0  0  0
  3  8  1  0  0  0  0
  4 15  1  0  0  0  0
  5 13  2  0  0  0  0
  5 10  1  0  0  0  0
  7  4  1  0  0  0  0
  8  4  2  0  0  0  0
  8 34  1  0  0  0  0
  9 14  1  0  0  0  0
  9  3  2  0  0  0  0
 10 14  1  0  0  0  0
 11  6  1  0  0  0  0
 11  5  1  0  0  0  0
 12  2  1  0  0  0  0
 12  6  1  0  0  0  0
 13  9  1  0  0  0  0
 14  7  2  0  0  0  0
 16 17  1  6  0  0  0
 18 26  1  0  0  0  0
 18 25  1  0  0  0  0
 19 23  1  0  0  0  0
 20 23  1  0  0  0  0
 22 25  1  1  0  0  0
 22 24  1  0  0  0  0
 22 19  1  0  0  0  0
 23 16  1  1  0  0  0
 24 21  1  6  0  0  0
 24 20  1  0  0  0  0
 26 28  1  6  0  0  0
 26 21  1  0  0  0  0
 28 27  1  0  0  0  0
 29 28  1  0  0  0  0
 30 28  1  0  0  0  0
 31 10  1  0  0  0  0
 33 32  1  0  0  0  0
 33 31  1  0  0  0  0
 34 35  1  0  0  0  0
 36 47  1  6  0  0  0
 36 35  1  0  0  0  0
 36 37  1  0  0  0  0
 37 38  2  0  0  0  0
 39 37  1  0  0  0  0
 40 39  1  6  0  0  0
 40 45  1  0  0  0  0
 41 44  1  0  0  0  0
 41 43  1  0  0  0  0
 42 40  1  0  0  0  0
 43 42  2  0  0  0  0
 44 43  1  0  0  0  0
 45 46  1  0  0  0  0
 48 52  1  6  0  0  0
 48 47  1  0  0  0  0
 49 48  1  0  0  0  0
 50 49  1  0  0  0  0
 51 49  2  0  0  0  0
 53 54  1  6  0  0  0
 53 52  1  0  0  0  0
 56 55  2  0  0  0  0
 56 53  1  0  0  0  0
M  END
>  <MODEL>
8

>  <REMARK>
 VINA RESULT:      -5.9      3.403      8.628
  Name = 
  19 active torsions:
  status: ('A' for Active; 'I' for Inactive)
    1  A    between atoms: C_4  and  C_28
    2  A    between atoms: C_4  and  C_46
    3  A    between atoms: C_6  and  C_15
    4  A    between atoms: C_6  and  C_39
    5  A    between atoms: C_10  and  C_23
    6  A    between atoms: C_10  and  C_28
    7  A    between atoms: C_11  and  C_50
    8  A    between atoms: N_13  and  C_40
    9  A    between atoms: C_14  and  C_36
   10  A    between atoms: C_14  and  C_46
   11  A    between atoms: C_16  and  C_36
   12  A    between atoms: C_17  and  C_53
   13  A    between atoms: C_19  and  C_30
   14  A    between atoms: C_19  and  C_56
   15  A    between atoms: C_23  and  C_40
   16  A    between atoms: N_24  and  C_40
   17  A    between atoms: C_28  and  C_56
   18  A    between atoms: N_32  and  C_50
   19  A    between atoms: C_37  and  C_46
                            x       y       z     vdW  Elec       q    Type
                         _______ _______ _______ _____ _____    ______ ____

>  <TORSDO>
F 19

$$$$
=
 OpenBabel11042417253D

 56 61  0  0  1  0  0  0  0  0999 V2000
  195.5470  172.3860  140.9940 C   0  0  0  0  0  2  0  0  0  0  0  0
  197.0010  172.7040  141.3660 C   0  0  1  0  0  3  0  0  0  0  0  0
  192.7150  172.9610  142.3580 C   0  0  0  0  0  3  0  0  0  0  0  0
  191.1980  171.9520  143.9990 C   0  0  0  0  0  0  0  0  0  0  0  0
  195.2990  170.5030  142.7620 C   0  0  0  0  0  0  0  0  0  0  0  0
  197.2940  170.1070  141.2960 C   0  0  0  0  0  2  0  0  0  0  0  0
  192.1260  170.9240  144.2450 C   0  0  0  0  0  3  0  0  0  0  0  0
  191.4900  172.9750  143.0580 C   0  0  0  0  0  0  0  0  0  0  0  0
  193.6030  171.9180  142.6130 C   0  0  0  0  0  0  0  0  0  0  0  0
  194.3550  170.0800  143.6370 N   0  0  0  0  0  0  0  0  0  0  0  0
  196.6720  169.8990  142.6700 C   0  0  0  0  0  2  0  0  0  0  0  0
  197.9410  171.4900  141.1700 C   0  0  0  0  0  2  0  0  0  0  0  0
  194.8580  171.6530  142.1030 C   0  0  0  0  0  0  0  0  0  0  0  0
  193.3250  170.9410  143.5340 C   0  0  0  0  0  0  0  0  0  0  0  0
  189.9590  171.9490  144.7080 N   0  0  0  0  0  1  0  0  0  0  0  0
  197.5180  173.9010  140.5470 C   0  0  1  0  0  3  0  0  0  0  0  0
  196.9120  173.9260  139.2840 O   0  0  0  0  0  1  0  0  0  0  0  0
  193.1790  176.5390  143.1720 C   0  0  0  0  0  2  0  0  0  0  0  0
  196.0470  175.9730  140.6740 C   0  0  0  0  0  2  0  0  0  0  0  0
  197.0950  175.0580  142.6310 O   0  0  0  0  0  0  0  0  0  0  0  0
  195.2840  175.5350  144.2330 C   0  0  0  0  0  2  0  0  0  0  0  0
  195.2880  176.3220  141.9080 C   0  0  2  0  0  3  0  0  0  0  0  0
  197.2800  175.2560  141.2370 C   0  0  1  0  0  3  0  0  0  0  0  0
  195.7180  175.2200  142.8130 C   0  0  1  0  0  3  0  0  0  0  0  0
  193.7780  176.2660  141.7840 C   0  0  0  0  0  2  0  0  0  0  0  0
  193.7390  175.5750  144.2470 C   0  0  1  0  0  3  0  0  0  0  0  0
  192.8590  174.5310  146.3500 C   0  0  0  0  0  1  0  0  0  0  0  0
  193.1580  175.8410  145.6480 C   0  0  0  0  0  0  0  0  0  0  0  0
  194.1640  176.5980  146.4970 C   0  0  0  0  0  1  0  0  0  0  0  0
  191.8770  176.6550  145.5650 C   0  0  0  0  0  1  0  0  0  0  0  0
  194.4660  168.9640  144.5700 C   0  0  0  0  0  2  0  0  0  0  0  0
  196.0130  169.9180  146.1060 O   0  0  0  0  0  1  0  0  0  0  0  0
  194.6920  169.4850  145.9770 C   0  0  0  0  0  2  0  0  0  0  0  0
  190.5490  174.1300  142.9030 C   0  0  0  0  0  2  0  0  0  0  0  0
  189.2130  173.7110  142.3050 C   0  0  0  0  0  2  0  0  0  0  0  0
  188.7640  174.6830  141.2210 C   0  0  1  0  0  3  0  0  0  0  0  0
  188.6770  174.0060  139.8710 C   0  0  0  0  0  0  0  0  0  0  0  0
  188.0590  174.5520  138.9720 O   0  0  0  0  0  0  0  0  0  0  0  0
  189.2650  172.6470  139.6290 C   0  0  0  0  0  2  0  0  0  0  0  0
  190.7730  172.7170  139.4470 C   0  0  2  0  0  3  0  0  0  0  0  0
  193.0860  174.6930  136.9880 C   0  0  0  0  0  2  0  0  0  0  0  0
  191.0510  173.3140  138.1650 N   0  0  0  0  0  0  0  0  0  0  0  0
  192.1590  173.9110  137.9160 C   0  0  0  0  0  0  0  0  0  0  0  0
  193.5540  174.3990  138.3030 C   0  0  0  0  0  2  0  0  0  0  0  0
  191.3380  171.3740  139.5060 N   0  0  0  0  0  2  0  0  0  0  0  0
  190.5740  170.6480  140.4310 N   0  0  0  0  0  1  0  0  0  0  0  0
  187.4340  175.2920  141.6430 C   0  0  0  0  0  2  0  0  0  0  0  0
  187.5560  176.7970  141.8050 C   0  0  1  0  0  3  0  0  0  0  0  0
  186.6570  177.5310  140.8540 C   0  0  0  0  0  0  0  0  0  0  0  0
  185.6240  178.3300  141.3210 O   0  0  0  0  0  1  0  0  0  0  0  0
  186.8440  177.4360  139.6140 O   0  0  0  0  0  0  0  0  0  0  0  0
  187.2130  177.1550  143.2420 C   0  0  0  0  0  2  0  0  0  0  0  0
  188.4240  176.9470  144.1350 C   0  0  1  0  0  3  0  0  0  0  0  0
  189.1160  178.1500  144.2750 O   0  0  0  0  0  1  0  0  0  0  0  0
  186.7950  176.4910  145.7750 O   0  0  0  0  0  0  0  0  0  0  0  0
  187.9800  176.4790  145.4800 C   0  0  0  0  0  3  0  0  0  0  0  0
  1  2  1  0  0  0  0
  1 13  1  0  0  0  0
  2 16  1  6  0  0  0
  3  9  2  0  0  0  0
  3  8  1  0  0  0  0
  4  7  1  0  0  0  0
  4 15  1  0  0  0  0
  5 10  1  0  0  0  0
  6 11  1  0  0  0  0
  8  4  2  0  0  0  0
  9 14  1  0  0  0  0
 10 31  1  0  0  0  0
 11  5  1  0  0  0  0
 12  6  1  0  0  0  0
 12  2  1  0  0  0  0
 13  9  1  0  0  0  0
 13  5  2  0  0  0  0
 14 10  1  0  0  0  0
 14  7  2  0  0  0  0
 16 17  1  6  0  0  0
 18 26  1  0  0  0  0
 19 23  1  0  0  0  0
 20 24  1  0  0  0  0
 21 26  1  0  0  0  0
 22 19  1  6  0  0  0
 22 24  1  0  0  0  0
 23 16  1  6  0  0  0
 23 20  1  0  0  0  0
 24 21  1  1  0  0  0
 25 22  1  0  0  0  0
 25 18  1  0  0  0  0
 26 28  1  1  0  0  0
 28 27  1  0  0  0  0
 28 29  1  0  0  0  0
 30 28  1  0  0  0  0
 31 33  1  0  0  0  0
 33 32  1  0  0  0  0
 34  8  1  0  0  0  0
 35 34  1  0  0  0  0
 36 47  1  1  0  0  0
 36 35  1  0  0  0  0
 37 36  1  0  0  0  0
 38 37  2  0  0  0  0
 39 37  1  0  0  0  0
 40 45  1  0  0  0  0
 40 39  1  6  0  0  0
 41 43  1  0  0  0  0
 41 44  1  0  0  0  0
 42 40  1  0  0  0  0
 43 42  2  0  0  0  0
 43 44  1  0  0  0  0
 45 46  1  0  0  0  0
 48 47  1  1  0  0  0
 48 52  1  0  0  0  0
 49 50  1  0  0  0  0
 49 48  1  0  0  0  0
 51 49  2  0  0  0  0
 52 53  1  0  0  0  0
 53 54  1  1  0  0  0
 53 56  1  0  0  0  0
 56 55  2  0  0  0  0
M  END
>  <MODEL>
9

>  <REMARK>
 VINA RESULT:      -5.9      2.417      7.747
  Name = 
  19 active torsions:
  status: ('A' for Active; 'I' for Inactive)
    1  A    between atoms: C_4  and  C_28
    2  A    between atoms: C_4  and  C_46
    3  A    between atoms: C_6  and  C_15
    4  A    between atoms: C_6  and  C_39
    5  A    between atoms: C_10  and  C_23
    6  A    between atoms: C_10  and  C_28
    7  A    between atoms: C_11  and  C_50
    8  A    between atoms: N_13  and  C_40
    9  A    between atoms: C_14  and  C_36
   10  A    between atoms: C_14  and  C_46
   11  A    between atoms: C_16  and  C_36
   12  A    between atoms: C_17  and  C_53
   13  A    between atoms: C_19  and  C_30
   14  A    between atoms: C_19  and  C_56
   15  A    between atoms: C_23  and  C_40
   16  A    between atoms: N_24  and  C_40
   17  A    between atoms: C_28  and  C_56
   18  A    between atoms: N_32  and  C_50
   19  A    between atoms: C_37  and  C_46
                            x       y       z     vdW  Elec       q    Type
                         _______ _______ _______ _____ _____    ______ ____

>  <TORSDO>
F 19

$$$$
