=
 OpenBabel11042419463D

 50 55  0  0  1  0  0  0  0  0999 V2000
  192.9760  174.3480  142.3630 C   0  0  2  0  0  3  0  0  0  0  0  0
  195.1500  174.2600  139.3190 N   0  0  0  0  0  0  0  0  0  0  0  0
  192.0170  172.2200  141.2410 C   0  0  0  0  0  2  0  0  0  0  0  0
  192.6810  173.9100  139.5820 N   0  0  0  0  0  0  0  0  0  0  0  0
  191.7350  173.5700  141.8690 C   0  0  2  0  0  0  0  0  0  0  0  0
  193.9820  174.1580  140.1510 C   0  0  0  0  0  0  0  0  0  0  0  0
  192.6270  175.8040  142.6560 C   0  0  0  0  0  1  0  0  0  0  0  0
  192.4020  174.3190  138.2130 C   0  0  0  0  0  1  0  0  0  0  0  0
  194.1020  174.3060  141.4360 N   0  0  0  0  0  0  0  0  0  0  0  0
  191.5550  173.3900  140.3660 C   0  0  2  0  0  3  0  0  0  0  0  0
  195.9310  173.6140  137.0610 C   0  0  0  0  0  3  0  0  0  0  0  0
  195.8490  170.9100  137.7620 C   0  0  0  0  0  3  0  0  0  0  0  0
  196.3350  172.6380  136.1430 C   0  0  0  0  0  3  0  0  0  0  0  0
  196.2960  171.2870  136.4940 C   0  0  0  0  0  3  0  0  0  0  0  0
  195.4410  171.8860  138.6780 C   0  0  0  0  0  3  0  0  0  0  0  0
  195.4730  173.2500  138.3400 C   0  0  0  0  0  0  0  0  0  0  0  0
  190.1970  172.5000  143.3400 O   0  0  0  0  0  0  0  0  0  0  0  0
  190.5100  173.5710  142.7530 C   0  0  0  0  0  0  0  0  0  0  0  0
  189.6980  174.7290  142.9880 N   0  0  0  0  0  2  0  0  0  0  0  0
  185.0070  178.3750  141.5800 O   0  0  0  0  0  0  0  0  0  0  0  0
  185.6780  179.1690  143.7260 C   0  0  0  0  0  2  0  0  0  0  0  0
  185.8720  178.3310  142.4980 C   0  0  0  0  0  0  0  0  0  0  0  0
  184.3580  178.8720  144.3660 C   0  0  0  0  0  3  0  0  0  0  0  0
  185.3270  179.0380  146.6620 C   0  0  0  0  0  2  0  0  0  0  0  0
  188.0540  175.5030  141.3560 C   0  0  0  0  0  2  0  0  0  0  0  0
  185.7820  177.7100  147.2590 C   0  0  0  0  0  2  0  0  0  0  0  0
  187.5480  177.3130  145.6850 O   0  0  0  0  0  0  0  0  0  0  0  0
  187.7460  176.5960  144.5070 C   0  0  0  0  0  2  0  0  0  0  0  0
  184.1940  178.8370  145.6950 C   0  0  0  0  0  3  0  0  0  0  0  0
  187.0450  177.5160  142.3430 N   0  0  0  0  0  0  0  0  0  0  0  0
  188.1060  177.5360  143.3620 C   0  0  2  0  0  3  0  0  0  0  0  0
  189.4570  177.1440  142.7430 C   0  0  0  0  0  2  0  0  0  0  0  0
  187.2390  176.7710  141.0950 C   0  0  0  0  0  2  0  0  0  0  0  0
  186.3720  176.7760  146.2100 C   0  0  0  0  0  2  0  0  0  0  0  0
  189.4080  175.7850  142.0250 C   0  0  1  0  0  3  0  0  0  0  0  0
  196.1610  175.2500  139.6810 C   0  0  0  0  0  2  0  0  0  0  0  0
  197.3380  174.5700  140.3660 C   0  0  0  0  0  2  0  0  0  0  0  0
  197.8020  175.4190  141.5350 C   0  0  0  0  0  2  0  0  0  0  0  0
  195.7540  175.8150  144.7110 C   0  0  0  0  0  0  0  0  0  0  0  0
  196.1070  174.5300  145.4340 C   0  0  0  0  0  2  0  0  0  0  0  0
  196.4970  173.4820  144.4870 N   0  0  0  0  0  0  0  0  0  0  0  0
  196.2580  176.0670  143.4980 C   0  0  0  0  0  3  0  0  0  0  0  0
  197.1470  173.8160  143.2570 C   0  0  0  0  0  3  0  0  0  0  0  0
  197.0870  175.0680  142.7960 C   0  0  0  0  0  0  0  0  0  0  0  0
  196.4460  172.0960  144.9080 C   0  0  0  0  0  1  0  0  0  0  0  0
  194.8800  176.7370  145.2830 O   0  0  0  0  0  0  0  0  0  0  0  0
  194.1810  176.4710  146.5010 C   0  0  0  0  0  2  0  0  0  0  0  0
  192.7780  176.0060  146.2340 C   0  0  0  0  0  0  0  0  0  0  0  0
  192.4730  174.5470  146.2630 C   0  0  0  0  0  1  0  0  0  0  0  0
  191.8930  176.7980  145.9570 O   0  0  0  0  0  0  0  0  0  0  0  0
  1  7  1  6  0  0  0
  2 36  1  0  0  0  0
  2  6  1  0  0  0  0
  3  5  1  0  0  0  0
  4  6  1  0  0  0  0
  4 10  1  0  0  0  0
  5  1  1  0  0  0  0
  5 18  1  1  0  0  0
  6  9  2  0  0  0  0
  8  4  1  0  0  0  0
  9  1  1  0  0  0  0
 10  3  1  1  0  0  0
 10  5  1  0  0  0  0
 11 16  1  0  0  0  0
 12 15  1  0  0  0  0
 13 14  1  0  0  0  0
 13 11  2  0  0  0  0
 14 12  2  0  0  0  0
 16 15  2  0  0  0  0
 16  2  1  0  0  0  0
 18 19  1  0  0  0  0
 18 17  2  0  0  0  0
 20 22  2  0  0  0  0
 21 23  1  0  0  0  0
 22 21  1  0  0  0  0
 23 29  2  0  0  0  0
 24 26  1  0  0  0  0
 25 35  1  0  0  0  0
 27 34  1  0  0  0  0
 28 27  1  0  0  0  0
 29 24  1  0  0  0  0
 30 22  1  0  0  0  0
 30 31  1  0  0  0  0
 31 32  1  6  0  0  0
 31 28  1  0  0  0  0
 33 25  1  0  0  0  0
 33 30  1  0  0  0  0
 34 26  1  0  0  0  0
 35 32  1  0  0  0  0
 35 19  1  1  0  0  0
 36 37  1  0  0  0  0
 37 38  1  0  0  0  0
 38 44  1  0  0  0  0
 39 46  1  0  0  0  0
 39 40  1  0  0  0  0
 41 45  1  0  0  0  0
 41 40  1  0  0  0  0
 42 39  2  0  0  0  0
 43 41  1  0  0  0  0
 44 43  2  0  0  0  0
 44 42  1  0  0  0  0
 46 47  1  0  0  0  0
 48 49  1  0  0  0  0
 48 47  1  0  0  0  0
 50 48  2  0  0  0  0
M  END
>  <MODEL>
1

>  <REMARK>
 VINA RESULT:      -8.0      0.000      0.000
  Name = 
  10 active torsions:
  status: ('A' for Active; 'I' for Inactive)
    1  A    between atoms: C_2  and  C_7
    2  A    between atoms: C_2  and  O_42
    3  A    between atoms: C_5  and  O_42
    4  A    between atoms: C_9  and  C_44
    5  A    between atoms: C_9  and  C_50
    6  A    between atoms: N_10  and  C_26
    7  A    between atoms: N_10  and  C_38
    8  A    between atoms: C_22  and  C_30
    9  A    between atoms: C_26  and  C_50
   10  A    between atoms: C_47  and  N_49
                            x       y       z     vdW  Elec       q    Type
                         _______ _______ _______ _____ _____    ______ ____

>  <TORSDO>
F 10

$$$$
=
 OpenBabel11042419463D

 50 55  0  0  1  0  0  0  0  0999 V2000
  192.4320  172.1500  143.2090 C   0  0  2  0  0  3  0  0  0  0  0  0
  193.8840  171.5120  139.8200 N   0  0  0  0  0  0  0  0  0  0  0  0
  190.3200  171.2230  142.0310 C   0  0  0  0  0  2  0  0  0  0  0  0
  191.7100  172.5580  140.5030 N   0  0  0  0  0  0  0  0  0  0  0  0
  190.9350  172.3280  142.8670 C   0  0  2  0  0  0  0  0  0  0  0  0
  192.9500  171.9070  140.8400 C   0  0  0  0  0  0  0  0  0  0  0  0
  193.0280  173.4490  143.7440 C   0  0  0  0  0  1  0  0  0  0  0  0
  191.6120  173.3340  139.2740 C   0  0  0  0  0  1  0  0  0  0  0  0
  193.2390  171.6840  142.0870 N   0  0  0  0  0  0  0  0  0  0  0  0
  190.5610  172.6050  141.4150 C   0  0  2  0  0  3  0  0  0  0  0  0
  193.8930  171.0820  137.3830 C   0  0  0  0  0  3  0  0  0  0  0  0
  192.4210  168.7350  137.7510 C   0  0  0  0  0  3  0  0  0  0  0  0
  193.5740  170.2730  136.2860 C   0  0  0  0  0  3  0  0  0  0  0  0
  192.8400  169.0990  136.4700 C   0  0  0  0  0  3  0  0  0  0  0  0
  192.7360  169.5460  138.8470 C   0  0  0  0  0  3  0  0  0  0  0  0
  193.4720  170.7300  138.6780 C   0  0  0  0  0  0  0  0  0  0  0  0
  189.6240  172.0020  144.8300 O   0  0  0  0  0  0  0  0  0  0  0  0
  190.0200  172.8260  143.9610 C   0  0  0  0  0  0  0  0  0  0  0  0
  189.5980  174.1910  144.0860 N   0  0  0  0  0  2  0  0  0  0  0  0
  185.0250  177.7990  142.2580 O   0  0  0  0  0  0  0  0  0  0  0  0
  185.7780  178.8600  144.2560 C   0  0  0  0  0  2  0  0  0  0  0  0
  185.9090  177.8490  143.1570 C   0  0  0  0  0  0  0  0  0  0  0  0
  184.4630  178.7130  144.9560 C   0  0  0  0  0  3  0  0  0  0  0  0
  185.4920  179.1600  147.1870 C   0  0  0  0  0  2  0  0  0  0  0  0
  187.9480  174.7960  142.3910 C   0  0  0  0  0  2  0  0  0  0  0  0
  185.9080  177.9120  147.9590 C   0  0  0  0  0  2  0  0  0  0  0  0
  187.6180  177.2200  146.4260 O   0  0  0  0  0  0  0  0  0  0  0  0
  187.7590  176.3370  145.3590 C   0  0  0  0  0  2  0  0  0  0  0  0
  184.3290  178.8740  146.2790 C   0  0  0  0  0  3  0  0  0  0  0  0
  187.0450  176.9700  143.0990 N   0  0  0  0  0  0  0  0  0  0  0  0
  188.1300  177.0890  144.0850 C   0  0  2  0  0  3  0  0  0  0  0  0
  189.4480  176.5550  143.5040 C   0  0  0  0  0  2  0  0  0  0  0  0
  187.1780  176.0490  141.9660 C   0  0  0  0  0  2  0  0  0  0  0  0
  186.4350  176.8150  147.0430 C   0  0  0  0  0  2  0  0  0  0  0  0
  189.3280  175.1110  142.9880 C   0  0  1  0  0  3  0  0  0  0  0  0
  195.3080  171.6600  140.1050 C   0  0  0  0  0  2  0  0  0  0  0  0
  195.6960  173.1320  140.0880 C   0  0  0  0  0  2  0  0  0  0  0  0
  196.9650  173.3310  140.8960 C   0  0  0  0  0  2  0  0  0  0  0  0
  196.0900  175.4300  143.9410 C   0  0  0  0  0  0  0  0  0  0  0  0
  196.5550  174.5140  145.0550 C   0  0  0  0  0  2  0  0  0  0  0  0
  196.5340  173.1120  144.6300 N   0  0  0  0  0  0  0  0  0  0  0  0
  196.1930  175.0450  142.6640 C   0  0  0  0  0  3  0  0  0  0  0  0
  196.7770  172.7610  143.2640 C   0  0  0  0  0  3  0  0  0  0  0  0
  196.6700  173.6930  142.3130 C   0  0  0  0  0  0  0  0  0  0  0  0
  196.5130  172.0690  145.6360 C   0  0  0  0  0  1  0  0  0  0  0  0
  195.5240  176.6700  144.2270 O   0  0  0  0  0  0  0  0  0  0  0  0
  194.8430  176.9320  145.4570 C   0  0  0  0  0  2  0  0  0  0  0  0
  193.3600  176.7560  145.3080 C   0  0  0  0  0  0  0  0  0  0  0  0
  192.5660  176.2340  146.4570 C   0  0  0  0  0  1  0  0  0  0  0  0
  192.7980  176.9950  144.2520 O   0  0  0  0  0  0  0  0  0  0  0  0
  1  7  1  6  0  0  0
  2 36  1  0  0  0  0
  2  6  1  0  0  0  0
  3  5  1  0  0  0  0
  4  6  1  0  0  0  0
  4 10  1  0  0  0  0
  5  1  1  0  0  0  0
  5 18  1  1  0  0  0
  6  9  2  0  0  0  0
  8  4  1  0  0  0  0
  9  1  1  0  0  0  0
 10  3  1  6  0  0  0
 10  5  1  0  0  0  0
 11 16  1  0  0  0  0
 12 15  1  0  0  0  0
 13 14  1  0  0  0  0
 13 11  2  0  0  0  0
 14 12  2  0  0  0  0
 16 15  2  0  0  0  0
 16  2  1  0  0  0  0
 18 19  1  0  0  0  0
 18 17  2  0  0  0  0
 20 22  2  0  0  0  0
 21 23  1  0  0  0  0
 22 21  1  0  0  0  0
 23 29  2  0  0  0  0
 24 26  1  0  0  0  0
 25 35  1  0  0  0  0
 27 34  1  0  0  0  0
 28 27  1  0  0  0  0
 29 24  1  0  0  0  0
 30 22  1  0  0  0  0
 30 31  1  0  0  0  0
 31 32  1  6  0  0  0
 31 28  1  0  0  0  0
 33 25  1  0  0  0  0
 33 30  1  0  0  0  0
 34 26  1  0  0  0  0
 35 32  1  0  0  0  0
 35 19  1  1  0  0  0
 37 36  1  0  0  0  0
 37 38  1  0  0  0  0
 38 44  1  0  0  0  0
 39 46  1  0  0  0  0
 39 40  1  0  0  0  0
 41 40  1  0  0  0  0
 41 45  1  0  0  0  0
 42 39  2  0  0  0  0
 43 41  1  0  0  0  0
 44 42  1  0  0  0  0
 44 43  2  0  0  0  0
 46 47  1  0  0  0  0
 48 47  1  0  0  0  0
 48 49  1  0  0  0  0
 50 48  2  0  0  0  0
M  END
>  <MODEL>
2

>  <REMARK>
 VINA RESULT:      -7.9      1.652      1.979
  Name = 
  10 active torsions:
  status: ('A' for Active; 'I' for Inactive)
    1  A    between atoms: C_2  and  C_7
    2  A    between atoms: C_2  and  O_42
    3  A    between atoms: C_5  and  O_42
    4  A    between atoms: C_9  and  C_44
    5  A    between atoms: C_9  and  C_50
    6  A    between atoms: N_10  and  C_26
    7  A    between atoms: N_10  and  C_38
    8  A    between atoms: C_22  and  C_30
    9  A    between atoms: C_26  and  C_50
   10  A    between atoms: C_47  and  N_49
                            x       y       z     vdW  Elec       q    Type
                         _______ _______ _______ _____ _____    ______ ____

>  <TORSDO>
F 10

$$$$
=
 OpenBabel11042419463D

 50 55  0  0  1  0  0  0  0  0999 V2000
  191.9700  171.4130  142.8650 C   0  0  2  0  0  3  0  0  0  0  0  0
  195.0510  171.9110  140.8020 N   0  0  0  0  0  0  0  0  0  0  0  0
  190.8910  172.5170  140.7850 C   0  0  0  0  0  2  0  0  0  0  0  0
  193.1190  173.4420  141.2610 N   0  0  0  0  0  0  0  0  0  0  0  0
  191.0440  172.5100  142.2940 C   0  0  2  0  0  0  0  0  0  0  0  0
  193.7710  172.1650  141.4060 C   0  0  0  0  0  0  0  0  0  0  0  0
  192.3220  171.7000  144.3220 C   0  0  0  0  0  1  0  0  0  0  0  0
  193.9170  174.6380  141.0330 C   0  0  0  0  0  1  0  0  0  0  0  0
  193.2020  171.2310  142.1060 N   0  0  0  0  0  0  0  0  0  0  0  0
  191.6810  173.6310  141.4790 C   0  0  2  0  0  3  0  0  0  0  0  0
  196.4570  172.8630  139.0010 C   0  0  0  0  0  3  0  0  0  0  0  0
  194.7250  171.8500  137.0570 C   0  0  0  0  0  3  0  0  0  0  0  0
  196.7440  173.0420  137.6440 C   0  0  0  0  0  3  0  0  0  0  0  0
  195.8790  172.5340  136.6710 C   0  0  0  0  0  3  0  0  0  0  0  0
  194.4360  171.6750  138.4140 C   0  0  0  0  0  3  0  0  0  0  0  0
  195.2960  172.1800  139.4050 C   0  0  0  0  0  0  0  0  0  0  0  0
  189.1160  171.8100  143.5050 O   0  0  0  0  0  0  0  0  0  0  0  0
  189.7500  172.7870  143.0240 C   0  0  0  0  0  0  0  0  0  0  0  0
  189.2160  174.1020  143.2270 N   0  0  0  0  0  2  0  0  0  0  0  0
  185.6320  178.6200  141.2240 O   0  0  0  0  0  0  0  0  0  0  0  0
  186.0060  179.2040  143.5050 C   0  0  0  0  0  2  0  0  0  0  0  0
  186.2790  178.3840  142.2810 C   0  0  0  0  0  0  0  0  0  0  0  0
  184.5550  179.1460  143.8690 C   0  0  0  0  0  3  0  0  0  0  0  0
  185.0730  179.0510  146.3110 C   0  0  0  0  0  2  0  0  0  0  0  0
  188.0900  175.2270  141.3760 C   0  0  0  0  0  2  0  0  0  0  0  0
  185.1540  177.6430  146.8910 C   0  0  0  0  0  2  0  0  0  0  0  0
  187.0900  176.9640  145.6480 O   0  0  0  0  0  0  0  0  0  0  0  0
  187.3790  176.2600  144.4810 C   0  0  0  0  0  2  0  0  0  0  0  0
  184.1320  179.1010  145.1390 C   0  0  0  0  0  3  0  0  0  0  0  0
  187.2920  177.3640  142.2910 N   0  0  0  0  0  0  0  0  0  0  0  0
  188.1200  177.1490  143.4880 C   0  0  2  0  0  3  0  0  0  0  0  0
  189.4710  176.5250  143.1040 C   0  0  0  0  0  2  0  0  0  0  0  0
  187.5850  176.6350  141.0540 C   0  0  0  0  0  2  0  0  0  0  0  0
  185.7570  176.6470  145.9090 C   0  0  0  0  0  2  0  0  0  0  0  0
  189.3160  175.2240  142.3000 C   0  0  1  0  0  3  0  0  0  0  0  0
  196.0100  171.1020  141.5490 C   0  0  0  0  0  2  0  0  0  0  0  0
  196.9280  171.9980  142.3660 C   0  0  0  0  0  2  0  0  0  0  0  0
  196.3880  172.1210  143.7800 C   0  0  0  0  0  2  0  0  0  0  0  0
  194.4730  175.0320  145.2950 C   0  0  0  0  0  0  0  0  0  0  0  0
  194.9050  176.1590  144.3790 C   0  0  0  0  0  2  0  0  0  0  0  0
  196.2140  175.8820  143.7810 N   0  0  0  0  0  0  0  0  0  0  0  0
  194.9580  173.7980  145.1220 C   0  0  0  0  0  3  0  0  0  0  0  0
  196.6190  174.5380  143.5070 C   0  0  0  0  0  3  0  0  0  0  0  0
  195.9890  173.5220  144.1020 C   0  0  0  0  0  0  0  0  0  0  0  0
  196.9910  176.9800  143.2430 C   0  0  0  0  0  1  0  0  0  0  0  0
  193.5900  175.2680  146.3480 O   0  0  0  0  0  0  0  0  0  0  0  0
  192.5890  176.2860  146.2890 C   0  0  0  0  0  2  0  0  0  0  0  0
  191.4090  175.9410  147.1500 C   0  0  0  0  0  0  0  0  0  0  0  0
  190.3460  175.0470  146.6100 C   0  0  0  0  0  1  0  0  0  0  0  0
  191.2850  176.4100  148.2690 O   0  0  0  0  0  0  0  0  0  0  0  0
  1  7  1  1  0  0  0
  2  6  1  0  0  0  0
  2 36  1  0  0  0  0
  3  5  1  0  0  0  0
  4  6  1  0  0  0  0
  4 10  1  0  0  0  0
  5  1  1  0  0  0  0
  5 18  1  1  0  0  0
  6  9  2  0  0  0  0
  8  4  1  0  0  0  0
  9  1  1  0  0  0  0
 10  3  1  6  0  0  0
 10  5  1  0  0  0  0
 11 16  1  0  0  0  0
 12 15  1  0  0  0  0
 13 11  2  0  0  0  0
 14 12  2  0  0  0  0
 14 13  1  0  0  0  0
 15 16  2  0  0  0  0
 16  2  1  0  0  0  0
 18 19  1  0  0  0  0
 18 17  2  0  0  0  0
 20 22  2  0  0  0  0
 21 23  1  0  0  0  0
 22 30  1  0  0  0  0
 22 21  1  0  0  0  0
 23 29  2  0  0  0  0
 24 26  1  0  0  0  0
 25 35  1  0  0  0  0
 27 34  1  0  0  0  0
 28 27  1  0  0  0  0
 29 24  1  0  0  0  0
 30 31  1  0  0  0  0
 31 32  1  6  0  0  0
 31 28  1  0  0  0  0
 33 25  1  0  0  0  0
 33 30  1  0  0  0  0
 34 26  1  0  0  0  0
 35 32  1  0  0  0  0
 35 19  1  1  0  0  0
 36 37  1  0  0  0  0
 37 38  1  0  0  0  0
 38 44  1  0  0  0  0
 39 46  1  0  0  0  0
 40 39  1  0  0  0  0
 41 40  1  0  0  0  0
 42 39  2  0  0  0  0
 43 41  1  0  0  0  0
 43 44  2  0  0  0  0
 44 42  1  0  0  0  0
 45 41  1  0  0  0  0
 47 46  1  0  0  0  0
 47 48  1  0  0  0  0
 48 50  2  0  0  0  0
 49 48  1  0  0  0  0
M  END
>  <MODEL>
3

>  <REMARK>
 VINA RESULT:      -7.8      1.449      2.110
  Name = 
  10 active torsions:
  status: ('A' for Active; 'I' for Inactive)
    1  A    between atoms: C_2  and  C_7
    2  A    between atoms: C_2  and  O_42
    3  A    between atoms: C_5  and  O_42
    4  A    between atoms: C_9  and  C_44
    5  A    between atoms: C_9  and  C_50
    6  A    between atoms: N_10  and  C_26
    7  A    between atoms: N_10  and  C_38
    8  A    between atoms: C_22  and  C_30
    9  A    between atoms: C_26  and  C_50
   10  A    between atoms: C_47  and  N_49
                            x       y       z     vdW  Elec       q    Type
                         _______ _______ _______ _____ _____    ______ ____

>  <TORSDO>
F 10

$$$$
=
 OpenBabel11042419463D

 50 55  0  0  1  0  0  0  0  0999 V2000
  192.1980  172.7840  141.8170 C   0  0  2  0  0  3  0  0  0  0  0  0
  193.1980  172.1380  138.2700 N   0  0  0  0  0  0  0  0  0  0  0  0
  190.0630  171.5610  141.0090 C   0  0  0  0  0  2  0  0  0  0  0  0
  191.0390  172.9640  139.2410 N   0  0  0  0  0  0  0  0  0  0  0  0
  190.6570  172.7710  141.7020 C   0  0  2  0  0  0  0  0  0  0  0  0
  192.3860  172.4770  139.4060 C   0  0  0  0  0  0  0  0  0  0  0  0
  192.7050  174.1690  142.2090 C   0  0  0  0  0  1  0  0  0  0  0  0
  190.6680  173.6580  138.0160 C   0  0  0  0  0  1  0  0  0  0  0  0
  192.8800  172.3550  140.6010 N   0  0  0  0  0  0  0  0  0  0  0  0
  190.0420  172.9280  140.3160 C   0  0  2  0  0  3  0  0  0  0  0  0
  192.0280  170.0760  137.5590 C   0  0  0  0  0  3  0  0  0  0  0  0
  192.2900  170.8050  134.8740 C   0  0  0  0  0  3  0  0  0  0  0  0
  191.4810  169.2690  136.5560 C   0  0  0  0  0  3  0  0  0  0  0  0
  191.6100  169.6340  135.2140 C   0  0  0  0  0  3  0  0  0  0  0  0
  192.8410  171.6100  135.8770 C   0  0  0  0  0  3  0  0  0  0  0  0
  192.7200  171.2560  137.2320 C   0  0  0  0  0  0  0  0  0  0  0  0
  189.4180  172.3360  143.6900 O   0  0  0  0  0  0  0  0  0  0  0  0
  189.8610  173.2180  142.9060 C   0  0  0  0  0  0  0  0  0  0  0  0
  189.6040  174.5930  143.2250 N   0  0  0  0  0  2  0  0  0  0  0  0
  185.1270  178.4770  141.7640 O   0  0  0  0  0  0  0  0  0  0  0  0
  185.7910  179.2170  143.9310 C   0  0  0  0  0  2  0  0  0  0  0  0
  185.9690  178.3830  142.6980 C   0  0  0  0  0  0  0  0  0  0  0  0
  184.4450  178.9780  144.5410 C   0  0  0  0  0  3  0  0  0  0  0  0
  185.3730  179.0730  146.8580 C   0  0  0  0  0  2  0  0  0  0  0  0
  188.0340  175.4630  141.5690 C   0  0  0  0  0  2  0  0  0  0  0  0
  185.7500  177.7180  147.4490 C   0  0  0  0  0  2  0  0  0  0  0  0
  187.5270  177.2510  145.9070 O   0  0  0  0  0  0  0  0  0  0  0  0
  187.7140  176.5380  144.7250 C   0  0  0  0  0  2  0  0  0  0  0  0
  184.2520  178.9370  145.8660 C   0  0  0  0  0  3  0  0  0  0  0  0
  187.1040  177.5120  142.5580 N   0  0  0  0  0  0  0  0  0  0  0  0
  188.1440  177.4710  143.5980 C   0  0  2  0  0  3  0  0  0  0  0  0
  189.4860  177.0190  143.0020 C   0  0  0  0  0  2  0  0  0  0  0  0
  187.2870  176.7720  141.3060 C   0  0  0  0  0  2  0  0  0  0  0  0
  186.3160  176.7670  146.4020 C   0  0  0  0  0  2  0  0  0  0  0  0
  189.3860  175.6720  142.2680 C   0  0  1  0  0  3  0  0  0  0  0  0
  194.6210  172.4640  138.3270 C   0  0  0  0  0  2  0  0  0  0  0  0
  194.8100  173.9300  138.6850 C   0  0  0  0  0  2  0  0  0  0  0  0
  196.2430  174.1640  139.1250 C   0  0  0  0  0  2  0  0  0  0  0  0
  196.1940  173.2560  142.8150 C   0  0  0  0  0  0  0  0  0  0  0  0
  196.1020  174.6320  143.4410 C   0  0  0  0  0  2  0  0  0  0  0  0
  196.6690  175.6540  142.5570 N   0  0  0  0  0  0  0  0  0  0  0  0
  196.2670  173.1220  141.4860 C   0  0  0  0  0  3  0  0  0  0  0  0
  196.6010  175.5060  141.1350 C   0  0  0  0  0  3  0  0  0  0  0  0
  196.3540  174.3040  140.6070 C   0  0  0  0  0  0  0  0  0  0  0  0
  197.0750  176.9270  143.1170 C   0  0  0  0  0  1  0  0  0  0  0  0
  196.2340  172.1120  143.6100 O   0  0  0  0  0  0  0  0  0  0  0  0
  195.0970  171.2620  143.7800 C   0  0  0  0  0  2  0  0  0  0  0  0
  194.5140  171.4000  145.1570 C   0  0  0  0  0  0  0  0  0  0  0  0
  193.7740  172.6440  145.5160 C   0  0  0  0  0  1  0  0  0  0  0  0
  194.6660  170.5310  145.9980 O   0  0  0  0  0  0  0  0  0  0  0  0
  1  7  1  6  0  0  0
  2 36  1  0  0  0  0
  2  6  1  0  0  0  0
  3  5  1  0  0  0  0
  4  6  1  0  0  0  0
  4 10  1  0  0  0  0
  5  1  1  0  0  0  0
  5 18  1  1  0  0  0
  6  9  2  0  0  0  0
  8  4  1  0  0  0  0
  9  1  1  0  0  0  0
 10  3  1  6  0  0  0
 10  5  1  0  0  0  0
 12 14  2  0  0  0  0
 12 15  1  0  0  0  0
 13 11  2  0  0  0  0
 14 13  1  0  0  0  0
 15 16  2  0  0  0  0
 16 11  1  0  0  0  0
 16  2  1  0  0  0  0
 18 19  1  0  0  0  0
 18 17  2  0  0  0  0
 20 22  2  0  0  0  0
 21 23  1  0  0  0  0
 22 21  1  0  0  0  0
 23 29  2  0  0  0  0
 24 26  1  0  0  0  0
 25 35  1  0  0  0  0
 27 34  1  0  0  0  0
 28 27  1  0  0  0  0
 29 24  1  0  0  0  0
 30 22  1  0  0  0  0
 30 31  1  0  0  0  0
 31 32  1  6  0  0  0
 31 28  1  0  0  0  0
 33 25  1  0  0  0  0
 33 30  1  0  0  0  0
 34 26  1  0  0  0  0
 35 32  1  0  0  0  0
 35 19  1  1  0  0  0
 36 37  1  0  0  0  0
 37 38  1  0  0  0  0
 38 44  1  0  0  0  0
 39 40  1  0  0  0  0
 39 46  1  0  0  0  0
 41 45  1  0  0  0  0
 41 40  1  0  0  0  0
 42 39  2  0  0  0  0
 43 41  1  0  0  0  0
 44 43  2  0  0  0  0
 44 42  1  0  0  0  0
 46 47  1  0  0  0  0
 47 48  1  0  0  0  0
 48 49  1  0  0  0  0
 48 50  2  0  0  0  0
M  END
>  <MODEL>
4

>  <REMARK>
 VINA RESULT:      -7.6      2.147      2.935
  Name = 
  10 active torsions:
  status: ('A' for Active; 'I' for Inactive)
    1  A    between atoms: C_2  and  C_7
    2  A    between atoms: C_2  and  O_42
    3  A    between atoms: C_5  and  O_42
    4  A    between atoms: C_9  and  C_44
    5  A    between atoms: C_9  and  C_50
    6  A    between atoms: N_10  and  C_26
    7  A    between atoms: N_10  and  C_38
    8  A    between atoms: C_22  and  C_30
    9  A    between atoms: C_26  and  C_50
   10  A    between atoms: C_47  and  N_49
                            x       y       z     vdW  Elec       q    Type
                         _______ _______ _______ _____ _____    ______ ____

>  <TORSDO>
F 10

$$$$
=
 OpenBabel11042419463D

 50 55  0  0  1  0  0  0  0  0999 V2000
  192.9760  174.5010  142.7720 C   0  0  2  0  0  3  0  0  0  0  0  0
  195.4220  174.5680  139.9410 N   0  0  0  0  0  0  0  0  0  0  0  0
  192.2270  172.3510  141.5370 C   0  0  0  0  0  2  0  0  0  0  0  0
  192.9590  174.0990  139.9700 N   0  0  0  0  0  0  0  0  0  0  0  0
  191.8240  173.6760  142.1550 C   0  0  2  0  0  0  0  0  0  0  0  0
  194.1880  174.3980  140.6600 C   0  0  0  0  0  0  0  0  0  0  0  0
  192.5320  175.9340  143.0500 C   0  0  0  0  0  1  0  0  0  0  0  0
  192.7880  174.5190  138.5860 C   0  0  0  0  0  1  0  0  0  0  0  0
  194.1820  174.5280  141.9520 N   0  0  0  0  0  0  0  0  0  0  0  0
  191.7920  173.5140  140.6390 C   0  0  2  0  0  3  0  0  0  0  0  0
  195.8170  172.2170  139.2760 C   0  0  0  0  0  3  0  0  0  0  0  0
  196.6550  173.0350  136.7380 C   0  0  0  0  0  3  0  0  0  0  0  0
  196.1730  171.2660  138.3140 C   0  0  0  0  0  3  0  0  0  0  0  0
  196.5910  171.6740  137.0450 C   0  0  0  0  0  3  0  0  0  0  0  0
  196.3030  173.9860  137.7020 C   0  0  0  0  0  3  0  0  0  0  0  0
  195.8820  173.5920  138.9830 C   0  0  0  0  0  0  0  0  0  0  0  0
  190.2120  172.5100  143.4660 O   0  0  0  0  0  0  0  0  0  0  0  0
  190.5240  173.6030  142.9210 C   0  0  0  0  0  0  0  0  0  0  0  0
  189.6360  174.7170  143.0900 N   0  0  0  0  0  2  0  0  0  0  0  0
  185.0110  178.3750  141.5100 O   0  0  0  0  0  0  0  0  0  0  0  0
  185.6100  179.1730  143.6760 C   0  0  0  0  0  2  0  0  0  0  0  0
  185.8430  178.3310  142.4580 C   0  0  0  0  0  0  0  0  0  0  0  0
  184.2670  178.8830  144.2710 C   0  0  0  0  0  3  0  0  0  0  0  0
  185.1560  179.0510  146.5990 C   0  0  0  0  0  2  0  0  0  0  0  0
  188.0530  175.4920  141.4010 C   0  0  0  0  0  2  0  0  0  0  0  0
  185.5850  177.7230  147.2150 C   0  0  0  0  0  2  0  0  0  0  0  0
  187.4030  177.3160  145.7040 O   0  0  0  0  0  0  0  0  0  0  0  0
  187.6390  176.5950  144.5360 C   0  0  0  0  0  2  0  0  0  0  0  0
  184.0560  178.8520  145.5930 C   0  0  0  0  0  3  0  0  0  0  0  0
  187.0180  177.5110  142.3460 N   0  0  0  0  0  0  0  0  0  0  0  0
  188.0430  177.5310  143.4010 C   0  0  2  0  0  3  0  0  0  0  0  0
  189.4130  177.1320  142.8310 C   0  0  0  0  0  2  0  0  0  0  0  0
  187.2520  176.7630  141.1080 C   0  0  0  0  0  2  0  0  0  0  0  0
  186.2080  176.7850  146.1890 C   0  0  0  0  0  2  0  0  0  0  0  0
  189.3840  175.7720  142.1150 C   0  0  1  0  0  3  0  0  0  0  0  0
  196.3470  175.5970  140.4090 C   0  0  0  0  0  2  0  0  0  0  0  0
  197.5930  174.9540  140.9970 C   0  0  0  0  0  2  0  0  0  0  0  0
  197.8930  175.5730  142.3500 C   0  0  0  0  0  2  0  0  0  0  0  0
  196.6130  172.7590  144.5610 C   0  0  0  0  0  0  0  0  0  0  0  0
  195.4560  173.4510  145.2520 C   0  0  0  0  0  2  0  0  0  0  0  0
  195.6630  174.9000  145.3090 N   0  0  0  0  0  0  0  0  0  0  0  0
  197.3770  173.4290  143.6910 C   0  0  0  0  0  3  0  0  0  0  0  0
  196.3870  175.5730  144.2730 C   0  0  0  0  0  3  0  0  0  0  0  0
  197.1730  174.8710  143.4530 C   0  0  0  0  0  0  0  0  0  0  0  0
  194.9260  175.6820  146.2800 C   0  0  0  0  0  1  0  0  0  0  0  0
  196.9180  171.4290  144.8410 O   0  0  0  0  0  0  0  0  0  0  0  0
  196.8100  170.8830  146.1570 C   0  0  0  0  0  2  0  0  0  0  0  0
  196.0480  169.5900  146.1510 C   0  0  0  0  0  0  0  0  0  0  0  0
  195.9120  168.8150  147.4180 C   0  0  0  0  0  1  0  0  0  0  0  0
  195.5710  169.1430  145.1220 O   0  0  0  0  0  0  0  0  0  0  0  0
  1  7  1  6  0  0  0
  2 36  1  0  0  0  0
  2  6  1  0  0  0  0
  3  5  1  0  0  0  0
  4 10  1  0  0  0  0
  4  6  1  0  0  0  0
  5  1  1  0  0  0  0
  5 18  1  1  0  0  0
  6  9  2  0  0  0  0
  8  4  1  0  0  0  0
  9  1  1  0  0  0  0
 10  3  1  1  0  0  0
 10  5  1  0  0  0  0
 12 14  2  0  0  0  0
 12 15  1  0  0  0  0
 13 11  2  0  0  0  0
 14 13  1  0  0  0  0
 15 16  2  0  0  0  0
 16 11  1  0  0  0  0
 16  2  1  0  0  0  0
 18 19  1  0  0  0  0
 18 17  2  0  0  0  0
 20 22  2  0  0  0  0
 21 23  1  0  0  0  0
 22 21  1  0  0  0  0
 23 29  2  0  0  0  0
 24 26  1  0  0  0  0
 25 35  1  0  0  0  0
 27 34  1  0  0  0  0
 28 27  1  0  0  0  0
 29 24  1  0  0  0  0
 30 22  1  0  0  0  0
 30 31  1  0  0  0  0
 31 32  1  6  0  0  0
 31 28  1  0  0  0  0
 33 25  1  0  0  0  0
 33 30  1  0  0  0  0
 34 26  1  0  0  0  0
 35 32  1  0  0  0  0
 35 19  1  1  0  0  0
 36 37  1  0  0  0  0
 37 38  1  0  0  0  0
 38 44  1  0  0  0  0
 39 46  1  0  0  0  0
 39 40  1  0  0  0  0
 40 41  1  0  0  0  0
 41 45  1  0  0  0  0
 42 39  2  0  0  0  0
 43 41  1  0  0  0  0
 44 42  1  0  0  0  0
 44 43  2  0  0  0  0
 46 47  1  0  0  0  0
 48 47  1  0  0  0  0
 48 49  1  0  0  0  0
 50 48  2  0  0  0  0
M  END
>  <MODEL>
5

>  <REMARK>
 VINA RESULT:      -7.6      1.557      2.526
  Name = 
  10 active torsions:
  status: ('A' for Active; 'I' for Inactive)
    1  A    between atoms: C_2  and  C_7
    2  A    between atoms: C_2  and  O_42
    3  A    between atoms: C_5  and  O_42
    4  A    between atoms: C_9  and  C_44
    5  A    between atoms: C_9  and  C_50
    6  A    between atoms: N_10  and  C_26
    7  A    between atoms: N_10  and  C_38
    8  A    between atoms: C_22  and  C_30
    9  A    between atoms: C_26  and  C_50
   10  A    between atoms: C_47  and  N_49
                            x       y       z     vdW  Elec       q    Type
                         _______ _______ _______ _____ _____    ______ ____

>  <TORSDO>
F 10

$$$$
=
 OpenBabel11042419463D

 50 55  0  0  1  0  0  0  0  0999 V2000
  194.2910  174.1250  142.3990 C   0  0  2  0  0  3  0  0  0  0  0  0
  194.9590  170.6280  143.5490 N   0  0  0  0  0  0  0  0  0  0  0  0
  193.7840  174.4240  144.9210 C   0  0  0  0  0  2  0  0  0  0  0  0
  193.0940  172.2090  144.1040 N   0  0  0  0  0  0  0  0  0  0  0  0
  193.3170  174.6210  143.4920 C   0  0  2  0  0  0  0  0  0  0  0  0
  194.3350  171.9180  143.4300 C   0  0  0  0  0  0  0  0  0  0  0  0
  193.5970  174.0540  141.0410 C   0  0  0  0  0  1  0  0  0  0  0  0
  192.1710  171.1270  144.4170 C   0  0  0  0  0  1  0  0  0  0  0  0
  194.8920  172.8290  142.6930 N   0  0  0  0  0  0  0  0  0  0  0  0
  192.6330  173.5770  144.3670 C   0  0  2  0  0  3  0  0  0  0  0  0
  194.5790  168.8070  145.1810 C   0  0  0  0  0  3  0  0  0  0  0  0
  196.4560  169.9230  146.9250 C   0  0  0  0  0  3  0  0  0  0  0  0
  194.8850  168.1660  146.3870 C   0  0  0  0  0  3  0  0  0  0  0  0
  195.8250  168.7230  147.2580 C   0  0  0  0  0  3  0  0  0  0  0  0
  196.1460  170.5660  145.7210 C   0  0  0  0  0  3  0  0  0  0  0  0
  195.2020  170.0190  144.8350 C   0  0  0  0  0  0  0  0  0  0  0  0
  193.2440  176.8380  142.6240 O   0  0  0  0  0  0  0  0  0  0  0  0
  192.6290  175.9470  143.2690 C   0  0  0  0  0  0  0  0  0  0  0  0
  191.3010  176.2410  143.7240 N   0  0  0  0  0  2  0  0  0  0  0  0
  186.7110  177.8620  147.4090 O   0  0  0  0  0  0  0  0  0  0  0  0
  185.5860  177.1800  145.4210 C   0  0  0  0  0  2  0  0  0  0  0  0
  186.8080  177.3090  146.2790 C   0  0  0  0  0  0  0  0  0  0  0  0
  184.9570  178.5190  145.1900 C   0  0  0  0  0  3  0  0  0  0  0  0
  184.4180  177.9640  142.8160 C   0  0  0  0  0  2  0  0  0  0  0  0
  190.5230  176.9240  145.9350 C   0  0  0  0  0  2  0  0  0  0  0  0
  185.4650  178.4130  141.8020 C   0  0  0  0  0  2  0  0  0  0  0  0
  187.2100  176.9590  142.5750 O   0  0  0  0  0  0  0  0  0  0  0  0
  188.3180  177.0240  143.4160 C   0  0  0  0  0  2  0  0  0  0  0  0
  184.4070  178.8650  144.0200 C   0  0  0  0  0  3  0  0  0  0  0  0
  188.0710  176.7770  145.8440 N   0  0  0  0  0  0  0  0  0  0  0  0
  188.1720  176.0430  144.5740 C   0  0  2  0  0  3  0  0  0  0  0  0
  189.3560  175.0640  144.6090 C   0  0  0  0  0  2  0  0  0  0  0  0
  189.2260  176.8520  146.7440 C   0  0  0  0  0  2  0  0  0  0  0  0
  186.8830  178.2960  142.3460 C   0  0  0  0  0  2  0  0  0  0  0  0
  190.6860  175.7540  144.9540 C   0  0  1  0  0  3  0  0  0  0  0  0
  195.6110  170.0750  142.3650 C   0  0  0  0  0  2  0  0  0  0  0  0
  194.5950  169.3380  141.5030 C   0  0  0  0  0  2  0  0  0  0  0  0
  194.6310  169.8940  140.0910 C   0  0  0  0  0  2  0  0  0  0  0  0
  191.0550  171.1570  140.3250 C   0  0  0  0  0  0  0  0  0  0  0  0
  190.8280  171.6200  138.9000 C   0  0  0  0  0  2  0  0  0  0  0  0
  192.0930  171.9800  138.2530 N   0  0  0  0  0  0  0  0  0  0  0  0
  192.2400  170.6540  140.6900 C   0  0  0  0  0  3  0  0  0  0  0  0
  193.3080  171.3110  138.6060 C   0  0  0  0  0  3  0  0  0  0  0  0
  193.3760  170.6240  139.7490 C   0  0  0  0  0  0  0  0  0  0  0  0
  192.0700  172.8380  137.0850 C   0  0  0  0  0  1  0  0  0  0  0  0
  190.0480  171.2750  141.2810 O   0  0  0  0  0  0  0  0  0  0  0  0
  189.7980  172.4970  141.9780 C   0  0  0  0  0  2  0  0  0  0  0  0
  188.5330  173.1490  141.5000 C   0  0  0  0  0  0  0  0  0  0  0  0
  188.6010  174.1670  140.4140 C   0  0  0  0  0  1  0  0  0  0  0  0
  187.4570  172.8890  142.0100 O   0  0  0  0  0  0  0  0  0  0  0  0
  1  7  1  6  0  0  0
  1  9  1  0  0  0  0
  1  5  1  0  0  0  0
  2 16  1  0  0  0  0
  4 10  1  0  0  0  0
  4  8  1  0  0  0  0
  5 18  1  6  0  0  0
  5 10  1  0  0  0  0
  5  3  1  0  0  0  0
  6  2  1  0  0  0  0
  6  4  1  0  0  0  0
  9  6  2  0  0  0  0
 10  3  1  1  0  0  0
 11 13  1  0  0  0  0
 12 14  1  0  0  0  0
 13 14  2  0  0  0  0
 15 12  2  0  0  0  0
 16 11  2  0  0  0  0
 16 15  1  0  0  0  0
 17 18  2  0  0  0  0
 18 19  1  0  0  0  0
 21 22  1  0  0  0  0
 22 20  2  0  0  0  0
 23 21  1  0  0  0  0
 24 29  1  0  0  0  0
 25 33  1  0  0  0  0
 26 34  1  0  0  0  0
 26 24  1  0  0  0  0
 27 28  1  0  0  0  0
 29 23  2  0  0  0  0
 30 22  1  0  0  0  0
 30 33  1  0  0  0  0
 31 28  1  6  0  0  0
 31 32  1  0  0  0  0
 31 30  1  0  0  0  0
 32 35  1  0  0  0  0
 34 27  1  0  0  0  0
 35 19  1  6  0  0  0
 35 25  1  0  0  0  0
 36  2  1  0  0  0  0
 37 36  1  0  0  0  0
 38 37  1  0  0  0  0
 39 42  2  0  0  0  0
 39 46  1  0  0  0  0
 40 39  1  0  0  0  0
 41 43  1  0  0  0  0
 41 40  1  0  0  0  0
 43 44  2  0  0  0  0
 44 38  1  0  0  0  0
 44 42  1  0  0  0  0
 45 41  1  0  0  0  0
 46 47  1  0  0  0  0
 48 47  1  0  0  0  0
 48 50  2  0  0  0  0
 49 48  1  0  0  0  0
M  END
>  <MODEL>
6

>  <REMARK>
 VINA RESULT:      -7.4      2.426      6.002
  Name = 
  10 active torsions:
  status: ('A' for Active; 'I' for Inactive)
    1  A    between atoms: C_2  and  C_7
    2  A    between atoms: C_2  and  O_42
    3  A    between atoms: C_5  and  O_42
    4  A    between atoms: C_9  and  C_44
    5  A    between atoms: C_9  and  C_50
    6  A    between atoms: N_10  and  C_26
    7  A    between atoms: N_10  and  C_38
    8  A    between atoms: C_22  and  C_30
    9  A    between atoms: C_26  and  C_50
   10  A    between atoms: C_47  and  N_49
                            x       y       z     vdW  Elec       q    Type
                         _______ _______ _______ _____ _____    ______ ____

>  <TORSDO>
F 10

$$$$
=
 OpenBabel11042419463D

 50 55  0  0  1  0  0  0  0  0999 V2000
  190.8360  173.5980  140.0720 C   0  0  2  0  0  3  0  0  0  0  0  0
  193.9160  172.7300  138.1330 N   0  0  0  0  0  0  0  0  0  0  0  0
  192.6120  174.6420  141.6420 C   0  0  0  0  0  2  0  0  0  0  0  0
  193.4250  172.5750  140.5870 N   0  0  0  0  0  0  0  0  0  0  0  0
  191.4080  173.7310  141.5010 C   0  0  2  0  0  0  0  0  0  0  0  0
  193.0330  172.9400  139.2480 C   0  0  0  0  0  0  0  0  0  0  0  0
  189.8690  172.4210  139.9790 C   0  0  0  0  0  1  0  0  0  0  0  0
  194.3980  171.5100  140.7900 C   0  0  0  0  0  1  0  0  0  0  0  0
  191.8590  173.4540  139.0420 N   0  0  0  0  0  0  0  0  0  0  0  0
  192.7790  173.1260  141.7830 C   0  0  2  0  0  3  0  0  0  0  0  0
  196.3310  172.3490  137.7460 C   0  0  0  0  0  3  0  0  0  0  0  0
  196.8940  175.0100  138.3860 C   0  0  0  0  0  3  0  0  0  0  0  0
  197.6440  172.8260  137.6700 C   0  0  0  0  0  3  0  0  0  0  0  0
  197.9260  174.1570  137.9880 C   0  0  0  0  0  3  0  0  0  0  0  0
  195.5820  174.5310  138.4650 C   0  0  0  0  0  3  0  0  0  0  0  0
  195.2820  173.1950  138.1500 C   0  0  0  0  0  0  0  0  0  0  0  0
  190.1370  172.8350  143.3060 O   0  0  0  0  0  0  0  0  0  0  0  0
  190.4250  173.8660  142.6400 C   0  0  0  0  0  0  0  0  0  0  0  0
  189.8200  175.1070  143.0280 N   0  0  0  0  0  2  0  0  0  0  0  0
  184.8680  178.5080  141.9400 O   0  0  0  0  0  0  0  0  0  0  0  0
  185.5450  179.2270  144.1100 C   0  0  0  0  0  2  0  0  0  0  0  0
  185.7580  178.4710  142.8330 C   0  0  0  0  0  0  0  0  0  0  0  0
  184.2650  178.8090  144.7650 C   0  0  0  0  0  3  0  0  0  0  0  0
  185.2840  178.9120  147.0420 C   0  0  0  0  0  2  0  0  0  0  0  0
  188.0850  175.8590  141.4820 C   0  0  0  0  0  2  0  0  0  0  0  0
  185.8400  177.5860  147.5520 C   0  0  0  0  0  2  0  0  0  0  0  0
  187.5830  177.3930  145.9170 O   0  0  0  0  0  0  0  0  0  0  0  0
  187.7940  176.7560  144.6960 C   0  0  0  0  0  2  0  0  0  0  0  0
  184.1400  178.6900  146.0920 C   0  0  0  0  0  3  0  0  0  0  0  0
  186.9770  177.7440  142.6050 N   0  0  0  0  0  0  0  0  0  0  0  0
  188.0620  177.7790  143.5970 C   0  0  2  0  0  3  0  0  0  0  0  0
  189.4170  177.5110  142.9250 C   0  0  0  0  0  2  0  0  0  0  0  0
  187.1840  177.0840  141.3120 C   0  0  0  0  0  2  0  0  0  0  0  0
  186.4590  176.7520  146.4390 C   0  0  0  0  0  2  0  0  0  0  0  0
  189.4360  176.1930  142.1330 C   0  0  1  0  0  3  0  0  0  0  0  0
  193.3260  172.3000  136.8680 C   0  0  0  0  0  2  0  0  0  0  0  0
  193.7440  173.2410  135.7480 C   0  0  0  0  0  2  0  0  0  0  0  0
  192.5680  173.4730  134.8160 C   0  0  0  0  0  2  0  0  0  0  0  0
  190.1870  176.4320  134.9270 C   0  0  0  0  0  0  0  0  0  0  0  0
  191.1170  177.5550  134.5140 C   0  0  0  0  0  2  0  0  0  0  0  0
  192.5090  177.2370  134.8430 N   0  0  0  0  0  0  0  0  0  0  0  0
  190.6500  175.1830  135.0460 C   0  0  0  0  0  3  0  0  0  0  0  0
  192.9690  175.8820  134.8300 C   0  0  0  0  0  3  0  0  0  0  0  0
  192.0840  174.8830  134.8720 C   0  0  0  0  0  0  0  0  0  0  0  0
  193.4750  178.3130  134.9400 C   0  0  0  0  0  1  0  0  0  0  0  0
  188.8480  176.6860  135.2160 O   0  0  0  0  0  0  0  0  0  0  0  0
  187.8820  175.6390  135.3350 C   0  0  0  0  0  2  0  0  0  0  0  0
  187.5230  175.3890  136.7710 C   0  0  0  0  0  0  0  0  0  0  0  0
  186.4230  176.1750  137.3980 C   0  0  0  0  0  1  0  0  0  0  0  0
  188.1400  174.5810  137.4450 O   0  0  0  0  0  0  0  0  0  0  0  0
  1  7  1  1  0  0  0
  1  5  1  0  0  0  0
  2 16  1  0  0  0  0
  2  6  1  0  0  0  0
  4  8  1  0  0  0  0
  4 10  1  0  0  0  0
  5  3  1  0  0  0  0
  5 10  1  0  0  0  0
  5 18  1  1  0  0  0
  6  4  1  0  0  0  0
  9  6  2  0  0  0  0
  9  1  1  0  0  0  0
 10  3  1  6  0  0  0
 11 16  1  0  0  0  0
 12 15  1  0  0  0  0
 13 11  2  0  0  0  0
 13 14  1  0  0  0  0
 14 12  2  0  0  0  0
 16 15  2  0  0  0  0
 18 19  1  0  0  0  0
 18 17  2  0  0  0  0
 20 22  2  0  0  0  0
 21 23  1  0  0  0  0
 22 21  1  0  0  0  0
 23 29  2  0  0  0  0
 24 26  1  0  0  0  0
 25 35  1  0  0  0  0
 27 34  1  0  0  0  0
 28 27  1  0  0  0  0
 29 24  1  0  0  0  0
 30 22  1  0  0  0  0
 30 31  1  0  0  0  0
 31 32  1  6  0  0  0
 31 28  1  0  0  0  0
 33 25  1  0  0  0  0
 33 30  1  0  0  0  0
 34 26  1  0  0  0  0
 35 32  1  0  0  0  0
 35 19  1  1  0  0  0
 36  2  1  0  0  0  0
 37 36  1  0  0  0  0
 38 44  1  0  0  0  0
 38 37  1  0  0  0  0
 39 42  2  0  0  0  0
 39 46  1  0  0  0  0
 40 41  1  0  0  0  0
 40 39  1  0  0  0  0
 41 45  1  0  0  0  0
 43 41  1  0  0  0  0
 43 44  2  0  0  0  0
 44 42  1  0  0  0  0
 46 47  1  0  0  0  0
 47 48  1  0  0  0  0
 48 49  1  0  0  0  0
 48 50  2  0  0  0  0
M  END
>  <MODEL>
7

>  <REMARK>
 VINA RESULT:      -7.4      2.759      5.894
  Name = 
  10 active torsions:
  status: ('A' for Active; 'I' for Inactive)
    1  A    between atoms: C_2  and  C_7
    2  A    between atoms: C_2  and  O_42
    3  A    between atoms: C_5  and  O_42
    4  A    between atoms: C_9  and  C_44
    5  A    between atoms: C_9  and  C_50
    6  A    between atoms: N_10  and  C_26
    7  A    between atoms: N_10  and  C_38
    8  A    between atoms: C_22  and  C_30
    9  A    between atoms: C_26  and  C_50
   10  A    between atoms: C_47  and  N_49
                            x       y       z     vdW  Elec       q    Type
                         _______ _______ _______ _____ _____    ______ ____

>  <TORSDO>
F 10

$$$$
=
 OpenBabel11042419463D

 50 55  0  0  1  0  0  0  0  0999 V2000
  193.0790  173.4610  144.8830 C   0  0  2  0  0  3  0  0  0  0  0  0
  196.1680  174.6310  143.1260 N   0  0  0  0  0  0  0  0  0  0  0  0
  192.4430  172.8000  142.4610 C   0  0  0  0  0  2  0  0  0  0  0  0
  193.7460  174.8850  142.5290 N   0  0  0  0  0  0  0  0  0  0  0  0
  192.0430  173.5140  143.7370 C   0  0  2  0  0  0  0  0  0  0  0  0
  194.7790  174.3740  143.3940 C   0  0  0  0  0  0  0  0  0  0  0  0
  192.7390  174.4750  145.9720 C   0  0  0  0  0  1  0  0  0  0  0  0
  193.9880  176.0910  141.7500 C   0  0  0  0  0  1  0  0  0  0  0  0
  194.4520  173.6800  144.4420 N   0  0  0  0  0  0  0  0  0  0  0  0
  192.3880  174.3310  142.4970 C   0  0  2  0  0  3  0  0  0  0  0  0
  196.5260  173.1470  141.1780 C   0  0  0  0  0  3  0  0  0  0  0  0
  197.9410  175.1600  139.8530 C   0  0  0  0  0  3  0  0  0  0  0  0
  197.0100  172.9290  139.8830 C   0  0  0  0  0  3  0  0  0  0  0  0
  197.7150  173.9360  139.2190 C   0  0  0  0  0  3  0  0  0  0  0  0
  197.4610  175.3750  141.1490 C   0  0  0  0  0  3  0  0  0  0  0  0
  196.7500  174.3720  141.8300 C   0  0  0  0  0  0  0  0  0  0  0  0
  190.2310  172.1950  144.5460 O   0  0  0  0  0  0  0  0  0  0  0  0
  190.5890  173.3170  144.0970 C   0  0  0  0  0  0  0  0  0  0  0  0
  189.5950  174.3460  143.9860 N   0  0  0  0  0  2  0  0  0  0  0  0
  185.5090  178.3320  141.8240 O   0  0  0  0  0  0  0  0  0  0  0  0
  185.9440  179.1500  144.0210 C   0  0  0  0  0  2  0  0  0  0  0  0
  186.2280  178.2500  142.8570 C   0  0  0  0  0  0  0  0  0  0  0  0
  184.5250  178.9970  144.4740 C   0  0  0  0  0  3  0  0  0  0  0  0
  185.1740  179.1680  146.8790 C   0  0  0  0  0  2  0  0  0  0  0  0
  188.2750  175.1960  142.1160 C   0  0  0  0  0  2  0  0  0  0  0  0
  185.4150  177.8300  147.5710 C   0  0  0  0  0  2  0  0  0  0  0  0
  187.3390  177.2150  146.2770 O   0  0  0  0  0  0  0  0  0  0  0  0
  187.6320  176.4370  145.1600 C   0  0  0  0  0  2  0  0  0  0  0  0
  184.1740  179.0290  145.7650 C   0  0  0  0  0  3  0  0  0  0  0  0
  187.3310  177.3280  142.8930 N   0  0  0  0  0  0  0  0  0  0  0  0
  188.2360  177.2950  144.0520 C   0  0  2  0  0  3  0  0  0  0  0  0
  189.6170  176.7600  143.6440 C   0  0  0  0  0  2  0  0  0  0  0  0
  187.6270  176.5200  141.7060 C   0  0  0  0  0  2  0  0  0  0  0  0
  186.0570  176.8060  146.6430 C   0  0  0  0  0  2  0  0  0  0  0  0
  189.5430  175.3840  142.9630 C   0  0  1  0  0  3  0  0  0  0  0  0
  197.0480  174.8800  144.2640 C   0  0  0  0  0  2  0  0  0  0  0  0
  196.9700  173.7240  145.2500 C   0  0  0  0  0  2  0  0  0  0  0  0
  197.7190  172.5290  144.6900 C   0  0  0  0  0  2  0  0  0  0  0  0
  195.4840  169.5350  143.9970 C   0  0  0  0  0  0  0  0  0  0  0  0
  195.1730  169.0850  145.4100 C   0  0  0  0  0  2  0  0  0  0  0  0
  196.2330  169.4880  146.3390 N   0  0  0  0  0  0  0  0  0  0  0  0
  196.2930  170.5790  143.7850 C   0  0  0  0  0  3  0  0  0  0  0  0
  196.9790  170.6890  146.1150 C   0  0  0  0  0  3  0  0  0  0  0  0
  196.9730  171.2550  144.9060 C   0  0  0  0  0  0  0  0  0  0  0  0
  196.3570  168.8030  147.6100 C   0  0  0  0  0  1  0  0  0  0  0  0
  194.9580  168.8550  142.9010 O   0  0  0  0  0  0  0  0  0  0  0  0
  193.6380  169.1030  142.4110 C   0  0  0  0  0  2  0  0  0  0  0  0
  193.6320  169.2710  140.9200 C   0  0  0  0  0  0  0  0  0  0  0  0
  194.7450  170.0140  140.2620 C   0  0  0  0  0  1  0  0  0  0  0  0
  192.7140  168.8430  140.2400 O   0  0  0  0  0  0  0  0  0  0  0  0
  1  7  1  1  0  0  0
  2  6  1  0  0  0  0
  2 36  1  0  0  0  0
  3  5  1  0  0  0  0
  4  6  1  0  0  0  0
  5 18  1  1  0  0  0
  5  1  1  0  0  0  0
  6  9  2  0  0  0  0
  8  4  1  0  0  0  0
  9  1  1  0  0  0  0
 10  3  1  6  0  0  0
 10  4  1  0  0  0  0
 10  5  1  0  0  0  0
 11 16  1  0  0  0  0
 12 15  1  0  0  0  0
 13 11  2  0  0  0  0
 14 12  2  0  0  0  0
 14 13  1  0  0  0  0
 15 16  2  0  0  0  0
 16  2  1  0  0  0  0
 18 17  2  0  0  0  0
 19 18  1  0  0  0  0
 20 22  2  0  0  0  0
 21 23  1  0  0  0  0
 22 30  1  0  0  0  0
 22 21  1  0  0  0  0
 23 29  2  0  0  0  0
 24 26  1  0  0  0  0
 25 35  1  0  0  0  0
 27 34  1  0  0  0  0
 28 27  1  0  0  0  0
 29 24  1  0  0  0  0
 30 31  1  0  0  0  0
 31 32  1  6  0  0  0
 31 28  1  0  0  0  0
 33 25  1  0  0  0  0
 33 30  1  0  0  0  0
 34 26  1  0  0  0  0
 35 32  1  0  0  0  0
 35 19  1  1  0  0  0
 36 37  1  0  0  0  0
 38 44  1  0  0  0  0
 38 37  1  0  0  0  0
 39 40  1  0  0  0  0
 40 41  1  0  0  0  0
 41 45  1  0  0  0  0
 42 39  2  0  0  0  0
 42 44  1  0  0  0  0
 43 41  1  0  0  0  0
 44 43  2  0  0  0  0
 46 39  1  0  0  0  0
 47 46  1  0  0  0  0
 48 47  1  0  0  0  0
 49 48  1  0  0  0  0
 50 48  2  0  0  0  0
M  END
>  <MODEL>
8

>  <REMARK>
 VINA RESULT:      -7.3      2.088      4.082
  Name = 
  10 active torsions:
  status: ('A' for Active; 'I' for Inactive)
    1  A    between atoms: C_2  and  C_7
    2  A    between atoms: C_2  and  O_42
    3  A    between atoms: C_5  and  O_42
    4  A    between atoms: C_9  and  C_44
    5  A    between atoms: C_9  and  C_50
    6  A    between atoms: N_10  and  C_26
    7  A    between atoms: N_10  and  C_38
    8  A    between atoms: C_22  and  C_30
    9  A    between atoms: C_26  and  C_50
   10  A    between atoms: C_47  and  N_49
                            x       y       z     vdW  Elec       q    Type
                         _______ _______ _______ _____ _____    ______ ____

>  <TORSDO>
F 10

$$$$
=
 OpenBabel11042419463D

 50 55  0  0  1  0  0  0  0  0999 V2000
  191.4480  171.0280  142.9920 C   0  0  2  0  0  3  0  0  0  0  0  0
  192.7030  170.3870  139.5260 N   0  0  0  0  0  0  0  0  0  0  0  0
  189.4320  171.9500  141.6530 C   0  0  0  0  0  2  0  0  0  0  0  0
  191.5660  172.3910  140.5140 N   0  0  0  0  0  0  0  0  0  0  0  0
  190.4580  172.1880  142.7440 C   0  0  2  0  0  0  0  0  0  0  0  0
  192.0680  171.0460  140.6350 C   0  0  0  0  0  0  0  0  0  0  0  0
  192.6260  171.4900  143.8460 C   0  0  0  0  0  1  0  0  0  0  0  0
  192.1620  173.3000  139.5440 C   0  0  0  0  0  1  0  0  0  0  0  0
  191.9580  170.4210  141.7680 N   0  0  0  0  0  0  0  0  0  0  0  0
  190.5670  172.9540  141.4300 C   0  0  2  0  0  3  0  0  0  0  0  0
  190.7070  170.0580  138.1000 C   0  0  0  0  0  3  0  0  0  0  0  0
  192.1900  170.6750  135.8130 C   0  0  0  0  0  3  0  0  0  0  0  0
  190.0840  170.0920  136.8480 C   0  0  0  0  0  3  0  0  0  0  0  0
  190.8250  170.4020  135.7040 C   0  0  0  0  0  3  0  0  0  0  0  0
  192.8130  170.6370  137.0650 C   0  0  0  0  0  3  0  0  0  0  0  0
  192.0820  170.3260  138.2250 C   0  0  0  0  0  0  0  0  0  0  0  0
  189.5540  172.1990  144.9480 O   0  0  0  0  0  0  0  0  0  0  0  0
  189.8880  172.8950  143.9520 C   0  0  0  0  0  0  0  0  0  0  0  0
  189.7330  174.3180  144.0420 N   0  0  0  0  0  2  0  0  0  0  0  0
  184.9750  177.7420  142.3370 O   0  0  0  0  0  0  0  0  0  0  0  0
  185.7560  178.8490  144.2990 C   0  0  0  0  0  2  0  0  0  0  0  0
  185.8860  177.8330  143.2050 C   0  0  0  0  0  0  0  0  0  0  0  0
  184.4710  178.6630  145.0440 C   0  0  0  0  0  3  0  0  0  0  0  0
  185.5570  179.1690  147.2350 C   0  0  0  0  0  2  0  0  0  0  0  0
  188.0070  174.8470  142.3980 C   0  0  0  0  0  2  0  0  0  0  0  0
  186.0430  177.9440  148.0030 C   0  0  0  0  0  2  0  0  0  0  0  0
  187.7250  177.2990  146.4200 O   0  0  0  0  0  0  0  0  0  0  0  0
  187.8620  176.4100  145.3570 C   0  0  0  0  0  2  0  0  0  0  0  0
  184.3750  178.8320  146.3680 C   0  0  0  0  0  3  0  0  0  0  0  0
  187.0500  176.9940  143.1160 N   0  0  0  0  0  0  0  0  0  0  0  0
  188.1630  177.1620  144.0640 C   0  0  2  0  0  3  0  0  0  0  0  0
  189.4790  176.6690  143.4440 C   0  0  0  0  0  2  0  0  0  0  0  0
  187.1790  176.0670  141.9880 C   0  0  0  0  0  2  0  0  0  0  0  0
  186.5780  176.8570  147.0800 C   0  0  0  0  0  2  0  0  0  0  0  0
  189.3940  175.2170  142.9450 C   0  0  1  0  0  3  0  0  0  0  0  0
  193.8490  169.5270  139.8090 C   0  0  0  0  0  2  0  0  0  0  0  0
  194.9830  170.3450  140.4100 C   0  0  0  0  0  2  0  0  0  0  0  0
  195.8160  170.9510  139.2960 C   0  0  0  0  0  2  0  0  0  0  0  0
  195.6910  174.4840  140.6870 C   0  0  0  0  0  0  0  0  0  0  0  0
  195.3060  175.2610  139.4450 C   0  0  0  0  0  2  0  0  0  0  0  0
  195.7320  174.5610  138.2300 N   0  0  0  0  0  0  0  0  0  0  0  0
  195.8750  173.1610  140.6250 C   0  0  0  0  0  3  0  0  0  0  0  0
  195.7870  173.1310  138.1950 C   0  0  0  0  0  3  0  0  0  0  0  0
  195.8010  172.4420  139.3390 C   0  0  0  0  0  0  0  0  0  0  0  0
  195.8600  175.3050  136.9930 C   0  0  0  0  0  1  0  0  0  0  0  0
  195.8880  175.1370  141.9030 O   0  0  0  0  0  0  0  0  0  0  0  0
  195.4090  174.6050  143.1400 C   0  0  0  0  0  2  0  0  0  0  0  0
  194.6350  175.6330  143.9130 C   0  0  0  0  0  0  0  0  0  0  0  0
  193.1610  175.4760  144.0670 C   0  0  0  0  0  1  0  0  0  0  0  0
  195.1850  176.6140  144.3850 O   0  0  0  0  0  0  0  0  0  0  0  0
  1  7  1  6  0  0  0
  2 36  1  0  0  0  0
  2  6  1  0  0  0  0
  3  5  1  0  0  0  0
  4  6  1  0  0  0  0
  4 10  1  0  0  0  0
  5  1  1  0  0  0  0
  5 18  1  1  0  0  0
  6  9  2  0  0  0  0
  8  4  1  0  0  0  0
  9  1  1  0  0  0  0
 10  3  1  6  0  0  0
 10  5  1  0  0  0  0
 11 16  1  0  0  0  0
 12 15  1  0  0  0  0
 13 11  2  0  0  0  0
 14 12  2  0  0  0  0
 14 13  1  0  0  0  0
 15 16  2  0  0  0  0
 16  2  1  0  0  0  0
 18 19  1  0  0  0  0
 18 17  2  0  0  0  0
 20 22  2  0  0  0  0
 21 23  1  0  0  0  0
 22 21  1  0  0  0  0
 23 29  2  0  0  0  0
 24 26  1  0  0  0  0
 25 35  1  0  0  0  0
 27 34  1  0  0  0  0
 28 27  1  0  0  0  0
 29 24  1  0  0  0  0
 30 22  1  0  0  0  0
 30 31  1  0  0  0  0
 31 32  1  6  0  0  0
 31 28  1  0  0  0  0
 33 25  1  0  0  0  0
 33 30  1  0  0  0  0
 34 26  1  0  0  0  0
 35 32  1  0  0  0  0
 35 19  1  1  0  0  0
 36 37  1  0  0  0  0
 38 44  1  0  0  0  0
 38 37  1  0  0  0  0
 39 46  1  0  0  0  0
 40 39  1  0  0  0  0
 41 40  1  0  0  0  0
 42 39  2  0  0  0  0
 43 41  1  0  0  0  0
 43 44  2  0  0  0  0
 44 42  1  0  0  0  0
 45 41  1  0  0  0  0
 46 47  1  0  0  0  0
 47 48  1  0  0  0  0
 48 49  1  0  0  0  0
 48 50  2  0  0  0  0
M  END
>  <MODEL>
9

>  <REMARK>
 VINA RESULT:      -7.1      2.167      3.687
  Name = 
  10 active torsions:
  status: ('A' for Active; 'I' for Inactive)
    1  A    between atoms: C_2  and  C_7
    2  A    between atoms: C_2  and  O_42
    3  A    between atoms: C_5  and  O_42
    4  A    between atoms: C_9  and  C_44
    5  A    between atoms: C_9  and  C_50
    6  A    between atoms: N_10  and  C_26
    7  A    between atoms: N_10  and  C_38
    8  A    between atoms: C_22  and  C_30
    9  A    between atoms: C_26  and  C_50
   10  A    between atoms: C_47  and  N_49
                            x       y       z     vdW  Elec       q    Type
                         _______ _______ _______ _____ _____    ______ ____

>  <TORSDO>
F 10

$$$$
