=
 OpenBabel11042416563D

 35 39  0  0  1  0  0  0  0  0999 V2000
  188.9360  176.2570  143.5200 C   0  0  1  0  0  3  0  0  0  0  0  0
  190.1170  172.5190  144.7290 C   0  0  0  0  0  3  0  0  0  0  0  0
  189.4940  176.9000  144.5450 C   0  0  0  0  0  0  0  0  0  0  0  0
  189.7290  175.9270  145.6170 C   0  0  0  0  0  0  0  0  0  0  0  0
  189.3810  173.9530  142.8590 C   0  0  0  0  0  0  0  0  0  0  0  0
  189.8450  173.4460  145.6590 C   0  0  0  0  0  3  0  0  0  0  0  0
  188.5590  175.5820  141.2520 O   0  0  0  0  0  0  0  0  0  0  0  0
  190.1050  178.2580  144.4560 C   0  0  0  0  0  1  0  0  0  0  0  0
  189.9700  172.7960  143.2650 C   0  0  0  0  0  0  0  0  0  0  0  0
  189.4320  174.4790  141.4360 C   0  0  0  0  0  2  0  0  0  0  0  0
  188.9770  176.6650  142.0700 C   0  0  1  0  0  3  0  0  0  0  0  0
  188.6830  174.8350  143.8630 C   0  0  1  0  0  3  0  0  0  0  0  0
  189.3290  174.7360  145.1970 C   0  0  2  0  0  3  0  0  0  0  0  0
  190.5560  171.8080  142.3250 C   0  0  0  0  0  0  0  0  0  0  0  0
  189.7960  171.0840  141.6290 O   0  0  0  0  0  0  0  0  0  0  0  0
  191.9660  171.6870  142.1540 N   0  0  0  0  0  1  0  0  0  0  0  0
  190.5630  176.1210  146.7650 N   0  0  0  0  0  2  0  0  0  0  0  0
  191.9170  176.4780  146.6600 N   0  0  0  0  0  2  0  0  0  0  0  0
  194.4180  173.2560  144.1270 C   0  0  0  0  0  3  0  0  0  0  0  0
  193.1390  175.2400  144.3840 N   0  0  0  0  0  0  0  0  0  0  0  0
  192.6720  175.2930  146.7170 N   0  0  0  0  0  2  0  0  0  0  0  0
  193.2470  174.7060  145.5480 C   0  0  0  0  0  0  0  0  0  0  0  0
  193.8140  174.4410  143.3800 C   0  0  0  0  0  3  0  0  0  0  0  0
  194.0120  173.4440  145.5820 C   0  0  0  0  0  2  0  0  0  0  0  0
  188.0500  177.8480  141.8400 C   0  0  0  0  0  2  0  0  0  0  0  0
  186.9700  177.4740  140.8400 C   0  0  0  0  0  2  0  0  0  0  0  0
  185.6000  177.8310  141.3910 C   0  0  2  0  0  3  0  0  0  0  0  0
  183.6180  178.2450  140.4850 C   0  0  0  0  0  1  0  0  0  0  0  0
  184.9430  178.6900  140.5050 O   0  0  0  0  0  0  0  0  0  0  0  0
  185.7800  178.5200  142.7360 C   0  0  0  0  0  2  0  0  0  0  0  0
  185.0650  177.4060  145.8960 C   0  0  0  0  0  2  0  0  0  0  0  0
  185.7930  177.3770  144.6980 O   0  0  0  0  0  0  0  0  0  0  0  0
  184.1570  178.6000  145.8390 C   0  0  0  0  0  2  0  0  0  0  0  0
  184.1720  178.9280  144.3830 C   0  0  0  0  0  2  0  0  0  0  0  0
  184.9530  177.8800  143.7490 N   0  0  0  0  0  0  0  0  0  0  0  0
  1 12  1  0  0  0  0
  1  3  1  6  0  0  0
  2  6  2  0  0  0  0
  3  4  2  0  0  0  0
  4 17  1  0  0  0  0
  5  9  2  0  0  0  0
  7 10  1  0  0  0  0
  7 11  1  0  0  0  0
  8  3  1  0  0  0  0
  9  2  1  0  0  0  0
 10  5  1  0  0  0  0
 11 25  1  1  0  0  0
 11  1  1  0  0  0  0
 12  5  1  6  0  0  0
 12 13  1  0  0  0  0
 13  4  1  0  0  0  0
 13  6  1  6  0  0  0
 14  9  1  0  0  0  0
 15 14  2  0  0  0  0
 16 14  1  0  0  0  0
 18 21  1  0  0  0  0
 18 17  1  0  0  0  0
 19 24  1  0  0  0  0
 20 22  2  0  0  0  0
 22 24  1  0  0  0  0
 22 21  1  0  0  0  0
 23 19  2  0  0  0  0
 23 20  1  0  0  0  0
 26 25  1  0  0  0  0
 27 26  1  6  0  0  0
 27 30  1  0  0  0  0
 28 29  1  0  0  0  0
 29 27  1  0  0  0  0
 30 35  1  0  0  0  0
 32 31  1  0  0  0  0
 33 31  1  0  0  0  0
 34 33  1  0  0  0  0
 35 34  1  0  0  0  0
 35 32  1  0  0  0  0
M  END
>  <MODEL>
1

>  <REMARK>
 VINA RESULT:      -6.8      0.000      0.000
  Name = 
  10 active torsions:
  status: ('A' for Active; 'I' for Inactive)
    1  A    between atoms: C_1  and  C_26
    2  A    between atoms: C_5  and  C_25
    3  A    between atoms: C_5  and  C_29
    4  A    between atoms: N_6  and  C_11
    5  A    between atoms: N_6  and  N_19
    6  A    between atoms: C_9  and  C_29
    7  A    between atoms: C_9  and  N_30
    8  A    between atoms: O_16  and  C_29
    9  A    between atoms: N_18  and  N_19
   10  A    between atoms: C_25  and  C_31
                            x       y       z     vdW  Elec       q    Type
                         _______ _______ _______ _____ _____    ______ ____

>  <TORSDO>
F 10

$$$$
=
 OpenBabel11042416563D

 35 39  0  0  1  0  0  0  0  0999 V2000
  189.9610  176.4860  144.7980 C   0  0  1  0  0  3  0  0  0  0  0  0
  185.8860  176.8150  145.1410 C   0  0  0  0  0  3  0  0  0  0  0  0
  189.9950  176.7320  143.4890 C   0  0  0  0  0  0  0  0  0  0  0  0
  188.6520  176.4980  142.9480 C   0  0  0  0  0  0  0  0  0  0  0  0
  188.0720  176.8920  146.2850 C   0  0  0  0  0  0  0  0  0  0  0  0
  186.4050  176.3430  143.9970 C   0  0  0  0  0  3  0  0  0  0  0  0
  190.3470  176.8200  147.1390 O   0  0  0  0  0  0  0  0  0  0  0  0
  191.0920  177.4710  142.7990 C   0  0  0  0  0  1  0  0  0  0  0  0
  186.7450  177.1930  146.3070 C   0  0  0  0  0  0  0  0  0  0  0  0
  189.0900  177.4670  147.2540 C   0  0  0  0  0  2  0  0  0  0  0  0
  190.8860  177.0480  145.8460 C   0  0  1  0  0  3  0  0  0  0  0  0
  188.6220  175.9920  145.2080 C   0  0  1  0  0  3  0  0  0  0  0  0
  187.8540  176.1440  143.9450 C   0  0  2  0  0  3  0  0  0  0  0  0
  186.1030  177.9560  147.4050 C   0  0  0  0  0  0  0  0  0  0  0  0
  185.7920  177.3680  148.4750 O   0  0  0  0  0  0  0  0  0  0  0  0
  185.8650  179.3580  147.3000 N   0  0  0  0  0  1  0  0  0  0  0  0
  188.1730  176.9170  141.6650 N   0  0  0  0  0  2  0  0  0  0  0  0
  187.5590  178.1640  141.4610 N   0  0  0  0  0  2  0  0  0  0  0  0
  182.7800  178.1650  141.0060 C   0  0  0  0  0  3  0  0  0  0  0  0
  184.8080  178.4620  142.2030 N   0  0  0  0  0  0  0  0  0  0  0  0
  186.4790  177.9630  140.5830 N   0  0  0  0  0  2  0  0  0  0  0  0
  185.1220  178.1080  141.0080 C   0  0  0  0  0  0  0  0  0  0  0  0
  183.3690  178.5320  142.3640 C   0  0  0  0  0  3  0  0  0  0  0  0
  183.9750  177.8680  140.1120 C   0  0  0  0  0  2  0  0  0  0  0  0
  192.2460  176.3750  145.7480 C   0  0  0  0  0  2  0  0  0  0  0  0
  192.1310  174.9130  146.1450 C   0  0  0  0  0  2  0  0  0  0  0  0
  193.1110  174.0750  145.3420 C   0  0  2  0  0  3  0  0  0  0  0  0
  194.9300  174.2810  144.0890 C   0  0  0  0  0  1  0  0  0  0  0  0
  193.6750  174.8510  144.3250 O   0  0  0  0  0  0  0  0  0  0  0  0
  192.3620  172.8990  144.7320 C   0  0  0  0  0  2  0  0  0  0  0  0
  189.8130  173.0970  142.4510 C   0  0  0  0  0  2  0  0  0  0  0  0
  191.1140  173.3730  142.8950 O   0  0  0  0  0  0  0  0  0  0  0  0
  189.2020  172.1350  143.4280 C   0  0  0  0  0  2  0  0  0  0  0  0
  190.1150  172.2680  144.6010 C   0  0  0  0  0  2  0  0  0  0  0  0
  191.0530  173.3230  144.2570 N   0  0  0  0  0  0  0  0  0  0  0  0
  1  3  1  6  0  0  0
  1 12  1  0  0  0  0
  1 11  1  0  0  0  0
  2  9  1  0  0  0  0
  4  3  2  0  0  0  0
  4 13  1  0  0  0  0
  5  9  2  0  0  0  0
  5 10  1  0  0  0  0
  6  2  2  0  0  0  0
  7 10  1  0  0  0  0
  8  3  1  0  0  0  0
  9 14  1  0  0  0  0
 11 25  1  1  0  0  0
 11  7  1  0  0  0  0
 12  5  1  1  0  0  0
 13  6  1  1  0  0  0
 13 12  1  0  0  0  0
 14 15  2  0  0  0  0
 16 14  1  0  0  0  0
 17  4  1  0  0  0  0
 18 17  1  0  0  0  0
 19 23  2  0  0  0  0
 20 23  1  0  0  0  0
 21 22  1  0  0  0  0
 21 18  1  0  0  0  0
 22 20  2  0  0  0  0
 24 19  1  0  0  0  0
 24 22  1  0  0  0  0
 25 26  1  0  0  0  0
 27 30  1  6  0  0  0
 27 26  1  0  0  0  0
 28 29  1  0  0  0  0
 29 27  1  0  0  0  0
 31 32  1  0  0  0  0
 31 33  1  0  0  0  0
 32 35  1  0  0  0  0
 33 34  1  0  0  0  0
 35 34  1  0  0  0  0
 35 30  1  0  0  0  0
M  END
>  <MODEL>
2

>  <REMARK>
 VINA RESULT:      -6.8      2.479      7.899
  Name = 
  10 active torsions:
  status: ('A' for Active; 'I' for Inactive)
    1  A    between atoms: C_1  and  C_26
    2  A    between atoms: C_5  and  C_25
    3  A    between atoms: C_5  and  C_29
    4  A    between atoms: N_6  and  C_11
    5  A    between atoms: N_6  and  N_19
    6  A    between atoms: C_9  and  C_29
    7  A    between atoms: C_9  and  N_30
    8  A    between atoms: O_16  and  C_29
    9  A    between atoms: N_18  and  N_19
   10  A    between atoms: C_25  and  C_31
                            x       y       z     vdW  Elec       q    Type
                         _______ _______ _______ _____ _____    ______ ____

>  <TORSDO>
F 10

$$$$
=
 OpenBabel11042416563D

 35 39  0  0  1  0  0  0  0  0999 V2000
  188.6780  175.7110  143.9280 C   0  0  1  0  0  3  0  0  0  0  0  0
  187.0510  178.0570  146.8740 C   0  0  0  0  0  3  0  0  0  0  0  0
  189.4090  174.9650  144.7540 C   0  0  0  0  0  0  0  0  0  0  0  0
  189.5480  175.6930  146.0200 C   0  0  0  0  0  0  0  0  0  0  0  0
  186.8510  177.1930  144.5700 C   0  0  0  0  0  0  0  0  0  0  0  0
  188.2950  177.5830  147.0360 C   0  0  0  0  0  3  0  0  0  0  0  0
  186.9740  176.2530  142.3320 O   0  0  0  0  0  0  0  0  0  0  0  0
  189.6930  173.5150  144.5510 C   0  0  0  0  0  1  0  0  0  0  0  0
  186.2510  177.7870  145.6370 C   0  0  0  0  0  0  0  0  0  0  0  0
  186.0980  176.6090  143.3880 C   0  0  0  0  0  2  0  0  0  0  0  0
  187.8530  175.2250  142.7650 C   0  0  1  0  0  3  0  0  0  0  0  0
  188.3490  177.0190  144.5490 C   0  0  1  0  0  3  0  0  0  0  0  0
  188.8820  176.8340  145.9230 C   0  0  2  0  0  3  0  0  0  0  0  0
  184.8050  178.1180  145.6780 C   0  0  0  0  0  0  0  0  0  0  0  0
  184.0530  177.5270  146.4970 O   0  0  0  0  0  0  0  0  0  0  0  0
  184.2470  179.1260  144.8380 N   0  0  0  0  0  1  0  0  0  0  0  0
  189.9980  175.1450  147.2640 N   0  0  0  0  0  2  0  0  0  0  0  0
  191.2730  175.4110  147.7880 N   0  0  0  0  0  2  0  0  0  0  0  0
  195.1720  175.9950  145.0480 C   0  0  0  0  0  3  0  0  0  0  0  0
  193.4640  176.7480  146.5140 N   0  0  0  0  0  0  0  0  0  0  0  0
  192.2120  174.7730  146.9580 N   0  0  0  0  0  2  0  0  0  0  0  0
  193.2780  175.4900  146.3320 C   0  0  0  0  0  0  0  0  0  0  0  0
  194.6110  177.2200  145.7650 C   0  0  0  0  0  3  0  0  0  0  0  0
  194.2510  174.8440  145.4300 C   0  0  0  0  0  2  0  0  0  0  0  0
  188.7650  174.8330  141.6130 C   0  0  0  0  0  2  0  0  0  0  0  0
  188.3570  173.4780  141.0650 C   0  0  0  0  0  2  0  0  0  0  0  0
  189.1280  173.1740  139.7910 C   0  0  2  0  0  3  0  0  0  0  0  0
  188.2990  174.0990  137.9530 C   0  0  0  0  0  1  0  0  0  0  0  0
  188.2340  172.9450  138.7400 O   0  0  0  0  0  0  0  0  0  0  0  0
  189.9790  171.9340  140.0200 C   0  0  0  0  0  2  0  0  0  0  0  0
  192.5650  174.1220  140.5310 C   0  0  0  0  0  2  0  0  0  0  0  0
  191.5040  173.5990  139.7790 O   0  0  0  0  0  0  0  0  0  0  0  0
  192.5400  173.4450  141.8710 C   0  0  0  0  0  2  0  0  0  0  0  0
  191.6680  172.2640  141.6020 C   0  0  0  0  0  2  0  0  0  0  0  0
  191.3790  172.3010  140.1780 N   0  0  0  0  0  0  0  0  0  0  0  0
  1 12  1  0  0  0  0
  1  3  1  1  0  0  0
  2  6  2  0  0  0  0
  3  4  2  0  0  0  0
  4 17  1  0  0  0  0
  5  9  2  0  0  0  0
  7 11  1  0  0  0  0
  7 10  1  0  0  0  0
  8  3  1  0  0  0  0
  9 14  1  0  0  0  0
  9  2  1  0  0  0  0
 10  5  1  0  0  0  0
 11 25  1  6  0  0  0
 11  1  1  0  0  0  0
 12  5  1  1  0  0  0
 12 13  1  0  0  0  0
 13  4  1  0  0  0  0
 13  6  1  1  0  0  0
 14 15  2  0  0  0  0
 16 14  1  0  0  0  0
 17 18  1  0  0  0  0
 19 24  1  0  0  0  0
 19 23  2  0  0  0  0
 21 18  1  0  0  0  0
 22 20  2  0  0  0  0
 22 21  1  0  0  0  0
 23 20  1  0  0  0  0
 24 22  1  0  0  0  0
 26 25  1  0  0  0  0
 27 30  1  1  0  0  0
 27 26  1  0  0  0  0
 28 29  1  0  0  0  0
 29 27  1  0  0  0  0
 30 35  1  0  0  0  0
 31 33  1  0  0  0  0
 32 35  1  0  0  0  0
 32 31  1  0  0  0  0
 34 33  1  0  0  0  0
 35 34  1  0  0  0  0
M  END
>  <MODEL>
3

>  <REMARK>
 VINA RESULT:      -6.8      2.008      5.943
  Name = 
  10 active torsions:
  status: ('A' for Active; 'I' for Inactive)
    1  A    between atoms: C_1  and  C_26
    2  A    between atoms: C_5  and  C_25
    3  A    between atoms: C_5  and  C_29
    4  A    between atoms: N_6  and  C_11
    5  A    between atoms: N_6  and  N_19
    6  A    between atoms: C_9  and  C_29
    7  A    between atoms: C_9  and  N_30
    8  A    between atoms: O_16  and  C_29
    9  A    between atoms: N_18  and  N_19
   10  A    between atoms: C_25  and  C_31
                            x       y       z     vdW  Elec       q    Type
                         _______ _______ _______ _____ _____    ______ ____

>  <TORSDO>
F 10

$$$$
=
 OpenBabel11042416563D

 35 39  0  0  1  0  0  0  0  0999 V2000
  189.2920  176.4250  143.2870 C   0  0  1  0  0  3  0  0  0  0  0  0
  190.8510  173.1370  141.3940 C   0  0  0  0  0  3  0  0  0  0  0  0
  190.4690  176.9170  143.6700 C   0  0  0  0  0  0  0  0  0  0  0  0
  191.4540  175.8320  143.6140 C   0  0  0  0  0  0  0  0  0  0  0  0
  188.9390  174.6830  141.6190 C   0  0  0  0  0  0  0  0  0  0  0  0
  191.4840  173.6260  142.4700 C   0  0  0  0  0  3  0  0  0  0  0  0
  187.1990  176.3020  142.1270 O   0  0  0  0  0  0  0  0  0  0  0  0
  190.7850  178.3720  143.7600 C   0  0  0  0  0  1  0  0  0  0  0  0
  189.5760  173.7320  140.8830 C   0  0  0  0  0  0  0  0  0  0  0  0
  187.8180  175.5580  141.0900 C   0  0  0  0  0  2  0  0  0  0  0  0
  188.1390  177.1980  142.7000 C   0  0  1  0  0  3  0  0  0  0  0  0
  189.3870  174.9660  143.0310 C   0  0  1  0  0  3  0  0  0  0  0  0
  190.8470  174.7370  143.1810 C   0  0  2  0  0  3  0  0  0  0  0  0
  189.1130  173.2980  139.5410 C   0  0  0  0  0  0  0  0  0  0  0  0
  188.0920  172.5680  139.4400 O   0  0  0  0  0  0  0  0  0  0  0  0
  189.7730  173.7230  138.3510 N   0  0  0  0  0  1  0  0  0  0  0  0
  192.8780  175.9810  143.6570 N   0  0  0  0  0  2  0  0  0  0  0  0
  193.5390  176.5910  144.7360 N   0  0  0  0  0  2  0  0  0  0  0  0
  197.4790  173.8740  145.1220 C   0  0  0  0  0  3  0  0  0  0  0  0
  196.1510  175.5770  144.1360 N   0  0  0  0  0  0  0  0  0  0  0  0
  194.1790  175.5750  145.4680 N   0  0  0  0  0  2  0  0  0  0  0  0
  195.4770  175.0920  145.1160 C   0  0  0  0  0  0  0  0  0  0  0  0
  197.4300  174.9080  144.0010 C   0  0  0  0  0  3  0  0  0  0  0  0
  196.1490  174.0030  145.8510 C   0  0  0  0  0  2  0  0  0  0  0  0
  187.4540  178.0080  143.7890 C   0  0  0  0  0  2  0  0  0  0  0  0
  186.2010  177.2900  144.2590 C   0  0  0  0  0  2  0  0  0  0  0  0
  186.4070  176.7440  145.6620 C   0  0  2  0  0  3  0  0  0  0  0  0
  184.5760  177.9800  145.8750 C   0  0  0  0  0  1  0  0  0  0  0  0
  185.2180  176.8490  146.3900 O   0  0  0  0  0  0  0  0  0  0  0  0
  187.4990  177.5540  146.3460 C   0  0  0  0  0  2  0  0  0  0  0  0
  189.6540  174.9620  146.9550 C   0  0  0  0  0  2  0  0  0  0  0  0
  188.4160  175.4880  146.5610 O   0  0  0  0  0  0  0  0  0  0  0  0
  190.5930  176.1180  147.1400 C   0  0  0  0  0  2  0  0  0  0  0  0
  189.6490  177.2710  147.2190 C   0  0  0  0  0  2  0  0  0  0  0  0
  188.3160  176.6940  147.1900 N   0  0  0  0  0  0  0  0  0  0  0  0
  1  3  1  6  0  0  0
  2  6  2  0  0  0  0
  3  8  1  0  0  0  0
  4 17  1  0  0  0  0
  4  3  2  0  0  0  0
  7 11  1  0  0  0  0
  9  2  1  0  0  0  0
  9  5  2  0  0  0  0
 10  5  1  0  0  0  0
 10  7  1  0  0  0  0
 11  1  1  0  0  0  0
 11 25  1  1  0  0  0
 12  5  1  6  0  0  0
 12 13  1  0  0  0  0
 12  1  1  0  0  0  0
 13  6  1  6  0  0  0
 13  4  1  0  0  0  0
 14  9  1  0  0  0  0
 15 14  2  0  0  0  0
 16 14  1  0  0  0  0
 17 18  1  0  0  0  0
 18 21  1  0  0  0  0
 19 24  1  0  0  0  0
 20 22  2  0  0  0  0
 22 21  1  0  0  0  0
 22 24  1  0  0  0  0
 23 20  1  0  0  0  0
 23 19  2  0  0  0  0
 25 26  1  0  0  0  0
 27 26  1  6  0  0  0
 27 30  1  0  0  0  0
 27 29  1  0  0  0  0
 28 29  1  0  0  0  0
 30 35  1  0  0  0  0
 31 33  1  0  0  0  0
 32 31  1  0  0  0  0
 32 35  1  0  0  0  0
 33 34  1  0  0  0  0
 35 34  1  0  0  0  0
M  END
>  <MODEL>
4

>  <REMARK>
 VINA RESULT:      -6.8      2.332      3.596
  Name = 
  10 active torsions:
  status: ('A' for Active; 'I' for Inactive)
    1  A    between atoms: C_1  and  C_26
    2  A    between atoms: C_5  and  C_25
    3  A    between atoms: C_5  and  C_29
    4  A    between atoms: N_6  and  C_11
    5  A    between atoms: N_6  and  N_19
    6  A    between atoms: C_9  and  C_29
    7  A    between atoms: C_9  and  N_30
    8  A    between atoms: O_16  and  C_29
    9  A    between atoms: N_18  and  N_19
   10  A    between atoms: C_25  and  C_31
                            x       y       z     vdW  Elec       q    Type
                         _______ _______ _______ _____ _____    ______ ____

>  <TORSDO>
F 10

$$$$
=
 OpenBabel11042416563D

 35 39  0  0  1  0  0  0  0  0999 V2000
  191.0230  176.5770  144.9390 C   0  0  1  0  0  3  0  0  0  0  0  0
  187.5880  175.6630  142.8920 C   0  0  0  0  0  3  0  0  0  0  0  0
  190.4270  176.7270  146.1200 C   0  0  0  0  0  0  0  0  0  0  0  0
  188.9960  176.9400  145.8820 C   0  0  0  0  0  0  0  0  0  0  0  0
  190.0520  175.5280  142.9640 C   0  0  0  0  0  0  0  0  0  0  0  0
  187.5180  176.5060  143.9330 C   0  0  0  0  0  3  0  0  0  0  0  0
  192.4610  175.6300  143.2720 O   0  0  0  0  0  0  0  0  0  0  0  0
  191.0440  176.3610  147.4280 C   0  0  0  0  0  1  0  0  0  0  0  0
  188.8850  175.0730  142.4330 C   0  0  0  0  0  0  0  0  0  0  0  0
  191.3890  174.8280  142.8040 C   0  0  0  0  0  2  0  0  0  0  0  0
  192.3170  175.8550  144.6670 C   0  0  1  0  0  3  0  0  0  0  0  0
  190.0530  176.7630  143.8300 C   0  0  1  0  0  3  0  0  0  0  0  0
  188.7760  176.8890  144.5770 C   0  0  2  0  0  3  0  0  0  0  0  0
  188.8160  173.9510  141.4640 C   0  0  0  0  0  0  0  0  0  0  0  0
  188.9950  174.1750  140.2380 O   0  0  0  0  0  0  0  0  0  0  0  0
  188.5940  172.6090  141.8910 N   0  0  0  0  0  1  0  0  0  0  0  0
  187.9550  176.8550  146.8620 N   0  0  0  0  0  2  0  0  0  0  0  0
  187.3960  177.9910  147.4690 N   0  0  0  0  0  2  0  0  0  0  0  0
  183.9240  179.4180  144.4760 C   0  0  0  0  0  3  0  0  0  0  0  0
  186.1800  179.2260  145.1880 N   0  0  0  0  0  0  0  0  0  0  0  0
  186.0150  177.9740  147.2050 N   0  0  0  0  0  2  0  0  0  0  0  0
  185.4560  178.6220  146.0600 C   0  0  0  0  0  0  0  0  0  0  0  0
  185.3620  179.7910  144.1330 C   0  0  0  0  0  3  0  0  0  0  0  0
  184.0060  178.6450  145.7850 C   0  0  0  0  0  2  0  0  0  0  0  0
  193.4890  176.6900  145.1590 C   0  0  0  0  0  2  0  0  0  0  0  0
  194.5270  175.7940  145.8110 C   0  0  0  0  0  2  0  0  0  0  0  0
  195.7480  175.6700  144.9150 C   0  0  2  0  0  3  0  0  0  0  0  0
  196.8340  176.4150  143.1300 C   0  0  0  0  0  1  0  0  0  0  0  0
  195.6390  176.5590  143.8410 O   0  0  0  0  0  0  0  0  0  0  0  0
  195.8270  174.2440  144.3930 C   0  0  0  0  0  2  0  0  0  0  0  0
  195.0230  171.1710  145.6770 C   0  0  0  0  0  2  0  0  0  0  0  0
  194.7270  172.3390  144.9610 O   0  0  0  0  0  0  0  0  0  0  0  0
  196.4870  171.2050  146.0060 C   0  0  0  0  0  2  0  0  0  0  0  0
  196.8190  172.6420  145.7770 C   0  0  0  0  0  2  0  0  0  0  0  0
  195.5590  173.2950  145.4650 N   0  0  0  0  0  0  0  0  0  0  0  0
  1  3  1  1  0  0  0
  2  6  2  0  0  0  0
  3  8  1  0  0  0  0
  4  3  2  0  0  0  0
  4 17  1  0  0  0  0
  7 11  1  0  0  0  0
  9  2  1  0  0  0  0
  9  5  2  0  0  0  0
 10  5  1  0  0  0  0
 10  7  1  0  0  0  0
 11  1  1  0  0  0  0
 11 25  1  6  0  0  0
 12  5  1  6  0  0  0
 12 13  1  0  0  0  0
 12  1  1  0  0  0  0
 13  6  1  1  0  0  0
 13  4  1  0  0  0  0
 14 16  1  0  0  0  0
 14  9  1  0  0  0  0
 15 14  2  0  0  0  0
 17 18  1  0  0  0  0
 19 24  1  0  0  0  0
 20 22  2  0  0  0  0
 21 18  1  0  0  0  0
 22 21  1  0  0  0  0
 23 19  2  0  0  0  0
 23 20  1  0  0  0  0
 24 22  1  0  0  0  0
 25 26  1  0  0  0  0
 27 30  1  6  0  0  0
 27 26  1  0  0  0  0
 28 29  1  0  0  0  0
 29 27  1  0  0  0  0
 30 35  1  0  0  0  0
 31 33  1  0  0  0  0
 32 35  1  0  0  0  0
 32 31  1  0  0  0  0
 34 33  1  0  0  0  0
 35 34  1  0  0  0  0
M  END
>  <MODEL>
5

>  <REMARK>
 VINA RESULT:      -6.7      2.815      7.984
  Name = 
  10 active torsions:
  status: ('A' for Active; 'I' for Inactive)
    1  A    between atoms: C_1  and  C_26
    2  A    between atoms: C_5  and  C_25
    3  A    between atoms: C_5  and  C_29
    4  A    between atoms: N_6  and  C_11
    5  A    between atoms: N_6  and  N_19
    6  A    between atoms: C_9  and  C_29
    7  A    between atoms: C_9  and  N_30
    8  A    between atoms: O_16  and  C_29
    9  A    between atoms: N_18  and  N_19
   10  A    between atoms: C_25  and  C_31
                            x       y       z     vdW  Elec       q    Type
                         _______ _______ _______ _____ _____    ______ ____

>  <TORSDO>
F 10

$$$$
=
 OpenBabel11042416563D

 35 39  0  0  1  0  0  0  0  0999 V2000
  189.9860  176.7710  143.4270 C   0  0  1  0  0  3  0  0  0  0  0  0
  193.0250  176.0710  146.0920 C   0  0  0  0  0  3  0  0  0  0  0  0
  190.3800  175.8530  142.5460 C   0  0  0  0  0  0  0  0  0  0  0  0
  191.7890  175.5440  142.8130 C   0  0  0  0  0  0  0  0  0  0  0  0
  190.7540  176.9700  145.7320 C   0  0  0  0  0  0  0  0  0  0  0  0
  193.2600  175.9070  144.7820 C   0  0  0  0  0  3  0  0  0  0  0  0
  188.5900  177.8450  145.0530 O   0  0  0  0  0  0  0  0  0  0  0  0
  189.4540  175.0330  141.7120 C   0  0  0  0  0  1  0  0  0  0  0  0
  191.6980  176.5340  146.6100 C   0  0  0  0  0  0  0  0  0  0  0  0
  189.2950  177.1870  146.0920 C   0  0  0  0  0  2  0  0  0  0  0  0
  188.5750  177.0270  143.8920 C   0  0  1  0  0  3  0  0  0  0  0  0
  191.1180  177.1990  144.2870 C   0  0  1  0  0  3  0  0  0  0  0  0
  192.1860  176.2620  143.8530 C   0  0  2  0  0  3  0  0  0  0  0  0
  191.4590  176.4150  148.0690 C   0  0  0  0  0  0  0  0  0  0  0  0
  191.1920  175.2890  148.5670 O   0  0  0  0  0  0  0  0  0  0  0  0
  191.5680  177.5410  148.9380 N   0  0  0  0  0  1  0  0  0  0  0  0
  192.5170  174.4200  142.3060 N   0  0  0  0  0  2  0  0  0  0  0  0
  193.4630  174.5390  141.2740 N   0  0  0  0  0  2  0  0  0  0  0  0
  197.7680  175.6470  143.0890 C   0  0  0  0  0  3  0  0  0  0  0  0
  195.6070  176.1670  142.2550 N   0  0  0  0  0  0  0  0  0  0  0  0
  194.6820  174.0310  141.7580 N   0  0  0  0  0  2  0  0  0  0  0  0
  195.7270  174.8880  142.2210 C   0  0  0  0  0  0  0  0  0  0  0  0
  196.8110  176.7910  142.7670 C   0  0  0  0  0  3  0  0  0  0  0  0
  197.0260  174.3760  142.7000 C   0  0  0  0  0  2  0  0  0  0  0  0
  187.7910  177.7330  142.7970 C   0  0  0  0  0  2  0  0  0  0  0  0
  186.6670  178.5510  143.4090 C   0  0  0  0  0  2  0  0  0  0  0  0
  185.5090  177.6450  143.7920 C   0  0  2  0  0  3  0  0  0  0  0  0
  184.2150  178.2930  142.1110 C   0  0  0  0  0  1  0  0  0  0  0  0
  184.8730  177.1780  142.6380 O   0  0  0  0  0  0  0  0  0  0  0  0
  184.5240  178.4410  144.6340 C   0  0  0  0  0  2  0  0  0  0  0  0
  185.9420  176.8710  147.3290 C   0  0  0  0  0  2  0  0  0  0  0  0
  185.3340  176.8750  146.0660 O   0  0  0  0  0  0  0  0  0  0  0  0
  186.2070  178.3000  147.7030 C   0  0  0  0  0  2  0  0  0  0  0  0
  185.3280  179.0360  146.7470 C   0  0  0  0  0  2  0  0  0  0  0  0
  184.5870  178.0160  146.0250 N   0  0  0  0  0  0  0  0  0  0  0  0
  1  3  1  1  0  0  0
  1 11  1  0  0  0  0
  1 12  1  0  0  0  0
  2  9  1  0  0  0  0
  3  4  2  0  0  0  0
  4 13  1  0  0  0  0
  5 10  1  0  0  0  0
  5  9  2  0  0  0  0
  6  2  2  0  0  0  0
  7 10  1  0  0  0  0
  8  3  1  0  0  0  0
  9 14  1  0  0  0  0
 11 25  1  6  0  0  0
 11  7  1  0  0  0  0
 12  5  1  1  0  0  0
 13 12  1  0  0  0  0
 13  6  1  1  0  0  0
 14 15  2  0  0  0  0
 14 16  1  0  0  0  0
 17  4  1  0  0  0  0
 18 21  1  0  0  0  0
 18 17  1  0  0  0  0
 20 23  1  0  0  0  0
 21 22  1  0  0  0  0
 22 20  2  0  0  0  0
 22 24  1  0  0  0  0
 23 19  2  0  0  0  0
 24 19  1  0  0  0  0
 25 26  1  0  0  0  0
 27 26  1  6  0  0  0
 27 30  1  0  0  0  0
 28 29  1  0  0  0  0
 29 27  1  0  0  0  0
 30 35  1  0  0  0  0
 31 33  1  0  0  0  0
 32 31  1  0  0  0  0
 34 33  1  0  0  0  0
 35 32  1  0  0  0  0
 35 34  1  0  0  0  0
M  END
>  <MODEL>
6

>  <REMARK>
 VINA RESULT:      -6.7      2.626      4.253
  Name = 
  10 active torsions:
  status: ('A' for Active; 'I' for Inactive)
    1  A    between atoms: C_1  and  C_26
    2  A    between atoms: C_5  and  C_25
    3  A    between atoms: C_5  and  C_29
    4  A    between atoms: N_6  and  C_11
    5  A    between atoms: N_6  and  N_19
    6  A    between atoms: C_9  and  C_29
    7  A    between atoms: C_9  and  N_30
    8  A    between atoms: O_16  and  C_29
    9  A    between atoms: N_18  and  N_19
   10  A    between atoms: C_25  and  C_31
                            x       y       z     vdW  Elec       q    Type
                         _______ _______ _______ _____ _____    ______ ____

>  <TORSDO>
F 10

$$$$
=
 OpenBabel11042416563D

 35 39  0  0  1  0  0  0  0  0999 V2000
  191.3510  176.3970  144.7370 C   0  0  1  0  0  3  0  0  0  0  0  0
  187.8500  175.6460  142.7350 C   0  0  0  0  0  3  0  0  0  0  0  0
  190.7800  176.5530  145.9300 C   0  0  0  0  0  0  0  0  0  0  0  0
  189.3540  176.8250  145.7190 C   0  0  0  0  0  0  0  0  0  0  0  0
  190.3080  175.4150  142.7640 C   0  0  0  0  0  0  0  0  0  0  0  0
  187.8300  176.4760  143.7880 C   0  0  0  0  0  3  0  0  0  0  0  0
  192.7240  175.4180  143.0340 O   0  0  0  0  0  0  0  0  0  0  0  0
  191.4040  176.1440  147.2220 C   0  0  0  0  0  1  0  0  0  0  0  0
  189.1150  175.0130  142.2460 C   0  0  0  0  0  0  0  0  0  0  0  0
  191.6140  174.6650  142.5720 C   0  0  0  0  0  2  0  0  0  0  0  0
  192.6110  175.6290  144.4330 C   0  0  1  0  0  3  0  0  0  0  0  0
  190.3710  176.6360  143.6470 C   0  0  1  0  0  3  0  0  0  0  0  0
  189.1120  176.8010  144.4160 C   0  0  2  0  0  3  0  0  0  0  0  0
  188.9870  173.9080  141.2640 C   0  0  0  0  0  0  0  0  0  0  0  0
  189.0200  174.1640  140.0310 O   0  0  0  0  0  0  0  0  0  0  0  0
  188.8700  172.5490  141.6800 N   0  0  0  0  0  1  0  0  0  0  0  0
  188.3270  176.7660  146.7150 N   0  0  0  0  0  2  0  0  0  0  0  0
  187.7750  177.9190  147.2970 N   0  0  0  0  0  2  0  0  0  0  0  0
  183.7950  179.0420  144.8580 C   0  0  0  0  0  3  0  0  0  0  0  0
  186.1400  179.0340  145.2250 N   0  0  0  0  0  0  0  0  0  0  0  0
  186.3760  177.7910  147.2410 N   0  0  0  0  0  2  0  0  0  0  0  0
  185.6040  178.3820  146.1940 C   0  0  0  0  0  0  0  0  0  0  0  0
  185.1330  179.5240  144.3060 C   0  0  0  0  0  3  0  0  0  0  0  0
  184.1320  178.2890  146.1370 C   0  0  0  0  0  2  0  0  0  0  0  0
  193.8220  176.4110  144.9170 C   0  0  0  0  0  2  0  0  0  0  0  0
  194.7000  175.5250  145.7820 C   0  0  0  0  0  2  0  0  0  0  0  0
  195.4160  174.4970  144.9220 C   0  0  2  0  0  3  0  0  0  0  0  0
  196.8170  173.2170  146.0720 C   0  0  0  0  0  1  0  0  0  0  0  0
  195.4990  173.2810  145.6080 O   0  0  0  0  0  0  0  0  0  0  0  0
  196.8150  175.0080  144.6130 C   0  0  0  0  0  2  0  0  0  0  0  0
  195.7000  175.3670  141.3930 C   0  0  0  0  0  2  0  0  0  0  0  0
  195.9060  174.6280  142.5670 O   0  0  0  0  0  0  0  0  0  0  0  0
  196.0830  176.7880  141.6860 C   0  0  0  0  0  2  0  0  0  0  0  0
  196.8790  176.6390  142.9390 C   0  0  0  0  0  2  0  0  0  0  0  0
  196.9760  175.2100  143.1800 N   0  0  0  0  0  0  0  0  0  0  0  0
  1  3  1  1  0  0  0
  2  6  2  0  0  0  0
  3  8  1  0  0  0  0
  4  3  2  0  0  0  0
  4 17  1  0  0  0  0
  7 11  1  0  0  0  0
  9  2  1  0  0  0  0
  9  5  2  0  0  0  0
 10  5  1  0  0  0  0
 10  7  1  0  0  0  0
 11  1  1  0  0  0  0
 11 25  1  6  0  0  0
 12  5  1  6  0  0  0
 12 13  1  0  0  0  0
 12  1  1  0  0  0  0
 13  6  1  1  0  0  0
 13  4  1  0  0  0  0
 14 16  1  0  0  0  0
 14  9  1  0  0  0  0
 15 14  2  0  0  0  0
 17 18  1  0  0  0  0
 19 24  1  0  0  0  0
 20 22  2  0  0  0  0
 21 18  1  0  0  0  0
 22 21  1  0  0  0  0
 23 19  2  0  0  0  0
 23 20  1  0  0  0  0
 24 22  1  0  0  0  0
 25 26  1  0  0  0  0
 27 30  1  1  0  0  0
 27 29  1  0  0  0  0
 27 26  1  0  0  0  0
 29 28  1  0  0  0  0
 31 33  1  0  0  0  0
 31 32  1  0  0  0  0
 32 35  1  0  0  0  0
 33 34  1  0  0  0  0
 34 35  1  0  0  0  0
 35 30  1  0  0  0  0
M  END
>  <MODEL>
7

>  <REMARK>
 VINA RESULT:      -6.6      2.862      8.038
  Name = 
  10 active torsions:
  status: ('A' for Active; 'I' for Inactive)
    1  A    between atoms: C_1  and  C_26
    2  A    between atoms: C_5  and  C_25
    3  A    between atoms: C_5  and  C_29
    4  A    between atoms: N_6  and  C_11
    5  A    between atoms: N_6  and  N_19
    6  A    between atoms: C_9  and  C_29
    7  A    between atoms: C_9  and  N_30
    8  A    between atoms: O_16  and  C_29
    9  A    between atoms: N_18  and  N_19
   10  A    between atoms: C_25  and  C_31
                            x       y       z     vdW  Elec       q    Type
                         _______ _______ _______ _____ _____    ______ ____

>  <TORSDO>
F 10

$$$$
=
 OpenBabel11042416563D

 35 39  0  0  1  0  0  0  0  0999 V2000
  188.4580  176.4030  143.5180 C   0  0  1  0  0  3  0  0  0  0  0  0
  189.5840  172.5400  142.7170 C   0  0  0  0  0  3  0  0  0  0  0  0
  189.3560  176.5960  144.4830 C   0  0  0  0  0  0  0  0  0  0  0  0
  189.8080  175.2810  144.9520 C   0  0  0  0  0  0  0  0  0  0  0  0
  188.4620  174.5810  141.8980 C   0  0  0  0  0  0  0  0  0  0  0  0
  189.6930  173.0010  143.9720 C   0  0  0  0  0  3  0  0  0  0  0  0
  187.3550  176.6900  141.4100 O   0  0  0  0  0  0  0  0  0  0  0  0
  190.0390  177.8950  144.7510 C   0  0  0  0  0  1  0  0  0  0  0  0
  189.0320  173.3800  141.6080 C   0  0  0  0  0  0  0  0  0  0  0  0
  188.1340  175.6390  140.8610 C   0  0  0  0  0  2  0  0  0  0  0  0
  188.1000  177.3630  142.4140 C   0  0  1  0  0  3  0  0  0  0  0  0
  188.1850  174.9550  143.3330 C   0  0  1  0  0  3  0  0  0  0  0  0
  189.1890  174.3480  144.2430 C   0  0  2  0  0  3  0  0  0  0  0  0
  189.2120  172.8790  140.2230 C   0  0  0  0  0  0  0  0  0  0  0  0
  188.2070  172.5200  139.5540 O   0  0  0  0  0  0  0  0  0  0  0  0
  190.4970  172.8340  139.6060 N   0  0  0  0  0  1  0  0  0  0  0  0
  190.9620  175.0240  145.7590 N   0  0  0  0  0  2  0  0  0  0  0  0
  191.8120  176.0490  146.2060 N   0  0  0  0  0  2  0  0  0  0  0  0
  196.2280  175.2360  144.5050 C   0  0  0  0  0  3  0  0  0  0  0  0
  194.0310  176.1270  144.3940 N   0  0  0  0  0  0  0  0  0  0  0  0
  193.0670  175.4710  146.4700 N   0  0  0  0  0  2  0  0  0  0  0  0
  194.1370  175.5230  145.5240 C   0  0  0  0  0  0  0  0  0  0  0  0
  195.2590  176.0270  143.6320 C   0  0  0  0  0  3  0  0  0  0  0  0
  195.4490  174.8930  145.7670 C   0  0  0  0  0  2  0  0  0  0  0  0
  187.2640  178.5040  142.9720 C   0  0  0  0  0  2  0  0  0  0  0  0
  185.9590  178.6140  142.2040 C   0  0  0  0  0  2  0  0  0  0  0  0
  184.8160  178.0540  143.0340 C   0  0  2  0  0  3  0  0  0  0  0  0
  184.0870  178.2800  140.9510 C   0  0  0  0  0  1  0  0  0  0  0  0
  183.6740  177.9200  142.2380 O   0  0  0  0  0  0  0  0  0  0  0  0
  184.5310  179.0120  144.1810 C   0  0  0  0  0  2  0  0  0  0  0  0
  185.9120  176.7810  146.3840 C   0  0  0  0  0  2  0  0  0  0  0  0
  185.2140  177.1080  145.2130 O   0  0  0  0  0  0  0  0  0  0  0  0
  186.4120  178.0650  146.9800 C   0  0  0  0  0  2  0  0  0  0  0  0
  185.5760  179.0780  146.2710 C   0  0  0  0  0  2  0  0  0  0  0  0
  184.6400  178.3210  145.4580 N   0  0  0  0  0  0  0  0  0  0  0  0
  1  3  1  6  0  0  0
  2  6  2  0  0  0  0
  3  8  1  0  0  0  0
  3  4  2  0  0  0  0
  4 17  1  0  0  0  0
  7 11  1  0  0  0  0
  9  5  2  0  0  0  0
  9  2  1  0  0  0  0
 10  7  1  0  0  0  0
 10  5  1  0  0  0  0
 11 25  1  1  0  0  0
 11  1  1  0  0  0  0
 12  5  1  6  0  0  0
 12  1  1  0  0  0  0
 12 13  1  0  0  0  0
 13  6  1  6  0  0  0
 13  4  1  0  0  0  0
 14  9  1  0  0  0  0
 15 14  2  0  0  0  0
 16 14  1  0  0  0  0
 17 18  1  0  0  0  0
 18 21  1  0  0  0  0
 19 24  1  0  0  0  0
 20 22  2  0  0  0  0
 22 24  1  0  0  0  0
 22 21  1  0  0  0  0
 23 20  1  0  0  0  0
 23 19  2  0  0  0  0
 26 25  1  0  0  0  0
 27 26  1  6  0  0  0
 27 30  1  0  0  0  0
 28 29  1  0  0  0  0
 29 27  1  0  0  0  0
 30 35  1  0  0  0  0
 31 33  1  0  0  0  0
 32 35  1  0  0  0  0
 32 31  1  0  0  0  0
 34 33  1  0  0  0  0
 35 34  1  0  0  0  0
M  END
>  <MODEL>
8

>  <REMARK>
 VINA RESULT:      -6.6      1.497      1.768
  Name = 
  10 active torsions:
  status: ('A' for Active; 'I' for Inactive)
    1  A    between atoms: C_1  and  C_26
    2  A    between atoms: C_5  and  C_25
    3  A    between atoms: C_5  and  C_29
    4  A    between atoms: N_6  and  C_11
    5  A    between atoms: N_6  and  N_19
    6  A    between atoms: C_9  and  C_29
    7  A    between atoms: C_9  and  N_30
    8  A    between atoms: O_16  and  C_29
    9  A    between atoms: N_18  and  N_19
   10  A    between atoms: C_25  and  C_31
                            x       y       z     vdW  Elec       q    Type
                         _______ _______ _______ _____ _____    ______ ____

>  <TORSDO>
F 10

$$$$
=
 OpenBabel11042416563D

 35 39  0  0  1  0  0  0  0  0999 V2000
  189.8290  174.5340  143.2220 C   0  0  1  0  0  3  0  0  0  0  0  0
  187.8890  178.1310  142.8690 C   0  0  0  0  0  3  0  0  0  0  0  0
  189.8260  174.5220  144.5540 C   0  0  0  0  0  0  0  0  0  0  0  0
  189.6020  175.8950  145.0190 C   0  0  0  0  0  0  0  0  0  0  0  0
  188.4890  175.9900  141.7970 C   0  0  0  0  0  0  0  0  0  0  0  0
  188.7010  177.9320  143.9180 C   0  0  0  0  0  3  0  0  0  0  0  0
  189.3050  173.8480  140.9860 O   0  0  0  0  0  0  0  0  0  0  0  0
  189.6920  173.2910  145.3850 C   0  0  0  0  0  1  0  0  0  0  0  0
  187.6970  177.0960  141.8060 C   0  0  0  0  0  0  0  0  0  0  0  0
  188.2110  174.7510  140.9670 C   0  0  0  0  0  2  0  0  0  0  0  0
  189.5130  173.3770  142.3090 C   0  0  1  0  0  3  0  0  0  0  0  0
  189.6910  175.9190  142.7060 C   0  0  1  0  0  3  0  0  0  0  0  0
  189.4550  176.6770  143.9600 C   0  0  2  0  0  3  0  0  0  0  0  0
  186.5800  177.3030  140.8510 C   0  0  0  0  0  0  0  0  0  0  0  0
  185.4230  177.5410  141.2870 O   0  0  0  0  0  0  0  0  0  0  0  0
  186.7900  177.2830  139.4400 N   0  0  0  0  0  1  0  0  0  0  0  0
  189.2380  176.2870  146.3480 N   0  0  0  0  0  2  0  0  0  0  0  0
  188.0020  175.9480  146.9210 N   0  0  0  0  0  2  0  0  0  0  0  0
  184.5280  179.0410  145.7290 C   0  0  0  0  0  3  0  0  0  0  0  0
  185.8010  177.0560  145.4580 N   0  0  0  0  0  0  0  0  0  0  0  0
  187.3520  177.1480  147.2620 N   0  0  0  0  0  2  0  0  0  0  0  0
  186.2680  177.6670  146.4880 C   0  0  0  0  0  0  0  0  0  0  0  0
  184.7090  177.7990  144.8620 C   0  0  0  0  0  3  0  0  0  0  0  0
  185.5970  178.9420  146.8090 C   0  0  0  0  0  2  0  0  0  0  0  0
  190.6690  172.3890  142.3090 C   0  0  0  0  0  2  0  0  0  0  0  0
  191.9610  173.1030  141.9510 C   0  0  0  0  0  2  0  0  0  0  0  0
  193.0840  172.6380  142.8630 C   0  0  2  0  0  3  0  0  0  0  0  0
  193.4340  170.9940  144.3100 C   0  0  0  0  0  1  0  0  0  0  0  0
  192.5490  172.0310  144.0030 O   0  0  0  0  0  0  0  0  0  0  0  0
  193.9150  173.8460  143.2680 C   0  0  0  0  0  2  0  0  0  0  0  0
  193.7780  175.7120  146.1380 C   0  0  0  0  0  2  0  0  0  0  0  0
  194.0240  174.5260  145.4320 O   0  0  0  0  0  0  0  0  0  0  0  0
  193.5070  176.7870  145.1270 C   0  0  0  0  0  2  0  0  0  0  0  0
  193.2220  175.9880  143.8980 C   0  0  0  0  0  2  0  0  0  0  0  0
  193.2410  174.5970  144.3170 N   0  0  0  0  0  0  0  0  0  0  0  0
  1  3  1  1  0  0  0
  2  6  2  0  0  0  0
  3  4  2  0  0  0  0
  3  8  1  0  0  0  0
  4 17  1  0  0  0  0
  5  9  2  0  0  0  0
  7 11  1  0  0  0  0
  9  2  1  0  0  0  0
 10  7  1  0  0  0  0
 10  5  1  0  0  0  0
 11 25  1  6  0  0  0
 11  1  1  0  0  0  0
 12  5  1  6  0  0  0
 12  1  1  0  0  0  0
 12 13  1  0  0  0  0
 13  6  1  6  0  0  0
 13  4  1  0  0  0  0
 14 15  2  0  0  0  0
 14  9  1  0  0  0  0
 16 14  1  0  0  0  0
 17 18  1  0  0  0  0
 18 21  1  0  0  0  0
 19 24  1  0  0  0  0
 20 22  2  0  0  0  0
 22 24  1  0  0  0  0
 22 21  1  0  0  0  0
 23 20  1  0  0  0  0
 23 19  2  0  0  0  0
 26 25  1  0  0  0  0
 27 26  1  6  0  0  0
 27 30  1  0  0  0  0
 27 29  1  0  0  0  0
 29 28  1  0  0  0  0
 30 35  1  0  0  0  0
 32 31  1  0  0  0  0
 33 31  1  0  0  0  0
 34 35  1  0  0  0  0
 34 33  1  0  0  0  0
 35 32  1  0  0  0  0
M  END
>  <MODEL>
9

>  <REMARK>
 VINA RESULT:      -6.5      2.088      7.135
  Name = 
  10 active torsions:
  status: ('A' for Active; 'I' for Inactive)
    1  A    between atoms: C_1  and  C_26
    2  A    between atoms: C_5  and  C_25
    3  A    between atoms: C_5  and  C_29
    4  A    between atoms: N_6  and  C_11
    5  A    between atoms: N_6  and  N_19
    6  A    between atoms: C_9  and  C_29
    7  A    between atoms: C_9  and  N_30
    8  A    between atoms: O_16  and  C_29
    9  A    between atoms: N_18  and  N_19
   10  A    between atoms: C_25  and  C_31
                            x       y       z     vdW  Elec       q    Type
                         _______ _______ _______ _____ _____    ______ ____

>  <TORSDO>
F 10

$$$$
