=
 OpenBabel11042416483D

 37 40  0  0  1  0  0  0  0  0999 V2000
  188.7090  176.9190  144.1500 C   0  0  0  0  0  0  0  0  0  0  0  0
  189.4840  173.7320  142.4770 C   0  0  0  0  0  0  0  0  0  0  0  0
  187.8170  175.1800  142.7250 C   0  0  0  0  0  0  0  0  0  0  0  0
  190.3860  172.8760  141.7750 N   0  0  0  0  0  0  0  0  0  0  0  0
  188.2330  173.9470  142.0770 C   0  0  0  0  0  3  0  0  0  0  0  0
  186.5890  175.8290  142.6250 C   0  0  0  0  0  3  0  0  0  0  0  0
  191.2830  175.3470  142.8540 C   0  0  0  0  0  3  0  0  0  0  0  0
  191.6250  173.2490  141.6130 C   0  0  0  0  0  0  0  0  0  0  0  0
  187.4740  177.5820  144.0730 C   0  0  0  0  0  3  0  0  0  0  0  0
  186.4190  177.0460  143.3080 C   0  0  0  0  0  0  0  0  0  0  0  0
  188.8610  175.7170  143.4470 C   0  0  0  0  0  0  0  0  0  0  0  0
  192.5200  172.4010  140.8990 N   0  0  0  0  0  1  0  0  0  0  0  0
  192.0720  174.6020  142.0630 C   0  0  0  0  0  0  0  0  0  0  0  0
  190.0120  174.7740  143.4200 C   0  0  1  0  0  3  0  0  0  0  0  0
  193.3750  175.1630  141.6040 C   0  0  0  0  0  2  0  0  0  0  0  0
  193.8370  176.2510  142.5550 C   0  0  0  0  0  1  0  0  0  0  0  0
  184.8740  177.9130  143.2240 S   0  0  2  0  0  0  0  0  0  0  0  0
  184.9370  178.7150  141.9310 O   0  0  0  0  0  0  0  0  0  0  0  0
  185.4840  180.2020  144.3350 O   0  0  0  0  0  0  0  0  0  0  0  0
  184.9360  179.1280  144.5230 C   0  0  0  0  0  0  0  0  0  0  0  0
  184.2820  178.8460  145.8350 C   0  0  0  0  0  2  0  0  0  0  0  0
  185.3070  178.4910  146.8570 C   0  0  0  0  0  0  0  0  0  0  0  0
  185.6080  177.2850  147.0540 O   0  0  0  0  0  0  0  0  0  0  0  0
  185.9110  179.4890  147.6110 O   0  0  0  0  0  1  0  0  0  0  0  0
  189.8020  177.4680  145.0030 C   0  0  0  0  0  2  0  0  0  0  0  0
  189.4240  177.3480  146.4660 C   0  0  0  0  0  2  0  0  0  0  0  0
  189.9200  176.0170  147.0120 C   0  0  0  0  0  2  0  0  0  0  0  0
  191.1540  176.1930  147.8880 C   0  0  2  0  0  3  0  0  0  0  0  0
  191.1620  177.4640  148.4680 O   0  0  0  0  0  1  0  0  0  0  0  0
  192.3640  175.9910  147.1070 N   0  0  0  0  0  2  0  0  0  0  0  0
  192.2060  174.7410  146.3830 C   0  0  0  0  0  2  0  0  0  0  0  0
  194.7870  172.8780  144.2490 C   0  0  0  0  0  3  0  0  0  0  0  0
  195.8860  174.7670  145.4230 C   0  0  0  0  0  2  0  0  0  0  0  0
  194.5600  175.0790  145.9710 N   0  0  0  0  0  0  0  0  0  0  0  0
  193.5080  174.3400  145.7840 C   0  0  0  0  0  0  0  0  0  0  0  0
  193.5740  173.1930  144.9330 N   0  0  0  0  0  2  0  0  0  0  0  0
  195.8770  173.6170  144.4490 C   0  0  0  0  0  3  0  0  0  0  0  0
  1 25  1  0  0  0  0
  2 14  1  0  0  0  0
  3 11  1  0  0  0  0
  4  2  1  0  0  0  0
  5  2  2  0  0  0  0
  5  3  1  0  0  0  0
  6  3  2  0  0  0  0
  6 10  1  0  0  0  0
  8  4  2  0  0  0  0
  8 13  1  0  0  0  0
  9  1  1  0  0  0  0
 10  9  2  0  0  0  0
 11  1  2  0  0  0  0
 12  8  1  0  0  0  0
 13  7  2  0  0  0  0
 14  7  1  6  0  0  0
 14 11  1  0  0  0  0
 15 13  1  0  0  0  0
 15 16  1  0  0  0  0
 17 18  2  6  0  0  0
 17 10  1  0  0  0  0
 17 20  1  0  0  0  0
 19 20  2  0  0  0  0
 20 21  1  0  0  0  0
 21 22  1  0  0  0  0
 22 23  2  0  0  0  0
 22 24  1  0  0  0  0
 25 26  1  0  0  0  0
 26 27  1  0  0  0  0
 27 28  1  0  0  0  0
 28 29  1  6  0  0  0
 30 28  1  0  0  0  0
 31 30  1  0  0  0  0
 32 37  2  0  0  0  0
 32 36  1  0  0  0  0
 33 34  1  0  0  0  0
 35 34  2  0  0  0  0
 35 31  1  0  0  0  0
 36 35  1  0  0  0  0
 37 33  1  0  0  0  0
M  END
>  <MODEL>
1

>  <REMARK>
 VINA RESULT:      -6.9      0.000      0.000
  Name = 
  12 active torsions:
  status: ('A' for Active; 'I' for Inactive)
    1  A    between atoms: C_1  and  C_13
    2  A    between atoms: C_3  and  C_34
    3  A    between atoms: C_9  and  C_13
    4  A    between atoms: C_9  and  C_16
    5  A    between atoms: C_12  and  C_16
    6  A    between atoms: C_12  and  N_33
    7  A    between atoms: C_18  and  C_31
    8  A    between atoms: S_19  and  C_21
    9  A    between atoms: S_19  and  C_28
   10  A    between atoms: C_21  and  C_34
   11  A    between atoms: C_23  and  C_24
   12  A    between atoms: C_24  and  N_33
                            x       y       z     vdW  Elec       q    Type
                         _______ _______ _______ _____ _____    ______ ____

>  <TORSDO>
F 12

$$$$
=
 OpenBabel11042416483D

 37 40  0  0  1  0  0  0  0  0999 V2000
  189.6700  176.5010  143.7410 C   0  0  0  0  0  0  0  0  0  0  0  0
  186.1660  177.6030  143.4950 C   0  0  0  0  0  0  0  0  0  0  0  0
  187.5790  176.1570  142.5740 C   0  0  0  0  0  0  0  0  0  0  0  0
  184.9490  178.0480  144.0980 N   0  0  0  0  0  0  0  0  0  0  0  0
  186.2070  176.6370  142.5810 C   0  0  0  0  0  3  0  0  0  0  0  0
  188.1320  175.1480  141.7880 C   0  0  0  0  0  3  0  0  0  0  0  0
  187.3050  177.7330  145.6560 C   0  0  0  0  0  3  0  0  0  0  0  0
  184.9230  178.2870  145.3790 C   0  0  0  0  0  0  0  0  0  0  0  0
  190.2480  175.4950  142.9500 C   0  0  0  0  0  3  0  0  0  0  0  0
  189.4830  174.8150  141.9830 C   0  0  0  0  0  0  0  0  0  0  0  0
  188.3170  176.8030  143.5420 C   0  0  0  0  0  0  0  0  0  0  0  0
  183.7050  178.7170  145.9820 N   0  0  0  0  0  1  0  0  0  0  0  0
  186.1200  178.0010  146.2270 C   0  0  0  0  0  0  0  0  0  0  0  0
  187.4820  177.8650  144.1670 C   0  0  1  0  0  3  0  0  0  0  0  0
  186.0060  177.9620  147.7140 C   0  0  0  0  0  2  0  0  0  0  0  0
  186.7550  179.1310  148.3240 C   0  0  0  0  0  1  0  0  0  0  0  0
  190.2420  173.5430  141.0060 S   0  0  2  0  0  0  0  0  0  0  0  0
  189.4060  173.4630  139.7360 O   0  0  0  0  0  0  0  0  0  0  0  0
  190.3380  170.9630  141.4260 O   0  0  0  0  0  0  0  0  0  0  0  0
  189.9180  172.0200  141.8680 C   0  0  0  0  0  0  0  0  0  0  0  0
  189.1610  172.0410  143.1550 C   0  0  0  0  0  2  0  0  0  0  0  0
  190.1000  172.1910  144.3030 C   0  0  0  0  0  0  0  0  0  0  0  0
  191.1880  171.5590  144.3120 O   0  0  0  0  0  0  0  0  0  0  0  0
  189.7620  173.0070  145.3750 O   0  0  0  0  0  1  0  0  0  0  0  0
  190.5010  177.2500  144.7270 C   0  0  0  0  0  2  0  0  0  0  0  0
  191.8140  177.6590  144.0890 C   0  0  0  0  0  2  0  0  0  0  0  0
  192.9260  176.7480  144.5840 C   0  0  0  0  0  2  0  0  0  0  0  0
  192.7160  176.3410  146.0370 C   0  0  2  0  0  3  0  0  0  0  0  0
  193.7080  176.8990  146.8470 O   0  0  0  0  0  1  0  0  0  0  0  0
  192.7230  174.8920  146.1640 N   0  0  0  0  0  2  0  0  0  0  0  0
  193.2950  174.3550  144.9410 C   0  0  0  0  0  2  0  0  0  0  0  0
  196.8760  173.5370  146.0320 C   0  0  0  0  0  3  0  0  0  0  0  0
  195.6320  171.4310  145.6180 C   0  0  0  0  0  2  0  0  0  0  0  0
  194.4740  172.2820  145.3120 N   0  0  0  0  0  0  0  0  0  0  0  0
  194.5240  173.5800  145.2600 C   0  0  0  0  0  0  0  0  0  0  0  0
  195.7310  174.2690  145.5960 N   0  0  0  0  0  2  0  0  0  0  0  0
  196.8430  172.2060  146.0700 C   0  0  0  0  0  3  0  0  0  0  0  0
  1 25  1  0  0  0  0
  2  4  1  0  0  0  0
  2 14  1  0  0  0  0
  3  5  1  0  0  0  0
  3 11  2  0  0  0  0
  4  8  2  0  0  0  0
  5  2  2  0  0  0  0
  6 10  2  0  0  0  0
  6  3  1  0  0  0  0
  7 13  2  0  0  0  0
  8 12  1  0  0  0  0
  8 13  1  0  0  0  0
  9  1  2  0  0  0  0
 10  9  1  0  0  0  0
 11  1  1  0  0  0  0
 11 14  1  0  0  0  0
 13 15  1  0  0  0  0
 14  7  1  1  0  0  0
 15 16  1  0  0  0  0
 17 18  2  6  0  0  0
 17 20  1  0  0  0  0
 17 10  1  0  0  0  0
 19 20  2  0  0  0  0
 20 21  1  0  0  0  0
 21 22  1  0  0  0  0
 22 23  2  0  0  0  0
 22 24  1  0  0  0  0
 26 27  1  0  0  0  0
 26 25  1  0  0  0  0
 27 28  1  0  0  0  0
 28 30  1  0  0  0  0
 28 29  1  1  0  0  0
 31 35  1  0  0  0  0
 31 30  1  0  0  0  0
 32 37  2  0  0  0  0
 33 37  1  0  0  0  0
 34 33  1  0  0  0  0
 35 34  2  0  0  0  0
 35 36  1  0  0  0  0
 36 32  1  0  0  0  0
M  END
>  <MODEL>
2

>  <REMARK>
 VINA RESULT:      -6.7      3.675      6.020
  Name = 
  12 active torsions:
  status: ('A' for Active; 'I' for Inactive)
    1  A    between atoms: C_1  and  C_13
    2  A    between atoms: C_3  and  C_34
    3  A    between atoms: C_9  and  C_13
    4  A    between atoms: C_9  and  C_16
    5  A    between atoms: C_12  and  C_16
    6  A    between atoms: C_12  and  N_33
    7  A    between atoms: C_18  and  C_31
    8  A    between atoms: S_19  and  C_21
    9  A    between atoms: S_19  and  C_28
   10  A    between atoms: C_21  and  C_34
   11  A    between atoms: C_23  and  C_24
   12  A    between atoms: C_24  and  N_33
                            x       y       z     vdW  Elec       q    Type
                         _______ _______ _______ _____ _____    ______ ____

>  <TORSDO>
F 12

$$$$
=
 OpenBabel11042416483D

 37 40  0  0  1  0  0  0  0  0999 V2000
  189.4550  174.9950  145.7690 C   0  0  0  0  0  0  0  0  0  0  0  0
  187.9620  177.5360  143.5630 C   0  0  0  0  0  0  0  0  0  0  0  0
  188.9160  175.5310  143.4740 C   0  0  0  0  0  0  0  0  0  0  0  0
  186.9780  178.5350  143.2940 N   0  0  0  0  0  0  0  0  0  0  0  0
  188.2760  176.5780  142.6940 C   0  0  0  0  0  3  0  0  0  0  0  0
  189.4250  174.3150  143.0220 C   0  0  0  0  0  3  0  0  0  0  0  0
  187.1490  177.3290  145.8620 C   0  0  0  0  0  3  0  0  0  0  0  0
  186.1400  178.8750  144.2330 C   0  0  0  0  0  0  0  0  0  0  0  0
  189.9850  173.7700  145.3330 C   0  0  0  0  0  3  0  0  0  0  0  0
  189.9640  173.4260  143.9670 C   0  0  0  0  0  0  0  0  0  0  0  0
  188.9070  175.8570  144.8120 C   0  0  0  0  0  0  0  0  0  0  0  0
  185.1480  179.8600  143.9580 N   0  0  0  0  0  1  0  0  0  0  0  0
  186.1400  178.1550  145.5430 C   0  0  0  0  0  0  0  0  0  0  0  0
  188.3640  177.2330  144.9780 C   0  0  1  0  0  3  0  0  0  0  0  0
  184.9990  178.3050  146.4920 C   0  0  0  0  0  2  0  0  0  0  0  0
  185.5000  178.2370  147.9220 C   0  0  0  0  0  1  0  0  0  0  0  0
  190.6340  171.8660  143.4500 S   0  0  2  0  0  0  0  0  0  0  0  0
  191.8260  171.6210  144.3650 O   0  0  0  0  0  0  0  0  0  0  0  0
  192.3590  172.8180  141.7290 O   0  0  0  0  0  0  0  0  0  0  0  0
  191.3390  172.1580  141.8420 C   0  0  0  0  0  0  0  0  0  0  0  0
  190.7010  171.5610  140.6320 C   0  0  0  0  0  2  0  0  0  0  0  0
  189.8620  172.5780  139.9370 C   0  0  0  0  0  0  0  0  0  0  0  0
  190.3980  173.4170  139.1680 O   0  0  0  0  0  0  0  0  0  0  0  0
  188.4910  172.6170  140.1580 O   0  0  0  0  0  1  0  0  0  0  0  0
  189.5280  175.3710  147.2100 C   0  0  0  0  0  2  0  0  0  0  0  0
  190.9640  175.3020  147.6900 C   0  0  0  0  0  2  0  0  0  0  0  0
  191.7390  176.4920  147.1470 C   0  0  0  0  0  2  0  0  0  0  0  0
  193.0390  176.0610  146.4790 C   0  0  2  0  0  3  0  0  0  0  0  0
  194.0980  176.8640  146.9120 O   0  0  0  0  0  1  0  0  0  0  0  0
  192.9140  176.1350  145.0310 N   0  0  0  0  0  2  0  0  0  0  0  0
  193.4360  174.8910  144.4900 C   0  0  0  0  0  2  0  0  0  0  0  0
  196.8130  174.2300  142.8040 C   0  0  0  0  0  3  0  0  0  0  0  0
  196.5330  176.6660  143.1780 C   0  0  0  0  0  2  0  0  0  0  0  0
  195.2160  176.3370  143.7370 N   0  0  0  0  0  0  0  0  0  0  0  0
  194.7880  175.1230  143.9150 C   0  0  0  0  0  0  0  0  0  0  0  0
  195.5730  174.0110  143.4780 N   0  0  0  0  0  2  0  0  0  0  0  0
  197.2700  175.4690  142.6340 C   0  0  0  0  0  3  0  0  0  0  0  0
  1 25  1  0  0  0  0
  2 14  1  0  0  0  0
  3 11  1  0  0  0  0
  4  2  1  0  0  0  0
  4  8  2  0  0  0  0
  5  3  1  0  0  0  0
  5  2  2  0  0  0  0
  6  3  2  0  0  0  0
  6 10  1  0  0  0  0
  8 13  1  0  0  0  0
  9  1  1  0  0  0  0
 10  9  2  0  0  0  0
 11 14  1  0  0  0  0
 11  1  2  0  0  0  0
 12  8  1  0  0  0  0
 13  7  2  0  0  0  0
 13 15  1  0  0  0  0
 14  7  1  1  0  0  0
 15 16  1  0  0  0  0
 17 10  1  0  0  0  0
 17 18  2  1  0  0  0
 19 20  2  0  0  0  0
 20 17  1  0  0  0  0
 21 20  1  0  0  0  0
 22 24  1  0  0  0  0
 22 21  1  0  0  0  0
 23 22  2  0  0  0  0
 25 26  1  0  0  0  0
 27 26  1  0  0  0  0
 28 29  1  1  0  0  0
 28 27  1  0  0  0  0
 30 28  1  0  0  0  0
 31 30  1  0  0  0  0
 32 36  1  0  0  0  0
 33 34  1  0  0  0  0
 34 35  2  0  0  0  0
 35 31  1  0  0  0  0
 36 35  1  0  0  0  0
 37 32  2  0  0  0  0
 37 33  1  0  0  0  0
M  END
>  <MODEL>
3

>  <REMARK>
 VINA RESULT:      -6.6      3.778      6.457
  Name = 
  12 active torsions:
  status: ('A' for Active; 'I' for Inactive)
    1  A    between atoms: C_1  and  C_13
    2  A    between atoms: C_3  and  C_34
    3  A    between atoms: C_9  and  C_13
    4  A    between atoms: C_9  and  C_16
    5  A    between atoms: C_12  and  C_16
    6  A    between atoms: C_12  and  N_33
    7  A    between atoms: C_18  and  C_31
    8  A    between atoms: S_19  and  C_21
    9  A    between atoms: S_19  and  C_28
   10  A    between atoms: C_21  and  C_34
   11  A    between atoms: C_23  and  C_24
   12  A    between atoms: C_24  and  N_33
                            x       y       z     vdW  Elec       q    Type
                         _______ _______ _______ _____ _____    ______ ____

>  <TORSDO>
F 12

$$$$
=
 OpenBabel11042416483D

 37 40  0  0  1  0  0  0  0  0999 V2000
  189.3370  174.7940  144.7690 C   0  0  0  0  0  0  0  0  0  0  0  0
  187.7290  177.7090  143.1960 C   0  0  0  0  0  0  0  0  0  0  0  0
  188.7580  175.8150  142.6540 C   0  0  0  0  0  0  0  0  0  0  0  0
  186.7050  178.7030  143.1600 N   0  0  0  0  0  0  0  0  0  0  0  0
  188.0720  176.9860  142.1320 C   0  0  0  0  0  3  0  0  0  0  0  0
  189.3090  174.7550  141.9390 C   0  0  0  0  0  3  0  0  0  0  0  0
  186.9450  176.9550  145.3870 C   0  0  0  0  0  3  0  0  0  0  0  0
  185.8620  178.7880  144.1510 C   0  0  0  0  0  0  0  0  0  0  0  0
  189.9100  173.7220  144.0660 C   0  0  0  0  0  3  0  0  0  0  0  0
  189.8900  173.6960  142.6580 C   0  0  0  0  0  0  0  0  0  0  0  0
  188.7480  175.8290  144.0320 C   0  0  0  0  0  0  0  0  0  0  0  0
  184.8320  179.7710  144.1070 N   0  0  0  0  0  1  0  0  0  0  0  0
  185.9010  177.7910  145.2640 C   0  0  0  0  0  0  0  0  0  0  0  0
  188.1540  177.1090  144.5050 C   0  0  1  0  0  3  0  0  0  0  0  0
  184.7640  177.6770  146.2220 C   0  0  0  0  0  2  0  0  0  0  0  0
  185.0980  178.3960  147.5140 C   0  0  0  0  0  1  0  0  0  0  0  0
  190.6150  172.3220  141.8010 S   0  0  2  0  0  0  0  0  0  0  0  0
  190.8970  171.2830  142.8780 O   0  0  0  0  0  0  0  0  0  0  0  0
  192.6670  172.5240  140.1910 O   0  0  0  0  0  0  0  0  0  0  0  0
  192.2180  172.8810  141.2680 C   0  0  0  0  0  0  0  0  0  0  0  0
  193.0000  173.8200  142.1260 C   0  0  0  0  0  2  0  0  0  0  0  0
  194.1670  173.1170  142.7290 C   0  0  0  0  0  0  0  0  0  0  0  0
  195.2590  173.0620  142.1060 O   0  0  0  0  0  0  0  0  0  0  0  0
  194.0430  172.5000  143.9670 O   0  0  0  0  0  1  0  0  0  0  0  0
  189.4080  174.8370  146.2570 C   0  0  0  0  0  2  0  0  0  0  0  0
  190.8480  175.0000  146.7010 C   0  0  0  0  0  2  0  0  0  0  0  0
  191.2780  176.4460  146.5110 C   0  0  0  0  0  2  0  0  0  0  0  0
  192.5070  176.5560  145.6170 C   0  0  2  0  0  3  0  0  0  0  0  0
  192.1260  176.8120  144.2970 O   0  0  0  0  0  1  0  0  0  0  0  0
  193.2930  175.3340  145.6820 N   0  0  0  0  0  2  0  0  0  0  0  0
  194.5910  175.6860  146.2310 C   0  0  0  0  0  2  0  0  0  0  0  0
  196.8330  176.2420  143.1730 C   0  0  0  0  0  3  0  0  0  0  0  0
  197.5950  174.2300  144.4080 C   0  0  0  0  0  2  0  0  0  0  0  0
  196.5200  174.5220  145.3650 N   0  0  0  0  0  0  0  0  0  0  0  0
  195.6460  175.4700  145.2040 C   0  0  0  0  0  0  0  0  0  0  0  0
  195.7460  176.3610  144.0910 N   0  0  0  0  0  2  0  0  0  0  0  0
  197.7230  175.2620  143.3170 C   0  0  0  0  0  3  0  0  0  0  0  0
  1 25  1  0  0  0  0
  2 14  1  0  0  0  0
  3 11  1  0  0  0  0
  4  2  1  0  0  0  0
  4  8  2  0  0  0  0
  5  3  1  0  0  0  0
  5  2  2  0  0  0  0
  6  3  2  0  0  0  0
  6 10  1  0  0  0  0
  8 13  1  0  0  0  0
  9  1  1  0  0  0  0
 10  9  2  0  0  0  0
 11 14  1  0  0  0  0
 11  1  2  0  0  0  0
 12  8  1  0  0  0  0
 13  7  2  0  0  0  0
 13 15  1  0  0  0  0
 14  7  1  1  0  0  0
 15 16  1  0  0  0  0
 17 10  1  0  0  0  0
 17 18  2  1  0  0  0
 19 20  2  0  0  0  0
 20 17  1  0  0  0  0
 20 21  1  0  0  0  0
 21 22  1  0  0  0  0
 22 24  1  0  0  0  0
 23 22  2  0  0  0  0
 25 26  1  0  0  0  0
 27 26  1  0  0  0  0
 28 29  1  6  0  0  0
 28 30  1  0  0  0  0
 28 27  1  0  0  0  0
 30 31  1  0  0  0  0
 32 37  2  0  0  0  0
 32 36  1  0  0  0  0
 33 34  1  0  0  0  0
 35 34  2  0  0  0  0
 35 31  1  0  0  0  0
 36 35  1  0  0  0  0
 37 33  1  0  0  0  0
M  END
>  <MODEL>
4

>  <REMARK>
 VINA RESULT:      -6.6      3.957      6.651
  Name = 
  12 active torsions:
  status: ('A' for Active; 'I' for Inactive)
    1  A    between atoms: C_1  and  C_13
    2  A    between atoms: C_3  and  C_34
    3  A    between atoms: C_9  and  C_13
    4  A    between atoms: C_9  and  C_16
    5  A    between atoms: C_12  and  C_16
    6  A    between atoms: C_12  and  N_33
    7  A    between atoms: C_18  and  C_31
    8  A    between atoms: S_19  and  C_21
    9  A    between atoms: S_19  and  C_28
   10  A    between atoms: C_21  and  C_34
   11  A    between atoms: C_23  and  C_24
   12  A    between atoms: C_24  and  N_33
                            x       y       z     vdW  Elec       q    Type
                         _______ _______ _______ _____ _____    ______ ____

>  <TORSDO>
F 12

$$$$
=
 OpenBabel11042416483D

 37 40  0  0  1  0  0  0  0  0999 V2000
  189.2300  177.4700  144.6150 C   0  0  0  0  0  0  0  0  0  0  0  0
  192.1260  176.1730  146.4820 C   0  0  0  0  0  0  0  0  0  0  0  0
  189.9370  176.4840  146.7070 C   0  0  0  0  0  0  0  0  0  0  0  0
  193.3630  175.4620  146.5340 N   0  0  0  0  0  0  0  0  0  0  0  0
  191.1350  175.9630  147.3450 C   0  0  0  0  0  3  0  0  0  0  0  0
  188.6370  176.5000  147.2070 C   0  0  0  0  0  3  0  0  0  0  0  0
  192.1100  176.0010  144.0420 C   0  0  0  0  0  3  0  0  0  0  0  0
  193.9040  175.0400  145.4260 C   0  0  0  0  0  0  0  0  0  0  0  0
  187.9150  177.5060  145.1050 C   0  0  0  0  0  3  0  0  0  0  0  0
  187.6160  177.0170  146.3910 C   0  0  0  0  0  0  0  0  0  0  0  0
  190.2280  176.9330  145.4380 C   0  0  0  0  0  0  0  0  0  0  0  0
  195.1310  174.3170  145.4800 N   0  0  0  0  0  1  0  0  0  0  0  0
  193.1890  175.2060  144.1240 C   0  0  0  0  0  0  0  0  0  0  0  0
  191.6970  176.8510  145.2130 C   0  0  1  0  0  3  0  0  0  0  0  0
  193.6300  174.4560  142.9130 C   0  0  0  0  0  2  0  0  0  0  0  0
  193.2130  175.2020  141.6590 C   0  0  0  0  0  1  0  0  0  0  0  0
  185.9420  177.0690  146.9770 S   0  0  2  0  0  0  0  0  0  0  0  0
  185.1440  176.2370  145.9810 O   0  0  0  0  0  0  0  0  0  0  0  0
  185.9540  179.6650  147.2930 O   0  0  0  0  0  0  0  0  0  0  0  0
  185.3970  178.7430  146.7200 C   0  0  0  0  0  0  0  0  0  0  0  0
  184.2770  179.0230  145.7730 C   0  0  0  0  0  2  0  0  0  0  0  0
  184.8040  179.2050  144.3910 C   0  0  0  0  0  0  0  0  0  0  0  0
  185.4750  180.2290  144.1030 O   0  0  0  0  0  1  0  0  0  0  0  0
  184.5330  178.2560  143.4130 O   0  0  0  0  0  0  0  0  0  0  0  0
  189.5450  178.0360  143.2720 C   0  0  0  0  0  2  0  0  0  0  0  0
  188.6480  177.4070  142.2240 C   0  0  0  0  0  2  0  0  0  0  0  0
  188.9970  175.9350  142.0720 C   0  0  0  0  0  2  0  0  0  0  0  0
  187.7580  175.0840  141.8270 C   0  0  2  0  0  3  0  0  0  0  0  0
  186.6850  175.5580  142.5860 O   0  0  0  0  0  1  0  0  0  0  0  0
  188.0250  173.6920  142.1530 N   0  0  0  0  0  2  0  0  0  0  0  0
  188.3960  173.0240  140.9170 C   0  0  0  0  0  2  0  0  0  0  0  0
  192.0320  171.9190  140.4170 C   0  0  0  0  0  3  0  0  0  0  0  0
  191.0940  170.8080  142.4270 C   0  0  0  0  0  2  0  0  0  0  0  0
  189.8620  171.5580  142.1550 N   0  0  0  0  0  0  0  0  0  0  0  0
  189.6840  172.3020  141.1040 C   0  0  0  0  0  0  0  0  0  0  0  0
  190.7510  172.5020  140.1740 N   0  0  0  0  0  2  0  0  0  0  0  0
  192.2190  171.1390  141.4800 C   0  0  0  0  0  3  0  0  0  0  0  0
  1  9  2  0  0  0  0
  1 11  1  0  0  0  0
  2  4  1  0  0  0  0
  2  5  2  0  0  0  0
  3  6  1  0  0  0  0
  3  5  1  0  0  0  0
  7 13  2  0  0  0  0
  8 12  1  0  0  0  0
  8  4  2  0  0  0  0
  9 10  1  0  0  0  0
 10 17  1  0  0  0  0
 10  6  2  0  0  0  0
 11  3  2  0  0  0  0
 13  8  1  0  0  0  0
 14  7  1  6  0  0  0
 14 11  1  0  0  0  0
 14  2  1  0  0  0  0
 15 13  1  0  0  0  0
 16 15  1  0  0  0  0
 17 18  2  6  0  0  0
 20 17  1  0  0  0  0
 20 19  2  0  0  0  0
 21 20  1  0  0  0  0
 22 21  1  0  0  0  0
 23 22  1  0  0  0  0
 24 22  2  0  0  0  0
 25  1  1  0  0  0  0
 26 25  1  0  0  0  0
 27 26  1  0  0  0  0
 28 27  1  0  0  0  0
 28 30  1  0  0  0  0
 28 29  1  1  0  0  0
 31 35  1  0  0  0  0
 31 30  1  0  0  0  0
 32 37  2  0  0  0  0
 34 33  1  0  0  0  0
 35 34  2  0  0  0  0
 36 32  1  0  0  0  0
 36 35  1  0  0  0  0
 37 33  1  0  0  0  0
M  END
>  <MODEL>
5

>  <REMARK>
 VINA RESULT:      -6.6      1.813      4.715
  Name = 
  12 active torsions:
  status: ('A' for Active; 'I' for Inactive)
    1  A    between atoms: C_1  and  C_13
    2  A    between atoms: C_3  and  C_34
    3  A    between atoms: C_9  and  C_13
    4  A    between atoms: C_9  and  C_16
    5  A    between atoms: C_12  and  C_16
    6  A    between atoms: C_12  and  N_33
    7  A    between atoms: C_18  and  C_31
    8  A    between atoms: S_19  and  C_21
    9  A    between atoms: S_19  and  C_28
   10  A    between atoms: C_21  and  C_34
   11  A    between atoms: C_23  and  C_24
   12  A    between atoms: C_24  and  N_33
                            x       y       z     vdW  Elec       q    Type
                         _______ _______ _______ _____ _____    ______ ____

>  <TORSDO>
F 12

$$$$
=
 OpenBabel11042416483D

 37 40  0  0  1  0  0  0  0  0999 V2000
  189.2490  174.9410  145.6300 C   0  0  0  0  0  0  0  0  0  0  0  0
  187.8070  177.5780  143.5050 C   0  0  0  0  0  0  0  0  0  0  0  0
  188.8250  175.6100  143.3450 C   0  0  0  0  0  0  0  0  0  0  0  0
  186.8080  178.5660  143.2420 N   0  0  0  0  0  0  0  0  0  0  0  0
  188.1990  176.6880  142.5970 C   0  0  0  0  0  3  0  0  0  0  0  0
  189.3960  174.4410  142.8490 C   0  0  0  0  0  3  0  0  0  0  0  0
  186.8700  177.2010  145.7340 C   0  0  0  0  0  3  0  0  0  0  0  0
  185.9080  178.8210  144.1490 C   0  0  0  0  0  0  0  0  0  0  0  0
  189.8400  173.7620  145.1490 C   0  0  0  0  0  3  0  0  0  0  0  0
  189.9080  173.5070  143.7660 C   0  0  0  0  0  0  0  0  0  0  0  0
  188.7290  175.8490  144.6990 C   0  0  0  0  0  0  0  0  0  0  0  0
  184.9040  179.7950  143.8800 N   0  0  0  0  0  1  0  0  0  0  0  0
  185.8560  178.0180  145.4090 C   0  0  0  0  0  0  0  0  0  0  0  0
  188.1360  177.1960  144.9190 C   0  0  1  0  0  3  0  0  0  0  0  0
  184.6580  178.0750  146.2970 C   0  0  0  0  0  2  0  0  0  0  0  0
  185.0530  178.5830  147.6700 C   0  0  0  0  0  1  0  0  0  0  0  0
  190.6540  172.0030  143.1920 S   0  0  2  0  0  0  0  0  0  0  0  0
  191.5870  171.5660  144.3130 O   0  0  0  0  0  0  0  0  0  0  0  0
  192.4620  173.4500  141.9760 O   0  0  0  0  0  0  0  0  0  0  0  0
  191.7300  172.4810  141.8570 C   0  0  0  0  0  0  0  0  0  0  0  0
  191.7630  171.6720  140.6030 C   0  0  0  0  0  2  0  0  0  0  0  0
  190.5760  171.9820  139.7580 C   0  0  0  0  0  0  0  0  0  0  0  0
  190.1580  173.1650  139.6690 O   0  0  0  0  0  1  0  0  0  0  0  0
  189.9130  170.9600  139.0900 O   0  0  0  0  0  0  0  0  0  0  0  0
  189.2270  175.2250  147.0940 C   0  0  0  0  0  2  0  0  0  0  0  0
  190.6450  175.3060  147.6240 C   0  0  0  0  0  2  0  0  0  0  0  0
  191.2710  176.6270  147.2040 C   0  0  0  0  0  2  0  0  0  0  0  0
  192.5000  176.4140  146.3290 C   0  0  2  0  0  3  0  0  0  0  0  0
  192.1680  176.5630  144.9790 O   0  0  0  0  0  1  0  0  0  0  0  0
  193.0670  175.0940  146.5620 N   0  0  0  0  0  2  0  0  0  0  0  0
  193.5780  174.6150  145.2880 C   0  0  0  0  0  2  0  0  0  0  0  0
  195.7690  171.4710  145.3560 C   0  0  0  0  0  3  0  0  0  0  0  0
  197.0890  173.4220  146.1340 C   0  0  0  0  0  2  0  0  0  0  0  0
  195.8850  174.2230  145.8800 N   0  0  0  0  0  0  0  0  0  0  0  0
  194.7420  173.7190  145.5210 C   0  0  0  0  0  0  0  0  0  0  0  0
  194.6220  172.3180  145.2630 N   0  0  0  0  0  2  0  0  0  0  0  0
  196.9400  171.9740  145.7420 C   0  0  0  0  0  3  0  0  0  0  0  0
  1 25  1  0  0  0  0
  2 14  1  0  0  0  0
  3 11  1  0  0  0  0
  4  2  1  0  0  0  0
  4  8  2  0  0  0  0
  5  3  1  0  0  0  0
  5  2  2  0  0  0  0
  6  3  2  0  0  0  0
  6 10  1  0  0  0  0
  8 13  1  0  0  0  0
  9  1  1  0  0  0  0
 10  9  2  0  0  0  0
 11 14  1  0  0  0  0
 11  1  2  0  0  0  0
 12  8  1  0  0  0  0
 13  7  2  0  0  0  0
 13 15  1  0  0  0  0
 14  7  1  1  0  0  0
 15 16  1  0  0  0  0
 17 10  1  0  0  0  0
 17 18  2  1  0  0  0
 20 19  2  0  0  0  0
 20 17  1  0  0  0  0
 21 20  1  0  0  0  0
 22 21  1  0  0  0  0
 23 22  1  0  0  0  0
 24 22  2  0  0  0  0
 25 26  1  0  0  0  0
 27 26  1  0  0  0  0
 28 29  1  6  0  0  0
 28 30  1  0  0  0  0
 28 27  1  0  0  0  0
 31 35  1  0  0  0  0
 31 30  1  0  0  0  0
 32 37  2  0  0  0  0
 34 33  1  0  0  0  0
 35 34  2  0  0  0  0
 36 32  1  0  0  0  0
 36 35  1  0  0  0  0
 37 33  1  0  0  0  0
M  END
>  <MODEL>
6

>  <REMARK>
 VINA RESULT:      -6.6      3.821      6.552
  Name = 
  12 active torsions:
  status: ('A' for Active; 'I' for Inactive)
    1  A    between atoms: C_1  and  C_13
    2  A    between atoms: C_3  and  C_34
    3  A    between atoms: C_9  and  C_13
    4  A    between atoms: C_9  and  C_16
    5  A    between atoms: C_12  and  C_16
    6  A    between atoms: C_12  and  N_33
    7  A    between atoms: C_18  and  C_31
    8  A    between atoms: S_19  and  C_21
    9  A    between atoms: S_19  and  C_28
   10  A    between atoms: C_21  and  C_34
   11  A    between atoms: C_23  and  C_24
   12  A    between atoms: C_24  and  N_33
                            x       y       z     vdW  Elec       q    Type
                         _______ _______ _______ _____ _____    ______ ____

>  <TORSDO>
F 12

$$$$
=
 OpenBabel11042416483D

 37 40  0  0  1  0  0  0  0  0999 V2000
  189.5080  176.7580  144.2060 C   0  0  0  0  0  0  0  0  0  0  0  0
  186.4690  177.8100  142.4130 C   0  0  0  0  0  0  0  0  0  0  0  0
  188.1190  176.3290  142.2730 C   0  0  0  0  0  0  0  0  0  0  0  0
  185.1190  178.2770  142.4070 N   0  0  0  0  0  0  0  0  0  0  0  0
  186.8860  176.7950  141.6610 C   0  0  0  0  0  3  0  0  0  0  0  0
  188.9400  175.2830  141.8590 C   0  0  0  0  0  3  0  0  0  0  0  0
  186.5680  178.0730  144.8440 C   0  0  0  0  0  3  0  0  0  0  0  0
  184.5470  178.5880  143.5370 C   0  0  0  0  0  0  0  0  0  0  0  0
  190.3550  175.7150  143.7990 C   0  0  0  0  0  3  0  0  0  0  0  0
  190.0710  174.9740  142.6360 C   0  0  0  0  0  0  0  0  0  0  0  0
  188.3770  177.0360  143.4270 C   0  0  0  0  0  0  0  0  0  0  0  0
  183.1950  179.0390  143.5310 N   0  0  0  0  0  1  0  0  0  0  0  0
  185.2570  178.3620  144.8320 C   0  0  0  0  0  0  0  0  0  0  0  0
  187.3710  178.1230  143.5720 C   0  0  1  0  0  3  0  0  0  0  0  0
  184.5120  178.4050  146.1240 C   0  0  0  0  0  2  0  0  0  0  0  0
  185.4750  178.6500  147.2700 C   0  0  0  0  0  1  0  0  0  0  0  0
  191.1570  173.6570  142.1530 S   0  0  2  0  0  0  0  0  0  0  0  0
  191.9060  174.1830  140.9360 O   0  0  0  0  0  0  0  0  0  0  0  0
  189.3070  171.8110  142.2630 O   0  0  0  0  0  0  0  0  0  0  0  0
  190.1000  172.3710  141.5240 C   0  0  0  0  0  0  0  0  0  0  0  0
  190.1580  172.0030  140.0780 C   0  0  0  0  0  2  0  0  0  0  0  0
  189.1720  172.8070  139.3010 C   0  0  0  0  0  0  0  0  0  0  0  0
  189.5660  173.7640  138.5850 O   0  0  0  0  0  0  0  0  0  0  0  0
  187.8160  172.5180  139.3880 O   0  0  0  0  0  1  0  0  0  0  0  0
  189.8440  177.5700  145.4110 C   0  0  0  0  0  2  0  0  0  0  0  0
  189.2250  176.9420  146.6450 C   0  0  0  0  0  2  0  0  0  0  0  0
  189.8230  175.5620  146.8680 C   0  0  0  0  0  2  0  0  0  0  0  0
  191.0980  175.6290  147.6990 C   0  0  2  0  0  3  0  0  0  0  0  0
  191.3210  176.9350  148.1440 O   0  0  0  0  0  1  0  0  0  0  0  0
  192.2360  175.1650  146.9200 N   0  0  0  0  0  2  0  0  0  0  0  0
  193.1050  176.3090  146.7040 C   0  0  0  0  0  2  0  0  0  0  0  0
  195.6550  176.4150  143.8450 C   0  0  0  0  0  3  0  0  0  0  0  0
  196.1400  174.4810  145.3210 C   0  0  0  0  0  2  0  0  0  0  0  0
  195.0080  174.9360  146.1380 N   0  0  0  0  0  0  0  0  0  0  0  0
  194.2290  175.9230  145.8090 C   0  0  0  0  0  0  0  0  0  0  0  0
  194.5010  176.6960  144.6370 N   0  0  0  0  0  2  0  0  0  0  0  0
  196.4490  175.3930  144.1610 C   0  0  0  0  0  3  0  0  0  0  0  0
  1 25  1  0  0  0  0
  2 14  1  0  0  0  0
  3 11  1  0  0  0  0
  4  2  1  0  0  0  0
  4  8  2  0  0  0  0
  5  3  1  0  0  0  0
  5  2  2  0  0  0  0
  6  3  2  0  0  0  0
  6 10  1  0  0  0  0
  8 13  1  0  0  0  0
  9  1  1  0  0  0  0
 10  9  2  0  0  0  0
 11 14  1  0  0  0  0
 11  1  2  0  0  0  0
 12  8  1  0  0  0  0
 13  7  2  0  0  0  0
 13 15  1  0  0  0  0
 14  7  1  1  0  0  0
 15 16  1  0  0  0  0
 17 18  2  6  0  0  0
 17 10  1  0  0  0  0
 20 17  1  0  0  0  0
 20 19  2  0  0  0  0
 21 20  1  0  0  0  0
 22 24  1  0  0  0  0
 22 21  1  0  0  0  0
 23 22  2  0  0  0  0
 25 26  1  0  0  0  0
 26 27  1  0  0  0  0
 27 28  1  0  0  0  0
 28 29  1  6  0  0  0
 30 28  1  0  0  0  0
 31 30  1  0  0  0  0
 32 37  2  0  0  0  0
 32 36  1  0  0  0  0
 33 34  1  0  0  0  0
 35 34  2  0  0  0  0
 35 31  1  0  0  0  0
 36 35  1  0  0  0  0
 37 33  1  0  0  0  0
M  END
>  <MODEL>
7

>  <REMARK>
 VINA RESULT:      -6.4      3.707      6.279
  Name = 
  12 active torsions:
  status: ('A' for Active; 'I' for Inactive)
    1  A    between atoms: C_1  and  C_13
    2  A    between atoms: C_3  and  C_34
    3  A    between atoms: C_9  and  C_13
    4  A    between atoms: C_9  and  C_16
    5  A    between atoms: C_12  and  C_16
    6  A    between atoms: C_12  and  N_33
    7  A    between atoms: C_18  and  C_31
    8  A    between atoms: S_19  and  C_21
    9  A    between atoms: S_19  and  C_28
   10  A    between atoms: C_21  and  C_34
   11  A    between atoms: C_23  and  C_24
   12  A    between atoms: C_24  and  N_33
                            x       y       z     vdW  Elec       q    Type
                         _______ _______ _______ _____ _____    ______ ____

>  <TORSDO>
F 12

$$$$
=
 OpenBabel11042416483D

 37 40  0  0  1  0  0  0  0  0999 V2000
  189.4610  175.9870  143.3330 C   0  0  0  0  0  0  0  0  0  0  0  0
  186.3540  177.8450  142.6620 C   0  0  0  0  0  0  0  0  0  0  0  0
  187.6620  176.2990  141.7470 C   0  0  0  0  0  0  0  0  0  0  0  0
  185.1310  178.4370  143.1020 N   0  0  0  0  0  0  0  0  0  0  0  0
  186.4310  177.0560  141.5930 C   0  0  0  0  0  3  0  0  0  0  0  0
  188.1910  175.3370  140.8890 C   0  0  0  0  0  3  0  0  0  0  0  0
  186.9790  177.3690  144.9790 C   0  0  0  0  0  3  0  0  0  0  0  0
  184.8580  178.4630  144.3770 C   0  0  0  0  0  0  0  0  0  0  0  0
  190.0170  175.0240  142.4760 C   0  0  0  0  0  3  0  0  0  0  0  0
  189.3830  174.6930  141.2630 C   0  0  0  0  0  0  0  0  0  0  0  0
  188.2630  176.6030  142.9490 C   0  0  0  0  0  0  0  0  0  0  0  0
  183.6300  179.0400  144.8140 N   0  0  0  0  0  1  0  0  0  0  0  0
  185.7620  177.7900  145.3590 C   0  0  0  0  0  0  0  0  0  0  0  0
  187.5090  177.7020  143.6100 C   0  0  1  0  0  3  0  0  0  0  0  0
  185.3090  177.5330  146.7560 C   0  0  0  0  0  2  0  0  0  0  0  0
  186.3890  176.7960  147.5250 C   0  0  0  0  0  1  0  0  0  0  0  0
  190.1070  173.4650  140.2070 S   0  0  2  0  0  0  0  0  0  0  0  0
  188.9680  172.5140  139.8610 O   0  0  0  0  0  0  0  0  0  0  0  0
  192.3570  172.8640  141.3970 O   0  0  0  0  0  0  0  0  0  0  0  0
  191.1960  172.5200  141.2490 C   0  0  0  0  0  0  0  0  0  0  0  0
  190.6770  171.3220  141.9730 C   0  0  0  0  0  2  0  0  0  0  0  0
  190.0190  171.7330  143.2450 C   0  0  0  0  0  0  0  0  0  0  0  0
  190.7070  171.8950  144.2860 O   0  0  0  0  0  1  0  0  0  0  0  0
  188.6420  171.9110  143.2880 O   0  0  0  0  0  0  0  0  0  0  0  0
  190.1660  176.3670  144.5910 C   0  0  0  0  0  2  0  0  0  0  0  0
  190.1280  175.2110  145.5720 C   0  0  0  0  0  2  0  0  0  0  0  0
  189.9700  175.7490  146.9860 C   0  0  0  0  0  2  0  0  0  0  0  0
  191.2830  175.6980  147.7570 C   0  0  2  0  0  3  0  0  0  0  0  0
  191.5620  176.9440  148.3250 O   0  0  0  0  0  1  0  0  0  0  0  0
  192.3710  175.2920  146.8820 N   0  0  0  0  0  2  0  0  0  0  0  0
  193.3460  176.3690  146.8790 C   0  0  0  0  0  2  0  0  0  0  0  0
  196.3060  174.5000  145.3210 C   0  0  0  0  0  3  0  0  0  0  0  0
  195.6980  176.4330  143.8900 C   0  0  0  0  0  2  0  0  0  0  0  0
  194.6230  176.6940  144.8570 N   0  0  0  0  0  0  0  0  0  0  0  0
  194.4670  176.0290  145.9630 C   0  0  0  0  0  0  0  0  0  0  0  0
  195.3130  174.9150  146.2590 N   0  0  0  0  0  2  0  0  0  0  0  0
  196.4880  175.1860  144.1940 C   0  0  0  0  0  3  0  0  0  0  0  0
  1 25  1  0  0  0  0
  2  4  1  0  0  0  0
  2 14  1  0  0  0  0
  3 11  2  0  0  0  0
  4  8  2  0  0  0  0
  5  3  1  0  0  0  0
  5  2  2  0  0  0  0
  6 10  2  0  0  0  0
  6  3  1  0  0  0  0
  7 13  2  0  0  0  0
  8 12  1  0  0  0  0
  8 13  1  0  0  0  0
  9  1  2  0  0  0  0
 10  9  1  0  0  0  0
 11  1  1  0  0  0  0
 11 14  1  0  0  0  0
 13 15  1  0  0  0  0
 14  7  1  1  0  0  0
 15 16  1  0  0  0  0
 17 18  2  1  0  0  0
 17 20  1  0  0  0  0
 17 10  1  0  0  0  0
 20 19  2  0  0  0  0
 20 21  1  0  0  0  0
 21 22  1  0  0  0  0
 22 24  2  0  0  0  0
 22 23  1  0  0  0  0
 25 26  1  0  0  0  0
 26 27  1  0  0  0  0
 27 28  1  0  0  0  0
 28 29  1  6  0  0  0
 30 28  1  0  0  0  0
 31 30  1  0  0  0  0
 32 36  1  0  0  0  0
 33 37  1  0  0  0  0
 33 34  1  0  0  0  0
 34 35  2  0  0  0  0
 35 36  1  0  0  0  0
 35 31  1  0  0  0  0
 37 32  2  0  0  0  0
M  END
>  <MODEL>
8

>  <REMARK>
 VINA RESULT:      -6.3      3.678      6.032
  Name = 
  12 active torsions:
  status: ('A' for Active; 'I' for Inactive)
    1  A    between atoms: C_1  and  C_13
    2  A    between atoms: C_3  and  C_34
    3  A    between atoms: C_9  and  C_13
    4  A    between atoms: C_9  and  C_16
    5  A    between atoms: C_12  and  C_16
    6  A    between atoms: C_12  and  N_33
    7  A    between atoms: C_18  and  C_31
    8  A    between atoms: S_19  and  C_21
    9  A    between atoms: S_19  and  C_28
   10  A    between atoms: C_21  and  C_34
   11  A    between atoms: C_23  and  C_24
   12  A    between atoms: C_24  and  N_33
                            x       y       z     vdW  Elec       q    Type
                         _______ _______ _______ _____ _____    ______ ____

>  <TORSDO>
F 12

$$$$
=
 OpenBabel11042416483D

 37 40  0  0  1  0  0  0  0  0999 V2000
  189.2590  175.3380  145.7060 C   0  0  0  0  0  0  0  0  0  0  0  0
  188.9180  174.4510  142.1490 C   0  0  0  0  0  0  0  0  0  0  0  0
  188.0610  175.8320  143.6640 C   0  0  0  0  0  0  0  0  0  0  0  0
  189.4860  174.0630  140.8970 N   0  0  0  0  0  0  0  0  0  0  0  0
  188.0290  175.4340  142.2660 C   0  0  0  0  0  3  0  0  0  0  0  0
  187.3120  176.8260  144.2900 C   0  0  0  0  0  3  0  0  0  0  0  0
  191.0960  174.2020  143.2350 C   0  0  0  0  0  3  0  0  0  0  0  0
  190.7600  173.7950  140.8300 C   0  0  0  0  0  0  0  0  0  0  0  0
  188.5050  176.3270  146.3580 C   0  0  0  0  0  3  0  0  0  0  0  0
  187.5410  177.0740  145.6540 C   0  0  0  0  0  0  0  0  0  0  0  0
  189.0260  175.1210  144.3420 C   0  0  0  0  0  0  0  0  0  0  0  0
  191.3280  173.4230  139.5770 N   0  0  0  0  0  1  0  0  0  0  0  0
  191.6380  173.9890  142.0240 C   0  0  0  0  0  0  0  0  0  0  0  0
  189.6080  174.0960  143.4340 C   0  0  1  0  0  3  0  0  0  0  0  0
  193.1220  174.0000  141.8820 C   0  0  0  0  0  2  0  0  0  0  0  0
  193.6500  175.4120  142.0490 C   0  0  0  0  0  1  0  0  0  0  0  0
  186.6110  178.3220  146.5060 S   0  0  2  0  0  0  0  0  0  0  0  0
  186.8320  178.0430  147.9870 O   0  0  0  0  0  0  0  0  0  0  0  0
  184.4440  176.8590  146.5830 O   0  0  0  0  0  0  0  0  0  0  0  0
  184.9010  177.9290  146.2130 C   0  0  0  0  0  0  0  0  0  0  0  0
  184.0130  178.9260  145.5460 C   0  0  0  0  0  2  0  0  0  0  0  0
  184.4680  179.1670  144.1480 C   0  0  0  0  0  0  0  0  0  0  0  0
  185.1980  180.1590  143.8860 O   0  0  0  0  0  1  0  0  0  0  0  0
  184.0660  178.3140  143.1280 O   0  0  0  0  0  0  0  0  0  0  0  0
  190.2410  174.5180  146.4710 C   0  0  0  0  0  2  0  0  0  0  0  0
  191.2380  175.4250  147.1670 C   0  0  0  0  0  2  0  0  0  0  0  0
  192.6050  175.2690  146.5200 C   0  0  0  0  0  2  0  0  0  0  0  0
  193.1160  176.5900  145.9580 C   0  0  2  0  0  3  0  0  0  0  0  0
  192.2690  177.0470  144.9440 O   0  0  0  0  0  1  0  0  0  0  0  0
  194.4690  176.4350  145.4480 N   0  0  0  0  0  2  0  0  0  0  0  0
  195.0560  175.2910  146.1250 C   0  0  0  0  0  2  0  0  0  0  0  0
  197.5060  172.7290  144.6700 C   0  0  0  0  0  3  0  0  0  0  0  0
  197.5370  174.7880  143.2860 C   0  0  0  0  0  2  0  0  0  0  0  0
  196.5080  175.3060  144.1970 N   0  0  0  0  0  0  0  0  0  0  0  0
  196.1050  174.6820  145.2640 C   0  0  0  0  0  0  0  0  0  0  0  0
  196.5990  173.3750  145.5640 N   0  0  0  0  0  2  0  0  0  0  0  0
  197.9410  173.3670  143.5850 C   0  0  0  0  0  3  0  0  0  0  0  0
  1  9  1  0  0  0  0
  1 25  1  0  0  0  0
  2  5  2  0  0  0  0
  2 14  1  0  0  0  0
  3  6  2  0  0  0  0
  3 11  1  0  0  0  0
  4  2  1  0  0  0  0
  5  3  1  0  0  0  0
  6 10  1  0  0  0  0
  8  4  2  0  0  0  0
  8 13  1  0  0  0  0
 10  9  2  0  0  0  0
 10 17  1  0  0  0  0
 11  1  2  0  0  0  0
 12  8  1  0  0  0  0
 13  7  2  0  0  0  0
 14  7  1  6  0  0  0
 14 11  1  0  0  0  0
 15 13  1  0  0  0  0
 15 16  1  0  0  0  0
 17 18  2  1  0  0  0
 20 17  1  0  0  0  0
 20 19  2  0  0  0  0
 21 20  1  0  0  0  0
 22 21  1  0  0  0  0
 23 22  1  0  0  0  0
 24 22  2  0  0  0  0
 25 26  1  0  0  0  0
 27 26  1  0  0  0  0
 28 29  1  6  0  0  0
 28 27  1  0  0  0  0
 30 28  1  0  0  0  0
 30 31  1  0  0  0  0
 32 36  1  0  0  0  0
 33 37  1  0  0  0  0
 33 34  1  0  0  0  0
 34 35  2  0  0  0  0
 35 36  1  0  0  0  0
 35 31  1  0  0  0  0
 37 32  2  0  0  0  0
M  END
>  <MODEL>
9

>  <REMARK>
 VINA RESULT:      -6.3      1.655      2.750
  Name = 
  12 active torsions:
  status: ('A' for Active; 'I' for Inactive)
    1  A    between atoms: C_1  and  C_13
    2  A    between atoms: C_3  and  C_34
    3  A    between atoms: C_9  and  C_13
    4  A    between atoms: C_9  and  C_16
    5  A    between atoms: C_12  and  C_16
    6  A    between atoms: C_12  and  N_33
    7  A    between atoms: C_18  and  C_31
    8  A    between atoms: S_19  and  C_21
    9  A    between atoms: S_19  and  C_28
   10  A    between atoms: C_21  and  C_34
   11  A    between atoms: C_23  and  C_24
   12  A    between atoms: C_24  and  N_33
                            x       y       z     vdW  Elec       q    Type
                         _______ _______ _______ _____ _____    ______ ____

>  <TORSDO>
F 12

$$$$
