=
 OpenBabel11042415073D

 53 56  0  0  1  0  0  0  0  0999 V2000
  192.0180  172.9910  144.0810 C   0  0  1  0  0  3  0  0  0  0  0  0
  191.3790  171.3390  144.2980 Cl  0  0  0  0  0  0  0  0  0  0  0  0
  192.4310  174.7860  140.8360 F   0  0  0  0  0  0  0  0  0  0  0  0
  192.1390  174.5110  142.1350 C   0  0  0  0  0  0  0  0  0  0  0  0
  191.5670  175.1810  144.4700 C   0  0  2  0  0  3  0  0  0  0  0  0
  192.3490  173.2780  142.6200 C   0  0  0  0  0  0  0  0  0  0  0  0
  191.5710  175.6070  142.9960 C   0  0  1  0  0  3  0  0  0  0  0  0
  191.0420  173.8820  144.5670 O   0  0  0  0  0  0  0  0  0  0  0  0
  192.3390  176.7610  142.8370 O   0  0  0  0  0  1  0  0  0  0  0  0
  193.0410  172.3310  141.7950 N   0  0  0  0  0  0  0  0  0  0  0  0
  192.4360  171.5610  140.9860 N   0  0  0  0  0  0  0  0  0  0  0  0
  193.1800  170.6100  140.1720 C   0  0  1  0  0  3  0  0  0  0  0  0
  192.6150  168.9590  141.9560 O   0  0  0  0  0  1  0  0  0  0  0  0
  192.9410  169.2030  140.6280 C   0  0  0  0  0  0  0  0  0  0  0  0
  193.0670  168.2360  139.8290 O   0  0  0  0  0  0  0  0  0  0  0  0
  192.8400  170.7810  138.6960 C   0  0  0  0  0  2  0  0  0  0  0  0
  191.9020  171.8750  138.4950 N   0  0  0  0  0  2  0  0  0  0  0  0
  190.7210  171.3140  137.8590 C   0  0  1  0  0  3  0  0  0  0  0  0
  190.7160  169.9380  137.9960 F   0  0  0  0  0  0  0  0  0  0  0  0
  189.4650  171.9050  138.4770 C   0  0  0  0  0  2  0  0  0  0  0  0
  189.7340  172.3840  139.7710 O   0  0  0  0  0  0  0  0  0  0  0  0
  188.5770  173.0160  140.2800 C   0  0  2  0  0  3  0  0  0  0  0  0
  188.4920  174.3620  139.9000 O   0  0  0  0  0  1  0  0  0  0  0  0
  188.8380  173.9500  142.4770 F   0  0  0  0  0  0  0  0  0  0  0  0
  189.0980  171.7230  142.2190 F   0  0  0  0  0  0  0  0  0  0  0  0
  188.3920  172.8340  141.7910 C   0  0  0  0  0  0  0  0  0  0  0  0
  187.0500  172.6460  142.0650 F   0  0  0  0  0  0  0  0  0  0  0  0
  190.7150  176.1420  145.3160 C   0  0  1  0  0  3  0  0  0  0  0  0
  189.5470  175.5200  145.7830 O   0  0  0  0  0  0  0  0  0  0  0  0
  188.8820  176.4940  146.4460 N   0  0  0  0  0  2  0  0  0  0  0  0
  187.5530  176.4390  146.0100 N   0  0  0  0  0  2  0  0  0  0  0  0
  185.9490  177.9690  147.8040 C   0  0  0  0  0  1  0  0  0  0  0  0
  186.0220  178.3090  146.3540 C   0  0  0  0  0  0  0  0  0  0  0  0
  185.2790  179.3480  145.8900 N   0  0  0  0  0  0  0  0  0  0  0  0
  186.8250  177.5590  145.4740 C   0  0  0  0  0  0  0  0  0  0  0  0
  186.0680  179.0050  143.6720 C   0  0  0  0  0  3  0  0  0  0  0  0
  185.2830  179.7050  144.5810 C   0  0  0  0  0  3  0  0  0  0  0  0
  186.8670  177.9340  144.1040 C   0  0  0  0  0  0  0  0  0  0  0  0
  187.3660  177.6990  141.6930 C   0  0  0  0  0  2  0  0  0  0  0  0
  187.6960  177.1930  143.0880 C   0  0  0  0  0  3  0  0  0  0  0  0
  186.8450  176.3550  142.1430 C   0  0  0  0  0  2  0  0  0  0  0  0
  191.4340  176.7400  146.3730 O   0  0  0  0  0  0  0  0  0  0  0  0
  192.5120  175.9040  146.7150 C   0  0  0  0  0  2  0  0  0  0  0  0
  193.8250  176.6630  146.5940 C   0  0  0  0  0  2  0  0  0  0  0  0
  195.5350  173.9100  144.6370 C   0  0  0  0  0  0  0  0  0  0  0  0
  194.7390  176.0030  145.6160 C   0  0  0  0  0  0  0  0  0  0  0  0
  195.3470  176.7380  144.6790 C   0  0  0  0  0  3  0  0  0  0  0  0
  194.9350  174.5390  145.6520 C   0  0  0  0  0  3  0  0  0  0  0  0
  195.9170  174.6640  143.3900 C   0  0  0  0  0  2  0  0  0  0  0  0
  195.7350  172.4390  144.6950 C   0  0  0  0  0  1  0  0  0  0  0  0
  196.3260  176.1040  143.7250 C   0  0  1  0  0  3  0  0  0  0  0  0
  195.5680  176.2140  141.6480 C   0  0  0  0  0  1  0  0  0  0  0  0
  196.4120  176.8590  142.5540 O   0  0  0  0  0  0  0  0  0  0  0  0
  1  2  1  6  0  0  0
  1  8  1  0  0  0  0
  3  4  1  0  0  0  0
  4  6  2  0  0  0  0
  4  7  1  0  0  0  0
  5  8  1  0  0  0  0
  5 28  1  1  0  0  0
  6  1  1  0  0  0  0
  7  9  1  1  0  0  0
  7  5  1  0  0  0  0
 10  6  1  0  0  0  0
 11 10  2  0  0  0  0
 12 16  1  6  0  0  0
 12 14  1  0  0  0  0
 12 11  1  0  0  0  0
 14 13  1  0  0  0  0
 15 14  2  0  0  0  0
 17 16  1  0  0  0  0
 18 19  1  1  0  0  0
 18 20  1  0  0  0  0
 18 17  1  0  0  0  0
 20 21  1  0  0  0  0
 21 22  1  0  0  0  0
 22 23  1  1  0  0  0
 22 26  1  0  0  0  0
 26 27  1  0  0  0  0
 26 25  1  0  0  0  0
 26 24  1  0  0  0  0
 28 29  1  1  0  0  0
 28 42  1  0  0  0  0
 29 30  1  0  0  0  0
 31 30  1  0  0  0  0
 33 32  1  0  0  0  0
 34 33  1  0  0  0  0
 35 31  1  0  0  0  0
 35 33  2  0  0  0  0
 36 38  2  0  0  0  0
 36 37  1  0  0  0  0
 37 34  2  0  0  0  0
 38 35  1  0  0  0  0
 39 41  1  0  0  0  0
 39 40  1  0  0  0  0
 40 38  1  0  0  0  0
 41 40  1  0  0  0  0
 42 43  1  0  0  0  0
 44 43  1  0  0  0  0
 45 50  1  0  0  0  0
 45 48  2  0  0  0  0
 46 48  1  0  0  0  0
 46 44  1  0  0  0  0
 47 46  2  0  0  0  0
 49 51  1  0  0  0  0
 49 45  1  0  0  0  0
 51 53  1  6  0  0  0
 51 47  1  0  0  0  0
 52 53  1  0  0  0  0
M  END
>  <MODEL>
1

>  <REMARK>
 VINA RESULT:      -6.3      0.000      0.000
  Name = 
  21 active torsions:
  status: ('A' for Active; 'I' for Inactive)
    1  A    between atoms: N_6  and  C_13
    2  A    between atoms: N_6  and  C_44
    3  A    between atoms: C_11  and  C_13
    4  A    between atoms: C_11  and  N_27
    5  A    between atoms: C_11  and  C_42
    6  A    between atoms: C_12  and  C_41
    7  A    between atoms: C_14  and  C_26
    8  A    between atoms: C_14  and  O_40
    9  A    between atoms: O_20  and  C_32
   10  A    between atoms: O_20  and  N_34
   11  A    between atoms: C_21  and  C_32
   12  A    between atoms: N_22  and  C_25
   13  A    between atoms: N_28  and  N_34
   14  A    between atoms: N_28  and  C_38
   15  A    between atoms: C_32  and  O_45
   16  A    between atoms: C_36  and  C_41
   17  A    between atoms: C_36  and  O_45
   18  A    between atoms: C_37  and  O_43
   19  A    between atoms: O_40  and  C_48
   20  A    between atoms: C_44  and  C_48
   21  A    between atoms: C_49  and  C_52
                            x       y       z     vdW  Elec       q    Type
                         _______ _______ _______ _____ _____    ______ ____

>  <TORSDO>
F 21

$$$$
=
 OpenBabel11042415073D

 53 56  0  0  1  0  0  0  0  0999 V2000
  189.8820  176.6310  143.3170 C   0  0  1  0  0  3  0  0  0  0  0  0
  190.5650  178.2370  143.6850 Cl  0  0  0  0  0  0  0  0  0  0  0  0
  187.5270  175.8190  140.5400 F   0  0  0  0  0  0  0  0  0  0  0  0
  188.5570  175.7530  141.4230 C   0  0  0  0  0  0  0  0  0  0  0  0
  190.4170  174.5520  142.5770 C   0  0  2  0  0  3  0  0  0  0  0  0
  188.7200  176.7260  142.3330 C   0  0  0  0  0  0  0  0  0  0  0  0
  189.5030  174.5840  141.3450 C   0  0  1  0  0  3  0  0  0  0  0  0
  190.9270  175.8420  142.7980 O   0  0  0  0  0  0  0  0  0  0  0  0
  188.7660  173.4020  141.2680 O   0  0  0  0  0  1  0  0  0  0  0  0
  187.6940  177.7200  142.4580 N   0  0  0  0  0  0  0  0  0  0  0  0
  186.5490  177.4600  142.9410 N   0  0  0  0  0  0  0  0  0  0  0  0
  185.5360  178.5010  143.0420 C   0  0  1  0  0  3  0  0  0  0  0  0
  184.8050  178.2000  140.6750 O   0  0  0  0  0  0  0  0  0  0  0  0
  184.4600  178.3120  142.0160 C   0  0  0  0  0  0  0  0  0  0  0  0
  183.2460  178.2880  142.3530 O   0  0  0  0  0  1  0  0  0  0  0  0
  184.9560  178.5540  144.4520 C   0  0  0  0  0  2  0  0  0  0  0  0
  186.0010  178.7600  145.4430 N   0  0  0  0  0  2  0  0  0  0  0  0
  185.6700  177.9320  146.5910 C   0  0  1  0  0  3  0  0  0  0  0  0
  184.3060  177.7050  146.6350 F   0  0  0  0  0  0  0  0  0  0  0  0
  186.4170  176.6110  146.5140 C   0  0  0  0  0  2  0  0  0  0  0  0
  187.7120  176.8090  146.0050 O   0  0  0  0  0  0  0  0  0  0  0  0
  188.6550  176.5420  147.0240 C   0  0  2  0  0  3  0  0  0  0  0  0
  189.6330  177.5410  147.1200 O   0  0  0  0  0  1  0  0  0  0  0  0
  188.7310  174.3090  147.9030 F   0  0  0  0  0  0  0  0  0  0  0  0
  190.6410  175.2220  147.1210 F   0  0  0  0  0  0  0  0  0  0  0  0
  189.2720  175.1420  146.9390 C   0  0  0  0  0  0  0  0  0  0  0  0
  189.0150  174.6080  145.6900 F   0  0  0  0  0  0  0  0  0  0  0  0
  191.5820  173.5700  142.3700 C   0  0  1  0  0  3  0  0  0  0  0  0
  192.7650  174.0430  142.9580 O   0  0  0  0  0  0  0  0  0  0  0  0
  193.5100  174.4860  141.9190 N   0  0  0  0  0  2  0  0  0  0  0  0
  194.6710  175.0420  142.4680 N   0  0  0  0  0  2  0  0  0  0  0  0
  196.0500  172.5780  142.0620 C   0  0  0  0  0  1  0  0  0  0  0  0
  196.0650  173.2620  143.3880 C   0  0  0  0  0  0  0  0  0  0  0  0
  196.7250  172.6700  144.4170 N   0  0  0  0  0  0  0  0  0  0  0  0
  195.3940  174.4840  143.5800 C   0  0  0  0  0  0  0  0  0  0  0  0
  196.1330  174.4380  145.8960 C   0  0  0  0  0  3  0  0  0  0  0  0
  196.7680  173.2250  145.6550 C   0  0  0  0  0  3  0  0  0  0  0  0
  195.4520  175.0980  144.8600 C   0  0  0  0  0  0  0  0  0  0  0  0
  194.2080  176.3730  146.5760 C   0  0  0  0  0  2  0  0  0  0  0  0
  194.7670  176.4040  145.1620 C   0  0  0  0  0  3  0  0  0  0  0  0
  193.2720  176.2360  145.3990 C   0  0  0  0  0  2  0  0  0  0  0  0
  191.2860  172.2580  142.7990 O   0  0  0  0  0  0  0  0  0  0  0  0
  192.4850  171.5270  142.8740 C   0  0  0  0  0  2  0  0  0  0  0  0
  192.6230  170.8840  144.2450 C   0  0  0  0  0  2  0  0  0  0  0  0
  195.6440  169.3540  145.9380 C   0  0  0  0  0  0  0  0  0  0  0  0
  193.9600  170.2380  144.4050 C   0  0  0  0  0  0  0  0  0  0  0  0
  194.5670  169.7050  143.3400 C   0  0  0  0  0  3  0  0  0  0  0  0
  194.5870  170.1460  145.7390 C   0  0  0  0  0  3  0  0  0  0  0  0
  196.1420  168.4540  144.8370 C   0  0  0  0  0  2  0  0  0  0  0  0
  196.2700  169.2820  147.2830 C   0  0  0  0  0  1  0  0  0  0  0  0
  195.9460  169.1100  143.4640 C   0  0  1  0  0  3  0  0  0  0  0  0
  195.2830  168.5440  141.4290 C   0  0  0  0  0  1  0  0  0  0  0  0
  196.1540  168.1700  142.4540 O   0  0  0  0  0  0  0  0  0  0  0  0
  1  2  1  6  0  0  0
  3  4  1  0  0  0  0
  4  6  2  0  0  0  0
  5 28  1  6  0  0  0
  5  8  1  0  0  0  0
  6 10  1  0  0  0  0
  6  1  1  0  0  0  0
  7  9  1  1  0  0  0
  7  4  1  0  0  0  0
  7  5  1  0  0  0  0
  8  1  1  0  0  0  0
 10 11  2  0  0  0  0
 11 12  1  0  0  0  0
 12 16  1  1  0  0  0
 13 14  2  0  0  0  0
 14 15  1  0  0  0  0
 14 12  1  0  0  0  0
 16 17  1  0  0  0  0
 17 18  1  0  0  0  0
 18 19  1  6  0  0  0
 20 18  1  0  0  0  0
 21 20  1  0  0  0  0
 21 22  1  0  0  0  0
 22 23  1  6  0  0  0
 26 22  1  0  0  0  0
 26 25  1  0  0  0  0
 26 24  1  0  0  0  0
 27 26  1  0  0  0  0
 28 42  1  1  0  0  0
 28 29  1  0  0  0  0
 30 31  1  0  0  0  0
 30 29  1  0  0  0  0
 31 35  1  0  0  0  0
 32 33  1  0  0  0  0
 33 35  2  0  0  0  0
 33 34  1  0  0  0  0
 34 37  2  0  0  0  0
 35 38  1  0  0  0  0
 37 36  1  0  0  0  0
 38 40  1  0  0  0  0
 38 36  2  0  0  0  0
 40 41  1  0  0  0  0
 40 39  1  0  0  0  0
 41 39  1  0  0  0  0
 42 43  1  0  0  0  0
 43 44  1  0  0  0  0
 44 46  1  0  0  0  0
 45 50  1  0  0  0  0
 46 48  1  0  0  0  0
 47 51  1  0  0  0  0
 47 46  2  0  0  0  0
 48 45  2  0  0  0  0
 49 45  1  0  0  0  0
 51 53  1  6  0  0  0
 51 49  1  0  0  0  0
 52 53  1  0  0  0  0
M  END
>  <MODEL>
2

>  <REMARK>
 VINA RESULT:      -6.2      3.106      8.367
  Name = 
  21 active torsions:
  status: ('A' for Active; 'I' for Inactive)
    1  A    between atoms: N_6  and  C_13
    2  A    between atoms: N_6  and  C_44
    3  A    between atoms: C_11  and  C_13
    4  A    between atoms: C_11  and  N_27
    5  A    between atoms: C_11  and  C_42
    6  A    between atoms: C_12  and  C_41
    7  A    between atoms: C_14  and  C_26
    8  A    between atoms: C_14  and  O_40
    9  A    between atoms: O_20  and  C_32
   10  A    between atoms: O_20  and  N_34
   11  A    between atoms: C_21  and  C_32
   12  A    between atoms: N_22  and  C_25
   13  A    between atoms: N_28  and  N_34
   14  A    between atoms: N_28  and  C_38
   15  A    between atoms: C_32  and  O_45
   16  A    between atoms: C_36  and  C_41
   17  A    between atoms: C_36  and  O_45
   18  A    between atoms: C_37  and  O_43
   19  A    between atoms: O_40  and  C_48
   20  A    between atoms: C_44  and  C_48
   21  A    between atoms: C_49  and  C_52
                            x       y       z     vdW  Elec       q    Type
                         _______ _______ _______ _____ _____    ______ ____

>  <TORSDO>
F 21

$$$$
=
 OpenBabel11042415073D

 53 56  0  0  1  0  0  0  0  0999 V2000
  185.1030  177.9680  140.2580 C   0  0  1  0  0  3  0  0  0  0  0  0
  184.4820  177.0380  138.8690 Cl  0  0  0  0  0  0  0  0  0  0  0  0
  183.3180  178.5850  143.4750 F   0  0  0  0  0  0  0  0  0  0  0  0
  184.2890  178.2980  142.5690 C   0  0  0  0  0  0  0  0  0  0  0  0
  186.6700  177.9540  141.9020 C   0  0  2  0  0  3  0  0  0  0  0  0
  183.9980  178.2900  141.2600 C   0  0  0  0  0  0  0  0  0  0  0  0
  185.6730  177.9810  143.0690 C   0  0  1  0  0  3  0  0  0  0  0  0
  186.1220  177.1970  140.8530 O   0  0  0  0  0  0  0  0  0  0  0  0
  186.0580  178.9460  144.0000 O   0  0  0  0  0  1  0  0  0  0  0  0
  182.7080  178.7580  140.8460 N   0  0  0  0  0  0  0  0  0  0  0  0
  181.6840  178.0070  140.8280 N   0  0  0  0  0  0  0  0  0  0  0  0
  180.3940  178.5250  140.3940 C   0  0  1  0  0  3  0  0  0  0  0  0
  179.1590  177.8380  142.4500 O   0  0  0  0  0  1  0  0  0  0  0  0
  179.2660  177.8030  141.0660 C   0  0  0  0  0  0  0  0  0  0  0  0
  178.4340  177.1380  140.3910 O   0  0  0  0  0  0  0  0  0  0  0  0
  180.3100  180.0290  140.6290 C   0  0  0  0  0  2  0  0  0  0  0  0
  178.9350  180.4980  140.5520 N   0  0  0  0  0  2  0  0  0  0  0  0
  178.6610  180.7890  139.1540 C   0  0  1  0  0  3  0  0  0  0  0  0
  178.1300  179.6730  138.5320 F   0  0  0  0  0  0  0  0  0  0  0  0
  177.6940  181.9560  139.0450 C   0  0  0  0  0  2  0  0  0  0  0  0
  178.3450  183.1630  139.3560 O   0  0  0  0  0  0  0  0  0  0  0  0
  178.5580  183.8940  138.1650 C   0  0  2  0  0  3  0  0  0  0  0  0
  177.7680  183.4290  137.1050 O   0  0  0  0  0  1  0  0  0  0  0  0
  180.1900  183.8720  136.4040 F   0  0  0  0  0  0  0  0  0  0  0  0
  180.7710  183.0380  138.4180 F   0  0  0  0  0  0  0  0  0  0  0  0
  180.0340  184.0130  137.7720 C   0  0  0  0  0  0  0  0  0  0  0  0
  180.5050  185.2570  138.1500 F   0  0  0  0  0  0  0  0  0  0  0  0
  188.0070  177.3320  142.3370 C   0  0  1  0  0  3  0  0  0  0  0  0
  188.2730  176.1430  141.6420 O   0  0  0  0  0  0  0  0  0  0  0  0
  187.5930  175.1900  142.3210 N   0  0  0  0  0  2  0  0  0  0  0  0
  188.0640  173.9560  141.8580 N   0  0  0  0  0  2  0  0  0  0  0  0
  188.6330  173.8190  139.0660 C   0  0  0  0  0  1  0  0  0  0  0  0
  189.7060  173.6190  140.0830 C   0  0  0  0  0  0  0  0  0  0  0  0
  190.9640  173.3360  139.6540 N   0  0  0  0  0  0  0  0  0  0  0  0
  189.4240  173.7000  141.4590 C   0  0  0  0  0  0  0  0  0  0  0  0
  191.7650  173.2070  141.8910 C   0  0  0  0  0  3  0  0  0  0  0  0
  191.9870  173.1260  140.5210 C   0  0  0  0  0  3  0  0  0  0  0  0
  190.4860  173.5150  142.3840 C   0  0  0  0  0  0  0  0  0  0  0  0
  191.2930  172.6850  144.5700 C   0  0  0  0  0  2  0  0  0  0  0  0
  190.2820  173.5820  143.8750 C   0  0  0  0  0  3  0  0  0  0  0  0
  189.8530  172.2460  144.4640 C   0  0  0  0  0  2  0  0  0  0  0  0
  189.0930  178.2300  142.2500 O   0  0  0  0  0  0  0  0  0  0  0  0
  189.9470  178.0140  143.3460 C   0  0  0  0  0  2  0  0  0  0  0  0
  191.1690  177.2200  142.9110 C   0  0  0  0  0  2  0  0  0  0  0  0
  191.9280  176.0730  146.4390 C   0  0  0  0  0  0  0  0  0  0  0  0
  191.9550  176.7520  144.0920 C   0  0  0  0  0  0  0  0  0  0  0  0
  193.2080  176.3180  143.9210 C   0  0  0  0  0  3  0  0  0  0  0  0
  191.3360  176.7230  145.4330 C   0  0  0  0  0  3  0  0  0  0  0  0
  193.1740  175.2630  146.1960 C   0  0  0  0  0  2  0  0  0  0  0  0
  191.2990  176.0650  147.7840 C   0  0  0  0  0  1  0  0  0  0  0  0
  194.0420  175.9070  145.1070 C   0  0  1  0  0  3  0  0  0  0  0  0
  195.7380  174.7070  145.8730 C   0  0  0  0  0  1  0  0  0  0  0  0
  195.0390  175.0160  144.7050 O   0  0  0  0  0  0  0  0  0  0  0  0
  1  2  1  6  0  0  0
  1  8  1  0  0  0  0
  1  6  1  0  0  0  0
  4  7  1  0  0  0  0
  4  3  1  0  0  0  0
  5 28  1  1  0  0  0
  5  7  1  0  0  0  0
  6  4  2  0  0  0  0
  7  9  1  1  0  0  0
  8  5  1  0  0  0  0
 10  6  1  0  0  0  0
 11 10  2  0  0  0  0
 12 16  1  1  0  0  0
 12 11  1  0  0  0  0
 12 14  1  0  0  0  0
 14 13  1  0  0  0  0
 15 14  2  0  0  0  0
 17 16  1  0  0  0  0
 18 19  1  1  0  0  0
 18 17  1  0  0  0  0
 20 18  1  0  0  0  0
 20 21  1  0  0  0  0
 22 23  1  6  0  0  0
 22 21  1  0  0  0  0
 24 26  1  0  0  0  0
 26 27  1  0  0  0  0
 26 22  1  0  0  0  0
 26 25  1  0  0  0  0
 28 29  1  6  0  0  0
 29 30  1  0  0  0  0
 31 30  1  0  0  0  0
 32 33  1  0  0  0  0
 33 35  1  0  0  0  0
 34 33  2  0  0  0  0
 34 37  1  0  0  0  0
 35 31  1  0  0  0  0
 35 38  2  0  0  0  0
 36 38  1  0  0  0  0
 37 36  2  0  0  0  0
 38 40  1  0  0  0  0
 40 41  1  0  0  0  0
 40 39  1  0  0  0  0
 41 39  1  0  0  0  0
 42 28  1  0  0  0  0
 42 43  1  0  0  0  0
 44 43  1  0  0  0  0
 44 46  1  0  0  0  0
 45 50  1  0  0  0  0
 46 48  1  0  0  0  0
 47 46  2  0  0  0  0
 47 51  1  0  0  0  0
 48 45  2  0  0  0  0
 49 45  1  0  0  0  0
 51 53  1  6  0  0  0
 51 49  1  0  0  0  0
 53 52  1  0  0  0  0
M  END
>  <MODEL>
3

>  <REMARK>
 VINA RESULT:      -6.2      6.606     10.345
  Name = 
  21 active torsions:
  status: ('A' for Active; 'I' for Inactive)
    1  A    between atoms: N_6  and  C_13
    2  A    between atoms: N_6  and  C_44
    3  A    between atoms: C_11  and  C_13
    4  A    between atoms: C_11  and  N_27
    5  A    between atoms: C_11  and  C_42
    6  A    between atoms: C_12  and  C_41
    7  A    between atoms: C_14  and  C_26
    8  A    between atoms: C_14  and  O_40
    9  A    between atoms: O_20  and  C_32
   10  A    between atoms: O_20  and  N_34
   11  A    between atoms: C_21  and  C_32
   12  A    between atoms: N_22  and  C_25
   13  A    between atoms: N_28  and  N_34
   14  A    between atoms: N_28  and  C_38
   15  A    between atoms: C_32  and  O_45
   16  A    between atoms: C_36  and  C_41
   17  A    between atoms: C_36  and  O_45
   18  A    between atoms: C_37  and  O_43
   19  A    between atoms: O_40  and  C_48
   20  A    between atoms: C_44  and  C_48
   21  A    between atoms: C_49  and  C_52
                            x       y       z     vdW  Elec       q    Type
                         _______ _______ _______ _____ _____    ______ ____

>  <TORSDO>
F 21

$$$$
=
 OpenBabel11042415073D

 53 56  0  0  1  0  0  0  0  0999 V2000
  191.0840  173.7160  142.7070 C   0  0  1  0  0  3  0  0  0  0  0  0
  191.6690  173.0580  144.2580 Cl  0  0  0  0  0  0  0  0  0  0  0  0
  189.2380  171.8330  140.0680 F   0  0  0  0  0  0  0  0  0  0  0  0
  189.6210  172.8090  140.9330 C   0  0  0  0  0  0  0  0  0  0  0  0
  189.5830  175.1530  141.7910 C   0  0  2  0  0  3  0  0  0  0  0  0
  190.6680  172.6070  141.7460 C   0  0  0  0  0  0  0  0  0  0  0  0
  188.8410  174.0970  140.9610 C   0  0  1  0  0  3  0  0  0  0  0  0
  190.0020  174.5710  142.9990 O   0  0  0  0  0  0  0  0  0  0  0  0
  188.6650  174.5560  139.6550 O   0  0  0  0  0  1  0  0  0  0  0  0
  191.4620  171.4280  141.5540 N   0  0  0  0  0  0  0  0  0  0  0  0
  192.5240  171.4280  140.8580 N   0  0  0  0  0  0  0  0  0  0  0  0
  193.2940  170.2040  140.6840 C   0  0  1  0  0  3  0  0  0  0  0  0
  194.0990  168.8380  138.7580 O   0  0  0  0  0  1  0  0  0  0  0  0
  193.1040  169.6330  139.3130 C   0  0  0  0  0  0  0  0  0  0  0  0
  192.0680  169.8950  138.6440 O   0  0  0  0  0  0  0  0  0  0  0  0
  194.7690  170.4490  140.9850 C   0  0  0  0  0  2  0  0  0  0  0  0
  195.0280  170.4090  142.4160 N   0  0  0  0  0  2  0  0  0  0  0  0
  196.4720  170.3820  142.5880 C   0  0  1  0  0  3  0  0  0  0  0  0
  197.0020  171.6390  142.3550 F   0  0  0  0  0  0  0  0  0  0  0  0
  196.8210  169.9210  143.9940 C   0  0  0  0  0  2  0  0  0  0  0  0
  197.6780  170.8460  144.6140 O   0  0  0  0  0  0  0  0  0  0  0  0
  197.0710  171.3160  145.8010 C   0  0  2  0  0  3  0  0  0  0  0  0
  196.0210  170.4900  146.2260 O   0  0  0  0  0  1  0  0  0  0  0  0
  197.2170  173.4110  144.6370 F   0  0  0  0  0  0  0  0  0  0  0  0
  197.0560  173.4410  146.8870 F   0  0  0  0  0  0  0  0  0  0  0  0
  196.6520  172.7890  145.7360 C   0  0  0  0  0  0  0  0  0  0  0  0
  195.2750  172.8650  145.6360 F   0  0  0  0  0  0  0  0  0  0  0  0
  188.6720  176.3540  142.0910 C   0  0  1  0  0  3  0  0  0  0  0  0
  187.9130  176.1470  143.2530 O   0  0  0  0  0  0  0  0  0  0  0  0
  186.8690  175.3860  142.8490 N   0  0  0  0  0  2  0  0  0  0  0  0
  185.7100  176.0150  143.3190 N   0  0  0  0  0  2  0  0  0  0  0  0
  185.4710  178.0940  141.3810 C   0  0  0  0  0  1  0  0  0  0  0  0
  185.5500  178.4030  142.8380 C   0  0  0  0  0  0  0  0  0  0  0  0
  185.5400  179.7040  143.2290 N   0  0  0  0  0  0  0  0  0  0  0  0
  185.6550  177.3730  143.7920 C   0  0  0  0  0  0  0  0  0  0  0  0
  185.7180  179.0830  145.5190 C   0  0  0  0  0  3  0  0  0  0  0  0
  185.6250  180.0610  144.5350 C   0  0  0  0  0  3  0  0  0  0  0  0
  185.7140  177.7240  145.1670 C   0  0  0  0  0  0  0  0  0  0  0  0
  186.3840  177.3420  147.5180 C   0  0  0  0  0  2  0  0  0  0  0  0
  185.8280  176.6930  146.2600 C   0  0  0  0  0  3  0  0  0  0  0  0
  187.2700  176.4490  146.6830 C   0  0  0  0  0  2  0  0  0  0  0  0
  189.3680  177.5810  142.1460 O   0  0  0  0  0  0  0  0  0  0  0  0
  189.8490  177.7690  143.4540 C   0  0  0  0  0  2  0  0  0  0  0  0
  191.3690  177.8130  143.4530 C   0  0  0  0  0  2  0  0  0  0  0  0
  191.4940  175.7920  146.6510 C   0  0  0  0  0  0  0  0  0  0  0  0
  191.9270  177.1610  144.6740 C   0  0  0  0  0  0  0  0  0  0  0  0
  193.2520  177.0510  144.8180 C   0  0  0  0  0  3  0  0  0  0  0  0
  191.0210  176.5960  145.6950 C   0  0  0  0  0  3  0  0  0  0  0  0
  192.9360  175.3530  146.6360 C   0  0  0  0  0  2  0  0  0  0  0  0
  190.5720  175.2430  147.6780 C   0  0  0  0  0  1  0  0  0  0  0  0
  193.8380  176.4590  146.0740 C   0  0  1  0  0  3  0  0  0  0  0  0
  195.3730  176.2950  144.4870 C   0  0  0  0  0  1  0  0  0  0  0  0
  195.1110  175.9480  145.8130 O   0  0  0  0  0  0  0  0  0  0  0  0
  1  8  1  0  0  0  0
  1  2  1  1  0  0  0
  3  4  1  0  0  0  0
  4  7  1  0  0  0  0
  4  6  2  0  0  0  0
  5 28  1  1  0  0  0
  5  8  1  0  0  0  0
  6  1  1  0  0  0  0
  7  9  1  6  0  0  0
  7  5  1  0  0  0  0
 10  6  1  0  0  0  0
 11 10  2  0  0  0  0
 12 11  1  0  0  0  0
 12 16  1  6  0  0  0
 13 14  1  0  0  0  0
 14 12  1  0  0  0  0
 15 14  2  0  0  0  0
 16 17  1  0  0  0  0
 17 18  1  0  0  0  0
 18 19  1  1  0  0  0
 18 20  1  0  0  0  0
 20 21  1  0  0  0  0
 21 22  1  0  0  0  0
 22 23  1  6  0  0  0
 24 26  1  0  0  0  0
 26 22  1  0  0  0  0
 26 25  1  0  0  0  0
 27 26  1  0  0  0  0
 28 42  1  1  0  0  0
 28 29  1  0  0  0  0
 30 29  1  0  0  0  0
 30 31  1  0  0  0  0
 31 35  1  0  0  0  0
 32 33  1  0  0  0  0
 33 34  2  0  0  0  0
 33 35  1  0  0  0  0
 34 37  1  0  0  0  0
 35 38  2  0  0  0  0
 37 36  2  0  0  0  0
 38 36  1  0  0  0  0
 38 40  1  0  0  0  0
 40 41  1  0  0  0  0
 40 39  1  0  0  0  0
 41 39  1  0  0  0  0
 42 43  1  0  0  0  0
 44 43  1  0  0  0  0
 44 46  1  0  0  0  0
 45 50  1  0  0  0  0
 46 47  2  0  0  0  0
 46 48  1  0  0  0  0
 47 51  1  0  0  0  0
 48 45  2  0  0  0  0
 49 45  1  0  0  0  0
 51 53  1  6  0  0  0
 51 49  1  0  0  0  0
 52 53  1  0  0  0  0
M  END
>  <MODEL>
4

>  <REMARK>
 VINA RESULT:      -6.0      2.792      5.154
  Name = 
  21 active torsions:
  status: ('A' for Active; 'I' for Inactive)
    1  A    between atoms: N_6  and  C_13
    2  A    between atoms: N_6  and  C_44
    3  A    between atoms: C_11  and  C_13
    4  A    between atoms: C_11  and  N_27
    5  A    between atoms: C_11  and  C_42
    6  A    between atoms: C_12  and  C_41
    7  A    between atoms: C_14  and  C_26
    8  A    between atoms: C_14  and  O_40
    9  A    between atoms: O_20  and  C_32
   10  A    between atoms: O_20  and  N_34
   11  A    between atoms: C_21  and  C_32
   12  A    between atoms: N_22  and  C_25
   13  A    between atoms: N_28  and  N_34
   14  A    between atoms: N_28  and  C_38
   15  A    between atoms: C_32  and  O_45
   16  A    between atoms: C_36  and  C_41
   17  A    between atoms: C_36  and  O_45
   18  A    between atoms: C_37  and  O_43
   19  A    between atoms: O_40  and  C_48
   20  A    between atoms: C_44  and  C_48
   21  A    between atoms: C_49  and  C_52
                            x       y       z     vdW  Elec       q    Type
                         _______ _______ _______ _____ _____    ______ ____

>  <TORSDO>
F 21

$$$$
=
 OpenBabel11042415073D

 53 56  0  0  1  0  0  0  0  0999 V2000
  191.8120  173.9560  141.8000 C   0  0  1  0  0  3  0  0  0  0  0  0
  193.2820  174.9650  141.8500 Cl  0  0  0  0  0  0  0  0  0  0  0  0
  190.4740  171.8690  144.5880 F   0  0  0  0  0  0  0  0  0  0  0  0
  190.5530  172.7210  143.5320 C   0  0  0  0  0  0  0  0  0  0  0  0
  189.5470  174.0450  141.6700 C   0  0  2  0  0  3  0  0  0  0  0  0
  191.7460  172.9990  142.9860 C   0  0  0  0  0  0  0  0  0  0  0  0
  189.2860  173.3430  143.0090 C   0  0  1  0  0  3  0  0  0  0  0  0
  190.7070  174.8290  141.7860 O   0  0  0  0  0  0  0  0  0  0  0  0
  188.3200  172.3500  142.8440 O   0  0  0  0  0  1  0  0  0  0  0  0
  192.8870  172.2500  143.4260 N   0  0  0  0  0  0  0  0  0  0  0  0
  193.3160  172.3010  144.6210 N   0  0  0  0  0  0  0  0  0  0  0  0
  194.4830  171.5270  145.0210 C   0  0  1  0  0  3  0  0  0  0  0  0
  194.0470  169.2480  144.1050 O   0  0  0  0  0  1  0  0  0  0  0  0
  194.7700  170.4320  144.0400 C   0  0  0  0  0  0  0  0  0  0  0  0
  195.6830  170.5600  143.1800 O   0  0  0  0  0  0  0  0  0  0  0  0
  195.6930  172.4360  145.2090 C   0  0  0  0  0  2  0  0  0  0  0  0
  195.2960  173.7470  145.6990 N   0  0  0  0  0  2  0  0  0  0  0  0
  195.9610  174.7340  144.8640 C   0  0  1  0  0  3  0  0  0  0  0  0
  195.9930  174.3020  143.5500 F   0  0  0  0  0  0  0  0  0  0  0  0
  195.2380  176.0680  144.9570 C   0  0  0  0  0  2  0  0  0  0  0  0
  193.8500  175.8820  144.8360 O   0  0  0  0  0  0  0  0  0  0  0  0
  193.1980  176.5700  145.8850 C   0  0  2  0  0  3  0  0  0  0  0  0
  194.0920  177.0120  146.8690 O   0  0  0  0  0  1  0  0  0  0  0  0
  192.4650  174.7520  147.2710 F   0  0  0  0  0  0  0  0  0  0  0  0
  191.2180  175.3030  145.4730 F   0  0  0  0  0  0  0  0  0  0  0  0
  192.0180  175.8000  146.4860 C   0  0  0  0  0  0  0  0  0  0  0  0
  191.2680  176.6580  147.2700 F   0  0  0  0  0  0  0  0  0  0  0  0
  188.3610  174.9410  141.2790 C   0  0  1  0  0  3  0  0  0  0  0  0
  188.4730  176.2200  141.8460 O   0  0  0  0  0  0  0  0  0  0  0  0
  187.3300  176.8530  141.4910 N   0  0  0  0  0  2  0  0  0  0  0  0
  186.3500  176.4510  142.4060 N   0  0  0  0  0  2  0  0  0  0  0  0
  184.0610  177.9950  141.6890 C   0  0  0  0  0  1  0  0  0  0  0  0
  184.6520  178.0800  143.0560 C   0  0  0  0  0  0  0  0  0  0  0  0
  184.0970  178.9360  143.9530 N   0  0  0  0  0  0  0  0  0  0  0  0
  185.7740  177.3060  143.4100 C   0  0  0  0  0  0  0  0  0  0  0  0
  185.6890  178.3290  145.6140 C   0  0  0  0  0  3  0  0  0  0  0  0
  184.5900  179.0780  145.2090 C   0  0  0  0  0  3  0  0  0  0  0  0
  186.2870  177.4160  144.7300 C   0  0  0  0  0  0  0  0  0  0  0  0
  188.0380  177.2560  146.4700 C   0  0  0  0  0  2  0  0  0  0  0  0
  187.4830  176.6300  145.2000 C   0  0  0  0  0  3  0  0  0  0  0  0
  188.7680  177.4470  145.1620 C   0  0  0  0  0  2  0  0  0  0  0  0
  188.1550  175.0150  139.8840 O   0  0  0  0  0  0  0  0  0  0  0  0
  188.2050  173.7150  139.3510 C   0  0  0  0  0  2  0  0  0  0  0  0
  188.5430  173.7670  137.8690 C   0  0  0  0  0  2  0  0  0  0  0  0
  190.9300  171.4550  136.0560 C   0  0  0  0  0  0  0  0  0  0  0  0
  189.7820  172.9900  137.5720 C   0  0  0  0  0  0  0  0  0  0  0  0
  190.9060  173.2540  138.2460 C   0  0  0  0  0  3  0  0  0  0  0  0
  189.7810  171.9680  136.5050 C   0  0  0  0  0  3  0  0  0  0  0  0
  192.2490  171.9930  136.5460 C   0  0  0  0  0  2  0  0  0  0  0  0
  190.9100  170.4180  134.9920 C   0  0  0  0  0  1  0  0  0  0  0  0
  192.1500  172.4360  138.0110 C   0  0  1  0  0  3  0  0  0  0  0  0
  194.0040  172.3370  139.2150 C   0  0  0  0  0  1  0  0  0  0  0  0
  193.2810  173.1730  138.3630 O   0  0  0  0  0  0  0  0  0  0  0  0
  1  2  1  1  0  0  0
  1  6  1  0  0  0  0
  4  3  1  0  0  0  0
  5 28  1  1  0  0  0
  5  8  1  0  0  0  0
  5  7  1  0  0  0  0
  6 10  1  0  0  0  0
  6  4  2  0  0  0  0
  7  9  1  6  0  0  0
  7  4  1  0  0  0  0
  8  1  1  0  0  0  0
 10 11  2  0  0  0  0
 11 12  1  0  0  0  0
 12 16  1  6  0  0  0
 14 13  1  0  0  0  0
 14 12  1  0  0  0  0
 15 14  2  0  0  0  0
 16 17  1  0  0  0  0
 18 19  1  6  0  0  0
 18 20  1  0  0  0  0
 18 17  1  0  0  0  0
 21 20  1  0  0  0  0
 21 22  1  0  0  0  0
 22 26  1  0  0  0  0
 22 23  1  1  0  0  0
 25 26  1  0  0  0  0
 26 27  1  0  0  0  0
 26 24  1  0  0  0  0
 28 42  1  6  0  0  0
 28 29  1  0  0  0  0
 30 29  1  0  0  0  0
 30 31  1  0  0  0  0
 31 35  1  0  0  0  0
 32 33  1  0  0  0  0
 33 35  2  0  0  0  0
 33 34  1  0  0  0  0
 34 37  2  0  0  0  0
 35 38  1  0  0  0  0
 37 36  1  0  0  0  0
 38 40  1  0  0  0  0
 38 36  2  0  0  0  0
 40 39  1  0  0  0  0
 41 40  1  0  0  0  0
 41 39  1  0  0  0  0
 43 42  1  0  0  0  0
 44 43  1  0  0  0  0
 45 48  2  0  0  0  0
 45 49  1  0  0  0  0
 46 44  1  0  0  0  0
 46 47  2  0  0  0  0
 48 46  1  0  0  0  0
 49 51  1  0  0  0  0
 50 45  1  0  0  0  0
 51 47  1  0  0  0  0
 51 53  1  6  0  0  0
 53 52  1  0  0  0  0
M  END
>  <MODEL>
5

>  <REMARK>
 VINA RESULT:      -6.0      2.700      6.331
  Name = 
  21 active torsions:
  status: ('A' for Active; 'I' for Inactive)
    1  A    between atoms: N_6  and  C_13
    2  A    between atoms: N_6  and  C_44
    3  A    between atoms: C_11  and  C_13
    4  A    between atoms: C_11  and  N_27
    5  A    between atoms: C_11  and  C_42
    6  A    between atoms: C_12  and  C_41
    7  A    between atoms: C_14  and  C_26
    8  A    between atoms: C_14  and  O_40
    9  A    between atoms: O_20  and  C_32
   10  A    between atoms: O_20  and  N_34
   11  A    between atoms: C_21  and  C_32
   12  A    between atoms: N_22  and  C_25
   13  A    between atoms: N_28  and  N_34
   14  A    between atoms: N_28  and  C_38
   15  A    between atoms: C_32  and  O_45
   16  A    between atoms: C_36  and  C_41
   17  A    between atoms: C_36  and  O_45
   18  A    between atoms: C_37  and  O_43
   19  A    between atoms: O_40  and  C_48
   20  A    between atoms: C_44  and  C_48
   21  A    between atoms: C_49  and  C_52
                            x       y       z     vdW  Elec       q    Type
                         _______ _______ _______ _____ _____    ______ ____

>  <TORSDO>
F 21

$$$$
=
 OpenBabel11042415073D

 53 56  0  0  1  0  0  0  0  0999 V2000
  191.7430  173.6640  139.7520 C   0  0  1  0  0  3  0  0  0  0  0  0
  193.3050  172.8580  140.0590 Cl  0  0  0  0  0  0  0  0  0  0  0  0
  189.7310  173.4530  136.6170 F   0  0  0  0  0  0  0  0  0  0  0  0
  190.0820  173.4870  137.9300 C   0  0  0  0  0  0  0  0  0  0  0  0
  189.5570  173.6870  140.3620 C   0  0  2  0  0  3  0  0  0  0  0  0
  191.3710  173.6250  138.2730 C   0  0  0  0  0  0  0  0  0  0  0  0
  189.0020  173.3550  138.9700 C   0  0  1  0  0  3  0  0  0  0  0  0
  190.7750  173.0110  140.5390 O   0  0  0  0  0  0  0  0  0  0  0  0
  187.9540  174.2220  138.6570 O   0  0  0  0  0  1  0  0  0  0  0  0
  192.3240  173.9080  137.2390 N   0  0  0  0  0  0  0  0  0  0  0  0
  193.3450  174.6380  137.4340 N   0  0  0  0  0  0  0  0  0  0  0  0
  194.2820  174.9040  136.3520 C   0  0  1  0  0  3  0  0  0  0  0  0
  192.8830  176.9070  135.8490 O   0  0  0  0  0  1  0  0  0  0  0  0
  194.1330  176.3030  135.8370 C   0  0  0  0  0  0  0  0  0  0  0  0
  195.1220  176.9230  135.3610 O   0  0  0  0  0  0  0  0  0  0  0  0
  195.7130  174.6250  136.7990 C   0  0  0  0  0  2  0  0  0  0  0  0
  195.7480  174.0860  138.1490 N   0  0  0  0  0  2  0  0  0  0  0  0
  196.7320  174.8570  138.8920 C   0  0  1  0  0  3  0  0  0  0  0  0
  197.2440  175.8660  138.0960 F   0  0  0  0  0  0  0  0  0  0  0  0
  196.0970  175.4470  140.1400 C   0  0  0  0  0  2  0  0  0  0  0  0
  197.0860  175.7740  141.0850 O   0  0  0  0  0  0  0  0  0  0  0  0
  196.7780  175.1440  142.3120 C   0  0  2  0  0  3  0  0  0  0  0  0
  195.9280  174.0430  142.1490 O   0  0  0  0  0  1  0  0  0  0  0  0
  196.3030  175.5150  144.6370 F   0  0  0  0  0  0  0  0  0  0  0  0
  194.9680  176.4860  143.0980 F   0  0  0  0  0  0  0  0  0  0  0  0
  196.2670  176.1090  143.3870 C   0  0  0  0  0  0  0  0  0  0  0  0
  197.0680  177.2360  143.4040 F   0  0  0  0  0  0  0  0  0  0  0  0
  188.5700  173.2600  141.4620 C   0  0  1  0  0  3  0  0  0  0  0  0
  189.0530  172.1610  142.1880 O   0  0  0  0  0  0  0  0  0  0  0  0
  188.7040  172.4180  143.4700 N   0  0  0  0  0  2  0  0  0  0  0  0
  189.8290  172.1390  144.2550 N   0  0  0  0  0  2  0  0  0  0  0  0
  192.4630  171.5140  143.3560 C   0  0  0  0  0  1  0  0  0  0  0  0
  192.1820  172.7710  144.1090 C   0  0  0  0  0  0  0  0  0  0  0  0
  193.2160  173.6060  144.3910 N   0  0  0  0  0  0  0  0  0  0  0  0
  190.8780  173.0820  144.5390 C   0  0  0  0  0  0  0  0  0  0  0  0
  191.7690  175.1190  145.5230 C   0  0  0  0  0  3  0  0  0  0  0  0
  193.0390  174.7580  145.0850 C   0  0  0  0  0  3  0  0  0  0  0  0
  190.6650  174.2980  145.2410 C   0  0  0  0  0  0  0  0  0  0  0  0
  189.4500  175.9100  146.6720 C   0  0  0  0  0  2  0  0  0  0  0  0
  189.3070  174.7160  145.7410 C   0  0  0  0  0  3  0  0  0  0  0  0
  189.1640  174.5440  147.2480 C   0  0  0  0  0  2  0  0  0  0  0  0
  188.2010  174.3190  142.3190 O   0  0  0  0  0  0  0  0  0  0  0  0
  188.5790  175.5350  141.7230 C   0  0  0  0  0  2  0  0  0  0  0  0
  188.7030  176.6220  142.7800 C   0  0  0  0  0  2  0  0  0  0  0  0
  186.0570  178.4470  144.7800 C   0  0  0  0  0  0  0  0  0  0  0  0
  187.3610  177.1410  143.1790 C   0  0  0  0  0  0  0  0  0  0  0  0
  186.3470  177.0870  142.3100 C   0  0  0  0  0  3  0  0  0  0  0  0
  187.1670  177.7530  144.5090 C   0  0  0  0  0  3  0  0  0  0  0  0
  185.0410  178.7140  143.7000 C   0  0  0  0  0  2  0  0  0  0  0  0
  185.8710  179.0450  146.1270 C   0  0  0  0  0  1  0  0  0  0  0  0
  184.9680  177.5410  142.7140 C   0  0  1  0  0  3  0  0  0  0  0  0
  185.1850  178.4060  140.6880 C   0  0  0  0  0  1  0  0  0  0  0  0
  184.2360  177.9130  141.5860 O   0  0  0  0  0  0  0  0  0  0  0  0
  1  2  1  6  0  0  0
  1  8  1  0  0  0  0
  3  4  1  0  0  0  0
  4  6  2  0  0  0  0
  4  7  1  0  0  0  0
  5  8  1  0  0  0  0
  5 28  1  1  0  0  0
  6  1  1  0  0  0  0
  7  9  1  6  0  0  0
  7  5  1  0  0  0  0
 10 11  2  0  0  0  0
 10  6  1  0  0  0  0
 12 16  1  1  0  0  0
 12 11  1  0  0  0  0
 14 13  1  0  0  0  0
 14 12  1  0  0  0  0
 15 14  2  0  0  0  0
 16 17  1  0  0  0  0
 17 18  1  0  0  0  0
 18 19  1  6  0  0  0
 18 20  1  0  0  0  0
 20 21  1  0  0  0  0
 21 22  1  0  0  0  0
 22 23  1  6  0  0  0
 22 26  1  0  0  0  0
 25 26  1  0  0  0  0
 26 27  1  0  0  0  0
 26 24  1  0  0  0  0
 28 29  1  1  0  0  0
 28 42  1  0  0  0  0
 29 30  1  0  0  0  0
 30 31  1  0  0  0  0
 31 35  1  0  0  0  0
 32 33  1  0  0  0  0
 33 34  2  0  0  0  0
 33 35  1  0  0  0  0
 34 37  1  0  0  0  0
 35 38  2  0  0  0  0
 37 36  2  0  0  0  0
 38 36  1  0  0  0  0
 38 40  1  0  0  0  0
 39 41  1  0  0  0  0
 40 39  1  0  0  0  0
 40 41  1  0  0  0  0
 43 42  1  0  0  0  0
 43 44  1  0  0  0  0
 44 46  1  0  0  0  0
 45 50  1  0  0  0  0
 46 48  1  0  0  0  0
 47 51  1  0  0  0  0
 47 46  2  0  0  0  0
 48 45  2  0  0  0  0
 49 45  1  0  0  0  0
 51 53  1  6  0  0  0
 51 49  1  0  0  0  0
 52 53  1  0  0  0  0
M  END
>  <MODEL>
6

>  <REMARK>
 VINA RESULT:      -5.9      3.269      7.673
  Name = 
  21 active torsions:
  status: ('A' for Active; 'I' for Inactive)
    1  A    between atoms: N_6  and  C_13
    2  A    between atoms: N_6  and  C_44
    3  A    between atoms: C_11  and  C_13
    4  A    between atoms: C_11  and  N_27
    5  A    between atoms: C_11  and  C_42
    6  A    between atoms: C_12  and  C_41
    7  A    between atoms: C_14  and  C_26
    8  A    between atoms: C_14  and  O_40
    9  A    between atoms: O_20  and  C_32
   10  A    between atoms: O_20  and  N_34
   11  A    between atoms: C_21  and  C_32
   12  A    between atoms: N_22  and  C_25
   13  A    between atoms: N_28  and  N_34
   14  A    between atoms: N_28  and  C_38
   15  A    between atoms: C_32  and  O_45
   16  A    between atoms: C_36  and  C_41
   17  A    between atoms: C_36  and  O_45
   18  A    between atoms: C_37  and  O_43
   19  A    between atoms: O_40  and  C_48
   20  A    between atoms: C_44  and  C_48
   21  A    between atoms: C_49  and  C_52
                            x       y       z     vdW  Elec       q    Type
                         _______ _______ _______ _____ _____    ______ ____

>  <TORSDO>
F 21

$$$$
=
 OpenBabel11042415073D

 53 56  0  0  1  0  0  0  0  0999 V2000
  184.8060  178.0680  140.6930 C   0  0  1  0  0  3  0  0  0  0  0  0
  184.1720  177.1680  139.2890 Cl  0  0  0  0  0  0  0  0  0  0  0  0
  182.9940  178.7340  143.8850 F   0  0  0  0  0  0  0  0  0  0  0  0
  183.9680  178.4160  142.9920 C   0  0  0  0  0  0  0  0  0  0  0  0
  186.3450  177.9880  142.3600 C   0  0  2  0  0  3  0  0  0  0  0  0
  183.6980  178.4250  141.6780 C   0  0  0  0  0  0  0  0  0  0  0  0
  185.3320  178.0460  143.5110 C   0  0  1  0  0  3  0  0  0  0  0  0
  185.7860  177.2570  141.2990 O   0  0  0  0  0  0  0  0  0  0  0  0
  185.7370  178.9910  144.4540 O   0  0  0  0  0  1  0  0  0  0  0  0
  182.4320  178.9430  141.2480 N   0  0  0  0  0  0  0  0  0  0  0  0
  181.3900  178.2200  141.1740 N   0  0  0  0  0  0  0  0  0  0  0  0
  180.1270  178.7880  140.7250 C   0  0  1  0  0  3  0  0  0  0  0  0
  177.8680  177.8440  141.2050 O   0  0  0  0  0  0  0  0  0  0  0  0
  179.0170  178.4650  141.6780 C   0  0  0  0  0  0  0  0  0  0  0  0
  179.1000  178.7810  142.8950 O   0  0  0  0  0  1  0  0  0  0  0  0
  180.2570  180.2920  140.5120 C   0  0  0  0  0  2  0  0  0  0  0  0
  178.9820  180.8820  140.1350 N   0  0  0  0  0  2  0  0  0  0  0  0
  178.8050  180.6450  138.7110 C   0  0  1  0  0  3  0  0  0  0  0  0
  177.8040  179.7120  138.5060 F   0  0  0  0  0  0  0  0  0  0  0  0
  178.4610  181.9450  138.0040 C   0  0  0  0  0  2  0  0  0  0  0  0
  179.5750  182.4270  137.2960 O   0  0  0  0  0  0  0  0  0  0  0  0
  180.1720  183.4760  138.0310 C   0  0  2  0  0  3  0  0  0  0  0  0
  179.2270  184.3780  138.5380 O   0  0  0  0  0  1  0  0  0  0  0  0
  181.0490  184.2050  135.9180 F   0  0  0  0  0  0  0  0  0  0  0  0
  182.5010  183.5440  137.5140 F   0  0  0  0  0  0  0  0  0  0  0  0
  181.3000  184.1900  137.2790 C   0  0  0  0  0  0  0  0  0  0  0  0
  181.3940  185.4930  137.7320 F   0  0  0  0  0  0  0  0  0  0  0  0
  187.6510  177.3160  142.8120 C   0  0  1  0  0  3  0  0  0  0  0  0
  187.4930  175.9290  142.9600 O   0  0  0  0  0  0  0  0  0  0  0  0
  188.1650  175.3950  141.9130 N   0  0  0  0  0  2  0  0  0  0  0  0
  188.0030  174.0070  142.0010 N   0  0  0  0  0  2  0  0  0  0  0  0
  189.8720  173.3030  144.0380 C   0  0  0  0  0  1  0  0  0  0  0  0
  189.9560  172.7060  142.6740 C   0  0  0  0  0  0  0  0  0  0  0  0
  190.9670  171.8380  142.4050 N   0  0  0  0  0  0  0  0  0  0  0  0
  189.0240  173.0460  141.6750 C   0  0  0  0  0  0  0  0  0  0  0  0
  190.2150  171.5600  140.1640 C   0  0  0  0  0  3  0  0  0  0  0  0
  191.1160  171.2680  141.1830 C   0  0  0  0  0  3  0  0  0  0  0  0
  189.1440  172.4380  140.3970 C   0  0  0  0  0  0  0  0  0  0  0  0
  188.9360  172.6510  137.9420 C   0  0  0  0  0  2  0  0  0  0  0  0
  188.1950  172.7390  139.2670 C   0  0  0  0  0  3  0  0  0  0  0  0
  188.5770  174.0030  138.5080 C   0  0  0  0  0  2  0  0  0  0  0  0
  188.7510  177.6200  141.9810 O   0  0  0  0  0  0  0  0  0  0  0  0
  189.7690  178.1860  142.7690 C   0  0  0  0  0  2  0  0  0  0  0  0
  189.5040  177.9160  144.2420 C   0  0  0  0  0  2  0  0  0  0  0  0
  191.4210  175.8260  146.7500 C   0  0  0  0  0  0  0  0  0  0  0  0
  190.6350  177.1650  144.8630 C   0  0  0  0  0  0  0  0  0  0  0  0
  191.7130  176.8680  144.1300 C   0  0  0  0  0  3  0  0  0  0  0  0
  190.5440  176.7100  146.2660 C   0  0  0  0  0  3  0  0  0  0  0  0
  192.4440  175.1910  145.8450 C   0  0  0  0  0  2  0  0  0  0  0  0
  191.3230  175.3890  148.1660 C   0  0  0  0  0  1  0  0  0  0  0  0
  192.8950  176.1710  144.7550 C   0  0  1  0  0  3  0  0  0  0  0  0
  193.4270  176.2300  142.6070 C   0  0  0  0  0  1  0  0  0  0  0  0
  193.6230  175.4930  143.7760 O   0  0  0  0  0  0  0  0  0  0  0  0
  1  2  1  6  0  0  0
  1  8  1  0  0  0  0
  1  6  1  0  0  0  0
  4  7  1  0  0  0  0
  4  3  1  0  0  0  0
  5 28  1  1  0  0  0
  5  7  1  0  0  0  0
  6  4  2  0  0  0  0
  7  9  1  1  0  0  0
  8  5  1  0  0  0  0
 10  6  1  0  0  0  0
 11 10  2  0  0  0  0
 12 16  1  1  0  0  0
 12 11  1  0  0  0  0
 12 14  1  0  0  0  0
 13 14  2  0  0  0  0
 14 15  1  0  0  0  0
 17 16  1  0  0  0  0
 18 19  1  1  0  0  0
 18 17  1  0  0  0  0
 20 18  1  0  0  0  0
 21 20  1  0  0  0  0
 21 22  1  0  0  0  0
 22 23  1  6  0  0  0
 24 26  1  0  0  0  0
 26 25  1  0  0  0  0
 26 27  1  0  0  0  0
 26 22  1  0  0  0  0
 28 42  1  6  0  0  0
 28 29  1  0  0  0  0
 30 31  1  0  0  0  0
 30 29  1  0  0  0  0
 33 32  1  0  0  0  0
 34 33  1  0  0  0  0
 35 31  1  0  0  0  0
 35 33  2  0  0  0  0
 36 38  2  0  0  0  0
 36 37  1  0  0  0  0
 37 34  2  0  0  0  0
 38 35  1  0  0  0  0
 39 41  1  0  0  0  0
 39 40  1  0  0  0  0
 40 38  1  0  0  0  0
 41 40  1  0  0  0  0
 42 43  1  0  0  0  0
 43 44  1  0  0  0  0
 44 46  1  0  0  0  0
 45 50  1  0  0  0  0
 46 48  1  0  0  0  0
 47 51  1  0  0  0  0
 47 46  2  0  0  0  0
 48 45  2  0  0  0  0
 49 45  1  0  0  0  0
 51 53  1  6  0  0  0
 51 49  1  0  0  0  0
 52 53  1  0  0  0  0
M  END
>  <MODEL>
7

>  <REMARK>
 VINA RESULT:      -5.9      6.584     10.366
  Name = 
  21 active torsions:
  status: ('A' for Active; 'I' for Inactive)
    1  A    between atoms: N_6  and  C_13
    2  A    between atoms: N_6  and  C_44
    3  A    between atoms: C_11  and  C_13
    4  A    between atoms: C_11  and  N_27
    5  A    between atoms: C_11  and  C_42
    6  A    between atoms: C_12  and  C_41
    7  A    between atoms: C_14  and  C_26
    8  A    between atoms: C_14  and  O_40
    9  A    between atoms: O_20  and  C_32
   10  A    between atoms: O_20  and  N_34
   11  A    between atoms: C_21  and  C_32
   12  A    between atoms: N_22  and  C_25
   13  A    between atoms: N_28  and  N_34
   14  A    between atoms: N_28  and  C_38
   15  A    between atoms: C_32  and  O_45
   16  A    between atoms: C_36  and  C_41
   17  A    between atoms: C_36  and  O_45
   18  A    between atoms: C_37  and  O_43
   19  A    between atoms: O_40  and  C_48
   20  A    between atoms: C_44  and  C_48
   21  A    between atoms: C_49  and  C_52
                            x       y       z     vdW  Elec       q    Type
                         _______ _______ _______ _____ _____    ______ ____

>  <TORSDO>
F 21

$$$$
=
 OpenBabel11042415073D

 53 56  0  0  1  0  0  0  0  0999 V2000
  191.5170  173.4580  141.8340 C   0  0  1  0  0  3  0  0  0  0  0  0
  193.1600  174.1050  142.0860 Cl  0  0  0  0  0  0  0  0  0  0  0  0
  189.3090  171.9680  144.4460 F   0  0  0  0  0  0  0  0  0  0  0  0
  189.7490  172.6900  143.3830 C   0  0  0  0  0  0  0  0  0  0  0  0
  189.3860  174.0530  141.3220 C   0  0  2  0  0  3  0  0  0  0  0  0
  191.0440  172.6420  143.0330 C   0  0  0  0  0  0  0  0  0  0  0  0
  188.7630  173.5410  142.6280 C   0  0  1  0  0  3  0  0  0  0  0  0
  190.6680  174.5570  141.5970 O   0  0  0  0  0  0  0  0  0  0  0  0
  187.6240  172.7850  142.3470 O   0  0  0  0  0  1  0  0  0  0  0  0
  191.8910  171.6900  143.6900 N   0  0  0  0  0  0  0  0  0  0  0  0
  193.0120  172.0100  144.1940 N   0  0  0  0  0  0  0  0  0  0  0  0
  193.8430  171.0070  144.8460 C   0  0  1  0  0  3  0  0  0  0  0  0
  194.3250  169.7170  142.7650 O   0  0  0  0  0  0  0  0  0  0  0  0
  193.8540  169.7240  144.0710 C   0  0  0  0  0  0  0  0  0  0  0  0
  193.4080  168.6610  144.5800 O   0  0  0  0  0  1  0  0  0  0  0  0
  195.2570  171.5370  145.0630 C   0  0  0  0  0  2  0  0  0  0  0  0
  195.3560  172.9390  144.6910 N   0  0  0  0  0  2  0  0  0  0  0  0
  196.0410  173.6220  145.7760 C   0  0  1  0  0  3  0  0  0  0  0  0
  197.4050  173.4020  145.6910 F   0  0  0  0  0  0  0  0  0  0  0  0
  195.7490  175.1120  145.7220 C   0  0  0  0  0  2  0  0  0  0  0  0
  194.7180  175.3760  144.8030 O   0  0  0  0  0  0  0  0  0  0  0  0
  193.8240  176.3140  145.3680 C   0  0  2  0  0  3  0  0  0  0  0  0
  194.4090  177.0500  146.4070 O   0  0  0  0  0  1  0  0  0  0  0  0
  191.7970  176.5610  146.6320 F   0  0  0  0  0  0  0  0  0  0  0  0
  192.6850  174.4970  146.4160 F   0  0  0  0  0  0  0  0  0  0  0  0
  192.4780  175.7080  145.7810 C   0  0  0  0  0  0  0  0  0  0  0  0
  191.7100  175.4970  144.6510 F   0  0  0  0  0  0  0  0  0  0  0  0
  188.5230  175.1620  140.7000 C   0  0  1  0  0  3  0  0  0  0  0  0
  187.8400  174.7060  139.5620 O   0  0  0  0  0  0  0  0  0  0  0  0
  188.6900  173.8280  138.9820 N   0  0  0  0  0  2  0  0  0  0  0  0
  188.3380  173.7660  137.6280 N   0  0  0  0  0  2  0  0  0  0  0  0
  186.8120  175.9300  136.5680 C   0  0  0  0  0  1  0  0  0  0  0  0
  188.1820  175.6300  136.0590 C   0  0  0  0  0  0  0  0  0  0  0  0
  188.6820  176.3900  135.0500 N   0  0  0  0  0  0  0  0  0  0  0  0
  188.9370  174.5690  136.5940 C   0  0  0  0  0  0  0  0  0  0  0  0
  190.7060  175.1380  135.0270 C   0  0  0  0  0  3  0  0  0  0  0  0
  189.9130  176.1660  134.5260 C   0  0  0  0  0  3  0  0  0  0  0  0
  190.2410  174.3360  136.0810 C   0  0  0  0  0  0  0  0  0  0  0  0
  192.0620  172.7730  135.4830 C   0  0  0  0  0  2  0  0  0  0  0  0
  191.1230  173.2260  136.5890 C   0  0  0  0  0  3  0  0  0  0  0  0
  190.8820  171.9110  135.8600 C   0  0  0  0  0  2  0  0  0  0  0  0
  187.6380  175.7620  141.6220 O   0  0  0  0  0  0  0  0  0  0  0  0
  187.9040  177.1430  141.6680 C   0  0  0  0  0  2  0  0  0  0  0  0
  188.8250  177.4610  142.8360 C   0  0  0  0  0  2  0  0  0  0  0  0
  188.3320  176.0160  146.3000 C   0  0  0  0  0  0  0  0  0  0  0  0
  188.1700  177.1460  144.1400 C   0  0  0  0  0  0  0  0  0  0  0  0
  187.0800  177.8250  144.5120 C   0  0  0  0  0  3  0  0  0  0  0  0
  188.7490  176.1240  145.0350 C   0  0  0  0  0  3  0  0  0  0  0  0
  187.3490  177.0070  146.8670 C   0  0  0  0  0  2  0  0  0  0  0  0
  188.9160  174.9750  147.1830 C   0  0  0  0  0  1  0  0  0  0  0  0
  186.3620  177.4770  145.7910 C   0  0  1  0  0  3  0  0  0  0  0  0
  184.8210  178.9470  145.1870 C   0  0  0  0  0  1  0  0  0  0  0  0
  185.6450  178.5820  146.2530 O   0  0  0  0  0  0  0  0  0  0  0  0
  1  2  1  1  0  0  0
  1  6  1  0  0  0  0
  4  3  1  0  0  0  0
  5 28  1  1  0  0  0
  5  8  1  0  0  0  0
  5  7  1  0  0  0  0
  6  4  2  0  0  0  0
  6 10  1  0  0  0  0
  7  9  1  6  0  0  0
  7  4  1  0  0  0  0
  8  1  1  0  0  0  0
 10 11  2  0  0  0  0
 11 12  1  0  0  0  0
 12 16  1  6  0  0  0
 13 14  2  0  0  0  0
 14 15  1  0  0  0  0
 14 12  1  0  0  0  0
 17 16  1  0  0  0  0
 17 18  1  0  0  0  0
 18 19  1  6  0  0  0
 20 18  1  0  0  0  0
 21 22  1  0  0  0  0
 21 20  1  0  0  0  0
 22 26  1  0  0  0  0
 22 23  1  1  0  0  0
 26 25  1  0  0  0  0
 26 24  1  0  0  0  0
 27 26  1  0  0  0  0
 28 29  1  6  0  0  0
 28 42  1  0  0  0  0
 30 29  1  0  0  0  0
 31 30  1  0  0  0  0
 33 32  1  0  0  0  0
 33 35  1  0  0  0  0
 34 33  2  0  0  0  0
 35 31  1  0  0  0  0
 36 38  1  0  0  0  0
 37 36  2  0  0  0  0
 37 34  1  0  0  0  0
 38 40  1  0  0  0  0
 38 35  2  0  0  0  0
 39 41  1  0  0  0  0
 39 40  1  0  0  0  0
 41 40  1  0  0  0  0
 42 43  1  0  0  0  0
 43 44  1  0  0  0  0
 44 46  1  0  0  0  0
 45 49  1  0  0  0  0
 45 50  1  0  0  0  0
 46 47  2  0  0  0  0
 46 48  1  0  0  0  0
 47 51  1  0  0  0  0
 48 45  2  0  0  0  0
 51 53  1  1  0  0  0
 51 49  1  0  0  0  0
 52 53  1  0  0  0  0
M  END
>  <MODEL>
8

>  <REMARK>
 VINA RESULT:      -5.8      3.187      7.659
  Name = 
  21 active torsions:
  status: ('A' for Active; 'I' for Inactive)
    1  A    between atoms: N_6  and  C_13
    2  A    between atoms: N_6  and  C_44
    3  A    between atoms: C_11  and  C_13
    4  A    between atoms: C_11  and  N_27
    5  A    between atoms: C_11  and  C_42
    6  A    between atoms: C_12  and  C_41
    7  A    between atoms: C_14  and  C_26
    8  A    between atoms: C_14  and  O_40
    9  A    between atoms: O_20  and  C_32
   10  A    between atoms: O_20  and  N_34
   11  A    between atoms: C_21  and  C_32
   12  A    between atoms: N_22  and  C_25
   13  A    between atoms: N_28  and  N_34
   14  A    between atoms: N_28  and  C_38
   15  A    between atoms: C_32  and  O_45
   16  A    between atoms: C_36  and  C_41
   17  A    between atoms: C_36  and  O_45
   18  A    between atoms: C_37  and  O_43
   19  A    between atoms: O_40  and  C_48
   20  A    between atoms: C_44  and  C_48
   21  A    between atoms: C_49  and  C_52
                            x       y       z     vdW  Elec       q    Type
                         _______ _______ _______ _____ _____    ______ ____

>  <TORSDO>
F 21

$$$$
=
 OpenBabel11042415073D

 53 56  0  0  1  0  0  0  0  0999 V2000
  189.0540  176.3700  143.2160 C   0  0  1  0  0  3  0  0  0  0  0  0
  189.6970  177.8980  143.8720 Cl  0  0  0  0  0  0  0  0  0  0  0  0
  187.3240  175.9310  139.9400 F   0  0  0  0  0  0  0  0  0  0  0  0
  188.1380  175.7330  141.0090 C   0  0  0  0  0  0  0  0  0  0  0  0
  189.6630  174.3370  142.4080 C   0  0  2  0  0  3  0  0  0  0  0  0
  188.1350  176.6120  142.0220 C   0  0  0  0  0  0  0  0  0  0  0  0
  189.0370  174.5250  141.0200 C   0  0  1  0  0  3  0  0  0  0  0  0
  190.1580  175.5730  142.8550 O   0  0  0  0  0  0  0  0  0  0  0  0
  188.2930  173.3960  140.6770 O   0  0  0  0  0  1  0  0  0  0  0  0
  187.1410  177.6460  142.0230 N   0  0  0  0  0  0  0  0  0  0  0  0
  185.9540  177.4510  142.4300 N   0  0  0  0  0  0  0  0  0  0  0  0
  184.9770  178.5290  142.4060 C   0  0  1  0  0  3  0  0  0  0  0  0
  182.6130  178.0830  141.7420 O   0  0  0  0  0  1  0  0  0  0  0  0
  183.9320  178.2910  141.3580 C   0  0  0  0  0  0  0  0  0  0  0  0
  184.2420  178.2440  140.1380 O   0  0  0  0  0  0  0  0  0  0  0  0
  184.3500  178.7200  143.7830 C   0  0  0  0  0  2  0  0  0  0  0  0
  185.0950  179.6890  144.5710 N   0  0  0  0  0  2  0  0  0  0  0  0
  185.5090  179.0190  145.7930 C   0  0  1  0  0  3  0  0  0  0  0  0
  184.4930  178.2020  146.2540 F   0  0  0  0  0  0  0  0  0  0  0  0
  186.7630  178.2000  145.5400 C   0  0  0  0  0  2  0  0  0  0  0  0
  187.3520  177.8150  146.7570 O   0  0  0  0  0  0  0  0  0  0  0  0
  187.2050  176.4190  146.9210 C   0  0  2  0  0  3  0  0  0  0  0  0
  186.3500  176.0930  147.9830 O   0  0  0  0  0  1  0  0  0  0  0  0
  188.5000  174.7140  148.0090 F   0  0  0  0  0  0  0  0  0  0  0  0
  189.5640  176.5580  147.2590 F   0  0  0  0  0  0  0  0  0  0  0  0
  188.5370  175.6660  147.0050 C   0  0  0  0  0  0  0  0  0  0  0  0
  188.7790  175.0340  145.7990 F   0  0  0  0  0  0  0  0  0  0  0  0
  190.8100  173.3140  142.3580 C   0  0  1  0  0  3  0  0  0  0  0  0
  192.0090  173.8610  142.8400 O   0  0  0  0  0  0  0  0  0  0  0  0
  192.7760  174.0300  141.7370 N   0  0  0  0  0  2  0  0  0  0  0  0
  193.2360  175.3520  141.7690 N   0  0  0  0  0  2  0  0  0  0  0  0
  195.4630  175.2890  139.9880 C   0  0  0  0  0  1  0  0  0  0  0  0
  195.6230  175.7130  141.4090 C   0  0  0  0  0  0  0  0  0  0  0  0
  196.8640  176.0400  141.8540 N   0  0  0  0  0  0  0  0  0  0  0  0
  194.5190  175.7550  142.2810 C   0  0  0  0  0  0  0  0  0  0  0  0
  196.0310  176.4910  144.0370 C   0  0  0  0  0  3  0  0  0  0  0  0
  197.0890  176.4200  143.1370 C   0  0  0  0  0  3  0  0  0  0  0  0
  194.7270  176.1790  143.6210 C   0  0  0  0  0  0  0  0  0  0  0  0
  194.1850  176.4750  146.0160 C   0  0  0  0  0  2  0  0  0  0  0  0
  193.6080  176.2560  144.6270 C   0  0  0  0  0  3  0  0  0  0  0  0
  193.6520  175.1150  145.6350 C   0  0  0  0  0  2  0  0  0  0  0  0
  190.5020  172.1010  143.0100 O   0  0  0  0  0  0  0  0  0  0  0  0
  190.1890  171.1340  142.0380 C   0  0  0  0  0  2  0  0  0  0  0  0
  191.4600  170.4820  141.5160 C   0  0  0  0  0  2  0  0  0  0  0  0
  190.8140  171.6860  137.9860 C   0  0  0  0  0  0  0  0  0  0  0  0
  191.7310  170.8840  140.1040 C   0  0  0  0  0  0  0  0  0  0  0  0
  192.9890  171.1040  139.7090 C   0  0  0  0  0  3  0  0  0  0  0  0
  190.6110  171.0840  139.1610 C   0  0  0  0  0  3  0  0  0  0  0  0
  192.1600  172.2750  137.6520 C   0  0  0  0  0  2  0  0  0  0  0  0
  189.6810  171.8680  137.0430 C   0  0  0  0  0  1  0  0  0  0  0  0
  193.2910  171.4430  138.2720 C   0  0  1  0  0  3  0  0  0  0  0  0
  194.9950  171.8460  136.9180 C   0  0  0  0  0  1  0  0  0  0  0  0
  194.4960  172.1420  138.1880 O   0  0  0  0  0  0  0  0  0  0  0  0
  1  2  1  6  0  0  0
  3  4  1  0  0  0  0
  4  7  1  0  0  0  0
  4  6  2  0  0  0  0
  5 28  1  6  0  0  0
  5  8  1  0  0  0  0
  6 10  1  0  0  0  0
  6  1  1  0  0  0  0
  7  9  1  1  0  0  0
  7  5  1  0  0  0  0
  8  1  1  0  0  0  0
 10 11  2  0  0  0  0
 12 11  1  0  0  0  0
 12 16  1  1  0  0  0
 14 13  1  0  0  0  0
 14 12  1  0  0  0  0
 15 14  2  0  0  0  0
 16 17  1  0  0  0  0
 17 18  1  0  0  0  0
 18 19  1  6  0  0  0
 20 18  1  0  0  0  0
 20 21  1  0  0  0  0
 21 22  1  0  0  0  0
 22 26  1  0  0  0  0
 22 23  1  1  0  0  0
 26 25  1  0  0  0  0
 26 24  1  0  0  0  0
 27 26  1  0  0  0  0
 28 29  1  1  0  0  0
 28 42  1  0  0  0  0
 30 31  1  0  0  0  0
 30 29  1  0  0  0  0
 31 35  1  0  0  0  0
 32 33  1  0  0  0  0
 33 34  2  0  0  0  0
 33 35  1  0  0  0  0
 34 37  1  0  0  0  0
 35 38  2  0  0  0  0
 37 36  2  0  0  0  0
 38 36  1  0  0  0  0
 38 40  1  0  0  0  0
 40 41  1  0  0  0  0
 40 39  1  0  0  0  0
 41 39  1  0  0  0  0
 43 42  1  0  0  0  0
 44 43  1  0  0  0  0
 45 48  2  0  0  0  0
 46 44  1  0  0  0  0
 47 46  2  0  0  0  0
 48 46  1  0  0  0  0
 49 45  1  0  0  0  0
 49 51  1  0  0  0  0
 50 45  1  0  0  0  0
 51 53  1  1  0  0  0
 51 47  1  0  0  0  0
 52 53  1  0  0  0  0
M  END
>  <MODEL>
9

>  <REMARK>
 VINA RESULT:      -5.8      3.067      8.620
  Name = 
  21 active torsions:
  status: ('A' for Active; 'I' for Inactive)
    1  A    between atoms: N_6  and  C_13
    2  A    between atoms: N_6  and  C_44
    3  A    between atoms: C_11  and  C_13
    4  A    between atoms: C_11  and  N_27
    5  A    between atoms: C_11  and  C_42
    6  A    between atoms: C_12  and  C_41
    7  A    between atoms: C_14  and  C_26
    8  A    between atoms: C_14  and  O_40
    9  A    between atoms: O_20  and  C_32
   10  A    between atoms: O_20  and  N_34
   11  A    between atoms: C_21  and  C_32
   12  A    between atoms: N_22  and  C_25
   13  A    between atoms: N_28  and  N_34
   14  A    between atoms: N_28  and  C_38
   15  A    between atoms: C_32  and  O_45
   16  A    between atoms: C_36  and  C_41
   17  A    between atoms: C_36  and  O_45
   18  A    between atoms: C_37  and  O_43
   19  A    between atoms: O_40  and  C_48
   20  A    between atoms: C_44  and  C_48
   21  A    between atoms: C_49  and  C_52
                            x       y       z     vdW  Elec       q    Type
                         _______ _______ _______ _____ _____    ______ ____

>  <TORSDO>
F 21

$$$$
