=
 OpenBabel11042414483D

 28 32  0  0  1  0  0  0  0  0999 V2000
  192.1510  174.7760  143.7170 C   0  0  0  0  0  2  0  0  0  0  0  0
  189.2840  175.1630  144.1270 C   0  0  1  0  0  3  0  0  0  0  0  0
  189.9450  175.2760  142.7760 C   0  0  0  0  0  0  0  0  0  0  0  0
  184.1150  178.6640  146.0720 C   0  0  0  0  0  3  0  0  0  0  0  0
  185.3940  177.7790  142.1910 C   0  0  0  0  0  0  0  0  0  0  0  0
  187.5870  176.3720  145.5130 O   0  0  0  0  0  0  0  0  0  0  0  0
  185.7600  177.5160  140.8390 N   0  0  0  0  0  1  0  0  0  0  0  0
  191.4480  174.4190  145.0290 C   0  0  2  0  0  3  0  0  0  0  0  0
  184.8380  178.2010  147.1760 C   0  0  0  0  0  3  0  0  0  0  0  0
  191.2100  175.0140  142.6160 N   0  0  0  0  0  0  0  0  0  0  0  0
  189.1410  175.6070  141.6440 N   0  0  0  0  0  0  0  0  0  0  0  0
  185.9950  177.4390  146.9890 C   0  0  0  0  0  3  0  0  0  0  0  0
  187.9710  176.1530  141.7890 C   0  0  0  0  0  3  0  0  0  0  0  0
  190.2860  175.3740  145.2520 C   0  0  0  0  0  2  0  0  0  0  0  0
  187.4160  176.4790  143.1270 C   0  0  0  0  0  0  0  0  0  0  0  0
  183.8400  178.8140  143.6720 C   0  0  0  0  0  3  0  0  0  0  0  0
  184.2720  178.5150  142.4210 N   0  0  0  0  0  0  0  0  0  0  0  0
  185.7160  177.5970  144.5820 C   0  0  0  0  0  0  0  0  0  0  0  0
  184.5500  178.3630  144.7780 C   0  0  0  0  0  0  0  0  0  0  0  0
  186.1630  177.2910  143.2800 C   0  0  0  0  0  0  0  0  0  0  0  0
  186.4340  177.1360  145.6970 C   0  0  0  0  0  0  0  0  0  0  0  0
  188.0720  176.0540  144.2360 C   0  0  0  0  0  0  0  0  0  0  0  0
  192.4200  174.5250  146.1900 C   0  0  0  0  0  2  0  0  0  0  0  0
  192.8920  175.8950  146.3200 N   0  0  0  0  0  2  0  0  0  0  0  0
  194.2730  176.2440  146.2220 C   0  0  0  0  0  0  0  0  0  0  0  0
  194.6180  177.4470  146.3520 O   0  0  0  0  0  0  0  0  0  0  0  0
  195.3200  175.2040  146.0030 C   0  0  0  0  0  2  0  0  0  0  0  0
  195.7950  175.2860  144.6950 O   0  0  0  0  0  1  0  0  0  0  0  0
  1  8  1  0  0  0  0
  2 22  1  0  0  0  0
  2 14  1  1  0  0  0
  3  2  1  0  0  0  0
  4  9  1  0  0  0  0
  5 17  1  0  0  0  0
  5 20  2  0  0  0  0
  6 21  1  0  0  0  0
  7  5  1  0  0  0  0
  8 14  1  0  0  0  0
  8 23  1  1  0  0  0
 10  3  2  0  0  0  0
 10  1  1  0  0  0  0
 11 13  2  0  0  0  0
 11  3  1  0  0  0  0
 12  9  2  0  0  0  0
 13 15  1  0  0  0  0
 15 20  1  0  0  0  0
 15 22  2  0  0  0  0
 16 19  1  0  0  0  0
 17 16  2  0  0  0  0
 18 19  1  0  0  0  0
 18 21  2  0  0  0  0
 19  4  2  0  0  0  0
 20 18  1  0  0  0  0
 21 12  1  0  0  0  0
 22  6  1  0  0  0  0
 23 24  1  0  0  0  0
 25 24  1  0  0  0  0
 25 26  2  0  0  0  0
 27 25  1  0  0  0  0
 28 27  1  0  0  0  0
M  END
>  <MODEL>
1

>  <REMARK>
 VINA RESULT:      -8.4      0.000      0.000
  Name = 
  3 active torsions:
  status: ('A' for Active; 'I' for Inactive)
    1  A    between atoms: C_8  and  C_22
    2  A    between atoms: N_10  and  C_22
    3  A    between atoms: C_11  and  C_24
                            x       y       z     vdW  Elec       q    Type
                         _______ _______ _______ _____ _____    ______ ____

>  <TORSDO>
F 3

$$$$
=
 OpenBabel11042414483D

 28 32  0  0  1  0  0  0  0  0999 V2000
  193.1740  175.7010  145.7200 C   0  0  0  0  0  2  0  0  0  0  0  0
  190.8960  177.2950  144.8200 C   0  0  1  0  0  3  0  0  0  0  0  0
  191.0240  176.7610  146.2250 C   0  0  0  0  0  0  0  0  0  0  0  0
  185.2560  178.0670  141.6030 C   0  0  0  0  0  3  0  0  0  0  0  0
  185.9360  177.8500  145.7230 C   0  0  0  0  0  0  0  0  0  0  0  0
  189.1670  177.5120  143.0250 O   0  0  0  0  0  0  0  0  0  0  0  0
  186.0850  177.7920  147.1380 N   0  0  0  0  0  1  0  0  0  0  0  0
  193.1630  176.4480  144.3820 C   0  0  2  0  0  3  0  0  0  0  0  0
  186.3220  177.9540  140.7050 C   0  0  0  0  0  3  0  0  0  0  0  0
  192.0910  176.1270  146.6140 N   0  0  0  0  0  0  0  0  0  0  0  0
  189.9750  177.0250  147.1570 N   0  0  0  0  0  0  0  0  0  0  0  0
  187.6240  177.7680  141.1790 C   0  0  0  0  0  3  0  0  0  0  0  0
  188.7940  177.3820  146.7540 C   0  0  0  0  0  3  0  0  0  0  0  0
  191.7430  176.4920  143.8440 C   0  0  0  0  0  2  0  0  0  0  0  0
  188.4610  177.5150  145.3130 C   0  0  0  0  0  0  0  0  0  0  0  0
  184.4430  178.1050  143.8820 C   0  0  0  0  0  3  0  0  0  0  0  0
  184.6870  178.0330  145.2150 N   0  0  0  0  0  0  0  0  0  0  0  0
  186.8020  177.8040  143.4640 C   0  0  0  0  0  0  0  0  0  0  0  0
  185.4930  177.9930  142.9780 C   0  0  0  0  0  0  0  0  0  0  0  0
  187.0490  177.7260  144.8500 C   0  0  0  0  0  0  0  0  0  0  0  0
  187.8660  177.6930  142.5540 C   0  0  0  0  0  0  0  0  0  0  0  0
  189.4540  177.4190  144.3940 C   0  0  0  0  0  0  0  0  0  0  0  0
  194.0630  175.7440  143.3830 C   0  0  0  0  0  2  0  0  0  0  0  0
  195.4590  175.9810  143.7180 N   0  0  0  0  0  2  0  0  0  0  0  0
  196.3990  176.4910  142.7720 C   0  0  0  0  0  0  0  0  0  0  0  0
  197.5950  176.6660  143.1210 O   0  0  0  0  0  0  0  0  0  0  0  0
  195.9980  176.7890  141.3660 C   0  0  0  0  0  2  0  0  0  0  0  0
  196.7850  176.0450  140.4870 O   0  0  0  0  0  1  0  0  0  0  0  0
  1 10  1  0  0  0  0
  2 14  1  6  0  0  0
  2  3  1  0  0  0  0
  3 10  2  0  0  0  0
  3 11  1  0  0  0  0
  4 19  1  0  0  0  0
  5  7  1  0  0  0  0
  6 22  1  0  0  0  0
  8 23  1  6  0  0  0
  8  1  1  0  0  0  0
  9 12  1  0  0  0  0
  9  4  2  0  0  0  0
 12 21  2  0  0  0  0
 13 11  2  0  0  0  0
 14  8  1  0  0  0  0
 15 13  1  0  0  0  0
 16 17  2  0  0  0  0
 17  5  1  0  0  0  0
 18 20  1  0  0  0  0
 19 18  2  0  0  0  0
 19 16  1  0  0  0  0
 20 15  1  0  0  0  0
 20  5  2  0  0  0  0
 21  6  1  0  0  0  0
 21 18  1  0  0  0  0
 22  2  1  0  0  0  0
 22 15  2  0  0  0  0
 23 24  1  0  0  0  0
 25 26  2  0  0  0  0
 25 24  1  0  0  0  0
 27 25  1  0  0  0  0
 28 27  1  0  0  0  0
M  END
>  <MODEL>
2

>  <REMARK>
 VINA RESULT:      -8.1      2.550      3.929
  Name = 
  3 active torsions:
  status: ('A' for Active; 'I' for Inactive)
    1  A    between atoms: C_8  and  C_22
    2  A    between atoms: N_10  and  C_22
    3  A    between atoms: C_11  and  C_24
                            x       y       z     vdW  Elec       q    Type
                         _______ _______ _______ _____ _____    ______ ____

>  <TORSDO>
F 3

$$$$
=
 OpenBabel11042414483D

 28 32  0  0  1  0  0  0  0  0999 V2000
  192.2680  175.6790  146.2280 C   0  0  0  0  0  2  0  0  0  0  0  0
  190.2120  177.3510  144.9970 C   0  0  1  0  0  3  0  0  0  0  0  0
  190.2010  176.9740  146.4570 C   0  0  0  0  0  0  0  0  0  0  0  0
  184.8820  178.2370  141.3140 C   0  0  0  0  0  3  0  0  0  0  0  0
  185.2820  178.4400  145.4710 C   0  0  0  0  0  0  0  0  0  0  0  0
  188.6260  177.5100  143.0680 O   0  0  0  0  0  0  0  0  0  0  0  0
  185.3360  178.5340  146.8910 N   0  0  0  0  0  1  0  0  0  0  0  0
  192.4110  176.2630  144.8200 C   0  0  2  0  0  3  0  0  0  0  0  0
  185.9860  177.9280  140.5130 C   0  0  0  0  0  3  0  0  0  0  0  0
  191.1770  176.2980  146.9900 N   0  0  0  0  0  0  0  0  0  0  0  0
  189.1260  177.4350  147.2760 N   0  0  0  0  0  0  0  0  0  0  0  0
  187.2330  177.6850  141.0980 C   0  0  0  0  0  3  0  0  0  0  0  0
  188.0120  177.8460  146.7520 C   0  0  0  0  0  3  0  0  0  0  0  0
  191.0370  176.3690  144.1780 C   0  0  0  0  0  2  0  0  0  0  0  0
  187.7840  177.8400  145.2850 C   0  0  0  0  0  0  0  0  0  0  0  0
  183.9370  178.6100  143.5100 C   0  0  0  0  0  3  0  0  0  0  0  0
  184.0890  178.6720  144.8570 N   0  0  0  0  0  0  0  0  0  0  0  0
  186.2780  178.0570  143.2990 C   0  0  0  0  0  0  0  0  0  0  0  0
  185.0250  178.3030  142.7020 C   0  0  0  0  0  0  0  0  0  0  0  0
  186.4290  178.1190  144.7000 C   0  0  0  0  0  0  0  0  0  0  0  0
  187.3800  177.7490  142.4870 C   0  0  0  0  0  0  0  0  0  0  0  0
  188.8180  177.5510  144.4560 C   0  0  0  0  0  0  0  0  0  0  0  0
  193.2990  175.3720  143.9710 C   0  0  0  0  0  2  0  0  0  0  0  0
  194.4110  176.1440  143.4350 N   0  0  0  0  0  2  0  0  0  0  0  0
  195.7610  175.9350  143.8500 C   0  0  0  0  0  0  0  0  0  0  0  0
  196.6770  176.6420  143.3550 O   0  0  0  0  0  0  0  0  0  0  0  0
  196.1030  174.9190  144.8880 C   0  0  0  0  0  2  0  0  0  0  0  0
  197.4130  174.4820  144.7010 O   0  0  0  0  0  1  0  0  0  0  0  0
  1 10  1  0  0  0  0
  2 14  1  6  0  0  0
  2  3  1  0  0  0  0
  3 10  2  0  0  0  0
  3 11  1  0  0  0  0
  4 19  1  0  0  0  0
  5  7  1  0  0  0  0
  6 22  1  0  0  0  0
  8 23  1  6  0  0  0
  8  1  1  0  0  0  0
  9 12  1  0  0  0  0
  9  4  2  0  0  0  0
 12 21  2  0  0  0  0
 13 11  2  0  0  0  0
 14  8  1  0  0  0  0
 15 13  1  0  0  0  0
 16 17  2  0  0  0  0
 17  5  1  0  0  0  0
 18 20  1  0  0  0  0
 19 18  2  0  0  0  0
 19 16  1  0  0  0  0
 20 15  1  0  0  0  0
 20  5  2  0  0  0  0
 21  6  1  0  0  0  0
 21 18  1  0  0  0  0
 22  2  1  0  0  0  0
 22 15  2  0  0  0  0
 24 25  1  0  0  0  0
 24 23  1  0  0  0  0
 25 27  1  0  0  0  0
 26 25  2  0  0  0  0
 28 27  1  0  0  0  0
M  END
>  <MODEL>
3

>  <REMARK>
 VINA RESULT:      -8.1      2.280      3.606
  Name = 
  3 active torsions:
  status: ('A' for Active; 'I' for Inactive)
    1  A    between atoms: C_8  and  C_22
    2  A    between atoms: N_10  and  C_22
    3  A    between atoms: C_11  and  C_24
                            x       y       z     vdW  Elec       q    Type
                         _______ _______ _______ _____ _____    ______ ____

>  <TORSDO>
F 3

$$$$
=
 OpenBabel11042414483D

 28 32  0  0  1  0  0  0  0  0999 V2000
  185.0640  178.0940  142.2170 C   0  0  0  0  0  2  0  0  0  0  0  0
  187.8590  177.5610  142.8850 C   0  0  1  0  0  3  0  0  0  0  0  0
  187.1250  176.8440  141.7800 C   0  0  0  0  0  0  0  0  0  0  0  0
  192.5380  174.9160  146.6090 C   0  0  0  0  0  3  0  0  0  0  0  0
  191.2210  173.7650  142.8110 C   0  0  0  0  0  0  0  0  0  0  0  0
  189.4210  177.0430  144.7700 O   0  0  0  0  0  0  0  0  0  0  0  0
  190.8350  173.3140  141.5160 N   0  0  0  0  0  1  0  0  0  0  0  0
  185.8750  178.9880  143.1600 C   0  0  2  0  0  3  0  0  0  0  0  0
  191.9440  176.0000  147.2630 C   0  0  0  0  0  3  0  0  0  0  0  0
  185.9070  177.1660  141.4540 N   0  0  0  0  0  0  0  0  0  0  0  0
  187.8170  175.8400  141.0350 N   0  0  0  0  0  0  0  0  0  0  0  0
  190.9060  176.7070  146.6500 C   0  0  0  0  0  3  0  0  0  0  0  0
  188.8980  175.2890  141.4970 C   0  0  0  0  0  3  0  0  0  0  0  0
  186.8910  178.1390  143.9070 C   0  0  0  0  0  2  0  0  0  0  0  0
  189.4610  175.6500  142.8220 C   0  0  0  0  0  0  0  0  0  0  0  0
  192.6730  173.4640  144.6780 C   0  0  0  0  0  3  0  0  0  0  0  0
  192.2310  173.1080  143.4450 N   0  0  0  0  0  0  0  0  0  0  0  0
  191.0430  175.2450  144.7170 C   0  0  0  0  0  0  0  0  0  0  0  0
  192.0910  174.5380  145.3400 C   0  0  0  0  0  0  0  0  0  0  0  0
  190.5860  174.8690  143.4370 C   0  0  0  0  0  0  0  0  0  0  0  0
  190.4550  176.3330  145.3810 C   0  0  0  0  0  0  0  0  0  0  0  0
  188.9290  176.6960  143.5030 C   0  0  0  0  0  0  0  0  0  0  0  0
  184.9540  179.6680  144.1560 C   0  0  0  0  0  2  0  0  0  0  0  0
  185.6350  179.8330  145.4320 N   0  0  0  0  0  2  0  0  0  0  0  0
  185.3200  179.0410  146.5770 C   0  0  0  0  0  0  0  0  0  0  0  0
  185.9400  179.2370  147.6550 O   0  0  0  0  0  0  0  0  0  0  0  0
  184.2450  178.0070  146.5320 C   0  0  0  0  0  2  0  0  0  0  0  0
  184.8160  176.7360  146.5130 O   0  0  0  0  0  1  0  0  0  0  0  0
  1  8  1  0  0  0  0
  2 22  1  0  0  0  0
  2 14  1  1  0  0  0
  3  2  1  0  0  0  0
  4  9  1  0  0  0  0
  5 20  2  0  0  0  0
  5 17  1  0  0  0  0
  6 21  1  0  0  0  0
  7  5  1  0  0  0  0
  8 14  1  0  0  0  0
  8 23  1  1  0  0  0
 10  3  2  0  0  0  0
 10  1  1  0  0  0  0
 11 13  2  0  0  0  0
 11  3  1  0  0  0  0
 12  9  2  0  0  0  0
 13 15  1  0  0  0  0
 15 20  1  0  0  0  0
 15 22  2  0  0  0  0
 16 19  1  0  0  0  0
 17 16  2  0  0  0  0
 18 19  1  0  0  0  0
 18 21  2  0  0  0  0
 19  4  2  0  0  0  0
 20 18  1  0  0  0  0
 21 12  1  0  0  0  0
 22  6  1  0  0  0  0
 23 24  1  0  0  0  0
 24 25  1  0  0  0  0
 25 26  2  0  0  0  0
 27 25  1  0  0  0  0
 28 27  1  0  0  0  0
M  END
>  <MODEL>
4

>  <REMARK>
 VINA RESULT:      -7.8      2.300      7.069
  Name = 
  3 active torsions:
  status: ('A' for Active; 'I' for Inactive)
    1  A    between atoms: C_8  and  C_22
    2  A    between atoms: N_10  and  C_22
    3  A    between atoms: C_11  and  C_24
                            x       y       z     vdW  Elec       q    Type
                         _______ _______ _______ _____ _____    ______ ____

>  <TORSDO>
F 3

$$$$
=
 OpenBabel11042414483D

 28 32  0  0  1  0  0  0  0  0999 V2000
  190.7770  172.7810  144.1880 C   0  0  0  0  0  2  0  0  0  0  0  0
  189.2520  175.2730  144.1270 C   0  0  1  0  0  3  0  0  0  0  0  0
  189.6420  174.5780  145.4070 C   0  0  0  0  0  0  0  0  0  0  0  0
  183.7500  178.6960  143.2480 C   0  0  0  0  0  3  0  0  0  0  0  0
  185.7270  177.7450  146.8080 C   0  0  0  0  0  0  0  0  0  0  0  0
  187.2610  176.3980  143.1120 O   0  0  0  0  0  0  0  0  0  0  0  0
  186.3440  177.4700  148.0620 N   0  0  0  0  0  1  0  0  0  0  0  0
  190.5990  173.6110  142.9130 C   0  0  2  0  0  3  0  0  0  0  0  0
  184.2530  178.2510  142.0210 C   0  0  0  0  0  3  0  0  0  0  0  0
  190.3940  173.5160  145.4000 N   0  0  0  0  0  0  0  0  0  0  0  0
  189.2320  175.1480  146.6500 N   0  0  0  0  0  0  0  0  0  0  0  0
  185.4210  177.4850  141.9770 C   0  0  0  0  0  3  0  0  0  0  0  0
  188.2620  176.0110  146.7050 C   0  0  0  0  0  3  0  0  0  0  0  0
  189.2480  174.3070  142.9520 C   0  0  0  0  0  2  0  0  0  0  0  0
  187.5170  176.4340  145.4920 C   0  0  0  0  0  0  0  0  0  0  0  0
  183.9300  178.8100  145.6590 C   0  0  0  0  0  3  0  0  0  0  0  0
  184.5890  178.4910  146.8020 N   0  0  0  0  0  0  0  0  0  0  0  0
  185.5950  177.6000  144.3960 C   0  0  0  0  0  0  0  0  0  0  0  0
  184.4180  178.3730  144.4330 C   0  0  0  0  0  0  0  0  0  0  0  0
  186.2730  177.2680  145.5870 C   0  0  0  0  0  0  0  0  0  0  0  0
  186.0920  177.1590  143.1590 C   0  0  0  0  0  0  0  0  0  0  0  0
  187.9590  176.0370  144.2730 C   0  0  0  0  0  0  0  0  0  0  0  0
  190.6730  172.7150  141.6910 C   0  0  0  0  0  2  0  0  0  0  0  0
  189.3790  172.6730  141.0260 N   0  0  0  0  0  2  0  0  0  0  0  0
  189.2480  172.5690  139.6080 C   0  0  0  0  0  0  0  0  0  0  0  0
  188.1000  172.5460  139.0930 O   0  0  0  0  0  0  0  0  0  0  0  0
  190.4470  172.5230  138.7210 C   0  0  0  0  0  2  0  0  0  0  0  0
  190.6190  173.7590  138.1010 O   0  0  0  0  0  1  0  0  0  0  0  0
  1 10  1  0  0  0  0
  2 14  1  6  0  0  0
  2 22  1  0  0  0  0
  2  3  1  0  0  0  0
  3 11  1  0  0  0  0
  4 19  1  0  0  0  0
  5  7  1  0  0  0  0
  6 21  1  0  0  0  0
  6 22  1  0  0  0  0
  8 23  1  6  0  0  0
  8 14  1  0  0  0  0
  8  1  1  0  0  0  0
  9  4  2  0  0  0  0
 10  3  2  0  0  0  0
 11 13  2  0  0  0  0
 12  9  1  0  0  0  0
 12 21  2  0  0  0  0
 15 20  1  0  0  0  0
 15 13  1  0  0  0  0
 16 17  2  0  0  0  0
 17  5  1  0  0  0  0
 18 19  2  0  0  0  0
 18 20  1  0  0  0  0
 19 16  1  0  0  0  0
 20  5  2  0  0  0  0
 21 18  1  0  0  0  0
 22 15  2  0  0  0  0
 24 23  1  0  0  0  0
 25 24  1  0  0  0  0
 26 25  2  0  0  0  0
 27 25  1  0  0  0  0
 28 27  1  0  0  0  0
M  END
>  <MODEL>
5

>  <REMARK>
 VINA RESULT:      -7.7      3.360      5.014
  Name = 
  3 active torsions:
  status: ('A' for Active; 'I' for Inactive)
    1  A    between atoms: C_8  and  C_22
    2  A    between atoms: N_10  and  C_22
    3  A    between atoms: C_11  and  C_24
                            x       y       z     vdW  Elec       q    Type
                         _______ _______ _______ _____ _____    ______ ____

>  <TORSDO>
F 3

$$$$
=
 OpenBabel11042414483D

 28 32  0  0  1  0  0  0  0  0999 V2000
  192.4580  175.0830  144.6880 C   0  0  0  0  0  2  0  0  0  0  0  0
  190.2530  176.9800  144.4070 C   0  0  1  0  0  3  0  0  0  0  0  0
  190.7280  176.4610  145.7410 C   0  0  0  0  0  0  0  0  0  0  0  0
  184.0620  178.5200  142.9720 C   0  0  0  0  0  3  0  0  0  0  0  0
  185.9260  178.2860  146.7070 C   0  0  0  0  0  0  0  0  0  0  0  0
  188.1070  177.4160  143.1980 O   0  0  0  0  0  0  0  0  0  0  0  0
  186.4890  178.2350  148.0150 N   0  0  0  0  0  1  0  0  0  0  0  0
  192.1430  175.7960  143.3690 C   0  0  2  0  0  3  0  0  0  0  0  0
  184.7790  178.2320  141.8060 C   0  0  0  0  0  3  0  0  0  0  0  0
  191.7670  175.6820  145.8350 N   0  0  0  0  0  0  0  0  0  0  0  0
  190.0580  176.8960  146.9240 N   0  0  0  0  0  0  0  0  0  0  0  0
  186.1260  177.8630  141.8830 C   0  0  0  0  0  3  0  0  0  0  0  0
  188.8700  177.4180  146.8690 C   0  0  0  0  0  3  0  0  0  0  0  0
  190.6460  176.0400  143.2760 C   0  0  0  0  0  2  0  0  0  0  0  0
  188.1370  177.5700  145.5870 C   0  0  0  0  0  0  0  0  0  0  0  0
  183.9940  178.7240  145.3820 C   0  0  0  0  0  3  0  0  0  0  0  0
  184.6190  178.6430  146.5840 N   0  0  0  0  0  0  0  0  0  0  0  0
  186.0500  178.0660  144.3010 C   0  0  0  0  0  0  0  0  0  0  0  0
  184.6940  178.4390  144.2160 C   0  0  0  0  0  0  0  0  0  0  0  0
  186.6930  177.9800  145.5530 C   0  0  0  0  0  0  0  0  0  0  0  0
  186.7610  177.7800  143.1250 C   0  0  0  0  0  0  0  0  0  0  0  0
  188.7810  177.3090  144.4220 C   0  0  0  0  0  0  0  0  0  0  0  0
  192.5920  174.9460  142.1940 C   0  0  0  0  0  2  0  0  0  0  0  0
  191.4510  174.2450  141.6230 N   0  0  0  0  0  2  0  0  0  0  0  0
  191.3030  172.8280  141.7040 C   0  0  0  0  0  0  0  0  0  0  0  0
  190.2970  172.2800  141.1820 O   0  0  0  0  0  0  0  0  0  0  0  0
  192.3370  171.9770  142.3630 C   0  0  0  0  0  2  0  0  0  0  0  0
  191.7620  170.7750  142.7730 O   0  0  0  0  0  1  0  0  0  0  0  0
  1 10  1  0  0  0  0
  2 14  1  6  0  0  0
  2 22  1  0  0  0  0
  2  3  1  0  0  0  0
  3 10  2  0  0  0  0
  3 11  1  0  0  0  0
  4 19  1  0  0  0  0
  5  7  1  0  0  0  0
  6 22  1  0  0  0  0
  8 23  1  6  0  0  0
  8  1  1  0  0  0  0
  9 12  1  0  0  0  0
  9  4  2  0  0  0  0
 12 21  2  0  0  0  0
 13 11  2  0  0  0  0
 14  8  1  0  0  0  0
 15 13  1  0  0  0  0
 16 17  2  0  0  0  0
 17  5  1  0  0  0  0
 18 20  1  0  0  0  0
 19 18  2  0  0  0  0
 19 16  1  0  0  0  0
 20 15  1  0  0  0  0
 20  5  2  0  0  0  0
 21  6  1  0  0  0  0
 21 18  1  0  0  0  0
 22 15  2  0  0  0  0
 24 25  1  0  0  0  0
 24 23  1  0  0  0  0
 25 27  1  0  0  0  0
 26 25  2  0  0  0  0
 27 28  1  0  0  0  0
M  END
>  <MODEL>
6

>  <REMARK>
 VINA RESULT:      -7.5      2.723      4.283
  Name = 
  3 active torsions:
  status: ('A' for Active; 'I' for Inactive)
    1  A    between atoms: C_8  and  C_22
    2  A    between atoms: N_10  and  C_22
    3  A    between atoms: C_11  and  C_24
                            x       y       z     vdW  Elec       q    Type
                         _______ _______ _______ _____ _____    ______ ____

>  <TORSDO>
F 3

$$$$
=
 OpenBabel11042414483D

 28 32  0  0  1  0  0  0  0  0999 V2000
  184.8910  179.2250  145.6420 C   0  0  0  0  0  2  0  0  0  0  0  0
  186.4990  176.8670  145.0180 C   0  0  1  0  0  3  0  0  0  0  0  0
  186.7500  177.7390  146.2220 C   0  0  0  0  0  0  0  0  0  0  0  0
  191.1310  173.7230  141.6380 C   0  0  0  0  0  3  0  0  0  0  0  0
  191.2280  175.1210  145.5770 C   0  0  0  0  0  0  0  0  0  0  0  0
  187.7890  175.7250  143.2030 O   0  0  0  0  0  0  0  0  0  0  0  0
  191.3380  175.5610  146.9280 N   0  0  0  0  0  1  0  0  0  0  0  0
  184.4860  178.2070  144.5720 C   0  0  2  0  0  3  0  0  0  0  0  0
  189.9950  173.9210  140.8460 C   0  0  0  0  0  3  0  0  0  0  0  0
  185.9620  178.7320  146.5160 N   0  0  0  0  0  0  0  0  0  0  0  0
  187.8360  177.4140  147.0900 N   0  0  0  0  0  0  0  0  0  0  0  0
  188.8830  174.5890  141.3680 C   0  0  0  0  0  3  0  0  0  0  0  0
  188.8010  176.6400  146.6960 C   0  0  0  0  0  3  0  0  0  0  0  0
  185.7370  177.6210  143.9380 C   0  0  0  0  0  2  0  0  0  0  0  0
  188.8420  176.0700  145.3250 C   0  0  0  0  0  0  0  0  0  0  0  0
  192.2760  174.0020  143.7520 C   0  0  0  0  0  3  0  0  0  0  0  0
  192.2850  174.4630  145.0280 N   0  0  0  0  0  0  0  0  0  0  0  0
  190.0380  174.8700  143.4850 C   0  0  0  0  0  0  0  0  0  0  0  0
  191.1540  174.1940  142.9530 C   0  0  0  0  0  0  0  0  0  0  0  0
  190.0550  175.3490  144.8110 C   0  0  0  0  0  0  0  0  0  0  0  0
  188.9020  175.0620  142.6830 C   0  0  0  0  0  0  0  0  0  0  0  0
  187.7680  176.2270  144.5120 C   0  0  0  0  0  0  0  0  0  0  0  0
  183.6440  178.8790  143.5030 C   0  0  0  0  0  2  0  0  0  0  0  0
  184.1220  178.5000  142.1820 N   0  0  0  0  0  2  0  0  0  0  0  0
  183.2380  178.1730  141.1100 C   0  0  0  0  0  0  0  0  0  0  0  0
  183.7140  177.8450  139.9920 O   0  0  0  0  0  0  0  0  0  0  0  0
  181.7570  178.1780  141.2990 C   0  0  0  0  0  2  0  0  0  0  0  0
  181.2050  179.2770  140.6430 O   0  0  0  0  0  1  0  0  0  0  0  0
  1 10  1  0  0  0  0
  2 14  1  6  0  0  0
  2  3  1  0  0  0  0
  3 10  2  0  0  0  0
  3 11  1  0  0  0  0
  4 19  1  0  0  0  0
  5  7  1  0  0  0  0
  6 22  1  0  0  0  0
  8 23  1  6  0  0  0
  8  1  1  0  0  0  0
  9 12  1  0  0  0  0
  9  4  2  0  0  0  0
 12 21  2  0  0  0  0
 13 11  2  0  0  0  0
 14  8  1  0  0  0  0
 15 13  1  0  0  0  0
 16 17  2  0  0  0  0
 17  5  1  0  0  0  0
 18 20  1  0  0  0  0
 19 18  2  0  0  0  0
 19 16  1  0  0  0  0
 20 15  1  0  0  0  0
 20  5  2  0  0  0  0
 21  6  1  0  0  0  0
 21 18  1  0  0  0  0
 22  2  1  0  0  0  0
 22 15  2  0  0  0  0
 24 23  1  0  0  0  0
 25 27  1  0  0  0  0
 25 24  1  0  0  0  0
 26 25  2  0  0  0  0
 28 27  1  0  0  0  0
M  END
>  <MODEL>
7

>  <REMARK>
 VINA RESULT:      -7.3      2.855      8.400
  Name = 
  3 active torsions:
  status: ('A' for Active; 'I' for Inactive)
    1  A    between atoms: C_8  and  C_22
    2  A    between atoms: N_10  and  C_22
    3  A    between atoms: C_11  and  C_24
                            x       y       z     vdW  Elec       q    Type
                         _______ _______ _______ _____ _____    ______ ____

>  <TORSDO>
F 3

$$$$
=
 OpenBabel11042414483D

 28 32  0  0  1  0  0  0  0  0999 V2000
  189.8840  172.7720  140.5470 C   0  0  0  0  0  2  0  0  0  0  0  0
  188.9010  175.2130  141.8190 C   0  0  1  0  0  3  0  0  0  0  0  0
  189.8460  174.2530  142.4980 C   0  0  0  0  0  0  0  0  0  0  0  0
  184.3060  178.7310  144.8630 C   0  0  0  0  0  3  0  0  0  0  0  0
  187.7900  177.0230  146.4240 C   0  0  0  0  0  0  0  0  0  0  0  0
  186.8380  176.5280  142.3410 O   0  0  0  0  0  0  0  0  0  0  0  0
  188.9580  176.4800  147.0300 N   0  0  0  0  0  1  0  0  0  0  0  0
  189.1330  173.8630  139.7760 C   0  0  2  0  0  3  0  0  0  0  0  0
  183.9850  178.5690  143.5120 C   0  0  0  0  0  3  0  0  0  0  0  0
  190.3300  173.2210  141.8710 N   0  0  0  0  0  0  0  0  0  0  0  0
  190.2670  174.5340  143.8330 N   0  0  0  0  0  0  0  0  0  0  0  0
  184.8280  177.8340  142.6730 C   0  0  0  0  0  3  0  0  0  0  0  0
  189.6060  175.3610  144.5850 C   0  0  0  0  0  3  0  0  0  0  0  0
  188.1280  174.5290  140.7010 C   0  0  0  0  0  2  0  0  0  0  0  0
  188.3730  176.0390  144.1120 C   0  0  0  0  0  0  0  0  0  0  0  0
  185.8050  178.3110  146.7170 C   0  0  0  0  0  3  0  0  0  0  0  0
  186.9410  177.7490  147.2020 N   0  0  0  0  0  0  0  0  0  0  0  0
  186.3260  177.4130  144.5370 C   0  0  0  0  0  0  0  0  0  0  0  0
  185.4730  178.1560  145.3760 C   0  0  0  0  0  0  0  0  0  0  0  0
  187.5030  176.8290  145.0480 C   0  0  0  0  0  0  0  0  0  0  0  0
  185.9960  177.2570  143.1810 C   0  0  0  0  0  0  0  0  0  0  0  0
  188.0120  175.9220  142.8100 C   0  0  0  0  0  0  0  0  0  0  0  0
  188.4060  173.2580  138.5890 C   0  0  0  0  0  2  0  0  0  0  0  0
  188.0660  174.3000  137.6310 N   0  0  0  0  0  2  0  0  0  0  0  0
  188.8850  174.5980  136.5000 C   0  0  0  0  0  0  0  0  0  0  0  0
  188.5400  175.5170  135.7120 O   0  0  0  0  0  0  0  0  0  0  0  0
  190.1610  173.8650  136.2520 C   0  0  0  0  0  2  0  0  0  0  0  0
  191.2420  174.6860  136.5700 O   0  0  0  0  0  1  0  0  0  0  0  0
  1 10  1  0  0  0  0
  2 14  1  6  0  0  0
  2  3  1  0  0  0  0
  2 22  1  0  0  0  0
  3 11  1  0  0  0  0
  4 19  1  0  0  0  0
  5  7  1  0  0  0  0
  5 17  1  0  0  0  0
  6 22  1  0  0  0  0
  6 21  1  0  0  0  0
  8 23  1  6  0  0  0
  8  1  1  0  0  0  0
  8 14  1  0  0  0  0
  9  4  2  0  0  0  0
 10  3  2  0  0  0  0
 11 13  2  0  0  0  0
 12 21  2  0  0  0  0
 12  9  1  0  0  0  0
 15 13  1  0  0  0  0
 15 20  1  0  0  0  0
 16 17  2  0  0  0  0
 18 20  1  0  0  0  0
 18 19  2  0  0  0  0
 19 16  1  0  0  0  0
 20  5  2  0  0  0  0
 21 18  1  0  0  0  0
 22 15  2  0  0  0  0
 24 23  1  0  0  0  0
 25 24  1  0  0  0  0
 26 25  2  0  0  0  0
 27 25  1  0  0  0  0
 27 28  1  0  0  0  0
M  END
>  <MODEL>
8

>  <REMARK>
 VINA RESULT:      -7.3      3.761      5.848
  Name = 
  3 active torsions:
  status: ('A' for Active; 'I' for Inactive)
    1  A    between atoms: C_8  and  C_22
    2  A    between atoms: N_10  and  C_22
    3  A    between atoms: C_11  and  C_24
                            x       y       z     vdW  Elec       q    Type
                         _______ _______ _______ _____ _____    ______ ____

>  <TORSDO>
F 3

$$$$
=
 OpenBabel11042414483D

 28 32  0  0  1  0  0  0  0  0999 V2000
  191.4260  173.4290  142.1150 C   0  0  0  0  0  2  0  0  0  0  0  0
  189.0050  174.5530  143.3060 C   0  0  1  0  0  3  0  0  0  0  0  0
  189.3280  174.6640  141.8370 C   0  0  0  0  0  0  0  0  0  0  0  0
  185.8020  179.0660  146.7890 C   0  0  0  0  0  3  0  0  0  0  0  0
  185.7830  178.4150  142.6590 C   0  0  0  0  0  0  0  0  0  0  0  0
  188.1500  175.9840  145.1720 O   0  0  0  0  0  0  0  0  0  0  0  0
  185.7160  178.2540  141.2450 N   0  0  0  0  0  1  0  0  0  0  0  0
  190.9790  173.1040  143.5440 C   0  0  2  0  0  3  0  0  0  0  0  0
  186.5860  178.2650  147.6260 C   0  0  0  0  0  3  0  0  0  0  0  0
  190.3720  174.0790  141.3270 N   0  0  0  0  0  0  0  0  0  0  0  0
  188.4230  175.3680  140.9870 N   0  0  0  0  0  0  0  0  0  0  0  0
  187.3680  177.2390  147.0860 C   0  0  0  0  0  3  0  0  0  0  0  0
  187.5510  176.1970  141.4760 C   0  0  0  0  0  3  0  0  0  0  0  0
  190.2600  174.3080  144.1310 C   0  0  0  0  0  2  0  0  0  0  0  0
  187.4600  176.4740  142.9320 C   0  0  0  0  0  0  0  0  0  0  0  0
  185.0270  179.6280  144.5670 C   0  0  0  0  0  3  0  0  0  0  0  0
  185.0340  179.3990  143.2290 N   0  0  0  0  0  0  0  0  0  0  0  0
  186.5900  177.8110  144.8590 C   0  0  0  0  0  0  0  0  0  0  0  0
  185.8020  178.8410  145.4100 C   0  0  0  0  0  0  0  0  0  0  0  0
  186.5960  177.5790  143.4680 C   0  0  0  0  0  0  0  0  0  0  0  0
  187.3720  177.0110  145.7070 C   0  0  0  0  0  0  0  0  0  0  0  0
  188.1940  175.7270  143.7940 C   0  0  0  0  0  0  0  0  0  0  0  0
  192.1810  172.7620  144.4040 C   0  0  0  0  0  2  0  0  0  0  0  0
  192.6130  171.3980  144.1350 N   0  0  0  0  0  2  0  0  0  0  0  0
  193.7480  170.8130  144.7750 C   0  0  0  0  0  0  0  0  0  0  0  0
  194.0750  169.6310  144.4940 O   0  0  0  0  0  0  0  0  0  0  0  0
  194.5760  171.5890  145.7450 C   0  0  0  0  0  2  0  0  0  0  0  0
  195.5830  172.2690  145.0620 O   0  0  0  0  0  1  0  0  0  0  0  0
  1  8  1  0  0  0  0
  2 22  1  0  0  0  0
  2 14  1  1  0  0  0
  3  2  1  0  0  0  0
  4  9  1  0  0  0  0
  5 17  1  0  0  0  0
  5 20  2  0  0  0  0
  6 21  1  0  0  0  0
  7  5  1  0  0  0  0
  8 14  1  0  0  0  0
  8 23  1  1  0  0  0
 10  3  2  0  0  0  0
 10  1  1  0  0  0  0
 11 13  2  0  0  0  0
 11  3  1  0  0  0  0
 12  9  2  0  0  0  0
 13 15  1  0  0  0  0
 15 20  1  0  0  0  0
 15 22  2  0  0  0  0
 16 19  1  0  0  0  0
 17 16  2  0  0  0  0
 18 19  1  0  0  0  0
 18 21  2  0  0  0  0
 19  4  2  0  0  0  0
 20 18  1  0  0  0  0
 21 12  1  0  0  0  0
 22  6  1  0  0  0  0
 24 23  1  0  0  0  0
 24 25  1  0  0  0  0
 25 27  1  0  0  0  0
 26 25  2  0  0  0  0
 28 27  1  0  0  0  0
M  END
>  <MODEL>
9

>  <REMARK>
 VINA RESULT:      -7.2      2.215      2.606
  Name = 
  3 active torsions:
  status: ('A' for Active; 'I' for Inactive)
    1  A    between atoms: C_8  and  C_22
    2  A    between atoms: N_10  and  C_22
    3  A    between atoms: C_11  and  C_24
                            x       y       z     vdW  Elec       q    Type
                         _______ _______ _______ _____ _____    ______ ____

>  <TORSDO>
F 3

$$$$
