=
 OpenBabel11042417123D

 38 42  0  0  1  0  0  0  0  0999 V2000
  184.0680  179.0640  143.8360 C   0  0  0  0  0  3  0  0  0  0  0  0
  189.5520  176.8620  146.3030 N   0  0  0  0  0  0  0  0  0  0  0  0
  184.8710  178.0960  143.5290 N   0  0  0  0  0  0  0  0  0  0  0  0
  183.8050  179.1080  145.2700 C   0  0  0  0  0  2  0  0  0  0  0  0
  188.7860  174.0940  142.0190 C   0  0  0  0  0  0  0  0  0  0  0  0
  184.4610  178.0810  145.7750 C   0  0  2  0  0  3  0  0  0  0  0  0
  189.0510  177.1360  143.9310 C   0  0  0  0  0  2  0  0  0  0  0  0
  184.8630  177.9990  147.1350 N   0  0  0  0  0  0  0  0  0  0  0  0
  188.4440  177.2370  146.8690 C   0  0  0  0  0  3  0  0  0  0  0  0
  187.8730  174.9050  142.4620 C   0  0  0  0  0  0  0  0  0  0  0  0
  190.2150  173.8660  144.0760 C   0  0  0  0  0  2  0  0  0  0  0  0
  187.0490  175.7410  143.0200 C   0  0  0  0  0  3  0  0  0  0  0  0
  185.1730  177.3210  144.7240 C   0  0  2  0  0  3  0  0  0  0  0  0
  187.0650  177.2900  146.3350 C   0  0  0  0  0  0  0  0  0  0  0  0
  186.0740  177.6080  147.4040 C   0  0  0  0  0  3  0  0  0  0  0  0
  189.8240  176.3100  144.9820 C   0  0  2  0  0  0  0  0  0  0  0  0
  187.5390  176.9010  143.8490 C   0  0  1  0  0  3  0  0  0  0  0  0
  189.4060  174.8190  144.9810 C   0  0  0  0  0  2  0  0  0  0  0  0
  186.6590  177.2260  145.0310 C   0  0  0  0  0  0  0  0  0  0  0  0
  190.1680  174.2180  142.5860 C   0  0  0  0  0  2  0  0  0  0  0  0
  192.1920  175.9120  145.6150 C   0  0  0  0  0  0  0  0  0  0  0  0
  191.3370  176.4350  144.7660 C   0  0  0  0  0  0  0  0  0  0  0  0
  193.0470  175.3890  146.4560 C   0  0  0  0  0  3  0  0  0  0  0  0
  194.1620  174.5380  146.0210 C   0  0  0  0  0  0  0  0  0  0  0  0
  195.4790  175.0190  145.9530 C   0  0  0  0  0  3  0  0  0  0  0  0
  193.8950  173.2120  145.6580 C   0  0  0  0  0  3  0  0  0  0  0  0
  194.9310  172.3730  145.2350 C   0  0  0  0  0  3  0  0  0  0  0  0
  196.5150  174.1820  145.5300 C   0  0  0  0  0  3  0  0  0  0  0  0
  196.2420  172.8580  145.1670 C   0  0  0  0  0  0  0  0  0  0  0  0
  197.3500  171.9580  144.7370 C   0  0  0  0  0  2  0  0  0  0  0  0
  197.5880  169.8530  145.8450 O   0  0  0  0  0  1  0  0  0  0  0  0
  197.2680  169.8200  143.4930 C   0  0  0  0  0  1  0  0  0  0  0  0
  196.9240  170.5000  144.8010 C   0  0  2  0  0  3  0  0  0  0  0  0
  192.5760  176.5890  142.7320 O   0  0  0  0  0  0  0  0  0  0  0  0
  191.6100  178.5330  143.4410 O   0  0  0  0  0  1  0  0  0  0  0  0
  191.8740  177.1780  143.5980 C   0  0  0  0  0  0  0  0  0  0  0  0
  188.4950  173.4390  139.6620 C   0  0  0  0  0  1  0  0  0  0  0  0
  188.4610  173.1430  141.0500 O   0  0  0  0  0  0  0  0  0  0  0  0
  1  4  1  0  0  0  0
  2  9  2  0  0  0  0
  3  1  2  0  0  0  0
  5 10  2  0  0  0  0
  5 20  1  0  0  0  0
  6  4  1  6  0  0  0
  6  8  1  0  0  0  0
  7 16  1  0  0  0  0
  8 15  2  0  0  0  0
 10 12  2  0  0  0  0
 11 18  1  0  0  0  0
 13  3  1  6  0  0  0
 13 19  1  0  0  0  0
 13  6  1  0  0  0  0
 14  9  1  0  0  0  0
 14 15  1  0  0  0  0
 16 22  1  6  0  0  0
 16  2  1  0  0  0  0
 17 12  1  1  0  0  0
 17  7  1  0  0  0  0
 17 19  1  0  0  0  0
 18 16  1  0  0  0  0
 19 14  2  0  0  0  0
 20 11  1  0  0  0  0
 21 23  2  0  0  0  0
 22 21  2  0  0  0  0
 24 23  1  0  0  0  0
 25 24  1  0  0  0  0
 26 24  2  0  0  0  0
 27 26  1  0  0  0  0
 28 25  2  0  0  0  0
 29 27  2  0  0  0  0
 29 28  1  0  0  0  0
 30 33  1  0  0  0  0
 30 29  1  0  0  0  0
 33 32  1  6  0  0  0
 33 31  1  0  0  0  0
 34 36  2  0  0  0  0
 35 36  1  0  0  0  0
 36 22  1  0  0  0  0
 37 38  1  0  0  0  0
 38  5  1  0  0  0  0
M  END
>  <MODEL>
1

>  <REMARK>
 VINA RESULT:      -9.1      0.000      0.000
  Name = 
  6 active torsions:
  status: ('A' for Active; 'I' for Inactive)
    1  A    between atoms: C_3  and  C_36
    2  A    between atoms: C_11  and  O_38
    3  A    between atoms: C_12  and  C_24
    4  A    between atoms: C_12  and  C_30
    5  A    between atoms: C_21  and  C_25
    6  A    between atoms: C_25  and  C_32
                            x       y       z     vdW  Elec       q    Type
                         _______ _______ _______ _____ _____    ______ ____

>  <TORSDO>
F 6

$$$$
=
 OpenBabel11042417123D

 38 42  0  0  1  0  0  0  0  0999 V2000
  184.2420  178.3880  146.2760 C   0  0  0  0  0  3  0  0  0  0  0  0
  189.1270  175.9950  142.8970 N   0  0  0  0  0  0  0  0  0  0  0  0
  185.4900  178.1600  146.5330 N   0  0  0  0  0  0  0  0  0  0  0  0
  184.0710  179.0350  144.9790 C   0  0  0  0  0  2  0  0  0  0  0  0
  190.9780  176.6670  147.6650 C   0  0  0  0  0  0  0  0  0  0  0  0
  185.2940  179.2140  144.5160 C   0  0  2  0  0  3  0  0  0  0  0  0
  188.6040  175.4850  145.2250 C   0  0  0  0  0  2  0  0  0  0  0  0
  185.5940  179.3750  143.1380 N   0  0  0  0  0  0  0  0  0  0  0  0
  188.2070  176.8570  142.5850 C   0  0  0  0  0  3  0  0  0  0  0  0
  189.8010  177.1080  147.3370 C   0  0  0  0  0  0  0  0  0  0  0  0
  191.9740  176.3170  145.3810 C   0  0  0  0  0  2  0  0  0  0  0  0
  188.6530  177.5030  146.8720 C   0  0  0  0  0  3  0  0  0  0  0  0
  186.3120  178.7090  145.4640 C   0  0  2  0  0  3  0  0  0  0  0  0
  187.3960  177.7480  143.4440 C   0  0  0  0  0  0  0  0  0  0  0  0
  186.5910  178.7090  142.6360 C   0  0  0  0  0  3  0  0  0  0  0  0
  189.7270  175.6430  144.1780 C   0  0  2  0  0  0  0  0  0  0  0  0
  187.9640  176.7770  145.7450 C   0  0  1  0  0  3  0  0  0  0  0  0
  190.7390  176.7510  144.5620 C   0  0  0  0  0  2  0  0  0  0  0  0
  187.2150  177.6830  144.7990 C   0  0  0  0  0  0  0  0  0  0  0  0
  191.6420  175.6920  146.7390 C   0  0  0  0  0  2  0  0  0  0  0  0
  191.7050  174.2790  143.5480 C   0  0  0  0  0  0  0  0  0  0  0  0
  190.4580  174.3130  143.9600 C   0  0  0  0  0  0  0  0  0  0  0  0
  192.9480  174.2420  143.1430 C   0  0  0  0  0  3  0  0  0  0  0  0
  193.9750  173.4360  143.8170 C   0  0  0  0  0  0  0  0  0  0  0  0
  193.6820  172.6630  144.9520 C   0  0  0  0  0  3  0  0  0  0  0  0
  195.2810  173.4510  143.3140 C   0  0  0  0  0  3  0  0  0  0  0  0
  196.2850  172.6990  143.9320 C   0  0  0  0  0  3  0  0  0  0  0  0
  194.6850  171.9110  145.5710 C   0  0  0  0  0  3  0  0  0  0  0  0
  195.9890  171.9310  145.0640 C   0  0  0  0  0  0  0  0  0  0  0  0
  197.0550  171.1130  145.7110 C   0  0  0  0  0  2  0  0  0  0  0  0
  196.6830  169.4250  147.3640 O   0  0  0  0  0  1  0  0  0  0  0  0
  197.3840  168.7110  145.2120 C   0  0  0  0  0  1  0  0  0  0  0  0
  196.5590  169.7040  146.0020 C   0  0  2  0  0  3  0  0  0  0  0  0
  189.8550  172.4260  145.2910 O   0  0  0  0  0  1  0  0  0  0  0  0
  188.9880  172.4520  143.1790 O   0  0  0  0  0  0  0  0  0  0  0  0
  189.7590  173.0220  144.1840 C   0  0  0  0  0  0  0  0  0  0  0  0
  191.1920  178.3120  149.4850 C   0  0  0  0  0  1  0  0  0  0  0  0
  191.5830  177.1080  148.8420 O   0  0  0  0  0  0  0  0  0  0  0  0
  1  3  2  0  0  0  0
  2 16  1  0  0  0  0
  4  1  1  0  0  0  0
  5 38  1  0  0  0  0
  6  4  1  6  0  0  0
  6 13  1  0  0  0  0
  8  6  1  0  0  0  0
  9  2  2  0  0  0  0
  9 14  1  0  0  0  0
 10  5  2  0  0  0  0
 11 20  1  0  0  0  0
 12 10  2  0  0  0  0
 13 19  1  6  0  0  0
 13  3  1  0  0  0  0
 14 19  2  0  0  0  0
 15  8  2  0  0  0  0
 15 14  1  0  0  0  0
 16 22  1  6  0  0  0
 16 18  1  0  0  0  0
 16  7  1  0  0  0  0
 17  7  1  6  0  0  0
 17 12  1  0  0  0  0
 18 11  1  0  0  0  0
 19 17  1  0  0  0  0
 20  5  1  0  0  0  0
 21 22  2  0  0  0  0
 22 36  1  0  0  0  0
 23 21  2  0  0  0  0
 23 24  1  0  0  0  0
 24 25  1  0  0  0  0
 25 28  2  0  0  0  0
 26 24  2  0  0  0  0
 26 27  1  0  0  0  0
 27 29  2  0  0  0  0
 29 28  1  0  0  0  0
 29 30  1  0  0  0  0
 30 33  1  0  0  0  0
 33 32  1  6  0  0  0
 33 31  1  0  0  0  0
 35 36  2  0  0  0  0
 36 34  1  0  0  0  0
 38 37  1  0  0  0  0
M  END
>  <MODEL>
2

>  <REMARK>
 VINA RESULT:      -8.4      2.137      4.086
  Name = 
  6 active torsions:
  status: ('A' for Active; 'I' for Inactive)
    1  A    between atoms: C_3  and  C_36
    2  A    between atoms: C_11  and  O_38
    3  A    between atoms: C_12  and  C_24
    4  A    between atoms: C_12  and  C_30
    5  A    between atoms: C_21  and  C_25
    6  A    between atoms: C_25  and  C_32
                            x       y       z     vdW  Elec       q    Type
                         _______ _______ _______ _____ _____    ______ ____

>  <TORSDO>
F 6

$$$$
=
 OpenBabel11042417123D

 38 42  0  0  1  0  0  0  0  0999 V2000
  194.1760  172.3980  145.7190 C   0  0  0  0  0  3  0  0  0  0  0  0
  190.4100  177.3940  144.3510 N   0  0  0  0  0  0  0  0  0  0  0  0
  193.1760  172.5810  144.9160 N   0  0  0  0  0  0  0  0  0  0  0  0
  195.1310  173.4980  145.6450 C   0  0  0  0  0  2  0  0  0  0  0  0
  188.4180  173.4340  141.7130 C   0  0  0  0  0  0  0  0  0  0  0  0
  194.6560  174.3090  144.7190 C   0  0  2  0  0  3  0  0  0  0  0  0
  189.6810  175.0860  144.6550 C   0  0  0  0  0  2  0  0  0  0  0  0
  194.9900  175.6870  144.6380 N   0  0  0  0  0  0  0  0  0  0  0  0
  191.6970  177.3040  144.5040 C   0  0  0  0  0  3  0  0  0  0  0  0
  189.5530  173.3190  142.3350 C   0  0  0  0  0  0  0  0  0  0  0  0
  188.2120  175.9390  141.6250 C   0  0  0  0  0  2  0  0  0  0  0  0
  190.6750  173.3470  142.9910 C   0  0  0  0  0  3  0  0  0  0  0  0
  193.3930  173.7970  144.1450 C   0  0  2  0  0  3  0  0  0  0  0  0
  192.6030  176.1440  144.3510 C   0  0  0  0  0  0  0  0  0  0  0  0
  194.0350  176.5490  144.4440 C   0  0  0  0  0  3  0  0  0  0  0  0
  189.4180  176.4170  143.9200 C   0  0  2  0  0  0  0  0  0  0  0  0
  190.8780  174.2600  144.1730 C   0  0  1  0  0  3  0  0  0  0  0  0
  189.5160  176.2690  142.3810 C   0  0  0  0  0  2  0  0  0  0  0  0
  192.2750  174.8180  144.2860 C   0  0  0  0  0  0  0  0  0  0  0  0
  187.5590  174.6180  142.0390 C   0  0  0  0  0  2  0  0  0  0  0  0
  187.4490  177.8880  143.5580 C   0  0  0  0  0  0  0  0  0  0  0  0
  188.0510  176.9930  144.3080 C   0  0  0  0  0  0  0  0  0  0  0  0
  186.8450  178.7760  142.8110 C   0  0  0  0  0  3  0  0  0  0  0  0
  185.4430  178.6350  142.3960 C   0  0  0  0  0  0  0  0  0  0  0  0
  184.3840  178.7700  143.3070 C   0  0  0  0  0  3  0  0  0  0  0  0
  185.1630  178.3510  141.0540 C   0  0  0  0  0  3  0  0  0  0  0  0
  183.8410  178.2070  140.6230 C   0  0  0  0  0  3  0  0  0  0  0  0
  183.0610  178.6260  142.8770 C   0  0  0  0  0  3  0  0  0  0  0  0
  182.7880  178.3400  141.5360 C   0  0  0  0  0  0  0  0  0  0  0  0
  181.3770  178.2080  141.0720 C   0  0  0  0  0  2  0  0  0  0  0  0
  179.4180  178.7210  142.3440 O   0  0  0  0  0  1  0  0  0  0  0  0
  179.9860  180.1930  140.5720 C   0  0  0  0  0  1  0  0  0  0  0  0
  180.5010  179.2950  141.6760 C   0  0  2  0  0  3  0  0  0  0  0  0
  186.1370  176.3780  145.5950 O   0  0  0  0  0  0  0  0  0  0  0  0
  188.1200  176.3740  146.7260 O   0  0  0  0  0  1  0  0  0  0  0  0
  187.3830  176.5690  145.5650 C   0  0  0  0  0  0  0  0  0  0  0  0
  188.1020  172.7250  139.3750 C   0  0  0  0  0  1  0  0  0  0  0  0
  188.0420  172.4760  140.7710 O   0  0  0  0  0  0  0  0  0  0  0  0
  2  9  2  0  0  0  0
  3  1  2  0  0  0  0
  4  1  1  0  0  0  0
  5 20  1  0  0  0  0
  5 10  2  0  0  0  0
  6  4  1  1  0  0  0
  8  6  1  0  0  0  0
 10 12  2  0  0  0  0
 11 20  1  0  0  0  0
 11 18  1  0  0  0  0
 13 19  1  1  0  0  0
 13  6  1  0  0  0  0
 13  3  1  0  0  0  0
 14 15  1  0  0  0  0
 14  9  1  0  0  0  0
 15  8  2  0  0  0  0
 16 22  1  1  0  0  0
 16  2  1  0  0  0  0
 16  7  1  0  0  0  0
 17 12  1  6  0  0  0
 17 19  1  0  0  0  0
 17  7  1  0  0  0  0
 18 16  1  0  0  0  0
 19 14  2  0  0  0  0
 21 22  2  0  0  0  0
 22 36  1  0  0  0  0
 23 21  2  0  0  0  0
 24 23  1  0  0  0  0
 24 25  1  0  0  0  0
 26 24  2  0  0  0  0
 27 26  1  0  0  0  0
 27 29  2  0  0  0  0
 28 25  2  0  0  0  0
 29 28  1  0  0  0  0
 30 29  1  0  0  0  0
 30 33  1  0  0  0  0
 33 32  1  6  0  0  0
 33 31  1  0  0  0  0
 36 34  2  0  0  0  0
 36 35  1  0  0  0  0
 37 38  1  0  0  0  0
 38  5  1  0  0  0  0
M  END
>  <MODEL>
3

>  <REMARK>
 VINA RESULT:      -8.1      3.181      9.822
  Name = 
  6 active torsions:
  status: ('A' for Active; 'I' for Inactive)
    1  A    between atoms: C_3  and  C_36
    2  A    between atoms: C_11  and  O_38
    3  A    between atoms: C_12  and  C_24
    4  A    between atoms: C_12  and  C_30
    5  A    between atoms: C_21  and  C_25
    6  A    between atoms: C_25  and  C_32
                            x       y       z     vdW  Elec       q    Type
                         _______ _______ _______ _____ _____    ______ ____

>  <TORSDO>
F 6

$$$$
=
 OpenBabel11042417123D

 38 42  0  0  1  0  0  0  0  0999 V2000
  184.7110  179.3810  144.2620 C   0  0  0  0  0  3  0  0  0  0  0  0
  189.7350  175.8890  146.1520 N   0  0  0  0  0  0  0  0  0  0  0  0
  185.3760  178.4000  143.7390 N   0  0  0  0  0  0  0  0  0  0  0  0
  184.4080  179.1340  145.6680 C   0  0  0  0  0  2  0  0  0  0  0  0
  188.7240  174.3160  141.3440 C   0  0  0  0  0  0  0  0  0  0  0  0
  184.8930  177.9330  145.9220 C   0  0  2  0  0  3  0  0  0  0  0  0
  189.3590  176.7670  143.9080 C   0  0  0  0  0  2  0  0  0  0  0  0
  185.2330  177.4850  147.2260 N   0  0  0  0  0  0  0  0  0  0  0  0
  188.6740  176.2830  146.7890 C   0  0  0  0  0  3  0  0  0  0  0  0
  187.9230  175.1300  141.9640 C   0  0  0  0  0  0  0  0  0  0  0  0
  190.0350  173.4160  143.2930 C   0  0  0  0  0  2  0  0  0  0  0  0
  187.2090  175.9290  142.7000 C   0  0  0  0  0  3  0  0  0  0  0  0
  185.5230  177.3380  144.7230 C   0  0  2  0  0  3  0  0  0  0  0  0
  187.3360  176.6600  146.2830 C   0  0  0  0  0  0  0  0  0  0  0  0
  186.3650  176.8690  147.3970 C   0  0  0  0  0  3  0  0  0  0  0  0
  189.9690  175.6190  144.7390 C   0  0  2  0  0  0  0  0  0  0  0  0
  187.8320  176.7830  143.7740 C   0  0  1  0  0  3  0  0  0  0  0  0
  189.3420  174.2460  144.3940 C   0  0  0  0  0  2  0  0  0  0  0  0
  186.9690  176.9560  144.9990 C   0  0  0  0  0  0  0  0  0  0  0  0
  190.0890  174.1020  141.9250 C   0  0  0  0  0  2  0  0  0  0  0  0
  192.2110  174.6210  145.1190 C   0  0  0  0  0  0  0  0  0  0  0  0
  191.4910  175.5650  144.5570 C   0  0  0  0  0  0  0  0  0  0  0  0
  192.9320  173.6810  145.6730 C   0  0  0  0  0  3  0  0  0  0  0  0
  193.9150  172.8910  144.9190 C   0  0  0  0  0  0  0  0  0  0  0  0
  193.9610  172.9110  143.5160 C   0  0  0  0  0  3  0  0  0  0  0  0
  194.8210  172.0910  145.6260 C   0  0  0  0  0  3  0  0  0  0  0  0
  195.7680  171.3230  144.9420 C   0  0  0  0  0  3  0  0  0  0  0  0
  194.9070  172.1430  142.8310 C   0  0  0  0  0  3  0  0  0  0  0  0
  195.8100  171.3450  143.5420 C   0  0  0  0  0  0  0  0  0  0  0  0
  196.8330  170.5430  142.8130 C   0  0  0  0  0  2  0  0  0  0  0  0
  195.1710  168.8460  143.0830 O   0  0  0  0  0  1  0  0  0  0  0  0
  197.2940  168.1750  142.2620 C   0  0  0  0  0  1  0  0  0  0  0  0
  196.2330  169.2540  142.2740 C   0  0  2  0  0  3  0  0  0  0  0  0
  192.5160  177.7020  144.2810 O   0  0  0  0  0  1  0  0  0  0  0  0
  192.5050  176.3730  142.4240 O   0  0  0  0  0  0  0  0  0  0  0  0
  192.1930  176.6010  143.7590 C   0  0  0  0  0  0  0  0  0  0  0  0
  188.1810  174.3510  138.9420 C   0  0  0  0  0  1  0  0  0  0  0  0
  188.2980  173.6710  140.1830 O   0  0  0  0  0  0  0  0  0  0  0  0
  1  4  1  0  0  0  0
  2  9  2  0  0  0  0
  3  1  2  0  0  0  0
  5 20  1  0  0  0  0
  5 10  2  0  0  0  0
  6  4  1  1  0  0  0
  6  8  1  0  0  0  0
  7 16  1  0  0  0  0
  8 15  2  0  0  0  0
 10 12  2  0  0  0  0
 11 18  1  0  0  0  0
 13  3  1  6  0  0  0
 13 19  1  0  0  0  0
 13  6  1  0  0  0  0
 14  9  1  0  0  0  0
 14 15  1  0  0  0  0
 16 22  1  6  0  0  0
 16  2  1  0  0  0  0
 17 12  1  1  0  0  0
 17  7  1  0  0  0  0
 17 19  1  0  0  0  0
 18 16  1  0  0  0  0
 19 14  2  0  0  0  0
 20 11  1  0  0  0  0
 21 23  2  0  0  0  0
 22 21  2  0  0  0  0
 24 26  1  0  0  0  0
 24 23  1  0  0  0  0
 25 24  2  0  0  0  0
 27 26  2  0  0  0  0
 28 25  1  0  0  0  0
 28 29  2  0  0  0  0
 29 27  1  0  0  0  0
 30 29  1  0  0  0  0
 33 32  1  1  0  0  0
 33 30  1  0  0  0  0
 33 31  1  0  0  0  0
 35 36  2  0  0  0  0
 36 34  1  0  0  0  0
 36 22  1  0  0  0  0
 37 38  1  0  0  0  0
 38  5  1  0  0  0  0
M  END
>  <MODEL>
4

>  <REMARK>
 VINA RESULT:      -7.6      1.280      1.636
  Name = 
  6 active torsions:
  status: ('A' for Active; 'I' for Inactive)
    1  A    between atoms: C_3  and  C_36
    2  A    between atoms: C_11  and  O_38
    3  A    between atoms: C_12  and  C_24
    4  A    between atoms: C_12  and  C_30
    5  A    between atoms: C_21  and  C_25
    6  A    between atoms: C_25  and  C_32
                            x       y       z     vdW  Elec       q    Type
                         _______ _______ _______ _____ _____    ______ ____

>  <TORSDO>
F 6

$$$$
=
 OpenBabel11042417123D

 38 42  0  0  1  0  0  0  0  0999 V2000
  196.4600  171.5030  146.0850 C   0  0  0  0  0  3  0  0  0  0  0  0
  192.6390  176.4340  144.6400 N   0  0  0  0  0  0  0  0  0  0  0  0
  195.3570  171.6240  145.4180 N   0  0  0  0  0  0  0  0  0  0  0  0
  197.4170  172.5460  145.7320 C   0  0  0  0  0  2  0  0  0  0  0  0
  190.1950  172.2580  142.8530 C   0  0  0  0  0  0  0  0  0  0  0  0
  196.8270  173.2530  144.7870 C   0  0  2  0  0  3  0  0  0  0  0  0
  191.9150  174.2140  145.3430 C   0  0  0  0  0  2  0  0  0  0  0  0
  197.1740  174.5960  144.4810 N   0  0  0  0  0  0  0  0  0  0  0  0
  193.9320  176.3130  144.6150 C   0  0  0  0  0  3  0  0  0  0  0  0
  191.4070  172.1770  143.3140 C   0  0  0  0  0  0  0  0  0  0  0  0
  190.0310  174.7380  142.4710 C   0  0  0  0  0  2  0  0  0  0  0  0
  192.6140  172.2410  143.7920 C   0  0  0  0  0  3  0  0  0  0  0  0
  195.4820  172.7230  144.4720 C   0  0  2  0  0  3  0  0  0  0  0  0
  194.7810  175.1080  144.4850 C   0  0  0  0  0  0  0  0  0  0  0  0
  196.2190  175.4630  144.3160 C   0  0  0  0  0  3  0  0  0  0  0  0
  191.5740  175.4510  144.4870 C   0  0  2  0  0  0  0  0  0  0  0  0
  193.0090  173.2860  144.8040 C   0  0  1  0  0  3  0  0  0  0  0  0
  191.4390  175.1080  142.9820 C   0  0  0  0  0  2  0  0  0  0  0  0
  194.4190  173.7980  144.6400 C   0  0  0  0  0  0  0  0  0  0  0  0
  189.4180  173.5060  143.1440 C   0  0  0  0  0  2  0  0  0  0  0  0
  189.7150  177.0900  144.3110 C   0  0  0  0  0  0  0  0  0  0  0  0
  190.2910  176.1250  144.9910 C   0  0  0  0  0  0  0  0  0  0  0  0
  189.1370  178.0490  143.6350 C   0  0  0  0  0  3  0  0  0  0  0  0
  187.7010  178.0380  143.3210 C   0  0  0  0  0  0  0  0  0  0  0  0
  187.1010  176.9710  142.6350 C   0  0  0  0  0  3  0  0  0  0  0  0
  186.9190  179.1310  143.7130 C   0  0  0  0  0  3  0  0  0  0  0  0
  185.5500  179.1580  143.4290 C   0  0  0  0  0  3  0  0  0  0  0  0
  185.7330  176.9970  142.3500 C   0  0  0  0  0  3  0  0  0  0  0  0
  184.9560  178.0920  142.7430 C   0  0  0  0  0  0  0  0  0  0  0  0
  183.4920  178.1100  142.4580 C   0  0  0  0  0  2  0  0  0  0  0  0
  184.1090  178.7910  140.2510 O   0  0  0  0  0  1  0  0  0  0  0  0
  181.8050  178.4130  140.6730 C   0  0  0  0  0  1  0  0  0  0  0  0
  183.2250  177.9820  140.9670 C   0  0  2  0  0  3  0  0  0  0  0  0
  188.6150  175.0470  146.3020 O   0  0  0  0  0  0  0  0  0  0  0  0
  190.2800  176.0660  147.4870 O   0  0  0  0  0  1  0  0  0  0  0  0
  189.6820  175.7170  146.2820 C   0  0  0  0  0  0  0  0  0  0  0  0
  190.4500  170.0950  141.7010 C   0  0  0  0  0  1  0  0  0  0  0  0
  189.6630  171.2050  142.1080 O   0  0  0  0  0  0  0  0  0  0  0  0
  3  1  2  0  0  0  0
  4  1  1  0  0  0  0
  5 20  1  0  0  0  0
  5 10  2  0  0  0  0
  6  4  1  1  0  0  0
  8  6  1  0  0  0  0
  9  2  2  0  0  0  0
 10 12  2  0  0  0  0
 11 18  1  0  0  0  0
 11 20  1  0  0  0  0
 13 19  1  1  0  0  0
 13  6  1  0  0  0  0
 13  3  1  0  0  0  0
 14  9  1  0  0  0  0
 14 19  2  0  0  0  0
 15  8  2  0  0  0  0
 15 14  1  0  0  0  0
 16  2  1  0  0  0  0
 16 22  1  1  0  0  0
 16  7  1  0  0  0  0
 17 12  1  6  0  0  0
 17  7  1  0  0  0  0
 18 16  1  0  0  0  0
 19 17  1  0  0  0  0
 21 22  2  0  0  0  0
 22 36  1  0  0  0  0
 23 21  2  0  0  0  0
 24 23  1  0  0  0  0
 24 26  1  0  0  0  0
 25 24  2  0  0  0  0
 27 26  2  0  0  0  0
 28 25  1  0  0  0  0
 28 29  2  0  0  0  0
 29 27  1  0  0  0  0
 30 29  1  0  0  0  0
 31 33  1  0  0  0  0
 33 32  1  1  0  0  0
 33 30  1  0  0  0  0
 36 34  2  0  0  0  0
 36 35  1  0  0  0  0
 37 38  1  0  0  0  0
 38  5  1  0  0  0  0
M  END
>  <MODEL>
5

>  <REMARK>
 VINA RESULT:      -7.4      3.251      9.513
  Name = 
  6 active torsions:
  status: ('A' for Active; 'I' for Inactive)
    1  A    between atoms: C_3  and  C_36
    2  A    between atoms: C_11  and  O_38
    3  A    between atoms: C_12  and  C_24
    4  A    between atoms: C_12  and  C_30
    5  A    between atoms: C_21  and  C_25
    6  A    between atoms: C_25  and  C_32
                            x       y       z     vdW  Elec       q    Type
                         _______ _______ _______ _____ _____    ______ ____

>  <TORSDO>
F 6

$$$$
=
 OpenBabel11042417123D

 38 42  0  0  1  0  0  0  0  0999 V2000
  194.2920  168.1660  147.2020 C   0  0  0  0  0  3  0  0  0  0  0  0
  194.4540  173.9720  144.5040 N   0  0  0  0  0  0  0  0  0  0  0  0
  193.8260  168.6630  146.1000 N   0  0  0  0  0  0  0  0  0  0  0  0
  195.6720  168.5800  147.4330 C   0  0  0  0  0  2  0  0  0  0  0  0
  191.4260  171.1380  141.4370 C   0  0  0  0  0  0  0  0  0  0  0  0
  195.9990  169.3070  146.3820 C   0  0  2  0  0  3  0  0  0  0  0  0
  192.5240  172.4840  144.5940 C   0  0  0  0  0  2  0  0  0  0  0  0
  197.0430  170.2690  146.3870 N   0  0  0  0  0  0  0  0  0  0  0  0
  195.3770  173.2720  145.0920 C   0  0  0  0  0  3  0  0  0  0  0  0
  192.0860  170.5920  142.4140 C   0  0  0  0  0  0  0  0  0  0  0  0
  192.6680  173.3140  141.2240 C   0  0  0  0  0  2  0  0  0  0  0  0
  192.8050  170.1780  143.4150 C   0  0  0  0  0  3  0  0  0  0  0  0
  194.8790  169.4050  145.4210 C   0  0  2  0  0  3  0  0  0  0  0  0
  195.4930  171.8090  145.2870 C   0  0  0  0  0  0  0  0  0  0  0  0
  196.8200  171.4340  145.8560 C   0  0  0  0  0  3  0  0  0  0  0  0
  193.2520  173.5750  143.7820 C   0  0  2  0  0  0  0  0  0  0  0  0
  193.1440  171.0820  144.5730 C   0  0  1  0  0  3  0  0  0  0  0  0
  193.6700  173.0800  142.3740 C   0  0  0  0  0  2  0  0  0  0  0  0
  194.5220  170.8570  145.1450 C   0  0  0  0  0  0  0  0  0  0  0  0
  191.3110  172.6330  141.4210 C   0  0  0  0  0  2  0  0  0  0  0  0
  191.0750  174.7700  143.7250 C   0  0  0  0  0  0  0  0  0  0  0  0
  192.3860  174.8350  143.6630 C   0  0  0  0  0  0  0  0  0  0  0  0
  189.7710  174.7090  143.7900 C   0  0  0  0  0  3  0  0  0  0  0  0
  188.9830  175.5820  144.6730 C   0  0  0  0  0  0  0  0  0  0  0  0
  188.3370  176.7320  144.1930 C   0  0  0  0  0  3  0  0  0  0  0  0
  188.8870  175.2550  146.0310 C   0  0  0  0  0  3  0  0  0  0  0  0
  188.1500  176.0640  146.9020 C   0  0  0  0  0  3  0  0  0  0  0  0
  187.6000  177.5410  145.0620 C   0  0  0  0  0  3  0  0  0  0  0  0
  187.5080  177.2110  146.4190 C   0  0  0  0  0  0  0  0  0  0  0  0
  186.7040  178.0610  147.3420 C   0  0  0  0  0  2  0  0  0  0  0  0
  184.9610  176.6600  146.4960 O   0  0  0  0  0  1  0  0  0  0  0  0
  184.7670  178.9950  146.1170 C   0  0  0  0  0  1  0  0  0  0  0  0
  185.2160  177.9080  147.0690 C   0  0  2  0  0  3  0  0  0  0  0  0
  193.4680  176.4790  142.3140 O   0  0  0  0  0  0  0  0  0  0  0  0
  193.1050  177.0790  144.4870 O   0  0  0  0  0  1  0  0  0  0  0  0
  193.0120  176.1630  143.4460 C   0  0  0  0  0  0  0  0  0  0  0  0
  190.8060  168.9210  140.5610 C   0  0  0  0  0  1  0  0  0  0  0  0
  190.8580  170.3350  140.4470 O   0  0  0  0  0  0  0  0  0  0  0  0
  1  4  1  0  0  0  0
  2  9  2  0  0  0  0
  3  1  2  0  0  0  0
  5 10  2  0  0  0  0
  6  8  1  0  0  0  0
  6  4  1  1  0  0  0
  9 14  1  0  0  0  0
 10 12  2  0  0  0  0
 11 20  1  0  0  0  0
 11 18  1  0  0  0  0
 13 19  1  1  0  0  0
 13  3  1  0  0  0  0
 13  6  1  0  0  0  0
 14 15  1  0  0  0  0
 15  8  2  0  0  0  0
 16 22  1  6  0  0  0
 16  2  1  0  0  0  0
 16  7  1  0  0  0  0
 17 12  1  6  0  0  0
 17  7  1  0  0  0  0
 17 19  1  0  0  0  0
 18 16  1  0  0  0  0
 19 14  2  0  0  0  0
 20  5  1  0  0  0  0
 21 23  2  0  0  0  0
 22 21  2  0  0  0  0
 23 24  1  0  0  0  0
 24 26  1  0  0  0  0
 25 24  2  0  0  0  0
 25 28  1  0  0  0  0
 26 27  2  0  0  0  0
 28 29  2  0  0  0  0
 29 27  1  0  0  0  0
 29 30  1  0  0  0  0
 31 33  1  0  0  0  0
 33 32  1  6  0  0  0
 33 30  1  0  0  0  0
 34 36  2  0  0  0  0
 36 22  1  0  0  0  0
 36 35  1  0  0  0  0
 38 37  1  0  0  0  0
 38  5  1  0  0  0  0
M  END
>  <MODEL>
6

>  <REMARK>
 VINA RESULT:      -7.3      3.496      9.240
  Name = 
  6 active torsions:
  status: ('A' for Active; 'I' for Inactive)
    1  A    between atoms: C_3  and  C_36
    2  A    between atoms: C_11  and  O_38
    3  A    between atoms: C_12  and  C_24
    4  A    between atoms: C_12  and  C_30
    5  A    between atoms: C_21  and  C_25
    6  A    between atoms: C_25  and  C_32
                            x       y       z     vdW  Elec       q    Type
                         _______ _______ _______ _____ _____    ______ ____

>  <TORSDO>
F 6

$$$$
=
 OpenBabel11042417123D

 38 42  0  0  1  0  0  0  0  0999 V2000
  185.8800  177.8920  147.9070 C   0  0  0  0  0  3  0  0  0  0  0  0
  187.8220  175.2330  142.4150 N   0  0  0  0  0  0  0  0  0  0  0  0
  187.0330  177.7360  147.3380 N   0  0  0  0  0  0  0  0  0  0  0  0
  184.8750  178.3620  146.9600 C   0  0  0  0  0  2  0  0  0  0  0  0
  192.1530  176.5620  144.8810 C   0  0  0  0  0  0  0  0  0  0  0  0
  185.5180  178.5170  145.8180 C   0  0  2  0  0  3  0  0  0  0  0  0
  188.9150  175.0090  144.5840 C   0  0  0  0  0  2  0  0  0  0  0  0
  184.8790  178.5100  144.5510 N   0  0  0  0  0  0  0  0  0  0  0  0
  186.8240  176.0200  142.6830 C   0  0  0  0  0  3  0  0  0  0  0  0
  190.9890  176.9230  145.3320 C   0  0  0  0  0  0  0  0  0  0  0  0
  191.5430  175.9540  142.5180 C   0  0  0  0  0  2  0  0  0  0  0  0
  189.7680  177.2210  145.6640 C   0  0  0  0  0  3  0  0  0  0  0  0
  186.9500  178.1680  145.9510 C   0  0  2  0  0  3  0  0  0  0  0  0
  186.6370  176.9890  143.7850 C   0  0  0  0  0  0  0  0  0  0  0  0
  185.4090  177.8140  143.5890 C   0  0  0  0  0  3  0  0  0  0  0  0
  189.1200  175.0650  143.0550 C   0  0  2  0  0  0  0  0  0  0  0  0
  188.6070  176.3370  145.2840 C   0  0  1  0  0  3  0  0  0  0  0  0
  190.0310  176.2420  142.6260 C   0  0  0  0  0  2  0  0  0  0  0  0
  187.3440  177.0920  144.9510 C   0  0  0  0  0  0  0  0  0  0  0  0
  192.1940  175.4980  143.8260 C   0  0  0  0  0  2  0  0  0  0  0  0
  189.9890  173.5790  141.2650 C   0  0  0  0  0  0  0  0  0  0  0  0
  189.6900  173.7400  142.5340 C   0  0  0  0  0  0  0  0  0  0  0  0
  190.2910  173.4150  140.0030 C   0  0  0  0  0  3  0  0  0  0  0  0
  191.5880  172.8800  139.5650 C   0  0  0  0  0  0  0  0  0  0  0  0
  191.7150  172.1130  138.3970 C   0  0  0  0  0  3  0  0  0  0  0  0
  192.7210  173.1400  140.3450 C   0  0  0  0  0  3  0  0  0  0  0  0
  193.9710  172.6440  139.9610 C   0  0  0  0  0  3  0  0  0  0  0  0
  192.9640  171.6160  138.0120 C   0  0  0  0  0  3  0  0  0  0  0  0
  194.0940  171.8780  138.7960 C   0  0  0  0  0  0  0  0  0  0  0  0
  195.4290  171.3660  138.3750 C   0  0  0  0  0  2  0  0  0  0  0  0
  196.4040  170.5000  136.3700 O   0  0  0  0  0  1  0  0  0  0  0  0
  196.3540  172.8590  136.6300 C   0  0  0  0  0  1  0  0  0  0  0  0
  195.6370  171.5500  136.8790 C   0  0  2  0  0  3  0  0  0  0  0  0
  188.9470  171.7980  143.7050 O   0  0  0  0  0  0  0  0  0  0  0  0
  191.1290  172.3760  144.0510 O   0  0  0  0  0  1  0  0  0  0  0  0
  189.8930  172.5930  143.4540 C   0  0  0  0  0  0  0  0  0  0  0  0
  193.9040  176.7700  146.6010 C   0  0  0  0  0  1  0  0  0  0  0  0
  193.3090  177.1690  145.3750 O   0  0  0  0  0  0  0  0  0  0  0  0
  2  9  2  0  0  0  0
  2 16  1  0  0  0  0
  3  1  2  0  0  0  0
  4  1  1  0  0  0  0
  5 10  2  0  0  0  0
  5 38  1  0  0  0  0
  6 13  1  0  0  0  0
  6  4  1  1  0  0  0
  8  6  1  0  0  0  0
  9 14  1  0  0  0  0
 10 12  2  0  0  0  0
 11 18  1  0  0  0  0
 11 20  1  0  0  0  0
 13 19  1  6  0  0  0
 13  3  1  0  0  0  0
 14 19  2  0  0  0  0
 15 14  1  0  0  0  0
 15  8  2  0  0  0  0
 16 22  1  6  0  0  0
 16  7  1  0  0  0  0
 17  7  1  6  0  0  0
 17 12  1  0  0  0  0
 18 16  1  0  0  0  0
 19 17  1  0  0  0  0
 20  5  1  0  0  0  0
 21 22  2  0  0  0  0
 22 36  1  0  0  0  0
 23 21  2  0  0  0  0
 24 23  1  0  0  0  0
 24 26  1  0  0  0  0
 25 24  2  0  0  0  0
 27 26  2  0  0  0  0
 28 25  1  0  0  0  0
 28 29  2  0  0  0  0
 29 27  1  0  0  0  0
 30 29  1  0  0  0  0
 31 33  1  0  0  0  0
 33 32  1  1  0  0  0
 33 30  1  0  0  0  0
 36 34  2  0  0  0  0
 36 35  1  0  0  0  0
 38 37  1  0  0  0  0
M  END
>  <MODEL>
7

>  <REMARK>
 VINA RESULT:      -7.3      3.411      5.478
  Name = 
  6 active torsions:
  status: ('A' for Active; 'I' for Inactive)
    1  A    between atoms: C_3  and  C_36
    2  A    between atoms: C_11  and  O_38
    3  A    between atoms: C_12  and  C_24
    4  A    between atoms: C_12  and  C_30
    5  A    between atoms: C_21  and  C_25
    6  A    between atoms: C_25  and  C_32
                            x       y       z     vdW  Elec       q    Type
                         _______ _______ _______ _____ _____    ______ ____

>  <TORSDO>
F 6

$$$$
=
 OpenBabel11042417123D

 38 42  0  0  1  0  0  0  0  0999 V2000
  184.9000  178.3190  146.5640 C   0  0  0  0  0  3  0  0  0  0  0  0
  188.6640  175.7690  142.0540 N   0  0  0  0  0  0  0  0  0  0  0  0
  186.1630  178.0440  146.4930 N   0  0  0  0  0  0  0  0  0  0  0  0
  184.4270  178.9800  145.3510 C   0  0  0  0  0  2  0  0  0  0  0  0
  191.6990  176.3430  146.1850 C   0  0  0  0  0  0  0  0  0  0  0  0
  185.4960  179.1160  144.5900 C   0  0  2  0  0  3  0  0  0  0  0  0
  188.7370  175.2650  144.4390 C   0  0  0  0  0  2  0  0  0  0  0  0
  185.4380  179.2750  143.1800 N   0  0  0  0  0  0  0  0  0  0  0  0
  187.7270  176.6660  141.9850 C   0  0  0  0  0  3  0  0  0  0  0  0
  190.4940  176.8290  146.1680 C   0  0  0  0  0  0  0  0  0  0  0  0
  192.0620  175.9710  143.7240 C   0  0  0  0  0  2  0  0  0  0  0  0
  189.2800  177.2690  146.0120 C   0  0  0  0  0  3  0  0  0  0  0  0
  186.7030  178.5690  145.2460 C   0  0  2  0  0  3  0  0  0  0  0  0
  187.1970  177.5810  143.0200 C   0  0  0  0  0  0  0  0  0  0  0  0
  186.2480  178.5750  142.4410 C   0  0  0  0  0  3  0  0  0  0  0  0
  189.5580  175.3870  143.1390 C   0  0  2  0  0  0  0  0  0  0  0  0
  188.2990  176.5760  145.1020 C   0  0  1  0  0  3  0  0  0  0  0  0
  190.6760  176.4550  143.2470 C   0  0  0  0  0  2  0  0  0  0  0  0
  187.3670  177.5140  144.3760 C   0  0  0  0  0  0  0  0  0  0  0  0
  192.0670  175.3500  145.1240 C   0  0  0  0  0  2  0  0  0  0  0  0
  190.9820  173.9210  141.7280 C   0  0  0  0  0  0  0  0  0  0  0  0
  190.1600  174.0320  142.7450 C   0  0  0  0  0  0  0  0  0  0  0  0
  191.8050  173.8070  140.7170 C   0  0  0  0  0  3  0  0  0  0  0  0
  193.0950  173.1110  140.8240 C   0  0  0  0  0  0  0  0  0  0  0  0
  194.0250  173.4250  141.8270 C   0  0  0  0  0  3  0  0  0  0  0  0
  193.4010  172.1140  139.8900 C   0  0  0  0  0  3  0  0  0  0  0  0
  194.6210  171.4330  139.9580 C   0  0  0  0  0  3  0  0  0  0  0  0
  195.2440  172.7460  141.8960 C   0  0  0  0  0  3  0  0  0  0  0  0
  195.5460  171.7510  140.9590 C   0  0  0  0  0  0  0  0  0  0  0  0
  196.8370  171.0110  141.0450 C   0  0  0  0  0  2  0  0  0  0  0  0
  197.7610  169.7000  142.8190 O   0  0  0  0  0  1  0  0  0  0  0  0
  196.7060  168.5390  141.0380 C   0  0  0  0  0  1  0  0  0  0  0  0
  196.6990  169.7720  141.9170 C   0  0  2  0  0  3  0  0  0  0  0  0
  190.5040  172.4180  144.4690 O   0  0  0  0  0  1  0  0  0  0  0  0
  188.6860  172.0550  143.1370 O   0  0  0  0  0  0  0  0  0  0  0  0
  189.8010  172.8020  143.4950 C   0  0  0  0  0  0  0  0  0  0  0  0
  193.9760  176.9680  146.8860 C   0  0  0  0  0  1  0  0  0  0  0  0
  192.6010  176.7550  147.1670 O   0  0  0  0  0  0  0  0  0  0  0  0
  2 16  1  0  0  0  0
  3  1  2  0  0  0  0
  4  1  1  0  0  0  0
  5 38  1  0  0  0  0
  6 13  1  0  0  0  0
  6  4  1  6  0  0  0
  8  6  1  0  0  0  0
  9  2  2  0  0  0  0
  9 14  1  0  0  0  0
 10  5  2  0  0  0  0
 11 20  1  0  0  0  0
 12 10  2  0  0  0  0
 13 19  1  6  0  0  0
 13  3  1  0  0  0  0
 14 19  2  0  0  0  0
 15 14  1  0  0  0  0
 15  8  2  0  0  0  0
 16 22  1  6  0  0  0
 16 18  1  0  0  0  0
 16  7  1  0  0  0  0
 17  7  1  6  0  0  0
 17 12  1  0  0  0  0
 18 11  1  0  0  0  0
 19 17  1  0  0  0  0
 20  5  1  0  0  0  0
 21 22  2  0  0  0  0
 22 36  1  0  0  0  0
 23 24  1  0  0  0  0
 23 21  2  0  0  0  0
 24 25  1  0  0  0  0
 25 28  2  0  0  0  0
 26 27  1  0  0  0  0
 26 24  2  0  0  0  0
 27 29  2  0  0  0  0
 29 30  1  0  0  0  0
 29 28  1  0  0  0  0
 30 33  1  0  0  0  0
 33 32  1  6  0  0  0
 33 31  1  0  0  0  0
 35 36  2  0  0  0  0
 36 34  1  0  0  0  0
 37 38  1  0  0  0  0
M  END
>  <MODEL>
8

>  <REMARK>
 VINA RESULT:      -7.2      2.461      4.467
  Name = 
  6 active torsions:
  status: ('A' for Active; 'I' for Inactive)
    1  A    between atoms: C_3  and  C_36
    2  A    between atoms: C_11  and  O_38
    3  A    between atoms: C_12  and  C_24
    4  A    between atoms: C_12  and  C_30
    5  A    between atoms: C_21  and  C_25
    6  A    between atoms: C_25  and  C_32
                            x       y       z     vdW  Elec       q    Type
                         _______ _______ _______ _____ _____    ______ ____

>  <TORSDO>
F 6

$$$$
=
 OpenBabel11042417123D

 38 42  0  0  1  0  0  0  0  0999 V2000
  196.6740  169.7160  145.5650 C   0  0  0  0  0  3  0  0  0  0  0  0
  193.7480  175.4030  145.2480 N   0  0  0  0  0  0  0  0  0  0  0  0
  195.6380  170.1630  144.9300 N   0  0  0  0  0  0  0  0  0  0  0  0
  197.7990  170.6410  145.4730 C   0  0  0  0  0  2  0  0  0  0  0  0
  190.7730  172.1960  142.5160 C   0  0  0  0  0  0  0  0  0  0  0  0
  197.3740  171.6300  144.7100 C   0  0  2  0  0  3  0  0  0  0  0  0
  192.6510  173.2310  145.4110 C   0  0  0  0  0  2  0  0  0  0  0  0
  197.9410  172.9310  144.7260 N   0  0  0  0  0  0  0  0  0  0  0  0
  195.0060  175.0810  145.2130 C   0  0  0  0  0  3  0  0  0  0  0  0
  191.9320  171.8150  142.9620 C   0  0  0  0  0  0  0  0  0  0  0  0
  191.0170  174.6910  142.7150 C   0  0  0  0  0  2  0  0  0  0  0  0
  193.1100  171.5720  143.4560 C   0  0  0  0  0  3  0  0  0  0  0  0
  195.9800  171.4120  144.2650 C   0  0  2  0  0  3  0  0  0  0  0  0
  195.6610  173.8140  144.8180 C   0  0  0  0  0  0  0  0  0  0  0  0
  197.1440  173.9580  144.7540 C   0  0  0  0  0  3  0  0  0  0  0  0
  192.5510  174.6690  144.8600 C   0  0  2  0  0  0  0  0  0  0  0  0
  193.6130  172.2830  144.6870 C   0  0  1  0  0  3  0  0  0  0  0  0
  192.4390  174.7000  143.3150 C   0  0  0  0  0  2  0  0  0  0  0  0
  195.0920  172.5800  144.6620 C   0  0  0  0  0  0  0  0  0  0  0  0
  190.1870  173.4560  143.0780 C   0  0  0  0  0  2  0  0  0  0  0  0
  190.8260  176.4550  144.9020 C   0  0  0  0  0  0  0  0  0  0  0  0
  191.3670  175.4120  145.4890 C   0  0  0  0  0  0  0  0  0  0  0  0
  190.2820  177.4920  144.3190 C   0  0  0  0  0  3  0  0  0  0  0  0
  188.8320  177.6110  144.1120 C   0  0  0  0  0  0  0  0  0  0  0  0
  188.2860  177.9080  142.8540 C   0  0  0  0  0  3  0  0  0  0  0  0
  187.9790  177.4320  145.2080 C   0  0  0  0  0  3  0  0  0  0  0  0
  186.5940  177.5420  145.0500 C   0  0  0  0  0  3  0  0  0  0  0  0
  186.9010  178.0180  142.6950 C   0  0  0  0  0  3  0  0  0  0  0  0
  186.0530  177.8390  143.7930 C   0  0  0  0  0  0  0  0  0  0  0  0
  184.5760  177.9360  143.6200 C   0  0  0  0  0  2  0  0  0  0  0  0
  184.8220  180.2320  144.2380 O   0  0  0  0  0  1  0  0  0  0  0  0
  183.9530  178.7480  145.8730 C   0  0  0  0  0  1  0  0  0  0  0  0
  184.0100  179.1090  144.4040 C   0  0  2  0  0  3  0  0  0  0  0  0
  191.4610  175.1920  147.8640 O   0  0  0  0  0  1  0  0  0  0  0  0
  189.5850  174.3440  146.8750 O   0  0  0  0  0  0  0  0  0  0  0  0
  190.8170  174.9820  146.8000 C   0  0  0  0  0  0  0  0  0  0  0  0
  190.1070  171.8210  140.1740 C   0  0  0  0  0  1  0  0  0  0  0  0
  190.1200  171.4400  141.5420 O   0  0  0  0  0  0  0  0  0  0  0  0
  3  1  2  0  0  0  0
  4  1  1  0  0  0  0
  5 10  2  0  0  0  0
  5 20  1  0  0  0  0
  6  8  1  0  0  0  0
  6  4  1  1  0  0  0
  8 15  2  0  0  0  0
  9  2  2  0  0  0  0
 10 12  2  0  0  0  0
 11 20  1  0  0  0  0
 11 18  1  0  0  0  0
 13 19  1  1  0  0  0
 13  6  1  0  0  0  0
 13  3  1  0  0  0  0
 14  9  1  0  0  0  0
 15 14  1  0  0  0  0
 16  2  1  0  0  0  0
 16  7  1  0  0  0  0
 16 22  1  1  0  0  0
 17 12  1  6  0  0  0
 17  7  1  0  0  0  0
 18 16  1  0  0  0  0
 19 17  1  0  0  0  0
 19 14  2  0  0  0  0
 21 22  2  0  0  0  0
 22 36  1  0  0  0  0
 23 21  2  0  0  0  0
 24 23  1  0  0  0  0
 24 26  1  0  0  0  0
 25 24  2  0  0  0  0
 27 26  2  0  0  0  0
 28 25  1  0  0  0  0
 28 29  2  0  0  0  0
 29 27  1  0  0  0  0
 30 29  1  0  0  0  0
 30 33  1  0  0  0  0
 31 33  1  0  0  0  0
 33 32  1  1  0  0  0
 36 35  2  0  0  0  0
 36 34  1  0  0  0  0
 37 38  1  0  0  0  0
 38  5  1  0  0  0  0
M  END
>  <MODEL>
9

>  <REMARK>
 VINA RESULT:      -7.2      3.254      9.536
  Name = 
  6 active torsions:
  status: ('A' for Active; 'I' for Inactive)
    1  A    between atoms: C_3  and  C_36
    2  A    between atoms: C_11  and  O_38
    3  A    between atoms: C_12  and  C_24
    4  A    between atoms: C_12  and  C_30
    5  A    between atoms: C_21  and  C_25
    6  A    between atoms: C_25  and  C_32
                            x       y       z     vdW  Elec       q    Type
                         _______ _______ _______ _____ _____    ______ ____

>  <TORSDO>
F 6

$$$$
