=
 OpenBabel11042415093D

 27 30  0  0  1  0  0  0  0  0999 V2000
  187.6480  176.7730  145.5160 C   0  0  1  0  0  0  0  0  0  0  0  0
  188.3900  175.9100  146.5300 C   0  0  0  0  0  2  0  0  0  0  0  0
  190.6200  177.4460  143.1830 C   0  0  0  0  0  3  0  0  0  0  0  0
  186.3090  176.3780  145.3420 O   0  0  0  0  0  0  0  0  0  0  0  0
  192.8180  176.3440  147.0180 Cl  0  0  0  0  0  0  0  0  0  0  0  0
  192.0130  177.4180  143.2260 C   0  0  0  0  0  3  0  0  0  0  0  0
  189.7530  176.5310  146.7930 C   0  0  0  0  0  2  0  0  0  0  0  0
  192.6670  177.0700  144.4070 C   0  0  0  0  0  3  0  0  0  0  0  0
  190.5270  176.7750  145.5220 C   0  0  0  0  0  0  0  0  0  0  0  0
  191.9350  176.7540  145.5540 C   0  0  0  0  0  0  0  0  0  0  0  0
  186.5170  177.6480  145.9250 C   0  0  1  0  0  3  0  0  0  0  0  0
  189.8640  177.1230  144.3170 C   0  0  0  0  0  0  0  0  0  0  0  0
  188.3540  177.1410  144.2060 C   0  0  1  0  0  3  0  0  0  0  0  0
  186.1950  177.5780  147.4090 C   0  0  0  0  0  2  0  0  0  0  0  0
  184.3000  178.5950  146.5180 C   0  0  0  0  0  1  0  0  0  0  0  0
  185.1160  178.4990  147.7150 N   0  0  0  0  0  2  0  0  0  0  0  0
  187.8730  176.3460  143.0680 N   0  0  0  0  0  0  0  0  0  0  0  0
  187.2640  176.8550  140.7170 C   0  0  0  0  0  3  0  0  0  0  0  0
  186.6830  177.3540  138.4010 N   0  0  0  0  0  1  0  0  0  0  0  0
  184.7920  177.8160  141.5080 C   0  0  0  0  0  0  0  0  0  0  0  0
  185.6820  177.3340  142.4700 C   0  0  0  0  0  3  0  0  0  0  0  0
  186.3500  177.3440  139.7830 C   0  0  0  0  0  0  0  0  0  0  0  0
  185.1410  177.8110  140.1940 N   0  0  0  0  0  0  0  0  0  0  0  0
  186.9390  176.8440  142.0800 C   0  0  0  0  0  0  0  0  0  0  0  0
  183.2260  178.4270  141.9940 Cl  0  0  0  0  0  0  0  0  0  0  0  0
  188.3620  175.0310  142.9800 C   0  0  0  0  0  0  0  0  0  0  0  0
  188.7810  173.9030  142.9040 C   0  0  0  0  0  3  0  0  0  0  0  0
  1 11  1  0  0  0  0
  1  2  1  1  0  0  0
  2  7  1  0  0  0  0
  3  6  2  0  0  0  0
  3 12  1  0  0  0  0
  4  1  1  0  0  0  0
  4 11  1  0  0  0  0
  6  8  1  0  0  0  0
  8 10  2  0  0  0  0
  9 10  1  0  0  0  0
  9  7  1  0  0  0  0
 10  5  1  0  0  0  0
 11 14  1  1  0  0  0
 12  9  2  0  0  0  0
 13 17  1  6  0  0  0
 13 12  1  0  0  0  0
 13  1  1  0  0  0  0
 14 16  1  0  0  0  0
 15 16  1  0  0  0  0
 18 24  1  0  0  0  0
 19 22  1  0  0  0  0
 20 25  1  0  0  0  0
 20 21  1  0  0  0  0
 22 23  1  0  0  0  0
 22 18  2  0  0  0  0
 23 20  2  0  0  0  0
 24 21  2  0  0  0  0
 24 17  1  0  0  0  0
 26 17  1  0  0  0  0
 27 26  3  0  0  0  0
M  END
>  <MODEL>
1

>  <REMARK>
 VINA RESULT:      -6.9      0.000      0.000
  Name = 
  5 active torsions:
  status: ('A' for Active; 'I' for Inactive)
    1  A    between atoms: C_13  and  N_27
    2  A    between atoms: C_18  and  N_27
    3  A    between atoms: N_21  and  C_25
    4  A    between atoms: C_23  and  C_25
    5  A    between atoms: C_26  and  N_27
                            x       y       z     vdW  Elec       q    Type
                         _______ _______ _______ _____ _____    ______ ____

>  <TORSDO>
F 5

$$$$
=
 OpenBabel11042415093D

 27 30  0  0  1  0  0  0  0  0999 V2000
  189.3130  174.5900  142.6700 C   0  0  1  0  0  0  0  0  0  0  0  0
  190.7940  174.3850  142.3750 C   0  0  0  0  0  2  0  0  0  0  0  0
  189.7030  175.7980  146.2920 C   0  0  0  0  0  3  0  0  0  0  0  0
  188.5880  175.0220  141.5440 O   0  0  0  0  0  0  0  0  0  0  0  0
  193.6540  173.6030  145.7280 Cl  0  0  0  0  0  0  0  0  0  0  0  0
  190.6440  175.7440  147.3190 C   0  0  0  0  0  3  0  0  0  0  0  0
  191.4470  173.7360  143.5860 C   0  0  0  0  0  2  0  0  0  0  0  0
  191.8510  175.0740  147.1240 C   0  0  0  0  0  3  0  0  0  0  0  0
  191.1820  174.5000  144.8590 C   0  0  0  0  0  0  0  0  0  0  0  0
  192.1240  174.4490  145.9050 C   0  0  0  0  0  0  0  0  0  0  0  0
  188.2720  173.7360  142.0380 C   0  0  1  0  0  3  0  0  0  0  0  0
  189.9570  175.1880  145.0580 C   0  0  0  0  0  0  0  0  0  0  0  0
  188.9130  175.3030  143.9670 C   0  0  1  0  0  3  0  0  0  0  0  0
  188.8340  172.6830  141.0960 C   0  0  0  0  0  2  0  0  0  0  0  0
  189.2320  172.8480  138.8080 C   0  0  0  0  0  1  0  0  0  0  0  0
  188.1790  172.7890  139.8050 N   0  0  0  0  0  2  0  0  0  0  0  0
  188.5030  176.6950  143.7380 N   0  0  0  0  0  0  0  0  0  0  0  0
  186.4150  177.4280  142.6150 C   0  0  0  0  0  3  0  0  0  0  0  0
  184.3720  178.1500  141.4960 N   0  0  0  0  0  1  0  0  0  0  0  0
  185.1500  177.7470  145.0560 C   0  0  0  0  0  0  0  0  0  0  0  0
  186.4760  177.3090  145.0210 C   0  0  0  0  0  3  0  0  0  0  0  0
  185.0910  177.8630  142.6880 C   0  0  0  0  0  0  0  0  0  0  0  0
  184.4890  178.0120  143.8980 N   0  0  0  0  0  0  0  0  0  0  0  0
  187.1270  177.1440  143.7880 C   0  0  0  0  0  0  0  0  0  0  0  0
  184.3390  177.9540  146.5920 Cl  0  0  0  0  0  0  0  0  0  0  0  0
  189.5340  177.6030  143.4420 C   0  0  0  0  0  0  0  0  0  0  0  0
  190.4190  178.3820  143.1880 C   0  0  0  0  0  3  0  0  0  0  0  0
  1  2  1  6  0  0  0
  1 13  1  0  0  0  0
  2  7  1  0  0  0  0
  3  6  1  0  0  0  0
  4 11  1  0  0  0  0
  4  1  1  0  0  0  0
  5 10  1  0  0  0  0
  7  9  1  0  0  0  0
  8  6  2  0  0  0  0
  9 12  1  0  0  0  0
  9 10  2  0  0  0  0
 10  8  1  0  0  0  0
 11 14  1  6  0  0  0
 11  1  1  0  0  0  0
 12  3  2  0  0  0  0
 13 17  1  6  0  0  0
 13 12  1  0  0  0  0
 15 16  1  0  0  0  0
 16 14  1  0  0  0  0
 17 24  1  0  0  0  0
 18 22  2  0  0  0  0
 18 24  1  0  0  0  0
 19 22  1  0  0  0  0
 20 25  1  0  0  0  0
 21 20  1  0  0  0  0
 22 23  1  0  0  0  0
 23 20  2  0  0  0  0
 24 21  2  0  0  0  0
 26 17  1  0  0  0  0
 27 26  3  0  0  0  0
M  END
>  <MODEL>
2

>  <REMARK>
 VINA RESULT:      -6.9      2.464      4.743
  Name = 
  5 active torsions:
  status: ('A' for Active; 'I' for Inactive)
    1  A    between atoms: C_13  and  N_27
    2  A    between atoms: C_18  and  N_27
    3  A    between atoms: N_21  and  C_25
    4  A    between atoms: C_23  and  C_25
    5  A    between atoms: C_26  and  N_27
                            x       y       z     vdW  Elec       q    Type
                         _______ _______ _______ _____ _____    ______ ____

>  <TORSDO>
F 5

$$$$
=
 OpenBabel11042415093D

 27 30  0  0  1  0  0  0  0  0999 V2000
  190.2590  176.0210  145.2880 C   0  0  1  0  0  0  0  0  0  0  0  0
  190.4270  177.3510  146.0130 C   0  0  0  0  0  2  0  0  0  0  0  0
  186.4610  176.2210  144.7740 C   0  0  0  0  0  3  0  0  0  0  0  0
  191.3640  175.7010  144.4760 O   0  0  0  0  0  0  0  0  0  0  0  0
  186.9770  179.1300  148.2420 Cl  0  0  0  0  0  0  0  0  0  0  0  0
  185.3650  176.8940  145.3130 C   0  0  0  0  0  3  0  0  0  0  0  0
  189.2850  177.5110  147.0060 C   0  0  0  0  0  2  0  0  0  0  0  0
  185.5450  177.7860  146.3690 C   0  0  0  0  0  3  0  0  0  0  0  0
  187.9340  177.3380  146.3590 C   0  0  0  0  0  0  0  0  0  0  0  0
  186.8180  178.0090  146.8980 C   0  0  0  0  0  0  0  0  0  0  0  0
  191.1390  174.8600  145.5890 C   0  0  1  0  0  3  0  0  0  0  0  0
  187.7490  176.4350  145.2800 C   0  0  0  0  0  0  0  0  0  0  0  0
  188.9080  175.7010  144.6390 C   0  0  1  0  0  3  0  0  0  0  0  0
  192.1850  175.1440  146.6540 C   0  0  0  0  0  2  0  0  0  0  0  0
  194.2690  176.1580  146.4270 C   0  0  0  0  0  1  0  0  0  0  0  0
  193.5110  174.9670  146.0910 N   0  0  0  0  0  2  0  0  0  0  0  0
  188.9330  175.8740  143.1800 N   0  0  0  0  0  0  0  0  0  0  0  0
  189.4480  173.5080  142.6320 C   0  0  0  0  0  3  0  0  0  0  0  0
  189.9630  171.1820  142.1100 N   0  0  0  0  0  1  0  0  0  0  0  0
  188.5980  173.8700  140.0230 C   0  0  0  0  0  0  0  0  0  0  0  0
  188.5470  174.9420  140.9170 C   0  0  0  0  0  3  0  0  0  0  0  0
  189.4840  172.4600  141.7120 C   0  0  0  0  0  0  0  0  0  0  0  0
  189.0610  172.6600  140.4360 N   0  0  0  0  0  0  0  0  0  0  0  0
  188.9760  174.7700  142.2430 C   0  0  0  0  0  0  0  0  0  0  0  0
  188.0650  174.0860  138.3710 Cl  0  0  0  0  0  0  0  0  0  0  0  0
  188.9270  177.1990  142.7130 C   0  0  0  0  0  0  0  0  0  0  0  0
  188.9220  178.3360  142.3110 C   0  0  0  0  0  3  0  0  0  0  0  0
  1 11  1  0  0  0  0
  1  2  1  1  0  0  0
  2  7  1  0  0  0  0
  3 12  2  0  0  0  0
  3  6  1  0  0  0  0
  4  1  1  0  0  0  0
  4 11  1  0  0  0  0
  6  8  2  0  0  0  0
  8 10  1  0  0  0  0
  9 10  2  0  0  0  0
  9  7  1  0  0  0  0
 10  5  1  0  0  0  0
 11 14  1  1  0  0  0
 12  9  1  0  0  0  0
 13 17  1  6  0  0  0
 13 12  1  0  0  0  0
 13  1  1  0  0  0  0
 16 15  1  0  0  0  0
 16 14  1  0  0  0  0
 20 23  2  0  0  0  0
 20 21  1  0  0  0  0
 21 24  2  0  0  0  0
 22 19  1  0  0  0  0
 22 18  2  0  0  0  0
 23 22  1  0  0  0  0
 24 18  1  0  0  0  0
 24 17  1  0  0  0  0
 25 20  1  0  0  0  0
 26 17  1  0  0  0  0
 27 26  3  0  0  0  0
M  END
>  <MODEL>
3

>  <REMARK>
 VINA RESULT:      -6.9      3.366      5.509
  Name = 
  5 active torsions:
  status: ('A' for Active; 'I' for Inactive)
    1  A    between atoms: C_13  and  N_27
    2  A    between atoms: C_18  and  N_27
    3  A    between atoms: N_21  and  C_25
    4  A    between atoms: C_23  and  C_25
    5  A    between atoms: C_26  and  N_27
                            x       y       z     vdW  Elec       q    Type
                         _______ _______ _______ _____ _____    ______ ____

>  <TORSDO>
F 5

$$$$
=
 OpenBabel11042415093D

 27 30  0  0  1  0  0  0  0  0999 V2000
  187.6180  176.8120  145.4970 C   0  0  1  0  0  0  0  0  0  0  0  0
  188.3590  175.9630  146.5220 C   0  0  0  0  0  2  0  0  0  0  0  0
  190.5970  177.4770  143.1700 C   0  0  0  0  0  3  0  0  0  0  0  0
  186.2810  176.4080  145.3200 O   0  0  0  0  0  0  0  0  0  0  0  0
  192.7830  176.4240  147.0250 Cl  0  0  0  0  0  0  0  0  0  0  0  0
  191.9900  177.4570  143.2200 C   0  0  0  0  0  3  0  0  0  0  0  0
  189.7190  176.5930  146.7850 C   0  0  0  0  0  2  0  0  0  0  0  0
  192.6410  177.1240  144.4070 C   0  0  0  0  0  3  0  0  0  0  0  0
  190.4970  176.8290  145.5150 C   0  0  0  0  0  0  0  0  0  0  0  0
  191.9050  176.8150  145.5540 C   0  0  0  0  0  0  0  0  0  0  0  0
  186.4810  177.6850  145.8920 C   0  0  1  0  0  3  0  0  0  0  0  0
  189.8380  177.1620  144.3030 C   0  0  0  0  0  0  0  0  0  0  0  0
  188.3280  177.1710  144.1860 C   0  0  1  0  0  3  0  0  0  0  0  0
  186.1530  177.6280  147.3750 C   0  0  0  0  0  2  0  0  0  0  0  0
  184.3280  178.6700  146.3720 C   0  0  0  0  0  1  0  0  0  0  0  0
  184.9890  178.4510  147.6460 N   0  0  0  0  0  2  0  0  0  0  0  0
  187.8560  176.3620  143.0540 N   0  0  0  0  0  0  0  0  0  0  0  0
  185.7160  177.4330  142.3950 C   0  0  0  0  0  3  0  0  0  0  0  0
  183.6070  178.4830  141.7650 N   0  0  0  0  0  1  0  0  0  0  0  0
  186.3790  177.2350  139.7150 C   0  0  0  0  0  0  0  0  0  0  0  0
  187.2700  176.7590  140.6800 C   0  0  0  0  0  3  0  0  0  0  0  0
  184.8510  177.8970  141.4040 C   0  0  0  0  0  0  0  0  0  0  0  0
  185.1980  177.7900  140.0930 N   0  0  0  0  0  0  0  0  0  0  0  0
  186.9440  176.8550  142.0430 C   0  0  0  0  0  0  0  0  0  0  0  0
  186.7850  177.1140  138.0170 Cl  0  0  0  0  0  0  0  0  0  0  0  0
  188.3310  175.0410  142.9960 C   0  0  0  0  0  0  0  0  0  0  0  0
  188.7370  173.9060  142.9480 C   0  0  0  0  0  3  0  0  0  0  0  0
  1 11  1  0  0  0  0
  1  2  1  1  0  0  0
  2  7  1  0  0  0  0
  3  6  2  0  0  0  0
  3 12  1  0  0  0  0
  4  1  1  0  0  0  0
  4 11  1  0  0  0  0
  6  8  1  0  0  0  0
  8 10  2  0  0  0  0
  9 10  1  0  0  0  0
  9  7  1  0  0  0  0
 10  5  1  0  0  0  0
 11 14  1  1  0  0  0
 12  9  2  0  0  0  0
 13 17  1  6  0  0  0
 13 12  1  0  0  0  0
 13  1  1  0  0  0  0
 14 16  1  0  0  0  0
 15 16  1  0  0  0  0
 20 23  2  0  0  0  0
 20 21  1  0  0  0  0
 21 24  2  0  0  0  0
 22 19  1  0  0  0  0
 22 18  2  0  0  0  0
 23 22  1  0  0  0  0
 24 18  1  0  0  0  0
 24 17  1  0  0  0  0
 25 20  1  0  0  0  0
 26 17  1  0  0  0  0
 27 26  3  0  0  0  0
M  END
>  <MODEL>
4

>  <REMARK>
 VINA RESULT:      -6.9      1.149      1.669
  Name = 
  5 active torsions:
  status: ('A' for Active; 'I' for Inactive)
    1  A    between atoms: C_13  and  N_27
    2  A    between atoms: C_18  and  N_27
    3  A    between atoms: N_21  and  C_25
    4  A    between atoms: C_23  and  C_25
    5  A    between atoms: C_26  and  N_27
                            x       y       z     vdW  Elec       q    Type
                         _______ _______ _______ _____ _____    ______ ____

>  <TORSDO>
F 5

$$$$
=
 OpenBabel11042415093D

 27 30  0  0  1  0  0  0  0  0999 V2000
  191.9120  175.5530  145.2580 C   0  0  1  0  0  0  0  0  0  0  0  0
  192.5970  174.4130  146.0000 C   0  0  0  0  0  2  0  0  0  0  0  0
  189.5650  173.3990  143.1170 C   0  0  0  0  0  3  0  0  0  0  0  0
  191.7660  176.7070  146.0500 O   0  0  0  0  0  0  0  0  0  0  0  0
  192.7700  170.3350  144.1620 Cl  0  0  0  0  0  0  0  0  0  0  0  0
  189.4710  172.0830  142.6660 C   0  0  0  0  0  3  0  0  0  0  0  0
  192.8840  173.2920  145.0120 C   0  0  0  0  0  2  0  0  0  0  0  0
  190.4580  171.1580  143.0030 C   0  0  0  0  0  3  0  0  0  0  0  0
  191.6520  172.8670  144.2530 C   0  0  0  0  0  0  0  0  0  0  0  0
  191.5480  171.5420  143.7880 C   0  0  0  0  0  0  0  0  0  0  0  0
  192.6340  176.8130  144.9390 C   0  0  1  0  0  3  0  0  0  0  0  0
  190.6430  173.8050  143.9140 C   0  0  0  0  0  0  0  0  0  0  0  0
  190.6800  175.2380  144.4010 C   0  0  1  0  0  3  0  0  0  0  0  0
  194.0740  176.8340  145.4260 C   0  0  0  0  0  2  0  0  0  0  0  0
  195.8650  175.5780  144.6290 C   0  0  0  0  0  1  0  0  0  0  0  0
  194.9700  176.6710  144.2970 N   0  0  0  0  0  2  0  0  0  0  0  0
  189.4260  175.6330  145.0560 N   0  0  0  0  0  0  0  0  0  0  0  0
  188.4230  176.7900  143.1030 C   0  0  0  0  0  3  0  0  0  0  0  0
  187.4500  177.9210  141.1730 N   0  0  0  0  0  1  0  0  0  0  0  0
  186.7260  178.2240  144.7540 C   0  0  0  0  0  0  0  0  0  0  0  0
  187.6230  177.3120  145.3160 C   0  0  0  0  0  3  0  0  0  0  0  0
  187.5150  177.7090  142.5770 C   0  0  0  0  0  0  0  0  0  0  0  0
  186.6900  178.4020  143.4070 N   0  0  0  0  0  0  0  0  0  0  0  0
  188.4880  176.5790  144.4870 C   0  0  0  0  0  0  0  0  0  0  0  0
  185.6490  179.1370  145.7870 Cl  0  0  0  0  0  0  0  0  0  0  0  0
  189.1690  175.0470  146.3070 C   0  0  0  0  0  0  0  0  0  0  0  0
  188.9490  174.5430  147.3810 C   0  0  0  0  0  3  0  0  0  0  0  0
  1  2  1  1  0  0  0
  1  4  1  0  0  0  0
  3 12  1  0  0  0  0
  6  8  1  0  0  0  0
  6  3  2  0  0  0  0
  7  2  1  0  0  0  0
  8 10  2  0  0  0  0
  9  7  1  0  0  0  0
 10  5  1  0  0  0  0
 10  9  1  0  0  0  0
 11  1  1  0  0  0  0
 11 14  1  1  0  0  0
 11  4  1  0  0  0  0
 12  9  2  0  0  0  0
 12 13  1  0  0  0  0
 13 17  1  1  0  0  0
 13  1  1  0  0  0  0
 16 15  1  0  0  0  0
 16 14  1  0  0  0  0
 17 26  1  0  0  0  0
 18 24  1  0  0  0  0
 19 22  1  0  0  0  0
 20 21  1  0  0  0  0
 20 25  1  0  0  0  0
 22 18  2  0  0  0  0
 22 23  1  0  0  0  0
 23 20  2  0  0  0  0
 24 17  1  0  0  0  0
 24 21  2  0  0  0  0
 26 27  3  0  0  0  0
M  END
>  <MODEL>
5

>  <REMARK>
 VINA RESULT:      -6.7      3.108      5.439
  Name = 
  5 active torsions:
  status: ('A' for Active; 'I' for Inactive)
    1  A    between atoms: C_13  and  N_27
    2  A    between atoms: C_18  and  N_27
    3  A    between atoms: N_21  and  C_25
    4  A    between atoms: C_23  and  C_25
    5  A    between atoms: C_26  and  N_27
                            x       y       z     vdW  Elec       q    Type
                         _______ _______ _______ _____ _____    ______ ____

>  <TORSDO>
F 5

$$$$
=
 OpenBabel11042415093D

 27 30  0  0  1  0  0  0  0  0999 V2000
  187.4760  177.0640  145.2960 C   0  0  1  0  0  0  0  0  0  0  0  0
  188.1440  176.0410  146.2070 C   0  0  0  0  0  2  0  0  0  0  0  0
  190.5260  177.8150  143.0910 C   0  0  0  0  0  3  0  0  0  0  0  0
  186.1180  176.7790  145.0620 O   0  0  0  0  0  0  0  0  0  0  0  0
  192.5810  176.1270  146.7900 Cl  0  0  0  0  0  0  0  0  0  0  0  0
  191.9140  177.6920  143.1450 C   0  0  0  0  0  3  0  0  0  0  0  0
  189.5390  176.5370  146.5570 C   0  0  0  0  0  2  0  0  0  0  0  0
  192.5240  177.1660  144.2830 C   0  0  0  0  0  3  0  0  0  0  0  0
  190.3500  176.8790  145.3320 C   0  0  0  0  0  0  0  0  0  0  0  0
  191.7530  176.7640  145.3770 C   0  0  0  0  0  0  0  0  0  0  0  0
  186.3950  177.9550  145.7950 C   0  0  1  0  0  3  0  0  0  0  0  0
  189.7310  177.4100  144.1700 C   0  0  0  0  0  0  0  0  0  0  0  0
  188.2280  177.5380  144.0470 C   0  0  1  0  0  3  0  0  0  0  0  0
  186.0430  177.7310  147.2570 C   0  0  0  0  0  2  0  0  0  0  0  0
  184.0660  178.6650  146.4560 C   0  0  0  0  0  1  0  0  0  0  0  0
  184.9270  178.5830  147.6220 N   0  0  0  0  0  2  0  0  0  0  0  0
  187.7180  176.9160  142.8170 N   0  0  0  0  0  0  0  0  0  0  0  0
  188.1910  175.3420  140.9580 C   0  0  0  0  0  3  0  0  0  0  0  0
  188.6480  173.8060  139.1200 N   0  0  0  0  0  1  0  0  0  0  0  0
  188.9760  173.3810  142.7460 C   0  0  0  0  0  0  0  0  0  0  0  0
  188.5580  174.6230  143.2290 C   0  0  0  0  0  3  0  0  0  0  0  0
  188.6150  174.0900  140.5120 C   0  0  0  0  0  0  0  0  0  0  0  0
  188.9970  173.1410  141.4080 N   0  0  0  0  0  0  0  0  0  0  0  0
  188.1580  175.6250  142.3310 C   0  0  0  0  0  0  0  0  0  0  0  0
  189.4730  172.1310  143.8660 Cl  0  0  0  0  0  0  0  0  0  0  0  0
  186.7640  177.6560  142.0980 C   0  0  0  0  0  0  0  0  0  0  0  0
  185.9450  178.2910  141.4810 C   0  0  0  0  0  3  0  0  0  0  0  0
  1 11  1  0  0  0  0
  1  2  1  1  0  0  0
  2  7  1  0  0  0  0
  3  6  2  0  0  0  0
  3 12  1  0  0  0  0
  4  1  1  0  0  0  0
  4 11  1  0  0  0  0
  6  8  1  0  0  0  0
  8 10  2  0  0  0  0
  9 10  1  0  0  0  0
  9  7  1  0  0  0  0
 10  5  1  0  0  0  0
 11 14  1  1  0  0  0
 12  9  2  0  0  0  0
 13 17  1  6  0  0  0
 13 12  1  0  0  0  0
 13  1  1  0  0  0  0
 14 16  1  0  0  0  0
 15 16  1  0  0  0  0
 18 24  1  0  0  0  0
 19 22  1  0  0  0  0
 20 21  1  0  0  0  0
 20 25  1  0  0  0  0
 22 18  2  0  0  0  0
 22 23  1  0  0  0  0
 23 20  2  0  0  0  0
 24 17  1  0  0  0  0
 24 21  2  0  0  0  0
 26 17  1  0  0  0  0
 27 26  3  0  0  0  0
M  END
>  <MODEL>
6

>  <REMARK>
 VINA RESULT:      -6.7      2.167      3.083
  Name = 
  5 active torsions:
  status: ('A' for Active; 'I' for Inactive)
    1  A    between atoms: C_13  and  N_27
    2  A    between atoms: C_18  and  N_27
    3  A    between atoms: N_21  and  C_25
    4  A    between atoms: C_23  and  C_25
    5  A    between atoms: C_26  and  N_27
                            x       y       z     vdW  Elec       q    Type
                         _______ _______ _______ _____ _____    ______ ____

>  <TORSDO>
F 5

$$$$
=
 OpenBabel11042415093D

 27 30  0  0  1  0  0  0  0  0999 V2000
  186.4220  177.3860  141.3340 C   0  0  1  0  0  0  0  0  0  0  0  0
  187.0100  177.6100  139.9470 C   0  0  0  0  0  2  0  0  0  0  0  0
  188.3120  174.1470  142.1480 C   0  0  0  0  0  3  0  0  0  0  0  0
  186.1600  178.5900  142.0150 O   0  0  0  0  0  0  0  0  0  0  0  0
  188.5830  174.1370  137.6010 Cl  0  0  0  0  0  0  0  0  0  0  0  0
  188.9810  173.1260  141.4730 C   0  0  0  0  0  3  0  0  0  0  0  0
  187.0710  176.2730  139.2230 C   0  0  0  0  0  2  0  0  0  0  0  0
  189.0600  173.1450  140.0810 C   0  0  0  0  0  3  0  0  0  0  0  0
  187.7920  175.2190  140.0240 C   0  0  0  0  0  0  0  0  0  0  0  0
  188.4670  174.1800  139.3540 C   0  0  0  0  0  0  0  0  0  0  0  0
  185.0350  177.8110  141.6640 C   0  0  1  0  0  3  0  0  0  0  0  0
  187.7190  175.2000  141.4410 C   0  0  0  0  0  0  0  0  0  0  0  0
  187.0310  176.2980  142.2260 C   0  0  1  0  0  3  0  0  0  0  0  0
  184.3060  178.4720  140.5070 C   0  0  0  0  0  2  0  0  0  0  0  0
  182.3400  178.3280  141.7460 C   0  0  0  0  0  1  0  0  0  0  0  0
  182.9350  177.9990  140.4630 N   0  0  0  0  0  2  0  0  0  0  0  0
  187.8960  176.8530  143.2760 N   0  0  0  0  0  0  0  0  0  0  0  0
  188.3640  175.8560  145.5000 C   0  0  0  0  0  3  0  0  0  0  0  0
  188.8340  174.8650  147.6780 N   0  0  0  0  0  1  0  0  0  0  0  0
  186.3310  177.3400  146.6520 C   0  0  0  0  0  0  0  0  0  0  0  0
  186.5900  177.4740  145.2870 C   0  0  0  0  0  3  0  0  0  0  0  0
  188.0770  175.7480  146.8610 C   0  0  0  0  0  0  0  0  0  0  0  0
  187.0740  176.4870  147.4060 N   0  0  0  0  0  0  0  0  0  0  0  0
  187.6190  176.7270  144.6910 C   0  0  0  0  0  0  0  0  0  0  0  0
  185.0480  178.2700  147.3940 Cl  0  0  0  0  0  0  0  0  0  0  0  0
  189.0350  177.5480  142.8360 C   0  0  0  0  0  0  0  0  0  0  0  0
  190.0130  178.1460  142.4580 C   0  0  0  0  0  3  0  0  0  0  0  0
  1  2  1  6  0  0  0
  1 11  1  0  0  0  0
  1  4  1  0  0  0  0
  1 13  1  0  0  0  0
  5 10  1  0  0  0  0
  6  3  1  0  0  0  0
  7  2  1  0  0  0  0
  7  9  1  0  0  0  0
  8  6  2  0  0  0  0
  9 12  1  0  0  0  0
 10  9  2  0  0  0  0
 10  8  1  0  0  0  0
 11 14  1  6  0  0  0
 11  4  1  0  0  0  0
 12  3  2  0  0  0  0
 12 13  1  0  0  0  0
 13 17  1  1  0  0  0
 16 14  1  0  0  0  0
 16 15  1  0  0  0  0
 17 24  1  0  0  0  0
 18 22  1  0  0  0  0
 20 25  1  0  0  0  0
 20 23  1  0  0  0  0
 21 20  2  0  0  0  0
 22 23  2  0  0  0  0
 22 19  1  0  0  0  0
 24 21  1  0  0  0  0
 24 18  2  0  0  0  0
 26 17  1  0  0  0  0
 27 26  3  0  0  0  0
M  END
>  <MODEL>
7

>  <REMARK>
 VINA RESULT:      -6.6      2.744      5.997
  Name = 
  5 active torsions:
  status: ('A' for Active; 'I' for Inactive)
    1  A    between atoms: C_13  and  N_27
    2  A    between atoms: C_18  and  N_27
    3  A    between atoms: N_21  and  C_25
    4  A    between atoms: C_23  and  C_25
    5  A    between atoms: C_26  and  N_27
                            x       y       z     vdW  Elec       q    Type
                         _______ _______ _______ _____ _____    ______ ____

>  <TORSDO>
F 5

$$$$
=
 OpenBabel11042415093D

 27 30  0  0  1  0  0  0  0  0999 V2000
  187.4370  177.0100  145.2820 C   0  0  1  0  0  0  0  0  0  0  0  0
  188.1170  175.9780  146.1730 C   0  0  0  0  0  2  0  0  0  0  0  0
  190.4850  177.8600  143.1100 C   0  0  0  0  0  3  0  0  0  0  0  0
  186.0850  176.7080  145.0340 O   0  0  0  0  0  0  0  0  0  0  0  0
  192.5490  176.1250  146.7820 Cl  0  0  0  0  0  0  0  0  0  0  0  0
  191.8750  177.7590  143.1690 C   0  0  0  0  0  3  0  0  0  0  0  0
  189.5010  176.4900  146.5410 C   0  0  0  0  0  2  0  0  0  0  0  0
  192.4870  177.2170  144.2980 C   0  0  0  0  0  3  0  0  0  0  0  0
  190.3130  176.8720  145.3290 C   0  0  0  0  0  0  0  0  0  0  0  0
  191.7170  176.7790  145.3790 C   0  0  0  0  0  0  0  0  0  0  0  0
  186.3390  177.8720  145.7940 C   0  0  1  0  0  3  0  0  0  0  0  0
  189.6920  177.4180  144.1760 C   0  0  0  0  0  0  0  0  0  0  0  0
  188.1860  177.5240  144.0470 C   0  0  1  0  0  3  0  0  0  0  0  0
  185.9830  177.6100  147.2480 C   0  0  0  0  0  2  0  0  0  0  0  0
  184.0640  178.6380  146.4230 C   0  0  0  0  0  1  0  0  0  0  0  0
  184.8500  178.4340  147.6260 N   0  0  0  0  0  2  0  0  0  0  0  0
  187.6940  176.9210  142.8010 N   0  0  0  0  0  0  0  0  0  0  0  0
  188.5370  174.6170  143.1740 C   0  0  0  0  0  3  0  0  0  0  0  0
  189.3690  172.3560  143.5590 N   0  0  0  0  0  1  0  0  0  0  0  0
  188.6360  174.1530  140.4480 C   0  0  0  0  0  0  0  0  0  0  0  0
  188.1980  175.3920  140.9180 C   0  0  0  0  0  3  0  0  0  0  0  0
  188.9700  173.3910  142.6690 C   0  0  0  0  0  0  0  0  0  0  0  0
  189.0100  173.1840  141.3250 N   0  0  0  0  0  0  0  0  0  0  0  0
  188.1430  175.6390  142.2990 C   0  0  0  0  0  0  0  0  0  0  0  0
  188.7050  173.8470  138.7260 Cl  0  0  0  0  0  0  0  0  0  0  0  0
  186.7470  177.6700  142.0830 C   0  0  0  0  0  0  0  0  0  0  0  0
  185.9330  178.3120  141.4650 C   0  0  0  0  0  3  0  0  0  0  0  0
  1 11  1  0  0  0  0
  1  2  1  1  0  0  0
  2  7  1  0  0  0  0
  3  6  2  0  0  0  0
  3 12  1  0  0  0  0
  4  1  1  0  0  0  0
  4 11  1  0  0  0  0
  6  8  1  0  0  0  0
  8 10  2  0  0  0  0
  9 10  1  0  0  0  0
  9  7  1  0  0  0  0
 10  5  1  0  0  0  0
 11 14  1  1  0  0  0
 12  9  2  0  0  0  0
 13 17  1  6  0  0  0
 13 12  1  0  0  0  0
 13  1  1  0  0  0  0
 14 16  1  0  0  0  0
 15 16  1  0  0  0  0
 20 21  2  0  0  0  0
 20 23  1  0  0  0  0
 21 24  1  0  0  0  0
 22 18  1  0  0  0  0
 22 19  1  0  0  0  0
 23 22  2  0  0  0  0
 24 17  1  0  0  0  0
 24 18  2  0  0  0  0
 25 20  1  0  0  0  0
 26 17  1  0  0  0  0
 27 26  3  0  0  0  0
M  END
>  <MODEL>
8

>  <REMARK>
 VINA RESULT:      -6.6      2.018      3.272
  Name = 
  5 active torsions:
  status: ('A' for Active; 'I' for Inactive)
    1  A    between atoms: C_13  and  N_27
    2  A    between atoms: C_18  and  N_27
    3  A    between atoms: N_21  and  C_25
    4  A    between atoms: C_23  and  C_25
    5  A    between atoms: C_26  and  N_27
                            x       y       z     vdW  Elec       q    Type
                         _______ _______ _______ _____ _____    ______ ____

>  <TORSDO>
F 5

$$$$
=
 OpenBabel11042415093D

 27 30  0  0  1  0  0  0  0  0999 V2000
  188.1790  176.0830  142.7770 C   0  0  1  0  0  0  0  0  0  0  0  0
  186.8110  175.5270  143.1520 C   0  0  0  0  0  2  0  0  0  0  0  0
  189.0700  177.5430  146.2130 C   0  0  0  0  0  3  0  0  0  0  0  0
  188.8450  175.2910  141.8230 O   0  0  0  0  0  0  0  0  0  0  0  0
  184.5340  177.3120  146.5670 Cl  0  0  0  0  0  0  0  0  0  0  0  0
  188.4220  177.9440  147.3810 C   0  0  0  0  0  3  0  0  0  0  0  0
  186.0950  176.5450  144.0270 C   0  0  0  0  0  2  0  0  0  0  0  0
  187.0330  177.8580  147.4730 C   0  0  0  0  0  3  0  0  0  0  0  0
  186.9250  176.9650  145.2140 C   0  0  0  0  0  0  0  0  0  0  0  0
  186.2820  177.3770  146.3980 C   0  0  0  0  0  0  0  0  0  0  0  0
  188.4610  176.5850  141.4060 C   0  0  1  0  0  3  0  0  0  0  0  0
  188.3390  177.0480  145.1260 C   0  0  0  0  0  0  0  0  0  0  0  0
  189.0950  176.5990  143.8930 C   0  0  1  0  0  3  0  0  0  0  0  0
  187.2770  176.4770  140.4590 C   0  0  0  0  0  2  0  0  0  0  0  0
  185.4730  177.9450  140.5680 C   0  0  0  0  0  1  0  0  0  0  0  0
  186.8340  177.8070  140.0840 N   0  0  0  0  0  2  0  0  0  0  0  0
  190.1710  175.6530  144.2170 N   0  0  0  0  0  0  0  0  0  0  0  0
  192.1740  175.7090  142.7540 C   0  0  0  0  0  3  0  0  0  0  0  0
  194.1340  175.7550  141.3030 N   0  0  0  0  0  1  0  0  0  0  0  0
  193.7270  176.6890  144.8250 C   0  0  0  0  0  0  0  0  0  0  0  0
  192.3730  176.4280  145.0450 C   0  0  0  0  0  3  0  0  0  0  0  0
  193.5300  175.9810  142.5700 C   0  0  0  0  0  0  0  0  0  0  0  0
  194.2740  176.4630  143.6010 N   0  0  0  0  0  0  0  0  0  0  0  0
  191.5750  175.9310  144.0020 C   0  0  0  0  0  0  0  0  0  0  0  0
  194.7200  177.3070  146.1260 Cl  0  0  0  0  0  0  0  0  0  0  0  0
  189.7680  174.4170  144.7510 C   0  0  0  0  0  0  0  0  0  0  0  0
  189.4210  173.3560  145.2090 C   0  0  0  0  0  3  0  0  0  0  0  0
  1  2  1  1  0  0  0
  1 13  1  0  0  0  0
  2  7  1  0  0  0  0
  3  6  1  0  0  0  0
  4  1  1  0  0  0  0
  6  8  2  0  0  0  0
  7  9  1  0  0  0  0
  9 10  2  0  0  0  0
 10  5  1  0  0  0  0
 10  8  1  0  0  0  0
 11 14  1  6  0  0  0
 11  4  1  0  0  0  0
 11  1  1  0  0  0  0
 12  9  1  0  0  0  0
 12  3  2  0  0  0  0
 13 17  1  1  0  0  0
 13 12  1  0  0  0  0
 16 14  1  0  0  0  0
 16 15  1  0  0  0  0
 17 26  1  0  0  0  0
 18 24  1  0  0  0  0
 19 22  1  0  0  0  0
 20 21  1  0  0  0  0
 20 25  1  0  0  0  0
 22 18  2  0  0  0  0
 22 23  1  0  0  0  0
 23 20  2  0  0  0  0
 24 17  1  0  0  0  0
 24 21  2  0  0  0  0
 26 27  3  0  0  0  0
M  END
>  <MODEL>
9

>  <REMARK>
 VINA RESULT:      -6.5      2.627      6.192
  Name = 
  5 active torsions:
  status: ('A' for Active; 'I' for Inactive)
    1  A    between atoms: C_13  and  N_27
    2  A    between atoms: C_18  and  N_27
    3  A    between atoms: N_21  and  C_25
    4  A    between atoms: C_23  and  C_25
    5  A    between atoms: C_26  and  N_27
                            x       y       z     vdW  Elec       q    Type
                         _______ _______ _______ _____ _____    ______ ____

>  <TORSDO>
F 5

$$$$
