=
 OpenBabel11042414203D

 27 31  0  0  1  0  0  0  0  0999 V2000
  187.1730  174.6550  142.2470 C   0  0  0  0  0  3  0  0  0  0  0  0
  188.2460  173.7720  142.1090 C   0  0  0  0  0  3  0  0  0  0  0  0
  189.6310  175.2360  143.4600 C   0  0  0  0  0  0  0  0  0  0  0  0
  187.3070  175.8330  142.9990 C   0  0  0  0  0  0  0  0  0  0  0  0
  188.5490  176.1150  143.5940 C   0  0  0  0  0  3  0  0  0  0  0  0
  189.4710  174.0590  142.7140 C   0  0  0  0  0  3  0  0  0  0  0  0
  184.6000  178.1690  144.3930 C   0  0  0  0  0  0  0  0  0  0  0  0
  184.0490  178.5950  143.2280 N   0  0  0  0  0  0  0  0  0  0  0  0
  185.7450  177.3500  146.8130 C   0  0  0  0  0  3  0  0  0  0  0  0
  184.0920  178.6420  145.6070 C   0  0  0  0  0  3  0  0  0  0  0  0
  185.6890  177.2610  144.3800 C   0  0  0  0  0  0  0  0  0  0  0  0
  186.2560  176.8720  145.6040 C   0  0  0  0  0  3  0  0  0  0  0  0
  186.1850  176.8010  143.1330 C   0  0  0  0  0  0  0  0  0  0  0  0
  184.6620  178.2330  146.8140 C   0  0  0  0  0  3  0  0  0  0  0  0
  185.5840  177.2820  141.9600 C   0  0  0  0  0  3  0  0  0  0  0  0
  184.5200  178.1810  142.0240 C   0  0  0  0  0  0  0  0  0  0  0  0
  183.8770  178.6590  140.7710 C   0  0  0  0  0  2  0  0  0  0  0  0
  182.6330  177.9420  140.5550 N   0  0  0  0  0  1  0  0  0  0  0  0
  192.1800  176.6690  145.4250 C   0  0  1  0  0  3  0  0  0  0  0  0
  192.1150  175.6520  143.3870 C   0  0  0  0  0  2  0  0  0  0  0  0
  190.9730  175.9360  145.3900 O   0  0  0  0  0  0  0  0  0  0  0  0
  193.0290  176.3290  146.6220 C   0  0  0  0  0  3  0  0  0  0  0  0
  194.3620  176.2200  146.5120 C   0  0  0  0  0  3  0  0  0  0  0  0
  192.9040  176.3170  144.1770 C   0  0  2  0  0  3  0  0  0  0  0  0
  190.8850  175.5430  144.0850 N   0  0  0  0  0  0  0  0  0  0  0  0
  194.3280  176.3320  144.0890 N   0  0  0  0  0  0  0  0  0  0  0  0
  195.0270  176.3120  145.1880 C   0  0  0  0  0  3  0  0  0  0  0  0
  1  4  1  0  0  0  0
  2  1  2  0  0  0  0
  2  6  1  0  0  0  0
  3  5  1  0  0  0  0
  3 25  1  0  0  0  0
  4 13  1  0  0  0  0
  4  5  2  0  0  0  0
  6  3  2  0  0  0  0
  7 10  1  0  0  0  0
  8  7  1  0  0  0  0
  9 14  1  0  0  0  0
 10 14  2  0  0  0  0
 11  7  2  0  0  0  0
 11 12  1  0  0  0  0
 12  9  2  0  0  0  0
 13 11  1  0  0  0  0
 15 16  1  0  0  0  0
 15 13  2  0  0  0  0
 16  8  2  0  0  0  0
 17 16  1  0  0  0  0
 18 17  1  0  0  0  0
 19 22  1  1  0  0  0
 20 25  1  0  0  0  0
 21 19  1  0  0  0  0
 23 22  2  0  0  0  0
 24 20  1  1  0  0  0
 24 19  1  0  0  0  0
 25 21  1  0  0  0  0
 26 24  1  0  0  0  0
 26 27  2  0  0  0  0
 27 23  1  0  0  0  0
M  END
>  <MODEL>
1

>  <REMARK>
 VINA RESULT:      -8.6      0.000      0.000
  Name = 
  3 active torsions:
  status: ('A' for Active; 'I' for Inactive)
    1  A    between atoms: C_14  and  N_19
    2  A    between atoms: C_15  and  C_18
    3  A    between atoms: C_23  and  C_25
                            x       y       z     vdW  Elec       q    Type
                         _______ _______ _______ _____ _____    ______ ____

>  <TORSDO>
F 3

$$$$
=
 OpenBabel11042414203D

 27 31  0  0  1  0  0  0  0  0999 V2000
  188.1920  175.6680  146.7630 C   0  0  0  0  0  3  0  0  0  0  0  0
  189.0990  174.9660  147.5600 C   0  0  0  0  0  3  0  0  0  0  0  0
  190.8980  175.5630  146.0460 C   0  0  0  0  0  0  0  0  0  0  0  0
  188.6220  176.3350  145.6060 C   0  0  0  0  0  0  0  0  0  0  0  0
  189.9820  176.2660  145.2550 C   0  0  0  0  0  3  0  0  0  0  0  0
  190.4470  174.9140  147.2050 C   0  0  0  0  0  3  0  0  0  0  0  0
  185.6130  178.3060  144.2650 C   0  0  0  0  0  0  0  0  0  0  0  0
  185.9560  178.3730  142.9540 N   0  0  0  0  0  0  0  0  0  0  0  0
  184.9020  178.2290  146.9720 C   0  0  0  0  0  3  0  0  0  0  0  0
  184.4220  178.8970  144.6960 C   0  0  0  0  0  3  0  0  0  0  0  0
  186.4630  177.6520  145.1940 C   0  0  0  0  0  0  0  0  0  0  0  0
  186.0930  177.6340  146.5480 C   0  0  0  0  0  3  0  0  0  0  0  0
  187.6670  177.0640  144.7280 C   0  0  0  0  0  0  0  0  0  0  0  0
  184.0660  178.8570  146.0460 C   0  0  0  0  0  3  0  0  0  0  0  0
  187.9750  177.1730  143.3630 C   0  0  0  0  0  3  0  0  0  0  0  0
  187.1120  177.8340  142.4900 C   0  0  0  0  0  0  0  0  0  0  0  0
  187.4410  177.9160  141.0420 C   0  0  0  0  0  2  0  0  0  0  0  0
  186.2700  177.5740  140.2530 N   0  0  0  0  0  1  0  0  0  0  0  0
  194.4200  175.6590  146.0510 C   0  0  1  0  0  3  0  0  0  0  0  0
  192.8100  176.1410  144.5120 C   0  0  0  0  0  2  0  0  0  0  0  0
  193.2460  175.0100  146.4940 O   0  0  0  0  0  0  0  0  0  0  0  0
  195.5890  174.7170  145.9290 C   0  0  0  0  0  3  0  0  0  0  0  0
  196.4480  174.8140  144.9020 C   0  0  0  0  0  3  0  0  0  0  0  0
  194.0900  176.2280  144.7200 C   0  0  2  0  0  3  0  0  0  0  0  0
  192.2810  175.5160  145.6690 N   0  0  0  0  0  0  0  0  0  0  0  0
  195.0750  176.4150  143.7040 N   0  0  0  0  0  0  0  0  0  0  0  0
  196.2030  175.7710  143.7930 C   0  0  0  0  0  3  0  0  0  0  0  0
  1  2  1  0  0  0  0
  3  6  1  0  0  0  0
  4  1  2  0  0  0  0
  5  4  1  0  0  0  0
  5  3  2  0  0  0  0
  6  2  2  0  0  0  0
  7 10  2  0  0  0  0
  7 11  1  0  0  0  0
  8  7  1  0  0  0  0
 10 14  1  0  0  0  0
 11 12  2  0  0  0  0
 12  9  1  0  0  0  0
 13 11  1  0  0  0  0
 13  4  1  0  0  0  0
 14  9  2  0  0  0  0
 15 13  2  0  0  0  0
 16  8  2  0  0  0  0
 16 15  1  0  0  0  0
 17 16  1  0  0  0  0
 18 17  1  0  0  0  0
 19 22  1  6  0  0  0
 19 21  1  0  0  0  0
 20 25  1  0  0  0  0
 23 22  2  0  0  0  0
 24 20  1  6  0  0  0
 24 19  1  0  0  0  0
 25  3  1  0  0  0  0
 25 21  1  0  0  0  0
 26 27  2  0  0  0  0
 26 24  1  0  0  0  0
 27 23  1  0  0  0  0
M  END
>  <MODEL>
2

>  <REMARK>
 VINA RESULT:      -8.5      1.990      2.727
  Name = 
  3 active torsions:
  status: ('A' for Active; 'I' for Inactive)
    1  A    between atoms: C_14  and  N_19
    2  A    between atoms: C_15  and  C_18
    3  A    between atoms: C_23  and  C_25
                            x       y       z     vdW  Elec       q    Type
                         _______ _______ _______ _____ _____    ______ ____

>  <TORSDO>
F 3

$$$$
=
 OpenBabel11042414203D

 27 31  0  0  1  0  0  0  0  0999 V2000
  189.6720  177.9410  144.4020 C   0  0  0  0  0  3  0  0  0  0  0  0
  190.9940  177.5030  144.5170 C   0  0  0  0  0  3  0  0  0  0  0  0
  190.3190  175.2730  143.8420 C   0  0  0  0  0  0  0  0  0  0  0  0
  188.6590  177.0590  143.9970 C   0  0  0  0  0  0  0  0  0  0  0  0
  188.9970  175.7210  143.7280 C   0  0  0  0  0  3  0  0  0  0  0  0
  191.3170  176.1750  144.2360 C   0  0  0  0  0  3  0  0  0  0  0  0
  185.0690  178.1480  144.8110 C   0  0  0  0  0  0  0  0  0  0  0  0
  184.5850  178.2860  143.5500 N   0  0  0  0  0  0  0  0  0  0  0  0
  186.0500  177.9220  147.4230 C   0  0  0  0  0  3  0  0  0  0  0  0
  184.2340  178.4100  145.9010 C   0  0  0  0  0  3  0  0  0  0  0  0
  186.4150  177.7540  145.0220 C   0  0  0  0  0  0  0  0  0  0  0  0
  186.8900  177.6570  146.3390 C   0  0  0  0  0  3  0  0  0  0  0  0
  187.2400  177.4980  143.8960 C   0  0  0  0  0  0  0  0  0  0  0  0
  184.7220  178.2960  147.2040 C   0  0  0  0  0  3  0  0  0  0  0  0
  186.6900  177.6660  142.6170 C   0  0  0  0  0  3  0  0  0  0  0  0
  185.3630  178.0640  142.4600 C   0  0  0  0  0  0  0  0  0  0  0  0
  184.7880  178.2110  141.0970 C   0  0  0  0  0  2  0  0  0  0  0  0
  185.7370  177.7220  140.1100 N   0  0  0  0  0  1  0  0  0  0  0  0
  190.1470  171.8170  143.1790 C   0  0  1  0  0  3  0  0  0  0  0  0
  191.6630  173.1730  144.2060 C   0  0  0  0  0  2  0  0  0  0  0  0
  189.8590  173.1290  142.7410 O   0  0  0  0  0  0  0  0  0  0  0  0
  190.3600  170.8600  142.0360 C   0  0  0  0  0  3  0  0  0  0  0  0
  191.3230  169.9260  142.0890 C   0  0  0  0  0  3  0  0  0  0  0  0
  191.3880  171.9220  143.9870 C   0  0  2  0  0  3  0  0  0  0  0  0
  190.6380  173.9040  143.5530 N   0  0  0  0  0  0  0  0  0  0  0  0
  192.3200  170.8470  144.0990 N   0  0  0  0  0  0  0  0  0  0  0  0
  192.2820  169.8850  143.2220 C   0  0  0  0  0  3  0  0  0  0  0  0
  1  2  1  0  0  0  0
  3  6  1  0  0  0  0
  4  1  2  0  0  0  0
  5  3  2  0  0  0  0
  5  4  1  0  0  0  0
  6  2  2  0  0  0  0
  7 11  2  0  0  0  0
  7 10  1  0  0  0  0
  8  7  1  0  0  0  0
 10 14  2  0  0  0  0
 11 12  1  0  0  0  0
 12  9  2  0  0  0  0
 13  4  1  0  0  0  0
 13 11  1  0  0  0  0
 14  9  1  0  0  0  0
 15 13  2  0  0  0  0
 16 15  1  0  0  0  0
 16  8  2  0  0  0  0
 17 16  1  0  0  0  0
 18 17  1  0  0  0  0
 19 22  1  6  0  0  0
 19 24  1  0  0  0  0
 21 19  1  0  0  0  0
 21 25  1  0  0  0  0
 22 23  2  0  0  0  0
 23 27  1  0  0  0  0
 24 26  1  0  0  0  0
 24 20  1  6  0  0  0
 25  3  1  0  0  0  0
 25 20  1  0  0  0  0
 27 26  2  0  0  0  0
M  END
>  <MODEL>
3

>  <REMARK>
 VINA RESULT:      -8.1      2.401      3.747
  Name = 
  3 active torsions:
  status: ('A' for Active; 'I' for Inactive)
    1  A    between atoms: C_14  and  N_19
    2  A    between atoms: C_15  and  C_18
    3  A    between atoms: C_23  and  C_25
                            x       y       z     vdW  Elec       q    Type
                         _______ _______ _______ _____ _____    ______ ____

>  <TORSDO>
F 3

$$$$
=
 OpenBabel11042414203D

 27 31  0  0  1  0  0  0  0  0999 V2000
  186.7330  177.8370  141.3620 C   0  0  0  0  0  3  0  0  0  0  0  0
  186.0470  177.9160  140.1480 C   0  0  0  0  0  3  0  0  0  0  0  0
  183.9390  178.0460  141.3420 C   0  0  0  0  0  0  0  0  0  0  0  0
  186.0380  177.8710  142.5810 C   0  0  0  0  0  0  0  0  0  0  0  0
  184.6360  177.9670  142.5540 C   0  0  0  0  0  3  0  0  0  0  0  0
  184.6550  178.0220  140.1370 C   0  0  0  0  0  3  0  0  0  0  0  0
  186.9050  177.8720  146.3200 C   0  0  0  0  0  0  0  0  0  0  0  0
  188.2200  177.5410  146.2450 N   0  0  0  0  0  0  0  0  0  0  0  0
  184.1860  178.5060  146.5130 C   0  0  0  0  0  3  0  0  0  0  0  0
  186.3210  178.0870  147.5720 C   0  0  0  0  0  3  0  0  0  0  0  0
  186.1280  177.9860  145.1400 C   0  0  0  0  0  0  0  0  0  0  0  0
  184.7640  178.2940  145.2590 C   0  0  0  0  0  3  0  0  0  0  0  0
  186.7480  177.7580  143.8840 C   0  0  0  0  0  0  0  0  0  0  0  0
  184.9650  178.4050  147.6680 C   0  0  0  0  0  3  0  0  0  0  0  0
  188.1070  177.4090  143.8670 C   0  0  0  0  0  3  0  0  0  0  0  0
  188.8280  177.3000  145.0560 C   0  0  0  0  0  0  0  0  0  0  0  0
  190.2740  176.9570  145.0170 C   0  0  0  0  0  2  0  0  0  0  0  0
  190.9860  177.9230  144.1980 N   0  0  0  0  0  1  0  0  0  0  0  0
  180.5830  178.6750  140.4730 C   0  0  1  0  0  3  0  0  0  0  0  0
  181.7530  178.6660  142.4290 C   0  0  0  0  0  2  0  0  0  0  0  0
  181.7590  177.9310  140.2240 O   0  0  0  0  0  0  0  0  0  0  0  0
  179.3320  177.9160  140.1180 C   0  0  0  0  0  3  0  0  0  0  0  0
  178.2410  177.9830  140.8970 C   0  0  0  0  0  3  0  0  0  0  0  0
  180.5950  178.9780  141.9260 C   0  0  2  0  0  3  0  0  0  0  0  0
  182.5090  178.1520  141.3450 N   0  0  0  0  0  0  0  0  0  0  0  0
  179.3960  179.1550  142.6800 N   0  0  0  0  0  0  0  0  0  0  0  0
  178.2740  178.7110  142.1910 C   0  0  0  0  0  3  0  0  0  0  0  0
  1  4  1  0  0  0  0
  2  1  2  0  0  0  0
  3 25  1  0  0  0  0
  3  5  1  0  0  0  0
  4 13  1  0  0  0  0
  5  4  2  0  0  0  0
  6  2  1  0  0  0  0
  6  3  2  0  0  0  0
  7 10  1  0  0  0  0
  8  7  1  0  0  0  0
  9 14  1  0  0  0  0
 10 14  2  0  0  0  0
 11 12  1  0  0  0  0
 11  7  2  0  0  0  0
 12  9  2  0  0  0  0
 13 11  1  0  0  0  0
 15 13  2  0  0  0  0
 15 16  1  0  0  0  0
 16  8  2  0  0  0  0
 17 16  1  0  0  0  0
 18 17  1  0  0  0  0
 19 22  1  1  0  0  0
 19 24  1  0  0  0  0
 21 19  1  0  0  0  0
 21 25  1  0  0  0  0
 22 23  2  0  0  0  0
 23 27  1  0  0  0  0
 24 20  1  1  0  0  0
 24 26  1  0  0  0  0
 25 20  1  0  0  0  0
 27 26  2  0  0  0  0
M  END
>  <MODEL>
4

>  <REMARK>
 VINA RESULT:      -8.1      3.326      8.806
  Name = 
  3 active torsions:
  status: ('A' for Active; 'I' for Inactive)
    1  A    between atoms: C_14  and  N_19
    2  A    between atoms: C_15  and  C_18
    3  A    between atoms: C_23  and  C_25
                            x       y       z     vdW  Elec       q    Type
                         _______ _______ _______ _____ _____    ______ ____

>  <TORSDO>
F 3

$$$$
=
 OpenBabel11042414203D

 27 31  0  0  1  0  0  0  0  0999 V2000
  189.1820  177.6680  144.3130 C   0  0  0  0  0  3  0  0  0  0  0  0
  190.4780  177.1520  144.2500 C   0  0  0  0  0  3  0  0  0  0  0  0
  189.6730  175.2750  142.9410 C   0  0  0  0  0  0  0  0  0  0  0  0
  188.1160  177.0040  143.6860 C   0  0  0  0  0  0  0  0  0  0  0  0
  188.3770  175.8000  143.0100 C   0  0  0  0  0  3  0  0  0  0  0  0
  190.7240  175.9620  143.5650 C   0  0  0  0  0  3  0  0  0  0  0  0
  184.7400  178.3230  144.9500 C   0  0  0  0  0  0  0  0  0  0  0  0
  184.0910  178.4500  143.7650 N   0  0  0  0  0  0  0  0  0  0  0  0
  186.0660  178.1220  147.4070 C   0  0  0  0  0  3  0  0  0  0  0  0
  184.0810  178.6660  146.1350 C   0  0  0  0  0  3  0  0  0  0  0  0
  186.0790  177.8590  144.9860 C   0  0  0  0  0  0  0  0  0  0  0  0
  186.7290  177.7750  146.2280 C   0  0  0  0  0  3  0  0  0  0  0  0
  186.7220  177.5220  143.7680 C   0  0  0  0  0  0  0  0  0  0  0  0
  184.7420  178.5640  147.3610 C   0  0  0  0  0  3  0  0  0  0  0  0
  186.0070  177.6820  142.5720 C   0  0  0  0  0  3  0  0  0  0  0  0
  184.6940  178.1510  142.5860 C   0  0  0  0  0  0  0  0  0  0  0  0
  183.9410  178.2880  141.3110 C   0  0  0  0  0  2  0  0  0  0  0  0
  184.8710  178.3320  140.1960 N   0  0  0  0  0  1  0  0  0  0  0  0
  189.4850  172.5490  140.7170 C   0  0  1  0  0  3  0  0  0  0  0  0
  190.1880  172.8110  142.8690 C   0  0  0  0  0  2  0  0  0  0  0  0
  189.7180  173.9330  140.8890 O   0  0  0  0  0  0  0  0  0  0  0  0
  190.2350  171.9790  139.5420 C   0  0  0  0  0  3  0  0  0  0  0  0
  190.8130  170.7690  139.6150 C   0  0  0  0  0  3  0  0  0  0  0  0
  189.9440  171.9020  141.9720 C   0  0  2  0  0  3  0  0  0  0  0  0
  189.9120  174.0490  142.2360 N   0  0  0  0  0  0  0  0  0  0  0  0
  190.4420  170.5650  142.0040 N   0  0  0  0  0  0  0  0  0  0  0  0
  190.8320  170.0110  140.8920 C   0  0  0  0  0  3  0  0  0  0  0  0
  2  1  1  0  0  0  0
  3  5  2  0  0  0  0
  3  6  1  0  0  0  0
  4 13  1  0  0  0  0
  4  1  2  0  0  0  0
  5  4  1  0  0  0  0
  6  2  2  0  0  0  0
  7 11  2  0  0  0  0
  7 10  1  0  0  0  0
  8  7  1  0  0  0  0
 10 14  2  0  0  0  0
 11 12  1  0  0  0  0
 12  9  2  0  0  0  0
 13 11  1  0  0  0  0
 14  9  1  0  0  0  0
 15 16  1  0  0  0  0
 15 13  2  0  0  0  0
 16  8  2  0  0  0  0
 17 16  1  0  0  0  0
 18 17  1  0  0  0  0
 19 22  1  6  0  0  0
 19 21  1  0  0  0  0
 19 24  1  0  0  0  0
 21 25  1  0  0  0  0
 22 23  2  0  0  0  0
 23 27  1  0  0  0  0
 24 26  1  0  0  0  0
 24 20  1  6  0  0  0
 25 20  1  0  0  0  0
 25  3  1  0  0  0  0
 27 26  2  0  0  0  0
M  END
>  <MODEL>
5

>  <REMARK>
 VINA RESULT:      -8.0      2.399      4.214
  Name = 
  3 active torsions:
  status: ('A' for Active; 'I' for Inactive)
    1  A    between atoms: C_14  and  N_19
    2  A    between atoms: C_15  and  C_18
    3  A    between atoms: C_23  and  C_25
                            x       y       z     vdW  Elec       q    Type
                         _______ _______ _______ _____ _____    ______ ____

>  <TORSDO>
F 3

$$$$
=
 OpenBabel11042414203D

 27 31  0  0  1  0  0  0  0  0999 V2000
  189.3100  175.1670  146.9730 C   0  0  0  0  0  3  0  0  0  0  0  0
  188.1420  175.8810  147.2490 C   0  0  0  0  0  3  0  0  0  0  0  0
  187.7780  176.2150  144.8740 C   0  0  0  0  0  0  0  0  0  0  0  0
  189.7250  174.9570  145.6480 C   0  0  0  0  0  0  0  0  0  0  0  0
  188.9500  175.4960  144.6070 C   0  0  0  0  0  3  0  0  0  0  0  0
  187.3770  176.4010  146.2040 C   0  0  0  0  0  3  0  0  0  0  0  0
  193.4090  173.9490  145.2700 C   0  0  0  0  0  0  0  0  0  0  0  0
  193.2510  172.7500  144.6540 N   0  0  0  0  0  0  0  0  0  0  0  0
  193.7680  176.3940  146.5860 C   0  0  0  0  0  3  0  0  0  0  0  0
  194.6970  174.4110  145.5560 C   0  0  0  0  0  3  0  0  0  0  0  0
  192.2760  174.7210  145.6340 C   0  0  0  0  0  0  0  0  0  0  0  0
  192.4780  175.9390  146.3020 C   0  0  0  0  0  3  0  0  0  0  0  0
  190.9820  174.2250  145.3340 C   0  0  0  0  0  0  0  0  0  0  0  0
  194.8770  175.6320  146.2100 C   0  0  0  0  0  3  0  0  0  0  0  0
  190.8780  172.9740  144.7050 C   0  0  0  0  0  3  0  0  0  0  0  0
  192.0210  172.2480  144.3760 C   0  0  0  0  0  0  0  0  0  0  0  0
  191.8930  170.9380  143.6840 C   0  0  0  0  0  2  0  0  0  0  0  0
  192.8990  170.0180  144.1880 N   0  0  0  0  0  1  0  0  0  0  0  0
  186.6410  178.0900  142.1170 C   0  0  1  0  0  3  0  0  0  0  0  0
  185.6270  177.0770  143.8880 C   0  0  0  0  0  2  0  0  0  0  0  0
  187.5690  177.1490  142.6150 O   0  0  0  0  0  0  0  0  0  0  0  0
  186.3700  177.9120  140.6460 C   0  0  0  0  0  3  0  0  0  0  0  0
  185.1290  178.0480  140.1530 C   0  0  0  0  0  3  0  0  0  0  0  0
  185.3920  177.8760  142.8900 C   0  0  2  0  0  3  0  0  0  0  0  0
  187.0020  176.7460  143.7910 N   0  0  0  0  0  0  0  0  0  0  0  0
  184.1000  178.1510  142.3470 N   0  0  0  0  0  0  0  0  0  0  0  0
  183.9690  178.2590  141.0560 C   0  0  0  0  0  3  0  0  0  0  0  0
  1  2  1  0  0  0  0
  3  6  1  0  0  0  0
  4  1  2  0  0  0  0
  5  3  2  0  0  0  0
  5  4  1  0  0  0  0
  6  2  2  0  0  0  0
  7 10  2  0  0  0  0
  7 11  1  0  0  0  0
  8  7  1  0  0  0  0
 10 14  1  0  0  0  0
 11 12  2  0  0  0  0
 12  9  1  0  0  0  0
 13 11  1  0  0  0  0
 13  4  1  0  0  0  0
 14  9  2  0  0  0  0
 15 13  2  0  0  0  0
 16  8  2  0  0  0  0
 16 15  1  0  0  0  0
 17 18  1  0  0  0  0
 17 16  1  0  0  0  0
 19 22  1  6  0  0  0
 19 21  1  0  0  0  0
 19 24  1  0  0  0  0
 21 25  1  0  0  0  0
 23 22  2  0  0  0  0
 23 27  1  0  0  0  0
 24 20  1  6  0  0  0
 25 20  1  0  0  0  0
 25  3  1  0  0  0  0
 26 24  1  0  0  0  0
 27 26  2  0  0  0  0
M  END
>  <MODEL>
6

>  <REMARK>
 VINA RESULT:      -7.9      2.585      8.319
  Name = 
  3 active torsions:
  status: ('A' for Active; 'I' for Inactive)
    1  A    between atoms: C_14  and  N_19
    2  A    between atoms: C_15  and  C_18
    3  A    between atoms: C_23  and  C_25
                            x       y       z     vdW  Elec       q    Type
                         _______ _______ _______ _____ _____    ______ ____

>  <TORSDO>
F 3

$$$$
=
 OpenBabel11042414203D

 27 31  0  0  1  0  0  0  0  0999 V2000
  190.2480  176.4660  147.4260 C   0  0  0  0  0  3  0  0  0  0  0  0
  191.5130  176.0060  147.8000 C   0  0  0  0  0  3  0  0  0  0  0  0
  192.3360  176.4290  145.5570 C   0  0  0  0  0  0  0  0  0  0  0  0
  190.0100  176.9230  146.1200 C   0  0  0  0  0  0  0  0  0  0  0  0
  191.0650  176.8890  145.1920 C   0  0  0  0  0  3  0  0  0  0  0  0
  192.5540  175.9900  146.8710 C   0  0  0  0  0  3  0  0  0  0  0  0
  187.0100  178.1350  144.0550 C   0  0  0  0  0  0  0  0  0  0  0  0
  186.0990  178.2870  145.0510 N   0  0  0  0  0  0  0  0  0  0  0  0
  188.8480  177.7860  141.9730 C   0  0  0  0  0  3  0  0  0  0  0  0
  186.6430  178.4240  142.7380 C   0  0  0  0  0  3  0  0  0  0  0  0
  188.3190  177.6760  144.3480 C   0  0  0  0  0  0  0  0  0  0  0  0
  189.2230  177.4980  143.2880 C   0  0  0  0  0  3  0  0  0  0  0  0
  188.6620  177.3880  145.6940 C   0  0  0  0  0  0  0  0  0  0  0  0
  187.5600  178.2520  141.6990 C   0  0  0  0  0  3  0  0  0  0  0  0
  187.6780  177.5530  146.6800 C   0  0  0  0  0  3  0  0  0  0  0  0
  186.4010  177.9990  146.3420 C   0  0  0  0  0  0  0  0  0  0  0  0
  185.3780  178.1940  147.4040 C   0  0  0  0  0  2  0  0  0  0  0  0
  184.0620  178.3150  146.8010 N   0  0  0  0  0  1  0  0  0  0  0  0
  194.3710  175.7440  142.7650 C   0  0  1  0  0  3  0  0  0  0  0  0
  194.7730  176.3410  144.9270 C   0  0  0  0  0  2  0  0  0  0  0  0
  193.1630  176.2900  143.2520 O   0  0  0  0  0  0  0  0  0  0  0  0
  194.8390  176.4140  141.4990 C   0  0  0  0  0  3  0  0  0  0  0  0
  196.1400  176.6770  141.2990 C   0  0  0  0  0  3  0  0  0  0  0  0
  195.3720  175.9480  143.8420 C   0  0  2  0  0  3  0  0  0  0  0  0
  193.3970  176.4150  144.5920 N   0  0  0  0  0  0  0  0  0  0  0  0
  196.7640  176.1060  143.5730 N   0  0  0  0  0  0  0  0  0  0  0  0
  197.1400  176.4260  142.3680 C   0  0  0  0  0  3  0  0  0  0  0  0
  1  2  1  0  0  0  0
  3  6  1  0  0  0  0
  4  1  2  0  0  0  0
  5  3  2  0  0  0  0
  5  4  1  0  0  0  0
  6  2  2  0  0  0  0
  7 11  1  0  0  0  0
  7  8  2  0  0  0  0
  8 16  1  0  0  0  0
  9 12  2  0  0  0  0
 10  7  1  0  0  0  0
 11 13  2  0  0  0  0
 12 11  1  0  0  0  0
 13  4  1  0  0  0  0
 13 15  1  0  0  0  0
 14  9  1  0  0  0  0
 14 10  2  0  0  0  0
 16 15  2  0  0  0  0
 16 17  1  0  0  0  0
 18 17  1  0  0  0  0
 19 22  1  6  0  0  0
 19 21  1  0  0  0  0
 19 24  1  0  0  0  0
 21 25  1  0  0  0  0
 23 22  2  0  0  0  0
 23 27  1  0  0  0  0
 24 20  1  6  0  0  0
 25 20  1  0  0  0  0
 25  3  1  0  0  0  0
 26 24  1  0  0  0  0
 27 26  2  0  0  0  0
M  END
>  <MODEL>
7

>  <REMARK>
 VINA RESULT:      -7.9      2.465      4.517
  Name = 
  3 active torsions:
  status: ('A' for Active; 'I' for Inactive)
    1  A    between atoms: C_14  and  N_19
    2  A    between atoms: C_15  and  C_18
    3  A    between atoms: C_23  and  C_25
                            x       y       z     vdW  Elec       q    Type
                         _______ _______ _______ _____ _____    ______ ____

>  <TORSDO>
F 3

$$$$
=
 OpenBabel11042414203D

 27 31  0  0  1  0  0  0  0  0999 V2000
  186.7140  177.8180  141.3600 C   0  0  0  0  0  3  0  0  0  0  0  0
  186.0220  177.8930  140.1490 C   0  0  0  0  0  3  0  0  0  0  0  0
  183.9230  178.0660  141.3540 C   0  0  0  0  0  0  0  0  0  0  0  0
  186.0270  177.8760  142.5830 C   0  0  0  0  0  0  0  0  0  0  0  0
  184.6260  177.9910  142.5630 C   0  0  0  0  0  3  0  0  0  0  0  0
  184.6320  178.0180  140.1450 C   0  0  0  0  0  3  0  0  0  0  0  0
  188.7320  177.5590  145.2870 C   0  0  0  0  0  0  0  0  0  0  0  0
  187.9440  177.5370  146.3910 N   0  0  0  0  0  0  0  0  0  0  0  0
  190.3900  177.6510  143.0330 C   0  0  0  0  0  3  0  0  0  0  0  0
  190.1200  177.4730  145.4310 C   0  0  0  0  0  3  0  0  0  0  0  0
  188.1540  177.6800  143.9980 C   0  0  0  0  0  0  0  0  0  0  0  0
  189.0040  177.7350  142.8810 C   0  0  0  0  0  3  0  0  0  0  0  0
  186.7430  177.7680  143.8830 C   0  0  0  0  0  0  0  0  0  0  0  0
  190.9470  177.5170  144.3070 C   0  0  0  0  0  3  0  0  0  0  0  0
  185.9780  177.7510  145.0590 C   0  0  0  0  0  3  0  0  0  0  0  0
  186.5930  177.6390  146.3050 C   0  0  0  0  0  0  0  0  0  0  0  0
  185.7650  177.5940  147.5390 C   0  0  0  0  0  2  0  0  0  0  0  0
  184.5230  178.3170  147.3220 N   0  0  0  0  0  1  0  0  0  0  0  0
  180.5750  178.7700  140.5140 C   0  0  1  0  0  3  0  0  0  0  0  0
  181.7480  178.6820  142.4650 C   0  0  0  0  0  2  0  0  0  0  0  0
  181.7390  178.0180  140.2390 O   0  0  0  0  0  0  0  0  0  0  0  0
  179.3130  178.0400  140.1380 C   0  0  0  0  0  3  0  0  0  0  0  0
  178.2240  178.0980  140.9220 C   0  0  0  0  0  3  0  0  0  0  0  0
  180.5940  179.0260  141.9760 C   0  0  2  0  0  3  0  0  0  0  0  0
  182.4950  178.1930  141.3640 N   0  0  0  0  0  0  0  0  0  0  0  0
  179.3990  179.1960  142.7380 N   0  0  0  0  0  0  0  0  0  0  0  0
  178.2700  178.7840  142.2380 C   0  0  0  0  0  3  0  0  0  0  0  0
  1  4  1  0  0  0  0
  2  1  2  0  0  0  0
  3 25  1  0  0  0  0
  3  5  1  0  0  0  0
  4 13  1  0  0  0  0
  5  4  2  0  0  0  0
  6  2  1  0  0  0  0
  6  3  2  0  0  0  0
  7 10  1  0  0  0  0
  7  8  2  0  0  0  0
  9 14  1  0  0  0  0
 11  7  1  0  0  0  0
 12  9  2  0  0  0  0
 12 11  1  0  0  0  0
 13 11  2  0  0  0  0
 13 15  1  0  0  0  0
 14 10  2  0  0  0  0
 15 16  2  0  0  0  0
 16  8  1  0  0  0  0
 16 17  1  0  0  0  0
 18 17  1  0  0  0  0
 19 22  1  1  0  0  0
 19 24  1  0  0  0  0
 21 19  1  0  0  0  0
 21 25  1  0  0  0  0
 22 23  2  0  0  0  0
 23 27  1  0  0  0  0
 24 20  1  1  0  0  0
 24 26  1  0  0  0  0
 25 20  1  0  0  0  0
 27 26  2  0  0  0  0
M  END
>  <MODEL>
8

>  <REMARK>
 VINA RESULT:      -7.8      3.473      8.979
  Name = 
  3 active torsions:
  status: ('A' for Active; 'I' for Inactive)
    1  A    between atoms: C_14  and  N_19
    2  A    between atoms: C_15  and  C_18
    3  A    between atoms: C_23  and  C_25
                            x       y       z     vdW  Elec       q    Type
                         _______ _______ _______ _____ _____    ______ ____

>  <TORSDO>
F 3

$$$$
=
 OpenBabel11042414203D

 27 31  0  0  1  0  0  0  0  0999 V2000
  184.5260  178.5150  145.8160 C   0  0  0  0  0  3  0  0  0  0  0  0
  185.1200  178.4310  147.0780 C   0  0  0  0  0  3  0  0  0  0  0  0
  187.1460  177.5560  146.0700 C   0  0  0  0  0  0  0  0  0  0  0  0
  185.2320  178.1330  144.6650 C   0  0  0  0  0  0  0  0  0  0  0  0
  186.5430  177.6460  144.8090 C   0  0  0  0  0  3  0  0  0  0  0  0
  186.4260  177.9550  147.2050 C   0  0  0  0  0  3  0  0  0  0  0  0
  184.6200  178.0240  140.8770 C   0  0  0  0  0  0  0  0  0  0  0  0
  183.3050  178.3630  140.8530 N   0  0  0  0  0  0  0  0  0  0  0  0
  187.3160  177.2740  140.8950 C   0  0  0  0  0  3  0  0  0  0  0  0
  185.2850  177.7650  139.6760 C   0  0  0  0  0  3  0  0  0  0  0  0
  185.3090  177.9220  142.1120 C   0  0  0  0  0  0  0  0  0  0  0  0
  186.6580  177.5340  142.1000 C   0  0  0  0  0  3  0  0  0  0  0  0
  184.6070  178.1880  143.3150 C   0  0  0  0  0  0  0  0  0  0  0  0
  186.6310  177.3920  139.6840 C   0  0  0  0  0  3  0  0  0  0  0  0
  183.2470  178.5240  143.2310 C   0  0  0  0  0  3  0  0  0  0  0  0
  182.6100  178.6030  141.9940 C   0  0  0  0  0  0  0  0  0  0  0  0
  181.1750  178.9880  141.9210 C   0  0  0  0  0  2  0  0  0  0  0  0
  180.7510  179.0370  140.5330 N   0  0  0  0  0  1  0  0  0  0  0  0
  190.3790  176.7640  147.2240 C   0  0  1  0  0  3  0  0  0  0  0  0
  189.4750  177.1990  145.1780 C   0  0  0  0  0  2  0  0  0  0  0  0
  188.9860  176.5750  147.3620 O   0  0  0  0  0  0  0  0  0  0  0  0
  191.1720  175.5630  147.6680 C   0  0  0  0  0  3  0  0  0  0  0  0
  192.2540  175.1590  146.9830 C   0  0  0  0  0  3  0  0  0  0  0  0
  190.6130  177.0160  145.7800 C   0  0  2  0  0  3  0  0  0  0  0  0
  188.4880  177.0640  146.1880 N   0  0  0  0  0  0  0  0  0  0  0  0
  191.8350  176.6680  145.1310 N   0  0  0  0  0  0  0  0  0  0  0  0
  192.6300  175.8100  145.7030 C   0  0  0  0  0  3  0  0  0  0  0  0
  1  2  1  0  0  0  0
  2  6  2  0  0  0  0
  3 25  1  0  0  0  0
  3  6  1  0  0  0  0
  4  5  1  0  0  0  0
  4  1  2  0  0  0  0
  5  3  2  0  0  0  0
  7 11  1  0  0  0  0
  8  7  2  0  0  0  0
  8 16  1  0  0  0  0
  9 12  2  0  0  0  0
 10 14  2  0  0  0  0
 10  7  1  0  0  0  0
 11 13  2  0  0  0  0
 12 11  1  0  0  0  0
 13  4  1  0  0  0  0
 14  9  1  0  0  0  0
 15 13  1  0  0  0  0
 16 15  2  0  0  0  0
 17 16  1  0  0  0  0
 18 17  1  0  0  0  0
 19 21  1  0  0  0  0
 19 22  1  6  0  0  0
 20 25  1  0  0  0  0
 23 22  2  0  0  0  0
 24 20  1  6  0  0  0
 24 19  1  0  0  0  0
 25 21  1  0  0  0  0
 26 27  2  0  0  0  0
 26 24  1  0  0  0  0
 27 23  1  0  0  0  0
M  END
>  <MODEL>
9

>  <REMARK>
 VINA RESULT:      -7.8      2.014      4.058
  Name = 
  3 active torsions:
  status: ('A' for Active; 'I' for Inactive)
    1  A    between atoms: C_14  and  N_19
    2  A    between atoms: C_15  and  C_18
    3  A    between atoms: C_23  and  C_25
                            x       y       z     vdW  Elec       q    Type
                         _______ _______ _______ _____ _____    ______ ____

>  <TORSDO>
F 3

$$$$
