=
 OpenBabel11042417533D

 55 63  0  0  1  0  0  0  0  0999 V2000
  191.8140  174.5670  142.2990 C   0  0  2  0  0  0  0  0  0  0  0  0
  196.1640  171.6890  142.8060 C   0  0  0  0  0  3  0  0  0  0  0  0
  196.7810  172.4060  146.3450 N   0  0  0  0  0  0  0  0  0  0  0  0
  197.0810  173.7270  146.3200 C   0  0  0  0  0  3  0  0  0  0  0  0
  196.4900  172.3960  143.9710 C   0  0  0  0  0  0  0  0  0  0  0  0
  196.7830  173.7680  143.9660 C   0  0  0  0  0  0  0  0  0  0  0  0
  196.5440  171.7090  145.2020 C   0  0  0  0  0  0  0  0  0  0  0  0
  192.7670  175.4030  143.1930 C   0  0  2  0  0  3  0  0  0  0  0  0
  192.3760  174.1570  140.9110 C   0  0  0  0  0  2  0  0  0  0  0  0
  190.6850  176.6440  144.0180 C   0  0  2  0  0  3  0  0  0  0  0  0
  189.8580  175.8240  143.2160 O   0  0  0  0  0  0  0  0  0  0  0  0
  195.8920  170.3200  142.8560 C   0  0  0  0  0  3  0  0  0  0  0  0
  196.1870  174.4310  140.4380 C   0  0  0  0  0  2  0  0  0  0  0  0
  189.6060  174.5850  141.3460 F   0  0  0  0  0  0  0  0  0  0  0  0
  197.2190  174.3390  141.5570 C   0  0  0  0  0  2  0  0  0  0  0  0
  194.0610  174.6540  143.5450 C   0  0  0  0  0  2  0  0  0  0  0  0
  194.8590  174.2300  141.1450 C   0  0  1  0  0  3  0  0  0  0  0  0
  190.5090  175.3680  142.0450 C   0  0  2  0  0  3  0  0  0  0  0  0
  197.0700  174.4010  145.1330 N   0  0  0  0  0  0  0  0  0  0  0  0
  196.2790  170.3370  145.2470 C   0  0  0  0  0  3  0  0  0  0  0  0
  192.4810  175.9370  145.6190 C   0  0  0  0  0  2  0  0  0  0  0  0
  195.1200  174.9370  142.4690 C   0  0  2  0  0  3  0  0  0  0  0  0
  191.9770  175.9250  144.3740 C   0  0  0  0  0  0  0  0  0  0  0  0
  196.4840  174.5710  142.8010 N   0  0  0  0  0  0  0  0  0  0  0  0
  195.9660  169.6380  144.0750 C   0  0  0  0  0  3  0  0  0  0  0  0
  193.6550  174.8550  140.4290 C   0  0  1  0  0  3  0  0  0  0  0  0
  191.4980  173.4030  142.9970 O   0  0  0  0  0  1  0  0  0  0  0  0
  189.8340  177.0130  145.2400 C   0  0  0  0  0  2  0  0  0  0  0  0
  188.7200  175.1990  146.3830 O   0  0  0  0  0  1  0  0  0  0  0  0
  188.5460  176.1940  145.4240 C   0  0  1  0  0  3  0  0  0  0  0  0
  186.4750  176.7050  146.7030 C   0  0  0  0  0  3  0  0  0  0  0  0
  187.2480  176.9460  145.6420 C   0  0  0  0  0  0  0  0  0  0  0  0
  186.6650  177.8530  144.5550 C   0  0  1  0  0  0  0  0  0  0  0  0
  186.4870  177.1500  142.7610 C   0  0  1  0  0  3  0  0  0  0  0  0
  185.1740  177.4320  146.8380 C   0  0  0  0  0  2  0  0  0  0  0  0
  184.5490  178.2880  143.6980 C   0  0  0  0  0  2  0  0  0  0  0  0
  186.1630  179.1720  145.1780 C   0  0  2  0  0  3  0  0  0  0  0  0
  185.4160  178.9260  146.5220 C   0  0  0  0  0  2  0  0  0  0  0  0
  185.1310  179.6080  144.1830 C   0  0  0  0  0  2  0  0  0  0  0  0
  187.4770  177.9370  143.3980 O   0  0  0  0  0  0  0  0  0  0  0  0
  185.5370  177.2080  143.8820 N   0  0  2  0  0  0  0  0  0  0  0  0
  186.8180  177.1880  140.2900 C   0  0  0  0  0  1  0  0  0  0  0  0
  185.9620  177.7460  141.4250 C   0  0  0  0  0  2  0  0  0  0  0  0
  193.7660  174.8280  138.9570 N   0  0  0  0  0  2  0  0  0  0  0  0
  193.5240  173.4810  138.4460 C   0  0  0  0  0  2  0  0  0  0  0  0
  192.6590  173.5210  137.1890 C   0  0  2  0  0  3  0  0  0  0  0  0
  192.4570  174.8460  136.8050 O   0  0  0  0  0  1  0  0  0  0  0  0
  190.1980  173.8390  137.8090 C   0  0  0  0  0  2  0  0  0  0  0  0
  188.9870  171.9710  139.0040 C   0  0  0  0  0  2  0  0  0  0  0  0
  188.8600  173.1080  137.9740 C   0  0  1  0  0  3  0  0  0  0  0  0
  191.3010  172.8260  137.4010 C   0  0  2  0  0  3  0  0  0  0  0  0
  190.0290  170.9460  138.5240 C   0  0  0  0  0  2  0  0  0  0  0  0
  191.3960  171.6430  138.3980 C   0  0  0  0  0  2  0  0  0  0  0  0
  187.7980  174.9710  137.4340 C   0  0  0  0  0  1  0  0  0  0  0  0
  187.8820  173.9880  138.4230 O   0  0  0  0  0  0  0  0  0  0  0  0
  1 27  1  1  0  0  0
  1  8  1  0  0  0  0
  2 12  2  0  0  0  0
  2  5  1  0  0  0  0
  4  3  1  0  0  0  0
  5  7  1  0  0  0  0
  6  5  2  0  0  0  0
  6 19  1  0  0  0  0
  7 20  1  0  0  0  0
  7  3  2  0  0  0  0
  8 16  1  1  0  0  0
  8 23  1  0  0  0  0
  9  1  1  0  0  0  0
 10 23  1  0  0  0  0
 10 28  1  1  0  0  0
 11 10  1  0  0  0  0
 12 25  1  0  0  0  0
 13 15  1  0  0  0  0
 15 24  1  0  0  0  0
 17 13  1  6  0  0  0
 17 22  1  0  0  0  0
 18 14  1  1  0  0  0
 18  1  1  0  0  0  0
 18 11  1  0  0  0  0
 19  4  2  0  0  0  0
 22 24  1  0  0  0  0
 22 16  1  1  0  0  0
 23 21  2  0  0  0  0
 24  6  1  0  0  0  0
 25 20  2  0  0  0  0
 26 44  1  6  0  0  0
 26  9  1  0  0  0  0
 26 17  1  0  0  0  0
 28 30  1  0  0  0  0
 30 32  1  0  0  0  0
 30 29  1  1  0  0  0
 31 35  1  0  0  0  0
 32 31  2  0  0  0  0
 33 40  1  6  0  0  0
 33 37  1  0  0  0  0
 33 32  1  0  0  0  0
 34 43  1  6  0  0  0
 34 40  1  0  0  0  0
 34 41  1  0  0  0  0
 36 39  1  0  0  0  0
 37 39  1  6  0  0  0
 37 38  1  0  0  0  0
 38 35  1  0  0  0  0
 41 36  1  6  0  0  0
 41 33  1  0  0  0  0
 42 43  1  0  0  0  0
 45 44  1  0  0  0  0
 46 47  1  1  0  0  0
 46 45  1  0  0  0  0
 48 50  1  0  0  0  0
 50 55  1  1  0  0  0
 50 49  1  0  0  0  0
 51 46  1  1  0  0  0
 51 48  1  0  0  0  0
 51 53  1  0  0  0  0
 52 49  1  0  0  0  0
 53 52  1  0  0  0  0
 54 55  1  0  0  0  0
M  END
>  <MODEL>
1

>  <REMARK>
 VINA RESULT:      -9.2      0.000      0.000
  Name = 
  9 active torsions:
  status: ('A' for Active; 'I' for Inactive)
    1  A    between atoms: C_5  and  C_36
    2  A    between atoms: C_7  and  C_44
    3  A    between atoms: O_18  and  C_24
    4  A    between atoms: C_19  and  C_32
    5  A    between atoms: C_22  and  C_28
    6  A    between atoms: C_22  and  C_31
    7  A    between atoms: C_28  and  N_42
    8  A    between atoms: C_32  and  C_36
    9  A    between atoms: N_42  and  C_54
                            x       y       z     vdW  Elec       q    Type
                         _______ _______ _______ _____ _____    ______ ____

>  <TORSDO>
F 9

$$$$
=
 OpenBabel11042417533D

 55 63  0  0  1  0  0  0  0  0999 V2000
  191.4260  174.3150  142.4570 C   0  0  2  0  0  0  0  0  0  0  0  0
  195.8510  171.5370  142.8650 C   0  0  0  0  0  3  0  0  0  0  0  0
  196.7250  172.5600  146.2720 N   0  0  0  0  0  0  0  0  0  0  0  0
  196.9990  173.8770  146.1120 C   0  0  0  0  0  3  0  0  0  0  0  0
  196.2530  172.3440  143.9370 C   0  0  0  0  0  0  0  0  0  0  0  0
  196.5210  173.7140  143.7930 C   0  0  0  0  0  0  0  0  0  0  0  0
  196.4140  171.7660  145.2140 C   0  0  0  0  0  0  0  0  0  0  0  0
  192.4310  175.2350  143.2000 C   0  0  2  0  0  3  0  0  0  0  0  0
  191.8880  173.7940  141.0690 C   0  0  0  0  0  2  0  0  0  0  0  0
  190.3970  176.5200  144.0770 C   0  0  2  0  0  3  0  0  0  0  0  0
  189.5250  175.6250  143.4140 O   0  0  0  0  0  0  0  0  0  0  0  0
  195.6070  170.1750  143.0510 C   0  0  0  0  0  3  0  0  0  0  0  0
  195.6460  174.0670  140.2800 C   0  0  0  0  0  2  0  0  0  0  0  0
  189.1520  174.2290  141.6800 F   0  0  0  0  0  0  0  0  0  0  0  0
  196.7620  174.0820  141.3190 C   0  0  0  0  0  2  0  0  0  0  0  0
  193.7610  174.5320  143.5120 C   0  0  0  0  0  2  0  0  0  0  0  0
  194.3790  173.9130  141.1020 C   0  0  1  0  0  3  0  0  0  0  0  0
  190.0920  175.0780  142.2380 C   0  0  2  0  0  3  0  0  0  0  0  0
  196.8860  174.4470  144.8780 N   0  0  0  0  0  0  0  0  0  0  0  0
  196.1760  170.4000  145.3940 C   0  0  0  0  0  3  0  0  0  0  0  0
  192.3230  175.9710  145.5870 C   0  0  0  0  0  2  0  0  0  0  0  0
  194.7290  174.7330  142.3380 C   0  0  2  0  0  3  0  0  0  0  0  0
  191.7250  175.8470  144.3910 C   0  0  0  0  0  0  0  0  0  0  0  0
  196.1210  174.4120  142.5920 N   0  0  0  0  0  0  0  0  0  0  0  0
  195.7860  169.6000  144.3130 C   0  0  0  0  0  3  0  0  0  0  0  0
  193.1130  174.4630  140.4320 C   0  0  1  0  0  3  0  0  0  0  0  0
  191.1850  173.2120  143.2730 O   0  0  0  0  0  1  0  0  0  0  0  0
  189.6360  176.9820  145.3260 C   0  0  0  0  0  2  0  0  0  0  0  0
  188.5300  175.3610  146.7340 O   0  0  0  0  0  1  0  0  0  0  0  0
  188.3460  176.2070  145.6440 C   0  0  1  0  0  3  0  0  0  0  0  0
  186.2020  176.7710  146.7700 C   0  0  0  0  0  3  0  0  0  0  0  0
  187.0560  176.9910  145.7670 C   0  0  0  0  0  0  0  0  0  0  0  0
  186.5760  177.9120  144.6410 C   0  0  1  0  0  0  0  0  0  0  0  0
  186.5100  177.2110  142.8390 C   0  0  1  0  0  3  0  0  0  0  0  0
  184.9130  177.5310  146.8100 C   0  0  0  0  0  2  0  0  0  0  0  0
  184.5390  178.3970  143.6340 C   0  0  0  0  0  2  0  0  0  0  0  0
  186.0630  179.2430  145.2280 C   0  0  2  0  0  3  0  0  0  0  0  0
  185.2140  179.0170  146.5130 C   0  0  0  0  0  2  0  0  0  0  0  0
  185.1170  179.7040  144.1600 C   0  0  0  0  0  2  0  0  0  0  0  0
  187.4720  177.9740  143.5470 O   0  0  0  0  0  0  0  0  0  0  0  0
  185.4840  177.2930  143.8880 N   0  0  2  0  0  0  0  0  0  0  0  0
  186.9010  177.1110  140.3790 C   0  0  0  0  0  1  0  0  0  0  0  0
  186.0990  177.8180  141.4690 C   0  0  0  0  0  2  0  0  0  0  0  0
  193.1120  174.3100  138.9630 N   0  0  0  0  0  2  0  0  0  0  0  0
  192.0600  173.3900  138.5400 C   0  0  0  0  0  2  0  0  0  0  0  0
  192.6090  172.3340  137.5850 C   0  0  2  0  0  3  0  0  0  0  0  0
  191.7560  172.2100  136.4890 O   0  0  0  0  0  1  0  0  0  0  0  0
  191.5950  170.6590  139.2310 C   0  0  0  0  0  2  0  0  0  0  0  0
  193.1400  169.1990  140.5960 C   0  0  0  0  0  2  0  0  0  0  0  0
  191.7890  169.2760  139.8630 C   0  0  1  0  0  3  0  0  0  0  0  0
  192.7770  170.9660  138.2730 C   0  0  2  0  0  3  0  0  0  0  0  0
  194.2880  169.4250  139.5980 C   0  0  0  0  0  2  0  0  0  0  0  0
  194.1480  170.8300  138.9830 C   0  0  0  0  0  2  0  0  0  0  0  0
  190.6710  170.2010  141.5330 C   0  0  0  0  0  1  0  0  0  0  0  0
  190.7820  169.0240  140.7880 O   0  0  0  0  0  0  0  0  0  0  0  0
  1  8  1  0  0  0  0
  1 27  1  1  0  0  0
  2 12  2  0  0  0  0
  2  5  1  0  0  0  0
  4  3  1  0  0  0  0
  5  7  1  0  0  0  0
  6  5  2  0  0  0  0
  6 19  1  0  0  0  0
  7 20  1  0  0  0  0
  7  3  2  0  0  0  0
  8 16  1  1  0  0  0
  8 23  1  0  0  0  0
  9  1  1  0  0  0  0
 10 23  1  0  0  0  0
 10 28  1  1  0  0  0
 11 10  1  0  0  0  0
 12 25  1  0  0  0  0
 13 15  1  0  0  0  0
 15 24  1  0  0  0  0
 17 13  1  6  0  0  0
 17 22  1  0  0  0  0
 18 14  1  1  0  0  0
 18  1  1  0  0  0  0
 18 11  1  0  0  0  0
 19  4  2  0  0  0  0
 22 24  1  0  0  0  0
 22 16  1  1  0  0  0
 23 21  2  0  0  0  0
 24  6  1  0  0  0  0
 25 20  2  0  0  0  0
 26 44  1  6  0  0  0
 26  9  1  0  0  0  0
 26 17  1  0  0  0  0
 28 30  1  0  0  0  0
 30 32  1  0  0  0  0
 30 29  1  1  0  0  0
 31 35  1  0  0  0  0
 32 31  2  0  0  0  0
 33 40  1  6  0  0  0
 33 37  1  0  0  0  0
 33 32  1  0  0  0  0
 34 43  1  6  0  0  0
 34 40  1  0  0  0  0
 34 41  1  0  0  0  0
 36 39  1  0  0  0  0
 37 39  1  6  0  0  0
 37 38  1  0  0  0  0
 38 35  1  0  0  0  0
 41 36  1  6  0  0  0
 41 33  1  0  0  0  0
 42 43  1  0  0  0  0
 45 44  1  0  0  0  0
 46 47  1  6  0  0  0
 46 45  1  0  0  0  0
 48 50  1  0  0  0  0
 50 49  1  0  0  0  0
 50 55  1  1  0  0  0
 51 46  1  1  0  0  0
 51 53  1  0  0  0  0
 51 48  1  0  0  0  0
 52 49  1  0  0  0  0
 53 52  1  0  0  0  0
 55 54  1  0  0  0  0
M  END
>  <MODEL>
2

>  <REMARK>
 VINA RESULT:      -9.1      1.346      1.950
  Name = 
  9 active torsions:
  status: ('A' for Active; 'I' for Inactive)
    1  A    between atoms: C_5  and  C_36
    2  A    between atoms: C_7  and  C_44
    3  A    between atoms: O_18  and  C_24
    4  A    between atoms: C_19  and  C_32
    5  A    between atoms: C_22  and  C_28
    6  A    between atoms: C_22  and  C_31
    7  A    between atoms: C_28  and  N_42
    8  A    between atoms: C_32  and  C_36
    9  A    between atoms: N_42  and  C_54
                            x       y       z     vdW  Elec       q    Type
                         _______ _______ _______ _____ _____    ______ ____

>  <TORSDO>
F 9

$$$$
=
 OpenBabel11042417533D

 55 63  0  0  1  0  0  0  0  0999 V2000
  193.2500  175.8540  143.6650 C   0  0  2  0  0  0  0  0  0  0  0  0
  194.1980  173.6520  139.0050 C   0  0  0  0  0  3  0  0  0  0  0  0
  190.7410  173.6280  137.7950 N   0  0  0  0  0  0  0  0  0  0  0  0
  190.1520  172.7420  138.6330 C   0  0  0  0  0  3  0  0  0  0  0  0
  192.8430  173.3170  138.8930 C   0  0  0  0  0  0  0  0  0  0  0  0
  192.2120  172.4160  139.7650 C   0  0  0  0  0  0  0  0  0  0  0  0
  192.0740  173.8890  137.8580 C   0  0  0  0  0  0  0  0  0  0  0  0
  192.0820  174.8610  143.4270 C   0  0  2  0  0  3  0  0  0  0  0  0
  194.6760  175.2430  143.6170 C   0  0  0  0  0  2  0  0  0  0  0  0
  190.7470  176.2330  145.1280 C   0  0  2  0  0  3  0  0  0  0  0  0
  191.8280  177.1330  145.2740 O   0  0  0  0  0  0  0  0  0  0  0  0
  194.7880  174.5450  138.1070 C   0  0  0  0  0  3  0  0  0  0  0  0
  195.0170  171.7700  141.9910 C   0  0  0  0  0  2  0  0  0  0  0  0
  194.0560  177.4900  145.2320 F   0  0  0  0  0  0  0  0  0  0  0  0
  194.0830  171.2040  140.9270 C   0  0  0  0  0  2  0  0  0  0  0  0
  192.1370  174.2030  142.0390 C   0  0  0  0  0  2  0  0  0  0  0  0
  194.4680  173.1590  142.2610 C   0  0  1  0  0  3  0  0  0  0  0  0
  193.0850  176.5200  145.0580 C   0  0  2  0  0  3  0  0  0  0  0  0
  190.8880  172.1500  139.6180 N   0  0  0  0  0  0  0  0  0  0  0  0
  192.6690  174.7750  136.9560 C   0  0  0  0  0  3  0  0  0  0  0  0
  189.6830  175.4250  143.0040 C   0  0  0  0  0  2  0  0  0  0  0  0
  192.9700  172.9160  142.1200 C   0  0  2  0  0  3  0  0  0  0  0  0
  190.7840  175.5630  143.7610 C   0  0  0  0  0  0  0  0  0  0  0  0
  192.8650  172.0120  140.9910 N   0  0  0  0  0  0  0  0  0  0  0  0
  194.0280  175.0940  137.0700 C   0  0  0  0  0  3  0  0  0  0  0  0
  194.7950  173.7130  143.6550 C   0  0  1  0  0  3  0  0  0  0  0  0
  193.1700  176.8400  142.6840 O   0  0  0  0  0  1  0  0  0  0  0  0
  189.4830  177.0690  145.3640 C   0  0  0  0  0  2  0  0  0  0  0  0
  188.4010  175.5450  146.8950 O   0  0  0  0  0  1  0  0  0  0  0  0
  188.2170  176.2730  145.7220 C   0  0  1  0  0  3  0  0  0  0  0  0
  185.9430  176.7170  146.6260 C   0  0  0  0  0  3  0  0  0  0  0  0
  186.8930  177.0080  145.7340 C   0  0  0  0  0  0  0  0  0  0  0  0
  186.5040  177.9610  144.5990 C   0  0  1  0  0  0  0  0  0  0  0  0
  186.6610  177.3390  142.7740 C   0  0  1  0  0  3  0  0  0  0  0  0
  184.6300  177.4310  146.5550 C   0  0  0  0  0  2  0  0  0  0  0  0
  184.5720  178.4240  143.3940 C   0  0  0  0  0  2  0  0  0  0  0  0
  185.8810  179.2480  145.1780 C   0  0  2  0  0  3  0  0  0  0  0  0
  184.9070  178.9390  146.3520 C   0  0  0  0  0  2  0  0  0  0  0  0
  185.0400  179.7240  144.0320 C   0  0  0  0  0  2  0  0  0  0  0  0
  187.5110  178.1000  143.6140 O   0  0  0  0  0  0  0  0  0  0  0  0
  185.5240  177.3410  143.7060 N   0  0  2  0  0  0  0  0  0  0  0  0
  186.9890  177.0980  140.3140 C   0  0  0  0  0  1  0  0  0  0  0  0
  186.3790  177.9910  141.3920 C   0  0  0  0  0  2  0  0  0  0  0  0
  196.1120  173.2830  144.1650 N   0  0  0  0  0  2  0  0  0  0  0  0
  195.9680  172.5790  145.4360 C   0  0  0  0  0  2  0  0  0  0  0  0
  197.0550  171.5180  145.5990 C   0  0  2  0  0  3  0  0  0  0  0  0
  197.8880  171.5320  144.4810 O   0  0  0  0  0  1  0  0  0  0  0  0
  194.9930  170.0350  145.2910 C   0  0  0  0  0  2  0  0  0  0  0  0
  194.5750  168.1660  146.9390 C   0  0  0  0  0  2  0  0  0  0  0  0
  194.4580  168.6100  145.4700 C   0  0  1  0  0  3  0  0  0  0  0  0
  196.4610  170.1100  145.7900 C   0  0  2  0  0  3  0  0  0  0  0  0
  196.0530  168.1730  147.3690 C   0  0  0  0  0  2  0  0  0  0  0  0
  196.6020  169.6060  147.2490 C   0  0  0  0  0  2  0  0  0  0  0  0
  192.9180  169.6490  144.2700 C   0  0  0  0  0  1  0  0  0  0  0  0
  193.1180  168.5490  145.1070 O   0  0  0  0  0  0  0  0  0  0  0  0
  1 27  1  6  0  0  0
  1 18  1  0  0  0  0
  3  7  2  0  0  0  0
  3  4  1  0  0  0  0
  4 19  2  0  0  0  0
  5  2  1  0  0  0  0
  5  6  2  0  0  0  0
  6 24  1  0  0  0  0
  7  5  1  0  0  0  0
  8 16  1  6  0  0  0
  8  1  1  0  0  0  0
  8 23  1  0  0  0  0
  9 26  1  0  0  0  0
  9  1  1  0  0  0  0
 10 11  1  0  0  0  0
 10 28  1  6  0  0  0
 12  2  2  0  0  0  0
 15 24  1  0  0  0  0
 15 13  1  0  0  0  0
 17 13  1  1  0  0  0
 17 26  1  0  0  0  0
 18 14  1  6  0  0  0
 18 11  1  0  0  0  0
 19  6  1  0  0  0  0
 20 25  2  0  0  0  0
 20  7  1  0  0  0  0
 21 23  2  0  0  0  0
 22 16  1  6  0  0  0
 22 17  1  0  0  0  0
 23 10  1  0  0  0  0
 24 22  1  0  0  0  0
 25 12  1  0  0  0  0
 26 44  1  6  0  0  0
 28 30  1  0  0  0  0
 30 32  1  0  0  0  0
 30 29  1  1  0  0  0
 32 31  2  0  0  0  0
 33 40  1  6  0  0  0
 33 37  1  0  0  0  0
 33 32  1  0  0  0  0
 34 43  1  6  0  0  0
 34 40  1  0  0  0  0
 34 41  1  0  0  0  0
 35 31  1  0  0  0  0
 36 39  1  0  0  0  0
 37 39  1  6  0  0  0
 37 38  1  0  0  0  0
 38 35  1  0  0  0  0
 41 36  1  6  0  0  0
 41 33  1  0  0  0  0
 42 43  1  0  0  0  0
 44 45  1  0  0  0  0
 45 46  1  0  0  0  0
 46 47  1  6  0  0  0
 48 50  1  0  0  0  0
 48 51  1  0  0  0  0
 49 52  1  0  0  0  0
 50 55  1  1  0  0  0
 50 49  1  0  0  0  0
 51 46  1  1  0  0  0
 51 53  1  0  0  0  0
 53 52  1  0  0  0  0
 54 55  1  0  0  0  0
M  END
>  <MODEL>
3

>  <REMARK>
 VINA RESULT:      -9.1      2.228      6.095
  Name = 
  9 active torsions:
  status: ('A' for Active; 'I' for Inactive)
    1  A    between atoms: C_5  and  C_36
    2  A    between atoms: C_7  and  C_44
    3  A    between atoms: O_18  and  C_24
    4  A    between atoms: C_19  and  C_32
    5  A    between atoms: C_22  and  C_28
    6  A    between atoms: C_22  and  C_31
    7  A    between atoms: C_28  and  N_42
    8  A    between atoms: C_32  and  C_36
    9  A    between atoms: N_42  and  C_54
                            x       y       z     vdW  Elec       q    Type
                         _______ _______ _______ _____ _____    ______ ____

>  <TORSDO>
F 9

$$$$
=
 OpenBabel11042417533D

 55 63  0  0  1  0  0  0  0  0999 V2000
  190.8640  172.8860  143.5420 C   0  0  2  0  0  0  0  0  0  0  0  0
  188.2400  177.1470  145.0990 C   0  0  0  0  0  3  0  0  0  0  0  0
  185.9690  177.3630  142.2330 N   0  0  0  0  0  0  0  0  0  0  0  0
  186.8160  177.6650  141.2210 C   0  0  0  0  0  3  0  0  0  0  0  0
  187.7860  177.3410  143.7880 C   0  0  0  0  0  0  0  0  0  0  0  0
  188.6520  177.6350  142.7240 C   0  0  0  0  0  0  0  0  0  0  0  0
  186.4050  177.2550  143.5170 C   0  0  0  0  0  0  0  0  0  0  0  0
  190.6450  173.7340  142.2610 C   0  0  2  0  0  3  0  0  0  0  0  0
  191.6020  173.6010  144.7060 C   0  0  0  0  0  2  0  0  0  0  0  0
  191.0040  171.5740  140.9330 C   0  0  2  0  0  3  0  0  0  0  0  0
  191.1520  170.8410  142.1340 O   0  0  0  0  0  0  0  0  0  0  0  0
  187.3410  176.8690  146.1310 C   0  0  0  0  0  3  0  0  0  0  0  0
  191.8060  177.4420  144.5280 C   0  0  0  0  0  2  0  0  0  0  0  0
  191.7910  170.8000  144.2980 F   0  0  0  0  0  0  0  0  0  0  0  0
  190.8090  178.3400  143.8040 C   0  0  0  0  0  2  0  0  0  0  0  0
  189.7810  174.9790  142.5140 C   0  0  0  0  0  2  0  0  0  0  0  0
  191.2560  176.0420  144.3220 C   0  0  1  0  0  3  0  0  0  0  0  0
  191.6890  171.6200  143.1870 C   0  0  2  0  0  3  0  0  0  0  0  0
  188.1520  177.7890  141.4700 N   0  0  0  0  0  0  0  0  0  0  0  0
  185.5070  176.9840  144.5530 C   0  0  0  0  0  3  0  0  0  0  0  0
  189.1770  173.1780  140.3150 C   0  0  0  0  0  2  0  0  0  0  0  0
  190.6870  176.1530  142.9130 C   0  0  2  0  0  3  0  0  0  0  0  0
  190.1560  172.8170  141.1610 C   0  0  0  0  0  0  0  0  0  0  0  0
  190.0810  177.4700  142.8810 N   0  0  0  0  0  0  0  0  0  0  0  0
  185.9700  176.8040  145.8630 C   0  0  0  0  0  3  0  0  0  0  0  0
  192.3080  174.9270  144.3910 C   0  0  1  0  0  3  0  0  0  0  0  0
  189.6100  172.4920  144.0030 O   0  0  0  0  0  1  0  0  0  0  0  0
  190.3900  170.5920  139.9280 C   0  0  0  0  0  2  0  0  0  0  0  0
  191.2080  169.1080  138.2060 O   0  0  0  0  0  1  0  0  0  0  0  0
  191.1470  170.4430  138.5980 C   0  0  1  0  0  3  0  0  0  0  0  0
  189.8840  170.9200  136.5090 C   0  0  0  0  0  3  0  0  0  0  0  0
  190.7420  171.3360  137.4430 C   0  0  0  0  0  0  0  0  0  0  0  0
  191.4550  172.6660  137.1820 C   0  0  1  0  0  0  0  0  0  0  0  0
  193.3880  172.6810  137.1100 C   0  0  1  0  0  3  0  0  0  0  0  0
  189.5660  171.8200  135.3560 C   0  0  0  0  0  2  0  0  0  0  0  0
  192.2090  173.8180  135.3090 C   0  0  0  0  0  2  0  0  0  0  0  0
  190.4230  173.7650  136.8540 C   0  0  2  0  0  3  0  0  0  0  0  0
  189.3040  173.2410  135.9070 C   0  0  0  0  0  2  0  0  0  0  0  0
  191.2460  174.7310  136.0560 C   0  0  0  0  0  2  0  0  0  0  0  0
  192.4560  172.9640  138.1370 O   0  0  0  0  0  0  0  0  0  0  0  0
  192.3770  172.5540  136.0500 N   0  0  2  0  0  0  0  0  0  0  0  0
  195.7960  173.1310  136.6460 C   0  0  0  0  0  1  0  0  0  0  0  0
  194.4430  173.7990  136.8800 C   0  0  0  0  0  2  0  0  0  0  0  0
  193.3960  175.2030  145.3510 N   0  0  0  0  0  2  0  0  0  0  0  0
  194.6710  174.7070  144.8420 C   0  0  0  0  0  2  0  0  0  0  0  0
  195.6800  175.8430  144.6950 C   0  0  2  0  0  3  0  0  0  0  0  0
  195.0950  177.0400  145.1080 O   0  0  0  0  0  1  0  0  0  0  0  0
  195.0430  175.7590  142.2190 C   0  0  0  0  0  2  0  0  0  0  0  0
  196.7650  174.9860  140.5390 C   0  0  0  0  0  2  0  0  0  0  0  0
  195.5850  175.9410  140.7960 C   0  0  1  0  0  3  0  0  0  0  0  0
  196.1850  175.9810  143.2460 C   0  0  2  0  0  3  0  0  0  0  0  0
  197.9080  175.2940  141.5220 C   0  0  0  0  0  2  0  0  0  0  0  0
  197.4060  175.0700  142.9600 C   0  0  0  0  0  2  0  0  0  0  0  0
  193.6430  174.9080  140.5590 C   0  0  0  0  0  1  0  0  0  0  0  0
  194.5940  175.6600  139.8630 O   0  0  0  0  0  0  0  0  0  0  0  0
  1 27  1  1  0  0  0
  1  9  1  0  0  0  0
  2 12  1  0  0  0  0
  3  7  1  0  0  0  0
  4 19  1  0  0  0  0
  4  3  2  0  0  0  0
  5  2  2  0  0  0  0
  6 24  1  0  0  0  0
  6  5  1  0  0  0  0
  7  5  1  0  0  0  0
  7 20  2  0  0  0  0
  8 16  1  1  0  0  0
  8  1  1  0  0  0  0
 10 28  1  6  0  0  0
 10 23  1  0  0  0  0
 10 11  1  0  0  0  0
 11 18  1  0  0  0  0
 15 13  1  0  0  0  0
 17 26  1  0  0  0  0
 17 13  1  6  0  0  0
 18  1  1  0  0  0  0
 18 14  1  1  0  0  0
 19  6  2  0  0  0  0
 20 25  1  0  0  0  0
 21 23  2  0  0  0  0
 22 16  1  1  0  0  0
 22 17  1  0  0  0  0
 23  8  1  0  0  0  0
 24 22  1  0  0  0  0
 24 15  1  0  0  0  0
 25 12  2  0  0  0  0
 26  9  1  0  0  0  0
 26 44  1  1  0  0  0
 30 29  1  6  0  0  0
 30 28  1  0  0  0  0
 31 32  2  0  0  0  0
 32 30  1  0  0  0  0
 33 32  1  1  0  0  0
 33 40  1  0  0  0  0
 34 43  1  6  0  0  0
 34 40  1  0  0  0  0
 35 38  1  0  0  0  0
 35 31  1  0  0  0  0
 36 39  1  0  0  0  0
 37 38  1  6  0  0  0
 37 33  1  0  0  0  0
 39 37  1  0  0  0  0
 41 36  1  6  0  0  0
 41 34  1  0  0  0  0
 41 33  1  0  0  0  0
 42 43  1  0  0  0  0
 45 44  1  0  0  0  0
 46 45  1  0  0  0  0
 46 47  1  6  0  0  0
 48 51  1  0  0  0  0
 49 50  1  0  0  0  0
 49 52  1  0  0  0  0
 50 55  1  6  0  0  0
 50 48  1  0  0  0  0
 51 46  1  1  0  0  0
 52 53  1  0  0  0  0
 53 51  1  0  0  0  0
 55 54  1  0  0  0  0
M  END
>  <MODEL>
4

>  <REMARK>
 VINA RESULT:      -9.0      2.608      8.893
  Name = 
  9 active torsions:
  status: ('A' for Active; 'I' for Inactive)
    1  A    between atoms: C_5  and  C_36
    2  A    between atoms: C_7  and  C_44
    3  A    between atoms: O_18  and  C_24
    4  A    between atoms: C_19  and  C_32
    5  A    between atoms: C_22  and  C_28
    6  A    between atoms: C_22  and  C_31
    7  A    between atoms: C_28  and  N_42
    8  A    between atoms: C_32  and  C_36
    9  A    between atoms: N_42  and  C_54
                            x       y       z     vdW  Elec       q    Type
                         _______ _______ _______ _____ _____    ______ ____

>  <TORSDO>
F 9

$$$$
=
 OpenBabel11042417533D

 55 63  0  0  1  0  0  0  0  0999 V2000
  192.5960  174.6430  143.5680 C   0  0  2  0  0  0  0  0  0  0  0  0
  193.8100  173.1330  138.6990 C   0  0  0  0  0  3  0  0  0  0  0  0
  190.7110  174.2360  137.0870 N   0  0  0  0  0  0  0  0  0  0  0  0
  189.7940  173.4030  137.6330 C   0  0  0  0  0  3  0  0  0  0  0  0
  192.4550  173.1920  138.3480 C   0  0  0  0  0  0  0  0  0  0  0  0
  191.4890  172.3500  138.9180 C   0  0  0  0  0  0  0  0  0  0  0  0
  192.0350  174.1210  137.3720 C   0  0  0  0  0  0  0  0  0  0  0  0
  191.2890  174.0520  142.9750 C   0  0  2  0  0  3  0  0  0  0  0  0
  193.8260  173.6960  143.5680 C   0  0  0  0  0  2  0  0  0  0  0  0
  190.0320  175.4030  144.7510 C   0  0  2  0  0  3  0  0  0  0  0  0
  191.2500  175.9450  145.2230 O   0  0  0  0  0  0  0  0  0  0  0  0
  194.7400  173.9830  138.0960 C   0  0  0  0  0  3  0  0  0  0  0  0
  193.6290  170.6020  141.2850 C   0  0  0  0  0  2  0  0  0  0  0  0
  193.4710  175.7040  145.5400 F   0  0  0  0  0  0  0  0  0  0  0  0
  192.7910  170.5010  140.0150 C   0  0  0  0  0  2  0  0  0  0  0  0
  191.4320  173.6600  141.4960 C   0  0  0  0  0  2  0  0  0  0  0  0
  193.3790  172.0160  141.7790 C   0  0  1  0  0  3  0  0  0  0  0  0
  192.3470  175.0700  145.0390 C   0  0  2  0  0  3  0  0  0  0  0  0
  190.1870  172.4720  138.5510 N   0  0  0  0  0  0  0  0  0  0  0  0
  192.9710  174.9640  136.7650 C   0  0  0  0  0  3  0  0  0  0  0  0
  189.2010  175.2950  142.3870 C   0  0  0  0  0  2  0  0  0  0  0  0
  191.9160  172.2060  141.4010 C   0  0  2  0  0  3  0  0  0  0  0  0
  190.1520  175.0000  143.2880 C   0  0  0  0  0  0  0  0  0  0  0  0
  191.8030  171.5770  140.0990 N   0  0  0  0  0  0  0  0  0  0  0  0
  194.3250  174.8880  137.1150 C   0  0  0  0  0  3  0  0  0  0  0  0
  193.5760  172.2080  143.2880 C   0  0  1  0  0  3  0  0  0  0  0  0
  192.9220  175.7730  142.8200 O   0  0  0  0  0  1  0  0  0  0  0  0
  188.9770  176.4870  145.0010 C   0  0  0  0  0  2  0  0  0  0  0  0
  188.0150  175.5410  147.0060 O   0  0  0  0  0  1  0  0  0  0  0  0
  187.7080  176.0220  145.7350 C   0  0  1  0  0  3  0  0  0  0  0  0
  185.5600  176.8320  146.6910 C   0  0  0  0  0  3  0  0  0  0  0  0
  186.5230  176.9650  145.7760 C   0  0  0  0  0  0  0  0  0  0  0  0
  186.2690  177.9700  144.6490 C   0  0  1  0  0  0  0  0  0  0  0  0
  186.2790  177.3330  142.8220 C   0  0  1  0  0  3  0  0  0  0  0  0
  184.3800  177.7520  146.6490 C   0  0  0  0  0  2  0  0  0  0  0  0
  184.4110  178.7450  143.4880 C   0  0  0  0  0  2  0  0  0  0  0  0
  185.8800  179.3410  145.2400 C   0  0  2  0  0  3  0  0  0  0  0  0
  184.8950  179.1940  146.4370 C   0  0  0  0  0  2  0  0  0  0  0  0
  185.1010  179.9500  144.1120 C   0  0  0  0  0  2  0  0  0  0  0  0
  187.2610  177.9440  143.6400 O   0  0  0  0  0  0  0  0  0  0  0  0
  185.1800  177.5210  143.7800 N   0  0  2  0  0  0  0  0  0  0  0  0
  186.7840  177.1850  140.3850 C   0  0  0  0  0  1  0  0  0  0  0  0
  186.0750  178.0250  141.4460 C   0  0  0  0  0  2  0  0  0  0  0  0
  194.6450  171.3620  143.8550 N   0  0  0  0  0  2  0  0  0  0  0  0
  195.6570  172.1820  144.5140 C   0  0  0  0  0  2  0  0  0  0  0  0
  197.0490  171.8810  143.9630 C   0  0  2  0  0  3  0  0  0  0  0  0
  197.9400  171.7090  145.0210 O   0  0  0  0  0  1  0  0  0  0  0  0
  197.3020  174.4050  143.6360 C   0  0  0  0  0  2  0  0  0  0  0  0
  197.2200  175.3490  141.2930 C   0  0  0  0  0  2  0  0  0  0  0  0
  197.8520  175.4800  142.6910 C   0  0  1  0  0  3  0  0  0  0  0  0
  197.5540  172.9990  143.0310 C   0  0  2  0  0  3  0  0  0  0  0  0
  197.5630  173.9740  140.6940 C   0  0  0  0  0  2  0  0  0  0  0  0
  196.9770  172.8730  141.5980 C   0  0  0  0  0  2  0  0  0  0  0  0
  196.2490  176.6540  143.6640 C   0  0  0  0  0  1  0  0  0  0  0  0
  197.5560  176.7480  143.1790 O   0  0  0  0  0  0  0  0  0  0  0  0
  1 27  1  6  0  0  0
  1  9  1  0  0  0  0
  1 18  1  0  0  0  0
  3  7  2  0  0  0  0
  3  4  1  0  0  0  0
  4 19  2  0  0  0  0
  5  2  1  0  0  0  0
  5  6  2  0  0  0  0
  6 24  1  0  0  0  0
  7  5  1  0  0  0  0
  8 16  1  6  0  0  0
  8 23  1  0  0  0  0
  8  1  1  0  0  0  0
 10 28  1  6  0  0  0
 10 11  1  0  0  0  0
 12  2  2  0  0  0  0
 15 24  1  0  0  0  0
 15 13  1  0  0  0  0
 17 13  1  1  0  0  0
 17 26  1  0  0  0  0
 18 11  1  0  0  0  0
 18 14  1  6  0  0  0
 19  6  1  0  0  0  0
 20 25  2  0  0  0  0
 20  7  1  0  0  0  0
 21 23  2  0  0  0  0
 22 16  1  6  0  0  0
 22 17  1  0  0  0  0
 23 10  1  0  0  0  0
 24 22  1  0  0  0  0
 25 12  1  0  0  0  0
 26  9  1  0  0  0  0
 26 44  1  6  0  0  0
 28 30  1  0  0  0  0
 30 32  1  0  0  0  0
 30 29  1  1  0  0  0
 32 31  2  0  0  0  0
 33 40  1  6  0  0  0
 33 37  1  0  0  0  0
 33 32  1  0  0  0  0
 34 43  1  6  0  0  0
 34 40  1  0  0  0  0
 34 41  1  0  0  0  0
 35 31  1  0  0  0  0
 36 39  1  0  0  0  0
 37 39  1  6  0  0  0
 37 38  1  0  0  0  0
 38 35  1  0  0  0  0
 41 36  1  6  0  0  0
 41 33  1  0  0  0  0
 42 43  1  0  0  0  0
 44 45  1  0  0  0  0
 46 45  1  0  0  0  0
 46 47  1  1  0  0  0
 49 50  1  0  0  0  0
 50 55  1  1  0  0  0
 50 48  1  0  0  0  0
 51 48  1  0  0  0  0
 51 46  1  1  0  0  0
 52 49  1  0  0  0  0
 52 53  1  0  0  0  0
 53 51  1  0  0  0  0
 55 54  1  0  0  0  0
M  END
>  <MODEL>
5

>  <REMARK>
 VINA RESULT:      -8.8      2.257      6.033
  Name = 
  9 active torsions:
  status: ('A' for Active; 'I' for Inactive)
    1  A    between atoms: C_5  and  C_36
    2  A    between atoms: C_7  and  C_44
    3  A    between atoms: O_18  and  C_24
    4  A    between atoms: C_19  and  C_32
    5  A    between atoms: C_22  and  C_28
    6  A    between atoms: C_22  and  C_31
    7  A    between atoms: C_28  and  N_42
    8  A    between atoms: C_32  and  C_36
    9  A    between atoms: N_42  and  C_54
                            x       y       z     vdW  Elec       q    Type
                         _______ _______ _______ _____ _____    ______ ____

>  <TORSDO>
F 9

$$$$
=
 OpenBabel11042417533D

 55 63  0  0  1  0  0  0  0  0999 V2000
  190.9780  173.5760  141.6850 C   0  0  2  0  0  0  0  0  0  0  0  0
  193.2390  171.0260  137.7040 C   0  0  0  0  0  3  0  0  0  0  0  0
  190.9230  172.1160  135.0840 N   0  0  0  0  0  0  0  0  0  0  0  0
  189.7710  171.5070  135.4500 C   0  0  0  0  0  3  0  0  0  0  0  0
  192.0620  171.1590  136.9560 C   0  0  0  0  0  0  0  0  0  0  0  0
  190.8540  170.5510  137.3330 C   0  0  0  0  0  0  0  0  0  0  0  0
  192.0810  171.9190  135.7680 C   0  0  0  0  0  0  0  0  0  0  0  0
  189.8110  173.0230  140.8260 C   0  0  2  0  0  3  0  0  0  0  0  0
  191.9940  172.5230  142.2020 C   0  0  0  0  0  2  0  0  0  0  0  0
  188.3420  174.8200  141.9080 C   0  0  2  0  0  3  0  0  0  0  0  0
  189.4510  175.3120  142.6350 O   0  0  0  0  0  0  0  0  0  0  0  0
  194.4220  171.6380  137.2850 C   0  0  0  0  0  3  0  0  0  0  0  0
  191.9490  169.0820  140.4760 C   0  0  0  0  0  2  0  0  0  0  0  0
  191.4300  174.9030  143.6390 F   0  0  0  0  0  0  0  0  0  0  0  0
  191.4910  168.8240  139.0450 C   0  0  0  0  0  2  0  0  0  0  0  0
  190.2940  172.3370  139.5380 C   0  0  0  0  0  2  0  0  0  0  0  0
  191.8010  170.5830  140.6460 C   0  0  1  0  0  3  0  0  0  0  0  0
  190.4030  174.3060  142.9280 C   0  0  2  0  0  3  0  0  0  0  0  0
  189.7410  170.7370  136.5770 N   0  0  0  0  0  0  0  0  0  0  0  0
  193.2690  172.5240  135.3470 C   0  0  0  0  0  3  0  0  0  0  0  0
  188.1910  174.3420  139.4500 C   0  0  0  0  0  2  0  0  0  0  0  0
  190.5480  170.8500  139.8200 C   0  0  2  0  0  3  0  0  0  0  0  0
  188.7970  174.1290  140.6310 C   0  0  0  0  0  0  0  0  0  0  0  0
  190.7020  169.9940  138.6590 N   0  0  0  0  0  0  0  0  0  0  0  0
  194.4430  172.3740  136.0960 C   0  0  0  0  0  3  0  0  0  0  0  0
  191.5990  171.0440  142.0950 C   0  0  1  0  0  3  0  0  0  0  0  0
  191.6740  174.4980  140.9040 O   0  0  0  0  0  1  0  0  0  0  0  0
  187.4440  176.0380  141.6580 C   0  0  0  0  0  2  0  0  0  0  0  0
  188.2830  178.2930  141.4400 O   0  0  0  0  0  1  0  0  0  0  0  0
  187.8710  177.3350  142.3640 C   0  0  1  0  0  3  0  0  0  0  0  0
  186.4310  179.1600  143.2470 C   0  0  0  0  0  3  0  0  0  0  0  0
  186.9310  177.9310  143.3910 C   0  0  0  0  0  0  0  0  0  0  0  0
  186.6820  177.2390  144.7350 C   0  0  1  0  0  0  0  0  0  0  0  0
  188.2090  176.6840  145.7860 C   0  0  1  0  0  3  0  0  0  0  0  0
  185.5550  179.7230  144.3220 C   0  0  0  0  0  2  0  0  0  0  0  0
  186.4590  177.9150  146.9470 C   0  0  0  0  0  2  0  0  0  0  0  0
  185.1780  177.2630  145.0730 C   0  0  2  0  0  3  0  0  0  0  0  0
  184.5330  178.6390  144.7350 C   0  0  0  0  0  2  0  0  0  0  0  0
  185.1980  177.1520  146.5680 C   0  0  0  0  0  2  0  0  0  0  0  0
  187.3690  176.0080  144.8680 O   0  0  0  0  0  0  0  0  0  0  0  0
  187.4040  177.9140  145.8140 N   0  0  2  0  0  0  0  0  0  0  0  0
  189.7090  175.2480  147.1650 C   0  0  0  0  0  1  0  0  0  0  0  0
  188.3630  175.9680  147.1560 C   0  0  0  0  0  2  0  0  0  0  0  0
  192.3210  170.2160  143.0820 N   0  0  0  0  0  2  0  0  0  0  0  0
  192.6640  171.0020  144.2630 C   0  0  0  0  0  2  0  0  0  0  0  0
  194.1160  170.7680  144.6730 C   0  0  2  0  0  3  0  0  0  0  0  0
  194.1930  169.6320  145.4790 O   0  0  0  0  0  1  0  0  0  0  0  0
  194.0440  173.3080  144.9700 C   0  0  0  0  0  2  0  0  0  0  0  0
  196.1670  174.5270  145.5920 C   0  0  0  0  0  2  0  0  0  0  0  0
  194.6380  174.4770  145.7630 C   0  0  1  0  0  3  0  0  0  0  0  0
  194.7070  171.9790  145.4200 C   0  0  2  0  0  3  0  0  0  0  0  0
  196.7940  173.2270  146.1270 C   0  0  0  0  0  2  0  0  0  0  0  0
  196.2520  172.0380  145.3120 C   0  0  0  0  0  2  0  0  0  0  0  0
  194.6870  175.8760  144.0510 C   0  0  0  0  0  1  0  0  0  0  0  0
  194.1150  175.6820  145.3100 O   0  0  0  0  0  0  0  0  0  0  0  0
  1 27  1  6  0  0  0
  1  9  1  0  0  0  0
  1 18  1  0  0  0  0
  3  4  2  0  0  0  0
  3  7  1  0  0  0  0
  4 19  1  0  0  0  0
  5  6  1  0  0  0  0
  5  2  2  0  0  0  0
  6 24  1  0  0  0  0
  7  5  1  0  0  0  0
  8 16  1  6  0  0  0
  8  1  1  0  0  0  0
 10 28  1  6  0  0  0
 10 11  1  0  0  0  0
 11 18  1  0  0  0  0
 12  2  1  0  0  0  0
 15 13  1  0  0  0  0
 17 13  1  1  0  0  0
 17 26  1  0  0  0  0
 18 14  1  6  0  0  0
 19  6  2  0  0  0  0
 20  7  2  0  0  0  0
 20 25  1  0  0  0  0
 21 23  2  0  0  0  0
 22 16  1  6  0  0  0
 22 17  1  0  0  0  0
 23  8  1  0  0  0  0
 23 10  1  0  0  0  0
 24 15  1  0  0  0  0
 24 22  1  0  0  0  0
 25 12  2  0  0  0  0
 26  9  1  0  0  0  0
 26 44  1  1  0  0  0
 28 30  1  0  0  0  0
 30 29  1  6  0  0  0
 30 32  1  0  0  0  0
 31 32  2  0  0  0  0
 31 35  1  0  0  0  0
 33 32  1  6  0  0  0
 33 40  1  0  0  0  0
 33 37  1  0  0  0  0
 33 41  1  0  0  0  0
 34 41  1  0  0  0  0
 34 43  1  1  0  0  0
 35 38  1  0  0  0  0
 37 38  1  1  0  0  0
 37 39  1  0  0  0  0
 39 36  1  0  0  0  0
 40 34  1  0  0  0  0
 41 36  1  1  0  0  0
 43 42  1  0  0  0  0
 44 45  1  0  0  0  0
 45 46  1  0  0  0  0
 46 47  1  1  0  0  0
 48 51  1  0  0  0  0
 48 50  1  0  0  0  0
 49 50  1  0  0  0  0
 49 52  1  0  0  0  0
 50 55  1  6  0  0  0
 51 46  1  6  0  0  0
 53 51  1  0  0  0  0
 53 52  1  0  0  0  0
 54 55  1  0  0  0  0
M  END
>  <MODEL>
6

>  <REMARK>
 VINA RESULT:      -8.7      2.669      6.974
  Name = 
  9 active torsions:
  status: ('A' for Active; 'I' for Inactive)
    1  A    between atoms: C_5  and  C_36
    2  A    between atoms: C_7  and  C_44
    3  A    between atoms: O_18  and  C_24
    4  A    between atoms: C_19  and  C_32
    5  A    between atoms: C_22  and  C_28
    6  A    between atoms: C_22  and  C_31
    7  A    between atoms: C_28  and  N_42
    8  A    between atoms: C_32  and  C_36
    9  A    between atoms: N_42  and  C_54
                            x       y       z     vdW  Elec       q    Type
                         _______ _______ _______ _____ _____    ______ ____

>  <TORSDO>
F 9

$$$$
=
 OpenBabel11042417533D

 55 63  0  0  1  0  0  0  0  0999 V2000
  190.8640  172.9950  142.8260 C   0  0  2  0  0  0  0  0  0  0  0  0
  195.6170  170.8980  143.5110 C   0  0  0  0  0  3  0  0  0  0  0  0
  196.9230  173.4500  145.7910 N   0  0  0  0  0  0  0  0  0  0  0  0
  196.9910  174.5400  144.9910 C   0  0  0  0  0  3  0  0  0  0  0  0
  196.0890  172.1310  143.9780 C   0  0  0  0  0  0  0  0  0  0  0  0
  196.1470  173.2750  143.1680 C   0  0  0  0  0  0  0  0  0  0  0  0
  196.5400  172.2370  145.3110 C   0  0  0  0  0  0  0  0  0  0  0  0
  191.8520  174.1910  142.8300 C   0  0  2  0  0  3  0  0  0  0  0  0
  191.1440  171.8910  141.7700 C   0  0  0  0  0  2  0  0  0  0  0  0
  189.8480  175.6690  143.4290 C   0  0  2  0  0  3  0  0  0  0  0  0
  189.0010  174.5380  143.4550 O   0  0  0  0  0  0  0  0  0  0  0  0
  195.5890  169.7810  144.3490 C   0  0  0  0  0  3  0  0  0  0  0  0
  194.6420  171.8820  140.1630 C   0  0  0  0  0  2  0  0  0  0  0  0
  188.5210  172.4720  142.6810 F   0  0  0  0  0  0  0  0  0  0  0  0
  195.9080  172.4280  140.8140 C   0  0  0  0  0  2  0  0  0  0  0  0
  193.2960  173.7670  143.1380 C   0  0  0  0  0  2  0  0  0  0  0  0
  193.5670  172.0960  141.2130 C   0  0  1  0  0  3  0  0  0  0  0  0
  189.4240  173.5160  142.5710 C   0  0  2  0  0  3  0  0  0  0  0  0
  196.5930  174.4480  143.6880 N   0  0  0  0  0  0  0  0  0  0  0  0
  196.5180  171.1150  146.1450 C   0  0  0  0  0  3  0  0  0  0  0  0
  192.0610  175.9710  144.5730 C   0  0  0  0  0  2  0  0  0  0  0  0
  194.0140  173.4170  141.8270 C   0  0  2  0  0  3  0  0  0  0  0  0
  191.2880  175.2720  143.7260 C   0  0  0  0  0  0  0  0  0  0  0  0
  195.4580  173.3020  141.8970 N   0  0  0  0  0  0  0  0  0  0  0  0
  196.0560  169.8840  145.6630 C   0  0  0  0  0  3  0  0  0  0  0  0
  192.1440  172.2160  140.6520 C   0  0  1  0  0  3  0  0  0  0  0  0
  190.9120  172.4060  144.0880 O   0  0  0  0  0  1  0  0  0  0  0  0
  189.2600  176.6450  144.4560 C   0  0  0  0  0  2  0  0  0  0  0  0
  188.5540  175.6420  146.5380 O   0  0  0  0  0  1  0  0  0  0  0  0
  188.0990  176.0980  145.3030 C   0  0  1  0  0  3  0  0  0  0  0  0
  186.0200  176.7910  146.4800 C   0  0  0  0  0  3  0  0  0  0  0  0
  186.8620  176.9590  145.4570 C   0  0  0  0  0  0  0  0  0  0  0  0
  186.4120  177.9070  144.3420 C   0  0  1  0  0  0  0  0  0  0  0  0
  186.2600  177.2120  142.5420 C   0  0  1  0  0  3  0  0  0  0  0  0
  184.7810  177.6270  146.5510 C   0  0  0  0  0  2  0  0  0  0  0  0
  184.3840  178.5160  143.3830 C   0  0  0  0  0  2  0  0  0  0  0  0
  185.9950  179.2670  144.9390 C   0  0  2  0  0  3  0  0  0  0  0  0
  185.1650  179.0930  146.2450 C   0  0  0  0  0  2  0  0  0  0  0  0
  185.0530  179.7850  143.8940 C   0  0  0  0  0  2  0  0  0  0  0  0
  187.2830  177.9150  143.2260 O   0  0  0  0  0  0  0  0  0  0  0  0
  185.2660  177.3570  143.6160 N   0  0  2  0  0  0  0  0  0  0  0  0
  186.6920  177.1870  140.0870 C   0  0  0  0  0  1  0  0  0  0  0  0
  185.8540  177.8440  141.1820 C   0  0  0  0  0  2  0  0  0  0  0  0
  191.9090  171.3830  139.4560 N   0  0  0  0  0  2  0  0  0  0  0  0
  190.8410  170.4180  139.7000 C   0  0  0  0  0  2  0  0  0  0  0  0
  189.9620  170.2520  138.4630 C   0  0  2  0  0  3  0  0  0  0  0  0
  190.1280  168.9690  137.9440 O   0  0  0  0  0  1  0  0  0  0  0  0
  189.3250  172.5160  137.4570 C   0  0  0  0  0  2  0  0  0  0  0  0
  189.6920  172.9030  134.9870 C   0  0  0  0  0  2  0  0  0  0  0  0
  189.7080  173.5450  136.3860 C   0  0  1  0  0  3  0  0  0  0  0  0
  190.2860  171.3000  137.3810 C   0  0  2  0  0  3  0  0  0  0  0  0
  190.7160  171.7570  134.9280 C   0  0  0  0  0  2  0  0  0  0  0  0
  190.3260  170.6820  135.9600 C   0  0  0  0  0  2  0  0  0  0  0  0
  188.1790  174.5420  137.6350 C   0  0  0  0  0  1  0  0  0  0  0  0
  188.8040  174.6000  136.3870 O   0  0  0  0  0  0  0  0  0  0  0  0
  1  8  1  0  0  0  0
  1 27  1  1  0  0  0
  2  5  2  0  0  0  0
  2 12  1  0  0  0  0
  4  3  2  0  0  0  0
  5  7  1  0  0  0  0
  6 19  2  0  0  0  0
  6  5  1  0  0  0  0
  7  3  1  0  0  0  0
  7 20  2  0  0  0  0
  8 16  1  1  0  0  0
  8 23  1  0  0  0  0
  9  1  1  0  0  0  0
 10 11  1  0  0  0  0
 10 23  1  0  0  0  0
 10 28  1  1  0  0  0
 12 25  2  0  0  0  0
 13 15  1  0  0  0  0
 15 24  1  0  0  0  0
 17 13  1  6  0  0  0
 17 22  1  0  0  0  0
 18 14  1  1  0  0  0
 18  1  1  0  0  0  0
 18 11  1  0  0  0  0
 19  4  1  0  0  0  0
 22 24  1  0  0  0  0
 22 16  1  1  0  0  0
 23 21  2  0  0  0  0
 24  6  1  0  0  0  0
 25 20  1  0  0  0  0
 26 44  1  6  0  0  0
 26 17  1  0  0  0  0
 26  9  1  0  0  0  0
 28 30  1  0  0  0  0
 30 32  1  0  0  0  0
 30 29  1  1  0  0  0
 31 35  1  0  0  0  0
 32 31  2  0  0  0  0
 33 40  1  6  0  0  0
 33 37  1  0  0  0  0
 33 32  1  0  0  0  0
 34 43  1  6  0  0  0
 34 40  1  0  0  0  0
 34 41  1  0  0  0  0
 36 39  1  0  0  0  0
 37 39  1  6  0  0  0
 37 38  1  0  0  0  0
 38 35  1  0  0  0  0
 41 36  1  6  0  0  0
 41 33  1  0  0  0  0
 42 43  1  0  0  0  0
 44 45  1  0  0  0  0
 46 47  1  6  0  0  0
 46 45  1  0  0  0  0
 49 50  1  0  0  0  0
 50 55  1  6  0  0  0
 50 48  1  0  0  0  0
 51 48  1  0  0  0  0
 51 46  1  1  0  0  0
 52 49  1  0  0  0  0
 52 53  1  0  0  0  0
 53 51  1  0  0  0  0
 55 54  1  0  0  0  0
M  END
>  <MODEL>
7

>  <REMARK>
 VINA RESULT:      -8.6      1.669      2.104
  Name = 
  9 active torsions:
  status: ('A' for Active; 'I' for Inactive)
    1  A    between atoms: C_5  and  C_36
    2  A    between atoms: C_7  and  C_44
    3  A    between atoms: O_18  and  C_24
    4  A    between atoms: C_19  and  C_32
    5  A    between atoms: C_22  and  C_28
    6  A    between atoms: C_22  and  C_31
    7  A    between atoms: C_28  and  N_42
    8  A    between atoms: C_32  and  C_36
    9  A    between atoms: N_42  and  C_54
                            x       y       z     vdW  Elec       q    Type
                         _______ _______ _______ _____ _____    ______ ____

>  <TORSDO>
F 9

$$$$
=
 OpenBabel11042417533D

 55 63  0  0  1  0  0  0  0  0999 V2000
  191.1400  173.6600  142.6420 C   0  0  2  0  0  0  0  0  0  0  0  0
  195.6770  171.1140  143.2620 C   0  0  0  0  0  3  0  0  0  0  0  0
  196.8160  172.9190  146.2390 N   0  0  0  0  0  0  0  0  0  0  0  0
  197.0280  174.1650  145.7530 C   0  0  0  0  0  3  0  0  0  0  0  0
  196.1450  172.1550  144.0740 C   0  0  0  0  0  0  0  0  0  0  0  0
  196.3510  173.4560  143.5920 C   0  0  0  0  0  0  0  0  0  0  0  0
  196.4390  171.8950  145.4290 C   0  0  0  0  0  0  0  0  0  0  0  0
  192.1730  174.7420  143.0520 C   0  0  2  0  0  3  0  0  0  0  0  0
  191.4930  172.8350  141.3760 C   0  0  0  0  0  2  0  0  0  0  0  0
  190.1820  176.1700  143.7950 C   0  0  2  0  0  3  0  0  0  0  0  0
  189.2870  175.1330  143.4440 O   0  0  0  0  0  0  0  0  0  0  0  0
  195.4990  169.8300  143.7820 C   0  0  0  0  0  3  0  0  0  0  0  0
  195.1540  172.9640  140.1910 C   0  0  0  0  0  2  0  0  0  0  0  0
  188.8100  173.3650  142.1260 F   0  0  0  0  0  0  0  0  0  0  0  0
  196.3570  173.2370  141.0880 C   0  0  0  0  0  2  0  0  0  0  0  0
  193.5500  174.1490  143.3910 C   0  0  0  0  0  2  0  0  0  0  0  0
  193.9720  172.9910  141.1430 C   0  0  1  0  0  3  0  0  0  0  0  0
  189.7650  174.3330  142.3790 C   0  0  2  0  0  3  0  0  0  0  0  0
  196.7850  174.4280  144.4360 N   0  0  0  0  0  0  0  0  0  0  0  0
  196.2660  170.6060  145.9440 C   0  0  0  0  0  3  0  0  0  0  0  0
  192.2530  176.0160  145.2020 C   0  0  0  0  0  2  0  0  0  0  0  0
  194.4020  174.0820  142.1160 C   0  0  2  0  0  3  0  0  0  0  0  0
  191.5560  175.6070  144.1290 C   0  0  0  0  0  0  0  0  0  0  0  0
  195.8210  173.8480  142.3040 N   0  0  0  0  0  0  0  0  0  0  0  0
  195.8090  169.5700  145.1200 C   0  0  0  0  0  3  0  0  0  0  0  0
  192.6330  173.3510  140.4870 C   0  0  1  0  0  3  0  0  0  0  0  0
  191.0100  172.7760  143.7110 O   0  0  0  0  0  1  0  0  0  0  0  0
  189.5200  176.9030  144.9690 C   0  0  0  0  0  2  0  0  0  0  0  0
  188.6390  175.5870  146.7940 O   0  0  0  0  0  1  0  0  0  0  0  0
  188.3010  176.1990  145.5890 C   0  0  1  0  0  3  0  0  0  0  0  0
  186.1830  176.8010  146.7440 C   0  0  0  0  0  3  0  0  0  0  0  0
  187.0120  176.9850  145.7140 C   0  0  0  0  0  0  0  0  0  0  0  0
  186.5030  177.8620  144.5660 C   0  0  1  0  0  0  0  0  0  0  0  0
  186.3970  177.0950  142.7940 C   0  0  1  0  0  3  0  0  0  0  0  0
  184.8930  177.5590  146.7870 C   0  0  0  0  0  2  0  0  0  0  0  0
  184.4420  178.3070  143.5910 C   0  0  0  0  0  2  0  0  0  0  0  0
  186.0010  179.2140  145.1150 C   0  0  2  0  0  3  0  0  0  0  0  0
  185.1840  179.0350  146.4280 C   0  0  0  0  0  2  0  0  0  0  0  0
  185.0290  179.6330  144.0540 C   0  0  0  0  0  2  0  0  0  0  0  0
  187.3730  177.8850  143.4490 O   0  0  0  0  0  0  0  0  0  0  0  0
  185.3950  177.2150  143.8630 N   0  0  2  0  0  0  0  0  0  0  0  0
  186.9400  177.1500  140.3610 C   0  0  0  0  0  1  0  0  0  0  0  0
  185.9520  177.6500  141.4120 C   0  0  0  0  0  2  0  0  0  0  0  0
  192.5060  172.8580  139.1010 N   0  0  0  0  0  2  0  0  0  0  0  0
  191.8530  173.8550  138.2560 C   0  0  0  0  0  2  0  0  0  0  0  0
  190.9190  173.1900  137.2490 C   0  0  2  0  0  3  0  0  0  0  0  0
  191.5070  172.0190  136.7720 O   0  0  0  0  0  1  0  0  0  0  0  0
  191.5440  175.3420  136.0150 C   0  0  0  0  0  2  0  0  0  0  0  0
  189.7230  176.6680  134.8700 C   0  0  0  0  0  2  0  0  0  0  0  0
  191.1950  176.2210  134.8080 C   0  0  1  0  0  3  0  0  0  0  0  0
  190.5840  174.1230  136.0700 C   0  0  2  0  0  3  0  0  0  0  0  0
  188.8020  175.4350  134.8380 C   0  0  0  0  0  2  0  0  0  0  0  0
  189.0970  174.5580  136.0690 C   0  0  0  0  0  2  0  0  0  0  0  0
  193.0650  177.0620  135.6380 C   0  0  0  0  0  1  0  0  0  0  0  0
  191.9910  177.3600  134.7960 O   0  0  0  0  0  0  0  0  0  0  0  0
  1  8  1  0  0  0  0
  1 27  1  1  0  0  0
  2 12  2  0  0  0  0
  2  5  1  0  0  0  0
  4  3  1  0  0  0  0
  5  7  1  0  0  0  0
  6  5  2  0  0  0  0
  6 19  1  0  0  0  0
  7 20  1  0  0  0  0
  7  3  2  0  0  0  0
  8 16  1  1  0  0  0
  8 23  1  0  0  0  0
  9  1  1  0  0  0  0
 10 23  1  0  0  0  0
 10 28  1  1  0  0  0
 11 10  1  0  0  0  0
 12 25  1  0  0  0  0
 13 15  1  0  0  0  0
 15 24  1  0  0  0  0
 17 13  1  6  0  0  0
 17 22  1  0  0  0  0
 18 14  1  1  0  0  0
 18  1  1  0  0  0  0
 18 11  1  0  0  0  0
 19  4  2  0  0  0  0
 22 24  1  0  0  0  0
 22 16  1  1  0  0  0
 23 21  2  0  0  0  0
 24  6  1  0  0  0  0
 25 20  2  0  0  0  0
 26 44  1  6  0  0  0
 26 17  1  0  0  0  0
 26  9  1  0  0  0  0
 28 30  1  0  0  0  0
 30 32  1  0  0  0  0
 30 29  1  1  0  0  0
 31 35  1  0  0  0  0
 32 31  2  0  0  0  0
 33 40  1  6  0  0  0
 33 37  1  0  0  0  0
 33 32  1  0  0  0  0
 34 43  1  6  0  0  0
 34 40  1  0  0  0  0
 34 41  1  0  0  0  0
 36 39  1  0  0  0  0
 37 39  1  6  0  0  0
 37 38  1  0  0  0  0
 38 35  1  0  0  0  0
 41 36  1  6  0  0  0
 41 33  1  0  0  0  0
 42 43  1  0  0  0  0
 45 44  1  0  0  0  0
 46 47  1  6  0  0  0
 46 45  1  0  0  0  0
 48 51  1  0  0  0  0
 50 55  1  1  0  0  0
 50 49  1  0  0  0  0
 50 48  1  0  0  0  0
 51 46  1  1  0  0  0
 52 49  1  0  0  0  0
 52 53  1  0  0  0  0
 53 51  1  0  0  0  0
 55 54  1  0  0  0  0
M  END
>  <MODEL>
8

>  <REMARK>
 VINA RESULT:      -8.4      1.478      2.180
  Name = 
  9 active torsions:
  status: ('A' for Active; 'I' for Inactive)
    1  A    between atoms: C_5  and  C_36
    2  A    between atoms: C_7  and  C_44
    3  A    between atoms: O_18  and  C_24
    4  A    between atoms: C_19  and  C_32
    5  A    between atoms: C_22  and  C_28
    6  A    between atoms: C_22  and  C_31
    7  A    between atoms: C_28  and  N_42
    8  A    between atoms: C_32  and  C_36
    9  A    between atoms: N_42  and  C_54
                            x       y       z     vdW  Elec       q    Type
                         _______ _______ _______ _____ _____    ______ ____

>  <TORSDO>
F 9

$$$$
=
 OpenBabel11042417533D

 55 63  0  0  1  0  0  0  0  0999 V2000
  190.9490  173.0860  143.0320 C   0  0  2  0  0  0  0  0  0  0  0  0
  195.9910  171.9180  143.8530 C   0  0  0  0  0  3  0  0  0  0  0  0
  197.1990  175.3520  144.2640 N   0  0  0  0  0  0  0  0  0  0  0  0
  197.0220  175.8670  143.0240 C   0  0  0  0  0  3  0  0  0  0  0  0
  196.3430  173.2380  143.5430 C   0  0  0  0  0  0  0  0  0  0  0  0
  196.1480  173.7940  142.2690 C   0  0  0  0  0  0  0  0  0  0  0  0
  196.9310  174.0480  144.5380 C   0  0  0  0  0  0  0  0  0  0  0  0
  191.7580  174.1610  142.2600 C   0  0  2  0  0  3  0  0  0  0  0  0
  191.2500  171.6110  142.6500 C   0  0  0  0  0  2  0  0  0  0  0  0
  189.6580  175.6220  142.3640 C   0  0  2  0  0  3  0  0  0  0  0  0
  188.9810  174.6250  143.1040 O   0  0  0  0  0  0  0  0  0  0  0  0
  196.2150  171.4030  145.1310 C   0  0  0  0  0  3  0  0  0  0  0  0
  194.5000  170.9580  140.6940 C   0  0  0  0  0  2  0  0  0  0  0  0
  188.6990  172.4360  143.5770 F   0  0  0  0  0  0  0  0  0  0  0  0
  195.7480  171.8320  140.7490 C   0  0  0  0  0  2  0  0  0  0  0  0
  193.2730  174.0400  142.4860 C   0  0  0  0  0  2  0  0  0  0  0  0
  193.5380  171.6280  141.6580 C   0  0  1  0  0  3  0  0  0  0  0  0
  189.4320  173.3170  142.8010 C   0  0  2  0  0  3  0  0  0  0  0  0
  196.4890  175.0880  142.0380 N   0  0  0  0  0  0  0  0  0  0  0  0
  197.1610  173.5260  145.8140 C   0  0  0  0  0  3  0  0  0  0  0  0
  191.9280  176.5970  142.7960 C   0  0  0  0  0  2  0  0  0  0  0  0
  193.8710  173.0980  141.4320 C   0  0  2  0  0  3  0  0  0  0  0  0
  191.1620  175.5170  142.5670 C   0  0  0  0  0  0  0  0  0  0  0  0
  195.3150  173.1160  141.3000 N   0  0  0  0  0  0  0  0  0  0  0  0
  196.8170  172.2010  146.1100 C   0  0  0  0  0  3  0  0  0  0  0  0
  192.0560  171.3600  141.3690 C   0  0  1  0  0  3  0  0  0  0  0  0
  191.2270  173.2450  144.3880 O   0  0  0  0  0  1  0  0  0  0  0  0
  189.0680  176.9550  142.8390 C   0  0  0  0  0  2  0  0  0  0  0  0
  187.0140  176.0770  141.9190 O   0  0  0  0  0  1  0  0  0  0  0  0
  187.6190  177.2330  142.4070 C   0  0  1  0  0  3  0  0  0  0  0  0
  186.3460  179.2270  143.1730 C   0  0  0  0  0  3  0  0  0  0  0  0
  186.7120  177.9600  143.3790 C   0  0  0  0  0  0  0  0  0  0  0  0
  186.3530  177.3490  144.7370 C   0  0  1  0  0  0  0  0  0  0  0  0
  187.7810  176.6850  145.8590 C   0  0  1  0  0  3  0  0  0  0  0  0
  185.4990  179.9180  144.1960 C   0  0  0  0  0  2  0  0  0  0  0  0
  186.1310  178.1310  146.9140 C   0  0  0  0  0  2  0  0  0  0  0  0
  184.8490  177.5390  145.0210 C   0  0  2  0  0  3  0  0  0  0  0  0
  184.3590  178.9590  144.6110 C   0  0  0  0  0  2  0  0  0  0  0  0
  184.8110  177.4850  146.5190 C   0  0  0  0  0  2  0  0  0  0  0  0
  186.9050  176.0620  144.9370 O   0  0  0  0  0  0  0  0  0  0  0  0
  187.1060  177.9900  145.8160 N   0  0  2  0  0  0  0  0  0  0  0  0
  188.9550  174.9910  147.2630 C   0  0  0  0  0  1  0  0  0  0  0  0
  187.8180  176.0110  147.2590 C   0  0  0  0  0  2  0  0  0  0  0  0
  191.7970  170.0140  140.8200 N   0  0  0  0  0  2  0  0  0  0  0  0
  190.4400  169.9250  140.2880 C   0  0  0  0  0  2  0  0  0  0  0  0
  190.4560  169.5300  138.8130 C   0  0  2  0  0  3  0  0  0  0  0  0
  191.5560  168.7100  138.5640 O   0  0  0  0  0  1  0  0  0  0  0  0
  189.6490  171.9300  138.4480 C   0  0  0  0  0  2  0  0  0  0  0  0
  189.3170  172.7620  136.0860 C   0  0  0  0  0  2  0  0  0  0  0  0
  189.7530  173.1400  137.5130 C   0  0  1  0  0  3  0  0  0  0  0  0
  190.5010  170.7600  137.8870 C   0  0  2  0  0  3  0  0  0  0  0  0
  190.2370  171.6590  135.5340 C   0  0  0  0  0  2  0  0  0  0  0  0
  190.1140  170.4110  136.4280 C   0  0  0  0  0  2  0  0  0  0  0  0
  188.5660  173.8020  139.2580 C   0  0  0  0  0  1  0  0  0  0  0  0
  188.9260  174.1650  137.9580 O   0  0  0  0  0  0  0  0  0  0  0  0
  1 27  1  1  0  0  0
  2 12  1  0  0  0  0
  3  7  1  0  0  0  0
  4  3  2  0  0  0  0
  5  2  2  0  0  0  0
  5  7  1  0  0  0  0
  6  5  1  0  0  0  0
  7 20  2  0  0  0  0
  8 16  1  1  0  0  0
  8 23  1  0  0  0  0
  8  1  1  0  0  0  0
  9  1  1  0  0  0  0
 10 23  1  0  0  0  0
 10 28  1  1  0  0  0
 10 11  1  0  0  0  0
 12 25  2  0  0  0  0
 13 15  1  0  0  0  0
 15 24  1  0  0  0  0
 17 13  1  6  0  0  0
 18  1  1  0  0  0  0
 18 11  1  0  0  0  0
 18 14  1  1  0  0  0
 19  6  2  0  0  0  0
 19  4  1  0  0  0  0
 20 25  1  0  0  0  0
 22 17  1  0  0  0  0
 22 16  1  1  0  0  0
 23 21  2  0  0  0  0
 24 22  1  0  0  0  0
 24  6  1  0  0  0  0
 26 44  1  1  0  0  0
 26 17  1  0  0  0  0
 26  9  1  0  0  0  0
 30 29  1  1  0  0  0
 30 28  1  0  0  0  0
 30 32  1  0  0  0  0
 31 32  2  0  0  0  0
 31 35  1  0  0  0  0
 33 32  1  6  0  0  0
 33 40  1  0  0  0  0
 33 37  1  0  0  0  0
 33 41  1  0  0  0  0
 34 43  1  1  0  0  0
 35 38  1  0  0  0  0
 37 38  1  1  0  0  0
 37 39  1  0  0  0  0
 39 36  1  0  0  0  0
 40 34  1  0  0  0  0
 41 34  1  0  0  0  0
 41 36  1  1  0  0  0
 43 42  1  0  0  0  0
 45 44  1  0  0  0  0
 46 47  1  1  0  0  0
 46 45  1  0  0  0  0
 49 50  1  0  0  0  0
 50 55  1  1  0  0  0
 50 48  1  0  0  0  0
 51 48  1  0  0  0  0
 51 46  1  1  0  0  0
 52 49  1  0  0  0  0
 52 53  1  0  0  0  0
 53 51  1  0  0  0  0
 55 54  1  0  0  0  0
M  END
>  <MODEL>
9

>  <REMARK>
 VINA RESULT:      -8.3      2.037      3.294
  Name = 
  9 active torsions:
  status: ('A' for Active; 'I' for Inactive)
    1  A    between atoms: C_5  and  C_36
    2  A    between atoms: C_7  and  C_44
    3  A    between atoms: O_18  and  C_24
    4  A    between atoms: C_19  and  C_32
    5  A    between atoms: C_22  and  C_28
    6  A    between atoms: C_22  and  C_31
    7  A    between atoms: C_28  and  N_42
    8  A    between atoms: C_32  and  C_36
    9  A    between atoms: N_42  and  C_54
                            x       y       z     vdW  Elec       q    Type
                         _______ _______ _______ _____ _____    ______ ____

>  <TORSDO>
F 9

$$$$
