=
 OpenBabel11042417133D

 49 53  0  0  1  0  0  0  0  0999 V2000
  192.5150  171.7020  140.7420 C   0  0  0  0  0  0  0  0  0  0  0  0
  192.5790  172.5620  139.8210 O   0  0  0  0  0  0  0  0  0  0  0  0
  191.1880  171.2060  141.2240 C   0  0  2  0  0  3  0  0  0  0  0  0
  190.4310  170.7420  140.1450 O   0  0  0  0  0  1  0  0  0  0  0  0
  191.2910  173.3550  142.2610 F   0  0  0  0  0  0  0  0  0  0  0  0
  190.4330  172.3100  141.9620 C   0  0  1  0  0  3  0  0  0  0  0  0
  187.6320  174.4250  141.7310 N   0  0  0  0  0  0  0  0  0  0  0  0
  188.0620  173.0720  142.0130 C   0  0  0  0  0  2  0  0  0  0  0  0
  189.5850  174.0260  140.5000 O   0  0  0  0  0  0  0  0  0  0  0  0
  188.4250  174.8110  140.5740 C   0  0  0  0  0  2  0  0  0  0  0  0
  189.2560  172.8190  141.1310 C   0  0  1  0  0  3  0  0  0  0  0  0
  188.0720  175.2580  142.8430 C   0  0  0  0  0  2  0  0  0  0  0  0
  187.9820  176.7330  142.4690 C   0  0  2  0  0  3  0  0  0  0  0  0
  189.1130  177.5250  143.0590 C   0  0  0  0  0  3  0  0  0  0  0  0
  190.2510  177.3920  142.6400 O   0  0  0  0  0  0  0  0  0  0  0  0
  186.6000  177.3080  142.8170 C   0  0  1  0  0  3  0  0  0  0  0  0
  186.9350  178.0960  145.2110 C   0  0  0  0  0  2  0  0  0  0  0  0
  185.0610  176.3890  146.1560 O   0  0  0  0  0  0  0  0  0  0  0  0
  185.2810  178.5750  147.2960 O   0  0  0  0  0  0  0  0  0  0  0  0
  186.6240  178.5210  143.7760 C   0  0  2  0  0  3  0  0  0  0  0  0
  184.3270  178.5820  144.7650 C   0  0  0  0  0  2  0  0  0  0  0  0
  185.4620  180.5860  144.1510 O   0  0  0  0  0  1  0  0  0  0  0  0
  185.3680  177.8500  145.9840 S   0  0  0  0  0  0  0  0  0  0  0  0
  185.2700  179.2560  143.7770 C   0  0  1  0  0  3  0  0  0  0  0  0
  185.8900  177.6280  141.5700 C   0  0  0  0  0  0  0  0  0  0  0  0
  185.3280  177.8790  140.5910 N   0  0  0  0  0  0  0  0  0  0  0  0
  193.6740  171.2490  141.3730 O   0  0  0  0  0  0  0  0  0  0  0  0
  194.3640  172.0330  142.3370 C   0  0  2  0  0  3  0  0  0  0  0  0
  195.6690  172.4990  141.7750 C   0  0  0  0  0  0  0  0  0  0  0  0
  196.5010  171.6890  141.3950 O   0  0  0  0  0  0  0  0  0  0  0  0
  195.9460  173.9680  141.6810 C   0  0  2  0  0  3  0  0  0  0  0  0
  195.4990  174.5960  142.8310 F   0  0  0  0  0  0  0  0  0  0  0  0
  194.8500  175.8690  140.7340 O   0  0  0  0  0  1  0  0  0  0  0  0
  196.1640  174.5970  139.3840 O   0  0  0  0  0  1  0  0  0  0  0  0
  195.2700  174.5690  140.4560 C   0  0  0  0  0  3  0  0  0  0  0  0
  194.5990  171.2100  143.5920 C   0  0  0  0  0  2  0  0  0  0  0  0
  194.3050  172.0480  144.8210 C   0  0  0  0  0  2  0  0  0  0  0  0
  192.9360  172.6920  144.6920 C   0  0  0  0  0  2  0  0  0  0  0  0
  195.2610  175.3200  146.0100 C   0  0  0  0  0  2  0  0  0  0  0  0
  193.0390  176.6390  146.9510 O   0  0  0  0  0  0  0  0  0  0  0  0
  194.0350  174.7170  145.7410 C   0  0  0  0  0  0  0  0  0  0  0  0
  194.0860  175.9210  146.4500 C   0  0  0  0  0  0  0  0  0  0  0  0
  189.3750  175.9540  146.8390 C   0  0  0  0  0  3  0  0  0  0  0  0
  191.7950  175.9630  146.6530 C   0  0  0  0  0  0  0  0  0  0  0  0
  190.4500  174.1100  145.6880 C   0  0  0  0  0  3  0  0  0  0  0  0
  191.7140  174.6710  145.9060 C   0  0  0  0  0  0  0  0  0  0  0  0
  189.2960  174.7440  146.1500 C   0  0  0  0  0  3  0  0  0  0  0  0
  192.9100  173.9740  145.3830 N   0  0  0  0  0  0  0  0  0  0  0  0
  190.6090  176.5570  147.0890 C   0  0  0  0  0  3  0  0  0  0  0  0
  1  3  1  0  0  0  0
  1 27  1  0  0  0  0
  2  1  2  0  0  0  0
  3  4  1  6  0  0  0
  3  6  1  0  0  0  0
  6  5  1  6  0  0  0
  7  8  1  0  0  0  0
  7 12  1  0  0  0  0
  9 10  1  0  0  0  0
  9 11  1  0  0  0  0
 10  7  1  0  0  0  0
 11  6  1  1  0  0  0
 11  8  1  0  0  0  0
 13 16  1  0  0  0  0
 13 12  1  1  0  0  0
 13 14  1  0  0  0  0
 15 14  2  0  0  0  0
 16 25  1  6  0  0  0
 17 23  1  0  0  0  0
 20 16  1  6  0  0  0
 20 24  1  0  0  0  0
 20 17  1  0  0  0  0
 21 23  1  0  0  0  0
 23 18  2  0  0  0  0
 23 19  2  0  0  0  0
 24 22  1  1  0  0  0
 24 21  1  0  0  0  0
 26 25  3  0  0  0  0
 27 28  1  0  0  0  0
 28 36  1  1  0  0  0
 29 28  1  0  0  0  0
 30 29  2  0  0  0  0
 31 29  1  0  0  0  0
 31 32  1  1  0  0  0
 34 35  1  0  0  0  0
 35 33  1  0  0  0  0
 35 31  1  0  0  0  0
 36 37  1  0  0  0  0
 38 37  1  0  0  0  0
 38 48  1  0  0  0  0
 39 42  1  0  0  0  0
 41 39  1  0  0  0  0
 41 42  2  0  0  0  0
 42 40  1  0  0  0  0
 43 49  1  0  0  0  0
 44 40  1  0  0  0  0
 44 49  2  0  0  0  0
 45 46  2  0  0  0  0
 45 47  1  0  0  0  0
 46 44  1  0  0  0  0
 47 43  2  0  0  0  0
 48 41  1  0  0  0  0
 48 46  1  0  0  0  0
M  END
>  <MODEL>
1

>  <REMARK>
 VINA RESULT:      -6.3      0.000      0.000
  Name = 
  18 active torsions:
  status: ('A' for Active; 'I' for Inactive)
    1  A    between atoms: C_1  and  C_17
    2  A    between atoms: C_1  and  C_37
    3  A    between atoms: C_6  and  C_41
    4  A    between atoms: N_7  and  C_42
    5  A    between atoms: C_9  and  C_41
    6  A    between atoms: C_10  and  C_13
    7  A    between atoms: C_10  and  O_39
    8  A    between atoms: C_13  and  C_22
    9  A    between atoms: C_17  and  C_38
   10  A    between atoms: C_22  and  C_47
   11  A    between atoms: C_26  and  C_43
   12  A    between atoms: C_26  and  C_44
   13  A    between atoms: N_31  and  C_44
   14  A    between atoms: C_33  and  C_34
   15  A    between atoms: C_33  and  C_41
   16  A    between atoms: C_33  and  C_42
   17  A    between atoms: C_38  and  O_39
   18  A    between atoms: C_38  and  C_43
                            x       y       z     vdW  Elec       q    Type
                         _______ _______ _______ _____ _____    ______ ____

>  <TORSDO>
F 18

$$$$
=
 OpenBabel11042417133D

 49 53  0  0  1  0  0  0  0  0999 V2000
  189.5610  175.4010  144.5310 C   0  0  0  0  0  0  0  0  0  0  0  0
  189.1930  176.4190  145.1780 O   0  0  0  0  0  0  0  0  0  0  0  0
  190.2020  174.2470  145.2360 C   0  0  2  0  0  3  0  0  0  0  0  0
  189.9180  174.3060  146.6040 O   0  0  0  0  0  1  0  0  0  0  0  0
  191.9910  174.3400  143.6570 F   0  0  0  0  0  0  0  0  0  0  0  0
  191.7120  174.2450  145.0110 C   0  0  1  0  0  3  0  0  0  0  0  0
  194.6690  175.9760  145.8050 N   0  0  0  0  0  0  0  0  0  0  0  0
  193.7380  174.9690  146.2670 C   0  0  0  0  0  2  0  0  0  0  0  0
  192.5610  176.4970  144.9250 O   0  0  0  0  0  0  0  0  0  0  0  0
  193.8150  177.0240  145.2680 C   0  0  0  0  0  2  0  0  0  0  0  0
  192.3820  175.3920  145.7670 C   0  0  1  0  0  3  0  0  0  0  0  0
  195.3980  175.4070  144.6790 C   0  0  0  0  0  2  0  0  0  0  0  0
  195.7580  173.9520  144.9610 C   0  0  2  0  0  3  0  0  0  0  0  0
  197.1170  173.8280  145.5860 C   0  0  0  0  0  3  0  0  0  0  0  0
  197.2350  173.5880  146.7760 O   0  0  0  0  0  0  0  0  0  0  0  0
  195.5940  173.0890  143.7010 C   0  0  1  0  0  3  0  0  0  0  0  0
  194.2730  171.5560  145.2410 C   0  0  0  0  0  2  0  0  0  0  0  0
  196.5240  170.4890  146.2970 O   0  0  0  0  0  0  0  0  0  0  0  0
  194.5610  168.9980  146.0690 O   0  0  0  0  0  0  0  0  0  0  0  0
  194.4970  172.0030  143.7960 C   0  0  2  0  0  3  0  0  0  0  0  0
  195.7550  169.8400  143.7930 C   0  0  0  0  0  2  0  0  0  0  0  0
  193.7080  170.0820  142.5960 O   0  0  0  0  0  1  0  0  0  0  0  0
  195.3150  170.1510  145.4710 S   0  0  0  0  0  0  0  0  0  0  0  0
  194.8690  170.7610  142.9640 C   0  0  1  0  0  3  0  0  0  0  0  0
  195.3730  173.9700  142.5450 C   0  0  0  0  0  0  0  0  0  0  0  0
  195.1960  174.6620  141.6350 N   0  0  0  0  0  0  0  0  0  0  0  0
  189.4400  175.3590  143.1410 O   0  0  0  0  0  0  0  0  0  0  0  0
  188.3270  174.7520  142.4990 C   0  0  2  0  0  3  0  0  0  0  0  0
  188.8010  173.7160  141.5310 C   0  0  0  0  0  0  0  0  0  0  0  0
  189.0120  174.0130  140.3630 O   0  0  0  0  0  0  0  0  0  0  0  0
  189.0150  172.3110  142.0030 C   0  0  2  0  0  3  0  0  0  0  0  0
  188.4500  172.1550  143.2570 F   0  0  0  0  0  0  0  0  0  0  0  0
  190.7990  171.2980  143.2300 O   0  0  0  0  0  1  0  0  0  0  0  0
  190.8420  171.1710  140.9610 O   0  0  0  0  0  1  0  0  0  0  0  0
  190.5010  171.9770  142.0490 C   0  0  0  0  0  3  0  0  0  0  0  0
  187.5140  175.8120  141.7750 C   0  0  0  0  0  2  0  0  0  0  0  0
  188.1490  177.1740  141.9750 C   0  0  0  0  0  2  0  0  0  0  0  0
  187.3090  178.2410  141.2960 C   0  0  0  0  0  2  0  0  0  0  0  0
  183.7070  178.0900  140.2720 C   0  0  0  0  0  2  0  0  0  0  0  0
  183.0660  178.4650  142.9200 O   0  0  0  0  0  0  0  0  0  0  0  0
  184.7820  178.1960  141.1500 C   0  0  0  0  0  0  0  0  0  0  0  0
  183.4710  178.2810  141.6300 C   0  0  0  0  0  0  0  0  0  0  0  0
  185.0660  178.8930  146.0370 C   0  0  0  0  0  3  0  0  0  0  0  0
  184.2200  178.5790  143.7840 C   0  0  0  0  0  0  0  0  0  0  0  0
  186.6640  178.6360  144.2310 C   0  0  0  0  0  3  0  0  0  0  0  0
  185.6310  178.5020  143.2960 C   0  0  0  0  0  0  0  0  0  0  0  0
  186.3840  178.8300  145.5840 C   0  0  0  0  0  3  0  0  0  0  0  0
  185.9720  178.2790  141.8730 N   0  0  0  0  0  0  0  0  0  0  0  0
  183.9970  178.7700  145.1490 C   0  0  0  0  0  3  0  0  0  0  0  0
  1  2  2  0  0  0  0
  1  3  1  0  0  0  0
  3  4  1  1  0  0  0
  6  5  1  6  0  0  0
  6  3  1  0  0  0  0
  7  8  1  0  0  0  0
  9 10  1  0  0  0  0
  9 11  1  0  0  0  0
 10  7  1  0  0  0  0
 11  6  1  6  0  0  0
 11  8  1  0  0  0  0
 12  7  1  0  0  0  0
 13 12  1  6  0  0  0
 13 14  1  0  0  0  0
 14 15  2  0  0  0  0
 16 25  1  6  0  0  0
 16 13  1  0  0  0  0
 17 23  1  0  0  0  0
 20 16  1  1  0  0  0
 20 17  1  0  0  0  0
 21 23  1  0  0  0  0
 23 19  2  0  0  0  0
 23 18  2  0  0  0  0
 24 22  1  1  0  0  0
 24 21  1  0  0  0  0
 24 20  1  0  0  0  0
 26 25  3  0  0  0  0
 27  1  1  0  0  0  0
 28 36  1  6  0  0  0
 28 27  1  0  0  0  0
 29 31  1  0  0  0  0
 29 28  1  0  0  0  0
 30 29  2  0  0  0  0
 31 35  1  0  0  0  0
 31 32  1  1  0  0  0
 34 35  1  0  0  0  0
 35 33  1  0  0  0  0
 36 37  1  0  0  0  0
 38 48  1  0  0  0  0
 38 37  1  0  0  0  0
 39 41  1  0  0  0  0
 39 42  1  0  0  0  0
 40 44  1  0  0  0  0
 41 42  2  0  0  0  0
 41 48  1  0  0  0  0
 42 40  1  0  0  0  0
 44 49  1  0  0  0  0
 45 47  2  0  0  0  0
 46 44  2  0  0  0  0
 46 45  1  0  0  0  0
 47 43  1  0  0  0  0
 48 46  1  0  0  0  0
 49 43  2  0  0  0  0
M  END
>  <MODEL>
2

>  <REMARK>
 VINA RESULT:      -6.2      2.874      8.868
  Name = 
  18 active torsions:
  status: ('A' for Active; 'I' for Inactive)
    1  A    between atoms: C_1  and  C_17
    2  A    between atoms: C_1  and  C_37
    3  A    between atoms: C_6  and  C_41
    4  A    between atoms: N_7  and  C_42
    5  A    between atoms: C_9  and  C_41
    6  A    between atoms: C_10  and  C_13
    7  A    between atoms: C_10  and  O_39
    8  A    between atoms: C_13  and  C_22
    9  A    between atoms: C_17  and  C_38
   10  A    between atoms: C_22  and  C_47
   11  A    between atoms: C_26  and  C_43
   12  A    between atoms: C_26  and  C_44
   13  A    between atoms: N_31  and  C_44
   14  A    between atoms: C_33  and  C_34
   15  A    between atoms: C_33  and  C_41
   16  A    between atoms: C_33  and  C_42
   17  A    between atoms: C_38  and  O_39
   18  A    between atoms: C_38  and  C_43
                            x       y       z     vdW  Elec       q    Type
                         _______ _______ _______ _____ _____    ______ ____

>  <TORSDO>
F 18

$$$$
=
 OpenBabel11042417133D

 49 53  0  0  1  0  0  0  0  0999 V2000
  189.1880  172.7550  142.4100 C   0  0  0  0  0  0  0  0  0  0  0  0
  188.0060  172.5230  142.0370 O   0  0  0  0  0  0  0  0  0  0  0  0
  190.3370  172.5000  141.4860 C   0  0  2  0  0  3  0  0  0  0  0  0
  191.4540  172.0850  142.2170 O   0  0  0  0  0  1  0  0  0  0  0  0
  191.6220  174.5070  141.3420 F   0  0  0  0  0  0  0  0  0  0  0  0
  190.6710  173.7510  140.6770 C   0  0  1  0  0  3  0  0  0  0  0  0
  193.2720  172.4870  138.6750 N   0  0  0  0  0  0  0  0  0  0  0  0
  192.6410  173.6990  139.1540 C   0  0  0  0  0  2  0  0  0  0  0  0
  191.0060  172.0140  139.0430 O   0  0  0  0  0  0  0  0  0  0  0  0
  192.1540  171.6180  138.3400 C   0  0  0  0  0  2  0  0  0  0  0  0
  191.1740  173.3850  139.2810 C   0  0  1  0  0  3  0  0  0  0  0  0
  193.9550  171.8790  139.8090 C   0  0  0  0  0  2  0  0  0  0  0  0
  195.0770  172.7850  140.3010 C   0  0  2  0  0  3  0  0  0  0  0  0
  196.2760  172.7230  139.3980 C   0  0  0  0  0  3  0  0  0  0  0  0
  196.9840  173.7020  139.2380 O   0  0  0  0  0  0  0  0  0  0  0  0
  195.4160  172.4960  141.7710 C   0  0  1  0  0  3  0  0  0  0  0  0
  194.9580  174.9430  142.2870 C   0  0  0  0  0  2  0  0  0  0  0  0
  197.5540  175.6210  141.9330 O   0  0  0  0  0  0  0  0  0  0  0  0
  196.2780  176.8710  143.6480 O   0  0  0  0  0  0  0  0  0  0  0  0
  194.8240  173.5030  142.7840 C   0  0  2  0  0  3  0  0  0  0  0  0
  196.7890  174.2600  144.1350 C   0  0  0  0  0  2  0  0  0  0  0  0
  194.6740  173.8500  145.1530 O   0  0  0  0  0  1  0  0  0  0  0  0
  196.4690  175.5440  142.9710 S   0  0  0  0  0  0  0  0  0  0  0  0
  195.5320  173.4010  144.1490 C   0  0  1  0  0  3  0  0  0  0  0  0
  195.0120  171.1180  142.0910 C   0  0  0  0  0  0  0  0  0  0  0  0
  194.6930  170.0360  142.3460 N   0  0  0  0  0  0  0  0  0  0  0  0
  189.4520  173.1870  143.7110 O   0  0  0  0  0  0  0  0  0  0  0  0
  189.6660  174.5570  144.0220 C   0  0  2  0  0  3  0  0  0  0  0  0
  189.9240  174.7130  145.4870 C   0  0  0  0  0  0  0  0  0  0  0  0
  189.4550  173.9120  146.2830 O   0  0  0  0  0  0  0  0  0  0  0  0
  190.7610  175.8570  145.9690 C   0  0  2  0  0  3  0  0  0  0  0  0
  191.4230  176.4270  144.8960 F   0  0  0  0  0  0  0  0  0  0  0  0
  192.9460  176.1170  146.9030 O   0  0  0  0  0  1  0  0  0  0  0  0
  191.2330  175.5760  148.2970 O   0  0  0  0  0  1  0  0  0  0  0  0
  191.7610  175.3900  147.0180 C   0  0  0  0  0  3  0  0  0  0  0  0
  188.4490  175.3710  143.6150 C   0  0  0  0  0  2  0  0  0  0  0  0
  188.8700  176.5080  142.7050 C   0  0  0  0  0  2  0  0  0  0  0  0
  188.5110  177.8390  143.3410 C   0  0  0  0  0  2  0  0  0  0  0  0
  185.5100  178.1810  141.1210 C   0  0  0  0  0  2  0  0  0  0  0  0
  184.0030  178.4420  143.4060 O   0  0  0  0  0  0  0  0  0  0  0  0
  186.2070  178.0990  142.3230 C   0  0  0  0  0  0  0  0  0  0  0  0
  184.8240  178.3030  142.3250 C   0  0  0  0  0  0  0  0  0  0  0  0
  184.7910  178.4160  147.0500 C   0  0  0  0  0  3  0  0  0  0  0  0
  184.7790  178.3600  144.6240 C   0  0  0  0  0  0  0  0  0  0  0  0
  186.8990  178.1010  145.8930 C   0  0  0  0  0  3  0  0  0  0  0  0
  186.2590  178.1540  144.6500 C   0  0  0  0  0  0  0  0  0  0  0  0
  186.1730  178.2320  147.0780 C   0  0  0  0  0  3  0  0  0  0  0  0
  187.0640  177.9920  143.4190 N   0  0  0  0  0  0  0  0  0  0  0  0
  184.1010  178.4810  145.8390 C   0  0  0  0  0  3  0  0  0  0  0  0
  1 27  1  0  0  0  0
  2  1  2  0  0  0  0
  3  4  1  1  0  0  0
  3  1  1  0  0  0  0
  6  5  1  1  0  0  0
  6  3  1  0  0  0  0
  7  8  1  0  0  0  0
  7 12  1  0  0  0  0
  8 11  1  0  0  0  0
  9 11  1  0  0  0  0
 10  7  1  0  0  0  0
 10  9  1  0  0  0  0
 11  6  1  1  0  0  0
 12 13  1  0  0  0  0
 13 14  1  6  0  0  0
 13 16  1  0  0  0  0
 15 14  2  0  0  0  0
 16 25  1  1  0  0  0
 17 20  1  0  0  0  0
 17 23  1  0  0  0  0
 18 23  2  0  0  0  0
 20 16  1  6  0  0  0
 20 24  1  0  0  0  0
 21 24  1  0  0  0  0
 23 19  2  0  0  0  0
 23 21  1  0  0  0  0
 24 22  1  1  0  0  0
 25 26  3  0  0  0  0
 27 28  1  0  0  0  0
 28 36  1  1  0  0  0
 28 29  1  0  0  0  0
 29 31  1  0  0  0  0
 29 30  2  0  0  0  0
 31 32  1  6  0  0  0
 31 35  1  0  0  0  0
 33 35  1  0  0  0  0
 35 34  1  0  0  0  0
 37 38  1  0  0  0  0
 37 36  1  0  0  0  0
 38 48  1  0  0  0  0
 39 41  1  0  0  0  0
 39 42  1  0  0  0  0
 40 44  1  0  0  0  0
 41 42  2  0  0  0  0
 41 48  1  0  0  0  0
 42 40  1  0  0  0  0
 43 47  1  0  0  0  0
 44 46  2  0  0  0  0
 44 49  1  0  0  0  0
 45 47  2  0  0  0  0
 46 45  1  0  0  0  0
 48 46  1  0  0  0  0
 49 43  2  0  0  0  0
M  END
>  <MODEL>
3

>  <REMARK>
 VINA RESULT:      -6.2      2.908      8.122
  Name = 
  18 active torsions:
  status: ('A' for Active; 'I' for Inactive)
    1  A    between atoms: C_1  and  C_17
    2  A    between atoms: C_1  and  C_37
    3  A    between atoms: C_6  and  C_41
    4  A    between atoms: N_7  and  C_42
    5  A    between atoms: C_9  and  C_41
    6  A    between atoms: C_10  and  C_13
    7  A    between atoms: C_10  and  O_39
    8  A    between atoms: C_13  and  C_22
    9  A    between atoms: C_17  and  C_38
   10  A    between atoms: C_22  and  C_47
   11  A    between atoms: C_26  and  C_43
   12  A    between atoms: C_26  and  C_44
   13  A    between atoms: N_31  and  C_44
   14  A    between atoms: C_33  and  C_34
   15  A    between atoms: C_33  and  C_41
   16  A    between atoms: C_33  and  C_42
   17  A    between atoms: C_38  and  O_39
   18  A    between atoms: C_38  and  C_43
                            x       y       z     vdW  Elec       q    Type
                         _______ _______ _______ _____ _____    ______ ____

>  <TORSDO>
F 18

$$$$
=
 OpenBabel11042417133D

 49 53  0  0  1  0  0  0  0  0999 V2000
  190.2050  174.0270  142.8560 C   0  0  0  0  0  0  0  0  0  0  0  0
  190.4960  175.0620  142.1950 O   0  0  0  0  0  0  0  0  0  0  0  0
  189.4090  172.9280  142.2270 C   0  0  2  0  0  3  0  0  0  0  0  0
  189.0970  171.9570  143.1830 O   0  0  0  0  0  1  0  0  0  0  0  0
  190.4210  170.9590  141.3310 F   0  0  0  0  0  0  0  0  0  0  0  0
  190.1770  172.2970  141.0670 C   0  0  1  0  0  3  0  0  0  0  0  0
  190.2440  173.0230  137.6260 N   0  0  0  0  0  0  0  0  0  0  0  0
  189.9700  173.5720  138.9370 C   0  0  0  0  0  2  0  0  0  0  0  0
  189.5080  171.2690  138.9940 O   0  0  0  0  0  0  0  0  0  0  0  0
  189.6390  171.7010  137.6660 C   0  0  0  0  0  2  0  0  0  0  0  0
  189.4060  172.4410  139.7550 C   0  0  1  0  0  3  0  0  0  0  0  0
  191.6850  172.8260  137.5330 C   0  0  0  0  0  2  0  0  0  0  0  0
  192.4210  173.9390  138.2690 C   0  0  2  0  0  3  0  0  0  0  0  0
  192.9810  174.9580  137.3180 C   0  0  0  0  0  3  0  0  0  0  0  0
  192.3570  175.2890  136.3240 O   0  0  0  0  0  0  0  0  0  0  0  0
  193.4780  173.3650  139.2250 C   0  0  1  0  0  3  0  0  0  0  0  0
  194.1350  175.4300  140.5540 C   0  0  0  0  0  2  0  0  0  0  0  0
  196.6820  175.3450  139.6450 O   0  0  0  0  0  0  0  0  0  0  0  0
  196.3290  176.1630  141.9550 O   0  0  0  0  0  0  0  0  0  0  0  0
  193.5230  174.0310  140.6190 C   0  0  2  0  0  3  0  0  0  0  0  0
  195.8260  173.5500  141.4690 C   0  0  0  0  0  2  0  0  0  0  0  0
  193.9320  173.4600  142.9130 O   0  0  0  0  0  1  0  0  0  0  0  0
  195.8530  175.2140  140.8920 S   0  0  0  0  0  0  0  0  0  0  0  0
  194.3520  173.1920  141.6110 C   0  0  1  0  0  3  0  0  0  0  0  0
  193.2810  171.9110  139.3340 C   0  0  0  0  0  0  0  0  0  0  0  0
  193.1270  170.7690  139.4240 N   0  0  0  0  0  0  0  0  0  0  0  0
  190.5610  173.9190  144.2010 O   0  0  0  0  0  0  0  0  0  0  0  0
  190.7300  175.0600  145.0310 C   0  0  2  0  0  3  0  0  0  0  0  0
  192.1640  175.1880  145.4350 C   0  0  0  0  0  0  0  0  0  0  0  0
  192.7090  174.2900  146.0620 O   0  0  0  0  0  0  0  0  0  0  0  0
  192.9260  176.4230  145.0660 C   0  0  2  0  0  3  0  0  0  0  0  0
  193.0820  176.4740  143.6920 F   0  0  0  0  0  0  0  0  0  0  0  0
  195.2370  177.0120  144.9050 O   0  0  0  0  0  1  0  0  0  0  0  0
  194.2150  177.1930  146.9280 O   0  0  0  0  0  1  0  0  0  0  0  0
  194.2860  176.4440  145.7520 C   0  0  0  0  0  3  0  0  0  0  0  0
  189.8480  174.9340  146.2610 C   0  0  0  0  0  2  0  0  0  0  0  0
  188.6070  175.7890  146.0960 C   0  0  0  0  0  2  0  0  0  0  0  0
  188.9880  177.1550  145.5540 C   0  0  0  0  0  2  0  0  0  0  0  0
  188.5350  178.0140  141.9340 C   0  0  0  0  0  2  0  0  0  0  0  0
  185.9670  178.7710  142.5620 O   0  0  0  0  0  0  0  0  0  0  0  0
  188.1630  177.8600  143.2670 C   0  0  0  0  0  0  0  0  0  0  0  0
  187.2520  178.3730  142.3380 C   0  0  0  0  0  0  0  0  0  0  0  0
  183.9750  178.8220  145.7140 C   0  0  0  0  0  3  0  0  0  0  0  0
  185.6390  178.6000  143.9610 C   0  0  0  0  0  0  0  0  0  0  0  0
  186.1630  177.9550  146.3030 C   0  0  0  0  0  3  0  0  0  0  0  0
  186.5960  178.0650  144.9760 C   0  0  0  0  0  0  0  0  0  0  0  0
  184.8690  178.3300  146.6660 C   0  0  0  0  0  3  0  0  0  0  0  0
  187.9700  177.6380  144.6310 N   0  0  0  0  0  0  0  0  0  0  0  0
  184.3550  178.9560  144.3780 C   0  0  0  0  0  3  0  0  0  0  0  0
  1 27  1  0  0  0  0
  2  1  2  0  0  0  0
  3  1  1  0  0  0  0
  3  4  1  1  0  0  0
  6  5  1  1  0  0  0
  6  3  1  0  0  0  0
  7 10  1  0  0  0  0
  7  8  1  0  0  0  0
  8 11  1  0  0  0  0
  9 11  1  0  0  0  0
 10  9  1  0  0  0  0
 11  6  1  1  0  0  0
 12  7  1  0  0  0  0
 12 13  1  0  0  0  0
 13 14  1  6  0  0  0
 13 16  1  0  0  0  0
 15 14  2  0  0  0  0
 16 25  1  1  0  0  0
 17 20  1  0  0  0  0
 17 23  1  0  0  0  0
 18 23  2  0  0  0  0
 20 16  1  6  0  0  0
 20 24  1  0  0  0  0
 21 24  1  0  0  0  0
 23 21  1  0  0  0  0
 23 19  2  0  0  0  0
 24 22  1  1  0  0  0
 25 26  3  0  0  0  0
 27 28  1  0  0  0  0
 28 29  1  0  0  0  0
 28 36  1  1  0  0  0
 29 30  2  0  0  0  0
 31 32  1  6  0  0  0
 31 29  1  0  0  0  0
 31 35  1  0  0  0  0
 33 35  1  0  0  0  0
 35 34  1  0  0  0  0
 37 36  1  0  0  0  0
 38 37  1  0  0  0  0
 39 42  1  0  0  0  0
 39 41  1  0  0  0  0
 40 44  1  0  0  0  0
 41 48  1  0  0  0  0
 42 40  1  0  0  0  0
 42 41  2  0  0  0  0
 43 47  1  0  0  0  0
 44 49  1  0  0  0  0
 44 46  2  0  0  0  0
 45 47  2  0  0  0  0
 46 45  1  0  0  0  0
 48 46  1  0  0  0  0
 48 38  1  0  0  0  0
 49 43  2  0  0  0  0
M  END
>  <MODEL>
4

>  <REMARK>
 VINA RESULT:      -6.2      3.013      7.315
  Name = 
  18 active torsions:
  status: ('A' for Active; 'I' for Inactive)
    1  A    between atoms: C_1  and  C_17
    2  A    between atoms: C_1  and  C_37
    3  A    between atoms: C_6  and  C_41
    4  A    between atoms: N_7  and  C_42
    5  A    between atoms: C_9  and  C_41
    6  A    between atoms: C_10  and  C_13
    7  A    between atoms: C_10  and  O_39
    8  A    between atoms: C_13  and  C_22
    9  A    between atoms: C_17  and  C_38
   10  A    between atoms: C_22  and  C_47
   11  A    between atoms: C_26  and  C_43
   12  A    between atoms: C_26  and  C_44
   13  A    between atoms: N_31  and  C_44
   14  A    between atoms: C_33  and  C_34
   15  A    between atoms: C_33  and  C_41
   16  A    between atoms: C_33  and  C_42
   17  A    between atoms: C_38  and  O_39
   18  A    between atoms: C_38  and  C_43
                            x       y       z     vdW  Elec       q    Type
                         _______ _______ _______ _____ _____    ______ ____

>  <TORSDO>
F 18

$$$$
=
 OpenBabel11042417133D

 49 53  0  0  1  0  0  0  0  0999 V2000
  190.0400  171.5630  143.1400 C   0  0  0  0  0  0  0  0  0  0  0  0
  189.8850  171.9510  144.3300 O   0  0  0  0  0  0  0  0  0  0  0  0
  191.3480  170.9880  142.6950 C   0  0  2  0  0  3  0  0  0  0  0  0
  191.1540  169.7080  142.1690 O   0  0  0  0  0  1  0  0  0  0  0  0
  192.3290  169.6780  144.4340 F   0  0  0  0  0  0  0  0  0  0  0  0
  192.3400  170.9370  143.8550 C   0  0  1  0  0  3  0  0  0  0  0  0
  194.9070  173.3310  143.6310 N   0  0  0  0  0  0  0  0  0  0  0  0
  193.8090  172.7150  142.9150 C   0  0  0  0  0  2  0  0  0  0  0  0
  194.6680  171.1440  144.4370 O   0  0  0  0  0  0  0  0  0  0  0  0
  195.5630  172.2150  144.2950 C   0  0  0  0  0  2  0  0  0  0  0  0
  193.7520  171.2860  143.3860 C   0  0  1  0  0  3  0  0  0  0  0  0
  194.3280  174.1650  144.6760 C   0  0  0  0  0  2  0  0  0  0  0  0
  193.4020  175.2120  144.0680 C   0  0  2  0  0  3  0  0  0  0  0  0
  194.1070  176.0440  143.0360 C   0  0  0  0  0  3  0  0  0  0  0  0
  193.6620  176.1390  141.9040 O   0  0  0  0  0  0  0  0  0  0  0  0
  192.7270  176.0540  145.1620 C   0  0  1  0  0  3  0  0  0  0  0  0
  190.4330  175.0290  145.5490 C   0  0  0  0  0  2  0  0  0  0  0  0
  189.1770  177.3770  145.0680 O   0  0  0  0  0  0  0  0  0  0  0  0
  188.1610  175.8710  146.7490 O   0  0  0  0  0  0  0  0  0  0  0  0
  191.8270  175.2560  146.1330 C   0  0  2  0  0  3  0  0  0  0  0  0
  190.5360  177.0060  147.3700 C   0  0  0  0  0  2  0  0  0  0  0  0
  191.3750  175.0720  148.4820 O   0  0  0  0  0  1  0  0  0  0  0  0
  189.4440  176.3630  146.1450 S   0  0  0  0  0  0  0  0  0  0  0  0
  191.6680  175.9930  147.4770 C   0  0  1  0  0  3  0  0  0  0  0  0
  193.7610  176.8070  145.8880 C   0  0  0  0  0  0  0  0  0  0  0  0
  194.5710  177.4000  146.4620 N   0  0  0  0  0  0  0  0  0  0  0  0
  189.0200  171.7240  142.2010 O   0  0  0  0  0  0  0  0  0  0  0  0
  188.8730  172.9180  141.4450 C   0  0  2  0  0  3  0  0  0  0  0  0
  189.4230  172.7190  140.0680 C   0  0  0  0  0  0  0  0  0  0  0  0
  190.6030  172.4370  139.9100 O   0  0  0  0  0  0  0  0  0  0  0  0
  188.5170  172.8670  138.8850 C   0  0  2  0  0  3  0  0  0  0  0  0
  188.8000  171.8750  137.9620 F   0  0  0  0  0  0  0  0  0  0  0  0
  189.6410  174.1870  137.2390 O   0  0  0  0  0  1  0  0  0  0  0  0
  187.4650  174.6590  137.7010 O   0  0  0  0  0  1  0  0  0  0  0  0
  188.6790  174.2410  138.2480 C   0  0  0  0  0  3  0  0  0  0  0  0
  189.6010  174.0570  142.1390 C   0  0  0  0  0  2  0  0  0  0  0  0
  188.8220  175.3460  141.9680 C   0  0  0  0  0  2  0  0  0  0  0  0
  187.4840  175.2410  142.6780 C   0  0  0  0  0  2  0  0  0  0  0  0
  186.5550  177.5200  139.8520 C   0  0  0  0  0  2  0  0  0  0  0  0
  185.0830  178.9690  141.6670 O   0  0  0  0  0  0  0  0  0  0  0  0
  186.5530  177.0380  141.1580 C   0  0  0  0  0  0  0  0  0  0  0  0
  185.8350  178.1940  140.8340 C   0  0  0  0  0  0  0  0  0  0  0  0
  184.4080  178.6320  145.3190 C   0  0  0  0  0  3  0  0  0  0  0  0
  185.1250  178.4300  143.0080 C   0  0  0  0  0  0  0  0  0  0  0  0
  185.8620  176.7860  144.7200 C   0  0  0  0  0  3  0  0  0  0  0  0
  185.8920  177.2030  143.3840 C   0  0  0  0  0  0  0  0  0  0  0  0
  185.1300  177.4920  145.6740 C   0  0  0  0  0  3  0  0  0  0  0  0
  186.6670  176.4140  142.4000 N   0  0  0  0  0  0  0  0  0  0  0  0
  184.4060  179.0960  144.0030 C   0  0  0  0  0  3  0  0  0  0  0  0
  1  2  2  0  0  0  0
  3  4  1  1  0  0  0
  3  1  1  0  0  0  0
  3  6  1  0  0  0  0
  6  5  1  6  0  0  0
  7 10  1  0  0  0  0
  7 12  1  0  0  0  0
  8 11  1  0  0  0  0
  8  7  1  0  0  0  0
 10  9  1  0  0  0  0
 11  6  1  1  0  0  0
 11  9  1  0  0  0  0
 13 14  1  6  0  0  0
 13 12  1  0  0  0  0
 13 16  1  0  0  0  0
 15 14  2  0  0  0  0
 16 25  1  1  0  0  0
 17 20  1  0  0  0  0
 17 23  1  0  0  0  0
 18 23  2  0  0  0  0
 20 16  1  6  0  0  0
 20 24  1  0  0  0  0
 21 24  1  0  0  0  0
 23 19  2  0  0  0  0
 23 21  1  0  0  0  0
 24 22  1  1  0  0  0
 25 26  3  0  0  0  0
 27  1  1  0  0  0  0
 28 36  1  1  0  0  0
 28 27  1  0  0  0  0
 29 28  1  0  0  0  0
 30 29  2  0  0  0  0
 31 32  1  6  0  0  0
 31 29  1  0  0  0  0
 33 35  1  0  0  0  0
 34 35  1  0  0  0  0
 35 31  1  0  0  0  0
 37 36  1  0  0  0  0
 37 38  1  0  0  0  0
 39 42  1  0  0  0  0
 39 41  1  0  0  0  0
 40 44  1  0  0  0  0
 41 48  1  0  0  0  0
 42 41  2  0  0  0  0
 42 40  1  0  0  0  0
 43 47  1  0  0  0  0
 44 46  2  0  0  0  0
 44 49  1  0  0  0  0
 45 47  2  0  0  0  0
 46 45  1  0  0  0  0
 48 38  1  0  0  0  0
 48 46  1  0  0  0  0
 49 43  2  0  0  0  0
M  END
>  <MODEL>
5

>  <REMARK>
 VINA RESULT:      -6.1      2.349      6.814
  Name = 
  18 active torsions:
  status: ('A' for Active; 'I' for Inactive)
    1  A    between atoms: C_1  and  C_17
    2  A    between atoms: C_1  and  C_37
    3  A    between atoms: C_6  and  C_41
    4  A    between atoms: N_7  and  C_42
    5  A    between atoms: C_9  and  C_41
    6  A    between atoms: C_10  and  C_13
    7  A    between atoms: C_10  and  O_39
    8  A    between atoms: C_13  and  C_22
    9  A    between atoms: C_17  and  C_38
   10  A    between atoms: C_22  and  C_47
   11  A    between atoms: C_26  and  C_43
   12  A    between atoms: C_26  and  C_44
   13  A    between atoms: N_31  and  C_44
   14  A    between atoms: C_33  and  C_34
   15  A    between atoms: C_33  and  C_41
   16  A    between atoms: C_33  and  C_42
   17  A    between atoms: C_38  and  O_39
   18  A    between atoms: C_38  and  C_43
                            x       y       z     vdW  Elec       q    Type
                         _______ _______ _______ _____ _____    ______ ____

>  <TORSDO>
F 18

$$$$
=
 OpenBabel11042417133D

 49 53  0  0  1  0  0  0  0  0999 V2000
  189.3280  171.9800  142.2530 C   0  0  0  0  0  0  0  0  0  0  0  0
  189.1990  172.3530  143.4510 O   0  0  0  0  0  0  0  0  0  0  0  0
  190.5750  171.2830  141.8070 C   0  0  2  0  0  3  0  0  0  0  0  0
  190.4510  169.9060  142.0100 O   0  0  0  0  0  1  0  0  0  0  0  0
  192.1250  170.9650  143.5950 F   0  0  0  0  0  0  0  0  0  0  0  0
  191.7930  171.8190  142.5560 C   0  0  1  0  0  3  0  0  0  0  0  0
  194.9020  173.3350  141.9150 N   0  0  0  0  0  0  0  0  0  0  0  0
  193.4810  173.4100  141.6480 C   0  0  0  0  0  2  0  0  0  0  0  0
  194.0420  171.1570  142.0050 O   0  0  0  0  0  0  0  0  0  0  0  0
  195.2040  171.9170  141.8040 C   0  0  0  0  0  2  0  0  0  0  0  0
  192.9850  171.9890  141.6150 C   0  0  1  0  0  3  0  0  0  0  0  0
  195.0990  173.7020  143.3110 C   0  0  0  0  0  2  0  0  0  0  0  0
  194.1210  174.7990  143.7150 C   0  0  2  0  0  3  0  0  0  0  0  0
  194.7900  176.1420  143.7810 C   0  0  0  0  0  3  0  0  0  0  0  0
  195.6020  176.3900  144.6570 O   0  0  0  0  0  0  0  0  0  0  0  0
  193.3820  174.4320  145.0110 C   0  0  1  0  0  3  0  0  0  0  0  0
  191.3700  175.4630  143.8500 C   0  0  0  0  0  2  0  0  0  0  0  0
  192.1790  177.9780  144.4330 O   0  0  0  0  0  0  0  0  0  0  0  0
  189.7410  177.5540  144.3850 O   0  0  0  0  0  0  0  0  0  0  0  0
  191.8400  174.4700  144.9120 C   0  0  2  0  0  3  0  0  0  0  0  0
  191.1670  176.3910  146.3660 C   0  0  0  0  0  2  0  0  0  0  0  0
  189.9070  174.3680  146.3300 O   0  0  0  0  0  1  0  0  0  0  0  0
  191.0900  176.9800  144.7070 S   0  0  0  0  0  0  0  0  0  0  0  0
  191.2060  174.8730  146.2580 C   0  0  1  0  0  3  0  0  0  0  0  0
  193.8550  173.1170  145.4730 C   0  0  0  0  0  0  0  0  0  0  0  0
  194.2290  172.0840  145.8320 N   0  0  0  0  0  0  0  0  0  0  0  0
  188.3430  172.2710  141.3080 O   0  0  0  0  0  0  0  0  0  0  0  0
  188.3130  173.5060  140.6050 C   0  0  2  0  0  3  0  0  0  0  0  0
  188.7230  173.2920  139.1830 C   0  0  0  0  0  0  0  0  0  0  0  0
  187.8820  173.2640  138.2960 O   0  0  0  0  0  0  0  0  0  0  0  0
  190.1730  173.1140  138.8540 C   0  0  2  0  0  3  0  0  0  0  0  0
  190.5990  174.1670  138.0630 F   0  0  0  0  0  0  0  0  0  0  0  0
  191.7170  171.3600  138.3490 O   0  0  0  0  0  1  0  0  0  0  0  0
  189.5250  170.8230  138.6260 O   0  0  0  0  0  1  0  0  0  0  0  0
  190.4070  171.7890  138.1390 C   0  0  0  0  0  3  0  0  0  0  0  0
  189.2460  174.4990  141.2760 C   0  0  0  0  0  2  0  0  0  0  0  0
  188.4920  175.7730  141.6040 C   0  0  0  0  0  2  0  0  0  0  0  0
  187.5060  175.5150  142.7290 C   0  0  0  0  0  2  0  0  0  0  0  0
  185.7010  177.8640  140.4330 C   0  0  0  0  0  2  0  0  0  0  0  0
  184.4180  178.8550  142.6540 O   0  0  0  0  0  0  0  0  0  0  0  0
  186.0310  177.2640  141.6450 C   0  0  0  0  0  0  0  0  0  0  0  0
  185.0980  178.3050  141.6070 C   0  0  0  0  0  0  0  0  0  0  0  0
  184.5420  178.0530  146.2940 C   0  0  0  0  0  3  0  0  0  0  0  0
  184.8070  178.2030  143.8860 C   0  0  0  0  0  0  0  0  0  0  0  0
  186.1090  176.5520  145.2100 C   0  0  0  0  0  3  0  0  0  0  0  0
  185.8090  177.0960  143.9560 C   0  0  0  0  0  0  0  0  0  0  0  0
  185.4830  177.0260  146.3640 C   0  0  0  0  0  3  0  0  0  0  0  0
  186.4820  176.5510  142.7560 N   0  0  0  0  0  0  0  0  0  0  0  0
  184.2080  178.6360  145.0700 C   0  0  0  0  0  3  0  0  0  0  0  0
  1  2  2  0  0  0  0
  3  4  1  1  0  0  0
  3  1  1  0  0  0  0
  3  6  1  0  0  0  0
  6  5  1  1  0  0  0
  7 12  1  0  0  0  0
  8  7  1  0  0  0  0
 10  7  1  0  0  0  0
 10  9  1  0  0  0  0
 11  8  1  0  0  0  0
 11  9  1  0  0  0  0
 11  6  1  1  0  0  0
 13 12  1  1  0  0  0
 13 14  1  0  0  0  0
 13 16  1  0  0  0  0
 14 15  2  0  0  0  0
 16 25  1  6  0  0  0
 17 23  1  0  0  0  0
 17 20  1  0  0  0  0
 18 23  2  0  0  0  0
 19 23  2  0  0  0  0
 20 16  1  1  0  0  0
 20 24  1  0  0  0  0
 23 21  1  0  0  0  0
 24 22  1  6  0  0  0
 24 21  1  0  0  0  0
 25 26  3  0  0  0  0
 27  1  1  0  0  0  0
 28 36  1  1  0  0  0
 28 27  1  0  0  0  0
 29 28  1  0  0  0  0
 30 29  2  0  0  0  0
 31 32  1  6  0  0  0
 31 29  1  0  0  0  0
 35 33  1  0  0  0  0
 35 34  1  0  0  0  0
 35 31  1  0  0  0  0
 36 37  1  0  0  0  0
 37 38  1  0  0  0  0
 38 48  1  0  0  0  0
 39 42  1  0  0  0  0
 39 41  1  0  0  0  0
 40 44  1  0  0  0  0
 41 48  1  0  0  0  0
 42 41  2  0  0  0  0
 42 40  1  0  0  0  0
 43 47  1  0  0  0  0
 44 46  2  0  0  0  0
 44 49  1  0  0  0  0
 45 47  2  0  0  0  0
 46 45  1  0  0  0  0
 48 46  1  0  0  0  0
 49 43  2  0  0  0  0
M  END
>  <MODEL>
6

>  <REMARK>
 VINA RESULT:      -6.1      2.360      6.934
  Name = 
  18 active torsions:
  status: ('A' for Active; 'I' for Inactive)
    1  A    between atoms: C_1  and  C_17
    2  A    between atoms: C_1  and  C_37
    3  A    between atoms: C_6  and  C_41
    4  A    between atoms: N_7  and  C_42
    5  A    between atoms: C_9  and  C_41
    6  A    between atoms: C_10  and  C_13
    7  A    between atoms: C_10  and  O_39
    8  A    between atoms: C_13  and  C_22
    9  A    between atoms: C_17  and  C_38
   10  A    between atoms: C_22  and  C_47
   11  A    between atoms: C_26  and  C_43
   12  A    between atoms: C_26  and  C_44
   13  A    between atoms: N_31  and  C_44
   14  A    between atoms: C_33  and  C_34
   15  A    between atoms: C_33  and  C_41
   16  A    between atoms: C_33  and  C_42
   17  A    between atoms: C_38  and  O_39
   18  A    between atoms: C_38  and  C_43
                            x       y       z     vdW  Elec       q    Type
                         _______ _______ _______ _____ _____    ______ ____

>  <TORSDO>
F 18

$$$$
=
 OpenBabel11042417133D

 49 53  0  0  1  0  0  0  0  0999 V2000
  191.4030  173.2920  144.7080 C   0  0  0  0  0  0  0  0  0  0  0  0
  190.3230  173.1790  144.0660 O   0  0  0  0  0  0  0  0  0  0  0  0
  192.5970  172.4720  144.3310 C   0  0  2  0  0  3  0  0  0  0  0  0
  192.2440  171.1210  144.2600 O   0  0  0  0  0  1  0  0  0  0  0  0
  194.1590  171.4410  145.8150 F   0  0  0  0  0  0  0  0  0  0  0  0
  193.7290  172.6680  145.3370 C   0  0  1  0  0  3  0  0  0  0  0  0
  195.1660  174.0830  142.4540 N   0  0  0  0  0  0  0  0  0  0  0  0
  195.1600  172.9170  143.3130 C   0  0  0  0  0  2  0  0  0  0  0  0
  194.6080  174.7920  144.6170 O   0  0  0  0  0  0  0  0  0  0  0  0
  195.1350  175.2020  143.3830 C   0  0  0  0  0  2  0  0  0  0  0  0
  194.8980  173.4240  144.7060 C   0  0  1  0  0  3  0  0  0  0  0  0
  193.9000  174.0950  141.7340 C   0  0  0  0  0  2  0  0  0  0  0  0
  194.1240  173.7690  140.2620 C   0  0  2  0  0  3  0  0  0  0  0  0
  194.3170  175.0120  139.4420 C   0  0  0  0  0  3  0  0  0  0  0  0
  195.4370  175.4400  139.2150 O   0  0  0  0  0  0  0  0  0  0  0  0
  193.0090  172.8600  139.7220 C   0  0  1  0  0  3  0  0  0  0  0  0
  190.7690  173.7000  140.5830 C   0  0  0  0  0  2  0  0  0  0  0  0
  190.0860  171.2560  141.5230 O   0  0  0  0  0  0  0  0  0  0  0  0
  188.2640  172.6840  140.6470 O   0  0  0  0  0  0  0  0  0  0  0  0
  191.6920  173.5880  139.3690 C   0  0  2  0  0  3  0  0  0  0  0  0
  190.0730  171.7460  138.8690 C   0  0  0  0  0  2  0  0  0  0  0  0
  190.1070  173.7470  137.5750 O   0  0  0  0  0  1  0  0  0  0  0  0
  189.7070  172.2930  140.5040 S   0  0  0  0  0  0  0  0  0  0  0  0
  190.9280  172.8470  138.2550 C   0  0  1  0  0  3  0  0  0  0  0  0
  193.5270  172.1050  138.5700 C   0  0  0  0  0  0  0  0  0  0  0  0
  193.9300  171.5120  137.6640 N   0  0  0  0  0  0  0  0  0  0  0  0
  191.4850  174.1310  145.8200 O   0  0  0  0  0  0  0  0  0  0  0  0
  190.7850  175.3660  145.8870 C   0  0  2  0  0  3  0  0  0  0  0  0
  191.7450  176.5040  145.7420 C   0  0  0  0  0  0  0  0  0  0  0  0
  192.6540  176.6500  146.5480 O   0  0  0  0  0  0  0  0  0  0  0  0
  191.5850  177.4620  144.6030 C   0  0  2  0  0  3  0  0  0  0  0  0
  190.3880  178.1440  144.7400 F   0  0  0  0  0  0  0  0  0  0  0  0
  190.3400  176.6590  142.7270 O   0  0  0  0  0  1  0  0  0  0  0  0
  192.4600  177.4010  142.3780 O   0  0  0  0  0  1  0  0  0  0  0  0
  191.6230  176.7280  143.2690 C   0  0  0  0  0  3  0  0  0  0  0  0
  190.0500  175.4670  147.2120 C   0  0  0  0  0  2  0  0  0  0  0  0
  188.5540  175.3990  146.9770 C   0  0  0  0  0  2  0  0  0  0  0  0
  188.2270  175.8850  145.5760 C   0  0  0  0  0  2  0  0  0  0  0  0
  186.1870  177.8760  148.0100 C   0  0  0  0  0  2  0  0  0  0  0  0
  184.6800  178.7180  145.8700 O   0  0  0  0  0  0  0  0  0  0  0  0
  186.5780  177.3960  146.7630 C   0  0  0  0  0  0  0  0  0  0  0  0
  185.4790  178.2530  146.8740 C   0  0  0  0  0  0  0  0  0  0  0  0
  184.7940  178.0660  142.2000 C   0  0  0  0  0  3  0  0  0  0  0  0
  185.1240  178.1810  144.6030 C   0  0  0  0  0  0  0  0  0  0  0  0
  186.6150  176.7950  143.1770 C   0  0  0  0  0  3  0  0  0  0  0  0
  186.2890  177.2550  144.4580 C   0  0  0  0  0  0  0  0  0  0  0  0
  185.8760  177.1950  142.0630 C   0  0  0  0  0  3  0  0  0  0  0  0
  187.1110  176.8210  145.6090 N   0  0  0  0  0  0  0  0  0  0  0  0
  184.4220  178.5520  143.4540 C   0  0  0  0  0  3  0  0  0  0  0  0
  1 27  1  0  0  0  0
  2  1  2  0  0  0  0
  3  4  1  1  0  0  0
  3  1  1  0  0  0  0
  3  6  1  0  0  0  0
  6  5  1  6  0  0  0
  7  8  1  0  0  0  0
  7 10  1  0  0  0  0
  8 11  1  0  0  0  0
  9 11  1  0  0  0  0
 10  9  1  0  0  0  0
 11  6  1  6  0  0  0
 12  7  1  0  0  0  0
 13 14  1  6  0  0  0
 13 12  1  0  0  0  0
 15 14  2  0  0  0  0
 16 25  1  6  0  0  0
 16 13  1  0  0  0  0
 20 16  1  1  0  0  0
 20 17  1  0  0  0  0
 21 23  1  0  0  0  0
 23 17  1  0  0  0  0
 23 19  2  0  0  0  0
 23 18  2  0  0  0  0
 24 22  1  1  0  0  0
 24 21  1  0  0  0  0
 24 20  1  0  0  0  0
 26 25  3  0  0  0  0
 27 28  1  0  0  0  0
 28 36  1  1  0  0  0
 29 28  1  0  0  0  0
 29 30  2  0  0  0  0
 31 32  1  1  0  0  0
 31 29  1  0  0  0  0
 33 35  1  0  0  0  0
 34 35  1  0  0  0  0
 35 31  1  0  0  0  0
 37 36  1  0  0  0  0
 38 48  1  0  0  0  0
 38 37  1  0  0  0  0
 40 42  1  0  0  0  0
 41 42  2  0  0  0  0
 41 39  1  0  0  0  0
 42 39  1  0  0  0  0
 43 49  1  0  0  0  0
 44 40  1  0  0  0  0
 45 46  2  0  0  0  0
 46 44  1  0  0  0  0
 46 48  1  0  0  0  0
 47 43  2  0  0  0  0
 47 45  1  0  0  0  0
 48 41  1  0  0  0  0
 49 44  2  0  0  0  0
M  END
>  <MODEL>
7

>  <REMARK>
 VINA RESULT:      -6.0      2.855      7.323
  Name = 
  18 active torsions:
  status: ('A' for Active; 'I' for Inactive)
    1  A    between atoms: C_1  and  C_17
    2  A    between atoms: C_1  and  C_37
    3  A    between atoms: C_6  and  C_41
    4  A    between atoms: N_7  and  C_42
    5  A    between atoms: C_9  and  C_41
    6  A    between atoms: C_10  and  C_13
    7  A    between atoms: C_10  and  O_39
    8  A    between atoms: C_13  and  C_22
    9  A    between atoms: C_17  and  C_38
   10  A    between atoms: C_22  and  C_47
   11  A    between atoms: C_26  and  C_43
   12  A    between atoms: C_26  and  C_44
   13  A    between atoms: N_31  and  C_44
   14  A    between atoms: C_33  and  C_34
   15  A    between atoms: C_33  and  C_41
   16  A    between atoms: C_33  and  C_42
   17  A    between atoms: C_38  and  O_39
   18  A    between atoms: C_38  and  C_43
                            x       y       z     vdW  Elec       q    Type
                         _______ _______ _______ _____ _____    ______ ____

>  <TORSDO>
F 18

$$$$
=
 OpenBabel11042417133D

 49 53  0  0  1  0  0  0  0  0999 V2000
  190.1170  172.1810  142.9450 C   0  0  0  0  0  0  0  0  0  0  0  0
  190.4060  172.6260  144.0890 O   0  0  0  0  0  0  0  0  0  0  0  0
  191.1690  171.5450  142.0920 C   0  0  2  0  0  3  0  0  0  0  0  0
  190.6880  170.3480  141.5540 O   0  0  0  0  0  1  0  0  0  0  0  0
  192.2080  170.3000  143.8460 F   0  0  0  0  0  0  0  0  0  0  0  0
  192.4390  171.2860  142.9000 C   0  0  1  0  0  3  0  0  0  0  0  0
  195.4790  172.1570  141.3610 N   0  0  0  0  0  0  0  0  0  0  0  0
  194.0490  172.0510  141.1610 C   0  0  0  0  0  2  0  0  0  0  0  0
  194.6900  170.4430  142.7490 O   0  0  0  0  0  0  0  0  0  0  0  0
  195.8220  170.9470  142.0910 C   0  0  0  0  0  2  0  0  0  0  0  0
  193.5960  170.8790  141.9890 C   0  0  1  0  0  3  0  0  0  0  0  0
  195.7070  173.2760  142.2650 C   0  0  0  0  0  2  0  0  0  0  0  0
  195.2240  174.5770  141.6330 C   0  0  2  0  0  3  0  0  0  0  0  0
  196.1040  175.0000  140.4920 C   0  0  0  0  0  3  0  0  0  0  0  0
  195.6210  175.3060  139.4150 O   0  0  0  0  0  0  0  0  0  0  0  0
  195.0450  175.6740  142.6940 C   0  0  1  0  0  3  0  0  0  0  0  0
  192.8850  174.9920  143.8480 C   0  0  0  0  0  2  0  0  0  0  0  0
  191.6470  177.2900  143.1390 O   0  0  0  0  0  0  0  0  0  0  0  0
  191.0310  176.2970  145.3210 O   0  0  0  0  0  0  0  0  0  0  0  0
  194.3910  175.2020  144.0130 C   0  0  2  0  0  3  0  0  0  0  0  0
  193.5310  177.2990  145.0710 C   0  0  0  0  0  2  0  0  0  0  0  0
  194.5440  175.5820  146.3760 O   0  0  0  0  0  1  0  0  0  0  0  0
  192.1370  176.5150  144.3290 S   0  0  0  0  0  0  0  0  0  0  0  0
  194.6100  176.2270  145.1410 C   0  0  1  0  0  3  0  0  0  0  0  0
  196.3470  176.3110  142.9430 C   0  0  0  0  0  0  0  0  0  0  0  0
  197.3720  176.8090  143.1400 N   0  0  0  0  0  0  0  0  0  0  0  0
  188.8300  172.3350  142.4260 O   0  0  0  0  0  0  0  0  0  0  0  0
  188.4410  173.4980  141.7090 C   0  0  2  0  0  3  0  0  0  0  0  0
  188.4260  173.2100  140.2410 C   0  0  0  0  0  0  0  0  0  0  0  0
  187.8000  172.2540  139.8070 O   0  0  0  0  0  0  0  0  0  0  0  0
  189.1840  174.1030  139.3080 C   0  0  2  0  0  3  0  0  0  0  0  0
  188.3000  174.7110  138.4330 F   0  0  0  0  0  0  0  0  0  0  0  0
  190.3580  173.8270  137.2440 O   0  0  0  0  0  1  0  0  0  0  0  0
  191.4660  173.3960  139.1830 O   0  0  0  0  0  1  0  0  0  0  0  0
  190.2320  173.3130  138.5350 C   0  0  0  0  0  3  0  0  0  0  0  0
  189.4060  174.6330  142.0100 C   0  0  0  0  0  2  0  0  0  0  0  0
  188.6390  175.9290  142.1850 C   0  0  0  0  0  2  0  0  0  0  0  0
  187.8740  175.9040  143.4970 C   0  0  0  0  0  2  0  0  0  0  0  0
  185.9340  177.9740  141.0470 C   0  0  0  0  0  2  0  0  0  0  0  0
  184.4510  178.8830  143.1770 O   0  0  0  0  0  0  0  0  0  0  0  0
  186.2710  177.4490  142.2920 C   0  0  0  0  0  0  0  0  0  0  0  0
  185.2340  178.3800  142.1780 C   0  0  0  0  0  0  0  0  0  0  0  0
  184.4940  178.2070  146.8440 C   0  0  0  0  0  3  0  0  0  0  0  0
  184.8510  178.3140  144.4450 C   0  0  0  0  0  0  0  0  0  0  0  0
  186.2610  176.8550  145.8800 C   0  0  0  0  0  3  0  0  0  0  0  0
  185.9630  177.3260  144.5960 C   0  0  0  0  0  0  0  0  0  0  0  0
  185.5360  177.2910  146.9890 C   0  0  0  0  0  3  0  0  0  0  0  0
  186.7450  176.8230  143.4450 N   0  0  0  0  0  0  0  0  0  0  0  0
  184.1550  178.7140  145.5880 C   0  0  0  0  0  3  0  0  0  0  0  0
  1  2  2  0  0  0  0
  3  4  1  1  0  0  0
  3  6  1  0  0  0  0
  3  1  1  0  0  0  0
  6  5  1  1  0  0  0
  7 10  1  0  0  0  0
  7 12  1  0  0  0  0
  8  7  1  0  0  0  0
  8 11  1  0  0  0  0
 10  9  1  0  0  0  0
 11  9  1  0  0  0  0
 11  6  1  1  0  0  0
 13 14  1  6  0  0  0
 13 12  1  0  0  0  0
 13 16  1  0  0  0  0
 15 14  2  0  0  0  0
 16 25  1  1  0  0  0
 17 20  1  0  0  0  0
 17 23  1  0  0  0  0
 18 23  2  0  0  0  0
 20 16  1  6  0  0  0
 20 24  1  0  0  0  0
 21 24  1  0  0  0  0
 23 21  1  0  0  0  0
 23 19  2  0  0  0  0
 24 22  1  1  0  0  0
 25 26  3  0  0  0  0
 27  1  1  0  0  0  0
 28 36  1  6  0  0  0
 28 27  1  0  0  0  0
 29 28  1  0  0  0  0
 30 29  2  0  0  0  0
 31 32  1  6  0  0  0
 31 29  1  0  0  0  0
 33 35  1  0  0  0  0
 35 34  1  0  0  0  0
 35 31  1  0  0  0  0
 36 37  1  0  0  0  0
 37 38  1  0  0  0  0
 39 42  1  0  0  0  0
 39 41  1  0  0  0  0
 40 44  1  0  0  0  0
 41 48  1  0  0  0  0
 42 41  2  0  0  0  0
 42 40  1  0  0  0  0
 43 47  1  0  0  0  0
 44 46  2  0  0  0  0
 44 49  1  0  0  0  0
 45 47  2  0  0  0  0
 46 45  1  0  0  0  0
 48 38  1  0  0  0  0
 48 46  1  0  0  0  0
 49 43  2  0  0  0  0
M  END
>  <MODEL>
8

>  <REMARK>
 VINA RESULT:      -6.0      2.540      7.336
  Name = 
  18 active torsions:
  status: ('A' for Active; 'I' for Inactive)
    1  A    between atoms: C_1  and  C_17
    2  A    between atoms: C_1  and  C_37
    3  A    between atoms: C_6  and  C_41
    4  A    between atoms: N_7  and  C_42
    5  A    between atoms: C_9  and  C_41
    6  A    between atoms: C_10  and  C_13
    7  A    between atoms: C_10  and  O_39
    8  A    between atoms: C_13  and  C_22
    9  A    between atoms: C_17  and  C_38
   10  A    between atoms: C_22  and  C_47
   11  A    between atoms: C_26  and  C_43
   12  A    between atoms: C_26  and  C_44
   13  A    between atoms: N_31  and  C_44
   14  A    between atoms: C_33  and  C_34
   15  A    between atoms: C_33  and  C_41
   16  A    between atoms: C_33  and  C_42
   17  A    between atoms: C_38  and  O_39
   18  A    between atoms: C_38  and  C_43
                            x       y       z     vdW  Elec       q    Type
                         _______ _______ _______ _____ _____    ______ ____

>  <TORSDO>
F 18

$$$$
=
 OpenBabel11042417133D

 49 53  0  0  1  0  0  0  0  0999 V2000
  189.3470  173.3520  143.3710 C   0  0  0  0  0  0  0  0  0  0  0  0
  188.4840  174.0230  142.7430 O   0  0  0  0  0  0  0  0  0  0  0  0
  190.0620  172.2210  142.6990 C   0  0  2  0  0  3  0  0  0  0  0  0
  190.7840  171.4850  143.6430 O   0  0  0  0  0  1  0  0  0  0  0  0
  192.2550  172.1820  141.7560 F   0  0  0  0  0  0  0  0  0  0  0  0
  190.9960  172.7420  141.6100 C   0  0  1  0  0  3  0  0  0  0  0  0
  191.5470  172.6040  138.1380 N   0  0  0  0  0  0  0  0  0  0  0  0
  190.9920  173.4050  139.2080 C   0  0  0  0  0  2  0  0  0  0  0  0
  190.8150  171.1430  139.8180 O   0  0  0  0  0  0  0  0  0  0  0  0
  191.1120  171.2510  138.4510 C   0  0  0  0  0  2  0  0  0  0  0  0
  190.4440  172.4330  140.2180 C   0  0  1  0  0  3  0  0  0  0  0  0
  192.9960  172.6270  138.2880 C   0  0  0  0  0  2  0  0  0  0  0  0
  193.5000  174.0640  138.3590 C   0  0  2  0  0  3  0  0  0  0  0  0
  193.4860  174.7240  137.0100 C   0  0  0  0  0  3  0  0  0  0  0  0
  192.8810  175.7680  136.8350 O   0  0  0  0  0  0  0  0  0  0  0  0
  194.8700  174.1350  139.0490 C   0  0  1  0  0  3  0  0  0  0  0  0
  194.2300  174.8080  141.4160 C   0  0  0  0  0  2  0  0  0  0  0  0
  195.5900  177.1410  141.2420 O   0  0  0  0  0  0  0  0  0  0  0  0
  195.5220  176.0290  143.4530 O   0  0  0  0  0  0  0  0  0  0  0  0
  194.8670  173.7290  140.5410 C   0  0  2  0  0  3  0  0  0  0  0  0
  196.9180  174.8050  141.4870 C   0  0  0  0  0  2  0  0  0  0  0  0
  196.2610  172.6090  142.1400 O   0  0  0  0  0  1  0  0  0  0  0  0
  195.5630  175.8240  141.9660 S   0  0  0  0  0  0  0  0  0  0  0  0
  196.2990  173.4830  141.0540 C   0  0  1  0  0  3  0  0  0  0  0  0
  195.8330  173.3340  138.2800 C   0  0  0  0  0  0  0  0  0  0  0  0
  196.5920  172.7060  137.6730 N   0  0  0  0  0  0  0  0  0  0  0  0
  189.6020  173.6050  144.7200 O   0  0  0  0  0  0  0  0  0  0  0  0
  190.0580  174.8710  145.1760 C   0  0  2  0  0  3  0  0  0  0  0  0
  191.5520  174.9240  145.1230 C   0  0  0  0  0  0  0  0  0  0  0  0
  192.2120  173.9190  145.3480 O   0  0  0  0  0  0  0  0  0  0  0  0
  192.2310  176.2160  144.7910 C   0  0  2  0  0  3  0  0  0  0  0  0
  192.3760  176.9690  145.9440 F   0  0  0  0  0  0  0  0  0  0  0  0
  190.9800  178.1920  144.2980 O   0  0  0  0  0  1  0  0  0  0  0  0
  192.2420  177.2730  142.6460 O   0  0  0  0  0  1  0  0  0  0  0  0
  191.4360  176.9930  143.7500 C   0  0  0  0  0  3  0  0  0  0  0  0
  189.5770  175.1060  146.5980 C   0  0  0  0  0  2  0  0  0  0  0  0
  188.1790  175.6920  146.5780 C   0  0  0  0  0  2  0  0  0  0  0  0
  188.2520  177.2000  146.4130 C   0  0  0  0  0  2  0  0  0  0  0  0
  184.8250  178.3380  147.4170 C   0  0  0  0  0  2  0  0  0  0  0  0
  184.2890  178.6800  144.7410 O   0  0  0  0  0  0  0  0  0  0  0  0
  185.8700  178.0460  146.5440 C   0  0  0  0  0  0  0  0  0  0  0  0
  184.6390  178.4840  146.0460 C   0  0  0  0  0  0  0  0  0  0  0  0
  186.2640  178.1900  141.6170 C   0  0  0  0  0  3  0  0  0  0  0  0
  185.4050  178.3520  143.8810 C   0  0  0  0  0  0  0  0  0  0  0  0
  187.7260  177.5760  143.4530 C   0  0  0  0  0  3  0  0  0  0  0  0
  186.7270  177.8710  144.3870 C   0  0  0  0  0  0  0  0  0  0  0  0
  187.4970  177.7340  142.0850 C   0  0  0  0  0  3  0  0  0  0  0  0
  187.0190  177.7080  145.8290 N   0  0  0  0  0  0  0  0  0  0  0  0
  185.2300  178.4950  142.5030 C   0  0  0  0  0  3  0  0  0  0  0  0
  1 27  1  0  0  0  0
  2  1  2  0  0  0  0
  3  1  1  0  0  0  0
  3  4  1  1  0  0  0
  6  5  1  1  0  0  0
  6  3  1  0  0  0  0
  7 12  1  0  0  0  0
  7 10  1  0  0  0  0
  7  8  1  0  0  0  0
  8 11  1  0  0  0  0
  9 11  1  0  0  0  0
 10  9  1  0  0  0  0
 11  6  1  1  0  0  0
 12 13  1  0  0  0  0
 13 14  1  6  0  0  0
 13 16  1  0  0  0  0
 15 14  2  0  0  0  0
 16 25  1  6  0  0  0
 17 23  1  0  0  0  0
 18 23  2  0  0  0  0
 20 16  1  6  0  0  0
 20 24  1  0  0  0  0
 20 17  1  0  0  0  0
 21 23  1  0  0  0  0
 23 19  2  0  0  0  0
 24 21  1  0  0  0  0
 24 22  1  1  0  0  0
 26 25  3  0  0  0  0
 27 28  1  0  0  0  0
 28 36  1  1  0  0  0
 29 28  1  0  0  0  0
 29 30  2  0  0  0  0
 31 29  1  0  0  0  0
 31 32  1  1  0  0  0
 34 35  1  0  0  0  0
 35 33  1  0  0  0  0
 35 31  1  0  0  0  0
 37 36  1  0  0  0  0
 38 37  1  0  0  0  0
 40 42  1  0  0  0  0
 41 39  1  0  0  0  0
 42 41  2  0  0  0  0
 42 39  1  0  0  0  0
 43 47  2  0  0  0  0
 43 49  1  0  0  0  0
 44 46  1  0  0  0  0
 44 40  1  0  0  0  0
 45 46  2  0  0  0  0
 46 48  1  0  0  0  0
 47 45  1  0  0  0  0
 48 38  1  0  0  0  0
 48 41  1  0  0  0  0
 49 44  2  0  0  0  0
M  END
>  <MODEL>
9

>  <REMARK>
 VINA RESULT:      -6.0      3.129      7.766
  Name = 
  18 active torsions:
  status: ('A' for Active; 'I' for Inactive)
    1  A    between atoms: C_1  and  C_17
    2  A    between atoms: C_1  and  C_37
    3  A    between atoms: C_6  and  C_41
    4  A    between atoms: N_7  and  C_42
    5  A    between atoms: C_9  and  C_41
    6  A    between atoms: C_10  and  C_13
    7  A    between atoms: C_10  and  O_39
    8  A    between atoms: C_13  and  C_22
    9  A    between atoms: C_17  and  C_38
   10  A    between atoms: C_22  and  C_47
   11  A    between atoms: C_26  and  C_43
   12  A    between atoms: C_26  and  C_44
   13  A    between atoms: N_31  and  C_44
   14  A    between atoms: C_33  and  C_34
   15  A    between atoms: C_33  and  C_41
   16  A    between atoms: C_33  and  C_42
   17  A    between atoms: C_38  and  O_39
   18  A    between atoms: C_38  and  C_43
                            x       y       z     vdW  Elec       q    Type
                         _______ _______ _______ _____ _____    ______ ____

>  <TORSDO>
F 18

$$$$
