=
 OpenBabel11042418513D

 26 29  0  0  1  0  0  0  0  0999 V2000
  184.4470  177.5980  146.4060 N   0  0  0  0  0  2  0  0  0  0  0  0
  184.4110  178.8650  145.6830 C   0  0  0  0  0  2  0  0  0  0  0  0
  187.2710  178.2500  145.3050 C   0  0  2  0  0  3  0  0  0  0  0  0
  188.5060  177.4560  145.5820 N   0  0  0  0  0  0  0  0  0  0  0  0
  184.3540  178.6550  144.1680 C   0  0  0  0  0  2  0  0  0  0  0  0
  185.3730  177.7880  147.5220 C   0  0  0  0  0  2  0  0  0  0  0  0
  186.7190  177.0720  147.2990 C   0  0  0  0  0  2  0  0  0  0  0  0
  185.4580  177.7410  143.6010 C   0  0  2  0  0  3  0  0  0  0  0  0
  187.1120  176.9800  145.8270 C   0  0  1  0  0  3  0  0  0  0  0  0
  186.8990  178.2390  143.8270 C   0  0  0  0  0  2  0  0  0  0  0  0
  190.7680  177.6020  144.5530 C   0  0  2  0  0  3  0  0  0  0  0  0
  191.7860  176.7900  142.6720 N   0  0  0  0  0  0  0  0  0  0  0  0
  191.8750  176.3430  146.0160 N   0  0  0  0  0  0  0  0  0  0  0  0
  190.6220  176.5050  146.4970 C   0  0  0  0  0  3  0  0  0  0  0  0
  189.9190  177.2870  145.5900 C   0  0  0  0  0  0  0  0  0  0  0  0
  190.5670  177.4960  143.0840 C   0  0  0  0  0  3  0  0  0  0  0  0
  191.9380  176.9940  144.8400 C   0  0  1  0  0  3  0  0  0  0  0  0
  192.5360  176.4960  143.6600 N   0  0  0  0  0  2  0  0  0  0  0  0
  194.2180  176.0010  146.5870 C   0  0  0  0  0  1  0  0  0  0  0  0
  192.8370  175.3760  146.5220 C   0  0  0  0  0  2  0  0  0  0  0  0
  184.6140  178.5260  141.4320 N   0  0  0  0  0  1  0  0  0  0  0  0
  185.2330  177.4070  142.1230 C   0  0  1  0  0  3  0  0  0  0  0  0
  186.4810  176.9700  141.4160 C   0  0  0  0  0  0  0  0  0  0  0  0
  188.3490  175.2950  141.1910 C   0  0  0  0  0  1  0  0  0  0  0  0
  187.1260  175.7640  141.8220 N   0  0  0  0  0  2  0  0  0  0  0  0
  186.9690  177.6750  140.4900 O   0  0  0  0  0  0  0  0  0  0  0  0
  1  6  1  0  0  0  0
  2  1  1  0  0  0  0
  3 10  1  6  0  0  0
  3  4  1  0  0  0  0
  3  9  1  0  0  0  0
  4 15  1  0  0  0  0
  4  9  1  0  0  0  0
  5  2  1  0  0  0  0
  7  6  1  0  0  0  0
  8 22  1  6  0  0  0
  8 10  1  0  0  0  0
  8  5  1  0  0  0  0
  9  7  1  1  0  0  0
 11 16  1  6  0  0  0
 11 17  1  0  0  0  0
 11 15  1  0  0  0  0
 12 16  2  0  0  0  0
 12 18  1  0  0  0  0
 13 14  1  0  0  0  0
 13 20  1  0  0  0  0
 15 14  2  0  0  0  0
 17 18  1  6  0  0  0
 17 13  1  0  0  0  0
 20 19  1  0  0  0  0
 22 21  1  6  0  0  0
 23 25  1  0  0  0  0
 23 22  1  0  0  0  0
 24 25  1  0  0  0  0
 26 23  2  0  0  0  0
M  END
>  <MODEL>
1

>  <REMARK>
 VINA RESULT:      -7.6      0.000      0.000
  Name = 
  4 active torsions:
  status: ('A' for Active; 'I' for Inactive)
    1  A    between atoms: C_7  and  C_25
    2  A    between atoms: N_8  and  C_16
    3  A    between atoms: N_11  and  C_14
    4  A    between atoms: C_23  and  C_25
                            x       y       z     vdW  Elec       q    Type
                         _______ _______ _______ _____ _____    ______ ____

>  <TORSDO>
F 4

$$$$
=
 OpenBabel11042418513D

 26 29  0  0  1  0  0  0  0  0999 V2000
  184.5100  178.6310  145.9040 N   0  0  0  0  0  2  0  0  0  0  0  0
  185.2850  179.7510  145.3810 C   0  0  0  0  0  2  0  0  0  0  0  0
  187.4340  177.7310  145.4020 C   0  0  2  0  0  3  0  0  0  0  0  0
  187.9960  176.3940  145.7630 N   0  0  0  0  0  0  0  0  0  0  0  0
  185.4650  179.6590  143.8630 C   0  0  0  0  0  2  0  0  0  0  0  0
  185.1310  178.2610  147.1760 C   0  0  0  0  0  2  0  0  0  0  0  0
  185.9350  176.9500  147.0800 C   0  0  0  0  0  2  0  0  0  0  0  0
  186.0430  178.3210  143.3620 C   0  0  2  0  0  3  0  0  0  0  0  0
  186.5390  176.7190  145.6980 C   0  0  1  0  0  3  0  0  0  0  0  0
  187.4450  177.9720  143.8970 C   0  0  0  0  0  2  0  0  0  0  0  0
  190.0400  175.6360  146.9640 C   0  0  2  0  0  3  0  0  0  0  0  0
  192.0970  176.5130  147.4480 N   0  0  0  0  0  0  0  0  0  0  0  0
  190.7390  174.1170  145.4950 N   0  0  0  0  0  0  0  0  0  0  0  0
  189.5290  174.5510  145.0770 C   0  0  0  0  0  3  0  0  0  0  0  0
  189.0830  175.5030  145.9830 C   0  0  0  0  0  0  0  0  0  0  0  0
  190.6720  176.8580  147.5260 C   0  0  0  0  0  3  0  0  0  0  0  0
  191.0360  174.7940  146.6210 C   0  0  1  0  0  3  0  0  0  0  0  0
  192.2920  175.3680  146.9230 N   0  0  0  0  0  2  0  0  0  0  0  0
  190.9680  172.0750  144.1880 C   0  0  0  0  0  1  0  0  0  0  0  0
  191.6600  173.3280  144.6920 C   0  0  0  0  0  2  0  0  0  0  0  0
  186.6200  176.9660  141.3960 N   0  0  0  0  0  1  0  0  0  0  0  0
  186.0110  178.2120  141.8340 C   0  0  1  0  0  3  0  0  0  0  0  0
  184.6350  178.3630  141.2570 C   0  0  0  0  0  0  0  0  0  0  0  0
  182.1410  178.1960  141.5720 C   0  0  0  0  0  1  0  0  0  0  0  0
  183.5010  178.0880  142.0770 N   0  0  0  0  0  2  0  0  0  0  0  0
  184.4840  178.7060  140.0520 O   0  0  0  0  0  0  0  0  0  0  0  0
  1  6  1  0  0  0  0
  2  1  1  0  0  0  0
  3 10  1  6  0  0  0
  3  9  1  0  0  0  0
  3  4  1  0  0  0  0
  4 15  1  0  0  0  0
  5  2  1  0  0  0  0
  7  6  1  0  0  0  0
  8 22  1  6  0  0  0
  8  5  1  0  0  0  0
  8 10  1  0  0  0  0
  9  4  1  0  0  0  0
  9  7  1  1  0  0  0
 11 16  1  6  0  0  0
 12 16  2  0  0  0  0
 13 17  1  0  0  0  0
 14 13  1  0  0  0  0
 14 15  2  0  0  0  0
 15 11  1  0  0  0  0
 17 18  1  6  0  0  0
 17 11  1  0  0  0  0
 18 12  1  0  0  0  0
 19 20  1  0  0  0  0
 20 13  1  0  0  0  0
 22 21  1  1  0  0  0
 23 22  1  0  0  0  0
 23 25  1  0  0  0  0
 24 25  1  0  0  0  0
 26 23  2  0  0  0  0
M  END
>  <MODEL>
2

>  <REMARK>
 VINA RESULT:      -7.4      2.128      2.964
  Name = 
  4 active torsions:
  status: ('A' for Active; 'I' for Inactive)
    1  A    between atoms: C_7  and  C_25
    2  A    between atoms: N_8  and  C_16
    3  A    between atoms: N_11  and  C_14
    4  A    between atoms: C_23  and  C_25
                            x       y       z     vdW  Elec       q    Type
                         _______ _______ _______ _____ _____    ______ ____

>  <TORSDO>
F 4

$$$$
=
 OpenBabel11042418513D

 26 29  0  0  1  0  0  0  0  0999 V2000
  185.4940  177.9940  146.3270 N   0  0  0  0  0  2  0  0  0  0  0  0
  185.8970  179.3200  145.8690 C   0  0  0  0  0  2  0  0  0  0  0  0
  188.2860  177.8320  144.9880 C   0  0  2  0  0  3  0  0  0  0  0  0
  189.1450  176.6100  144.9360 N   0  0  0  0  0  0  0  0  0  0  0  0
  185.6770  179.4950  144.3640 C   0  0  0  0  0  2  0  0  0  0  0  0
  186.4870  177.5830  147.3190 C   0  0  0  0  0  2  0  0  0  0  0  0
  187.4490  176.5060  146.7800 C   0  0  0  0  0  2  0  0  0  0  0  0
  186.3190  178.4030  143.4870 C   0  0  2  0  0  3  0  0  0  0  0  0
  187.6910  176.6180  145.2780 C   0  0  1  0  0  3  0  0  0  0  0  0
  187.8520  178.2900  143.6010 C   0  0  0  0  0  2  0  0  0  0  0  0
  190.5470  174.7240  144.1150 C   0  0  2  0  0  3  0  0  0  0  0  0
  190.6780  172.4720  144.4940 N   0  0  0  0  0  0  0  0  0  0  0  0
  192.4550  175.2730  145.1190 N   0  0  0  0  0  0  0  0  0  0  0  0
  191.5850  176.2850  145.3350 C   0  0  0  0  0  3  0  0  0  0  0  0
  190.3870  175.9530  144.7160 C   0  0  0  0  0  0  0  0  0  0  0  0
  189.6900  173.5100  144.1750 C   0  0  0  0  0  3  0  0  0  0  0  0
  191.8070  174.3380  144.3990 C   0  0  1  0  0  3  0  0  0  0  0  0
  191.8530  172.9450  144.6380 N   0  0  0  0  0  2  0  0  0  0  0  0
  194.1070  176.3970  146.5110 C   0  0  0  0  0  1  0  0  0  0  0  0
  193.7190  175.1040  145.8200 C   0  0  0  0  0  2  0  0  0  0  0  0
  186.7560  177.7000  141.1740 N   0  0  0  0  0  1  0  0  0  0  0  0
  185.8990  178.5160  142.0190 C   0  0  1  0  0  3  0  0  0  0  0  0
  184.4540  178.1850  141.7880 C   0  0  0  0  0  0  0  0  0  0  0  0
  182.5440  177.9160  140.1670 C   0  0  0  0  0  1  0  0  0  0  0  0
  183.9380  178.2070  140.4580 N   0  0  0  0  0  2  0  0  0  0  0  0
  183.6980  177.9160  142.7610 O   0  0  0  0  0  0  0  0  0  0  0  0
  1  6  1  0  0  0  0
  2  1  1  0  0  0  0
  3 10  1  6  0  0  0
  3  9  1  0  0  0  0
  4  3  1  0  0  0  0
  4  9  1  0  0  0  0
  5  2  1  0  0  0  0
  7  6  1  0  0  0  0
  8 22  1  6  0  0  0
  8 10  1  0  0  0  0
  8  5  1  0  0  0  0
  9  7  1  1  0  0  0
 11 16  1  1  0  0  0
 11 17  1  0  0  0  0
 11 15  1  0  0  0  0
 12 18  1  0  0  0  0
 13 14  1  0  0  0  0
 13 20  1  0  0  0  0
 15  4  1  0  0  0  0
 15 14  2  0  0  0  0
 16 12  2  0  0  0  0
 17 18  1  1  0  0  0
 17 13  1  0  0  0  0
 20 19  1  0  0  0  0
 22 21  1  6  0  0  0
 23 22  1  0  0  0  0
 23 26  2  0  0  0  0
 24 25  1  0  0  0  0
 25 23  1  0  0  0  0
M  END
>  <MODEL>
3

>  <REMARK>
 VINA RESULT:      -7.0      2.117      2.649
  Name = 
  4 active torsions:
  status: ('A' for Active; 'I' for Inactive)
    1  A    between atoms: C_7  and  C_25
    2  A    between atoms: N_8  and  C_16
    3  A    between atoms: N_11  and  C_14
    4  A    between atoms: C_23  and  C_25
                            x       y       z     vdW  Elec       q    Type
                         _______ _______ _______ _____ _____    ______ ____

>  <TORSDO>
F 4

$$$$
=
 OpenBabel11042418513D

 26 29  0  0  1  0  0  0  0  0999 V2000
  184.6470  178.3880  146.4520 N   0  0  0  0  0  2  0  0  0  0  0  0
  185.2640  179.4570  145.6740 C   0  0  0  0  0  2  0  0  0  0  0  0
  187.5050  177.5400  145.6010 C   0  0  2  0  0  3  0  0  0  0  0  0
  188.1930  176.2860  146.0320 N   0  0  0  0  0  0  0  0  0  0  0  0
  185.2120  179.1700  144.1710 C   0  0  0  0  0  2  0  0  0  0  0  0
  185.4780  178.2150  147.6430 C   0  0  0  0  0  2  0  0  0  0  0  0
  186.3330  176.9340  147.5830 C   0  0  0  0  0  2  0  0  0  0  0  0
  185.7820  177.8000  143.7550 C   0  0  2  0  0  3  0  0  0  0  0  0
  186.7280  176.5440  146.1630 C   0  0  1  0  0  3  0  0  0  0  0  0
  187.2680  177.5790  144.0960 C   0  0  0  0  0  2  0  0  0  0  0  0
  190.3640  175.6860  147.0930 C   0  0  2  0  0  3  0  0  0  0  0  0
  192.3840  176.7080  147.4200 N   0  0  0  0  0  0  0  0  0  0  0  0
  191.0610  174.1960  145.5950 N   0  0  0  0  0  0  0  0  0  0  0  0
  189.7970  174.5400  145.2580 C   0  0  0  0  0  3  0  0  0  0  0  0
  189.3510  175.4730  146.1840 C   0  0  0  0  0  0  0  0  0  0  0  0
  190.9480  176.9580  147.5950 C   0  0  0  0  0  3  0  0  0  0  0  0
  191.3890  174.9090  146.6890 C   0  0  1  0  0  3  0  0  0  0  0  0
  192.6200  175.5710  146.8950 N   0  0  0  0  0  2  0  0  0  0  0  0
  192.3910  174.3190  143.5580 C   0  0  0  0  0  1  0  0  0  0  0  0
  191.9750  173.4580  144.7360 C   0  0  0  0  0  2  0  0  0  0  0  0
  185.0050  178.6580  141.5880 N   0  0  0  0  0  1  0  0  0  0  0  0
  185.5200  177.4870  142.2790 C   0  0  1  0  0  3  0  0  0  0  0  0
  186.7180  176.9340  141.5670 C   0  0  0  0  0  0  0  0  0  0  0  0
  188.3410  175.0340  141.2470 C   0  0  0  0  0  1  0  0  0  0  0  0
  187.1740  175.6200  141.8860 N   0  0  0  0  0  2  0  0  0  0  0  0
  187.3320  177.6330  140.7140 O   0  0  0  0  0  0  0  0  0  0  0  0
  1  6  1  0  0  0  0
  2  1  1  0  0  0  0
  3 10  1  6  0  0  0
  3  4  1  0  0  0  0
  3  9  1  0  0  0  0
  4  9  1  0  0  0  0
  4 15  1  0  0  0  0
  5  2  1  0  0  0  0
  7  6  1  0  0  0  0
  8 22  1  6  0  0  0
  8 10  1  0  0  0  0
  8  5  1  0  0  0  0
  9  7  1  1  0  0  0
 11 16  1  6  0  0  0
 12 16  2  0  0  0  0
 13 17  1  0  0  0  0
 14 13  1  0  0  0  0
 14 15  2  0  0  0  0
 15 11  1  0  0  0  0
 17 18  1  6  0  0  0
 17 11  1  0  0  0  0
 18 12  1  0  0  0  0
 19 20  1  0  0  0  0
 20 13  1  0  0  0  0
 22 21  1  6  0  0  0
 23 25  1  0  0  0  0
 23 22  1  0  0  0  0
 24 25  1  0  0  0  0
 26 23  2  0  0  0  0
M  END
>  <MODEL>
4

>  <REMARK>
 VINA RESULT:      -7.0      1.777      2.142
  Name = 
  4 active torsions:
  status: ('A' for Active; 'I' for Inactive)
    1  A    between atoms: C_7  and  C_25
    2  A    between atoms: N_8  and  C_16
    3  A    between atoms: N_11  and  C_14
    4  A    between atoms: C_23  and  C_25
                            x       y       z     vdW  Elec       q    Type
                         _______ _______ _______ _____ _____    ______ ____

>  <TORSDO>
F 4

$$$$
=
 OpenBabel11042418513D

 26 29  0  0  1  0  0  0  0  0999 V2000
  192.3160  176.3220  143.7600 N   0  0  0  0  0  2  0  0  0  0  0  0
  191.9420  175.3730  144.8030 C   0  0  0  0  0  2  0  0  0  0  0  0
  189.2510  176.4290  144.2160 C   0  0  2  0  0  3  0  0  0  0  0  0
  188.3180  177.3960  143.5620 N   0  0  0  0  0  0  0  0  0  0  0  0
  191.3620  174.0830  144.2180 C   0  0  0  0  0  2  0  0  0  0  0  0
  191.9440  177.6460  144.2570 C   0  0  0  0  0  2  0  0  0  0  0  0
  190.6900  178.2080  143.5570 C   0  0  0  0  0  2  0  0  0  0  0  0
  190.1960  174.2880  143.2310 C   0  0  2  0  0  3  0  0  0  0  0  0
  189.7160  177.1210  143.1130 C   0  0  1  0  0  3  0  0  0  0  0  0
  188.9550  174.9870  143.8210 C   0  0  0  0  0  2  0  0  0  0  0  0
  186.3760  178.6490  144.4860 C   0  0  2  0  0  3  0  0  0  0  0  0
  184.8100  178.3070  146.1190 N   0  0  0  0  0  0  0  0  0  0  0  0
  184.9980  178.4450  142.7510 N   0  0  0  0  0  0  0  0  0  0  0  0
  186.1930  177.9370  142.3750 C   0  0  0  0  0  3  0  0  0  0  0  0
  187.0620  178.0550  143.4510 C   0  0  0  0  0  0  0  0  0  0  0  0
  186.2620  178.2500  145.9140 C   0  0  0  0  0  3  0  0  0  0  0  0
  185.1240  178.8520  144.0280 C   0  0  1  0  0  3  0  0  0  0  0  0
  184.1800  178.6230  145.0560 N   0  0  0  0  0  2  0  0  0  0  0  0
  184.0220  178.2910  140.5250 C   0  0  0  0  0  1  0  0  0  0  0  0
  183.7540  178.2670  142.0180 C   0  0  0  0  0  2  0  0  0  0  0  0
  189.2540  172.0330  143.4850 N   0  0  0  0  0  1  0  0  0  0  0  0
  189.7940  172.9880  142.5290 C   0  0  1  0  0  3  0  0  0  0  0  0
  188.8400  173.1970  141.3910 C   0  0  0  0  0  0  0  0  0  0  0  0
  188.3950  174.1800  139.1140 C   0  0  0  0  0  1  0  0  0  0  0  0
  189.2750  173.9240  140.2430 N   0  0  0  0  0  2  0  0  0  0  0  0
  187.6600  172.7570  141.4590 O   0  0  0  0  0  0  0  0  0  0  0  0
  1  6  1  0  0  0  0
  1  2  1  0  0  0  0
  3 10  1  6  0  0  0
  4  3  1  0  0  0  0
  5  2  1  0  0  0  0
  7  6  1  0  0  0  0
  8 22  1  1  0  0  0
  8 10  1  0  0  0  0
  8  5  1  0  0  0  0
  9  7  1  1  0  0  0
  9  4  1  0  0  0  0
  9  3  1  0  0  0  0
 11 16  1  1  0  0  0
 13 17  1  0  0  0  0
 14 13  1  0  0  0  0
 14 15  2  0  0  0  0
 15  4  1  0  0  0  0
 15 11  1  0  0  0  0
 16 12  2  0  0  0  0
 17 11  1  0  0  0  0
 17 18  1  1  0  0  0
 18 12  1  0  0  0  0
 19 20  1  0  0  0  0
 20 13  1  0  0  0  0
 22 21  1  1  0  0  0
 23 26  2  0  0  0  0
 23 22  1  0  0  0  0
 24 25  1  0  0  0  0
 25 23  1  0  0  0  0
M  END
>  <MODEL>
5

>  <REMARK>
 VINA RESULT:      -7.0      2.252      6.650
  Name = 
  4 active torsions:
  status: ('A' for Active; 'I' for Inactive)
    1  A    between atoms: C_7  and  C_25
    2  A    between atoms: N_8  and  C_16
    3  A    between atoms: N_11  and  C_14
    4  A    between atoms: C_23  and  C_25
                            x       y       z     vdW  Elec       q    Type
                         _______ _______ _______ _____ _____    ______ ____

>  <TORSDO>
F 4

$$$$
=
 OpenBabel11042418513D

 26 29  0  0  1  0  0  0  0  0999 V2000
  188.1070  175.6830  146.5660 N   0  0  0  0  0  2  0  0  0  0  0  0
  188.0530  177.1270  146.7660 C   0  0  0  0  0  2  0  0  0  0  0  0
  190.6140  177.0040  145.3080 C   0  0  2  0  0  3  0  0  0  0  0  0
  191.7640  176.2640  144.7050 N   0  0  0  0  0  0  0  0  0  0  0  0
  187.5830  177.8590  145.5060 C   0  0  0  0  0  2  0  0  0  0  0  0
  189.3050  175.2160  147.2630 C   0  0  0  0  0  2  0  0  0  0  0  0
  190.4440  174.8430  146.2930 C   0  0  0  0  0  2  0  0  0  0  0  0
  188.3750  177.5200  144.2280 C   0  0  2  0  0  3  0  0  0  0  0  0
  190.4300  175.6660  145.0090 C   0  0  1  0  0  3  0  0  0  0  0  0
  189.8780  177.8570  144.2820 C   0  0  0  0  0  2  0  0  0  0  0  0
  193.4540  176.0550  142.8890 C   0  0  2  0  0  3  0  0  0  0  0  0
  193.9360  174.5400  141.2430 N   0  0  0  0  0  0  0  0  0  0  0  0
  195.2420  175.6530  144.1500 N   0  0  0  0  0  0  0  0  0  0  0  0
  194.2210  175.9450  144.9860 C   0  0  0  0  0  3  0  0  0  0  0  0
  193.0970  176.1940  144.2110 C   0  0  0  0  0  0  0  0  0  0  0  0
  192.8000  175.2880  141.7960 C   0  0  0  0  0  3  0  0  0  0  0  0
  194.7570  175.7070  142.8960 C   0  0  1  0  0  3  0  0  0  0  0  0
  195.0210  174.7650  141.8750 N   0  0  0  0  0  2  0  0  0  0  0  0
  196.3020  174.1660  145.7620 C   0  0  0  0  0  1  0  0  0  0  0  0
  196.5110  175.0720  144.5630 C   0  0  0  0  0  2  0  0  0  0  0  0
  188.5460  177.8410  141.7990 N   0  0  0  0  0  1  0  0  0  0  0  0
  187.7360  178.1220  142.9730 C   0  0  1  0  0  3  0  0  0  0  0  0
  186.3180  177.6810  142.7580 C   0  0  0  0  0  0  0  0  0  0  0  0
  183.8800  178.2910  142.5930 C   0  0  0  0  0  1  0  0  0  0  0  0
  185.2760  178.6540  142.7740 N   0  0  0  0  0  2  0  0  0  0  0  0
  186.0490  176.4590  142.5910 O   0  0  0  0  0  0  0  0  0  0  0  0
  1  2  1  0  0  0  0
  1  6  1  0  0  0  0
  3 10  1  6  0  0  0
  4  9  1  0  0  0  0
  4  3  1  0  0  0  0
  5  2  1  0  0  0  0
  7  6  1  0  0  0  0
  8 22  1  6  0  0  0
  8 10  1  0  0  0  0
  8  5  1  0  0  0  0
  9  3  1  0  0  0  0
  9  7  1  1  0  0  0
 11 16  1  1  0  0  0
 11 17  1  0  0  0  0
 11 15  1  0  0  0  0
 12 16  2  0  0  0  0
 12 18  1  0  0  0  0
 13 20  1  0  0  0  0
 13 14  1  0  0  0  0
 15  4  1  0  0  0  0
 15 14  2  0  0  0  0
 17 18  1  1  0  0  0
 17 13  1  0  0  0  0
 20 19  1  0  0  0  0
 22 21  1  6  0  0  0
 23 25  1  0  0  0  0
 23 22  1  0  0  0  0
 24 25  1  0  0  0  0
 26 23  2  0  0  0  0
M  END
>  <MODEL>
6

>  <REMARK>
 VINA RESULT:      -6.8      2.245      3.690
  Name = 
  4 active torsions:
  status: ('A' for Active; 'I' for Inactive)
    1  A    between atoms: C_7  and  C_25
    2  A    between atoms: N_8  and  C_16
    3  A    between atoms: N_11  and  C_14
    4  A    between atoms: C_23  and  C_25
                            x       y       z     vdW  Elec       q    Type
                         _______ _______ _______ _____ _____    ______ ____

>  <TORSDO>
F 4

$$$$
=
 OpenBabel11042418513D

 26 29  0  0  1  0  0  0  0  0999 V2000
  185.4880  178.8510  142.0150 N   0  0  0  0  0  2  0  0  0  0  0  0
  184.5770  178.0410  142.8170 C   0  0  0  0  0  2  0  0  0  0  0  0
  186.6900  176.0220  142.4190 C   0  0  2  0  0  3  0  0  0  0  0  0
  187.9460  175.5230  141.7820 N   0  0  0  0  0  0  0  0  0  0  0  0
  185.0270  177.9560  144.2780 C   0  0  0  0  0  2  0  0  0  0  0  0
  185.6010  178.1810  140.7200 C   0  0  0  0  0  2  0  0  0  0  0  0
  186.9550  177.4650  140.5430 C   0  0  0  0  0  2  0  0  0  0  0  0
  186.4820  177.4920  144.4790 C   0  0  2  0  0  3  0  0  0  0  0  0
  187.5390  176.9580  141.8580 C   0  0  1  0  0  3  0  0  0  0  0  0
  186.8000  176.0840  143.9380 C   0  0  0  0  0  2  0  0  0  0  0  0
  189.1150  174.0890  140.1160 C   0  0  2  0  0  3  0  0  0  0  0  0
  188.4980  172.6670  138.4330 N   0  0  0  0  0  0  0  0  0  0  0  0
  189.8870  172.5330  141.5070 N   0  0  0  0  0  0  0  0  0  0  0  0
  189.3290  173.5050  142.2640 C   0  0  0  0  0  3  0  0  0  0  0  0
  188.8400  174.4810  141.4070 C   0  0  0  0  0  0  0  0  0  0  0  0
  188.2270  174.0240  138.9250 C   0  0  0  0  0  3  0  0  0  0  0  0
  189.7320  172.8950  140.2190 C   0  0  1  0  0  3  0  0  0  0  0  0
  189.3230  172.0370  139.1730 N   0  0  0  0  0  2  0  0  0  0  0  0
  191.4450  171.3360  142.9460 C   0  0  0  0  0  1  0  0  0  0  0  0
  190.2670  171.2170  141.9970 C   0  0  0  0  0  2  0  0  0  0  0  0
  185.8880  177.1750  146.8420 N   0  0  0  0  0  1  0  0  0  0  0  0
  186.9360  177.6190  145.9360 C   0  0  1  0  0  3  0  0  0  0  0  0
  188.2230  176.9060  146.2230 C   0  0  0  0  0  0  0  0  0  0  0  0
  189.4050  174.9370  147.2590 C   0  0  0  0  0  1  0  0  0  0  0  0
  188.1920  175.6690  146.9320 N   0  0  0  0  0  2  0  0  0  0  0  0
  189.3240  177.4080  145.8620 O   0  0  0  0  0  0  0  0  0  0  0  0
  1  2  1  0  0  0  0
  2  5  1  0  0  0  0
  3 10  1  1  0  0  0
  4  9  1  0  0  0  0
  4  3  1  0  0  0  0
  5  8  1  0  0  0  0
  6  1  1  0  0  0  0
  7  6  1  0  0  0  0
  8 22  1  1  0  0  0
  9  7  1  6  0  0  0
  9  3  1  0  0  0  0
 10  8  1  0  0  0  0
 11 16  1  6  0  0  0
 11 17  1  0  0  0  0
 11 15  1  0  0  0  0
 12 16  2  0  0  0  0
 12 18  1  0  0  0  0
 13 20  1  0  0  0  0
 13 14  1  0  0  0  0
 15  4  1  0  0  0  0
 15 14  2  0  0  0  0
 17 18  1  6  0  0  0
 17 13  1  0  0  0  0
 20 19  1  0  0  0  0
 22 23  1  0  0  0  0
 22 21  1  1  0  0  0
 23 25  1  0  0  0  0
 25 24  1  0  0  0  0
 26 23  2  0  0  0  0
M  END
>  <MODEL>
7

>  <REMARK>
 VINA RESULT:      -6.8      2.816      5.352
  Name = 
  4 active torsions:
  status: ('A' for Active; 'I' for Inactive)
    1  A    between atoms: C_7  and  C_25
    2  A    between atoms: N_8  and  C_16
    3  A    between atoms: N_11  and  C_14
    4  A    between atoms: C_23  and  C_25
                            x       y       z     vdW  Elec       q    Type
                         _______ _______ _______ _____ _____    ______ ____

>  <TORSDO>
F 4

$$$$
=
 OpenBabel11042418513D

 26 29  0  0  1  0  0  0  0  0999 V2000
  185.3330  179.0350  142.5650 N   0  0  0  0  0  2  0  0  0  0  0  0
  184.4400  178.2960  143.4500 C   0  0  0  0  0  2  0  0  0  0  0  0
  186.3380  176.1170  142.8590 C   0  0  2  0  0  3  0  0  0  0  0  0
  187.4840  175.5230  142.1080 N   0  0  0  0  0  0  0  0  0  0  0  0
  185.0170  178.1670  144.8630 C   0  0  0  0  0  2  0  0  0  0  0  0
  185.2700  178.3660  141.2660 C   0  0  0  0  0  2  0  0  0  0  0  0
  186.5400  177.5450  140.9650 C   0  0  0  0  0  2  0  0  0  0  0  0
  186.4430  177.5870  144.9270 C   0  0  2  0  0  3  0  0  0  0  0  0
  187.2030  176.9850  142.2190 C   0  0  1  0  0  3  0  0  0  0  0  0
  186.5950  176.1610  144.3610 C   0  0  0  0  0  2  0  0  0  0  0  0
  188.9820  173.5650  142.4520 C   0  0  2  0  0  3  0  0  0  0  0  0
  191.0380  173.1980  143.3880 N   0  0  0  0  0  0  0  0  0  0  0  0
  189.5930  173.2430  140.3370 N   0  0  0  0  0  0  0  0  0  0  0  0
  188.6400  174.2020  140.3360 C   0  0  0  0  0  3  0  0  0  0  0  0
  188.2530  174.4150  141.6520 C   0  0  0  0  0  0  0  0  0  0  0  0
  189.7550  173.8430  143.6920 C   0  0  0  0  0  3  0  0  0  0  0  0
  189.7970  172.8860  141.6190 C   0  0  1  0  0  3  0  0  0  0  0  0
  191.0600  172.6840  142.2210 N   0  0  0  0  0  2  0  0  0  0  0  0
  190.2870  171.4610  138.8290 C   0  0  0  0  0  1  0  0  0  0  0  0
  190.4470  172.9220  139.2030 C   0  0  0  0  0  2  0  0  0  0  0  0
  186.0870  177.1970  147.3260 N   0  0  0  0  0  1  0  0  0  0  0  0
  187.0400  177.6690  146.3350 C   0  0  1  0  0  3  0  0  0  0  0  0
  188.3480  176.9480  146.4690 C   0  0  0  0  0  0  0  0  0  0  0  0
  189.6160  174.9320  147.2910 C   0  0  0  0  0  1  0  0  0  0  0  0
  188.3790  175.6740  147.1110 N   0  0  0  0  0  2  0  0  0  0  0  0
  189.4120  177.4740  146.0420 O   0  0  0  0  0  0  0  0  0  0  0  0
  1  2  1  0  0  0  0
  2  5  1  0  0  0  0
  3 10  1  1  0  0  0
  4  9  1  0  0  0  0
  4  3  1  0  0  0  0
  5  8  1  0  0  0  0
  6  1  1  0  0  0  0
  7  6  1  0  0  0  0
  8 22  1  1  0  0  0
  9  7  1  6  0  0  0
  9  3  1  0  0  0  0
 10  8  1  0  0  0  0
 11 16  1  1  0  0  0
 12 16  2  0  0  0  0
 13 17  1  0  0  0  0
 14 13  1  0  0  0  0
 14 15  2  0  0  0  0
 15  4  1  0  0  0  0
 15 11  1  0  0  0  0
 17 18  1  1  0  0  0
 17 11  1  0  0  0  0
 18 12  1  0  0  0  0
 19 20  1  0  0  0  0
 20 13  1  0  0  0  0
 22 23  1  0  0  0  0
 22 21  1  1  0  0  0
 23 25  1  0  0  0  0
 25 24  1  0  0  0  0
 26 23  2  0  0  0  0
M  END
>  <MODEL>
8

>  <REMARK>
 VINA RESULT:      -6.8      2.667      5.306
  Name = 
  4 active torsions:
  status: ('A' for Active; 'I' for Inactive)
    1  A    between atoms: C_7  and  C_25
    2  A    between atoms: N_8  and  C_16
    3  A    between atoms: N_11  and  C_14
    4  A    between atoms: C_23  and  C_25
                            x       y       z     vdW  Elec       q    Type
                         _______ _______ _______ _____ _____    ______ ____

>  <TORSDO>
F 4

$$$$
=
 OpenBabel11042418513D

 26 29  0  0  1  0  0  0  0  0999 V2000
  192.3630  175.7500  144.6420 N   0  0  0  0  0  2  0  0  0  0  0  0
  192.0490  174.4870  145.3020 C   0  0  0  0  0  2  0  0  0  0  0  0
  189.3060  175.2440  144.5270 C   0  0  2  0  0  3  0  0  0  0  0  0
  188.2950  176.2070  143.9940 N   0  0  0  0  0  0  0  0  0  0  0  0
  191.8250  173.3570  144.2940 C   0  0  0  0  0  2  0  0  0  0  0  0
  191.6690  176.7920  145.3980 C   0  0  0  0  0  2  0  0  0  0  0  0
  190.4350  177.3370  144.6520 C   0  0  0  0  0  2  0  0  0  0  0  0
  190.7860  173.6660  143.1980 C   0  0  2  0  0  3  0  0  0  0  0  0
  189.7670  176.2970  143.7580 C   0  0  1  0  0  3  0  0  0  0  0  0
  189.3620  173.9580  143.7110 C   0  0  0  0  0  2  0  0  0  0  0  0
  186.3000  176.8020  142.6290 C   0  0  2  0  0  3  0  0  0  0  0  0
  185.8390  178.2410  140.9110 N   0  0  0  0  0  0  0  0  0  0  0  0
  185.1410  177.8780  144.1940 N   0  0  0  0  0  0  0  0  0  0  0  0
  186.2250  177.3400  144.7980 C   0  0  0  0  0  3  0  0  0  0  0  0
  186.9590  176.6680  143.8310 C   0  0  0  0  0  0  0  0  0  0  0  0
  186.8140  177.2120  141.2960 C   0  0  0  0  0  3  0  0  0  0  0  0
  185.2140  177.5580  142.8880 C   0  0  1  0  0  3  0  0  0  0  0  0
  184.9620  178.4420  141.8150 N   0  0  0  0  0  2  0  0  0  0  0  0
  184.2060  178.6790  146.2960 C   0  0  0  0  0  1  0  0  0  0  0  0
  184.2700  178.8780  144.7930 C   0  0  0  0  0  2  0  0  0  0  0  0
  190.0650  171.3990  142.5860 N   0  0  0  0  0  1  0  0  0  0  0  0
  190.7530  172.5890  142.1100 C   0  0  1  0  0  3  0  0  0  0  0  0
  190.1570  173.0670  140.8190 C   0  0  0  0  0  0  0  0  0  0  0  0
  188.2120  173.0630  139.2190 C   0  0  0  0  0  1  0  0  0  0  0  0
  188.8390  172.6530  140.4640 N   0  0  0  0  0  2  0  0  0  0  0  0
  190.8250  173.8060  140.0450 O   0  0  0  0  0  0  0  0  0  0  0  0
  1  2  1  0  0  0  0
  1  6  1  0  0  0  0
  3 10  1  6  0  0  0
  4  3  1  0  0  0  0
  5  2  1  0  0  0  0
  7  6  1  0  0  0  0
  8 22  1  6  0  0  0
  8 10  1  0  0  0  0
  8  5  1  0  0  0  0
  9  4  1  0  0  0  0
  9  3  1  0  0  0  0
  9  7  1  1  0  0  0
 11 16  1  6  0  0  0
 11 17  1  0  0  0  0
 11 15  1  0  0  0  0
 12 16  2  0  0  0  0
 12 18  1  0  0  0  0
 13 20  1  0  0  0  0
 13 14  1  0  0  0  0
 15  4  1  0  0  0  0
 15 14  2  0  0  0  0
 17 18  1  6  0  0  0
 17 13  1  0  0  0  0
 20 19  1  0  0  0  0
 22 21  1  1  0  0  0
 23 22  1  0  0  0  0
 24 25  1  0  0  0  0
 25 23  1  0  0  0  0
 26 23  2  0  0  0  0
M  END
>  <MODEL>
9

>  <REMARK>
 VINA RESULT:      -6.7      2.545      6.482
  Name = 
  4 active torsions:
  status: ('A' for Active; 'I' for Inactive)
    1  A    between atoms: C_7  and  C_25
    2  A    between atoms: N_8  and  C_16
    3  A    between atoms: N_11  and  C_14
    4  A    between atoms: C_23  and  C_25
                            x       y       z     vdW  Elec       q    Type
                         _______ _______ _______ _____ _____    ______ ____

>  <TORSDO>
F 4

$$$$
