=
 OpenBabel11042414593D

 39 44  0  0  1  0  0  0  0  0999 V2000
  188.0300  176.4470  144.8490 N   0  0  0  0  0  2  0  0  0  0  0  0
  190.6930  175.1590  145.3040 N   0  0  0  0  0  0  0  0  0  0  0  0
  188.0600  176.3430  146.3030 C   0  0  1  0  0  3  0  0  0  0  0  0
  187.9970  175.3580  142.6920 C   0  0  0  0  0  3  0  0  0  0  0  0
  189.9050  174.9340  144.1200 C   0  0  0  0  0  0  0  0  0  0  0  0
  190.0970  175.0920  146.5740 N   0  0  0  0  0  2  0  0  0  0  0  0
  188.5630  174.5540  141.7050 C   0  0  0  0  0  3  0  0  0  0  0  0
  190.4330  174.1650  143.1250 N   0  0  0  0  0  0  0  0  0  0  0  0
  189.7980  173.9510  141.9410 C   0  0  0  0  0  0  0  0  0  0  0  0
  189.4770  176.3750  146.8320 C   0  0  0  0  0  2  0  0  0  0  0  0
  188.6430  175.5490  143.9160 C   0  0  0  0  0  0  0  0  0  0  0  0
  192.7390  176.2180  146.1190 C   0  0  0  0  0  2  0  0  0  0  0  0
  192.7680  173.7940  145.4430 C   0  0  0  0  0  2  0  0  0  0  0  0
  195.1190  175.4230  146.1160 C   0  0  0  0  0  2  0  0  0  0  0  0
  194.0820  173.6520  144.7410 C   0  0  0  0  0  3  0  0  0  0  0  0
  192.1530  175.1700  145.1760 C   0  0  1  0  0  3  0  0  0  0  0  0
  195.1580  174.3930  145.0210 C   0  0  0  0  0  0  0  0  0  0  0  0
  194.1780  176.5660  145.7610 C   0  0  0  0  0  2  0  0  0  0  0  0
  196.3520  174.1490  144.2630 N   0  0  0  0  0  2  0  0  0  0  0  0
  197.5850  173.9830  142.1120 C   0  0  0  0  0  3  0  0  0  0  0  0
  196.7040  174.6570  142.9680 C   0  0  0  0  0  0  0  0  0  0  0  0
  197.9030  174.5390  140.8710 C   0  0  0  0  0  3  0  0  0  0  0  0
  196.5070  176.4050  141.3120 C   0  0  0  0  0  3  0  0  0  0  0  0
  196.1660  175.8810  142.5600 C   0  0  0  0  0  3  0  0  0  0  0  0
  197.3630  175.7300  140.4980 N   0  0  0  0  0  0  0  0  0  0  0  0
  191.3370  172.4870  138.8670 C   0  0  0  0  0  3  0  0  0  0  0  0
  191.4870  171.2780  139.5430 C   0  0  0  0  0  3  0  0  0  0  0  0
  190.8770  171.4980  141.0940 S   0  0  0  0  0  0  0  0  0  0  0  0
  190.7480  173.5070  139.6260 C   0  0  0  0  0  3  0  0  0  0  0  0
  190.4270  173.1060  140.9140 C   0  0  0  0  0  0  0  0  0  0  0  0
  187.2200  177.4530  146.9280 C   0  0  0  0  0  2  0  0  0  0  0  0
  185.7190  177.2020  146.7610 C   0  0  0  0  0  2  0  0  0  0  0  0
  185.8850  179.0680  143.0010 C   0  0  0  0  0  2  0  0  0  0  0  0
  183.7340  178.6100  146.2040 C   0  0  0  0  0  1  0  0  0  0  0  0
  184.8470  177.3020  144.4250 C   0  0  0  0  0  3  0  0  0  0  0  0
  186.0020  179.2910  145.4700 C   0  0  0  0  0  2  0  0  0  0  0  0
  185.0730  178.0920  145.6980 C   0  0  2  0  0  0  0  0  0  0  0  0
  185.6590  180.0160  144.1710 C   0  0  0  0  0  2  0  0  0  0  0  0
  185.1720  177.7580  143.2050 C   0  0  0  0  0  3  0  0  0  0  0  0
  1  3  1  0  0  0  0
  2  6  1  0  0  0  0
  3 10  1  0  0  0  0
  3 31  1  1  0  0  0
  4 11  1  0  0  0  0
  5  2  1  0  0  0  0
  6 10  1  0  0  0  0
  7  9  1  0  0  0  0
  7  4  2  0  0  0  0
  8  5  1  0  0  0  0
  9  8  2  0  0  0  0
 11  5  2  0  0  0  0
 11  1  1  0  0  0  0
 15 17  2  0  0  0  0
 15 13  1  0  0  0  0
 16  2  1  1  0  0  0
 16 13  1  0  0  0  0
 16 12  1  0  0  0  0
 17 14  1  0  0  0  0
 18 14  1  0  0  0  0
 18 12  1  0  0  0  0
 19 17  1  0  0  0  0
 20 21  1  0  0  0  0
 21 19  1  0  0  0  0
 22 20  2  0  0  0  0
 23 24  1  0  0  0  0
 24 21  2  0  0  0  0
 25 22  1  0  0  0  0
 25 23  2  0  0  0  0
 26 27  2  0  0  0  0
 26 29  1  0  0  0  0
 27 28  1  0  0  0  0
 29 30  2  0  0  0  0
 30 28  1  0  0  0  0
 30  9  1  0  0  0  0
 32 31  1  0  0  0  0
 33 39  1  0  0  0  0
 33 38  1  0  0  0  0
 35 37  1  0  0  0  0
 36 37  1  0  0  0  0
 37 34  1  1  0  0  0
 37 32  1  0  0  0  0
 38 36  1  0  0  0  0
 39 35  2  0  0  0  0
M  END
>  <MODEL>
1

>  <REMARK>
 VINA RESULT:      -8.5      0.000      0.000
  Name = 
  7 active torsions:
  status: ('A' for Active; 'I' for Inactive)
    1  A    between atoms: C_3  and  N_13
    2  A    between atoms: N_5  and  C_31
    3  A    between atoms: N_13  and  C_33
    4  A    between atoms: C_15  and  C_18
    5  A    between atoms: C_18  and  C_34
    6  A    between atoms: C_27  and  C_34
    7  A    between atoms: C_30  and  C_32
                            x       y       z     vdW  Elec       q    Type
                         _______ _______ _______ _____ _____    ______ ____

>  <TORSDO>
F 7

$$$$
=
 OpenBabel11042414593D

 39 44  0  0  1  0  0  0  0  0999 V2000
  188.4440  176.4170  144.6330 N   0  0  0  0  0  2  0  0  0  0  0  0
  191.1180  175.1280  145.0090 N   0  0  0  0  0  0  0  0  0  0  0  0
  188.5520  176.3890  146.0870 C   0  0  1  0  0  3  0  0  0  0  0  0
  188.2850  175.2170  142.5410 C   0  0  0  0  0  3  0  0  0  0  0  0
  190.2660  174.8500  143.8840 C   0  0  0  0  0  0  0  0  0  0  0  0
  190.5930  175.1340  146.3120 N   0  0  0  0  0  2  0  0  0  0  0  0
  188.7910  174.3580  141.5690 C   0  0  0  0  0  3  0  0  0  0  0  0
  190.7330  174.0250  142.9030 N   0  0  0  0  0  0  0  0  0  0  0  0
  190.0330  173.7560  141.7680 C   0  0  0  0  0  0  0  0  0  0  0  0
  189.9960  176.4350  146.5360 C   0  0  0  0  0  2  0  0  0  0  0  0
  188.9990  175.4660  143.7160 C   0  0  0  0  0  0  0  0  0  0  0  0
  192.9540  176.2400  143.8400 C   0  0  0  0  0  2  0  0  0  0  0  0
  193.3430  175.2420  146.1180 C   0  0  0  0  0  2  0  0  0  0  0  0
  195.4140  176.3160  144.3310 C   0  0  0  0  0  2  0  0  0  0  0  0
  194.7050  174.6330  145.9940 C   0  0  0  0  0  3  0  0  0  0  0  0
  192.5700  175.1190  144.8020 C   0  0  1  0  0  3  0  0  0  0  0  0
  195.6540  175.0960  145.1770 C   0  0  0  0  0  0  0  0  0  0  0  0
  194.3540  176.0480  143.2710 C   0  0  0  0  0  2  0  0  0  0  0  0
  196.9140  174.4080  145.1600 N   0  0  0  0  0  2  0  0  0  0  0  0
  197.5990  172.6560  143.5380 C   0  0  0  0  0  3  0  0  0  0  0  0
  197.1760  173.0400  144.8170 C   0  0  0  0  0  0  0  0  0  0  0  0
  197.8190  171.3050  143.2600 C   0  0  0  0  0  3  0  0  0  0  0  0
  197.2070  170.7150  145.4740 C   0  0  0  0  0  3  0  0  0  0  0  0
  196.9760  172.0560  145.7890 C   0  0  0  0  0  3  0  0  0  0  0  0
  197.6200  170.3690  144.2250 N   0  0  0  0  0  0  0  0  0  0  0  0
  191.1180  170.8700  139.6590 C   0  0  0  0  0  3  0  0  0  0  0  0
  191.7570  171.7630  138.8010 C   0  0  0  0  0  3  0  0  0  0  0  0
  191.5060  173.3070  139.4170 S   0  0  0  0  0  0  0  0  0  0  0  0
  190.4720  171.4710  140.7480 C   0  0  0  0  0  3  0  0  0  0  0  0
  190.5990  172.8520  140.7550 C   0  0  0  0  0  0  0  0  0  0  0  0
  187.7560  177.5370  146.6970 C   0  0  0  0  0  2  0  0  0  0  0  0
  186.2700  177.1960  146.8390 C   0  0  0  0  0  2  0  0  0  0  0  0
  185.7490  178.9300  143.0480 C   0  0  0  0  0  2  0  0  0  0  0  0
  184.0350  178.2440  146.4670 C   0  0  0  0  0  1  0  0  0  0  0  0
  185.1630  177.0710  144.6060 C   0  0  0  0  0  3  0  0  0  0  0  0
  186.0750  179.2570  145.4860 C   0  0  0  0  0  2  0  0  0  0  0  0
  185.3830  177.9320  145.8330 C   0  0  2  0  0  0  0  0  0  0  0  0
  185.4890  179.8700  144.2180 C   0  0  0  0  0  2  0  0  0  0  0  0
  185.2850  177.5300  143.3500 C   0  0  0  0  0  3  0  0  0  0  0  0
  1  3  1  0  0  0  0
  2  6  1  0  0  0  0
  3 10  1  0  0  0  0
  3 31  1  1  0  0  0
  4 11  1  0  0  0  0
  5  2  1  0  0  0  0
  6 10  1  0  0  0  0
  7  9  1  0  0  0  0
  7  4  2  0  0  0  0
  8  5  1  0  0  0  0
  9  8  2  0  0  0  0
 11  5  2  0  0  0  0
 11  1  1  0  0  0  0
 14 17  1  0  0  0  0
 15 13  1  0  0  0  0
 16 12  1  6  0  0  0
 16  2  1  0  0  0  0
 16 13  1  0  0  0  0
 17 15  2  0  0  0  0
 18 12  1  0  0  0  0
 18 14  1  0  0  0  0
 19 17  1  0  0  0  0
 20 21  1  0  0  0  0
 21 19  1  0  0  0  0
 21 24  2  0  0  0  0
 22 20  2  0  0  0  0
 22 25  1  0  0  0  0
 23 24  1  0  0  0  0
 25 23  2  0  0  0  0
 26 29  1  0  0  0  0
 27 28  1  0  0  0  0
 27 26  2  0  0  0  0
 28 30  1  0  0  0  0
 29 30  2  0  0  0  0
 30  9  1  0  0  0  0
 31 32  1  0  0  0  0
 33 39  1  0  0  0  0
 33 38  1  0  0  0  0
 35 37  1  0  0  0  0
 36 37  1  0  0  0  0
 37 34  1  1  0  0  0
 37 32  1  0  0  0  0
 38 36  1  0  0  0  0
 39 35  2  0  0  0  0
M  END
>  <MODEL>
2

>  <REMARK>
 VINA RESULT:      -8.4      1.526      2.200
  Name = 
  7 active torsions:
  status: ('A' for Active; 'I' for Inactive)
    1  A    between atoms: C_3  and  N_13
    2  A    between atoms: N_5  and  C_31
    3  A    between atoms: N_13  and  C_33
    4  A    between atoms: C_15  and  C_18
    5  A    between atoms: C_18  and  C_34
    6  A    between atoms: C_27  and  C_34
    7  A    between atoms: C_30  and  C_32
                            x       y       z     vdW  Elec       q    Type
                         _______ _______ _______ _____ _____    ______ ____

>  <TORSDO>
F 7

$$$$
=
 OpenBabel11042414593D

 39 44  0  0  1  0  0  0  0  0999 V2000
  190.4690  176.6140  146.4890 N   0  0  0  0  0  2  0  0  0  0  0  0
  190.9860  175.2490  143.8760 N   0  0  0  0  0  0  0  0  0  0  0  0
  189.3850  177.1380  145.6660 C   0  0  1  0  0  3  0  0  0  0  0  0
  192.8400  176.4310  146.9250 C   0  0  0  0  0  3  0  0  0  0  0  0
  192.0330  175.5880  144.8040 C   0  0  0  0  0  0  0  0  0  0  0  0
  190.0040  176.1950  143.5400 N   0  0  0  0  0  2  0  0  0  0  0  0
  194.1290  176.0270  146.5900 C   0  0  0  0  0  3  0  0  0  0  0  0
  193.3080  175.1950  144.5170 N   0  0  0  0  0  0  0  0  0  0  0  0
  194.3530  175.4050  145.3620 C   0  0  0  0  0  0  0  0  0  0  0  0
  188.9940  176.1620  144.5780 C   0  0  0  0  0  2  0  0  0  0  0  0
  191.7770  176.2360  146.0390 C   0  0  0  0  0  0  0  0  0  0  0  0
  190.5010  172.8540  143.8380 C   0  0  0  0  0  2  0  0  0  0  0  0
  190.5150  174.1630  141.6880 C   0  0  0  0  0  2  0  0  0  0  0  0
  190.3190  171.2410  141.9240 C   0  0  0  0  0  2  0  0  0  0  0  0
  191.1690  173.2240  140.7230 C   0  0  0  0  0  3  0  0  0  0  0  0
  191.1280  174.0240  143.0840 C   0  0  1  0  0  3  0  0  0  0  0  0
  191.1060  171.8940  140.8210 C   0  0  0  0  0  0  0  0  0  0  0  0
  190.9530  171.5100  143.2830 C   0  0  0  0  0  2  0  0  0  0  0  0
  191.7850  171.1170  139.8230 N   0  0  0  0  0  2  0  0  0  0  0  0
  192.4080  171.1270  137.4180 C   0  0  0  0  0  3  0  0  0  0  0  0
  191.4560  170.9690  138.4350 C   0  0  0  0  0  0  0  0  0  0  0  0
  192.0220  170.9880  136.0830 C   0  0  0  0  0  3  0  0  0  0  0  0
  189.7850  170.5520  136.7410 C   0  0  0  0  0  3  0  0  0  0  0  0
  190.1340  170.6840  138.0870 C   0  0  0  0  0  3  0  0  0  0  0  0
  190.7280  170.7060  135.7730 N   0  0  0  0  0  0  0  0  0  0  0  0
  197.7260  173.8190  145.0960 C   0  0  0  0  0  3  0  0  0  0  0  0
  197.9410  174.5230  143.9140 C   0  0  0  0  0  3  0  0  0  0  0  0
  196.5630  175.4430  143.6260 S   0  0  0  0  0  0  0  0  0  0  0  0
  196.4810  174.0570  145.6960 C   0  0  0  0  0  3  0  0  0  0  0  0
  195.7020  174.9570  144.9830 C   0  0  0  0  0  0  0  0  0  0  0  0
  188.1850  177.4900  146.5390 C   0  0  0  0  0  2  0  0  0  0  0  0
  186.9610  176.6320  146.2090 C   0  0  0  0  0  2  0  0  0  0  0  0
  185.5820  178.9880  143.0150 C   0  0  0  0  0  2  0  0  0  0  0  0
  184.5990  177.4110  146.4270 C   0  0  0  0  0  1  0  0  0  0  0  0
  185.4850  176.7960  144.2020 C   0  0  0  0  0  3  0  0  0  0  0  0
  186.3110  178.8710  145.3840 C   0  0  0  0  0  2  0  0  0  0  0  0
  185.8350  177.4200  145.5380 C   0  0  2  0  0  0  0  0  0  0  0  0
  185.4440  179.6340  144.3870 C   0  0  0  0  0  2  0  0  0  0  0  0
  185.3290  177.5050  143.0730 C   0  0  0  0  0  3  0  0  0  0  0  0
  2  5  1  0  0  0  0
  3  1  1  0  0  0  0
  3 31  1  1  0  0  0
  5 11  1  0  0  0  0
  6  2  1  0  0  0  0
  6 10  1  0  0  0  0
  7  4  1  0  0  0  0
  8  5  2  0  0  0  0
  8  9  1  0  0  0  0
  9  7  2  0  0  0  0
 10  3  1  0  0  0  0
 11  1  1  0  0  0  0
 11  4  2  0  0  0  0
 14 18  1  0  0  0  0
 15 17  2  0  0  0  0
 15 13  1  0  0  0  0
 16 13  1  6  0  0  0
 16 12  1  0  0  0  0
 16  2  1  0  0  0  0
 17 14  1  0  0  0  0
 18 12  1  0  0  0  0
 19 17  1  0  0  0  0
 20 21  1  0  0  0  0
 21 19  1  0  0  0  0
 22 20  2  0  0  0  0
 23 24  1  0  0  0  0
 24 21  2  0  0  0  0
 25 22  1  0  0  0  0
 25 23  2  0  0  0  0
 26 29  1  0  0  0  0
 27 26  2  0  0  0  0
 28 27  1  0  0  0  0
 28 30  1  0  0  0  0
 30  9  1  0  0  0  0
 30 29  2  0  0  0  0
 32 31  1  0  0  0  0
 33 39  1  0  0  0  0
 33 38  1  0  0  0  0
 35 37  1  0  0  0  0
 36 37  1  0  0  0  0
 37 32  1  0  0  0  0
 37 34  1  1  0  0  0
 38 36  1  0  0  0  0
 39 35  2  0  0  0  0
M  END
>  <MODEL>
3

>  <REMARK>
 VINA RESULT:      -8.2      2.477      5.672
  Name = 
  7 active torsions:
  status: ('A' for Active; 'I' for Inactive)
    1  A    between atoms: C_3  and  N_13
    2  A    between atoms: N_5  and  C_31
    3  A    between atoms: N_13  and  C_33
    4  A    between atoms: C_15  and  C_18
    5  A    between atoms: C_18  and  C_34
    6  A    between atoms: C_27  and  C_34
    7  A    between atoms: C_30  and  C_32
                            x       y       z     vdW  Elec       q    Type
                         _______ _______ _______ _____ _____    ______ ____

>  <TORSDO>
F 7

$$$$
=
 OpenBabel11042414593D

 39 44  0  0  1  0  0  0  0  0999 V2000
  194.2980  171.8400  143.8470 N   0  0  0  0  0  2  0  0  0  0  0  0
  192.6570  174.3200  144.1830 N   0  0  0  0  0  0  0  0  0  0  0  0
  195.1900  172.6750  144.6420 C   0  0  1  0  0  3  0  0  0  0  0  0
  193.1010  171.4630  141.7810 C   0  0  0  0  0  3  0  0  0  0  0  0
  192.5560  173.4640  143.0310 C   0  0  0  0  0  0  0  0  0  0  0  0
  193.9150  174.7160  144.6630 N   0  0  0  0  0  2  0  0  0  0  0  0
  192.1370  171.7970  140.8340 C   0  0  0  0  0  3  0  0  0  0  0  0
  191.6120  173.7500  142.0880 N   0  0  0  0  0  0  0  0  0  0  0  0
  191.3910  172.9640  141.0000 C   0  0  0  0  0  0  0  0  0  0  0  0
  194.4170  173.6480  145.5040 C   0  0  0  0  0  2  0  0  0  0  0  0
  193.3400  172.2910  142.8810 C   0  0  0  0  0  0  0  0  0  0  0  0
  190.8280  174.1830  145.7980 C   0  0  0  0  0  2  0  0  0  0  0  0
  191.7140  176.4320  145.1000 C   0  0  0  0  0  2  0  0  0  0  0  0
  189.3170  175.9570  146.7310 C   0  0  0  0  0  2  0  0  0  0  0  0
  190.4760  177.2650  144.9860 C   0  0  0  0  0  3  0  0  0  0  0  0
  191.4430  174.9910  144.6590 C   0  0  1  0  0  3  0  0  0  0  0  0
  189.3710  177.0560  145.7060 C   0  0  0  0  0  0  0  0  0  0  0  0
  189.3840  174.5870  146.0690 C   0  0  0  0  0  2  0  0  0  0  0  0
  188.2560  177.9340  145.4890 N   0  0  0  0  0  2  0  0  0  0  0  0
  186.2270  178.7970  144.3460 C   0  0  0  0  0  3  0  0  0  0  0  0
  187.1810  177.7920  144.5500 C   0  0  0  0  0  0  0  0  0  0  0  0
  185.1920  178.5910  143.4300 C   0  0  0  0  0  3  0  0  0  0  0  0
  186.0230  176.4270  142.9280 C   0  0  0  0  0  3  0  0  0  0  0  0
  187.0710  176.5960  143.8350 C   0  0  0  0  0  3  0  0  0  0  0  0
  185.1110  177.4200  142.7450 N   0  0  0  0  0  0  0  0  0  0  0  0
  189.3860  173.8400  137.9720 C   0  0  0  0  0  3  0  0  0  0  0  0
  188.2680  174.0070  138.7860 C   0  0  0  0  0  3  0  0  0  0  0  0
  188.7500  173.6850  140.3640 S   0  0  0  0  0  0  0  0  0  0  0  0
  190.5520  173.4690  138.6560 C   0  0  0  0  0  3  0  0  0  0  0  0
  190.3580  173.3390  140.0230 C   0  0  0  0  0  0  0  0  0  0  0  0
  196.1080  171.8040  145.4930 C   0  0  0  0  0  2  0  0  0  0  0  0
  196.6100  170.5760  144.7270 C   0  0  0  0  0  2  0  0  0  0  0  0
  194.7180  168.3810  147.7690 C   0  0  0  0  0  2  0  0  0  0  0  0
  197.4390  168.2380  144.9990 C   0  0  0  0  0  1  0  0  0  0  0  0
  195.0370  168.7310  145.3190 C   0  0  0  0  0  3  0  0  0  0  0  0
  196.7520  169.5630  146.9780 C   0  0  0  0  0  2  0  0  0  0  0  0
  196.4420  169.2700  145.5050 C   0  0  2  0  0  0  0  0  0  0  0  0
  196.2350  168.4490  147.8840 C   0  0  0  0  0  2  0  0  0  0  0  0
  194.2750  168.2900  146.3330 C   0  0  0  0  0  3  0  0  0  0  0  0
  1  3  1  0  0  0  0
  2  6  1  0  0  0  0
  3 31  1  1  0  0  0
  3 10  1  0  0  0  0
  4 11  1  0  0  0  0
  5  2  1  0  0  0  0
  6 10  1  0  0  0  0
  7  9  1  0  0  0  0
  7  4  2  0  0  0  0
  8  5  1  0  0  0  0
  9  8  2  0  0  0  0
 11  5  2  0  0  0  0
 11  1  1  0  0  0  0
 12 18  1  0  0  0  0
 15 13  1  0  0  0  0
 15 17  2  0  0  0  0
 16  2  1  1  0  0  0
 16 13  1  0  0  0  0
 16 12  1  0  0  0  0
 17 14  1  0  0  0  0
 18 14  1  0  0  0  0
 19 17  1  0  0  0  0
 20 21  1  0  0  0  0
 21 19  1  0  0  0  0
 22 20  2  0  0  0  0
 23 24  1  0  0  0  0
 24 21  2  0  0  0  0
 25 23  2  0  0  0  0
 25 22  1  0  0  0  0
 26 29  1  0  0  0  0
 26 27  2  0  0  0  0
 27 28  1  0  0  0  0
 29 30  2  0  0  0  0
 30 28  1  0  0  0  0
 30  9  1  0  0  0  0
 32 31  1  0  0  0  0
 32 37  1  0  0  0  0
 33 38  1  0  0  0  0
 35 37  1  0  0  0  0
 35 39  2  0  0  0  0
 36 38  1  0  0  0  0
 37 34  1  6  0  0  0
 37 36  1  0  0  0  0
 39 33  1  0  0  0  0
M  END
>  <MODEL>
4

>  <REMARK>
 VINA RESULT:      -7.6      3.093      9.051
  Name = 
  7 active torsions:
  status: ('A' for Active; 'I' for Inactive)
    1  A    between atoms: C_3  and  N_13
    2  A    between atoms: N_5  and  C_31
    3  A    between atoms: N_13  and  C_33
    4  A    between atoms: C_15  and  C_18
    5  A    between atoms: C_18  and  C_34
    6  A    between atoms: C_27  and  C_34
    7  A    between atoms: C_30  and  C_32
                            x       y       z     vdW  Elec       q    Type
                         _______ _______ _______ _____ _____    ______ ____

>  <TORSDO>
F 7

$$$$
=
 OpenBabel11042414593D

 39 44  0  0  1  0  0  0  0  0999 V2000
  188.1450  175.2480  141.5920 N   0  0  0  0  0  2  0  0  0  0  0  0
  190.4090  174.5890  143.4350 N   0  0  0  0  0  0  0  0  0  0  0  0
  187.6400  175.7470  142.8660 C   0  0  1  0  0  3  0  0  0  0  0  0
  188.8580  173.3820  140.2320 C   0  0  0  0  0  3  0  0  0  0  0  0
  190.0980  173.8100  142.2660 C   0  0  0  0  0  0  0  0  0  0  0  0
  189.3900  174.9710  144.3230 N   0  0  0  0  0  2  0  0  0  0  0  0
  189.7130  172.3230  139.9380 C   0  0  0  0  0  3  0  0  0  0  0  0
  190.9220  172.7730  141.9380 N   0  0  0  0  0  0  0  0  0  0  0  0
  190.7540  172.0220  140.8160 C   0  0  0  0  0  0  0  0  0  0  0  0
  188.7670  176.1630  143.7840 C   0  0  0  0  0  2  0  0  0  0  0  0
  189.0210  174.1300  141.4000 C   0  0  0  0  0  0  0  0  0  0  0  0
  192.3940  175.9960  143.2120 C   0  0  0  0  0  2  0  0  0  0  0  0
  191.9950  174.7260  145.3470 C   0  0  0  0  0  2  0  0  0  0  0  0
  194.4390  176.2010  144.6520 C   0  0  0  0  0  2  0  0  0  0  0  0
  193.3640  174.2510  145.7220 C   0  0  0  0  0  3  0  0  0  0  0  0
  191.8150  174.7250  143.8270 C   0  0  1  0  0  3  0  0  0  0  0  0
  194.4880  174.8980  145.4030 C   0  0  0  0  0  0  0  0  0  0  0  0
  193.9180  175.9990  143.2360 C   0  0  0  0  0  2  0  0  0  0  0  0
  195.7330  174.3230  145.8260 N   0  0  0  0  0  2  0  0  0  0  0  0
  196.5410  171.9920  146.1190 C   0  0  0  0  0  3  0  0  0  0  0  0
  196.3810  173.1410  145.3330 C   0  0  0  0  0  0  0  0  0  0  0  0
  197.1980  170.8790  145.5880 C   0  0  0  0  0  3  0  0  0  0  0  0
  197.5430  172.0190  143.5370 C   0  0  0  0  0  3  0  0  0  0  0  0
  196.8920  173.1510  144.0330 C   0  0  0  0  0  3  0  0  0  0  0  0
  197.6820  170.9150  144.3180 N   0  0  0  0  0  0  0  0  0  0  0  0
  193.5210  169.7930  139.6600 C   0  0  0  0  0  3  0  0  0  0  0  0
  192.9210  168.7320  140.3350 C   0  0  0  0  0  3  0  0  0  0  0  0
  191.5280  169.3310  141.0620 S   0  0  0  0  0  0  0  0  0  0  0  0
  192.8350  171.0110  139.7650 C   0  0  0  0  0  3  0  0  0  0  0  0
  191.6810  170.9160  140.5290 C   0  0  0  0  0  0  0  0  0  0  0  0
  186.6730  176.9030  142.6320 C   0  0  0  0  0  2  0  0  0  0  0  0
  186.8720  178.0350  143.6440 C   0  0  0  0  0  2  0  0  0  0  0  0
  185.4600  178.1570  147.5990 C   0  0  0  0  0  2  0  0  0  0  0  0
  184.4000  178.3010  143.8630 C   0  0  0  0  0  1  0  0  0  0  0  0
  185.9000  179.4100  145.4870 C   0  0  0  0  0  3  0  0  0  0  0  0
  185.6580  176.8950  145.4720 C   0  0  0  0  0  2  0  0  0  0  0  0
  185.7100  178.1750  144.6280 C   0  0  2  0  0  0  0  0  0  0  0  0
  184.8100  177.0920  146.7250 C   0  0  0  0  0  2  0  0  0  0  0  0
  185.7460  179.4130  146.8200 C   0  0  0  0  0  3  0  0  0  0  0  0
  1  3  1  0  0  0  0
  2 16  1  0  0  0  0
  2  6  1  0  0  0  0
  3 31  1  6  0  0  0
  3 10  1  0  0  0  0
  4 11  1  0  0  0  0
  5  2  1  0  0  0  0
  7  4  2  0  0  0  0
  7  9  1  0  0  0  0
  8  5  1  0  0  0  0
  9  8  2  0  0  0  0
 10  6  1  0  0  0  0
 11  1  1  0  0  0  0
 11  5  2  0  0  0  0
 12 18  1  0  0  0  0
 13 15  1  0  0  0  0
 14 17  1  0  0  0  0
 16 12  1  1  0  0  0
 16 13  1  0  0  0  0
 17 15  2  0  0  0  0
 17 19  1  0  0  0  0
 18 14  1  0  0  0  0
 21 19  1  0  0  0  0
 21 20  2  0  0  0  0
 22 20  1  0  0  0  0
 23 24  2  0  0  0  0
 23 25  1  0  0  0  0
 24 21  1  0  0  0  0
 25 22  2  0  0  0  0
 26 29  1  0  0  0  0
 26 27  2  0  0  0  0
 27 28  1  0  0  0  0
 29 30  2  0  0  0  0
 30  9  1  0  0  0  0
 30 28  1  0  0  0  0
 31 32  1  0  0  0  0
 32 37  1  0  0  0  0
 35 39  2  0  0  0  0
 36 38  1  0  0  0  0
 37 34  1  6  0  0  0
 37 36  1  0  0  0  0
 37 35  1  0  0  0  0
 38 33  1  0  0  0  0
 39 33  1  0  0  0  0
M  END
>  <MODEL>
5

>  <REMARK>
 VINA RESULT:      -7.6      1.949      3.210
  Name = 
  7 active torsions:
  status: ('A' for Active; 'I' for Inactive)
    1  A    between atoms: C_3  and  N_13
    2  A    between atoms: N_5  and  C_31
    3  A    between atoms: N_13  and  C_33
    4  A    between atoms: C_15  and  C_18
    5  A    between atoms: C_18  and  C_34
    6  A    between atoms: C_27  and  C_34
    7  A    between atoms: C_30  and  C_32
                            x       y       z     vdW  Elec       q    Type
                         _______ _______ _______ _____ _____    ______ ____

>  <TORSDO>
F 7

$$$$
=
 OpenBabel11042414593D

 39 44  0  0  1  0  0  0  0  0999 V2000
  191.0760  175.6290  145.0220 N   0  0  0  0  0  2  0  0  0  0  0  0
  190.0210  174.1920  142.6180 N   0  0  0  0  0  0  0  0  0  0  0  0
  191.5200  174.2640  145.2790 C   0  0  1  0  0  3  0  0  0  0  0  0
  189.2620  177.2010  144.7370 C   0  0  0  0  0  3  0  0  0  0  0  0
  189.3810  175.3510  143.1810 C   0  0  0  0  0  0  0  0  0  0  0  0
  190.4380  173.1390  143.4480 N   0  0  0  0  0  2  0  0  0  0  0  0
  188.1440  177.6890  144.0660 C   0  0  0  0  0  3  0  0  0  0  0  0
  188.2910  175.8660  142.5430 N   0  0  0  0  0  0  0  0  0  0  0  0
  187.6590  176.9980  142.9560 C   0  0  0  0  0  0  0  0  0  0  0  0
  191.7310  173.4990  143.9920 C   0  0  0  0  0  2  0  0  0  0  0  0
  189.8880  176.0240  144.3220 C   0  0  0  0  0  0  0  0  0  0  0  0
  191.3070  173.4610  140.6720 C   0  0  0  0  0  2  0  0  0  0  0  0
  188.8190  173.0890  140.7390 C   0  0  0  0  0  2  0  0  0  0  0  0
  190.5640  172.6490  138.4170 C   0  0  0  0  0  2  0  0  0  0  0  0
  188.3930  173.3860  139.3350 C   0  0  0  0  0  3  0  0  0  0  0  0
  189.9690  174.0060  141.1640 C   0  0  1  0  0  3  0  0  0  0  0  0
  189.1760  173.2080  138.2680 C   0  0  0  0  0  0  0  0  0  0  0  0
  191.4680  173.6190  139.1660 C   0  0  0  0  0  2  0  0  0  0  0  0
  188.6350  173.5380  136.9800 N   0  0  0  0  0  2  0  0  0  0  0  0
  187.7980  175.6700  136.0190 C   0  0  0  0  0  3  0  0  0  0  0  0
  188.8250  174.7370  136.2160 C   0  0  0  0  0  0  0  0  0  0  0  0
  188.0390  176.8100  135.2480 C   0  0  0  0  0  3  0  0  0  0  0  0
  190.2750  176.1170  134.8630 C   0  0  0  0  0  3  0  0  0  0  0  0
  190.0710  174.9650  135.6270 C   0  0  0  0  0  3  0  0  0  0  0  0
  189.2630  177.0090  134.6900 N   0  0  0  0  0  0  0  0  0  0  0  0
  184.3360  178.2900  141.8390 C   0  0  0  0  0  3  0  0  0  0  0  0
  184.7940  178.2710  140.5230 C   0  0  0  0  0  3  0  0  0  0  0  0
  186.3790  177.7110  140.5580 S   0  0  0  0  0  0  0  0  0  0  0  0
  185.2740  177.8570  142.7860 C   0  0  0  0  0  3  0  0  0  0  0  0
  186.4860  177.4930  142.2190 C   0  0  0  0  0  0  0  0  0  0  0  0
  192.7900  174.2740  146.1220 C   0  0  0  0  0  2  0  0  0  0  0  0
  193.9090  173.4410  145.4890 C   0  0  0  0  0  2  0  0  0  0  0  0
  195.9390  176.4160  143.3260 C   0  0  0  0  0  2  0  0  0  0  0  0
  196.3020  173.7490  146.1280 C   0  0  0  0  0  1  0  0  0  0  0  0
  194.9390  175.7150  145.5010 C   0  0  0  0  0  3  0  0  0  0  0  0
  195.5920  173.9980  143.7660 C   0  0  0  0  0  2  0  0  0  0  0  0
  195.1830  174.2450  145.2240 C   0  0  2  0  0  0  0  0  0  0  0  0
  196.5980  175.0430  143.2900 C   0  0  0  0  0  2  0  0  0  0  0  0
  195.3170  176.6970  144.6680 C   0  0  0  0  0  3  0  0  0  0  0  0
  1  3  1  0  0  0  0
  2  5  1  0  0  0  0
  2  6  1  0  0  0  0
  3 31  1  6  0  0  0
  5 11  2  0  0  0  0
  6 10  1  0  0  0  0
  7  4  2  0  0  0  0
  8  9  2  0  0  0  0
  8  5  1  0  0  0  0
  9  7  1  0  0  0  0
 10  3  1  0  0  0  0
 11  4  1  0  0  0  0
 11  1  1  0  0  0  0
 13 16  1  0  0  0  0
 14 18  1  0  0  0  0
 15 13  1  0  0  0  0
 16 12  1  1  0  0  0
 16  2  1  0  0  0  0
 17 14  1  0  0  0  0
 17 15  2  0  0  0  0
 18 12  1  0  0  0  0
 19 17  1  0  0  0  0
 20 21  1  0  0  0  0
 21 19  1  0  0  0  0
 22 20  2  0  0  0  0
 23 24  1  0  0  0  0
 24 21  2  0  0  0  0
 25 23  2  0  0  0  0
 25 22  1  0  0  0  0
 26 29  1  0  0  0  0
 27 28  1  0  0  0  0
 27 26  2  0  0  0  0
 28 30  1  0  0  0  0
 30 29  2  0  0  0  0
 30  9  1  0  0  0  0
 32 31  1  0  0  0  0
 33 39  1  0  0  0  0
 36 37  1  0  0  0  0
 37 32  1  0  0  0  0
 37 35  1  0  0  0  0
 37 34  1  1  0  0  0
 38 33  1  0  0  0  0
 38 36  1  0  0  0  0
 39 35  2  0  0  0  0
M  END
>  <MODEL>
6

>  <REMARK>
 VINA RESULT:      -7.4      3.103      8.202
  Name = 
  7 active torsions:
  status: ('A' for Active; 'I' for Inactive)
    1  A    between atoms: C_3  and  N_13
    2  A    between atoms: N_5  and  C_31
    3  A    between atoms: N_13  and  C_33
    4  A    between atoms: C_15  and  C_18
    5  A    between atoms: C_18  and  C_34
    6  A    between atoms: C_27  and  C_34
    7  A    between atoms: C_30  and  C_32
                            x       y       z     vdW  Elec       q    Type
                         _______ _______ _______ _____ _____    ______ ____

>  <TORSDO>
F 7

$$$$
=
 OpenBabel11042414593D

 39 44  0  0  1  0  0  0  0  0999 V2000
  189.3270  175.1980  143.5500 N   0  0  0  0  0  2  0  0  0  0  0  0
  192.2510  174.6290  143.2590 N   0  0  0  0  0  0  0  0  0  0  0  0
  189.8180  175.4960  144.8900 C   0  0  1  0  0  3  0  0  0  0  0  0
  188.9530  173.5840  141.7900 C   0  0  0  0  0  3  0  0  0  0  0  0
  191.2400  173.9440  142.4980 C   0  0  0  0  0  0  0  0  0  0  0  0
  192.1050  174.7900  144.6460 N   0  0  0  0  0  2  0  0  0  0  0  0
  189.3960  172.6730  140.8360 C   0  0  0  0  0  3  0  0  0  0  0  0
  191.6360  173.0550  141.5420 N   0  0  0  0  0  0  0  0  0  0  0  0
  190.7610  172.4100  140.7240 C   0  0  0  0  0  0  0  0  0  0  0  0
  191.2610  175.9480  144.8640 C   0  0  0  0  0  2  0  0  0  0  0  0
  189.8560  174.2200  142.6450 C   0  0  0  0  0  0  0  0  0  0  0  0
  193.6520  176.3780  142.2850 C   0  0  0  0  0  2  0  0  0  0  0  0
  194.7210  174.4430  143.4890 C   0  0  0  0  0  2  0  0  0  0  0  0
  196.1340  176.4900  141.9250 C   0  0  0  0  0  2  0  0  0  0  0  0
  195.9190  174.1370  142.6450 C   0  0  0  0  0  3  0  0  0  0  0  0
  193.5430  174.8920  142.6200 C   0  0  1  0  0  3  0  0  0  0  0  0
  196.5660  175.0500  141.9150 C   0  0  0  0  0  0  0  0  0  0  0  0
  194.7630  176.6560  141.2800 C   0  0  0  0  0  2  0  0  0  0  0  0
  197.7000  174.6120  141.1510 N   0  0  0  0  0  2  0  0  0  0  0  0
  197.8960  175.3460  138.7860 C   0  0  0  0  0  3  0  0  0  0  0  0
  197.7710  174.3330  139.7450 C   0  0  0  0  0  0  0  0  0  0  0  0
  197.9410  175.0120  137.4300 C   0  0  0  0  0  3  0  0  0  0  0  0
  197.7330  172.7090  137.9570 C   0  0  0  0  0  3  0  0  0  0  0  0
  197.6840  173.0040  139.3210 C   0  0  0  0  0  3  0  0  0  0  0  0
  197.8590  173.7100  137.0460 N   0  0  0  0  0  0  0  0  0  0  0  0
  191.6600  170.5110  137.6340 C   0  0  0  0  0  3  0  0  0  0  0  0
  192.3190  169.5740  138.4270 C   0  0  0  0  0  3  0  0  0  0  0  0
  192.1580  170.0740  140.0240 S   0  0  0  0  0  0  0  0  0  0  0  0
  191.0700  171.5630  138.3480 C   0  0  0  0  0  3  0  0  0  0  0  0
  191.2620  171.4610  139.7180 C   0  0  0  0  0  0  0  0  0  0  0  0
  188.9310  176.5450  145.5540 C   0  0  0  0  0  2  0  0  0  0  0  0
  188.2100  177.4240  144.5270 C   0  0  0  0  0  2  0  0  0  0  0  0
  184.7530  178.5670  146.6220 C   0  0  0  0  0  2  0  0  0  0  0  0
  186.0770  176.5330  143.5880 C   0  0  0  0  0  1  0  0  0  0  0  0
  186.1330  178.8070  144.5570 C   0  0  0  0  0  3  0  0  0  0  0  0
  186.3650  176.7730  146.0390 C   0  0  0  0  0  2  0  0  0  0  0  0
  186.6880  177.4020  144.6770 C   0  0  2  0  0  0  0  0  0  0  0  0
  184.9250  177.0630  146.4530 C   0  0  0  0  0  2  0  0  0  0  0  0
  185.2290  179.3190  145.4070 C   0  0  0  0  0  3  0  0  0  0  0  0
  1  3  1  0  0  0  0
  2  6  1  0  0  0  0
  3 31  1  6  0  0  0
  4 11  1  0  0  0  0
  5 11  2  0  0  0  0
  5  2  1  0  0  0  0
  6 10  1  0  0  0  0
  7  4  2  0  0  0  0
  8  5  1  0  0  0  0
  9  7  1  0  0  0  0
  9  8  2  0  0  0  0
 10  3  1  0  0  0  0
 11  1  1  0  0  0  0
 15 13  1  0  0  0  0
 16 12  1  1  0  0  0
 16  2  1  0  0  0  0
 16 13  1  0  0  0  0
 17 14  1  0  0  0  0
 17 15  2  0  0  0  0
 18 14  1  0  0  0  0
 18 12  1  0  0  0  0
 19 17  1  0  0  0  0
 20 21  1  0  0  0  0
 21 19  1  0  0  0  0
 22 20  2  0  0  0  0
 23 24  1  0  0  0  0
 24 21  2  0  0  0  0
 25 22  1  0  0  0  0
 25 23  2  0  0  0  0
 26 29  1  0  0  0  0
 26 27  2  0  0  0  0
 27 28  1  0  0  0  0
 29 30  2  0  0  0  0
 30 28  1  0  0  0  0
 30  9  1  0  0  0  0
 32 37  1  0  0  0  0
 32 31  1  0  0  0  0
 35 37  1  0  0  0  0
 35 39  2  0  0  0  0
 36 38  1  0  0  0  0
 37 34  1  6  0  0  0
 37 36  1  0  0  0  0
 38 33  1  0  0  0  0
 39 33  1  0  0  0  0
M  END
>  <MODEL>
7

>  <REMARK>
 VINA RESULT:      -7.4      1.810      3.112
  Name = 
  7 active torsions:
  status: ('A' for Active; 'I' for Inactive)
    1  A    between atoms: C_3  and  N_13
    2  A    between atoms: N_5  and  C_31
    3  A    between atoms: N_13  and  C_33
    4  A    between atoms: C_15  and  C_18
    5  A    between atoms: C_18  and  C_34
    6  A    between atoms: C_27  and  C_34
    7  A    between atoms: C_30  and  C_32
                            x       y       z     vdW  Elec       q    Type
                         _______ _______ _______ _____ _____    ______ ____

>  <TORSDO>
F 7

$$$$
=
 OpenBabel11042414593D

 39 44  0  0  1  0  0  0  0  0999 V2000
  191.1690  176.7050  145.9550 N   0  0  0  0  0  2  0  0  0  0  0  0
  190.7410  175.5820  143.2150 N   0  0  0  0  0  0  0  0  0  0  0  0
  189.8420  177.2150  145.6350 C   0  0  1  0  0  3  0  0  0  0  0  0
  193.5390  176.6510  145.4840 C   0  0  0  0  0  3  0  0  0  0  0  0
  192.0420  175.9180  143.7290 C   0  0  0  0  0  0  0  0  0  0  0  0
  189.6710  176.4810  143.3500 N   0  0  0  0  0  2  0  0  0  0  0  0
  194.6300  176.3620  144.6680 C   0  0  0  0  0  3  0  0  0  0  0  0
  193.1360  175.6360  142.9640 N   0  0  0  0  0  0  0  0  0  0  0  0
  194.4100  175.8520  143.3890 C   0  0  0  0  0  0  0  0  0  0  0  0
  189.1140  176.3010  144.6750 C   0  0  0  0  0  2  0  0  0  0  0  0
  192.2340  176.4520  145.0290 C   0  0  0  0  0  0  0  0  0  0  0  0
  190.8290  173.1420  143.1010 C   0  0  0  0  0  2  0  0  0  0  0  0
  189.2860  174.4110  141.5710 C   0  0  0  0  0  2  0  0  0  0  0  0
  189.8710  171.5350  141.4280 C   0  0  0  0  0  2  0  0  0  0  0  0
  189.4060  173.6700  140.2760 C   0  0  0  0  0  3  0  0  0  0  0  0
  190.6250  174.4320  142.3120 C   0  0  1  0  0  3  0  0  0  0  0  0
  189.6860  172.3670  140.1890 C   0  0  0  0  0  0  0  0  0  0  0  0
  191.1200  171.9560  142.1900 C   0  0  0  0  0  2  0  0  0  0  0  0
  189.7730  171.7890  138.8780 N   0  0  0  0  0  2  0  0  0  0  0  0
  192.2190  171.7490  138.4430 C   0  0  0  0  0  3  0  0  0  0  0  0
  190.9280  171.2520  138.2170 C   0  0  0  0  0  0  0  0  0  0  0  0
  193.3010  171.1970  137.7540 C   0  0  0  0  0  3  0  0  0  0  0  0
  191.8590  169.6890  136.6270 C   0  0  0  0  0  3  0  0  0  0  0  0
  190.7520  170.2160  137.2960 C   0  0  0  0  0  3  0  0  0  0  0  0
  193.1020  170.1860  136.8670 N   0  0  0  0  0  0  0  0  0  0  0  0
  197.2890  174.3120  141.5710 C   0  0  0  0  0  3  0  0  0  0  0  0
  197.3870  175.4640  140.7940 C   0  0  0  0  0  3  0  0  0  0  0  0
  196.1820  176.5160  141.3110 S   0  0  0  0  0  0  0  0  0  0  0  0
  196.2620  174.3420  142.5260 C   0  0  0  0  0  3  0  0  0  0  0  0
  195.5410  175.5260  142.5070 C   0  0  0  0  0  0  0  0  0  0  0  0
  189.0330  177.4180  146.9120 C   0  0  0  0  0  2  0  0  0  0  0  0
  187.5980  176.9020  146.7750 C   0  0  0  0  0  2  0  0  0  0  0  0
  184.0750  178.6740  145.3260 C   0  0  0  0  0  2  0  0  0  0  0  0
  186.9270  179.0030  147.9440 C   0  0  0  0  0  1  0  0  0  0  0  0
  185.1900  177.4210  147.1730 C   0  0  0  0  0  3  0  0  0  0  0  0
  186.5490  178.7480  145.5070 C   0  0  0  0  0  2  0  0  0  0  0  0
  186.5480  178.0120  146.8530 C   0  0  2  0  0  0  0  0  0  0  0  0
  185.2900  179.5930  145.3390 C   0  0  0  0  0  2  0  0  0  0  0  0
  184.0670  177.7510  146.5140 C   0  0  0  0  0  3  0  0  0  0  0  0
  2  6  1  0  0  0  0
  2  5  1  0  0  0  0
  3  1  1  0  0  0  0
  3 31  1  1  0  0  0
  5 11  2  0  0  0  0
  6 10  1  0  0  0  0
  7  4  2  0  0  0  0
  8  9  2  0  0  0  0
  8  5  1  0  0  0  0
  9  7  1  0  0  0  0
 10  3  1  0  0  0  0
 11  4  1  0  0  0  0
 11  1  1  0  0  0  0
 14 18  1  0  0  0  0
 15 13  1  0  0  0  0
 16 13  1  1  0  0  0
 16 12  1  0  0  0  0
 16  2  1  0  0  0  0
 17 15  2  0  0  0  0
 17 14  1  0  0  0  0
 18 12  1  0  0  0  0
 19 17  1  0  0  0  0
 21 20  1  0  0  0  0
 21 19  1  0  0  0  0
 22 20  2  0  0  0  0
 23 25  2  0  0  0  0
 23 24  1  0  0  0  0
 24 21  2  0  0  0  0
 25 22  1  0  0  0  0
 26 29  1  0  0  0  0
 27 28  1  0  0  0  0
 27 26  2  0  0  0  0
 28 30  1  0  0  0  0
 30 29  2  0  0  0  0
 30  9  1  0  0  0  0
 32 37  1  0  0  0  0
 32 31  1  0  0  0  0
 33 38  1  0  0  0  0
 33 39  1  0  0  0  0
 36 37  1  0  0  0  0
 37 35  1  0  0  0  0
 37 34  1  1  0  0  0
 38 36  1  0  0  0  0
 39 35  2  0  0  0  0
M  END
>  <MODEL>
8

>  <REMARK>
 VINA RESULT:      -7.3      2.415      5.566
  Name = 
  7 active torsions:
  status: ('A' for Active; 'I' for Inactive)
    1  A    between atoms: C_3  and  N_13
    2  A    between atoms: N_5  and  C_31
    3  A    between atoms: N_13  and  C_33
    4  A    between atoms: C_15  and  C_18
    5  A    between atoms: C_18  and  C_34
    6  A    between atoms: C_27  and  C_34
    7  A    between atoms: C_30  and  C_32
                            x       y       z     vdW  Elec       q    Type
                         _______ _______ _______ _____ _____    ______ ____

>  <TORSDO>
F 7

$$$$
=
 OpenBabel11042414593D

 39 44  0  0  1  0  0  0  0  0999 V2000
  191.6180  172.7000  141.5380 N   0  0  0  0  0  2  0  0  0  0  0  0
  191.2660  174.9500  143.4790 N   0  0  0  0  0  0  0  0  0  0  0  0
  192.9880  172.9180  141.9850 C   0  0  1  0  0  3  0  0  0  0  0  0
  189.6520  173.5250  140.3980 C   0  0  0  0  0  3  0  0  0  0  0  0
  190.4130  174.7620  142.3350 C   0  0  0  0  0  0  0  0  0  0  0  0
  192.6610  174.8770  143.3420 N   0  0  0  0  0  2  0  0  0  0  0  0
  188.5840  174.4070  140.2600 C   0  0  0  0  0  3  0  0  0  0  0  0
  189.3470  175.5980  142.1740 N   0  0  0  0  0  0  0  0  0  0  0  0
  188.4440  175.4580  141.1660 C   0  0  0  0  0  0  0  0  0  0  0  0
  193.0310  173.4770  143.3890 C   0  0  0  0  0  2  0  0  0  0  0  0
  190.5900  173.6920  141.4200 C   0  0  0  0  0  0  0  0  0  0  0  0
  191.4140  174.9390  145.9180 C   0  0  0  0  0  2  0  0  0  0  0  0
  190.6830  177.0270  144.7190 C   0  0  0  0  0  2  0  0  0  0  0  0
  190.6180  176.5980  147.6250 C   0  0  0  0  0  2  0  0  0  0  0  0
  189.5910  177.5580  145.5940 C   0  0  0  0  0  3  0  0  0  0  0  0
  190.6750  175.4960  144.7040 C   0  0  1  0  0  3  0  0  0  0  0  0
  189.5340  177.3610  146.9130 C   0  0  0  0  0  0  0  0  0  0  0  0
  190.6240  175.1340  147.2060 C   0  0  0  0  0  2  0  0  0  0  0  0
  188.4240  177.9270  147.6260 N   0  0  0  0  0  2  0  0  0  0  0  0
  186.1620  178.9540  147.6290 C   0  0  0  0  0  3  0  0  0  0  0  0
  187.0370  177.9230  147.2600 C   0  0  0  0  0  0  0  0  0  0  0  0
  184.8170  178.8840  147.2590 C   0  0  0  0  0  3  0  0  0  0  0  0
  185.1880  176.8030  146.1830 C   0  0  0  0  0  3  0  0  0  0  0  0
  186.5390  176.8380  146.5350 C   0  0  0  0  0  3  0  0  0  0  0  0
  184.3600  177.8180  146.5490 N   0  0  0  0  0  0  0  0  0  0  0  0
  185.5630  177.7750  141.7050 C   0  0  0  0  0  3  0  0  0  0  0  0
  185.5010  177.9850  140.3290 C   0  0  0  0  0  3  0  0  0  0  0  0
  186.7200  177.0610  139.6310 S   0  0  0  0  0  0  0  0  0  0  0  0
  186.5740  176.8940  142.1130 C   0  0  0  0  0  3  0  0  0  0  0  0
  187.3200  176.4010  141.0530 C   0  0  0  0  0  0  0  0  0  0  0  0
  193.7850  171.6200  141.8910 C   0  0  0  0  0  2  0  0  0  0  0  0
  195.2720  171.8740  141.6280 C   0  0  0  0  0  2  0  0  0  0  0  0
  196.1300  172.0810  145.7350 C   0  0  0  0  0  2  0  0  0  0  0  0
  197.3570  170.6900  142.3210 C   0  0  0  0  0  1  0  0  0  0  0  0
  195.3860  170.6740  143.8130 C   0  0  0  0  0  3  0  0  0  0  0  0
  196.6870  172.8050  143.4280 C   0  0  0  0  0  2  0  0  0  0  0  0
  196.1660  171.5010  142.8110 C   0  0  2  0  0  0  0  0  0  0  0  0
  197.2510  172.5680  144.8260 C   0  0  0  0  0  2  0  0  0  0  0  0
  195.4020  170.9070  145.1350 C   0  0  0  0  0  3  0  0  0  0  0  0
  1  3  1  0  0  0  0
  3 31  1  1  0  0  0
  3 10  1  0  0  0  0
  4 11  1  0  0  0  0
  5  2  1  0  0  0  0
  6 10  1  0  0  0  0
  6  2  1  0  0  0  0
  7  4  2  0  0  0  0
  7  9  1  0  0  0  0
  8  5  1  0  0  0  0
  9  8  2  0  0  0  0
 11  1  1  0  0  0  0
 11  5  2  0  0  0  0
 12 18  1  0  0  0  0
 13 15  1  0  0  0  0
 15 17  2  0  0  0  0
 16  2  1  6  0  0  0
 16 13  1  0  0  0  0
 16 12  1  0  0  0  0
 17 14  1  0  0  0  0
 17 19  1  0  0  0  0
 18 14  1  0  0  0  0
 21 19  1  0  0  0  0
 21 20  1  0  0  0  0
 22 20  2  0  0  0  0
 23 24  1  0  0  0  0
 23 25  2  0  0  0  0
 24 21  2  0  0  0  0
 25 22  1  0  0  0  0
 26 29  1  0  0  0  0
 27 26  2  0  0  0  0
 28 27  1  0  0  0  0
 28 30  1  0  0  0  0
 30  9  1  0  0  0  0
 30 29  2  0  0  0  0
 32 31  1  0  0  0  0
 32 37  1  0  0  0  0
 35 39  2  0  0  0  0
 36 38  1  0  0  0  0
 37 34  1  6  0  0  0
 37 36  1  0  0  0  0
 37 35  1  0  0  0  0
 38 33  1  0  0  0  0
 39 33  1  0  0  0  0
M  END
>  <MODEL>
9

>  <REMARK>
 VINA RESULT:      -7.3      2.639      9.048
  Name = 
  7 active torsions:
  status: ('A' for Active; 'I' for Inactive)
    1  A    between atoms: C_3  and  N_13
    2  A    between atoms: N_5  and  C_31
    3  A    between atoms: N_13  and  C_33
    4  A    between atoms: C_15  and  C_18
    5  A    between atoms: C_18  and  C_34
    6  A    between atoms: C_27  and  C_34
    7  A    between atoms: C_30  and  C_32
                            x       y       z     vdW  Elec       q    Type
                         _______ _______ _______ _____ _____    ______ ____

>  <TORSDO>
F 7

$$$$
