=
 OpenBabel11042415193D

 45 49  0  0  1  0  0  0  0  0999 V2000
  194.4630  174.9530  145.0910 C   0  0  0  0  0  2  0  0  0  0  0  0
  191.4740  174.0960  144.7000 C   0  0  0  0  0  2  0  0  0  0  0  0
  194.7990  176.3950  145.4290 C   0  0  0  0  0  2  0  0  0  0  0  0
  194.0700  176.8110  146.7060 C   0  0  0  0  0  2  0  0  0  0  0  0
  193.4270  174.8560  144.0580 N   0  0  2  0  0  0  0  0  0  0  0  0
  191.9350  176.5490  145.4380 C   0  0  2  0  0  3  0  0  0  0  0  0
  192.0990  175.4350  144.3740 C   0  0  2  0  0  3  0  0  0  0  0  0
  192.8290  173.5390  144.2910 C   0  0  2  0  0  3  0  0  0  0  0  0
  192.6360  176.2830  146.7600 C   0  0  0  0  0  2  0  0  0  0  0  0
  192.7800  172.7100  143.0310 C   0  0  0  0  0  0  0  0  0  0  0  0
  192.7260  170.8930  141.5350 C   0  0  2  0  0  3  0  0  0  0  0  0
  194.5370  169.7100  140.5340 O   0  0  0  0  0  0  0  0  0  0  0  0
  192.6660  171.3810  142.9370 C   0  0  0  0  0  0  0  0  0  0  0  0
  193.2000  169.1960  143.8570 C   0  0  0  0  0  3  0  0  0  0  0  0
  193.7570  169.7950  141.4690 C   0  0  0  0  0  0  0  0  0  0  0  0
  192.9940  173.3400  141.7000 C   0  0  0  0  0  2  0  0  0  0  0  0
  193.2190  172.2120  139.4710 C   0  0  0  0  0  3  0  0  0  0  0  0
  193.0510  172.1510  140.7970 C   0  0  0  0  0  0  0  0  0  0  0  0
  193.7250  168.7120  142.5200 C   0  0  0  0  0  2  0  0  0  0  0  0
  192.7260  170.4310  144.0560 C   0  0  0  0  0  3  0  0  0  0  0  0
  193.4900  173.7670  138.6140 S   0  0  0  0  0  0  0  0  0  0  0  0
  191.8210  173.7460  137.9090 C   0  0  0  0  0  2  0  0  0  0  0  0
  191.3480  172.0360  137.5400 S   0  0  0  0  0  0  0  0  0  0  0  0
  189.7390  172.2240  138.3680 C   0  0  0  0  0  2  0  0  0  0  0  0
  189.3920  173.6950  138.5290 C   0  0  0  0  0  2  0  0  0  0  0  0
  188.7790  173.9260  139.8240 N   0  0  0  0  0  2  0  0  0  0  0  0
  189.2570  172.8750  140.7150 C   0  0  0  0  0  2  0  0  0  0  0  0
  188.6690  174.3130  142.6440 C   0  0  0  0  0  1  0  0  0  0  0  0
  188.5240  172.9250  142.0520 C   0  0  0  0  0  0  0  0  0  0  0  0
  187.1680  172.6500  141.8650 O   0  0  0  0  0  1  0  0  0  0  0  0
  189.1260  171.9150  143.0180 C   0  0  0  0  0  1  0  0  0  0  0  0
  190.2760  178.3140  143.9280 O   0  0  0  0  0  0  0  0  0  0  0  0
  190.5190  176.7960  145.6780 N   0  0  0  0  0  2  0  0  0  0  0  0
  188.3070  177.6020  144.9440 N   0  0  0  0  0  2  0  0  0  0  0  0
  189.7260  177.6120  144.8170 C   0  0  0  0  0  0  0  0  0  0  0  0
  184.6980  177.2160  143.7510 O   0  0  0  0  0  0  0  0  0  0  0  0
  186.9480  177.6060  142.8690 C   0  0  1  0  0  3  0  0  0  0  0  0
  185.7850  176.7350  146.2700 O   0  0  0  0  0  1  0  0  0  0  0  0
  184.0390  178.6420  145.8570 O   0  0  0  0  0  0  0  0  0  0  0  0
  185.2050  177.9250  145.2120 P   0  0  2  0  0  0  0  0  0  0  0  0
  187.4500  178.4160  144.0880 C   0  0  1  0  0  3  0  0  0  0  0  0
  186.4320  179.0530  144.8420 O   0  0  0  0  0  0  0  0  0  0  0  0
  185.8350  176.5970  143.2100 C   0  0  0  0  0  2  0  0  0  0  0  0
  186.7150  178.3640  141.6980 O   0  0  0  0  0  0  0  0  0  0  0  0
  187.0740  177.6030  140.5720 C   0  0  0  0  0  1  0  0  0  0  0  0
  1  3  1  0  0  0  0
  3  4  1  0  0  0  0
  4  9  1  0  0  0  0
  5  8  1  0  0  0  0
  5  7  1  0  0  0  0
  5  1  1  1  0  0  0
  6 33  1  1  0  0  0
  6  9  1  0  0  0  0
  7  2  1  1  0  0  0
  7  6  1  0  0  0  0
  8 10  1  6  0  0  0
  8  2  1  0  0  0  0
 11 18  1  6  0  0  0
 11 13  1  0  0  0  0
 12 15  2  0  0  0  0
 13 10  2  0  0  0  0
 13 20  1  0  0  0  0
 14 20  2  0  0  0  0
 15 11  1  0  0  0  0
 15 19  1  0  0  0  0
 16 10  1  0  0  0  0
 17 18  2  0  0  0  0
 18 16  1  0  0  0  0
 19 14  1  0  0  0  0
 21 17  1  0  0  0  0
 22 21  1  0  0  0  0
 23 22  1  0  0  0  0
 23 24  1  0  0  0  0
 24 25  1  0  0  0  0
 25 26  1  0  0  0  0
 26 27  1  0  0  0  0
 27 29  1  0  0  0  0
 29 28  1  0  0  0  0
 29 31  1  0  0  0  0
 30 29  1  0  0  0  0
 32 35  2  0  0  0  0
 35 34  1  0  0  0  0
 35 33  1  0  0  0  0
 36 40  1  0  0  0  0
 37 44  1  6  0  0  0
 37 43  1  0  0  0  0
 37 41  1  0  0  0  0
 40 39  2  1  0  0  0
 40 38  1  0  0  0  0
 41 42  1  0  0  0  0
 41 34  1  1  0  0  0
 42 40  1  0  0  0  0
 43 36  1  0  0  0  0
 45 44  1  0  0  0  0
M  END
>  <MODEL>
1

>  <REMARK>
 VINA RESULT:      -6.5      0.000      0.000
  Name = 
  12 active torsions:
  status: ('A' for Active; 'I' for Inactive)
    1  A    between atoms: C_1  and  C_41
    2  A    between atoms: N_7  and  C_14
    3  A    between atoms: N_7  and  C_21
    4  A    between atoms: S_8  and  C_9
    5  A    between atoms: S_8  and  C_36
    6  A    between atoms: C_9  and  S_28
    7  A    between atoms: C_12  and  C_21
    8  A    between atoms: N_13  and  C_33
    9  A    between atoms: C_14  and  C_15
   10  A    between atoms: C_15  and  S_28
   11  A    between atoms: C_16  and  O_43
   12  A    between atoms: N_18  and  C_32
                            x       y       z     vdW  Elec       q    Type
                         _______ _______ _______ _____ _____    ______ ____

>  <TORSDO>
F 12

$$$$
=
 OpenBabel11042415193D

 45 49  0  0  1  0  0  0  0  0999 V2000
  195.3810  175.1230  145.7940 C   0  0  0  0  0  2  0  0  0  0  0  0
  194.3160  176.4620  143.1670 C   0  0  0  0  0  2  0  0  0  0  0  0
  196.2440  173.8760  145.7110 C   0  0  0  0  0  2  0  0  0  0  0  0
  197.4740  174.1540  144.8490 C   0  0  0  0  0  2  0  0  0  0  0  0
  194.2490  175.0740  144.8620 N   0  0  2  0  0  0  0  0  0  0  0  0
  195.9190  174.4270  142.9150 C   0  0  2  0  0  3  0  0  0  0  0  0
  194.5650  174.9910  143.4160 C   0  0  2  0  0  3  0  0  0  0  0  0
  193.9250  176.4840  144.6370 C   0  0  2  0  0  3  0  0  0  0  0  0
  197.1460  174.9910  143.6120 C   0  0  0  0  0  2  0  0  0  0  0  0
  192.4600  176.7700  144.8630 C   0  0  0  0  0  0  0  0  0  0  0  0
  190.3140  176.8920  145.8240 C   0  0  2  0  0  3  0  0  0  0  0  0
  188.5200  175.3280  145.7090 O   0  0  0  0  0  0  0  0  0  0  0  0
  191.7550  176.5640  145.9800 C   0  0  0  0  0  0  0  0  0  0  0  0
  191.3610  175.1890  147.9450 C   0  0  0  0  0  3  0  0  0  0  0  0
  189.5140  175.7100  146.3060 C   0  0  0  0  0  0  0  0  0  0  0  0
  191.5940  177.2230  143.7410 C   0  0  0  0  0  2  0  0  0  0  0  0
  189.1060  177.5380  143.7340 C   0  0  0  0  0  3  0  0  0  0  0  0
  190.2360  177.1930  144.3620 C   0  0  0  0  0  0  0  0  0  0  0  0
  189.8840  175.0790  147.6270 C   0  0  0  0  0  2  0  0  0  0  0  0
  192.2290  175.8600  147.1800 C   0  0  0  0  0  3  0  0  0  0  0  0
  189.0830  178.0060  142.0000 S   0  0  0  0  0  0  0  0  0  0  0  0
  187.8400  176.7460  141.6100 C   0  0  0  0  0  2  0  0  0  0  0  0
  186.5430  177.4830  140.5810 S   0  0  0  0  0  0  0  0  0  0  0  0
  185.9230  178.4970  141.9590 C   0  0  0  0  0  2  0  0  0  0  0  0
  185.3290  177.6140  143.0440 C   0  0  0  0  0  2  0  0  0  0  0  0
  184.7330  178.4330  144.0840 N   0  0  0  0  0  2  0  0  0  0  0  0
  185.8080  178.8220  144.9890 C   0  0  0  0  0  2  0  0  0  0  0  0
  186.0640  177.2010  146.8440 C   0  0  0  0  0  1  0  0  0  0  0  0
  185.4340  178.5180  146.4360 C   0  0  0  0  0  0  0  0  0  0  0  0
  185.9090  179.5280  147.2750 O   0  0  0  0  0  1  0  0  0  0  0  0
  183.9230  178.4020  146.5740 C   0  0  0  0  0  1  0  0  0  0  0  0
  194.5650  172.9220  140.9030 O   0  0  0  0  0  0  0  0  0  0  0  0
  196.0360  174.6340  141.4780 N   0  0  0  0  0  2  0  0  0  0  0  0
  195.2090  174.3390  139.1720 N   0  0  0  0  0  2  0  0  0  0  0  0
  195.2480  173.9120  140.5310 C   0  0  0  0  0  0  0  0  0  0  0  0
  194.0490  175.2770  135.6560 O   0  0  0  0  0  0  0  0  0  0  0  0
  193.1590  174.4500  137.7820 C   0  0  1  0  0  3  0  0  0  0  0  0
  196.5160  175.7080  136.8740 O   0  0  0  0  0  1  0  0  0  0  0  0
  196.2490  174.1140  134.8150 O   0  0  0  0  0  0  0  0  0  0  0  0
  195.5430  174.5770  136.0690 P   0  0  2  0  0  0  0  0  0  0  0  0
  194.4180  173.6380  138.1670 C   0  0  1  0  0  3  0  0  0  0  0  0
  195.2250  173.2330  137.0730 O   0  0  0  0  0  0  0  0  0  0  0  0
  193.4540  175.6560  136.8690 C   0  0  0  0  0  2  0  0  0  0  0  0
  192.0410  173.6780  137.3910 O   0  0  0  0  0  0  0  0  0  0  0  0
  192.0060  172.4930  138.1480 C   0  0  0  0  0  1  0  0  0  0  0  0
  2  8  1  0  0  0  0
  3  1  1  0  0  0  0
  4  3  1  0  0  0  0
  5  1  1  1  0  0  0
  6 33  1  6  0  0  0
  6  7  1  0  0  0  0
  6  9  1  0  0  0  0
  7  2  1  1  0  0  0
  7  5  1  0  0  0  0
  8  5  1  0  0  0  0
  8 10  1  6  0  0  0
  9  4  1  0  0  0  0
 10 13  2  0  0  0  0
 11 18  1  6  0  0  0
 11 13  1  0  0  0  0
 11 15  1  0  0  0  0
 12 15  2  0  0  0  0
 13 20  1  0  0  0  0
 15 19  1  0  0  0  0
 16 18  1  0  0  0  0
 16 10  1  0  0  0  0
 17 18  2  0  0  0  0
 19 14  1  0  0  0  0
 20 14  2  0  0  0  0
 21 17  1  0  0  0  0
 22 21  1  0  0  0  0
 23 22  1  0  0  0  0
 23 24  1  0  0  0  0
 24 25  1  0  0  0  0
 25 26  1  0  0  0  0
 26 27  1  0  0  0  0
 27 29  1  0  0  0  0
 29 31  1  0  0  0  0
 29 28  1  0  0  0  0
 29 30  1  0  0  0  0
 34 35  1  0  0  0  0
 35 32  2  0  0  0  0
 35 33  1  0  0  0  0
 36 40  1  0  0  0  0
 36 43  1  0  0  0  0
 37 44  1  6  0  0  0
 37 41  1  0  0  0  0
 40 39  2  6  0  0  0
 40 38  1  0  0  0  0
 40 42  1  0  0  0  0
 41 34  1  1  0  0  0
 42 41  1  0  0  0  0
 43 37  1  0  0  0  0
 44 45  1  0  0  0  0
M  END
>  <MODEL>
2

>  <REMARK>
 VINA RESULT:      -6.4      4.185      8.242
  Name = 
  12 active torsions:
  status: ('A' for Active; 'I' for Inactive)
    1  A    between atoms: C_1  and  C_41
    2  A    between atoms: N_7  and  C_14
    3  A    between atoms: N_7  and  C_21
    4  A    between atoms: S_8  and  C_9
    5  A    between atoms: S_8  and  C_36
    6  A    between atoms: C_9  and  S_28
    7  A    between atoms: C_12  and  C_21
    8  A    between atoms: N_13  and  C_33
    9  A    between atoms: C_14  and  C_15
   10  A    between atoms: C_15  and  S_28
   11  A    between atoms: C_16  and  O_43
   12  A    between atoms: N_18  and  C_32
                            x       y       z     vdW  Elec       q    Type
                         _______ _______ _______ _____ _____    ______ ____

>  <TORSDO>
F 12

$$$$
=
 OpenBabel11042415193D

 45 49  0  0  1  0  0  0  0  0999 V2000
  188.5750  176.1200  146.6910 C   0  0  0  0  0  2  0  0  0  0  0  0
  190.0770  177.8200  144.5280 C   0  0  0  0  0  2  0  0  0  0  0  0
  189.1740  174.8110  147.1740 C   0  0  0  0  0  2  0  0  0  0  0  0
  190.5760  175.0560  147.7280 C   0  0  0  0  0  2  0  0  0  0  0  0
  188.6910  176.2770  145.2380 N   0  0  2  0  0  0  0  0  0  0  0  0
  191.2620  175.6760  145.4090 C   0  0  2  0  0  3  0  0  0  0  0  0
  190.0590  176.3130  144.6670 C   0  0  2  0  0  3  0  0  0  0  0  0
  188.6480  177.7280  145.0420 C   0  0  2  0  0  3  0  0  0  0  0  0
  191.3770  176.0440  146.8790 C   0  0  0  0  0  2  0  0  0  0  0  0
  187.6150  178.1290  144.0170 C   0  0  0  0  0  0  0  0  0  0  0  0
  185.6580  178.9510  142.9980 C   0  0  2  0  0  3  0  0  0  0  0  0
  183.6270  177.8100  142.4950 O   0  0  0  0  0  0  0  0  0  0  0  0
  186.4730  178.7890  144.2300 C   0  0  0  0  0  0  0  0  0  0  0  0
  184.5780  179.2120  145.6920 C   0  0  0  0  0  3  0  0  0  0  0  0
  184.2610  178.4750  143.2990 C   0  0  0  0  0  0  0  0  0  0  0  0
  187.7370  177.6810  142.6030 C   0  0  0  0  0  2  0  0  0  0  0  0
  186.0820  177.9660  140.7400 C   0  0  0  0  0  3  0  0  0  0  0  0
  186.4390  178.1340  142.0180 C   0  0  0  0  0  0  0  0  0  0  0  0
  183.5960  178.9500  144.5690 C   0  0  0  0  0  2  0  0  0  0  0  0
  185.9040  179.1250  145.5430 C   0  0  0  0  0  3  0  0  0  0  0  0
  187.1130  177.0750  139.5710 S   0  0  0  0  0  0  0  0  0  0  0  0
  187.5070  175.7960  140.7920 C   0  0  0  0  0  2  0  0  0  0  0  0
  188.4200  174.4560  139.9830 S   0  0  0  0  0  0  0  0  0  0  0  0
  189.6490  174.3850  141.3220 C   0  0  0  0  0  2  0  0  0  0  0  0
  189.3800  173.1950  142.2290 C   0  0  0  0  0  2  0  0  0  0  0  0
  189.6190  171.9560  141.5130 N   0  0  0  0  0  2  0  0  0  0  0  0
  191.0000  171.9930  141.0460 C   0  0  0  0  0  2  0  0  0  0  0  0
  192.1300  170.3100  139.6230 C   0  0  0  0  0  1  0  0  0  0  0  0
  191.1080  171.4290  139.6330 C   0  0  0  0  0  0  0  0  0  0  0  0
  189.8730  170.9200  139.2250 O   0  0  0  0  0  1  0  0  0  0  0  0
  191.5620  172.5150  138.6680 C   0  0  0  0  0  1  0  0  0  0  0  0
  192.5740  174.0710  143.4480 O   0  0  0  0  0  0  0  0  0  0  0  0
  192.5000  176.0190  144.7220 N   0  0  0  0  0  2  0  0  0  0  0  0
  194.0990  175.7300  142.8660 N   0  0  0  0  0  2  0  0  0  0  0  0
  193.0450  175.2160  143.6750 C   0  0  0  0  0  0  0  0  0  0  0  0
  197.6860  175.2950  141.6260 O   0  0  0  0  0  0  0  0  0  0  0  0
  195.4540  175.8610  140.7930 C   0  0  1  0  0  3  0  0  0  0  0  0
  196.7220  175.3990  144.2370 O   0  0  0  0  0  1  0  0  0  0  0  0
  197.8050  173.2310  143.2470 O   0  0  0  0  0  0  0  0  0  0  0  0
  196.9390  174.4140  142.8750 P   0  0  2  0  0  0  0  0  0  0  0  0
  194.6890  174.9510  141.7820 C   0  0  1  0  0  3  0  0  0  0  0  0
  195.4350  173.8570  142.2870 O   0  0  0  0  0  0  0  0  0  0  0  0
  196.8130  176.3530  141.3270 C   0  0  0  0  0  2  0  0  0  0  0  0
  195.4790  175.4080  139.4540 O   0  0  0  0  0  0  0  0  0  0  0  0
  194.1710  175.0920  139.0450 C   0  0  0  0  0  1  0  0  0  0  0  0
  1  3  1  0  0  0  0
  2  8  1  0  0  0  0
  3  4  1  0  0  0  0
  5  1  1  1  0  0  0
  6 33  1  6  0  0  0
  6  9  1  0  0  0  0
  7  2  1  1  0  0  0
  7  5  1  0  0  0  0
  7  6  1  0  0  0  0
  8 10  1  6  0  0  0
  8  5  1  0  0  0  0
  9  4  1  0  0  0  0
 10 13  2  0  0  0  0
 11 18  1  6  0  0  0
 11 15  1  0  0  0  0
 11 13  1  0  0  0  0
 12 15  2  0  0  0  0
 13 20  1  0  0  0  0
 15 19  1  0  0  0  0
 16 10  1  0  0  0  0
 17 18  2  0  0  0  0
 18 16  1  0  0  0  0
 19 14  1  0  0  0  0
 20 14  2  0  0  0  0
 21 17  1  0  0  0  0
 21 22  1  0  0  0  0
 23 22  1  0  0  0  0
 23 24  1  0  0  0  0
 24 25  1  0  0  0  0
 26 25  1  0  0  0  0
 27 26  1  0  0  0  0
 28 29  1  0  0  0  0
 29 27  1  0  0  0  0
 30 29  1  0  0  0  0
 31 29  1  0  0  0  0
 32 35  2  0  0  0  0
 34 35  1  0  0  0  0
 35 33  1  0  0  0  0
 36 40  1  0  0  0  0
 37 44  1  6  0  0  0
 37 43  1  0  0  0  0
 37 41  1  0  0  0  0
 40 39  2  1  0  0  0
 40 38  1  0  0  0  0
 41 42  1  0  0  0  0
 41 34  1  1  0  0  0
 42 40  1  0  0  0  0
 43 36  1  0  0  0  0
 45 44  1  0  0  0  0
M  END
>  <MODEL>
3

>  <REMARK>
 VINA RESULT:      -6.3      3.670      8.271
  Name = 
  12 active torsions:
  status: ('A' for Active; 'I' for Inactive)
    1  A    between atoms: C_1  and  C_41
    2  A    between atoms: N_7  and  C_14
    3  A    between atoms: N_7  and  C_21
    4  A    between atoms: S_8  and  C_9
    5  A    between atoms: S_8  and  C_36
    6  A    between atoms: C_9  and  S_28
    7  A    between atoms: C_12  and  C_21
    8  A    between atoms: N_13  and  C_33
    9  A    between atoms: C_14  and  C_15
   10  A    between atoms: C_15  and  S_28
   11  A    between atoms: C_16  and  O_43
   12  A    between atoms: N_18  and  C_32
                            x       y       z     vdW  Elec       q    Type
                         _______ _______ _______ _____ _____    ______ ____

>  <TORSDO>
F 12

$$$$
=
 OpenBabel11042415193D

 45 49  0  0  1  0  0  0  0  0999 V2000
  195.1290  175.1310  145.4000 C   0  0  0  0  0  2  0  0  0  0  0  0
  192.3520  173.7480  145.8490 C   0  0  0  0  0  2  0  0  0  0  0  0
  195.1900  176.5520  144.8670 C   0  0  0  0  0  2  0  0  0  0  0  0
  194.3980  177.4820  145.7840 C   0  0  0  0  0  2  0  0  0  0  0  0
  194.1280  174.3210  144.6980 N   0  0  2  0  0  0  0  0  0  0  0  0
  192.3480  176.2380  145.0900 C   0  0  2  0  0  3  0  0  0  0  0  0
  192.7150  174.7630  144.7870 C   0  0  2  0  0  3  0  0  0  0  0  0
  193.7870  173.2770  145.6660 C   0  0  2  0  0  3  0  0  0  0  0  0
  193.0880  176.8560  146.2640 C   0  0  0  0  0  2  0  0  0  0  0  0
  193.8920  171.8950  145.0680 C   0  0  0  0  0  0  0  0  0  0  0  0
  194.7060  169.7890  144.4010 C   0  0  2  0  0  3  0  0  0  0  0  0
  195.8580  169.1820  142.4050 O   0  0  0  0  0  0  0  0  0  0  0  0
  194.9080  171.0350  145.1860 C   0  0  0  0  0  0  0  0  0  0  0  0
  197.3070  170.6880  145.3580 C   0  0  0  0  0  3  0  0  0  0  0  0
  195.9370  169.5630  143.5620 C   0  0  0  0  0  0  0  0  0  0  0  0
  192.8510  171.3940  144.1310 C   0  0  0  0  0  2  0  0  0  0  0  0
  192.8630  169.2720  142.7940 C   0  0  0  0  0  3  0  0  0  0  0  0
  193.4480  170.1080  143.6580 C   0  0  0  0  0  0  0  0  0  0  0  0
  197.2900  169.6890  144.2190 C   0  0  0  0  0  2  0  0  0  0  0  0
  196.2140  171.3220  145.7960 C   0  0  0  0  0  3  0  0  0  0  0  0
  191.2900  169.6510  142.0150 S   0  0  0  0  0  0  0  0  0  0  0  0
  191.9150  169.1930  140.3780 C   0  0  0  0  0  2  0  0  0  0  0  0
  193.2170  170.3540  139.8870 S   0  0  0  0  0  0  0  0  0  0  0  0
  192.0550  171.7530  139.8410 C   0  0  0  0  0  2  0  0  0  0  0  0
  192.5630  172.8960  140.7050 C   0  0  0  0  0  2  0  0  0  0  0  0
  191.5150  173.8810  140.8980 N   0  0  0  0  0  2  0  0  0  0  0  0
  190.2480  173.1600  140.9030 C   0  0  0  0  0  2  0  0  0  0  0  0
  189.6800  173.2260  143.3130 C   0  0  0  0  0  1  0  0  0  0  0  0
  189.2970  173.7450  141.9410 C   0  0  0  0  0  0  0  0  0  0  0  0
  189.3880  175.1390  141.9410 O   0  0  0  0  0  1  0  0  0  0  0  0
  187.8660  173.3230  141.6400 C   0  0  0  0  0  1  0  0  0  0  0  0
  190.6430  178.2030  143.9160 O   0  0  0  0  0  0  0  0  0  0  0  0
  190.9110  176.3520  145.3040 N   0  0  0  0  0  2  0  0  0  0  0  0
  188.6830  177.1850  144.6500 N   0  0  0  0  0  2  0  0  0  0  0  0
  190.1030  177.2960  144.6010 C   0  0  0  0  0  0  0  0  0  0  0  0
  184.9500  177.1610  143.8400 O   0  0  0  0  0  0  0  0  0  0  0  0
  187.1200  177.4440  142.7420 C   0  0  1  0  0  3  0  0  0  0  0  0
  186.2510  176.4150  146.1870 O   0  0  0  0  0  1  0  0  0  0  0  0
  184.6360  178.4730  146.0940 O   0  0  0  0  0  0  0  0  0  0  0  0
  185.6640  177.7200  145.2790 P   0  0  2  0  0  0  0  0  0  0  0  0
  187.8120  178.1220  143.9480 C   0  0  1  0  0  3  0  0  0  0  0  0
  186.9350  178.7770  144.8500 O   0  0  0  0  0  0  0  0  0  0  0  0
  185.9690  176.4990  143.1380 C   0  0  0  0  0  2  0  0  0  0  0  0
  186.8290  178.3020  141.6570 O   0  0  0  0  0  0  0  0  0  0  0  0
  186.5980  177.5310  140.5030 C   0  0  0  0  0  1  0  0  0  0  0  0
  3  1  1  0  0  0  0
  3  4  1  0  0  0  0
  4  9  1  0  0  0  0
  5  7  1  0  0  0  0
  5  1  1  1  0  0  0
  5  8  1  0  0  0  0
  6 33  1  1  0  0  0
  6  9  1  0  0  0  0
  7  6  1  0  0  0  0
  7  2  1  1  0  0  0
  8 10  1  6  0  0  0
  8  2  1  0  0  0  0
 10 13  2  0  0  0  0
 11 15  1  6  0  0  0
 11 13  1  0  0  0  0
 12 15  2  0  0  0  0
 13 20  1  0  0  0  0
 14 20  2  0  0  0  0
 15 19  1  0  0  0  0
 16 10  1  0  0  0  0
 17 18  2  0  0  0  0
 18 16  1  0  0  0  0
 18 11  1  0  0  0  0
 19 14  1  0  0  0  0
 21 17  1  0  0  0  0
 22 21  1  0  0  0  0
 23 22  1  0  0  0  0
 24 23  1  0  0  0  0
 24 25  1  0  0  0  0
 25 26  1  0  0  0  0
 26 27  1  0  0  0  0
 27 29  1  0  0  0  0
 29 30  1  0  0  0  0
 29 28  1  0  0  0  0
 31 29  1  0  0  0  0
 32 35  2  0  0  0  0
 35 34  1  0  0  0  0
 35 33  1  0  0  0  0
 36 40  1  0  0  0  0
 37 44  1  6  0  0  0
 37 43  1  0  0  0  0
 37 41  1  0  0  0  0
 40 39  2  1  0  0  0
 40 38  1  0  0  0  0
 41 34  1  1  0  0  0
 41 42  1  0  0  0  0
 42 40  1  0  0  0  0
 43 36  1  0  0  0  0
 45 44  1  0  0  0  0
M  END
>  <MODEL>
4

>  <REMARK>
 VINA RESULT:      -6.1      1.926      2.494
  Name = 
  12 active torsions:
  status: ('A' for Active; 'I' for Inactive)
    1  A    between atoms: C_1  and  C_41
    2  A    between atoms: N_7  and  C_14
    3  A    between atoms: N_7  and  C_21
    4  A    between atoms: S_8  and  C_9
    5  A    between atoms: S_8  and  C_36
    6  A    between atoms: C_9  and  S_28
    7  A    between atoms: C_12  and  C_21
    8  A    between atoms: N_13  and  C_33
    9  A    between atoms: C_14  and  C_15
   10  A    between atoms: C_15  and  S_28
   11  A    between atoms: C_16  and  O_43
   12  A    between atoms: N_18  and  C_32
                            x       y       z     vdW  Elec       q    Type
                         _______ _______ _______ _____ _____    ______ ____

>  <TORSDO>
F 12

$$$$
=
 OpenBabel11042415193D

 45 49  0  0  1  0  0  0  0  0999 V2000
  194.4830  174.8500  145.4440 C   0  0  0  0  0  2  0  0  0  0  0  0
  191.5190  173.9340  144.9930 C   0  0  0  0  0  2  0  0  0  0  0  0
  194.7940  176.3180  145.6780 C   0  0  0  0  0  2  0  0  0  0  0  0
  194.0060  176.8280  146.8830 C   0  0  0  0  0  2  0  0  0  0  0  0
  193.4940  174.6580  144.3780 N   0  0  2  0  0  0  0  0  0  0  0  0
  191.9320  176.4440  145.5480 C   0  0  2  0  0  3  0  0  0  0  0  0
  192.1500  175.2480  144.5860 C   0  0  2  0  0  3  0  0  0  0  0  0
  192.8940  173.3600  144.6910 C   0  0  2  0  0  3  0  0  0  0  0  0
  192.5740  176.2920  146.9160 C   0  0  0  0  0  2  0  0  0  0  0  0
  192.9070  172.4300  143.5020 C   0  0  0  0  0  0  0  0  0  0  0  0
  193.4640  170.7000  142.0050 C   0  0  2  0  0  3  0  0  0  0  0  0
  195.0230  170.7090  140.2030 O   0  0  0  0  0  0  0  0  0  0  0  0
  193.6560  171.3350  143.3340 C   0  0  0  0  0  0  0  0  0  0  0  0
  195.7790  170.2130  143.7060 C   0  0  0  0  0  3  0  0  0  0  0  0
  194.8230  170.4930  141.3880 C   0  0  0  0  0  0  0  0  0  0  0  0
  192.1200  172.7510  142.2800 C   0  0  0  0  0  2  0  0  0  0  0  0
  192.1250  171.5550  140.0750 C   0  0  0  0  0  3  0  0  0  0  0  0
  192.5730  171.6920  141.3290 C   0  0  0  0  0  0  0  0  0  0  0  0
  195.9140  169.8820  142.2340 C   0  0  0  0  0  2  0  0  0  0  0  0
  194.7480  170.8960  144.2140 C   0  0  0  0  0  3  0  0  0  0  0  0
  190.9620  172.7130  139.3460 S   0  0  0  0  0  0  0  0  0  0  0  0
  191.4640  172.2600  137.6650 C   0  0  0  0  0  2  0  0  0  0  0  0
  193.2720  172.3010  137.5480 S   0  0  0  0  0  0  0  0  0  0  0  0
  193.2650  174.0030  136.9060 C   0  0  0  0  0  2  0  0  0  0  0  0
  193.8200  174.9660  137.9440 C   0  0  0  0  0  2  0  0  0  0  0  0
  194.5050  174.2310  138.9920 N   0  0  0  0  0  2  0  0  0  0  0  0
  194.3450  174.9960  140.2230 C   0  0  0  0  0  2  0  0  0  0  0  0
  195.8990  173.9750  141.8590 C   0  0  0  0  0  1  0  0  0  0  0  0
  195.6840  175.1570  140.9360 C   0  0  0  0  0  0  0  0  0  0  0  0
  196.7220  175.1990  140.0020 O   0  0  0  0  0  1  0  0  0  0  0  0
  195.6870  176.4330  141.7660 C   0  0  0  0  0  1  0  0  0  0  0  0
  190.3780  178.2450  143.9710 O   0  0  0  0  0  0  0  0  0  0  0  0
  190.5050  176.6950  145.7040 N   0  0  0  0  0  2  0  0  0  0  0  0
  188.3460  177.5280  144.8500 N   0  0  0  0  0  2  0  0  0  0  0  0
  189.7710  177.5310  144.8100 C   0  0  0  0  0  0  0  0  0  0  0  0
  184.7900  177.2250  143.4900 O   0  0  0  0  0  0  0  0  0  0  0  0
  187.0860  177.5670  142.7140 C   0  0  1  0  0  3  0  0  0  0  0  0
  185.7470  176.7150  146.0540 O   0  0  0  0  0  1  0  0  0  0  0  0
  184.0650  178.6610  145.5670 O   0  0  0  0  0  0  0  0  0  0  0  0
  185.2430  177.9200  144.9740 P   0  0  2  0  0  0  0  0  0  0  0  0
  187.5490  178.3630  143.9570 C   0  0  1  0  0  3  0  0  0  0  0  0
  186.5110  179.0210  144.6640 O   0  0  0  0  0  0  0  0  0  0  0  0
  185.9360  176.5820  143.0000 C   0  0  0  0  0  2  0  0  0  0  0  0
  186.9240  178.3310  141.5360 O   0  0  0  0  0  0  0  0  0  0  0  0
  186.4130  177.5110  140.5140 C   0  0  0  0  0  1  0  0  0  0  0  0
  1  3  1  0  0  0  0
  3  4  1  0  0  0  0
  4  9  1  0  0  0  0
  5  7  1  0  0  0  0
  5  8  1  0  0  0  0
  5  1  1  1  0  0  0
  6 33  1  1  0  0  0
  6  9  1  0  0  0  0
  7  2  1  1  0  0  0
  7  6  1  0  0  0  0
  8 10  1  6  0  0  0
  8  2  1  0  0  0  0
 11 18  1  6  0  0  0
 11 13  1  0  0  0  0
 12 15  2  0  0  0  0
 13 10  2  0  0  0  0
 13 20  1  0  0  0  0
 14 20  2  0  0  0  0
 15 11  1  0  0  0  0
 15 19  1  0  0  0  0
 16 10  1  0  0  0  0
 17 18  2  0  0  0  0
 18 16  1  0  0  0  0
 19 14  1  0  0  0  0
 21 17  1  0  0  0  0
 22 21  1  0  0  0  0
 23 22  1  0  0  0  0
 24 23  1  0  0  0  0
 24 25  1  0  0  0  0
 25 26  1  0  0  0  0
 26 27  1  0  0  0  0
 27 29  1  0  0  0  0
 29 31  1  0  0  0  0
 29 28  1  0  0  0  0
 30 29  1  0  0  0  0
 32 35  2  0  0  0  0
 35 34  1  0  0  0  0
 35 33  1  0  0  0  0
 36 40  1  0  0  0  0
 37 44  1  6  0  0  0
 37 43  1  0  0  0  0
 37 41  1  0  0  0  0
 40 39  2  1  0  0  0
 40 38  1  0  0  0  0
 41 42  1  0  0  0  0
 41 34  1  1  0  0  0
 42 40  1  0  0  0  0
 43 36  1  0  0  0  0
 45 44  1  0  0  0  0
M  END
>  <MODEL>
5

>  <REMARK>
 VINA RESULT:      -5.9      1.835      3.070
  Name = 
  12 active torsions:
  status: ('A' for Active; 'I' for Inactive)
    1  A    between atoms: C_1  and  C_41
    2  A    between atoms: N_7  and  C_14
    3  A    between atoms: N_7  and  C_21
    4  A    between atoms: S_8  and  C_9
    5  A    between atoms: S_8  and  C_36
    6  A    between atoms: C_9  and  S_28
    7  A    between atoms: C_12  and  C_21
    8  A    between atoms: N_13  and  C_33
    9  A    between atoms: C_14  and  C_15
   10  A    between atoms: C_15  and  S_28
   11  A    between atoms: C_16  and  O_43
   12  A    between atoms: N_18  and  C_32
                            x       y       z     vdW  Elec       q    Type
                         _______ _______ _______ _____ _____    ______ ____

>  <TORSDO>
F 12

$$$$
=
 OpenBabel11042415193D

 45 49  0  0  1  0  0  0  0  0999 V2000
  189.4700  174.9020  145.3980 C   0  0  0  0  0  2  0  0  0  0  0  0
  189.5940  176.3690  142.6300 C   0  0  0  0  0  2  0  0  0  0  0  0
  189.7250  173.4070  145.4740 C   0  0  0  0  0  2  0  0  0  0  0  0
  191.0990  173.0860  144.8860 C   0  0  0  0  0  2  0  0  0  0  0  0
  188.6250  175.2600  144.2540 N   0  0  2  0  0  0  0  0  0  0  0  0
  190.2060  173.8390  142.6800 C   0  0  2  0  0  3  0  0  0  0  0  0
  189.1470  174.9480  142.9010 C   0  0  2  0  0  3  0  0  0  0  0  0
  188.9740  176.6570  143.9890 C   0  0  2  0  0  3  0  0  0  0  0  0
  191.3970  173.8910  143.6210 C   0  0  0  0  0  2  0  0  0  0  0  0
  187.7530  177.5410  143.9150 C   0  0  0  0  0  0  0  0  0  0  0  0
  185.9250  178.9060  144.4990 C   0  0  2  0  0  3  0  0  0  0  0  0
  183.6810  178.2840  145.0060 O   0  0  0  0  0  0  0  0  0  0  0  0
  187.1520  178.1820  144.9230 C   0  0  0  0  0  0  0  0  0  0  0  0
  186.5050  178.1940  147.2650 C   0  0  0  0  0  3  0  0  0  0  0  0
  184.8060  178.5040  145.4250 C   0  0  0  0  0  0  0  0  0  0  0  0
  186.9930  177.6790  142.6430 C   0  0  0  0  0  2  0  0  0  0  0  0
  184.8110  178.8560  142.2620 C   0  0  0  0  0  3  0  0  0  0  0  0
  185.7980  178.4650  143.0770 C   0  0  0  0  0  0  0  0  0  0  0  0
  185.0650  178.5060  146.9120 C   0  0  0  0  0  2  0  0  0  0  0  0
  187.4670  178.0290  146.3500 C   0  0  0  0  0  3  0  0  0  0  0  0
  184.7660  178.3950  140.5280 S   0  0  0  0  0  0  0  0  0  0  0  0
  183.0740  177.7640  140.6720 C   0  0  0  0  0  2  0  0  0  0  0  0
  182.1680  178.7510  141.8920 S   0  0  0  0  0  0  0  0  0  0  0  0
  180.8320  179.1180  140.7130 C   0  0  0  0  0  2  0  0  0  0  0  0
  179.4930  179.1880  141.4300 C   0  0  0  0  0  2  0  0  0  0  0  0
  178.6670  180.2290  140.8470 N   0  0  0  0  0  2  0  0  0  0  0  0
  179.5630  181.1360  140.1390 C   0  0  0  0  0  2  0  0  0  0  0  0
  177.9120  182.9840  140.1480 C   0  0  0  0  0  1  0  0  0  0  0  0
  178.7710  182.1020  139.2630 C   0  0  0  0  0  0  0  0  0  0  0  0
  179.6450  182.9080  138.5300 O   0  0  0  0  0  1  0  0  0  0  0  0
  177.8660  181.3290  138.3150 C   0  0  0  0  0  1  0  0  0  0  0  0
  188.7500  172.9090  140.4080 O   0  0  0  0  0  0  0  0  0  0  0  0
  190.6730  173.8740  141.3000 N   0  0  0  0  0  2  0  0  0  0  0  0
  190.2570  173.7930  138.8700 N   0  0  0  0  0  2  0  0  0  0  0  0
  189.8480  173.4880  140.2000 C   0  0  0  0  0  0  0  0  0  0  0  0
  191.0980  172.1260  135.5380 O   0  0  0  0  0  0  0  0  0  0  0  0
  189.9710  174.1090  136.4270 C   0  0  1  0  0  3  0  0  0  0  0  0
  192.0170  171.5190  138.0960 O   0  0  0  0  0  1  0  0  0  0  0  0
  190.5210  169.8580  136.7320 O   0  0  0  0  0  0  0  0  0  0  0  0
  190.7390  171.3310  136.9980 P   0  0  2  0  0  0  0  0  0  0  0  0
  189.4500  173.4230  137.7120 C   0  0  1  0  0  3  0  0  0  0  0  0
  189.3040  172.0160  137.6210 O   0  0  0  0  0  0  0  0  0  0  0  0
  191.2610  173.4800  135.8670 C   0  0  0  0  0  2  0  0  0  0  0  0
  188.9850  174.3900  135.4530 O   0  0  0  0  0  0  0  0  0  0  0  0
  188.2780  175.5470  135.8260 C   0  0  0  0  0  1  0  0  0  0  0  0
  1  3  1  0  0  0  0
  2  8  1  0  0  0  0
  4  3  1  0  0  0  0
  5  1  1  1  0  0  0
  6 33  1  6  0  0  0
  6  7  1  0  0  0  0
  6  9  1  0  0  0  0
  7  2  1  1  0  0  0
  7  5  1  0  0  0  0
  8 10  1  6  0  0  0
  8  5  1  0  0  0  0
  9  4  1  0  0  0  0
 10 13  2  0  0  0  0
 11 18  1  6  0  0  0
 11 13  1  0  0  0  0
 11 15  1  0  0  0  0
 12 15  2  0  0  0  0
 13 20  1  0  0  0  0
 15 19  1  0  0  0  0
 16 18  1  0  0  0  0
 16 10  1  0  0  0  0
 17 18  2  0  0  0  0
 19 14  1  0  0  0  0
 20 14  2  0  0  0  0
 21 22  1  0  0  0  0
 21 17  1  0  0  0  0
 22 23  1  0  0  0  0
 24 25  1  0  0  0  0
 24 23  1  0  0  0  0
 26 25  1  0  0  0  0
 27 26  1  0  0  0  0
 29 27  1  0  0  0  0
 29 28  1  0  0  0  0
 30 29  1  0  0  0  0
 31 29  1  0  0  0  0
 34 35  1  0  0  0  0
 35 32  2  0  0  0  0
 35 33  1  0  0  0  0
 36 43  1  0  0  0  0
 36 40  1  0  0  0  0
 37 44  1  6  0  0  0
 37 41  1  0  0  0  0
 40 39  2  6  0  0  0
 40 42  1  0  0  0  0
 40 38  1  0  0  0  0
 41 34  1  1  0  0  0
 42 41  1  0  0  0  0
 43 37  1  0  0  0  0
 44 45  1  0  0  0  0
M  END
>  <MODEL>
6

>  <REMARK>
 VINA RESULT:      -5.9      5.450      9.931
  Name = 
  12 active torsions:
  status: ('A' for Active; 'I' for Inactive)
    1  A    between atoms: C_1  and  C_41
    2  A    between atoms: N_7  and  C_14
    3  A    between atoms: N_7  and  C_21
    4  A    between atoms: S_8  and  C_9
    5  A    between atoms: S_8  and  C_36
    6  A    between atoms: C_9  and  S_28
    7  A    between atoms: C_12  and  C_21
    8  A    between atoms: N_13  and  C_33
    9  A    between atoms: C_14  and  C_15
   10  A    between atoms: C_15  and  S_28
   11  A    between atoms: C_16  and  O_43
   12  A    between atoms: N_18  and  C_32
                            x       y       z     vdW  Elec       q    Type
                         _______ _______ _______ _____ _____    ______ ____

>  <TORSDO>
F 12

$$$$
=
 OpenBabel11042415193D

 45 49  0  0  1  0  0  0  0  0999 V2000
  191.8370  176.5580  146.1960 C   0  0  0  0  0  2  0  0  0  0  0  0
  192.2150  176.7000  143.0870 C   0  0  0  0  0  2  0  0  0  0  0  0
  192.9720  176.0600  147.0740 C   0  0  0  0  0  2  0  0  0  0  0  0
  194.2200  176.9100  146.8380 C   0  0  0  0  0  2  0  0  0  0  0  0
  191.6780  175.7450  144.9860 N   0  0  2  0  0  0  0  0  0  0  0  0
  194.2700  175.9900  144.5170 C   0  0  2  0  0  3  0  0  0  0  0  0
  192.8230  175.6990  144.0450 C   0  0  2  0  0  3  0  0  0  0  0  0
  191.0300  176.6550  144.0400 C   0  0  2  0  0  3  0  0  0  0  0  0
  194.4310  177.2430  145.3610 C   0  0  0  0  0  2  0  0  0  0  0  0
  189.7920  176.0460  143.4280 C   0  0  0  0  0  0  0  0  0  0  0  0
  188.1200  174.5200  142.7800 C   0  0  2  0  0  3  0  0  0  0  0  0
  188.0210  173.1200  140.8540 O   0  0  0  0  0  0  0  0  0  0  0  0
  189.3290  174.8040  143.5970 C   0  0  0  0  0  0  0  0  0  0  0  0
  189.8230  172.4460  143.9180 C   0  0  0  0  0  3  0  0  0  0  0  0
  188.3630  173.2420  142.0190 C   0  0  0  0  0  0  0  0  0  0  0  0
  188.9980  176.7970  142.4170 C   0  0  0  0  0  2  0  0  0  0  0  0
  187.0610  175.9790  141.0500 C   0  0  0  0  0  3  0  0  0  0  0  0
  188.0150  175.7670  141.9640 C   0  0  0  0  0  0  0  0  0  0  0  0
  188.9220  172.0540  142.7650 C   0  0  0  0  0  2  0  0  0  0  0  0
  190.0250  173.7130  144.2940 C   0  0  0  0  0  3  0  0  0  0  0  0
  186.9050  177.5400  140.1770 S   0  0  0  0  0  0  0  0  0  0  0  0
  186.1440  178.3420  141.6130 C   0  0  0  0  0  2  0  0  0  0  0  0
  184.3650  177.9970  141.6180 S   0  0  0  0  0  0  0  0  0  0  0  0
  184.2050  178.4580  143.3710 C   0  0  0  0  0  2  0  0  0  0  0  0
  185.3150  179.4170  143.7720 C   0  0  0  0  0  2  0  0  0  0  0  0
  185.6580  179.2270  145.1700 N   0  0  0  0  0  2  0  0  0  0  0  0
  186.7810  178.2980  145.2100 C   0  0  0  0  0  2  0  0  0  0  0  0
  186.5730  178.3910  147.6760 C   0  0  0  0  0  1  0  0  0  0  0  0
  186.7490  177.4670  146.4880 C   0  0  0  0  0  0  0  0  0  0  0  0
  185.6800  176.5690  146.4480 O   0  0  0  0  0  1  0  0  0  0  0  0
  188.0550  176.7030  146.6500 C   0  0  0  0  0  1  0  0  0  0  0  0
  195.9990  173.9030  143.6210 O   0  0  0  0  0  0  0  0  0  0  0  0
  195.1590  176.0600  143.3650 N   0  0  0  0  0  2  0  0  0  0  0  0
  196.5560  174.9870  141.6380 N   0  0  0  0  0  2  0  0  0  0  0  0
  195.9180  174.9400  142.9110 C   0  0  0  0  0  0  0  0  0  0  0  0
  196.0480  172.5630  138.7290 O   0  0  0  0  0  0  0  0  0  0  0  0
  196.5170  172.5590  141.1320 C   0  0  1  0  0  3  0  0  0  0  0  0
  195.5990  175.3100  138.8370 O   0  0  0  0  0  1  0  0  0  0  0  0
  197.4450  174.2680  137.3000 O   0  0  0  0  0  0  0  0  0  0  0  0
  196.7710  174.1010  138.6440 P   0  0  2  0  0  0  0  0  0  0  0  0
  197.3410  173.8680  141.1270 C   0  0  1  0  0  3  0  0  0  0  0  0
  197.9410  174.1920  139.8840 O   0  0  0  0  0  0  0  0  0  0  0  0
  195.4690  172.4810  140.0050 C   0  0  0  0  0  2  0  0  0  0  0  0
  197.2680  171.3760  141.3180 O   0  0  0  0  0  0  0  0  0  0  0  0
  196.4370  170.3750  141.8510 C   0  0  0  0  0  1  0  0  0  0  0  0
  1  3  1  0  0  0  0
  2  8  1  0  0  0  0
  4  3  1  0  0  0  0
  5  1  1  1  0  0  0
  6 33  1  6  0  0  0
  6  9  1  0  0  0  0
  7  2  1  6  0  0  0
  7  6  1  0  0  0  0
  7  5  1  0  0  0  0
  8 10  1  6  0  0  0
  8  5  1  0  0  0  0
  9  4  1  0  0  0  0
 10 13  2  0  0  0  0
 11 18  1  6  0  0  0
 11 13  1  0  0  0  0
 12 15  2  0  0  0  0
 13 20  1  0  0  0  0
 14 20  2  0  0  0  0
 15 19  1  0  0  0  0
 15 11  1  0  0  0  0
 16 10  1  0  0  0  0
 17 18  2  0  0  0  0
 18 16  1  0  0  0  0
 19 14  1  0  0  0  0
 21 17  1  0  0  0  0
 21 22  1  0  0  0  0
 22 23  1  0  0  0  0
 23 24  1  0  0  0  0
 24 25  1  0  0  0  0
 25 26  1  0  0  0  0
 26 27  1  0  0  0  0
 27 29  1  0  0  0  0
 29 31  1  0  0  0  0
 29 28  1  0  0  0  0
 30 29  1  0  0  0  0
 34 35  1  0  0  0  0
 35 33  1  0  0  0  0
 35 32  2  0  0  0  0
 36 43  1  0  0  0  0
 37 44  1  6  0  0  0
 40 39  2  6  0  0  0
 40 36  1  0  0  0  0
 40 38  1  0  0  0  0
 40 42  1  0  0  0  0
 41 37  1  0  0  0  0
 41 34  1  6  0  0  0
 42 41  1  0  0  0  0
 43 37  1  0  0  0  0
 44 45  1  0  0  0  0
M  END
>  <MODEL>
7

>  <REMARK>
 VINA RESULT:      -5.8      3.866      8.130
  Name = 
  12 active torsions:
  status: ('A' for Active; 'I' for Inactive)
    1  A    between atoms: C_1  and  C_41
    2  A    between atoms: N_7  and  C_14
    3  A    between atoms: N_7  and  C_21
    4  A    between atoms: S_8  and  C_9
    5  A    between atoms: S_8  and  C_36
    6  A    between atoms: C_9  and  S_28
    7  A    between atoms: C_12  and  C_21
    8  A    between atoms: N_13  and  C_33
    9  A    between atoms: C_14  and  C_15
   10  A    between atoms: C_15  and  S_28
   11  A    between atoms: C_16  and  O_43
   12  A    between atoms: N_18  and  C_32
                            x       y       z     vdW  Elec       q    Type
                         _______ _______ _______ _____ _____    ______ ____

>  <TORSDO>
F 12

$$$$
=
 OpenBabel11042415193D

 45 49  0  0  1  0  0  0  0  0999 V2000
  192.2440  176.2650  145.9650 C   0  0  0  0  0  2  0  0  0  0  0  0
  192.0170  177.6050  143.1410 C   0  0  0  0  0  2  0  0  0  0  0  0
  193.2210  175.1220  146.1840 C   0  0  0  0  0  2  0  0  0  0  0  0
  194.6340  175.5710  145.8140 C   0  0  0  0  0  2  0  0  0  0  0  0
  191.5240  176.1390  144.6940 N   0  0  2  0  0  0  0  0  0  0  0  0
  193.8330  175.7670  143.4580 C   0  0  2  0  0  3  0  0  0  0  0  0
  192.3330  176.1580  143.4520 C   0  0  2  0  0  3  0  0  0  0  0  0
  191.1360  177.5150  144.3780 C   0  0  2  0  0  3  0  0  0  0  0  0
  194.6640  176.4250  144.5470 C   0  0  0  0  0  2  0  0  0  0  0  0
  189.6630  177.6320  144.0740 C   0  0  0  0  0  0  0  0  0  0  0  0
  187.3240  177.7850  144.3020 C   0  0  2  0  0  3  0  0  0  0  0  0
  185.7030  176.0410  144.4090 O   0  0  0  0  0  0  0  0  0  0  0  0
  188.6620  177.7780  144.9490 C   0  0  0  0  0  0  0  0  0  0  0  0
  187.7440  177.2570  147.1370 C   0  0  0  0  0  3  0  0  0  0  0  0
  186.4570  176.7820  145.0190 C   0  0  0  0  0  0  0  0  0  0  0  0
  189.1590  177.4560  142.6850 C   0  0  0  0  0  2  0  0  0  0  0  0
  186.7780  177.3450  141.9030 C   0  0  0  0  0  3  0  0  0  0  0  0
  187.6780  177.4620  142.8860 C   0  0  0  0  0  0  0  0  0  0  0  0
  186.4350  176.7970  146.5280 C   0  0  0  0  0  2  0  0  0  0  0  0
  188.7780  177.6960  146.4110 C   0  0  0  0  0  3  0  0  0  0  0  0
  187.2610  177.0720  140.1950 S   0  0  0  0  0  0  0  0  0  0  0  0
  187.6700  175.3370  140.5180 C   0  0  0  0  0  2  0  0  0  0  0  0
  188.1950  174.5480  138.9740 S   0  0  0  0  0  0  0  0  0  0  0  0
  188.5280  172.9660  139.8090 C   0  0  0  0  0  2  0  0  0  0  0  0
  189.9860  172.5700  139.6360 C   0  0  0  0  0  2  0  0  0  0  0  0
  190.5060  172.0250  140.8770 N   0  0  0  0  0  2  0  0  0  0  0  0
  190.6600  173.1430  141.8010 C   0  0  0  0  0  2  0  0  0  0  0  0
  189.2940  173.8920  143.7270 C   0  0  0  0  0  1  0  0  0  0  0  0
  190.1590  172.7680  143.1920 C   0  0  0  0  0  0  0  0  0  0  0  0
  189.3950  171.6000  143.1260 O   0  0  0  0  0  1  0  0  0  0  0  0
  191.3340  172.5610  144.1360 C   0  0  0  0  0  1  0  0  0  0  0  0
  196.2050  174.5780  142.4060 O   0  0  0  0  0  0  0  0  0  0  0  0
  194.4200  176.0540  142.1560 N   0  0  0  0  0  2  0  0  0  0  0  0
  195.9140  175.4770  140.2790 N   0  0  0  0  0  2  0  0  0  0  0  0
  195.5510  175.3430  141.6500 C   0  0  0  0  0  0  0  0  0  0  0  0
  196.3260  173.2080  137.2340 O   0  0  0  0  0  0  0  0  0  0  0  0
  196.7940  173.2490  139.6370 C   0  0  1  0  0  3  0  0  0  0  0  0
  194.8680  175.5670  137.4930 O   0  0  0  0  0  1  0  0  0  0  0  0
  196.9510  175.3920  135.9160 O   0  0  0  0  0  0  0  0  0  0  0  0
  196.4090  174.9070  137.2420 P   0  0  2  0  0  0  0  0  0  0  0  0
  197.0590  174.7710  139.7130 C   0  0  1  0  0  3  0  0  0  0  0  0
  197.4740  175.3670  138.4950 O   0  0  0  0  0  0  0  0  0  0  0  0
  195.8390  172.8410  138.4980 C   0  0  0  0  0  2  0  0  0  0  0  0
  197.9410  172.4320  139.7610 O   0  0  0  0  0  0  0  0  0  0  0  0
  197.8470  171.6740  140.9420 C   0  0  0  0  0  1  0  0  0  0  0  0
  1  3  1  0  0  0  0
  2  8  1  0  0  0  0
  4  3  1  0  0  0  0
  5  1  1  1  0  0  0
  6 33  1  6  0  0  0
  6  9  1  0  0  0  0
  7  2  1  1  0  0  0
  7  6  1  0  0  0  0
  7  5  1  0  0  0  0
  8 10  1  6  0  0  0
  8  5  1  0  0  0  0
  9  4  1  0  0  0  0
 10 13  2  0  0  0  0
 11 18  1  6  0  0  0
 11 13  1  0  0  0  0
 11 15  1  0  0  0  0
 12 15  2  0  0  0  0
 13 20  1  0  0  0  0
 15 19  1  0  0  0  0
 16 18  1  0  0  0  0
 16 10  1  0  0  0  0
 17 18  2  0  0  0  0
 19 14  1  0  0  0  0
 20 14  2  0  0  0  0
 21 22  1  0  0  0  0
 21 17  1  0  0  0  0
 23 24  1  0  0  0  0
 23 22  1  0  0  0  0
 25 24  1  0  0  0  0
 25 26  1  0  0  0  0
 26 27  1  0  0  0  0
 27 29  1  0  0  0  0
 29 28  1  0  0  0  0
 29 31  1  0  0  0  0
 30 29  1  0  0  0  0
 34 35  1  0  0  0  0
 35 33  1  0  0  0  0
 35 32  2  0  0  0  0
 36 40  1  0  0  0  0
 36 43  1  0  0  0  0
 37 41  1  0  0  0  0
 37 44  1  6  0  0  0
 40 39  2  6  0  0  0
 40 38  1  0  0  0  0
 40 42  1  0  0  0  0
 41 34  1  6  0  0  0
 42 41  1  0  0  0  0
 43 37  1  0  0  0  0
 44 45  1  0  0  0  0
M  END
>  <MODEL>
8

>  <REMARK>
 VINA RESULT:      -5.8      3.893      8.218
  Name = 
  12 active torsions:
  status: ('A' for Active; 'I' for Inactive)
    1  A    between atoms: C_1  and  C_41
    2  A    between atoms: N_7  and  C_14
    3  A    between atoms: N_7  and  C_21
    4  A    between atoms: S_8  and  C_9
    5  A    between atoms: S_8  and  C_36
    6  A    between atoms: C_9  and  S_28
    7  A    between atoms: C_12  and  C_21
    8  A    between atoms: N_13  and  C_33
    9  A    between atoms: C_14  and  C_15
   10  A    between atoms: C_15  and  S_28
   11  A    between atoms: C_16  and  O_43
   12  A    between atoms: N_18  and  C_32
                            x       y       z     vdW  Elec       q    Type
                         _______ _______ _______ _____ _____    ______ ____

>  <TORSDO>
F 12

$$$$
=
 OpenBabel11042415193D

 45 49  0  0  1  0  0  0  0  0999 V2000
  195.3530  175.0510  145.9110 C   0  0  0  0  0  2  0  0  0  0  0  0
  194.3870  176.4430  143.2740 C   0  0  0  0  0  2  0  0  0  0  0  0
  196.2020  173.7940  145.8360 C   0  0  0  0  0  2  0  0  0  0  0  0
  197.4620  174.0690  145.0170 C   0  0  0  0  0  2  0  0  0  0  0  0
  194.2500  175.0310  144.9450 N   0  0  2  0  0  0  0  0  0  0  0  0
  195.9710  174.3910  143.0400 C   0  0  2  0  0  3  0  0  0  0  0  0
  194.6090  174.9650  143.5070 C   0  0  2  0  0  3  0  0  0  0  0  0
  193.9510  176.4480  144.7310 C   0  0  2  0  0  3  0  0  0  0  0  0
  197.1830  174.9280  143.7830 C   0  0  0  0  0  2  0  0  0  0  0  0
  192.4830  176.7490  144.9170 C   0  0  0  0  0  0  0  0  0  0  0  0
  190.3010  176.8520  145.7960 C   0  0  2  0  0  3  0  0  0  0  0  0
  188.4850  175.3380  145.5000 O   0  0  0  0  0  0  0  0  0  0  0  0
  191.7280  176.4830  145.9870 C   0  0  0  0  0  0  0  0  0  0  0  0
  191.2260  174.9870  147.8350 C   0  0  0  0  0  3  0  0  0  0  0  0
  189.4590  175.6580  146.1630 C   0  0  0  0  0  0  0  0  0  0  0  0
  191.6740  177.2960  143.7940 C   0  0  0  0  0  2  0  0  0  0  0  0
  189.1950  177.6650  143.7070 C   0  0  0  0  0  3  0  0  0  0  0  0
  190.2910  177.2530  144.3560 C   0  0  0  0  0  0  0  0  0  0  0  0
  189.7620  174.9300  147.4510 C   0  0  0  0  0  2  0  0  0  0  0  0
  192.1380  175.6890  147.1540 C   0  0  0  0  0  3  0  0  0  0  0  0
  189.2530  178.2490  142.0110 S   0  0  0  0  0  0  0  0  0  0  0  0
  187.7660  177.3130  141.5680 C   0  0  0  0  0  2  0  0  0  0  0  0
  187.0560  176.5740  143.0620 S   0  0  0  0  0  0  0  0  0  0  0  0
  187.3590  174.8840  142.4590 C   0  0  0  0  0  2  0  0  0  0  0  0
  188.2360  174.9110  141.2180 C   0  0  0  0  0  2  0  0  0  0  0  0
  189.3870  174.0460  141.4010 N   0  0  0  0  0  2  0  0  0  0  0  0
  188.9900  173.0000  142.3360 C   0  0  0  0  0  2  0  0  0  0  0  0
  189.6570  172.2140  144.5880 C   0  0  0  0  0  1  0  0  0  0  0  0
  190.1680  172.5790  143.2080 C   0  0  0  0  0  0  0  0  0  0  0  0
  190.8030  171.4670  142.6500 O   0  0  0  0  0  1  0  0  0  0  0  0
  191.1600  173.7250  143.3410 C   0  0  0  0  0  1  0  0  0  0  0  0
  194.6970  172.9040  140.9630 O   0  0  0  0  0  0  0  0  0  0  0  0
  196.1350  174.6190  141.6110 N   0  0  0  0  0  2  0  0  0  0  0  0
  195.3900  174.3490  139.2750 N   0  0  0  0  0  2  0  0  0  0  0  0
  195.3850  173.9040  140.6280 C   0  0  0  0  0  0  0  0  0  0  0  0
  194.3220  175.3350  135.7420 O   0  0  0  0  0  0  0  0  0  0  0  0
  193.3800  174.4590  137.8250 C   0  0  1  0  0  3  0  0  0  0  0  0
  196.7460  175.7760  137.0410 O   0  0  0  0  0  1  0  0  0  0  0  0
  196.5620  174.2150  134.9470 O   0  0  0  0  0  0  0  0  0  0  0  0
  195.8130  174.6470  136.1880 P   0  0  2  0  0  0  0  0  0  0  0  0
  194.6380  173.6560  138.2330 C   0  0  1  0  0  3  0  0  0  0  0  0
  195.4830  173.2810  137.1580 O   0  0  0  0  0  0  0  0  0  0  0  0
  193.6860  175.6850  136.9430 C   0  0  0  0  0  2  0  0  0  0  0  0
  192.2850  173.6790  137.3870 O   0  0  0  0  0  0  0  0  0  0  0  0
  191.5660  173.2180  138.5040 C   0  0  0  0  0  1  0  0  0  0  0  0
  2  8  1  0  0  0  0
  3  1  1  0  0  0  0
  4  3  1  0  0  0  0
  5  1  1  1  0  0  0
  6 33  1  6  0  0  0
  6  7  1  0  0  0  0
  6  9  1  0  0  0  0
  7  2  1  1  0  0  0
  7  5  1  0  0  0  0
  8 10  1  6  0  0  0
  8  5  1  0  0  0  0
  9  4  1  0  0  0  0
 10 13  2  0  0  0  0
 11 18  1  6  0  0  0
 11 13  1  0  0  0  0
 11 15  1  0  0  0  0
 12 15  2  0  0  0  0
 13 20  1  0  0  0  0
 15 19  1  0  0  0  0
 16 18  1  0  0  0  0
 16 10  1  0  0  0  0
 17 18  2  0  0  0  0
 19 14  1  0  0  0  0
 20 14  2  0  0  0  0
 21 17  1  0  0  0  0
 22 21  1  0  0  0  0
 22 23  1  0  0  0  0
 24 23  1  0  0  0  0
 25 26  1  0  0  0  0
 25 24  1  0  0  0  0
 26 27  1  0  0  0  0
 27 29  1  0  0  0  0
 29 31  1  0  0  0  0
 29 28  1  0  0  0  0
 30 29  1  0  0  0  0
 34 35  1  0  0  0  0
 35 32  2  0  0  0  0
 35 33  1  0  0  0  0
 36 40  1  0  0  0  0
 36 43  1  0  0  0  0
 37 44  1  6  0  0  0
 37 41  1  0  0  0  0
 40 39  2  6  0  0  0
 40 38  1  0  0  0  0
 40 42  1  0  0  0  0
 41 34  1  1  0  0  0
 42 41  1  0  0  0  0
 43 37  1  0  0  0  0
 44 45  1  0  0  0  0
M  END
>  <MODEL>
9

>  <REMARK>
 VINA RESULT:      -5.7      4.033      7.692
  Name = 
  12 active torsions:
  status: ('A' for Active; 'I' for Inactive)
    1  A    between atoms: C_1  and  C_41
    2  A    between atoms: N_7  and  C_14
    3  A    between atoms: N_7  and  C_21
    4  A    between atoms: S_8  and  C_9
    5  A    between atoms: S_8  and  C_36
    6  A    between atoms: C_9  and  S_28
    7  A    between atoms: C_12  and  C_21
    8  A    between atoms: N_13  and  C_33
    9  A    between atoms: C_14  and  C_15
   10  A    between atoms: C_15  and  S_28
   11  A    between atoms: C_16  and  O_43
   12  A    between atoms: N_18  and  C_32
                            x       y       z     vdW  Elec       q    Type
                         _______ _______ _______ _____ _____    ______ ____

>  <TORSDO>
F 12

$$$$
