=
 OpenBabel11042418503D

 60 63  0  0  1  0  0  0  0  0999 V2000
  187.8260  175.2420  140.0990 N   0  0  0  0  0  2  0  0  0  0  0  0
  187.0080  176.3070  139.5670 C   0  0  0  0  0  0  0  0  0  0  0  0
  186.7770  176.4610  138.2930 N   0  0  0  0  0  0  0  0  0  0  0  0
  186.4540  177.2700  140.4620 N   0  0  0  0  0  2  0  0  0  0  0  0
  187.6240  177.3020  135.7750 O   0  0  0  0  0  1  0  0  0  0  0  0
  188.1610  175.1900  135.0870 O   0  0  0  0  0  0  0  0  0  0  0  0
  187.6730  176.0730  136.0360 C   0  0  0  0  0  0  0  0  0  0  0  0
  187.2400  175.5850  137.3040 N   0  0  0  0  0  2  0  0  0  0  0  0
  188.4640  174.2000  139.3170 C   0  0  0  0  0  2  0  0  0  0  0  0
  189.6910  173.6810  140.0190 C   0  0  0  0  0  2  0  0  0  0  0  0
  189.3470  172.4480  140.8390 C   0  0  0  0  0  2  0  0  0  0  0  0
  190.4690  173.8020  142.4560 F   0  0  0  0  0  0  0  0  0  0  0  0
  189.8720  172.5680  142.2700 C   0  0  0  0  0  0  0  0  0  0  0  0
  188.8160  172.4390  143.1510 F   0  0  0  0  0  0  0  0  0  0  0  0
  190.6880  170.2660  141.6250 C   0  0  0  0  0  1  0  0  0  0  0  0
  190.8960  171.4640  142.5530 C   0  0  1  0  0  3  0  0  0  0  0  0
  192.2060  171.9530  142.4250 O   0  0  0  0  0  0  0  0  0  0  0  0
  192.8970  170.9820  141.6880 C   0  0  0  0  0  2  0  0  0  0  0  0
  194.0840  170.5030  142.5100 C   0  0  0  0  0  2  0  0  0  0  0  0
  194.6750  171.5850  143.2180 O   0  0  0  0  0  0  0  0  0  0  0  0
  195.8460  171.4210  143.9510 C   0  0  0  0  0  0  0  0  0  0  0  0
  196.2210  170.2730  144.3370 O   0  0  0  0  0  0  0  0  0  0  0  0
  196.6410  172.6310  144.3090 C   0  0  0  0  0  2  0  0  0  0  0  0
  193.9520  175.9610  143.4380 O   0  0  0  0  0  1  0  0  0  0  0  0
  194.8830  175.2060  146.1700 C   0  0  0  0  0  2  0  0  0  0  0  0
  195.7470  173.8400  144.5670 C   0  0  1  0  0  3  0  0  0  0  0  0
  195.8660  174.2320  145.9150 O   0  0  0  0  0  0  0  0  0  0  0  0
  194.2430  177.4540  145.6870 O   0  0  0  0  0  1  0  0  0  0  0  0
  195.2500  176.2000  143.9120 C   0  0  2  0  0  3  0  0  0  0  0  0
  196.1480  174.9940  143.6320 C   0  0  2  0  0  3  0  0  0  0  0  0
  195.2150  176.4940  145.4160 C   0  0  2  0  0  3  0  0  0  0  0  0
  196.0350  174.6030  142.2920 O   0  0  0  0  0  0  0  0  0  0  0  0
  196.8610  175.4860  141.5900 C   0  0  0  0  0  2  0  0  0  0  0  0
  197.9060  174.7200  140.7950 C   0  0  0  0  0  2  0  0  0  0  0  0
  197.9310  175.3770  138.2260 C   0  0  0  0  0  1  0  0  0  0  0  0
  197.4800  174.4580  139.3520 C   0  0  1  0  0  0  0  0  0  0  0  0
  197.1490  173.0610  138.9890 C   0  0  0  0  0  2  0  0  0  0  0  0
  196.1480  174.0330  139.2090 O   0  0  0  0  0  0  0  0  0  0  0  0
  186.6060  177.2020  141.9090 C   0  0  1  0  0  3  0  0  0  0  0  0
  188.5790  178.5180  141.7290 O   0  0  0  0  0  0  0  0  0  0  0  0
  188.0210  177.5200  142.2620 C   0  0  0  0  0  0  0  0  0  0  0  0
  188.7210  176.7210  143.2260 N   0  0  0  0  0  2  0  0  0  0  0  0
  189.9440  178.4140  144.2670 O   0  0  0  0  0  1  0  0  0  0  0  0
  190.0090  177.0920  143.8110 C   0  0  1  0  0  0  0  0  0  0  0  0
  191.5700  176.8240  148.3110 C   0  0  0  0  0  1  0  0  0  0  0  0
  189.1820  175.1450  145.2260 C   0  0  0  0  0  2  0  0  0  0  0  0
  191.1030  176.0170  147.1110 C   0  0  2  0  0  3  0  0  0  0  0  0
  190.5480  176.8960  146.1630 O   0  0  0  0  0  0  0  0  0  0  0  0
  190.0500  175.0110  147.5700 C   0  0  0  0  0  2  0  0  0  0  0  0
  189.5790  174.2070  146.3640 C   0  0  0  0  0  2  0  0  0  0  0  0
  190.3190  176.1510  144.9860 C   0  0  2  0  0  3  0  0  0  0  0  0
  191.7790  177.8760  142.5650 O   0  0  0  0  0  0  0  0  0  0  0  0
  191.0380  176.9710  142.8000 N   0  0  0  0  0  0  0  0  0  0  0  0
  185.6860  178.1390  142.5490 N   0  0  0  0  0  2  0  0  0  0  0  0
  185.7410  176.9570  144.6830 C   0  0  0  0  0  3  0  0  0  0  0  0
  185.3380  176.8380  146.0140 C   0  0  0  0  0  3  0  0  0  0  0  0
  185.2330  178.0030  143.9020 C   0  0  0  0  0  0  0  0  0  0  0  0
  184.3520  178.9240  144.4730 C   0  0  0  0  0  3  0  0  0  0  0  0
  183.9760  178.7720  145.8080 C   0  0  0  0  0  3  0  0  0  0  0  0
  184.4720  177.7410  146.5410 N   0  0  0  0  0  0  0  0  0  0  0  0
  2  1  1  0  0  0  0
  2  4  1  0  0  0  0
  3  2  2  0  0  0  0
  5  7  1  0  0  0  0
  6  7  2  0  0  0  0
  7  8  1  0  0  0  0
  8  3  1  0  0  0  0
  9 10  1  0  0  0  0
  9  1  1  0  0  0  0
 10 11  1  0  0  0  0
 11 13  1  0  0  0  0
 13 12  1  0  0  0  0
 13 16  1  0  0  0  0
 13 14  1  0  0  0  0
 16 15  1  6  0  0  0
 17 16  1  0  0  0  0
 18 17  1  0  0  0  0
 18 19  1  0  0  0  0
 19 20  1  0  0  0  0
 20 21  1  0  0  0  0
 21 23  1  0  0  0  0
 21 22  2  0  0  0  0
 26 23  1  1  0  0  0
 26 27  1  0  0  0  0
 27 25  1  0  0  0  0
 29 24  1  1  0  0  0
 29 31  1  0  0  0  0
 30 32  1  6  0  0  0
 30 29  1  0  0  0  0
 30 26  1  0  0  0  0
 31 28  1  6  0  0  0
 31 25  1  0  0  0  0
 33 32  1  0  0  0  0
 34 33  1  0  0  0  0
 36 35  1  6  0  0  0
 36 34  1  0  0  0  0
 37 38  1  0  0  0  0
 37 36  1  0  0  0  0
 38 36  1  0  0  0  0
 39  4  1  6  0  0  0
 39 41  1  0  0  0  0
 39 54  1  0  0  0  0
 40 41  2  0  0  0  0
 41 42  1  0  0  0  0
 42 44  1  0  0  0  0
 44 43  1  1  0  0  0
 46 50  1  0  0  0  0
 47 49  1  0  0  0  0
 47 45  1  1  0  0  0
 48 47  1  0  0  0  0
 50 49  1  0  0  0  0
 51 44  1  6  0  0  0
 51 46  1  0  0  0  0
 51 48  1  0  0  0  0
 52 53  2  0  0  0  0
 53 44  1  0  0  0  0
 54 57  1  0  0  0  0
 55 56  1  0  0  0  0
 56 60  2  0  0  0  0
 57 58  1  0  0  0  0
 57 55  2  0  0  0  0
 58 59  2  0  0  0  0
 59 60  1  0  0  0  0
M  END
>  <MODEL>
1

>  <REMARK>
 VINA RESULT:      -6.4      0.000      0.000
  Name = 
  24 active torsions:
  status: ('A' for Active; 'I' for Inactive)
    1  A    between atoms: O_3  and  C_5
    2  A    between atoms: O_3  and  C_51
    3  A    between atoms: C_5  and  C_55
    4  A    between atoms: N_7  and  C_12
    5  A    between atoms: C_10  and  C_34
    6  A    between atoms: C_10  and  C_50
    7  A    between atoms: C_11  and  C_55
    8  A    between atoms: C_12  and  C_50
    9  A    between atoms: C_15  and  O_45
   10  A    between atoms: C_15  and  C_51
   11  A    between atoms: C_16  and  C_31
   12  A    between atoms: N_17  and  C_27
   13  A    between atoms: C_19  and  C_36
   14  A    between atoms: N_22  and  C_27
   15  A    between atoms: C_26  and  C_34
   16  A    between atoms: C_26  and  O_45
   17  A    between atoms: C_27  and  C_52
   18  A    between atoms: C_31  and  C_38
   19  A    between atoms: C_33  and  N_56
   20  A    between atoms: N_35  and  N_59
   21  A    between atoms: C_36  and  N_56
   22  A    between atoms: C_36  and  N_58
   23  A    between atoms: C_38  and  O_48
   24  A    between atoms: O_48  and  C_49
                            x       y       z     vdW  Elec       q    Type
                         _______ _______ _______ _____ _____    ______ ____

>  <TORSDO>
F 24

$$$$
=
 OpenBabel11042418503D

 60 63  0  0  1  0  0  0  0  0999 V2000
  187.8630  175.2380  139.9380 N   0  0  0  0  0  2  0  0  0  0  0  0
  187.0540  176.3690  139.5470 C   0  0  0  0  0  0  0  0  0  0  0  0
  186.7010  176.6000  138.3130 N   0  0  0  0  0  0  0  0  0  0  0  0
  186.6490  177.3090  140.5400 N   0  0  0  0  0  2  0  0  0  0  0  0
  187.6530  177.5210  135.8610 O   0  0  0  0  0  1  0  0  0  0  0  0
  187.8400  175.4220  134.9780 O   0  0  0  0  0  0  0  0  0  0  0  0
  187.5060  176.2820  136.0120 C   0  0  0  0  0  0  0  0  0  0  0  0
  187.0100  175.7550  137.2410 N   0  0  0  0  0  2  0  0  0  0  0  0
  188.3570  174.2070  139.0450 C   0  0  0  0  0  2  0  0  0  0  0  0
  189.6150  173.5850  139.5930 C   0  0  0  0  0  2  0  0  0  0  0  0
  190.4230  172.9540  138.4700 C   0  0  0  0  0  2  0  0  0  0  0  0
  191.9500  171.7010  139.8130 F   0  0  0  0  0  0  0  0  0  0  0  0
  190.9460  171.5750  138.8700 C   0  0  0  0  0  0  0  0  0  0  0  0
  189.9090  170.8380  139.4100 F   0  0  0  0  0  0  0  0  0  0  0  0
  190.6620  171.1470  136.3970 C   0  0  0  0  0  1  0  0  0  0  0  0
  191.4950  170.8400  137.6430 C   0  0  1  0  0  3  0  0  0  0  0  0
  192.8400  171.1770  137.4190 O   0  0  0  0  0  0  0  0  0  0  0  0
  192.8730  171.7600  136.1460 C   0  0  0  0  0  2  0  0  0  0  0  0
  193.6410  173.0710  136.2320 C   0  0  0  0  0  2  0  0  0  0  0  0
  194.7960  172.9230  137.0480 O   0  0  0  0  0  0  0  0  0  0  0  0
  195.1080  173.8480  138.0410 C   0  0  0  0  0  0  0  0  0  0  0  0
  196.1290  174.5930  137.9440 O   0  0  0  0  0  0  0  0  0  0  0  0
  194.2330  173.9240  139.2470 C   0  0  0  0  0  2  0  0  0  0  0  0
  196.7470  174.2530  142.8040 O   0  0  0  0  0  1  0  0  0  0  0  0
  195.3490  176.5440  141.5000 C   0  0  0  0  0  2  0  0  0  0  0  0
  194.9480  174.5770  140.4250 C   0  0  1  0  0  3  0  0  0  0  0  0
  194.5260  175.9150  140.5480 O   0  0  0  0  0  0  0  0  0  0  0  0
  195.8780  176.6130  143.8260 O   0  0  0  0  0  1  0  0  0  0  0  0
  195.3640  174.4710  142.8880 C   0  0  2  0  0  3  0  0  0  0  0  0
  194.6480  173.7960  141.7160 C   0  0  2  0  0  3  0  0  0  0  0  0
  195.0670  175.9740  142.8910 C   0  0  2  0  0  3  0  0  0  0  0  0
  195.0640  172.4640  141.5930 O   0  0  0  0  0  0  0  0  0  0  0  0
  194.4000  171.7850  142.6190 C   0  0  0  0  0  2  0  0  0  0  0  0
  193.9710  170.4030  142.1540 C   0  0  0  0  0  2  0  0  0  0  0  0
  191.6320  171.1140  143.1810 C   0  0  0  0  0  1  0  0  0  0  0  0
  192.5290  170.0710  142.5300 C   0  0  1  0  0  0  0  0  0  0  0  0
  191.8620  168.9940  141.7640 C   0  0  0  0  0  2  0  0  0  0  0  0
  192.3520  168.7860  143.0720 O   0  0  0  0  0  0  0  0  0  0  0  0
  186.9460  177.1590  141.9580 C   0  0  1  0  0  3  0  0  0  0  0  0
  188.9130  178.4440  141.5900 O   0  0  0  0  0  0  0  0  0  0  0  0
  188.3900  177.4620  142.1850 C   0  0  0  0  0  0  0  0  0  0  0  0
  189.1590  176.6680  143.0990 N   0  0  0  0  0  2  0  0  0  0  0  0
  190.5390  178.4060  143.8210 O   0  0  0  0  0  1  0  0  0  0  0  0
  190.4960  177.0290  143.5670 C   0  0  1  0  0  0  0  0  0  0  0  0
  193.9010  175.7790  146.6670 C   0  0  0  0  0  1  0  0  0  0  0  0
  189.7840  176.5550  145.9640 C   0  0  0  0  0  2  0  0  0  0  0  0
  192.4330  175.6210  146.3070 C   0  0  2  0  0  3  0  0  0  0  0  0
  192.1060  176.5620  145.3140 O   0  0  0  0  0  0  0  0  0  0  0  0
  191.5880  175.8640  147.5560 C   0  0  0  0  0  2  0  0  0  0  0  0
  190.1160  175.7110  147.1920 C   0  0  0  0  0  2  0  0  0  0  0  0
  190.8070  176.2530  144.8560 C   0  0  2  0  0  3  0  0  0  0  0  0
  191.5880  175.5630  142.1680 O   0  0  0  0  0  0  0  0  0  0  0  0
  191.4620  176.6880  142.5440 N   0  0  0  0  0  0  0  0  0  0  0  0
  186.0960  178.0520  142.7410 N   0  0  0  0  0  2  0  0  0  0  0  0
  185.7710  179.1600  144.8900 C   0  0  0  0  0  3  0  0  0  0  0  0
  185.6080  179.0970  146.2750 C   0  0  0  0  0  3  0  0  0  0  0  0
  185.9700  177.9770  144.1660 C   0  0  0  0  0  0  0  0  0  0  0  0
  185.9750  176.7520  144.8370 C   0  0  0  0  0  3  0  0  0  0  0  0
  185.8050  176.7310  146.2210 C   0  0  0  0  0  3  0  0  0  0  0  0
  185.6270  177.8940  146.9030 N   0  0  0  0  0  0  0  0  0  0  0  0
  2  1  1  0  0  0  0
  2  4  1  0  0  0  0
  3  2  2  0  0  0  0
  5  7  1  0  0  0  0
  6  7  2  0  0  0  0
  7  8  1  0  0  0  0
  8  3  1  0  0  0  0
  9 10  1  0  0  0  0
  9  1  1  0  0  0  0
 11 13  1  0  0  0  0
 11 10  1  0  0  0  0
 13 14  1  0  0  0  0
 13 12  1  0  0  0  0
 16 15  1  6  0  0  0
 16 13  1  0  0  0  0
 17 16  1  0  0  0  0
 18 19  1  0  0  0  0
 18 17  1  0  0  0  0
 19 20  1  0  0  0  0
 20 21  1  0  0  0  0
 21 23  1  0  0  0  0
 22 21  2  0  0  0  0
 25 31  1  0  0  0  0
 26 23  1  6  0  0  0
 26 27  1  0  0  0  0
 26 30  1  0  0  0  0
 27 25  1  0  0  0  0
 29 24  1  6  0  0  0
 29 31  1  0  0  0  0
 30 32  1  6  0  0  0
 30 29  1  0  0  0  0
 31 28  1  1  0  0  0
 32 33  1  0  0  0  0
 34 36  1  0  0  0  0
 34 33  1  0  0  0  0
 36 38  1  0  0  0  0
 36 35  1  1  0  0  0
 37 36  1  0  0  0  0
 37 38  1  0  0  0  0
 39  4  1  6  0  0  0
 39 41  1  0  0  0  0
 39 54  1  0  0  0  0
 40 41  2  0  0  0  0
 41 42  1  0  0  0  0
 42 44  1  0  0  0  0
 44 43  1  1  0  0  0
 46 50  1  0  0  0  0
 47 45  1  1  0  0  0
 47 49  1  0  0  0  0
 48 47  1  0  0  0  0
 50 49  1  0  0  0  0
 51 44  1  6  0  0  0
 51 48  1  0  0  0  0
 51 46  1  0  0  0  0
 52 53  2  0  0  0  0
 53 44  1  0  0  0  0
 54 57  1  0  0  0  0
 55 56  1  0  0  0  0
 56 60  2  0  0  0  0
 57 58  1  0  0  0  0
 57 55  2  0  0  0  0
 58 59  2  0  0  0  0
 59 60  1  0  0  0  0
M  END
>  <MODEL>
2

>  <REMARK>
 VINA RESULT:      -6.1      2.056      3.791
  Name = 
  24 active torsions:
  status: ('A' for Active; 'I' for Inactive)
    1  A    between atoms: O_3  and  C_5
    2  A    between atoms: O_3  and  C_51
    3  A    between atoms: C_5  and  C_55
    4  A    between atoms: N_7  and  C_12
    5  A    between atoms: C_10  and  C_34
    6  A    between atoms: C_10  and  C_50
    7  A    between atoms: C_11  and  C_55
    8  A    between atoms: C_12  and  C_50
    9  A    between atoms: C_15  and  O_45
   10  A    between atoms: C_15  and  C_51
   11  A    between atoms: C_16  and  C_31
   12  A    between atoms: N_17  and  C_27
   13  A    between atoms: C_19  and  C_36
   14  A    between atoms: N_22  and  C_27
   15  A    between atoms: C_26  and  C_34
   16  A    between atoms: C_26  and  O_45
   17  A    between atoms: C_27  and  C_52
   18  A    between atoms: C_31  and  C_38
   19  A    between atoms: C_33  and  N_56
   20  A    between atoms: N_35  and  N_59
   21  A    between atoms: C_36  and  N_56
   22  A    between atoms: C_36  and  N_58
   23  A    between atoms: C_38  and  O_48
   24  A    between atoms: O_48  and  C_49
                            x       y       z     vdW  Elec       q    Type
                         _______ _______ _______ _____ _____    ______ ____

>  <TORSDO>
F 24

$$$$
=
 OpenBabel11042418503D

 60 63  0  0  1  0  0  0  0  0999 V2000
  187.7350  175.3580  140.0790 N   0  0  0  0  0  2  0  0  0  0  0  0
  187.0340  176.5260  139.6000 C   0  0  0  0  0  0  0  0  0  0  0  0
  186.7780  176.7360  138.3390 N   0  0  0  0  0  0  0  0  0  0  0  0
  186.6330  177.5270  140.5340 N   0  0  0  0  0  2  0  0  0  0  0  0
  187.7180  177.5250  135.8370 O   0  0  0  0  0  1  0  0  0  0  0  0
  187.9260  175.3810  135.0760 O   0  0  0  0  0  0  0  0  0  0  0  0
  187.5840  176.2950  136.0590 C   0  0  0  0  0  0  0  0  0  0  0  0
  187.0950  175.8350  137.3160 N   0  0  0  0  0  2  0  0  0  0  0  0
  188.2130  174.2650  139.2540 C   0  0  0  0  0  2  0  0  0  0  0  0
  189.5220  173.7350  139.7760 C   0  0  0  0  0  2  0  0  0  0  0  0
  189.2760  172.6990  140.8620 C   0  0  0  0  0  2  0  0  0  0  0  0
  191.0300  173.9750  141.8610 F   0  0  0  0  0  0  0  0  0  0  0  0
  190.3350  172.7840  141.9600 C   0  0  0  0  0  0  0  0  0  0  0  0
  189.7130  172.7250  143.1920 F   0  0  0  0  0  0  0  0  0  0  0  0
  190.5810  170.2960  141.6040 C   0  0  0  0  0  1  0  0  0  0  0  0
  191.3180  171.6140  141.8410 C   0  0  1  0  0  3  0  0  0  0  0  0
  192.2430  171.8430  140.8090 O   0  0  0  0  0  0  0  0  0  0  0  0
  192.4360  170.5980  140.1980 C   0  0  0  0  0  2  0  0  0  0  0  0
  193.9290  170.3810  140.0000 C   0  0  0  0  0  2  0  0  0  0  0  0
  194.5670  171.5950  139.6230 O   0  0  0  0  0  0  0  0  0  0  0  0
  195.8850  171.6150  139.1760 C   0  0  0  0  0  0  0  0  0  0  0  0
  196.5140  170.5390  138.9460 O   0  0  0  0  0  0  0  0  0  0  0  0
  196.5620  172.9330  139.0050 C   0  0  0  0  0  2  0  0  0  0  0  0
  195.0460  175.1020  142.4800 O   0  0  0  0  0  1  0  0  0  0  0  0
  197.9350  174.6280  141.9070 C   0  0  0  0  0  2  0  0  0  0  0  0
  196.5900  173.7290  140.3060 C   0  0  1  0  0  3  0  0  0  0  0  0
  197.9180  174.0850  140.6100 O   0  0  0  0  0  0  0  0  0  0  0  0
  197.2500  176.5130  143.2030 O   0  0  0  0  0  1  0  0  0  0  0  0
  195.7620  175.7750  141.4790 C   0  0  2  0  0  3  0  0  0  0  0  0
  195.7130  174.9840  140.1690 C   0  0  2  0  0  3  0  0  0  0  0  0
  197.2160  175.9780  141.9170 C   0  0  2  0  0  3  0  0  0  0  0  0
  194.3920  174.6310  139.8630 O   0  0  0  0  0  0  0  0  0  0  0  0
  194.1950  175.0800  138.5550 C   0  0  0  0  0  2  0  0  0  0  0  0
  192.9250  174.4830  137.9700 C   0  0  0  0  0  2  0  0  0  0  0  0
  194.4730  173.6830  135.9720 C   0  0  0  0  0  1  0  0  0  0  0  0
  193.1930  173.5570  136.7860 C   0  0  1  0  0  0  0  0  0  0  0  0
  192.5320  172.2330  136.8000 C   0  0  0  0  0  2  0  0  0  0  0  0
  192.0650  173.2920  135.9900 O   0  0  0  0  0  0  0  0  0  0  0  0
  186.8280  177.4080  141.9730 C   0  0  1  0  0  3  0  0  0  0  0  0
  188.8610  178.6160  141.7250 O   0  0  0  0  0  0  0  0  0  0  0  0
  188.2650  177.6580  142.2890 C   0  0  0  0  0  0  0  0  0  0  0  0
  188.9440  176.8410  143.2530 N   0  0  0  0  0  2  0  0  0  0  0  0
  190.2840  178.4940  144.2110 O   0  0  0  0  0  1  0  0  0  0  0  0
  190.2630  177.1550  143.8020 C   0  0  1  0  0  0  0  0  0  0  0  0
  191.5470  176.9970  148.3940 C   0  0  0  0  0  1  0  0  0  0  0  0
  189.4340  175.1860  145.1860 C   0  0  0  0  0  2  0  0  0  0  0  0
  191.1920  176.1600  147.1760 C   0  0  2  0  0  3  0  0  0  0  0  0
  190.6610  177.0040  146.1850 O   0  0  0  0  0  0  0  0  0  0  0  0
  190.1570  175.1120  147.5810 C   0  0  0  0  0  2  0  0  0  0  0  0
  189.7980  174.2770  146.3570 C   0  0  0  0  0  2  0  0  0  0  0  0
  190.5380  176.2400  145.0050 C   0  0  2  0  0  3  0  0  0  0  0  0
  192.3650  176.5760  143.0640 O   0  0  0  0  0  0  0  0  0  0  0  0
  191.2630  176.9370  142.7800 N   0  0  0  0  0  0  0  0  0  0  0  0
  185.9670  178.3590  142.6710 N   0  0  0  0  0  2  0  0  0  0  0  0
  185.8210  176.9800  144.6780 C   0  0  0  0  0  3  0  0  0  0  0  0
  185.3270  176.7590  145.9650 C   0  0  0  0  0  3  0  0  0  0  0  0
  185.4200  178.1230  143.9740 C   0  0  0  0  0  0  0  0  0  0  0  0
  184.5540  179.0350  144.5800 C   0  0  0  0  0  3  0  0  0  0  0  0
  184.0850  178.7800  145.8680 C   0  0  0  0  0  3  0  0  0  0  0  0
  184.4780  177.6570  146.5260 N   0  0  0  0  0  0  0  0  0  0  0  0
  2  1  1  0  0  0  0
  2  4  1  0  0  0  0
  3  2  2  0  0  0  0
  5  7  1  0  0  0  0
  6  7  2  0  0  0  0
  7  8  1  0  0  0  0
  8  3  1  0  0  0  0
  9 10  1  0  0  0  0
  9  1  1  0  0  0  0
 10 11  1  0  0  0  0
 11 13  1  0  0  0  0
 12 13  1  0  0  0  0
 13 14  1  0  0  0  0
 16 15  1  6  0  0  0
 16 13  1  0  0  0  0
 17 16  1  0  0  0  0
 18 17  1  0  0  0  0
 19 18  1  0  0  0  0
 20 19  1  0  0  0  0
 21 20  1  0  0  0  0
 22 21  2  0  0  0  0
 23 21  1  0  0  0  0
 25 31  1  0  0  0  0
 26 23  1  6  0  0  0
 26 27  1  0  0  0  0
 27 25  1  0  0  0  0
 29 31  1  0  0  0  0
 29 24  1  1  0  0  0
 30 32  1  1  0  0  0
 30 26  1  0  0  0  0
 30 29  1  0  0  0  0
 31 28  1  1  0  0  0
 33 32  1  0  0  0  0
 34 33  1  0  0  0  0
 36 35  1  6  0  0  0
 36 37  1  0  0  0  0
 36 34  1  0  0  0  0
 38 36  1  0  0  0  0
 38 37  1  0  0  0  0
 39  4  1  6  0  0  0
 39 41  1  0  0  0  0
 39 54  1  0  0  0  0
 40 41  2  0  0  0  0
 41 42  1  0  0  0  0
 42 44  1  0  0  0  0
 44 43  1  1  0  0  0
 46 50  1  0  0  0  0
 47 49  1  0  0  0  0
 47 45  1  1  0  0  0
 48 47  1  0  0  0  0
 50 49  1  0  0  0  0
 51 44  1  6  0  0  0
 51 46  1  0  0  0  0
 51 48  1  0  0  0  0
 53 52  2  0  0  0  0
 53 44  1  0  0  0  0
 54 57  1  0  0  0  0
 55 56  1  0  0  0  0
 56 60  2  0  0  0  0
 57 58  1  0  0  0  0
 57 55  2  0  0  0  0
 58 59  2  0  0  0  0
 59 60  1  0  0  0  0
M  END
>  <MODEL>
3

>  <REMARK>
 VINA RESULT:      -5.9      1.771      2.591
  Name = 
  24 active torsions:
  status: ('A' for Active; 'I' for Inactive)
    1  A    between atoms: O_3  and  C_5
    2  A    between atoms: O_3  and  C_51
    3  A    between atoms: C_5  and  C_55
    4  A    between atoms: N_7  and  C_12
    5  A    between atoms: C_10  and  C_34
    6  A    between atoms: C_10  and  C_50
    7  A    between atoms: C_11  and  C_55
    8  A    between atoms: C_12  and  C_50
    9  A    between atoms: C_15  and  O_45
   10  A    between atoms: C_15  and  C_51
   11  A    between atoms: C_16  and  C_31
   12  A    between atoms: N_17  and  C_27
   13  A    between atoms: C_19  and  C_36
   14  A    between atoms: N_22  and  C_27
   15  A    between atoms: C_26  and  C_34
   16  A    between atoms: C_26  and  O_45
   17  A    between atoms: C_27  and  C_52
   18  A    between atoms: C_31  and  C_38
   19  A    between atoms: C_33  and  N_56
   20  A    between atoms: N_35  and  N_59
   21  A    between atoms: C_36  and  N_56
   22  A    between atoms: C_36  and  N_58
   23  A    between atoms: C_38  and  O_48
   24  A    between atoms: O_48  and  C_49
                            x       y       z     vdW  Elec       q    Type
                         _______ _______ _______ _____ _____    ______ ____

>  <TORSDO>
F 24

$$$$
=
 OpenBabel11042418503D

 60 63  0  0  1  0  0  0  0  0999 V2000
  193.4090  173.5250  142.4540 N   0  0  0  0  0  2  0  0  0  0  0  0
  192.9920  172.6800  143.5490 C   0  0  0  0  0  0  0  0  0  0  0  0
  192.8230  171.3930  143.4310 N   0  0  0  0  0  0  0  0  0  0  0  0
  192.7060  173.2730  144.8140 N   0  0  0  0  0  2  0  0  0  0  0  0
  190.8890  169.9070  142.0830 O   0  0  0  0  0  1  0  0  0  0  0  0
  192.3230  169.2690  140.4230 O   0  0  0  0  0  0  0  0  0  0  0  0
  192.0500  169.9410  141.6030 C   0  0  0  0  0  0  0  0  0  0  0  0
  193.0820  170.6750  142.2570 N   0  0  0  0  0  2  0  0  0  0  0  0
  193.7250  173.0720  141.1130 C   0  0  0  0  0  2  0  0  0  0  0  0
  194.9720  173.7440  140.6020 C   0  0  0  0  0  2  0  0  0  0  0  0
  195.9030  172.7190  139.9730 C   0  0  0  0  0  2  0  0  0  0  0  0
  197.9270  173.9600  140.2310 F   0  0  0  0  0  0  0  0  0  0  0  0
  197.0900  173.3950  139.2870 C   0  0  0  0  0  0  0  0  0  0  0  0
  197.7940  172.4480  138.5680 F   0  0  0  0  0  0  0  0  0  0  0  0
  197.7450  175.4010  137.8990 C   0  0  0  0  0  1  0  0  0  0  0  0
  196.5980  174.4860  138.3300 C   0  0  1  0  0  3  0  0  0  0  0  0
  195.9820  173.9190  137.2020 O   0  0  0  0  0  0  0  0  0  0  0  0
  195.2680  174.9640  136.6030 C   0  0  0  0  0  2  0  0  0  0  0  0
  194.0130  175.2260  137.4220 C   0  0  0  0  0  2  0  0  0  0  0  0
  193.0390  175.9110  136.6440 O   0  0  0  0  0  0  0  0  0  0  0  0
  191.9640  175.2390  136.0700 C   0  0  0  0  0  0  0  0  0  0  0  0
  191.7150  175.3390  134.8310 O   0  0  0  0  0  0  0  0  0  0  0  0
  191.0800  174.4220  136.9510 C   0  0  0  0  0  2  0  0  0  0  0  0
  189.7360  170.2800  136.5950 O   0  0  0  0  0  1  0  0  0  0  0  0
  192.3360  171.3130  135.5570 C   0  0  0  0  0  2  0  0  0  0  0  0
  191.1170  172.9430  136.5760 C   0  0  1  0  0  3  0  0  0  0  0  0
  192.3960  172.6160  136.0850 O   0  0  0  0  0  0  0  0  0  0  0  0
  192.0980  169.0150  136.1540 O   0  0  0  0  0  1  0  0  0  0  0  0
  190.8280  170.6060  137.4140 C   0  0  2  0  0  3  0  0  0  0  0  0
  190.7750  172.0840  137.8050 C   0  0  2  0  0  3  0  0  0  0  0  0
  192.1410  170.3010  136.6860 C   0  0  2  0  0  3  0  0  0  0  0  0
  189.5040  172.4120  138.2970 O   0  0  0  0  0  0  0  0  0  0  0  0
  189.5260  172.0170  139.6370 C   0  0  0  0  0  2  0  0  0  0  0  0
  190.2280  173.0620  140.4910 C   0  0  0  0  0  2  0  0  0  0  0  0
  188.4490  174.9350  141.0920 C   0  0  0  0  0  1  0  0  0  0  0  0
  189.2940  173.7340  141.4940 C   0  0  1  0  0  0  0  0  0  0  0  0
  188.7930  172.9030  142.6120 C   0  0  0  0  0  2  0  0  0  0  0  0
  189.8240  173.8510  142.7910 O   0  0  0  0  0  0  0  0  0  0  0  0
  192.8810  174.6920  145.0940 C   0  0  1  0  0  3  0  0  0  0  0  0
  192.1050  175.2010  147.2840 O   0  0  0  0  0  0  0  0  0  0  0  0
  191.8260  175.1290  146.0560 C   0  0  0  0  0  0  0  0  0  0  0  0
  190.5240  175.4990  145.5800 N   0  0  0  0  0  2  0  0  0  0  0  0
  190.0630  177.3250  146.9580 O   0  0  0  0  0  1  0  0  0  0  0  0
  189.5140  176.1610  146.4030 C   0  0  1  0  0  0  0  0  0  0  0  0
  184.8380  177.1090  146.3620 C   0  0  0  0  0  1  0  0  0  0  0  0
  188.6360  177.6620  144.5450 C   0  0  0  0  0  2  0  0  0  0  0  0
  186.0750  176.9320  145.4970 C   0  0  2  0  0  3  0  0  0  0  0  0
  187.2080  176.8960  146.3290 O   0  0  0  0  0  0  0  0  0  0  0  0
  186.1740  178.1080  144.5280 C   0  0  0  0  0  2  0  0  0  0  0  0
  187.4170  177.9320  143.6650 C   0  0  0  0  0  2  0  0  0  0  0  0
  188.3070  176.5250  145.5240 C   0  0  2  0  0  3  0  0  0  0  0  0
  188.9270  174.1000  147.2440 O   0  0  0  0  0  0  0  0  0  0  0  0
  189.1000  175.2620  147.4590 N   0  0  0  0  0  0  0  0  0  0  0  0
  194.2150  174.9300  145.6400 N   0  0  0  0  0  2  0  0  0  0  0  0
  195.3780  176.2520  143.9520 C   0  0  0  0  0  3  0  0  0  0  0  0
  196.5150  176.5090  143.1840 C   0  0  0  0  0  3  0  0  0  0  0  0
  195.3730  175.1590  144.8280 C   0  0  0  0  0  0  0  0  0  0  0  0
  196.5120  174.3600  144.9380 C   0  0  0  0  0  3  0  0  0  0  0  0
  197.6300  174.6520  144.1560 C   0  0  0  0  0  3  0  0  0  0  0  0
  197.6060  175.7100  143.3030 N   0  0  0  0  0  0  0  0  0  0  0  0
  1  2  1  0  0  0  0
  2  4  1  0  0  0  0
  3  2  2  0  0  0  0
  6  7  2  0  0  0  0
  7  5  1  0  0  0  0
  7  8  1  0  0  0  0
  8  3  1  0  0  0  0
  9  1  1  0  0  0  0
 10  9  1  0  0  0  0
 11 10  1  0  0  0  0
 13 11  1  0  0  0  0
 13 12  1  0  0  0  0
 14 13  1  0  0  0  0
 16 15  1  6  0  0  0
 16 13  1  0  0  0  0
 17 16  1  0  0  0  0
 18 17  1  0  0  0  0
 18 19  1  0  0  0  0
 20 19  1  0  0  0  0
 21 20  1  0  0  0  0
 21 23  1  0  0  0  0
 22 21  2  0  0  0  0
 25 27  1  0  0  0  0
 25 31  1  0  0  0  0
 26 23  1  1  0  0  0
 26 30  1  0  0  0  0
 27 26  1  0  0  0  0
 29 24  1  6  0  0  0
 29 30  1  0  0  0  0
 30 32  1  6  0  0  0
 31 28  1  6  0  0  0
 31 29  1  0  0  0  0
 32 33  1  0  0  0  0
 33 34  1  0  0  0  0
 34 36  1  0  0  0  0
 36 35  1  6  0  0  0
 36 37  1  0  0  0  0
 36 38  1  0  0  0  0
 37 38  1  0  0  0  0
 39  4  1  1  0  0  0
 39 54  1  0  0  0  0
 39 41  1  0  0  0  0
 41 40  2  0  0  0  0
 42 41  1  0  0  0  0
 42 44  1  0  0  0  0
 44 43  1  1  0  0  0
 44 53  1  0  0  0  0
 46 51  1  0  0  0  0
 47 48  1  0  0  0  0
 47 45  1  1  0  0  0
 49 47  1  0  0  0  0
 50 49  1  0  0  0  0
 50 46  1  0  0  0  0
 51 48  1  0  0  0  0
 51 44  1  1  0  0  0
 52 53  2  0  0  0  0
 55 57  1  0  0  0  0
 56 60  1  0  0  0  0
 56 55  2  0  0  0  0
 57 58  2  0  0  0  0
 57 54  1  0  0  0  0
 59 58  1  0  0  0  0
 60 59  2  0  0  0  0
M  END
>  <MODEL>
4

>  <REMARK>
 VINA RESULT:      -5.7      3.653      8.569
  Name = 
  24 active torsions:
  status: ('A' for Active; 'I' for Inactive)
    1  A    between atoms: O_3  and  C_5
    2  A    between atoms: O_3  and  C_51
    3  A    between atoms: C_5  and  C_55
    4  A    between atoms: N_7  and  C_12
    5  A    between atoms: C_10  and  C_34
    6  A    between atoms: C_10  and  C_50
    7  A    between atoms: C_11  and  C_55
    8  A    between atoms: C_12  and  C_50
    9  A    between atoms: C_15  and  O_45
   10  A    between atoms: C_15  and  C_51
   11  A    between atoms: C_16  and  C_31
   12  A    between atoms: N_17  and  C_27
   13  A    between atoms: C_19  and  C_36
   14  A    between atoms: N_22  and  C_27
   15  A    between atoms: C_26  and  C_34
   16  A    between atoms: C_26  and  O_45
   17  A    between atoms: C_27  and  C_52
   18  A    between atoms: C_31  and  C_38
   19  A    between atoms: C_33  and  N_56
   20  A    between atoms: N_35  and  N_59
   21  A    between atoms: C_36  and  N_56
   22  A    between atoms: C_36  and  N_58
   23  A    between atoms: C_38  and  O_48
   24  A    between atoms: O_48  and  C_49
                            x       y       z     vdW  Elec       q    Type
                         _______ _______ _______ _____ _____    ______ ____

>  <TORSDO>
F 24

$$$$
=
 OpenBabel11042418503D

 60 63  0  0  1  0  0  0  0  0999 V2000
  188.4040  173.7680  140.3790 N   0  0  0  0  0  2  0  0  0  0  0  0
  187.9970  174.8180  139.4740 C   0  0  0  0  0  0  0  0  0  0  0  0
  188.0510  174.7000  138.1770 N   0  0  0  0  0  0  0  0  0  0  0  0
  187.5520  176.0630  140.0090 N   0  0  0  0  0  2  0  0  0  0  0  0
  189.8920  174.6760  136.0850 O   0  0  0  0  0  1  0  0  0  0  0  0
  189.8080  172.4050  135.8410 O   0  0  0  0  0  0  0  0  0  0  0  0
  189.4040  173.5790  136.4570 C   0  0  0  0  0  0  0  0  0  0  0  0
  188.4480  173.5330  137.5130 N   0  0  0  0  0  2  0  0  0  0  0  0
  188.8850  172.4580  139.9870 C   0  0  0  0  0  2  0  0  0  0  0  0
  190.1090  172.0800  140.7800 C   0  0  0  0  0  2  0  0  0  0  0  0
  191.2870  171.8380  139.8490 C   0  0  0  0  0  2  0  0  0  0  0  0
  193.1770  170.7610  140.8330 F   0  0  0  0  0  0  0  0  0  0  0  0
  191.9880  170.5190  140.1710 C   0  0  0  0  0  0  0  0  0  0  0  0
  191.1670  169.7580  140.9810 F   0  0  0  0  0  0  0  0  0  0  0  0
  191.1020  169.8370  137.9060 C   0  0  0  0  0  1  0  0  0  0  0  0
  192.2750  169.7430  138.8810 C   0  0  1  0  0  3  0  0  0  0  0  0
  193.4500  170.2090  138.2700 O   0  0  0  0  0  0  0  0  0  0  0  0
  193.0370  170.8030  137.0710 C   0  0  0  0  0  2  0  0  0  0  0  0
  193.7300  172.1510  136.9330 C   0  0  0  0  0  2  0  0  0  0  0  0
  194.9060  172.1950  137.7320 O   0  0  0  0  0  0  0  0  0  0  0  0
  195.3030  173.3630  138.3760 C   0  0  0  0  0  0  0  0  0  0  0  0
  196.2810  174.0470  137.9480 O   0  0  0  0  0  0  0  0  0  0  0  0
  194.5750  173.7820  139.6090 C   0  0  0  0  0  2  0  0  0  0  0  0
  197.6830  174.6720  142.5470 O   0  0  0  0  0  1  0  0  0  0  0  0
  195.9430  176.7190  141.2490 C   0  0  0  0  0  2  0  0  0  0  0  0
  195.4590  174.6120  140.5340 C   0  0  1  0  0  3  0  0  0  0  0  0
  194.9930  175.9410  140.5610 O   0  0  0  0  0  0  0  0  0  0  0  0
  196.8890  177.1230  143.4020 O   0  0  0  0  0  1  0  0  0  0  0  0
  196.3290  174.8580  142.8640 C   0  0  2  0  0  3  0  0  0  0  0  0
  195.4470  174.0070  141.9480 C   0  0  2  0  0  3  0  0  0  0  0  0
  195.9560  176.3380  142.7300 C   0  0  2  0  0  3  0  0  0  0  0  0
  195.9070  172.6840  141.9220 O   0  0  0  0  0  0  0  0  0  0  0  0
  195.1920  172.0370  142.9330 C   0  0  0  0  0  2  0  0  0  0  0  0
  196.1060  171.1230  143.7330 C   0  0  0  0  0  2  0  0  0  0  0  0
  195.1070  170.1510  145.9880 C   0  0  0  0  0  1  0  0  0  0  0  0
  195.8810  171.2270  145.2400 C   0  0  1  0  0  0  0  0  0  0  0  0
  196.8650  172.0130  146.0170 C   0  0  0  0  0  2  0  0  0  0  0  0
  195.5890  172.5250  145.6940 O   0  0  0  0  0  0  0  0  0  0  0  0
  187.4140  176.3210  141.4360 C   0  0  1  0  0  3  0  0  0  0  0  0
  188.9610  178.0390  141.9900 O   0  0  0  0  0  0  0  0  0  0  0  0
  188.7220  176.8010  141.9700 C   0  0  0  0  0  0  0  0  0  0  0  0
  189.6770  175.8650  142.4900 N   0  0  0  0  0  2  0  0  0  0  0  0
  190.9850  177.6460  143.2390 O   0  0  0  0  0  1  0  0  0  0  0  0
  190.8670  176.2500  143.2470 C   0  0  1  0  0  0  0  0  0  0  0  0
  190.2920  177.5370  147.8050 C   0  0  0  0  0  1  0  0  0  0  0  0
  189.7280  174.5870  144.8010 C   0  0  0  0  0  2  0  0  0  0  0  0
  190.5010  176.3610  146.8650 C   0  0  2  0  0  3  0  0  0  0  0  0
  190.3270  176.8010  145.5420 O   0  0  0  0  0  0  0  0  0  0  0  0
  189.4770  175.2760  147.1940 C   0  0  0  0  0  2  0  0  0  0  0  0
  189.6850  174.1000  146.2480 C   0  0  0  0  0  2  0  0  0  0  0  0
  190.7300  175.7480  144.6930 C   0  0  2  0  0  3  0  0  0  0  0  0
  192.7180  174.8810  143.2250 O   0  0  0  0  0  0  0  0  0  0  0  0
  192.0320  175.6540  142.6290 N   0  0  0  0  0  0  0  0  0  0  0  0
  186.3630  177.3100  141.6620 N   0  0  0  0  0  2  0  0  0  0  0  0
  185.8730  176.8380  144.0050 C   0  0  0  0  0  3  0  0  0  0  0  0
  185.5340  177.2790  145.2860 C   0  0  0  0  0  3  0  0  0  0  0  0
  185.9750  177.7690  142.9630 C   0  0  0  0  0  0  0  0  0  0  0  0
  185.7630  179.1240  143.2260 C   0  0  0  0  0  3  0  0  0  0  0  0
  185.4300  179.5240  144.5200 C   0  0  0  0  0  3  0  0  0  0  0  0
  185.3230  178.6010  145.5120 N   0  0  0  0  0  0  0  0  0  0  0  0
  2  4  1  0  0  0  0
  2  1  1  0  0  0  0
  3  2  2  0  0  0  0
  5  7  1  0  0  0  0
  6  7  2  0  0  0  0
  7  8  1  0  0  0  0
  8  3  1  0  0  0  0
  9  1  1  0  0  0  0
  9 10  1  0  0  0  0
 11 13  1  0  0  0  0
 11 10  1  0  0  0  0
 13 12  1  0  0  0  0
 13 14  1  0  0  0  0
 16 15  1  6  0  0  0
 16 13  1  0  0  0  0
 17 16  1  0  0  0  0
 18 17  1  0  0  0  0
 19 18  1  0  0  0  0
 19 20  1  0  0  0  0
 20 21  1  0  0  0  0
 21 23  1  0  0  0  0
 22 21  2  0  0  0  0
 25 31  1  0  0  0  0
 26 23  1  6  0  0  0
 26 27  1  0  0  0  0
 26 30  1  0  0  0  0
 27 25  1  0  0  0  0
 29 24  1  6  0  0  0
 30 32  1  6  0  0  0
 30 29  1  0  0  0  0
 31 29  1  0  0  0  0
 31 28  1  1  0  0  0
 32 33  1  0  0  0  0
 33 34  1  0  0  0  0
 34 36  1  0  0  0  0
 36 38  1  0  0  0  0
 36 35  1  1  0  0  0
 36 37  1  0  0  0  0
 38 37  1  0  0  0  0
 39  4  1  6  0  0  0
 39 54  1  0  0  0  0
 39 41  1  0  0  0  0
 41 40  2  0  0  0  0
 41 42  1  0  0  0  0
 42 44  1  0  0  0  0
 44 43  1  6  0  0  0
 46 50  1  0  0  0  0
 47 49  1  0  0  0  0
 47 45  1  1  0  0  0
 48 47  1  0  0  0  0
 50 49  1  0  0  0  0
 51 44  1  6  0  0  0
 51 46  1  0  0  0  0
 51 48  1  0  0  0  0
 53 52  2  0  0  0  0
 53 44  1  0  0  0  0
 54 57  1  0  0  0  0
 55 56  1  0  0  0  0
 56 60  2  0  0  0  0
 57 58  1  0  0  0  0
 57 55  2  0  0  0  0
 58 59  2  0  0  0  0
 59 60  1  0  0  0  0
M  END
>  <MODEL>
5

>  <REMARK>
 VINA RESULT:      -5.7      2.108      3.697
  Name = 
  24 active torsions:
  status: ('A' for Active; 'I' for Inactive)
    1  A    between atoms: O_3  and  C_5
    2  A    between atoms: O_3  and  C_51
    3  A    between atoms: C_5  and  C_55
    4  A    between atoms: N_7  and  C_12
    5  A    between atoms: C_10  and  C_34
    6  A    between atoms: C_10  and  C_50
    7  A    between atoms: C_11  and  C_55
    8  A    between atoms: C_12  and  C_50
    9  A    between atoms: C_15  and  O_45
   10  A    between atoms: C_15  and  C_51
   11  A    between atoms: C_16  and  C_31
   12  A    between atoms: N_17  and  C_27
   13  A    between atoms: C_19  and  C_36
   14  A    between atoms: N_22  and  C_27
   15  A    between atoms: C_26  and  C_34
   16  A    between atoms: C_26  and  O_45
   17  A    between atoms: C_27  and  C_52
   18  A    between atoms: C_31  and  C_38
   19  A    between atoms: C_33  and  N_56
   20  A    between atoms: N_35  and  N_59
   21  A    between atoms: C_36  and  N_56
   22  A    between atoms: C_36  and  N_58
   23  A    between atoms: C_38  and  O_48
   24  A    between atoms: O_48  and  C_49
                            x       y       z     vdW  Elec       q    Type
                         _______ _______ _______ _____ _____    ______ ____

>  <TORSDO>
F 24

$$$$
=
 OpenBabel11042418503D

 60 63  0  0  1  0  0  0  0  0999 V2000
  189.0010  175.2180  142.8200 N   0  0  0  0  0  2  0  0  0  0  0  0
  189.3750  176.6070  142.6930 C   0  0  0  0  0  0  0  0  0  0  0  0
  190.6130  177.0110  142.6520 N   0  0  0  0  0  0  0  0  0  0  0  0
  188.3510  177.6000  142.6510 N   0  0  0  0  0  2  0  0  0  0  0  0
  192.6820  177.1970  144.5110 O   0  0  0  0  0  1  0  0  0  0  0  0
  193.8040  175.3970  143.6630 O   0  0  0  0  0  0  0  0  0  0  0  0
  192.7410  176.2850  143.6480 C   0  0  0  0  0  0  0  0  0  0  0  0
  191.7170  176.1500  142.6650 N   0  0  0  0  0  2  0  0  0  0  0  0
  189.9230  174.1000  142.8850 C   0  0  0  0  0  2  0  0  0  0  0  0
  189.3220  172.8750  142.2480 C   0  0  0  0  0  2  0  0  0  0  0  0
  190.1250  172.4720  141.0200 C   0  0  0  0  0  2  0  0  0  0  0  0
  188.1520  173.3660  140.0150 F   0  0  0  0  0  0  0  0  0  0  0  0
  189.4240  172.9040  139.7330 C   0  0  0  0  0  0  0  0  0  0  0  0
  190.1520  173.9170  139.1400 F   0  0  0  0  0  0  0  0  0  0  0  0
  189.3870  172.1980  137.3080 C   0  0  0  0  0  1  0  0  0  0  0  0
  189.3280  171.7230  138.7600 C   0  0  1  0  0  3  0  0  0  0  0  0
  190.3480  170.7900  139.0060 O   0  0  0  0  0  0  0  0  0  0  0  0
  191.2200  170.8940  137.9150 C   0  0  0  0  0  2  0  0  0  0  0  0
  192.3260  169.8610  138.0790 C   0  0  0  0  0  2  0  0  0  0  0  0
  193.6040  170.4670  137.9350 O   0  0  0  0  0  0  0  0  0  0  0  0
  194.4760  170.5880  139.0120 C   0  0  0  0  0  0  0  0  0  0  0  0
  195.5230  169.8770  139.0900 O   0  0  0  0  0  0  0  0  0  0  0  0
  194.1380  171.5490  140.1020 C   0  0  0  0  0  2  0  0  0  0  0  0
  197.7980  173.8890  140.5560 O   0  0  0  0  0  1  0  0  0  0  0  0
  195.1830  174.9940  139.6360 C   0  0  0  0  0  2  0  0  0  0  0  0
  195.0560  172.7670  140.0890 C   0  0  1  0  0  3  0  0  0  0  0  0
  194.2930  173.9270  139.8490 O   0  0  0  0  0  0  0  0  0  0  0  0
  196.7800  176.4010  140.7170 O   0  0  0  0  0  1  0  0  0  0  0  0
  196.7030  174.1090  141.4050 C   0  0  2  0  0  3  0  0  0  0  0  0
  195.7970  172.8770  141.4320 C   0  0  2  0  0  3  0  0  0  0  0  0
  195.9120  175.3350  140.9370 C   0  0  2  0  0  3  0  0  0  0  0  0
  196.5520  171.7220  141.6730 O   0  0  0  0  0  0  0  0  0  0  0  0
  196.7720  171.7190  143.0530 C   0  0  0  0  0  2  0  0  0  0  0  0
  195.5330  171.2350  143.7900 C   0  0  0  0  0  2  0  0  0  0  0  0
  196.6820  172.1820  145.9830 C   0  0  0  0  0  1  0  0  0  0  0  0
  195.4320  171.7850  145.2100 C   0  0  1  0  0  0  0  0  0  0  0  0
  194.1670  172.4540  145.5870 C   0  0  0  0  0  2  0  0  0  0  0  0
  194.4750  171.1430  146.0150 O   0  0  0  0  0  0  0  0  0  0  0  0
  186.9280  177.2890  142.6570 C   0  0  1  0  0  3  0  0  0  0  0  0
  185.7510  175.9690  144.2480 O   0  0  0  0  0  0  0  0  0  0  0  0
  186.5120  176.9570  144.0520 C   0  0  0  0  0  0  0  0  0  0  0  0
  187.0030  177.7300  145.1560 N   0  0  0  0  0  2  0  0  0  0  0  0
  185.7700  176.4560  146.6720 O   0  0  0  0  0  1  0  0  0  0  0  0
  186.8490  177.3410  146.5560 C   0  0  1  0  0  0  0  0  0  0  0  0
  189.5610  173.4290  146.2210 C   0  0  0  0  0  1  0  0  0  0  0  0
  189.3450  177.6030  146.9790 C   0  0  0  0  0  2  0  0  0  0  0  0
  189.4060  174.7760  146.9090 C   0  0  2  0  0  3  0  0  0  0  0  0
  188.4010  175.5080  146.2520 O   0  0  0  0  0  0  0  0  0  0  0  0
  190.7340  175.5260  146.8340 C   0  0  0  0  0  2  0  0  0  0  0  0
  190.5750  176.8780  147.5200 C   0  0  0  0  0  2  0  0  0  0  0  0
  188.1380  176.6530  147.0330 C   0  0  2  0  0  3  0  0  0  0  0  0
  185.8280  179.3580  146.9880 O   0  0  0  0  0  0  0  0  0  0  0  0
  186.6010  178.5250  147.3510 N   0  0  0  0  0  0  0  0  0  0  0  0
  186.1690  178.4250  142.1430 N   0  0  0  0  0  2  0  0  0  0  0  0
  183.8320  178.5980  142.8210 C   0  0  0  0  0  3  0  0  0  0  0  0
  182.4720  178.5790  142.5050 C   0  0  0  0  0  3  0  0  0  0  0  0
  184.7760  178.3620  141.8130 C   0  0  0  0  0  0  0  0  0  0  0  0
  184.3440  178.1370  140.5050 C   0  0  0  0  0  3  0  0  0  0  0  0
  182.9770  178.1290  140.2290 C   0  0  0  0  0  3  0  0  0  0  0  0
  182.0800  178.3470  141.2260 N   0  0  0  0  0  0  0  0  0  0  0  0
  1  9  1  0  0  0  0
  2  1  1  0  0  0  0
  3  8  1  0  0  0  0
  3  2  2  0  0  0  0
  4 39  1  0  0  0  0
  4  2  1  0  0  0  0
  7  6  2  0  0  0  0
  7  5  1  0  0  0  0
  8  7  1  0  0  0  0
 10  9  1  0  0  0  0
 11 10  1  0  0  0  0
 13 12  1  0  0  0  0
 13 11  1  0  0  0  0
 14 13  1  0  0  0  0
 16 15  1  6  0  0  0
 16 17  1  0  0  0  0
 16 13  1  0  0  0  0
 18 19  1  0  0  0  0
 18 17  1  0  0  0  0
 20 19  1  0  0  0  0
 20 21  1  0  0  0  0
 21 22  2  0  0  0  0
 21 23  1  0  0  0  0
 25 27  1  0  0  0  0
 25 31  1  0  0  0  0
 26 23  1  1  0  0  0
 26 30  1  0  0  0  0
 27 26  1  0  0  0  0
 29 24  1  6  0  0  0
 29 30  1  0  0  0  0
 30 32  1  6  0  0  0
 31 28  1  6  0  0  0
 31 29  1  0  0  0  0
 32 33  1  0  0  0  0
 33 34  1  0  0  0  0
 34 36  1  0  0  0  0
 36 37  1  0  0  0  0
 36 35  1  1  0  0  0
 36 38  1  0  0  0  0
 37 38  1  0  0  0  0
 39 54  1  1  0  0  0
 39 41  1  0  0  0  0
 41 40  2  0  0  0  0
 41 42  1  0  0  0  0
 42 44  1  0  0  0  0
 44 43  1  1  0  0  0
 44 53  1  0  0  0  0
 46 51  1  0  0  0  0
 46 50  1  0  0  0  0
 47 45  1  6  0  0  0
 48 47  1  0  0  0  0
 48 51  1  0  0  0  0
 49 47  1  0  0  0  0
 49 50  1  0  0  0  0
 51 44  1  6  0  0  0
 52 53  2  0  0  0  0
 56 55  1  0  0  0  0
 57 54  1  0  0  0  0
 57 55  2  0  0  0  0
 58 57  1  0  0  0  0
 59 58  2  0  0  0  0
 59 60  1  0  0  0  0
 60 56  2  0  0  0  0
M  END
>  <MODEL>
6

>  <REMARK>
 VINA RESULT:      -5.5      2.695      5.039
  Name = 
  24 active torsions:
  status: ('A' for Active; 'I' for Inactive)
    1  A    between atoms: O_3  and  C_5
    2  A    between atoms: O_3  and  C_51
    3  A    between atoms: C_5  and  C_55
    4  A    between atoms: N_7  and  C_12
    5  A    between atoms: C_10  and  C_34
    6  A    between atoms: C_10  and  C_50
    7  A    between atoms: C_11  and  C_55
    8  A    between atoms: C_12  and  C_50
    9  A    between atoms: C_15  and  O_45
   10  A    between atoms: C_15  and  C_51
   11  A    between atoms: C_16  and  C_31
   12  A    between atoms: N_17  and  C_27
   13  A    between atoms: C_19  and  C_36
   14  A    between atoms: N_22  and  C_27
   15  A    between atoms: C_26  and  C_34
   16  A    between atoms: C_26  and  O_45
   17  A    between atoms: C_27  and  C_52
   18  A    between atoms: C_31  and  C_38
   19  A    between atoms: C_33  and  N_56
   20  A    between atoms: N_35  and  N_59
   21  A    between atoms: C_36  and  N_56
   22  A    between atoms: C_36  and  N_58
   23  A    between atoms: C_38  and  O_48
   24  A    between atoms: O_48  and  C_49
                            x       y       z     vdW  Elec       q    Type
                         _______ _______ _______ _____ _____    ______ ____

>  <TORSDO>
F 24

$$$$
=
 OpenBabel11042418503D

 60 63  0  0  1  0  0  0  0  0999 V2000
  188.1270  174.5490  139.3610 N   0  0  0  0  0  2  0  0  0  0  0  0
  187.4030  175.7920  139.2350 C   0  0  0  0  0  0  0  0  0  0  0  0
  187.0280  176.2850  138.0870 N   0  0  0  0  0  0  0  0  0  0  0  0
  187.1120  176.5490  140.4080 N   0  0  0  0  0  2  0  0  0  0  0  0
  187.8120  177.6210  135.7710 O   0  0  0  0  0  1  0  0  0  0  0  0
  187.8680  175.7150  134.5130 O   0  0  0  0  0  0  0  0  0  0  0  0
  187.6410  176.3770  135.7080 C   0  0  0  0  0  0  0  0  0  0  0  0
  187.2280  175.6440  136.8590 N   0  0  0  0  0  2  0  0  0  0  0  0
  188.5030  173.6780  138.2640 C   0  0  0  0  0  2  0  0  0  0  0  0
  189.7180  172.8630  138.6220 C   0  0  0  0  0  2  0  0  0  0  0  0
  190.4820  172.4770  137.3650 C   0  0  0  0  0  2  0  0  0  0  0  0
  189.5690  170.3180  137.8190 F   0  0  0  0  0  0  0  0  0  0  0  0
  189.9800  171.1510  136.7950 C   0  0  0  0  0  0  0  0  0  0  0  0
  188.9100  171.3970  135.9560 F   0  0  0  0  0  0  0  0  0  0  0  0
  191.0100  170.8200  134.5130 C   0  0  0  0  0  1  0  0  0  0  0  0
  191.0920  170.4620  135.9970 C   0  0  1  0  0  3  0  0  0  0  0  0
  192.3560  170.8020  136.5070 O   0  0  0  0  0  0  0  0  0  0  0  0
  192.9070  169.6010  136.9710 C   0  0  0  0  0  2  0  0  0  0  0  0
  193.7740  169.9020  138.1840 C   0  0  0  0  0  2  0  0  0  0  0  0
  193.7010  171.2810  138.5250 O   0  0  0  0  0  0  0  0  0  0  0  0
  194.6460  171.8750  139.3540 C   0  0  0  0  0  0  0  0  0  0  0  0
  195.8850  171.7950  139.0980 O   0  0  0  0  0  0  0  0  0  0  0  0
  194.1770  172.5840  140.5800 C   0  0  0  0  0  2  0  0  0  0  0  0
  191.3260  171.1450  143.5610 O   0  0  0  0  0  1  0  0  0  0  0  0
  193.5860  169.5360  142.4640 C   0  0  0  0  0  2  0  0  0  0  0  0
  193.5160  171.6280  141.5690 C   0  0  1  0  0  3  0  0  0  0  0  0
  194.3170  170.4790  141.7180 O   0  0  0  0  0  0  0  0  0  0  0  0
  192.7140  169.0750  144.6370 O   0  0  0  0  0  1  0  0  0  0  0  0
  192.6700  171.3540  143.9050 C   0  0  2  0  0  3  0  0  0  0  0  0
  193.3230  172.3300  142.9240 C   0  0  2  0  0  3  0  0  0  0  0  0
  193.4260  170.0220  143.9050 C   0  0  2  0  0  3  0  0  0  0  0  0
  192.5300  173.4750  142.7760 O   0  0  0  0  0  0  0  0  0  0  0  0
  193.3700  174.5390  143.1180 C   0  0  0  0  0  2  0  0  0  0  0  0
  194.3820  174.1040  144.1660 C   0  0  0  0  0  2  0  0  0  0  0  0
  195.7600  176.3420  143.8160 C   0  0  0  0  0  1  0  0  0  0  0  0
  195.1890  175.2700  144.7330 C   0  0  1  0  0  0  0  0  0  0  0  0
  194.9210  175.6560  146.1360 C   0  0  0  0  0  2  0  0  0  0  0  0
  196.0680  174.9160  145.7710 O   0  0  0  0  0  0  0  0  0  0  0  0
  187.4450  176.1030  141.7550 C   0  0  1  0  0  3  0  0  0  0  0  0
  188.7240  178.1070  141.8390 O   0  0  0  0  0  0  0  0  0  0  0  0
  188.5720  176.9320  142.2740 C   0  0  0  0  0  0  0  0  0  0  0  0
  189.4470  176.4090  143.2840 N   0  0  0  0  0  2  0  0  0  0  0  0
  189.7730  178.3480  144.5400 O   0  0  0  0  0  1  0  0  0  0  0  0
  190.4170  177.2180  144.0200 C   0  0  1  0  0  0  0  0  0  0  0  0
  191.5780  177.1750  148.6480 C   0  0  0  0  0  1  0  0  0  0  0  0
  190.3930  174.9710  145.2160 C   0  0  0  0  0  2  0  0  0  0  0  0
  191.5980  176.3730  147.3570 C   0  0  2  0  0  3  0  0  0  0  0  0
  190.7990  177.0290  146.4030 O   0  0  0  0  0  0  0  0  0  0  0  0
  191.0440  174.9770  147.6320 C   0  0  0  0  0  2  0  0  0  0  0  0
  191.0600  174.1770  146.3360 C   0  0  0  0  0  2  0  0  0  0  0  0
  191.0050  176.3810  145.1670 C   0  0  2  0  0  3  0  0  0  0  0  0
  191.9320  178.7260  143.1650 O   0  0  0  0  0  0  0  0  0  0  0  0
  191.4730  177.6250  143.1180 N   0  0  0  0  0  0  0  0  0  0  0  0
  186.2730  176.2170  142.6190 N   0  0  0  0  0  2  0  0  0  0  0  0
  185.6660  178.4390  143.4220 C   0  0  0  0  0  3  0  0  0  0  0  0
  185.5240  179.3540  144.4670 C   0  0  0  0  0  3  0  0  0  0  0  0
  186.1700  177.1600  143.6930 C   0  0  0  0  0  0  0  0  0  0  0  0
  186.4970  176.8130  145.0050 C   0  0  0  0  0  3  0  0  0  0  0  0
  186.3380  177.7540  146.0210 C   0  0  0  0  0  3  0  0  0  0  0  0
  185.8590  178.9940  145.7320 N   0  0  0  0  0  0  0  0  0  0  0  0
  2  1  1  0  0  0  0
  2  4  1  0  0  0  0
  3  2  2  0  0  0  0
  6  7  2  0  0  0  0
  7  5  1  0  0  0  0
  7  8  1  0  0  0  0
  8  3  1  0  0  0  0
  9 10  1  0  0  0  0
  9  1  1  0  0  0  0
 11 10  1  0  0  0  0
 13 11  1  0  0  0  0
 13 12  1  0  0  0  0
 14 13  1  0  0  0  0
 16 15  1  6  0  0  0
 16 17  1  0  0  0  0
 16 13  1  0  0  0  0
 17 18  1  0  0  0  0
 18 19  1  0  0  0  0
 19 20  1  0  0  0  0
 20 21  1  0  0  0  0
 21 23  1  0  0  0  0
 22 21  2  0  0  0  0
 25 31  1  0  0  0  0
 26 23  1  6  0  0  0
 26 27  1  0  0  0  0
 26 30  1  0  0  0  0
 27 25  1  0  0  0  0
 29 24  1  6  0  0  0
 30 32  1  6  0  0  0
 30 29  1  0  0  0  0
 31 29  1  0  0  0  0
 31 28  1  1  0  0  0
 32 33  1  0  0  0  0
 33 34  1  0  0  0  0
 34 36  1  0  0  0  0
 36 35  1  6  0  0  0
 36 38  1  0  0  0  0
 36 37  1  0  0  0  0
 38 37  1  0  0  0  0
 39  4  1  6  0  0  0
 39 41  1  0  0  0  0
 39 54  1  0  0  0  0
 40 41  2  0  0  0  0
 41 42  1  0  0  0  0
 42 44  1  0  0  0  0
 44 43  1  1  0  0  0
 46 50  1  0  0  0  0
 47 49  1  0  0  0  0
 47 45  1  1  0  0  0
 48 47  1  0  0  0  0
 50 49  1  0  0  0  0
 51 44  1  6  0  0  0
 51 46  1  0  0  0  0
 51 48  1  0  0  0  0
 53 52  2  0  0  0  0
 53 44  1  0  0  0  0
 54 57  1  0  0  0  0
 55 57  2  0  0  0  0
 55 56  1  0  0  0  0
 56 60  2  0  0  0  0
 57 58  1  0  0  0  0
 58 59  2  0  0  0  0
 60 59  1  0  0  0  0
M  END
>  <MODEL>
7

>  <REMARK>
 VINA RESULT:      -5.1      2.452      4.062
  Name = 
  24 active torsions:
  status: ('A' for Active; 'I' for Inactive)
    1  A    between atoms: O_3  and  C_5
    2  A    between atoms: O_3  and  C_51
    3  A    between atoms: C_5  and  C_55
    4  A    between atoms: N_7  and  C_12
    5  A    between atoms: C_10  and  C_34
    6  A    between atoms: C_10  and  C_50
    7  A    between atoms: C_11  and  C_55
    8  A    between atoms: C_12  and  C_50
    9  A    between atoms: C_15  and  O_45
   10  A    between atoms: C_15  and  C_51
   11  A    between atoms: C_16  and  C_31
   12  A    between atoms: N_17  and  C_27
   13  A    between atoms: C_19  and  C_36
   14  A    between atoms: N_22  and  C_27
   15  A    between atoms: C_26  and  C_34
   16  A    between atoms: C_26  and  O_45
   17  A    between atoms: C_27  and  C_52
   18  A    between atoms: C_31  and  C_38
   19  A    between atoms: C_33  and  N_56
   20  A    between atoms: N_35  and  N_59
   21  A    between atoms: C_36  and  N_56
   22  A    between atoms: C_36  and  N_58
   23  A    between atoms: C_38  and  O_48
   24  A    between atoms: O_48  and  C_49
                            x       y       z     vdW  Elec       q    Type
                         _______ _______ _______ _____ _____    ______ ____

>  <TORSDO>
F 24

$$$$
=
 OpenBabel11042418503D

 60 63  0  0  1  0  0  0  0  0999 V2000
  188.0880  176.1800  144.6150 N   0  0  0  0  0  2  0  0  0  0  0  0
  188.5930  176.2850  145.9650 C   0  0  0  0  0  0  0  0  0  0  0  0
  187.9030  176.7940  146.9460 N   0  0  0  0  0  0  0  0  0  0  0  0
  189.9240  175.8540  146.2430 N   0  0  0  0  0  2  0  0  0  0  0  0
  186.8960  179.0010  148.3180 O   0  0  0  0  0  1  0  0  0  0  0  0
  184.8220  178.8260  147.3760 O   0  0  0  0  0  0  0  0  0  0  0  0
  186.1240  178.3830  147.5420 C   0  0  0  0  0  0  0  0  0  0  0  0
  186.5820  177.2400  146.8250 N   0  0  0  0  0  2  0  0  0  0  0  0
  186.7650  176.5830  144.1780 C   0  0  0  0  0  2  0  0  0  0  0  0
  186.5340  176.1880  142.7430 C   0  0  0  0  0  2  0  0  0  0  0  0
  187.3880  174.9820  142.3840 C   0  0  0  0  0  2  0  0  0  0  0  0
  188.0640  176.5570  140.7210 F   0  0  0  0  0  0  0  0  0  0  0  0
  188.3210  175.2910  141.2140 C   0  0  0  0  0  0  0  0  0  0  0  0
  189.6300  175.2340  141.6540 F   0  0  0  0  0  0  0  0  0  0  0  0
  187.8010  174.9480  138.7670 C   0  0  0  0  0  1  0  0  0  0  0  0
  188.1250  174.2630  140.0950 C   0  0  1  0  0  3  0  0  0  0  0  0
  189.2650  173.4540  139.9550 O   0  0  0  0  0  0  0  0  0  0  0  0
  189.6720  173.6080  138.6250 C   0  0  0  0  0  2  0  0  0  0  0  0
  189.6800  172.2400  137.9580 C   0  0  0  0  0  2  0  0  0  0  0  0
  190.9090  171.5690  138.2030 O   0  0  0  0  0  0  0  0  0  0  0  0
  192.1340  172.1910  137.9820 C   0  0  0  0  0  0  0  0  0  0  0  0
  193.1280  171.5410  137.5410 O   0  0  0  0  0  0  0  0  0  0  0  0
  192.2680  173.6400  138.3100 C   0  0  0  0  0  2  0  0  0  0  0  0
  195.3480  175.1530  135.6070 O   0  0  0  0  0  1  0  0  0  0  0  0
  192.4510  175.8430  135.4300 C   0  0  0  0  0  2  0  0  0  0  0  0
  192.8860  174.4280  137.1590 C   0  0  1  0  0  3  0  0  0  0  0  0
  191.9190  175.2920  136.6090 O   0  0  0  0  0  0  0  0  0  0  0  0
  194.1070  177.3460  134.5960 O   0  0  0  0  0  1  0  0  0  0  0  0
  194.6970  176.0180  136.4990 C   0  0  2  0  0  3  0  0  0  0  0  0
  194.0990  175.2270  137.6640 C   0  0  2  0  0  3  0  0  0  0  0  0
  193.5970  176.7960  135.7700 C   0  0  2  0  0  3  0  0  0  0  0  0
  195.0590  174.3680  138.2140 O   0  0  0  0  0  0  0  0  0  0  0  0
  195.9170  175.2050  138.9340 C   0  0  0  0  0  2  0  0  0  0  0  0
  196.7100  174.4050  139.9550 C   0  0  0  0  0  2  0  0  0  0  0  0
  196.0560  171.9120  139.3300 C   0  0  0  0  0  1  0  0  0  0  0  0
  196.0500  173.0750  140.3120 C   0  0  1  0  0  0  0  0  0  0  0  0
  195.9390  172.7420  141.7500 C   0  0  0  0  0  2  0  0  0  0  0  0
  194.8320  173.2000  141.0020 O   0  0  0  0  0  0  0  0  0  0  0  0
  190.7940  175.2390  145.2490 C   0  0  1  0  0  3  0  0  0  0  0  0
  192.5540  175.8830  146.7130 O   0  0  0  0  0  0  0  0  0  0  0  0
  192.2040  175.6420  145.5250 C   0  0  0  0  0  0  0  0  0  0  0  0
  193.1570  175.7140  144.4540 N   0  0  0  0  0  2  0  0  0  0  0  0
  194.8410  177.0090  145.4170 O   0  0  0  0  0  1  0  0  0  0  0  0
  194.5970  175.8610  144.6540 C   0  0  1  0  0  0  0  0  0  0  0  0
  194.1860  171.1390  145.2010 C   0  0  0  0  0  1  0  0  0  0  0  0
  196.6700  174.5790  145.3890 C   0  0  0  0  0  2  0  0  0  0  0  0
  194.9090  172.3850  145.6860 C   0  0  2  0  0  3  0  0  0  0  0  0
  194.6250  173.4450  144.8060 O   0  0  0  0  0  0  0  0  0  0  0  0
  196.4110  172.1100  145.7060 C   0  0  0  0  0  2  0  0  0  0  0  0
  197.1340  173.3620  146.1860 C   0  0  0  0  0  2  0  0  0  0  0  0
  195.1330  174.6240  145.3910 C   0  0  2  0  0  3  0  0  0  0  0  0
  194.6580  176.4260  142.4230 O   0  0  0  0  0  0  0  0  0  0  0  0
  195.2430  175.9810  143.3640 N   0  0  0  0  0  0  0  0  0  0  0  0
  190.6480  173.7860  145.2930 N   0  0  0  0  0  2  0  0  0  0  0  0
  191.6040  172.7750  143.2890 C   0  0  0  0  0  3  0  0  0  0  0  0
  191.4800  171.9510  142.1690 C   0  0  0  0  0  3  0  0  0  0  0  0
  190.4960  172.9700  144.1260 C   0  0  0  0  0  0  0  0  0  0  0  0
  189.2960  172.3160  143.8420 C   0  0  0  0  0  3  0  0  0  0  0  0
  189.2130  171.4980  142.7150 C   0  0  0  0  0  3  0  0  0  0  0  0
  190.2970  171.3360  141.9110 N   0  0  0  0  0  0  0  0  0  0  0  0
  1  2  1  0  0  0  0
  2  4  1  0  0  0  0
  2  3  2  0  0  0  0
  6  7  2  0  0  0  0
  7  5  1  0  0  0  0
  8  3  1  0  0  0  0
  8  7  1  0  0  0  0
  9  1  1  0  0  0  0
 10  9  1  0  0  0  0
 11 10  1  0  0  0  0
 12 13  1  0  0  0  0
 13 14  1  0  0  0  0
 13 11  1  0  0  0  0
 16 15  1  6  0  0  0
 16 13  1  0  0  0  0
 17 16  1  0  0  0  0
 18 17  1  0  0  0  0
 19 20  1  0  0  0  0
 19 18  1  0  0  0  0
 21 20  1  0  0  0  0
 21 23  1  0  0  0  0
 22 21  2  0  0  0  0
 25 31  1  0  0  0  0
 25 27  1  0  0  0  0
 26 30  1  0  0  0  0
 26 23  1  1  0  0  0
 27 26  1  0  0  0  0
 29 24  1  6  0  0  0
 29 30  1  0  0  0  0
 30 32  1  6  0  0  0
 31 28  1  6  0  0  0
 31 29  1  0  0  0  0
 32 33  1  0  0  0  0
 33 34  1  0  0  0  0
 34 36  1  0  0  0  0
 36 35  1  6  0  0  0
 36 38  1  0  0  0  0
 36 37  1  0  0  0  0
 38 37  1  0  0  0  0
 39 54  1  1  0  0  0
 39 41  1  0  0  0  0
 39  4  1  0  0  0  0
 41 40  2  0  0  0  0
 42 44  1  0  0  0  0
 42 41  1  0  0  0  0
 44 43  1  1  0  0  0
 46 51  1  0  0  0  0
 46 50  1  0  0  0  0
 47 45  1  6  0  0  0
 47 49  1  0  0  0  0
 48 51  1  0  0  0  0
 48 47  1  0  0  0  0
 49 50  1  0  0  0  0
 51 44  1  6  0  0  0
 52 53  2  0  0  0  0
 53 44  1  0  0  0  0
 55 57  1  0  0  0  0
 56 55  2  0  0  0  0
 57 54  1  0  0  0  0
 58 57  2  0  0  0  0
 59 58  1  0  0  0  0
 60 56  1  0  0  0  0
 60 59  2  0  0  0  0
M  END
>  <MODEL>
8

>  <REMARK>
 VINA RESULT:      -5.1      2.954      7.012
  Name = 
  24 active torsions:
  status: ('A' for Active; 'I' for Inactive)
    1  A    between atoms: O_3  and  C_5
    2  A    between atoms: O_3  and  C_51
    3  A    between atoms: C_5  and  C_55
    4  A    between atoms: N_7  and  C_12
    5  A    between atoms: C_10  and  C_34
    6  A    between atoms: C_10  and  C_50
    7  A    between atoms: C_11  and  C_55
    8  A    between atoms: C_12  and  C_50
    9  A    between atoms: C_15  and  O_45
   10  A    between atoms: C_15  and  C_51
   11  A    between atoms: C_16  and  C_31
   12  A    between atoms: N_17  and  C_27
   13  A    between atoms: C_19  and  C_36
   14  A    between atoms: N_22  and  C_27
   15  A    between atoms: C_26  and  C_34
   16  A    between atoms: C_26  and  O_45
   17  A    between atoms: C_27  and  C_52
   18  A    between atoms: C_31  and  C_38
   19  A    between atoms: C_33  and  N_56
   20  A    between atoms: N_35  and  N_59
   21  A    between atoms: C_36  and  N_56
   22  A    between atoms: C_36  and  N_58
   23  A    between atoms: C_38  and  O_48
   24  A    between atoms: O_48  and  C_49
                            x       y       z     vdW  Elec       q    Type
                         _______ _______ _______ _____ _____    ______ ____

>  <TORSDO>
F 24

$$$$
=
 OpenBabel11042418503D

 60 63  0  0  1  0  0  0  0  0999 V2000
  188.3490  174.6540  140.1460 N   0  0  0  0  0  2  0  0  0  0  0  0
  187.4110  175.6580  139.7020 C   0  0  0  0  0  0  0  0  0  0  0  0
  187.1830  175.9140  138.4440 N   0  0  0  0  0  0  0  0  0  0  0  0
  186.7250  176.4460  140.6730 N   0  0  0  0  0  2  0  0  0  0  0  0
  187.2860  176.8790  135.8320 O   0  0  0  0  0  1  0  0  0  0  0  0
  188.4220  175.0590  135.0470 O   0  0  0  0  0  0  0  0  0  0  0  0
  187.8040  175.7590  136.0700 C   0  0  0  0  0  0  0  0  0  0  0  0
  187.7690  175.2100  137.3850 N   0  0  0  0  0  2  0  0  0  0  0  0
  189.1260  173.7850  139.2820 C   0  0  0  0  0  2  0  0  0  0  0  0
  190.1650  173.0360  140.0730 C   0  0  0  0  0  2  0  0  0  0  0  0
  191.4210  172.8370  139.2390 C   0  0  0  0  0  2  0  0  0  0  0  0
  190.5590  170.6250  138.9820 F   0  0  0  0  0  0  0  0  0  0  0  0
  191.3050  171.6010  138.3480 C   0  0  0  0  0  0  0  0  0  0  0  0
  190.6790  171.9530  137.1670 F   0  0  0  0  0  0  0  0  0  0  0  0
  193.1070  171.3740  136.5930 C   0  0  0  0  0  1  0  0  0  0  0  0
  192.6970  171.0460  138.0290 C   0  0  1  0  0  3  0  0  0  0  0  0
  193.6520  171.5450  138.9300 O   0  0  0  0  0  0  0  0  0  0  0  0
  194.3900  170.4300  139.3470 C   0  0  0  0  0  2  0  0  0  0  0  0
  194.5600  170.4990  140.8580 C   0  0  0  0  0  2  0  0  0  0  0  0
  195.9160  170.2740  141.2220 O   0  0  0  0  0  0  0  0  0  0  0  0
  196.4170  170.6900  142.4510 C   0  0  0  0  0  0  0  0  0  0  0  0
  195.9970  170.1820  143.5350 O   0  0  0  0  0  0  0  0  0  0  0  0
  197.4360  171.7790  142.4760 C   0  0  0  0  0  2  0  0  0  0  0  0
  194.9570  175.3480  142.0310 O   0  0  0  0  0  1  0  0  0  0  0  0
  196.7100  174.7850  144.3790 C   0  0  0  0  0  2  0  0  0  0  0  0
  196.8150  173.1290  142.8200 C   0  0  1  0  0  3  0  0  0  0  0  0
  197.4380  173.6530  143.9700 O   0  0  0  0  0  0  0  0  0  0  0  0
  196.1680  177.0320  143.7840 O   0  0  0  0  0  1  0  0  0  0  0  0
  196.3550  175.4450  142.0000 C   0  0  2  0  0  3  0  0  0  0  0  0
  196.9730  174.0940  141.6330 C   0  0  2  0  0  3  0  0  0  0  0  0
  196.8810  175.9130  143.3610 C   0  0  2  0  0  3  0  0  0  0  0  0
  196.3570  173.5720  140.4890 O   0  0  0  0  0  0  0  0  0  0  0  0
  197.3320  173.6510  139.4900 C   0  0  0  0  0  2  0  0  0  0  0  0
  197.0840  174.8560  138.5970 C   0  0  0  0  0  2  0  0  0  0  0  0
  196.2740  173.2330  136.6620 C   0  0  0  0  0  1  0  0  0  0  0  0
  196.1570  174.5460  137.4240 C   0  0  1  0  0  0  0  0  0  0  0  0
  194.8370  175.2170  137.4110 C   0  0  0  0  0  2  0  0  0  0  0  0
  195.8990  175.6430  136.5830 O   0  0  0  0  0  0  0  0  0  0  0  0
  186.8620  176.2480  142.1100 C   0  0  1  0  0  3  0  0  0  0  0  0
  188.3970  178.0630  142.0490 O   0  0  0  0  0  0  0  0  0  0  0  0
  188.0820  176.9650  142.5840 C   0  0  0  0  0  0  0  0  0  0  0  0
  188.8620  176.4280  143.6610 N   0  0  0  0  0  2  0  0  0  0  0  0
  189.3610  178.2740  144.9980 O   0  0  0  0  0  1  0  0  0  0  0  0
  189.9200  177.1670  144.3490 C   0  0  1  0  0  0  0  0  0  0  0  0
  194.0060  176.0760  146.5570 C   0  0  0  0  0  1  0  0  0  0  0  0
  189.7610  176.1270  146.6660 C   0  0  0  0  0  2  0  0  0  0  0  0
  192.5440  175.6960  146.3970 C   0  0  2  0  0  3  0  0  0  0  0  0
  191.8840  176.7180  145.6910 O   0  0  0  0  0  0  0  0  0  0  0  0
  191.9200  175.5300  147.7810 C   0  0  0  0  0  2  0  0  0  0  0  0
  190.4530  175.1540  147.6190 C   0  0  0  0  0  2  0  0  0  0  0  0
  190.5920  176.2450  145.3780 C   0  0  2  0  0  3  0  0  0  0  0  0
  191.3750  178.7000  143.4370 O   0  0  0  0  0  0  0  0  0  0  0  0
  190.8960  177.6090  143.3750 N   0  0  0  0  0  0  0  0  0  0  0  0
  185.6690  176.7400  142.7950 N   0  0  0  0  0  2  0  0  0  0  0  0
  185.5780  178.9340  143.8570 C   0  0  0  0  0  3  0  0  0  0  0  0
  185.5780  179.7260  145.0070 C   0  0  0  0  0  3  0  0  0  0  0  0
  185.7120  177.5440  143.9790 C   0  0  0  0  0  0  0  0  0  0  0  0
  185.8170  176.9720  145.2490 C   0  0  0  0  0  3  0  0  0  0  0  0
  185.8110  177.7980  146.3730 C   0  0  0  0  0  3  0  0  0  0  0  0
  185.6930  179.1440  146.2280 N   0  0  0  0  0  0  0  0  0  0  0  0
  2  1  1  0  0  0  0
  2  4  1  0  0  0  0
  3  2  2  0  0  0  0
  5  7  1  0  0  0  0
  6  7  2  0  0  0  0
  7  8  1  0  0  0  0
  8  3  1  0  0  0  0
  9 10  1  0  0  0  0
  9  1  1  0  0  0  0
 11 10  1  0  0  0  0
 13 12  1  0  0  0  0
 13 11  1  0  0  0  0
 14 13  1  0  0  0  0
 16 15  1  6  0  0  0
 16 13  1  0  0  0  0
 16 17  1  0  0  0  0
 17 18  1  0  0  0  0
 18 19  1  0  0  0  0
 19 20  1  0  0  0  0
 20 21  1  0  0  0  0
 21 23  1  0  0  0  0
 21 22  2  0  0  0  0
 26 23  1  6  0  0  0
 26 27  1  0  0  0  0
 27 25  1  0  0  0  0
 29 24  1  1  0  0  0
 29 31  1  0  0  0  0
 30 32  1  6  0  0  0
 30 29  1  0  0  0  0
 30 26  1  0  0  0  0
 31 28  1  1  0  0  0
 31 25  1  0  0  0  0
 33 32  1  0  0  0  0
 34 33  1  0  0  0  0
 36 35  1  6  0  0  0
 36 34  1  0  0  0  0
 37 36  1  0  0  0  0
 38 37  1  0  0  0  0
 38 36  1  0  0  0  0
 39  4  1  6  0  0  0
 39 41  1  0  0  0  0
 39 54  1  0  0  0  0
 40 41  2  0  0  0  0
 41 42  1  0  0  0  0
 42 44  1  0  0  0  0
 44 43  1  1  0  0  0
 46 50  1  0  0  0  0
 47 45  1  1  0  0  0
 47 49  1  0  0  0  0
 48 47  1  0  0  0  0
 50 49  1  0  0  0  0
 51 44  1  6  0  0  0
 51 48  1  0  0  0  0
 51 46  1  0  0  0  0
 53 52  2  0  0  0  0
 53 44  1  0  0  0  0
 54 57  1  0  0  0  0
 55 57  2  0  0  0  0
 55 56  1  0  0  0  0
 56 60  2  0  0  0  0
 57 58  1  0  0  0  0
 58 59  2  0  0  0  0
 60 59  1  0  0  0  0
M  END
>  <MODEL>
9

>  <REMARK>
 VINA RESULT:      -5.0      1.965      2.427
  Name = 
  24 active torsions:
  status: ('A' for Active; 'I' for Inactive)
    1  A    between atoms: O_3  and  C_5
    2  A    between atoms: O_3  and  C_51
    3  A    between atoms: C_5  and  C_55
    4  A    between atoms: N_7  and  C_12
    5  A    between atoms: C_10  and  C_34
    6  A    between atoms: C_10  and  C_50
    7  A    between atoms: C_11  and  C_55
    8  A    between atoms: C_12  and  C_50
    9  A    between atoms: C_15  and  O_45
   10  A    between atoms: C_15  and  C_51
   11  A    between atoms: C_16  and  C_31
   12  A    between atoms: N_17  and  C_27
   13  A    between atoms: C_19  and  C_36
   14  A    between atoms: N_22  and  C_27
   15  A    between atoms: C_26  and  C_34
   16  A    between atoms: C_26  and  O_45
   17  A    between atoms: C_27  and  C_52
   18  A    between atoms: C_31  and  C_38
   19  A    between atoms: C_33  and  N_56
   20  A    between atoms: N_35  and  N_59
   21  A    between atoms: C_36  and  N_56
   22  A    between atoms: C_36  and  N_58
   23  A    between atoms: C_38  and  O_48
   24  A    between atoms: O_48  and  C_49
                            x       y       z     vdW  Elec       q    Type
                         _______ _______ _______ _____ _____    ______ ____

>  <TORSDO>
F 24

$$$$
