=
 OpenBabel11042415133D

 45 50  0  0  1  0  0  0  0  0999 V2000
  193.8760  175.7110  146.0430 C   0  0  2  0  0  3  0  0  0  0  0  0
  193.7370  175.9860  144.5520 C   0  0  0  0  0  2  0  0  0  0  0  0
  193.3390  177.4300  144.3080 C   0  0  0  0  0  2  0  0  0  0  0  0
  191.3430  178.6310  143.8370 O   0  0  0  0  0  0  0  0  0  0  0  0
  191.8930  177.5040  143.9730 C   0  0  0  0  0  0  0  0  0  0  0  0
  191.1460  176.3030  143.7790 N   0  0  0  0  0  2  0  0  0  0  0  0
  189.7380  176.3330  143.4150 C   0  0  0  0  0  2  0  0  0  0  0  0
  188.1790  173.6710  141.4540 C   0  0  0  0  0  3  0  0  0  0  0  0
  189.2020  174.9400  143.3300 C   0  0  0  0  0  0  0  0  0  0  0  0
  189.8750  171.8310  145.1040 F   0  0  0  0  0  0  0  0  0  0  0  0
  188.6420  172.4380  141.6490 C   0  0  0  0  0  3  0  0  0  0  0  0
  189.8420  173.9910  144.0150 C   0  0  0  0  0  3  0  0  0  0  0  0
  187.9330  174.6260  142.5750 C   0  0  1  0  0  3  0  0  0  0  0  0
  189.0390  171.8770  142.9560 C   0  0  0  0  0  3  0  0  0  0  0  0
  189.5150  172.5490  144.0140 C   0  0  0  0  0  0  0  0  0  0  0  0
  187.4260  176.2820  140.9410 O   0  0  0  0  0  0  0  0  0  0  0  0
  186.2010  176.4540  142.9240 N   0  0  0  0  0  2  0  0  0  0  0  0
  187.1890  175.8340  142.0940 C   0  0  0  0  0  0  0  0  0  0  0  0
  185.3980  177.5840  142.4800 C   0  0  0  0  0  2  0  0  0  0  0  0
  186.1200  178.8840  142.7770 C   0  0  0  0  0  1  0  0  0  0  0  0
  195.0980  175.0290  146.2950 O   0  0  0  0  0  0  0  0  0  0  0  0
  195.8810  174.4840  145.2700 C   0  0  0  0  0  0  0  0  0  0  0  0
  196.7790  175.1770  144.7180 O   0  0  0  0  0  0  0  0  0  0  0  0
  195.0930  172.2220  145.6600 C   0  0  0  0  0  2  0  0  0  0  0  0
  195.6560  173.0950  144.8380 C   0  0  0  0  0  0  0  0  0  0  0  0
  196.0660  172.6320  143.4750 C   0  0  0  0  0  2  0  0  0  0  0  0
  193.2960  173.7600  141.0860 N   0  0  0  0  0  4  0  0  0  0  0  0
  192.3180  171.9830  139.4840 S   0  0  0  0  0  1  0  0  0  0  0  0
  191.8880  174.1930  140.9790 C   0  0  0  0  0  2  0  0  0  0  0  0
  193.1180  172.2890  142.1720 N   0  0  0  0  0  0  0  0  0  0  0  0
  195.4630  173.4610  142.4410 N   0  0  0  0  0  0  0  0  0  0  0  0
  194.1450  173.2140  141.9550 C   0  0  0  0  0  0  0  0  0  0  0  0
  192.2410  172.8910  141.0580 C   0  0  2  0  0  0  0  0  0  0  0  0
  192.7250  174.8370  146.5040 C   0  0  0  0  0  2  0  0  0  0  0  0
  192.0610  175.4410  147.7290 C   0  0  0  0  0  2  0  0  0  0  0  0
  190.3560  177.1860  147.1780 C   0  0  0  0  0  3  0  0  0  0  0  0
  190.6620  175.8400  147.4090 C   0  0  0  0  0  0  0  0  0  0  0  0
  188.3420  175.2520  147.0270 C   0  0  0  0  0  3  0  0  0  0  0  0
  189.6500  174.8740  147.3370 C   0  0  0  0  0  3  0  0  0  0  0  0
  189.0450  177.5640  146.8720 C   0  0  0  0  0  3  0  0  0  0  0  0
  188.0350  176.6010  146.7910 C   0  0  0  0  0  0  0  0  0  0  0  0
  186.7030  177.0080  146.4600 N   0  0  0  0  0  2  0  0  0  0  0  0
  185.3330  178.9730  146.3030 C   0  0  0  0  0  2  0  0  0  0  0  0
  184.6040  177.9260  146.8960 O   0  0  0  0  0  0  0  0  0  0  0  0
  185.9690  178.0080  147.2220 C   0  0  1  0  0  3  0  0  0  0  0  0
  1  2  1  6  0  0  0
  1 21  1  0  0  0  0
  1 34  1  0  0  0  0
  3  2  1  0  0  0  0
  4  5  2  0  0  0  0
  5  3  1  0  0  0  0
  6  5  1  0  0  0  0
  7  6  1  0  0  0  0
  8 11  2  0  0  0  0
  8 13  1  0  0  0  0
  9  7  1  0  0  0  0
  9 12  2  0  0  0  0
 11 14  1  0  0  0  0
 13 18  1  6  0  0  0
 13  9  1  0  0  0  0
 14 15  2  0  0  0  0
 15 12  1  0  0  0  0
 15 10  1  0  0  0  0
 16 18  2  0  0  0  0
 18 17  1  0  0  0  0
 19 20  1  0  0  0  0
 19 17  1  0  0  0  0
 22 21  1  0  0  0  0
 23 22  2  0  0  0  0
 25 22  1  0  0  0  0
 25 24  2  0  0  0  0
 26 25  1  0  0  0  0
 27 32  1  0  0  0  0
 27 30  1  0  0  0  0
 29 33  1  0  0  0  0
 29 27  1  0  0  0  0
 31 26  1  0  0  0  0
 32 30  1  0  0  0  0
 32 31  2  0  0  0  0
 33 28  1  6  0  0  0
 33 27  1  0  0  0  0
 33 30  1  0  0  0  0
 34 35  1  0  0  0  0
 36 37  1  0  0  0  0
 37 35  1  0  0  0  0
 38 39  1  0  0  0  0
 39 37  2  0  0  0  0
 40 36  2  0  0  0  0
 41 40  1  0  0  0  0
 41 38  2  0  0  0  0
 42 41  1  0  0  0  0
 43 44  1  0  0  0  0
 43 45  1  0  0  0  0
 44 45  1  0  0  0  0
 45 42  1  6  0  0  0
M  END
>  <MODEL>
1

>  <REMARK>
 VINA RESULT:      -6.4      0.000      0.000
  Name = 
  17 active torsions:
  status: ('A' for Active; 'I' for Inactive)
    1  A    between atoms: C_3  and  C_21
    2  A    between atoms: C_4  and  C_22
    3  A    between atoms: C_4  and  O_24
    4  A    between atoms: C_4  and  C_44
    5  A    between atoms: C_9  and  C_13
    6  A    between atoms: C_13  and  C_44
    7  A    between atoms: C_15  and  N_25
    8  A    between atoms: C_15  and  C_34
    9  A    between atoms: C_16  and  O_24
   10  A    between atoms: C_16  and  C_34
   11  A    between atoms: C_17  and  N_29
   12  A    between atoms: N_20  and  C_43
   13  A    between atoms: N_20  and  C_45
   14  A    between atoms: C_21  and  N_32
   15  A    between atoms: C_22  and  C_35
   16  A    between atoms: C_30  and  C_35
   17  A    between atoms: C_36  and  C_42
                            x       y       z     vdW  Elec       q    Type
                         _______ _______ _______ _____ _____    ______ ____

>  <TORSDO>
F 17

$$$$
=
 OpenBabel11042415133D

 45 50  0  0  1  0  0  0  0  0999 V2000
  193.9280  175.1230  145.2430 C   0  0  2  0  0  3  0  0  0  0  0  0
  193.6880  173.7170  145.7770 C   0  0  0  0  0  2  0  0  0  0  0  0
  193.7240  172.7020  144.6490 C   0  0  0  0  0  2  0  0  0  0  0  0
  191.7950  171.4000  144.1690 O   0  0  0  0  0  0  0  0  0  0  0  0
  192.3590  172.5250  144.0880 C   0  0  0  0  0  0  0  0  0  0  0  0
  191.6870  173.6340  143.4910 N   0  0  0  0  0  2  0  0  0  0  0  0
  190.3370  173.5100  142.9630 C   0  0  0  0  0  2  0  0  0  0  0  0
  187.3540  175.5880  142.5740 C   0  0  0  0  0  3  0  0  0  0  0  0
  189.7180  174.8640  142.8180 C   0  0  0  0  0  0  0  0  0  0  0  0
  190.6750  178.2300  143.8270 F   0  0  0  0  0  0  0  0  0  0  0  0
  187.3230  176.7210  143.2720 C   0  0  0  0  0  3  0  0  0  0  0  0
  190.2660  175.8680  143.5050 C   0  0  0  0  0  3  0  0  0  0  0  0
  188.5770  175.1130  141.8620 C   0  0  1  0  0  3  0  0  0  0  0  0
  188.4790  177.6110  143.4980 C   0  0  0  0  0  3  0  0  0  0  0  0
  189.7720  177.2610  143.5500 C   0  0  0  0  0  0  0  0  0  0  0  0
  187.5790  172.9960  141.4250 O   0  0  0  0  0  0  0  0  0  0  0  0
  188.6980  173.9480  139.6060 N   0  0  0  0  0  2  0  0  0  0  0  0
  188.2590  173.9540  140.9690 C   0  0  0  0  0  0  0  0  0  0  0  0
  188.3560  172.8830  138.6750 C   0  0  0  0  0  2  0  0  0  0  0  0
  189.0870  173.0860  137.3610 C   0  0  0  0  0  1  0  0  0  0  0  0
  195.2610  175.5270  145.5300 O   0  0  0  0  0  0  0  0  0  0  0  0
  196.3530  175.1210  144.7540 C   0  0  0  0  0  0  0  0  0  0  0  0
  197.1910  174.2980  145.2150 O   0  0  0  0  0  0  0  0  0  0  0  0
  196.9620  176.8930  143.2120 C   0  0  0  0  0  2  0  0  0  0  0  0
  196.5240  175.6560  143.3930 C   0  0  0  0  0  0  0  0  0  0  0  0
  196.1960  174.8300  142.1890 C   0  0  0  0  0  2  0  0  0  0  0  0
  193.0020  173.9820  140.2570 N   0  0  0  0  0  4  0  0  0  0  0  0
  192.9960  174.4520  137.7150 S   0  0  0  0  0  1  0  0  0  0  0  0
  192.1430  172.8930  139.7510 C   0  0  0  0  0  2  0  0  0  0  0  0
  194.6570  173.3840  139.7300 N   0  0  0  0  0  0  0  0  0  0  0  0
  194.7700  174.8790  141.8980 N   0  0  0  0  0  0  0  0  0  0  0  0
  194.2080  174.1860  140.7850 C   0  0  0  0  0  0  0  0  0  0  0  0
  193.2540  173.3000  139.0990 C   0  0  2  0  0  0  0  0  0  0  0  0
  192.9700  176.0870  145.9150 C   0  0  0  0  0  2  0  0  0  0  0  0
  192.2270  175.3950  147.0430 C   0  0  0  0  0  2  0  0  0  0  0  0
  190.4650  177.1520  147.2880 C   0  0  0  0  0  3  0  0  0  0  0  0
  190.7980  175.8140  147.0500 C   0  0  0  0  0  0  0  0  0  0  0  0
  188.4460  175.2750  146.8160 C   0  0  0  0  0  3  0  0  0  0  0  0
  189.7840  174.8750  146.8190 C   0  0  0  0  0  3  0  0  0  0  0  0
  189.1240  177.5510  147.2890 C   0  0  0  0  0  3  0  0  0  0  0  0
  188.1110  176.6180  147.0490 C   0  0  0  0  0  0  0  0  0  0  0  0
  186.7480  177.0510  147.0400 N   0  0  0  0  0  2  0  0  0  0  0  0
  184.8440  178.4140  146.5060 C   0  0  0  0  0  2  0  0  0  0  0  0
  185.7770  179.1620  147.2480 O   0  0  0  0  0  0  0  0  0  0  0  0
  186.2990  178.2380  146.3250 C   0  0  1  0  0  3  0  0  0  0  0  0
  1 21  1  0  0  0  0
  1  2  1  1  0  0  0
  1 34  1  0  0  0  0
  3  2  1  0  0  0  0
  5  4  2  0  0  0  0
  5  3  1  0  0  0  0
  6  5  1  0  0  0  0
  7  6  1  0  0  0  0
  8 11  2  0  0  0  0
  9  7  1  0  0  0  0
  9 12  2  0  0  0  0
 11 14  1  0  0  0  0
 12 15  1  0  0  0  0
 13 18  1  1  0  0  0
 13  8  1  0  0  0  0
 13  9  1  0  0  0  0
 14 15  2  0  0  0  0
 15 10  1  0  0  0  0
 17 18  1  0  0  0  0
 18 16  2  0  0  0  0
 19 17  1  0  0  0  0
 20 19  1  0  0  0  0
 22 23  2  0  0  0  0
 22 21  1  0  0  0  0
 24 25  2  0  0  0  0
 25 22  1  0  0  0  0
 26 25  1  0  0  0  0
 27 32  1  0  0  0  0
 29 27  1  0  0  0  0
 30 27  1  0  0  0  0
 30 32  1  0  0  0  0
 31 26  1  0  0  0  0
 32 31  2  0  0  0  0
 33 28  1  6  0  0  0
 33 30  1  0  0  0  0
 33 29  1  0  0  0  0
 33 27  1  0  0  0  0
 34 35  1  0  0  0  0
 35 37  1  0  0  0  0
 36 40  1  0  0  0  0
 37 36  2  0  0  0  0
 38 39  2  0  0  0  0
 38 41  1  0  0  0  0
 39 37  1  0  0  0  0
 41 40  2  0  0  0  0
 42 41  1  0  0  0  0
 43 44  1  0  0  0  0
 45 43  1  0  0  0  0
 45 42  1  1  0  0  0
 45 44  1  0  0  0  0
M  END
>  <MODEL>
2

>  <REMARK>
 VINA RESULT:      -6.2      2.227      3.355
  Name = 
  17 active torsions:
  status: ('A' for Active; 'I' for Inactive)
    1  A    between atoms: C_3  and  C_21
    2  A    between atoms: C_4  and  C_22
    3  A    between atoms: C_4  and  O_24
    4  A    between atoms: C_4  and  C_44
    5  A    between atoms: C_9  and  C_13
    6  A    between atoms: C_13  and  C_44
    7  A    between atoms: C_15  and  N_25
    8  A    between atoms: C_15  and  C_34
    9  A    between atoms: C_16  and  O_24
   10  A    between atoms: C_16  and  C_34
   11  A    between atoms: C_17  and  N_29
   12  A    between atoms: N_20  and  C_43
   13  A    between atoms: N_20  and  C_45
   14  A    between atoms: C_21  and  N_32
   15  A    between atoms: C_22  and  C_35
   16  A    between atoms: C_30  and  C_35
   17  A    between atoms: C_36  and  C_42
                            x       y       z     vdW  Elec       q    Type
                         _______ _______ _______ _____ _____    ______ ____

>  <TORSDO>
F 17

$$$$
=
 OpenBabel11042415133D

 45 50  0  0  1  0  0  0  0  0999 V2000
  192.9930  175.0250  146.1930 C   0  0  2  0  0  3  0  0  0  0  0  0
  194.3310  175.7410  146.3190 C   0  0  0  0  0  2  0  0  0  0  0  0
  194.5340  176.7030  145.1620 C   0  0  0  0  0  2  0  0  0  0  0  0
  196.5350  175.5320  144.6380 O   0  0  0  0  0  0  0  0  0  0  0  0
  195.5180  176.1370  144.2020 C   0  0  0  0  0  0  0  0  0  0  0  0
  195.2890  176.2550  142.7990 N   0  0  0  0  0  2  0  0  0  0  0  0
  196.2090  175.6840  141.8270 C   0  0  0  0  0  2  0  0  0  0  0  0
  194.3890  172.5900  141.1350 C   0  0  0  0  0  3  0  0  0  0  0  0
  195.4640  174.8140  140.8660 C   0  0  0  0  0  0  0  0  0  0  0  0
  193.5090  175.4270  137.8550 F   0  0  0  0  0  0  0  0  0  0  0  0
  193.3050  172.6960  140.3690 C   0  0  0  0  0  3  0  0  0  0  0  0
  194.6770  175.4170  139.9730 C   0  0  0  0  0  3  0  0  0  0  0  0
  195.6580  173.3180  140.8400 C   0  0  1  0  0  3  0  0  0  0  0  0
  193.1800  173.5780  139.1920 C   0  0  0  0  0  3  0  0  0  0  0  0
  193.8120  174.7420  138.9820 C   0  0  0  0  0  0  0  0  0  0  0  0
  197.9380  172.7610  141.2430 O   0  0  0  0  0  0  0  0  0  0  0  0
  196.5180  172.4650  143.0760 N   0  0  0  0  0  2  0  0  0  0  0  0
  196.7710  172.8270  141.7140 C   0  0  0  0  0  0  0  0  0  0  0  0
  197.5730  172.0520  143.9890 C   0  0  0  0  0  2  0  0  0  0  0  0
  197.0900  172.1550  145.4230 C   0  0  0  0  0  1  0  0  0  0  0  0
  192.2780  175.1230  147.4180 O   0  0  0  0  0  0  0  0  0  0  0  0
  191.1750  175.9690  147.5800 C   0  0  0  0  0  0  0  0  0  0  0  0
  191.2740  177.0180  148.2740 O   0  0  0  0  0  0  0  0  0  0  0  0
  189.1860  174.5980  147.3590 C   0  0  0  0  0  2  0  0  0  0  0  0
  189.8940  175.6340  146.9370 C   0  0  0  0  0  0  0  0  0  0  0  0
  189.3700  176.4400  145.7890 C   0  0  0  0  0  2  0  0  0  0  0  0
  186.1170  178.3250  146.5130 N   0  0  0  0  0  4  0  0  0  0  0  0
  184.4870  178.6730  144.5380 S   0  0  0  0  0  1  0  0  0  0  0  0
  184.8070  178.2680  147.1900 C   0  0  0  0  0  2  0  0  0  0  0  0
  186.1400  176.6900  145.6750 N   0  0  0  0  0  0  0  0  0  0  0  0
  188.5600  177.5530  146.2630 N   0  0  0  0  0  0  0  0  0  0  0  0
  187.1370  177.5400  146.1670 C   0  0  0  0  0  0  0  0  0  0  0  0
  185.0220  177.7040  145.9810 C   0  0  2  0  0  0  0  0  0  0  0  0
  193.2330  173.5600  145.8830 C   0  0  0  0  0  2  0  0  0  0  0  0
  193.2710  173.3370  144.3810 C   0  0  0  0  0  2  0  0  0  0  0  0
  190.8050  173.0780  144.0570 C   0  0  0  0  0  3  0  0  0  0  0  0
  191.9860  173.7700  143.7650 C   0  0  0  0  0  0  0  0  0  0  0  0
  190.7440  175.2740  142.3280 C   0  0  0  0  0  3  0  0  0  0  0  0
  191.9530  174.8660  142.8950 C   0  0  0  0  0  3  0  0  0  0  0  0
  189.5950  173.4850  143.4860 C   0  0  0  0  0  3  0  0  0  0  0  0
  189.5580  174.5840  142.6240 C   0  0  0  0  0  0  0  0  0  0  0  0
  188.3060  174.9920  142.0620 N   0  0  0  0  0  2  0  0  0  0  0  0
  186.6720  176.7470  141.9450 C   0  0  0  0  0  2  0  0  0  0  0  0
  187.7770  177.1710  142.7070 O   0  0  0  0  0  0  0  0  0  0  0  0
  188.0510  176.3490  141.5990 C   0  0  1  0  0  3  0  0  0  0  0  0
  1 34  1  1  0  0  0
  1  2  1  0  0  0  0
  1 21  1  0  0  0  0
  3  2  1  0  0  0  0
  5  4  2  0  0  0  0
  5  3  1  0  0  0  0
  6  5  1  0  0  0  0
  7  6  1  0  0  0  0
  9  7  1  0  0  0  0
 10 15  1  0  0  0  0
 11  8  2  0  0  0  0
 12  9  2  0  0  0  0
 13  9  1  0  0  0  0
 13  8  1  0  0  0  0
 13 18  1  1  0  0  0
 14 11  1  0  0  0  0
 15 14  2  0  0  0  0
 15 12  1  0  0  0  0
 16 18  2  0  0  0  0
 17 19  1  0  0  0  0
 18 17  1  0  0  0  0
 19 20  1  0  0  0  0
 21 22  1  0  0  0  0
 22 23  2  0  0  0  0
 25 24  2  0  0  0  0
 25 22  1  0  0  0  0
 26 31  1  0  0  0  0
 26 25  1  0  0  0  0
 27 29  1  0  0  0  0
 30 33  1  0  0  0  0
 30 32  1  0  0  0  0
 30 27  1  0  0  0  0
 32 31  2  0  0  0  0
 32 27  1  0  0  0  0
 33 28  1  6  0  0  0
 33 27  1  0  0  0  0
 33 29  1  0  0  0  0
 35 34  1  0  0  0  0
 37 36  1  0  0  0  0
 37 35  1  0  0  0  0
 38 41  2  0  0  0  0
 38 39  1  0  0  0  0
 39 37  2  0  0  0  0
 40 36  2  0  0  0  0
 41 40  1  0  0  0  0
 42 41  1  0  0  0  0
 43 44  1  0  0  0  0
 45 43  1  0  0  0  0
 45 42  1  1  0  0  0
 45 44  1  0  0  0  0
M  END
>  <MODEL>
3

>  <REMARK>
 VINA RESULT:      -6.2      2.945      7.316
  Name = 
  17 active torsions:
  status: ('A' for Active; 'I' for Inactive)
    1  A    between atoms: C_3  and  C_21
    2  A    between atoms: C_4  and  C_22
    3  A    between atoms: C_4  and  O_24
    4  A    between atoms: C_4  and  C_44
    5  A    between atoms: C_9  and  C_13
    6  A    between atoms: C_13  and  C_44
    7  A    between atoms: C_15  and  N_25
    8  A    between atoms: C_15  and  C_34
    9  A    between atoms: C_16  and  O_24
   10  A    between atoms: C_16  and  C_34
   11  A    between atoms: C_17  and  N_29
   12  A    between atoms: N_20  and  C_43
   13  A    between atoms: N_20  and  C_45
   14  A    between atoms: C_21  and  N_32
   15  A    between atoms: C_22  and  C_35
   16  A    between atoms: C_30  and  C_35
   17  A    between atoms: C_36  and  C_42
                            x       y       z     vdW  Elec       q    Type
                         _______ _______ _______ _____ _____    ______ ____

>  <TORSDO>
F 17

$$$$
=
 OpenBabel11042415133D

 45 50  0  0  1  0  0  0  0  0999 V2000
  189.1070  173.5180  141.1790 C   0  0  2  0  0  3  0  0  0  0  0  0
  188.0020  174.3720  141.7870 C   0  0  0  0  0  2  0  0  0  0  0  0
  187.9210  175.7180  141.0900 C   0  0  0  0  0  2  0  0  0  0  0  0
  187.2200  177.7410  142.1210 O   0  0  0  0  0  0  0  0  0  0  0  0
  188.0700  176.8110  142.0860 C   0  0  0  0  0  0  0  0  0  0  0  0
  189.1550  176.7830  143.0130 N   0  0  0  0  0  2  0  0  0  0  0  0
  189.3160  177.8150  144.0270 C   0  0  0  0  0  2  0  0  0  0  0  0
  188.5440  175.3350  146.6000 C   0  0  0  0  0  3  0  0  0  0  0  0
  189.6270  177.1890  145.3490 C   0  0  0  0  0  0  0  0  0  0  0  0
  192.6470  176.8150  147.3500 F   0  0  0  0  0  0  0  0  0  0  0  0
  189.5810  174.7190  147.1630 C   0  0  0  0  0  3  0  0  0  0  0  0
  190.9120  177.0600  145.6820 C   0  0  0  0  0  3  0  0  0  0  0  0
  188.5350  176.8000  146.3150 C   0  0  1  0  0  3  0  0  0  0  0  0
  190.8640  175.3620  147.5110 C   0  0  0  0  0  3  0  0  0  0  0  0
  191.4310  176.4160  146.9080 C   0  0  0  0  0  0  0  0  0  0  0  0
  186.4490  176.5000  145.2070 O   0  0  0  0  0  0  0  0  0  0  0  0
  186.6700  178.5280  146.3500 N   0  0  0  0  0  2  0  0  0  0  0  0
  187.1670  177.2580  145.9130 C   0  0  0  0  0  0  0  0  0  0  0  0
  185.3230  178.9910  146.0500 C   0  0  0  0  0  2  0  0  0  0  0  0
  184.3360  178.3960  147.0370 C   0  0  0  0  0  1  0  0  0  0  0  0
  188.5580  172.6550  140.1910 O   0  0  0  0  0  0  0  0  0  0  0  0
  189.2540  172.3060  139.0270 C   0  0  0  0  0  0  0  0  0  0  0  0
  189.4760  171.0940  138.7580 O   0  0  0  0  0  0  0  0  0  0  0  0
  188.8580  174.1490  137.4990 C   0  0  0  0  0  2  0  0  0  0  0  0
  189.7270  173.3590  138.1130 C   0  0  0  0  0  0  0  0  0  0  0  0
  191.1860  173.5530  137.8440 C   0  0  0  0  0  2  0  0  0  0  0  0
  194.0720  174.6270  140.1190 N   0  0  0  0  0  4  0  0  0  0  0  0
  196.4720  174.1000  139.3160 S   0  0  0  0  0  1  0  0  0  0  0  0
  194.8290  175.7740  140.6590 C   0  0  0  0  0  2  0  0  0  0  0  0
  194.0100  175.0690  138.3360 N   0  0  0  0  0  0  0  0  0  0  0  0
  191.9390  173.6200  139.0890 N   0  0  0  0  0  0  0  0  0  0  0  0
  193.1710  174.3330  139.1820 C   0  0  0  0  0  0  0  0  0  0  0  0
  195.0730  175.2580  139.4340 C   0  0  2  0  0  0  0  0  0  0  0  0
  189.7460  172.6740  142.2640 C   0  0  0  0  0  2  0  0  0  0  0  0
  189.8540  173.4660  143.5550 C   0  0  0  0  0  2  0  0  0  0  0  0
  191.9930  174.7620  143.5160 C   0  0  0  0  0  3  0  0  0  0  0  0
  191.2840  173.6320  143.9380 C   0  0  0  0  0  0  0  0  0  0  0  0
  193.2620  172.8260  145.0850 C   0  0  0  0  0  3  0  0  0  0  0  0
  191.9230  172.6620  144.7200 C   0  0  0  0  0  3  0  0  0  0  0  0
  193.3330  174.9250  143.8780 C   0  0  0  0  0  3  0  0  0  0  0  0
  193.9720  173.9620  144.6660 C   0  0  0  0  0  0  0  0  0  0  0  0
  195.3400  174.1570  145.0380 N   0  0  0  0  0  2  0  0  0  0  0  0
  197.6250  174.3460  144.3280 C   0  0  0  0  0  2  0  0  0  0  0  0
  196.7940  174.1230  143.2150 O   0  0  0  0  0  0  0  0  0  0  0  0
  196.2740  174.9360  144.2390 C   0  0  1  0  0  3  0  0  0  0  0  0
  1  2  1  1  0  0  0
  1 34  1  0  0  0  0
  3  2  1  0  0  0  0
  3  5  1  0  0  0  0
  5  4  2  0  0  0  0
  5  6  1  0  0  0  0
  6  7  1  0  0  0  0
  7  9  1  0  0  0  0
  8 11  2  0  0  0  0
  9 12  2  0  0  0  0
  9 13  1  0  0  0  0
 11 14  1  0  0  0  0
 12 15  1  0  0  0  0
 13 18  1  6  0  0  0
 13  8  1  0  0  0  0
 15 10  1  0  0  0  0
 15 14  2  0  0  0  0
 16 18  2  0  0  0  0
 18 17  1  0  0  0  0
 19 17  1  0  0  0  0
 19 20  1  0  0  0  0
 21  1  1  0  0  0  0
 22 21  1  0  0  0  0
 23 22  2  0  0  0  0
 24 25  2  0  0  0  0
 25 22  1  0  0  0  0
 26 25  1  0  0  0  0
 26 31  1  0  0  0  0
 27 29  1  0  0  0  0
 30 32  1  0  0  0  0
 30 33  1  0  0  0  0
 30 27  1  0  0  0  0
 31 32  2  0  0  0  0
 32 27  1  0  0  0  0
 33 28  1  6  0  0  0
 33 27  1  0  0  0  0
 33 29  1  0  0  0  0
 34 35  1  0  0  0  0
 35 37  1  0  0  0  0
 36 40  2  0  0  0  0
 36 37  1  0  0  0  0
 37 39  2  0  0  0  0
 39 38  1  0  0  0  0
 40 41  1  0  0  0  0
 41 42  1  0  0  0  0
 41 38  2  0  0  0  0
 44 45  1  0  0  0  0
 44 43  1  0  0  0  0
 45 43  1  0  0  0  0
 45 42  1  1  0  0  0
M  END
>  <MODEL>
4

>  <REMARK>
 VINA RESULT:      -6.2      2.497      6.506
  Name = 
  17 active torsions:
  status: ('A' for Active; 'I' for Inactive)
    1  A    between atoms: C_3  and  C_21
    2  A    between atoms: C_4  and  C_22
    3  A    between atoms: C_4  and  O_24
    4  A    between atoms: C_4  and  C_44
    5  A    between atoms: C_9  and  C_13
    6  A    between atoms: C_13  and  C_44
    7  A    between atoms: C_15  and  N_25
    8  A    between atoms: C_15  and  C_34
    9  A    between atoms: C_16  and  O_24
   10  A    between atoms: C_16  and  C_34
   11  A    between atoms: C_17  and  N_29
   12  A    between atoms: N_20  and  C_43
   13  A    between atoms: N_20  and  C_45
   14  A    between atoms: C_21  and  N_32
   15  A    between atoms: C_22  and  C_35
   16  A    between atoms: C_30  and  C_35
   17  A    between atoms: C_36  and  C_42
                            x       y       z     vdW  Elec       q    Type
                         _______ _______ _______ _____ _____    ______ ____

>  <TORSDO>
F 17

$$$$
=
 OpenBabel11042415133D

 45 50  0  0  1  0  0  0  0  0999 V2000
  193.4870  175.6050  145.7450 C   0  0  2  0  0  3  0  0  0  0  0  0
  194.8320  174.9020  145.6110 C   0  0  0  0  0  2  0  0  0  0  0  0
  194.6410  173.4000  145.4990 C   0  0  0  0  0  2  0  0  0  0  0  0
  195.3770  173.2840  143.2420 O   0  0  0  0  0  0  0  0  0  0  0  0
  194.4660  173.0200  144.0730 C   0  0  0  0  0  0  0  0  0  0  0  0
  193.2840  172.3330  143.6610 N   0  0  0  0  0  2  0  0  0  0  0  0
  193.0900  171.9130  142.2820 C   0  0  0  0  0  2  0  0  0  0  0  0
  191.0970  173.1170  139.4640 C   0  0  0  0  0  3  0  0  0  0  0  0
  191.8040  172.4640  141.7550 C   0  0  0  0  0  0  0  0  0  0  0  0
  188.3220  172.2700  142.8050 F   0  0  0  0  0  0  0  0  0  0  0  0
  189.8190  172.7430  139.4360 C   0  0  0  0  0  3  0  0  0  0  0  0
  190.6720  172.0090  142.2950 C   0  0  0  0  0  3  0  0  0  0  0  0
  191.7800  173.5580  140.7160 C   0  0  1  0  0  3  0  0  0  0  0  0
  188.9370  172.6430  140.6150 C   0  0  0  0  0  3  0  0  0  0  0  0
  189.3020  172.3750  141.8770 C   0  0  0  0  0  0  0  0  0  0  0  0
  193.5270  175.1320  141.0890 O   0  0  0  0  0  0  0  0  0  0  0  0
  193.9480  173.5840  139.3890 N   0  0  0  0  0  2  0  0  0  0  0  0
  193.1220  174.1480  140.4130 C   0  0  0  0  0  0  0  0  0  0  0  0
  195.2890  174.0700  139.1020 C   0  0  0  0  0  2  0  0  0  0  0  0
  195.6160  173.8620  137.6350 C   0  0  0  0  0  1  0  0  0  0  0  0
  192.5830  174.7800  146.4680 O   0  0  0  0  0  0  0  0  0  0  0  0
  191.3850  175.2670  147.0050 C   0  0  0  0  0  0  0  0  0  0  0  0
  191.4030  176.1490  147.9060 O   0  0  0  0  0  0  0  0  0  0  0  0
  190.0700  173.7870  145.6010 C   0  0  0  0  0  2  0  0  0  0  0  0
  190.0980  174.7480  146.5120 C   0  0  0  0  0  0  0  0  0  0  0  0
  188.7990  175.2970  147.0140 C   0  0  0  0  0  2  0  0  0  0  0  0
  186.4170  177.7870  145.3470 N   0  0  0  0  0  4  0  0  0  0  0  0
  184.1310  178.1830  146.4860 S   0  0  0  0  0  1  0  0  0  0  0  0
  186.1700  179.2100  145.0390 C   0  0  0  0  0  2  0  0  0  0  0  0
  186.8630  177.8950  147.1250 N   0  0  0  0  0  0  0  0  0  0  0  0
  188.0120  175.8510  145.9210 N   0  0  0  0  0  0  0  0  0  0  0  0
  187.2030  177.0130  146.0930 C   0  0  0  0  0  0  0  0  0  0  0  0
  185.8670  178.6650  146.2380 C   0  0  2  0  0  0  0  0  0  0  0  0
  192.9150  175.8650  144.3650 C   0  0  0  0  0  2  0  0  0  0  0  0
  192.2780  177.2420  144.3070 C   0  0  0  0  0  2  0  0  0  0  0  0
  190.1320  178.2940  143.5700 C   0  0  0  0  0  3  0  0  0  0  0  0
  190.9670  177.1710  143.6040 C   0  0  0  0  0  0  0  0  0  0  0  0
  189.3400  175.9290  142.3070 C   0  0  0  0  0  3  0  0  0  0  0  0
  190.5650  175.9870  142.9740 C   0  0  0  0  0  3  0  0  0  0  0  0
  188.9030  178.2340  142.9050 C   0  0  0  0  0  3  0  0  0  0  0  0
  188.5040  177.0550  142.2680 C   0  0  0  0  0  0  0  0  0  0  0  0
  187.2490  177.0210  141.5800 N   0  0  0  0  0  2  0  0  0  0  0  0
  185.2580  177.8860  140.5550 C   0  0  0  0  0  2  0  0  0  0  0  0
  185.0870  177.8130  141.9500 O   0  0  0  0  0  0  0  0  0  0  0  0
  186.3650  178.1750  141.4890 C   0  0  1  0  0  3  0  0  0  0  0  0
  1 34  1  6  0  0  0
  1 21  1  0  0  0  0
  2  1  1  0  0  0  0
  3  2  1  0  0  0  0
  4  5  2  0  0  0  0
  5  3  1  0  0  0  0
  6  5  1  0  0  0  0
  7  6  1  0  0  0  0
  8 13  1  0  0  0  0
  9  7  1  0  0  0  0
  9 12  2  0  0  0  0
 11  8  2  0  0  0  0
 11 14  1  0  0  0  0
 13 18  1  6  0  0  0
 13  9  1  0  0  0  0
 14 15  2  0  0  0  0
 15 12  1  0  0  0  0
 15 10  1  0  0  0  0
 17 18  1  0  0  0  0
 18 16  2  0  0  0  0
 19 17  1  0  0  0  0
 20 19  1  0  0  0  0
 21 22  1  0  0  0  0
 22 23  2  0  0  0  0
 24 25  2  0  0  0  0
 25 22  1  0  0  0  0
 25 26  1  0  0  0  0
 27 32  1  0  0  0  0
 27 33  1  0  0  0  0
 27 30  1  0  0  0  0
 29 27  1  0  0  0  0
 29 33  1  0  0  0  0
 31 32  2  0  0  0  0
 31 26  1  0  0  0  0
 32 30  1  0  0  0  0
 33 28  1  1  0  0  0
 33 30  1  0  0  0  0
 35 34  1  0  0  0  0
 36 37  1  0  0  0  0
 37 35  1  0  0  0  0
 38 39  1  0  0  0  0
 39 37  2  0  0  0  0
 40 36  2  0  0  0  0
 41 38  2  0  0  0  0
 41 40  1  0  0  0  0
 42 41  1  0  0  0  0
 43 45  1  0  0  0  0
 43 44  1  0  0  0  0
 45 42  1  6  0  0  0
 45 44  1  0  0  0  0
M  END
>  <MODEL>
5

>  <REMARK>
 VINA RESULT:      -6.0      2.712      6.266
  Name = 
  17 active torsions:
  status: ('A' for Active; 'I' for Inactive)
    1  A    between atoms: C_3  and  C_21
    2  A    between atoms: C_4  and  C_22
    3  A    between atoms: C_4  and  O_24
    4  A    between atoms: C_4  and  C_44
    5  A    between atoms: C_9  and  C_13
    6  A    between atoms: C_13  and  C_44
    7  A    between atoms: C_15  and  N_25
    8  A    between atoms: C_15  and  C_34
    9  A    between atoms: C_16  and  O_24
   10  A    between atoms: C_16  and  C_34
   11  A    between atoms: C_17  and  N_29
   12  A    between atoms: N_20  and  C_43
   13  A    between atoms: N_20  and  C_45
   14  A    between atoms: C_21  and  N_32
   15  A    between atoms: C_22  and  C_35
   16  A    between atoms: C_30  and  C_35
   17  A    between atoms: C_36  and  C_42
                            x       y       z     vdW  Elec       q    Type
                         _______ _______ _______ _____ _____    ______ ____

>  <TORSDO>
F 17

$$$$
=
 OpenBabel11042415133D

 45 50  0  0  1  0  0  0  0  0999 V2000
  188.5360  173.8580  140.9880 C   0  0  2  0  0  3  0  0  0  0  0  0
  188.9260  172.6510  141.8300 C   0  0  0  0  0  2  0  0  0  0  0  0
  190.3840  172.2910  141.6080 C   0  0  0  0  0  2  0  0  0  0  0  0
  192.1400  173.7900  142.1700 O   0  0  0  0  0  0  0  0  0  0  0  0
  191.2370  173.0160  142.5860 C   0  0  0  0  0  0  0  0  0  0  0  0
  191.0070  172.8530  143.9850 N   0  0  0  0  0  2  0  0  0  0  0  0
  191.7960  173.5710  144.9740 C   0  0  0  0  0  2  0  0  0  0  0  0
  191.6120  177.1790  144.4080 C   0  0  0  0  0  3  0  0  0  0  0  0
  191.1620  174.8930  145.2720 C   0  0  0  0  0  0  0  0  0  0  0  0
  187.8710  175.9450  146.4240 F   0  0  0  0  0  0  0  0  0  0  0  0
  190.3930  177.7090  144.3380 C   0  0  0  0  0  3  0  0  0  0  0  0
  189.8450  174.9100  145.4840 C   0  0  0  0  0  3  0  0  0  0  0  0
  191.9860  176.1490  145.4220 C   0  0  1  0  0  3  0  0  0  0  0  0
  189.2460  177.3150  145.1800 C   0  0  0  0  0  3  0  0  0  0  0  0
  189.0210  176.1130  145.7300 C   0  0  0  0  0  0  0  0  0  0  0  0
  194.0480  175.6930  146.5220 O   0  0  0  0  0  0  0  0  0  0  0  0
  194.2040  175.9190  144.2000 N   0  0  0  0  0  2  0  0  0  0  0  0
  193.4660  175.9160  145.4270 C   0  0  0  0  0  0  0  0  0  0  0  0
  195.6290  175.6280  144.1390 C   0  0  0  0  0  2  0  0  0  0  0  0
  196.3400  176.6790  143.3090 C   0  0  0  0  0  1  0  0  0  0  0  0
  189.3630  173.9260  139.8330 O   0  0  0  0  0  0  0  0  0  0  0  0
  188.8560  173.7940  138.5350 C   0  0  0  0  0  0  0  0  0  0  0  0
  187.8540  174.4690  138.1720 O   0  0  0  0  0  0  0  0  0  0  0  0
  189.6510  171.5880  137.9100 C   0  0  0  0  0  2  0  0  0  0  0  0
  189.4960  172.8650  137.5900 C   0  0  0  0  0  0  0  0  0  0  0  0
  189.9980  173.3350  136.2610 C   0  0  0  0  0  2  0  0  0  0  0  0
  193.1860  175.3100  137.0290 N   0  0  0  0  0  4  0  0  0  0  0  0
  194.2940  174.9210  139.3320 S   0  0  0  0  0  1  0  0  0  0  0  0
  194.6170  175.4780  136.7070 C   0  0  0  0  0  2  0  0  0  0  0  0
  193.0900  173.4860  137.2220 N   0  0  0  0  0  0  0  0  0  0  0  0
  190.8130  174.5330  136.4070 N   0  0  0  0  0  0  0  0  0  0  0  0
  192.1730  174.4680  136.8290 C   0  0  0  0  0  0  0  0  0  0  0  0
  194.1730  174.5280  137.5600 C   0  0  2  0  0  0  0  0  0  0  0  0
  188.7270  175.1230  141.8010 C   0  0  0  0  0  2  0  0  0  0  0  0
  187.9450  176.2700  141.1870 C   0  0  0  0  0  2  0  0  0  0  0  0
  186.3970  176.1310  143.1470 C   0  0  0  0  0  3  0  0  0  0  0  0
  187.0880  176.9180  142.2190 C   0  0  0  0  0  0  0  0  0  0  0  0
  186.1760  178.9170  143.2420 C   0  0  0  0  0  3  0  0  0  0  0  0
  186.9720  178.3130  142.2660 C   0  0  0  0  0  3  0  0  0  0  0  0
  185.5970  176.7360  144.1210 C   0  0  0  0  0  3  0  0  0  0  0  0
  185.4860  178.1280  144.1760 C   0  0  0  0  0  0  0  0  0  0  0  0
  184.6740  178.7270  145.1910 N   0  0  0  0  0  2  0  0  0  0  0  0
  185.0830  178.3610  147.5290 C   0  0  0  0  0  2  0  0  0  0  0  0
  186.3040  178.5190  146.8470 O   0  0  0  0  0  0  0  0  0  0  0  0
  185.2270  179.3090  146.4060 C   0  0  1  0  0  3  0  0  0  0  0  0
  1 34  1  1  0  0  0
  1  2  1  0  0  0  0
  3  2  1  0  0  0  0
  3  5  1  0  0  0  0
  4  5  2  0  0  0  0
  5  6  1  0  0  0  0
  6  7  1  0  0  0  0
  7  9  1  0  0  0  0
  8 13  1  0  0  0  0
  9 13  1  0  0  0  0
  9 12  2  0  0  0  0
 11  8  2  0  0  0  0
 11 14  1  0  0  0  0
 12 15  1  0  0  0  0
 13 18  1  6  0  0  0
 14 15  2  0  0  0  0
 15 10  1  0  0  0  0
 17 18  1  0  0  0  0
 18 16  2  0  0  0  0
 19 17  1  0  0  0  0
 20 19  1  0  0  0  0
 21  1  1  0  0  0  0
 22 21  1  0  0  0  0
 23 22  2  0  0  0  0
 25 24  2  0  0  0  0
 25 22  1  0  0  0  0
 26 31  1  0  0  0  0
 26 25  1  0  0  0  0
 27 30  1  0  0  0  0
 27 33  1  0  0  0  0
 29 27  1  0  0  0  0
 29 33  1  0  0  0  0
 30 33  1  0  0  0  0
 31 32  2  0  0  0  0
 32 27  1  0  0  0  0
 32 30  1  0  0  0  0
 33 28  1  1  0  0  0
 35 34  1  0  0  0  0
 35 37  1  0  0  0  0
 36 40  1  0  0  0  0
 37 39  1  0  0  0  0
 37 36  2  0  0  0  0
 38 41  1  0  0  0  0
 39 38  2  0  0  0  0
 40 41  2  0  0  0  0
 41 42  1  0  0  0  0
 44 43  1  0  0  0  0
 45 42  1  6  0  0  0
 45 44  1  0  0  0  0
 45 43  1  0  0  0  0
M  END
>  <MODEL>
6

>  <REMARK>
 VINA RESULT:      -6.0      2.849      6.450
  Name = 
  17 active torsions:
  status: ('A' for Active; 'I' for Inactive)
    1  A    between atoms: C_3  and  C_21
    2  A    between atoms: C_4  and  C_22
    3  A    between atoms: C_4  and  O_24
    4  A    between atoms: C_4  and  C_44
    5  A    between atoms: C_9  and  C_13
    6  A    between atoms: C_13  and  C_44
    7  A    between atoms: C_15  and  N_25
    8  A    between atoms: C_15  and  C_34
    9  A    between atoms: C_16  and  O_24
   10  A    between atoms: C_16  and  C_34
   11  A    between atoms: C_17  and  N_29
   12  A    between atoms: N_20  and  C_43
   13  A    between atoms: N_20  and  C_45
   14  A    between atoms: C_21  and  N_32
   15  A    between atoms: C_22  and  C_35
   16  A    between atoms: C_30  and  C_35
   17  A    between atoms: C_36  and  C_42
                            x       y       z     vdW  Elec       q    Type
                         _______ _______ _______ _____ _____    ______ ____

>  <TORSDO>
F 17

$$$$
=
 OpenBabel11042415133D

 45 50  0  0  1  0  0  0  0  0999 V2000
  188.5470  177.3060  145.7510 C   0  0  2  0  0  3  0  0  0  0  0  0
  190.0560  177.5100  145.7880 C   0  0  0  0  0  2  0  0  0  0  0  0
  190.5050  178.3970  144.6410 C   0  0  0  0  0  2  0  0  0  0  0  0
  190.6960  177.6610  142.3890 O   0  0  0  0  0  0  0  0  0  0  0  0
  191.1210  177.5670  143.5730 C   0  0  0  0  0  0  0  0  0  0  0  0
  192.2060  176.6950  143.8880 N   0  0  0  0  0  2  0  0  0  0  0  0
  192.8590  175.8930  142.8660 C   0  0  0  0  0  2  0  0  0  0  0  0
  196.3340  175.2800  143.8210 C   0  0  0  0  0  3  0  0  0  0  0  0
  193.8870  175.0050  143.4910 C   0  0  0  0  0  0  0  0  0  0  0  0
  193.8060  172.4080  146.0440 F   0  0  0  0  0  0  0  0  0  0  0  0
  196.5340  174.7120  145.0080 C   0  0  0  0  0  3  0  0  0  0  0  0
  193.5210  174.3000  144.5630 C   0  0  0  0  0  3  0  0  0  0  0  0
  195.2590  174.8360  142.8850 C   0  0  1  0  0  3  0  0  0  0  0  0
  195.7000  173.6400  145.5880 C   0  0  0  0  0  3  0  0  0  0  0  0
  194.3980  173.4170  145.3620 C   0  0  0  0  0  0  0  0  0  0  0  0
  195.8140  176.6720  141.4750 O   0  0  0  0  0  0  0  0  0  0  0  0
  195.1610  174.7320  140.3470 N   0  0  0  0  0  2  0  0  0  0  0  0
  195.4210  175.4770  141.5420 C   0  0  0  0  0  0  0  0  0  0  0  0
  195.3710  175.2810  139.0160 C   0  0  0  0  0  2  0  0  0  0  0  0
  196.7030  174.8110  138.4630 C   0  0  0  0  0  1  0  0  0  0  0  0
  188.0190  177.3830  147.0690 O   0  0  0  0  0  0  0  0  0  0  0  0
  186.6440  177.4270  147.3270 C   0  0  0  0  0  0  0  0  0  0  0  0
  186.0490  176.4110  147.7830 O   0  0  0  0  0  0  0  0  0  0  0  0
  186.1870  179.7780  147.7190 C   0  0  0  0  0  2  0  0  0  0  0  0
  185.8890  178.6640  147.0670 C   0  0  0  0  0  0  0  0  0  0  0  0
  184.7650  178.6920  146.0790 C   0  0  0  0  0  2  0  0  0  0  0  0
  185.7600  177.1870  142.7020 N   0  0  0  0  0  4  0  0  0  0  0  0
  184.7900  178.2970  140.5790 S   0  0  0  0  0  1  0  0  0  0  0  0
  186.8590  176.9990  141.7340 C   0  0  0  0  0  2  0  0  0  0  0  0
  185.9310  178.9800  143.0670 N   0  0  0  0  0  0  0  0  0  0  0  0
  184.9150  177.6310  145.0920 N   0  0  0  0  0  0  0  0  0  0  0  0
  185.4550  177.8830  143.7960 C   0  0  0  0  0  0  0  0  0  0  0  0
  186.1350  178.1380  141.7940 C   0  0  2  0  0  0  0  0  0  0  0  0
  188.2380  175.9360  145.1800 C   0  0  0  0  0  2  0  0  0  0  0  0
  189.3120  174.9410  145.5820 C   0  0  0  0  0  2  0  0  0  0  0  0
  189.3450  174.4620  143.1270 C   0  0  0  0  0  3  0  0  0  0  0  0
  189.6470  174.0550  144.4320 C   0  0  0  0  0  0  0  0  0  0  0  0
  190.5870  171.9950  143.5680 C   0  0  0  0  0  3  0  0  0  0  0  0
  190.2650  172.8170  144.6500 C   0  0  0  0  0  3  0  0  0  0  0  0
  189.6640  173.6360  142.0450 C   0  0  0  0  0  3  0  0  0  0  0  0
  190.2880  172.4040  142.2590 C   0  0  0  0  0  0  0  0  0  0  0  0
  190.6190  171.5820  141.1350 N   0  0  0  0  0  2  0  0  0  0  0  0
  190.5520  170.9060  138.8320 C   0  0  0  0  0  2  0  0  0  0  0  0
  189.3640  171.5810  139.1690 O   0  0  0  0  0  0  0  0  0  0  0  0
  190.5490  172.0550  139.7600 C   0  0  1  0  0  3  0  0  0  0  0  0
  1 34  1  1  0  0  0
  1  2  1  0  0  0  0
  1 21  1  0  0  0  0
  3  2  1  0  0  0  0
  4  5  2  0  0  0  0
  5  6  1  0  0  0  0
  5  3  1  0  0  0  0
  7  9  1  0  0  0  0
  7  6  1  0  0  0  0
  8 11  2  0  0  0  0
  9 12  2  0  0  0  0
 11 14  1  0  0  0  0
 12 15  1  0  0  0  0
 13 18  1  6  0  0  0
 13  9  1  0  0  0  0
 13  8  1  0  0  0  0
 15 14  2  0  0  0  0
 15 10  1  0  0  0  0
 16 18  2  0  0  0  0
 17 18  1  0  0  0  0
 19 17  1  0  0  0  0
 20 19  1  0  0  0  0
 21 22  1  0  0  0  0
 22 23  2  0  0  0  0
 25 22  1  0  0  0  0
 25 24  2  0  0  0  0
 26 25  1  0  0  0  0
 27 30  1  0  0  0  0
 27 32  1  0  0  0  0
 29 33  1  0  0  0  0
 29 27  1  0  0  0  0
 30 32  1  0  0  0  0
 31 26  1  0  0  0  0
 32 31  2  0  0  0  0
 33 28  1  6  0  0  0
 33 27  1  0  0  0  0
 33 30  1  0  0  0  0
 34 35  1  0  0  0  0
 36 37  1  0  0  0  0
 37 39  2  0  0  0  0
 37 35  1  0  0  0  0
 38 39  1  0  0  0  0
 40 41  1  0  0  0  0
 40 36  2  0  0  0  0
 41 38  2  0  0  0  0
 42 41  1  0  0  0  0
 43 44  1  0  0  0  0
 43 45  1  0  0  0  0
 44 45  1  0  0  0  0
 45 42  1  1  0  0  0
M  END
>  <MODEL>
7

>  <REMARK>
 VINA RESULT:      -6.0      2.648      8.005
  Name = 
  17 active torsions:
  status: ('A' for Active; 'I' for Inactive)
    1  A    between atoms: C_3  and  C_21
    2  A    between atoms: C_4  and  C_22
    3  A    between atoms: C_4  and  O_24
    4  A    between atoms: C_4  and  C_44
    5  A    between atoms: C_9  and  C_13
    6  A    between atoms: C_13  and  C_44
    7  A    between atoms: C_15  and  N_25
    8  A    between atoms: C_15  and  C_34
    9  A    between atoms: C_16  and  O_24
   10  A    between atoms: C_16  and  C_34
   11  A    between atoms: C_17  and  N_29
   12  A    between atoms: N_20  and  C_43
   13  A    between atoms: N_20  and  C_45
   14  A    between atoms: C_21  and  N_32
   15  A    between atoms: C_22  and  C_35
   16  A    between atoms: C_30  and  C_35
   17  A    between atoms: C_36  and  C_42
                            x       y       z     vdW  Elec       q    Type
                         _______ _______ _______ _____ _____    ______ ____

>  <TORSDO>
F 17

$$$$
=
 OpenBabel11042415133D

 45 50  0  0  1  0  0  0  0  0999 V2000
  194.0470  175.0230  144.7640 C   0  0  2  0  0  3  0  0  0  0  0  0
  193.4520  175.8810  143.6550 C   0  0  0  0  0  2  0  0  0  0  0  0
  193.0090  177.2270  144.2000 C   0  0  0  0  0  2  0  0  0  0  0  0
  191.1910  178.6620  143.6680 O   0  0  0  0  0  0  0  0  0  0  0  0
  191.5910  177.4770  143.8310 C   0  0  0  0  0  0  0  0  0  0  0  0
  190.7040  176.3770  143.6350 N   0  0  0  0  0  2  0  0  0  0  0  0
  189.3180  176.5780  143.2390 C   0  0  0  0  0  2  0  0  0  0  0  0
  188.1220  174.8700  140.2360 C   0  0  0  0  0  3  0  0  0  0  0  0
  188.7890  175.3430  142.5820 C   0  0  0  0  0  0  0  0  0  0  0  0
  189.0730  171.7740  143.2510 F   0  0  0  0  0  0  0  0  0  0  0  0
  188.5240  173.6120  140.0660 C   0  0  0  0  0  3  0  0  0  0  0  0
  189.2760  174.1700  142.9930 C   0  0  0  0  0  3  0  0  0  0  0  0
  187.6820  175.4040  141.5580 C   0  0  1  0  0  3  0  0  0  0  0  0
  188.6590  172.6110  141.1430 C   0  0  0  0  0  3  0  0  0  0  0  0
  188.9350  172.8450  142.4340 C   0  0  0  0  0  0  0  0  0  0  0  0
  187.4900  177.5360  140.5160 O   0  0  0  0  0  0  0  0  0  0  0  0
  185.9680  177.1510  142.2470 N   0  0  0  0  0  2  0  0  0  0  0  0
  187.0590  176.7580  141.4080 C   0  0  0  0  0  0  0  0  0  0  0  0
  185.2780  178.4240  142.0970 C   0  0  0  0  0  2  0  0  0  0  0  0
  185.7420  179.3970  143.1640 C   0  0  0  0  0  1  0  0  0  0  0  0
  194.9140  174.0450  144.2030 O   0  0  0  0  0  0  0  0  0  0  0  0
  196.2890  174.0180  144.4680 C   0  0  0  0  0  0  0  0  0  0  0  0
  197.0870  174.6850  143.7540 O   0  0  0  0  0  0  0  0  0  0  0  0
  197.1910  173.7920  146.7090 C   0  0  0  0  0  2  0  0  0  0  0  0
  196.8030  173.2080  145.5840 C   0  0  0  0  0  0  0  0  0  0  0  0
  196.9140  171.7200  145.4750 C   0  0  0  0  0  2  0  0  0  0  0  0
  193.7060  169.8050  144.6430 N   0  0  0  0  0  4  0  0  0  0  0  0
  192.1890  170.7830  142.7930 S   0  0  0  0  0  1  0  0  0  0  0  0
  193.1460  168.5820  144.0340 C   0  0  0  0  0  2  0  0  0  0  0  0
  194.9120  170.3070  143.3520 N   0  0  0  0  0  0  0  0  0  0  0  0
  195.6390  171.0810  145.7650 N   0  0  0  0  0  0  0  0  0  0  0  0
  194.8500  170.4800  144.7400 C   0  0  0  0  0  0  0  0  0  0  0  0
  193.5200  169.6510  143.2980 C   0  0  2  0  0  0  0  0  0  0  0  0
  192.9300  174.3160  145.5070 C   0  0  0  0  0  2  0  0  0  0  0  0
  192.6300  175.0300  146.8130 C   0  0  0  0  0  2  0  0  0  0  0  0
  190.1920  174.5220  146.5820 C   0  0  0  0  0  3  0  0  0  0  0  0
  191.2020  175.4520  146.8510 C   0  0  0  0  0  0  0  0  0  0  0  0
  189.5240  177.1660  147.1990 C   0  0  0  0  0  3  0  0  0  0  0  0
  190.8650  176.7770  147.1550 C   0  0  0  0  0  3  0  0  0  0  0  0
  188.8500  174.9130  146.6230 C   0  0  0  0  0  3  0  0  0  0  0  0
  188.5100  176.2330  146.9350 C   0  0  0  0  0  0  0  0  0  0  0  0
  187.1300  176.6070  146.9860 N   0  0  0  0  0  2  0  0  0  0  0  0
  185.1720  177.9200  146.5290 C   0  0  0  0  0  2  0  0  0  0  0  0
  185.8860  178.4810  147.6040 O   0  0  0  0  0  0  0  0  0  0  0  0
  186.6490  177.9150  146.5660 C   0  0  1  0  0  3  0  0  0  0  0  0
  1  2  1  6  0  0  0
  1 34  1  0  0  0  0
  2  3  1  0  0  0  0
  4  5  2  0  0  0  0
  5  3  1  0  0  0  0
  6  5  1  0  0  0  0
  7  6  1  0  0  0  0
  8 13  1  0  0  0  0
  9 12  2  0  0  0  0
  9  7  1  0  0  0  0
 11  8  2  0  0  0  0
 11 14  1  0  0  0  0
 13 18  1  6  0  0  0
 13  9  1  0  0  0  0
 14 15  2  0  0  0  0
 15 12  1  0  0  0  0
 15 10  1  0  0  0  0
 16 18  2  0  0  0  0
 18 17  1  0  0  0  0
 19 17  1  0  0  0  0
 19 20  1  0  0  0  0
 21 22  1  0  0  0  0
 21  1  1  0  0  0  0
 22 25  1  0  0  0  0
 23 22  2  0  0  0  0
 25 24  2  0  0  0  0
 26 25  1  0  0  0  0
 26 31  1  0  0  0  0
 27 32  1  0  0  0  0
 29 27  1  0  0  0  0
 30 27  1  0  0  0  0
 30 32  1  0  0  0  0
 32 31  2  0  0  0  0
 33 28  1  6  0  0  0
 33 30  1  0  0  0  0
 33 29  1  0  0  0  0
 33 27  1  0  0  0  0
 34 35  1  0  0  0  0
 35 37  1  0  0  0  0
 36 40  2  0  0  0  0
 36 37  1  0  0  0  0
 37 39  2  0  0  0  0
 39 38  1  0  0  0  0
 40 41  1  0  0  0  0
 41 42  1  0  0  0  0
 41 38  2  0  0  0  0
 43 45  1  0  0  0  0
 43 44  1  0  0  0  0
 45 42  1  1  0  0  0
 45 44  1  0  0  0  0
M  END
>  <MODEL>
8

>  <REMARK>
 VINA RESULT:      -5.8      1.743      2.258
  Name = 
  17 active torsions:
  status: ('A' for Active; 'I' for Inactive)
    1  A    between atoms: C_3  and  C_21
    2  A    between atoms: C_4  and  C_22
    3  A    between atoms: C_4  and  O_24
    4  A    between atoms: C_4  and  C_44
    5  A    between atoms: C_9  and  C_13
    6  A    between atoms: C_13  and  C_44
    7  A    between atoms: C_15  and  N_25
    8  A    between atoms: C_15  and  C_34
    9  A    between atoms: C_16  and  O_24
   10  A    between atoms: C_16  and  C_34
   11  A    between atoms: C_17  and  N_29
   12  A    between atoms: N_20  and  C_43
   13  A    between atoms: N_20  and  C_45
   14  A    between atoms: C_21  and  N_32
   15  A    between atoms: C_22  and  C_35
   16  A    between atoms: C_30  and  C_35
   17  A    between atoms: C_36  and  C_42
                            x       y       z     vdW  Elec       q    Type
                         _______ _______ _______ _____ _____    ______ ____

>  <TORSDO>
F 17

$$$$
=
 OpenBabel11042415133D

 45 50  0  0  1  0  0  0  0  0999 V2000
  189.5790  172.4060  140.4370 C   0  0  2  0  0  3  0  0  0  0  0  0
  190.3150  172.1900  141.7530 C   0  0  0  0  0  2  0  0  0  0  0  0
  189.3460  171.7750  142.8460 C   0  0  0  0  0  2  0  0  0  0  0  0
  189.3180  171.9090  145.2180 O   0  0  0  0  0  0  0  0  0  0  0  0
  189.7470  172.3930  144.1360 C   0  0  0  0  0  0  0  0  0  0  0  0
  190.6380  173.5090  144.1420 N   0  0  0  0  0  2  0  0  0  0  0  0
  191.0820  174.1200  145.3850 C   0  0  0  0  0  2  0  0  0  0  0  0
  190.2820  177.5210  144.3060 C   0  0  0  0  0  3  0  0  0  0  0  0
  190.3550  175.4070  145.6110 C   0  0  0  0  0  0  0  0  0  0  0  0
  187.2890  176.3380  147.3430 F   0  0  0  0  0  0  0  0  0  0  0  0
  189.0170  177.9090  144.4500 C   0  0  0  0  0  3  0  0  0  0  0  0
  189.1280  175.3380  146.1310 C   0  0  0  0  0  3  0  0  0  0  0  0
  191.0100  176.7420  145.3510 C   0  0  1  0  0  3  0  0  0  0  0  0
  188.1510  177.5730  145.5980 C   0  0  0  0  0  3  0  0  0  0  0  0
  188.2210  176.4810  146.3720 C   0  0  0  0  0  0  0  0  0  0  0  0
  192.8440  176.7340  143.8330 O   0  0  0  0  0  0  0  0  0  0  0  0
  193.4340  176.5220  146.0840 N   0  0  0  0  0  2  0  0  0  0  0  0
  192.4710  176.6580  145.0340 C   0  0  0  0  0  0  0  0  0  0  0  0
  194.8690  176.5080  145.8400 C   0  0  0  0  0  2  0  0  0  0  0  0
  195.3610  175.0790  145.7090 C   0  0  0  0  0  1  0  0  0  0  0  0
  190.4510  173.0130  139.4920 O   0  0  0  0  0  0  0  0  0  0  0  0
  191.8430  172.8830  139.5610 C   0  0  0  0  0  0  0  0  0  0  0  0
  192.5480  173.8220  140.0240 O   0  0  0  0  0  0  0  0  0  0  0  0
  191.8650  170.8540  138.2310 C   0  0  0  0  0  2  0  0  0  0  0  0
  192.4870  171.6450  139.0920 C   0  0  0  0  0  0  0  0  0  0  0  0
  193.8440  171.2450  139.5810 C   0  0  0  0  0  2  0  0  0  0  0  0
  193.7530  170.5420  143.3430 N   0  0  0  0  0  4  0  0  0  0  0  0
  195.7450  171.3920  144.7550 S   0  0  0  0  0  1  0  0  0  0  0  0
  193.0960  170.8720  144.6240 C   0  0  0  0  0  2  0  0  0  0  0  0
  194.0420  172.2250  142.6650 N   0  0  0  0  0  0  0  0  0  0  0  0
  193.7420  170.4140  140.7730 N   0  0  0  0  0  0  0  0  0  0  0  0
  193.8350  170.9680  142.0840 C   0  0  0  0  0  0  0  0  0  0  0  0
  194.0700  171.6420  144.0900 C   0  0  2  0  0  0  0  0  0  0  0  0
  188.3930  173.3230  140.6670 C   0  0  0  0  0  2  0  0  0  0  0  0
  188.8350  174.7750  140.6420 C   0  0  0  0  0  2  0  0  0  0  0  0
  187.4460  176.8520  140.7490 C   0  0  0  0  0  3  0  0  0  0  0  0
  187.8230  175.6320  141.3210 C   0  0  0  0  0  0  0  0  0  0  0  0
  186.2890  176.0220  143.1560 C   0  0  0  0  0  3  0  0  0  0  0  0
  187.2450  175.2210  142.5290 C   0  0  0  0  0  3  0  0  0  0  0  0
  186.4910  177.6560  141.3800 C   0  0  0  0  0  3  0  0  0  0  0  0
  185.9060  177.2440  142.5810 C   0  0  0  0  0  0  0  0  0  0  0  0
  184.9200  178.0750  143.2010 N   0  0  0  0  0  2  0  0  0  0  0  0
  185.0280  179.4270  145.1820 C   0  0  0  0  0  2  0  0  0  0  0  0
  183.6960  179.0440  144.9340 O   0  0  0  0  0  0  0  0  0  0  0  0
  184.6920  178.0950  144.6390 C   0  0  1  0  0  3  0  0  0  0  0  0
  1 34  1  1  0  0  0
  1  2  1  0  0  0  0
  2  3  1  0  0  0  0
  3  5  1  0  0  0  0
  5  6  1  0  0  0  0
  5  4  2  0  0  0  0
  6  7  1  0  0  0  0
  7  9  1  0  0  0  0
  8 11  2  0  0  0  0
  8 13  1  0  0  0  0
  9 12  2  0  0  0  0
 11 14  1  0  0  0  0
 12 15  1  0  0  0  0
 13 18  1  6  0  0  0
 13  9  1  0  0  0  0
 14 15  2  0  0  0  0
 15 10  1  0  0  0  0
 16 18  2  0  0  0  0
 18 17  1  0  0  0  0
 19 17  1  0  0  0  0
 20 19  1  0  0  0  0
 21 22  1  0  0  0  0
 21  1  1  0  0  0  0
 22 23  2  0  0  0  0
 24 25  2  0  0  0  0
 25 22  1  0  0  0  0
 25 26  1  0  0  0  0
 26 31  1  0  0  0  0
 27 33  1  0  0  0  0
 27 29  1  0  0  0  0
 30 27  1  0  0  0  0
 30 33  1  0  0  0  0
 31 32  2  0  0  0  0
 32 30  1  0  0  0  0
 32 27  1  0  0  0  0
 33 29  1  0  0  0  0
 33 28  1  1  0  0  0
 35 34  1  0  0  0  0
 35 37  1  0  0  0  0
 36 37  2  0  0  0  0
 36 40  1  0  0  0  0
 37 39  1  0  0  0  0
 39 38  2  0  0  0  0
 40 41  2  0  0  0  0
 41 38  1  0  0  0  0
 41 42  1  0  0  0  0
 44 43  1  0  0  0  0
 45 42  1  6  0  0  0
 45 44  1  0  0  0  0
 45 43  1  0  0  0  0
M  END
>  <MODEL>
9

>  <REMARK>
 VINA RESULT:      -5.8      2.610      5.880
  Name = 
  17 active torsions:
  status: ('A' for Active; 'I' for Inactive)
    1  A    between atoms: C_3  and  C_21
    2  A    between atoms: C_4  and  C_22
    3  A    between atoms: C_4  and  O_24
    4  A    between atoms: C_4  and  C_44
    5  A    between atoms: C_9  and  C_13
    6  A    between atoms: C_13  and  C_44
    7  A    between atoms: C_15  and  N_25
    8  A    between atoms: C_15  and  C_34
    9  A    between atoms: C_16  and  O_24
   10  A    between atoms: C_16  and  C_34
   11  A    between atoms: C_17  and  N_29
   12  A    between atoms: N_20  and  C_43
   13  A    between atoms: N_20  and  C_45
   14  A    between atoms: C_21  and  N_32
   15  A    between atoms: C_22  and  C_35
   16  A    between atoms: C_30  and  C_35
   17  A    between atoms: C_36  and  C_42
                            x       y       z     vdW  Elec       q    Type
                         _______ _______ _______ _____ _____    ______ ____

>  <TORSDO>
F 17

$$$$
