=
 OpenBabel11042415043D

 33 38  0  0  1  0  0  0  0  0999 V2000
  191.1980  174.4810  142.0420 N   0  0  0  0  0  0  0  0  0  0  0  0
  189.7730  171.9260  139.9030 N   0  0  0  0  0  0  0  0  0  0  0  0
  193.0570  176.7690  144.0030 O   0  0  0  0  0  0  0  0  0  0  0  0
  188.2780  176.2010  143.5450 C   0  0  0  0  0  3  0  0  0  0  0  0
  191.9260  176.3820  143.3190 C   0  0  2  0  0  3  0  0  0  0  0  0
  193.5940  174.9090  142.6570 C   0  0  0  0  0  2  0  0  0  0  0  0
  190.6650  176.6570  143.6910 C   0  0  0  0  0  0  0  0  0  0  0  0
  192.2580  175.4760  142.1960 C   0  0  1  0  0  3  0  0  0  0  0  0
  191.1950  173.4170  141.1040 C   0  0  0  0  0  0  0  0  0  0  0  0
  189.9380  172.9240  140.8100 C   0  0  0  0  0  0  0  0  0  0  0  0
  189.0920  177.9320  145.0220 C   0  0  0  0  0  3  0  0  0  0  0  0
  188.0120  177.2300  144.4620 C   0  0  0  0  0  0  0  0  0  0  0  0
  189.5890  175.8920  143.1620 C   0  0  0  0  0  0  0  0  0  0  0  0
  193.2690  171.2950  138.8790 N   0  0  0  0  0  1  0  0  0  0  0  0
  188.5890  173.7370  141.6650 S   0  0  0  0  0  0  0  0  0  0  0  0
  190.8520  171.3840  139.2700 C   0  0  0  0  0  3  0  0  0  0  0  0
  190.4060  177.6450  144.6450 C   0  0  0  0  0  3  0  0  0  0  0  0
  189.8460  174.8260  142.3740 C   0  0  2  0  0  3  0  0  0  0  0  0
  192.3230  172.8940  140.4690 C   0  0  0  0  0  3  0  0  0  0  0  0
  194.1750  176.0030  143.5700 C   0  0  2  0  0  3  0  0  0  0  0  0
  192.1460  171.8580  139.5440 C   0  0  0  0  0  0  0  0  0  0  0  0
  186.6560  177.5350  144.8500 N   0  0  0  0  0  0  0  0  0  0  0  0
  184.1350  178.7650  145.9830 C   0  0  0  0  0  2  0  0  0  0  0  0
  185.7660  177.2010  147.1340 C   0  0  0  0  0  2  0  0  0  0  0  0
  184.8720  179.2360  144.7660 C   0  0  0  0  0  3  0  0  0  0  0  0
  185.0960  178.5780  147.1500 C   0  0  0  0  0  2  0  0  0  0  0  0
  185.9930  178.6830  144.2820 C   0  0  0  0  0  3  0  0  0  0  0  0
  185.9350  176.6140  145.7320 C   0  0  0  0  0  2  0  0  0  0  0  0
  194.8670  175.3640  144.7590 C   0  0  0  0  0  2  0  0  0  0  0  0
  194.1750  175.7710  146.0470 C   0  0  0  0  0  2  0  0  0  0  0  0
  193.1940  173.6050  145.9570 O   0  0  0  0  0  0  0  0  0  0  0  0
  191.9940  175.1840  147.1660 N   0  0  0  0  0  1  0  0  0  0  0  0
  193.1150  174.7850  146.3850 C   0  0  0  0  0  0  0  0  0  0  0  0
  1  8  1  0  0  0  0
  1 18  1  0  0  0  0
  2 10  1  0  0  0  0
  4 12  1  0  0  0  0
  5  7  1  1  0  0  0
  5  3  1  0  0  0  0
  6 20  1  0  0  0  0
  7 17  2  0  0  0  0
  8  6  1  1  0  0  0
  8  5  1  0  0  0  0
  9  1  1  0  0  0  0
 10  9  2  0  0  0  0
 10 15  1  0  0  0  0
 12 22  1  0  0  0  0
 12 11  2  0  0  0  0
 13  4  2  0  0  0  0
 13  7  1  0  0  0  0
 14 21  1  0  0  0  0
 16 21  1  0  0  0  0
 16  2  2  0  0  0  0
 17 11  1  0  0  0  0
 18 15  1  1  0  0  0
 18 13  1  0  0  0  0
 19  9  1  0  0  0  0
 20  3  1  0  0  0  0
 20 29  1  1  0  0  0
 21 19  2  0  0  0  0
 22 28  1  0  0  0  0
 23 26  1  0  0  0  0
 24 26  1  0  0  0  0
 25 23  1  0  0  0  0
 27 25  2  0  0  0  0
 27 22  1  0  0  0  0
 28 24  1  0  0  0  0
 29 30  1  0  0  0  0
 30 33  1  0  0  0  0
 31 33  2  0  0  0  0
 33 32  1  0  0  0  0
M  END
>  <MODEL>
1

>  <REMARK>
 VINA RESULT:      -8.0      0.000      0.000
  Name = 
  4 active torsions:
  status: ('A' for Active; 'I' for Inactive)
    1  A    between atoms: N_6  and  C_18
    2  A    between atoms: C_11  and  C_21
    3  A    between atoms: C_11  and  C_31
    4  A    between atoms: C_21  and  C_25
                            x       y       z     vdW  Elec       q    Type
                         _______ _______ _______ _____ _____    ______ ____

>  <TORSDO>
F 4

$$$$
=
 OpenBabel11042415043D

 33 38  0  0  1  0  0  0  0  0999 V2000
  188.2060  176.2070  144.7620 N   0  0  0  0  0  0  0  0  0  0  0  0
  185.3060  178.2590  144.0440 N   0  0  0  0  0  0  0  0  0  0  0  0
  191.0620  174.4650  145.9210 O   0  0  0  0  0  0  0  0  0  0  0  0
  188.7670  174.2390  141.6720 C   0  0  0  0  0  3  0  0  0  0  0  0
  189.9520  174.5950  145.1150 C   0  0  2  0  0  3  0  0  0  0  0  0
  189.7310  176.2230  146.7550 C   0  0  0  0  0  2  0  0  0  0  0  0
  189.8660  174.1730  143.8430 C   0  0  0  0  0  0  0  0  0  0  0  0
  188.9040  175.4100  145.7690 C   0  0  1  0  0  3  0  0  0  0  0  0
  187.1760  177.1470  145.0220 C   0  0  0  0  0  0  0  0  0  0  0  0
  186.3590  177.4060  143.9380 C   0  0  0  0  0  0  0  0  0  0  0  0
  190.7010  172.8280  142.0090 C   0  0  0  0  0  3  0  0  0  0  0  0
  189.6730  173.2900  141.1700 C   0  0  0  0  0  0  0  0  0  0  0  0
  188.8570  174.7000  142.9910 C   0  0  0  0  0  0  0  0  0  0  0  0
  185.5730  179.3010  147.5820 N   0  0  0  0  0  1  0  0  0  0  0  0
  186.7680  176.4960  142.4490 S   0  0  0  0  0  0  0  0  0  0  0  0
  185.0430  178.8860  145.2260 C   0  0  0  0  0  3  0  0  0  0  0  0
  190.8010  173.2690  143.3300 C   0  0  0  0  0  3  0  0  0  0  0  0
  188.0610  175.6980  143.4300 C   0  0  2  0  0  3  0  0  0  0  0  0
  186.9320  177.7620  146.2510 C   0  0  0  0  0  3  0  0  0  0  0  0
  190.9590  175.3400  147.0380 C   0  0  2  0  0  3  0  0  0  0  0  0
  185.8530  178.6490  146.3490 C   0  0  0  0  0  0  0  0  0  0  0  0
  189.5700  172.8260  139.8080 N   0  0  0  0  0  0  0  0  0  0  0  0
  189.8250  172.4150  136.8210 C   0  0  0  0  0  2  0  0  0  0  0  0
  188.2440  173.9640  138.0570 C   0  0  0  0  0  2  0  0  0  0  0  0
  190.8440  172.0300  137.8510 C   0  0  0  0  0  3  0  0  0  0  0  0
  189.3740  173.8550  137.0310 C   0  0  0  0  0  2  0  0  0  0  0  0
  190.7170  172.2250  139.1710 C   0  0  0  0  0  3  0  0  0  0  0  0
  188.2740  172.8720  139.1270 C   0  0  0  0  0  2  0  0  0  0  0  0
  192.2000  176.2060  147.1430 C   0  0  0  0  0  2  0  0  0  0  0  0
  193.3200  175.6190  146.3020 C   0  0  0  0  0  2  0  0  0  0  0  0
  194.7330  177.2960  145.3770 O   0  0  0  0  0  0  0  0  0  0  0  0
  192.9030  176.7130  144.0700 N   0  0  0  0  0  1  0  0  0  0  0  0
  193.7080  176.5800  145.2360 C   0  0  0  0  0  0  0  0  0  0  0  0
  1  9  1  0  0  0  0
  1  8  1  0  0  0  0
  2 16  1  0  0  0  0
  3 20  1  0  0  0  0
  4 13  1  0  0  0  0
  5  7  1  6  0  0  0
  5  8  1  0  0  0  0
  5  3  1  0  0  0  0
  6 20  1  0  0  0  0
  8  6  1  1  0  0  0
  9 19  2  0  0  0  0
 10  2  2  0  0  0  0
 10  9  1  0  0  0  0
 11 17  2  0  0  0  0
 12  4  2  0  0  0  0
 12 11  1  0  0  0  0
 13 18  1  0  0  0  0
 13  7  2  0  0  0  0
 15 10  1  0  0  0  0
 16 21  2  0  0  0  0
 17  7  1  0  0  0  0
 18 15  1  6  0  0  0
 18  1  1  0  0  0  0
 19 21  1  0  0  0  0
 20 29  1  6  0  0  0
 21 14  1  0  0  0  0
 22 12  1  0  0  0  0
 23 26  1  0  0  0  0
 23 25  1  0  0  0  0
 24 28  1  0  0  0  0
 25 27  2  0  0  0  0
 26 24  1  0  0  0  0
 27 22  1  0  0  0  0
 28 22  1  0  0  0  0
 30 29  1  0  0  0  0
 32 33  1  0  0  0  0
 33 31  2  0  0  0  0
 33 30  1  0  0  0  0
M  END
>  <MODEL>
2

>  <REMARK>
 VINA RESULT:      -8.0      2.084      7.269
  Name = 
  4 active torsions:
  status: ('A' for Active; 'I' for Inactive)
    1  A    between atoms: N_6  and  C_18
    2  A    between atoms: C_11  and  C_21
    3  A    between atoms: C_11  and  C_31
    4  A    between atoms: C_21  and  C_25
                            x       y       z     vdW  Elec       q    Type
                         _______ _______ _______ _____ _____    ______ ____

>  <TORSDO>
F 4

$$$$
=
 OpenBabel11042415043D

 33 38  0  0  1  0  0  0  0  0999 V2000
  191.0380  174.1480  141.9840 N   0  0  0  0  0  0  0  0  0  0  0  0
  189.5240  172.1210  139.3880 N   0  0  0  0  0  0  0  0  0  0  0  0
  192.9620  175.8700  144.4060 O   0  0  0  0  0  0  0  0  0  0  0  0
  188.2320  176.0880  143.4330 C   0  0  0  0  0  3  0  0  0  0  0  0
  191.8720  175.7450  143.5720 C   0  0  2  0  0  3  0  0  0  0  0  0
  193.3860  174.1310  142.8700 C   0  0  0  0  0  2  0  0  0  0  0  0
  190.6280  176.1580  143.8610 C   0  0  0  0  0  0  0  0  0  0  0  0
  192.2000  174.9450  142.3710 C   0  0  1  0  0  3  0  0  0  0  0  0
  190.9940  173.2200  140.9110 C   0  0  0  0  0  0  0  0  0  0  0  0
  189.7220  172.9620  140.4370 C   0  0  0  0  0  0  0  0  0  0  0  0
  189.1050  177.4810  145.2040 C   0  0  0  0  0  3  0  0  0  0  0  0
  188.0080  177.0240  144.4550 C   0  0  0  0  0  0  0  0  0  0  0  0
  189.5230  175.6350  143.1340 C   0  0  0  0  0  0  0  0  0  0  0  0
  192.9940  171.1020  138.6150 N   0  0  0  0  0  1  0  0  0  0  0  0
  188.4100  173.8570  141.2680 S   0  0  0  0  0  0  0  0  0  0  0  0
  190.5830  171.5050  138.7890 C   0  0  0  0  0  3  0  0  0  0  0  0
  190.4010  177.0490  144.9150 C   0  0  0  0  0  3  0  0  0  0  0  0
  189.7180  174.6490  142.2330 C   0  0  2  0  0  3  0  0  0  0  0  0
  192.1030  172.6170  140.3170 C   0  0  0  0  0  3  0  0  0  0  0  0
  194.0060  175.0040  143.9760 C   0  0  2  0  0  3  0  0  0  0  0  0
  191.8910  171.7420  139.2450 C   0  0  0  0  0  0  0  0  0  0  0  0
  186.6720  177.4800  144.7540 N   0  0  0  0  0  0  0  0  0  0  0  0
  184.2340  178.9550  145.7700 C   0  0  0  0  0  2  0  0  0  0  0  0
  185.5470  177.1220  146.9280 C   0  0  0  0  0  2  0  0  0  0  0  0
  185.1300  179.4020  144.6540 C   0  0  0  0  0  3  0  0  0  0  0  0
  185.0570  178.5710  146.9920 C   0  0  0  0  0  2  0  0  0  0  0  0
  186.2110  178.7380  144.2220 C   0  0  0  0  0  3  0  0  0  0  0  0
  185.7650  176.6080  145.5050 C   0  0  0  0  0  2  0  0  0  0  0  0
  194.4670  174.1260  145.1240 C   0  0  0  0  0  2  0  0  0  0  0  0
  195.6390  174.7740  145.8380 C   0  0  0  0  0  2  0  0  0  0  0  0
  197.0080  172.9280  146.4560 O   0  0  0  0  0  0  0  0  0  0  0  0
  197.8450  174.2490  144.7380 N   0  0  0  0  0  1  0  0  0  0  0  0
  196.8500  173.9220  145.7010 C   0  0  0  0  0  0  0  0  0  0  0  0
  1 18  1  0  0  0  0
  1  8  1  0  0  0  0
  2 10  1  0  0  0  0
  4 12  1  0  0  0  0
  5  7  1  1  0  0  0
  5  3  1  0  0  0  0
  6 20  1  0  0  0  0
  7 17  2  0  0  0  0
  8  6  1  1  0  0  0
  8  5  1  0  0  0  0
  9  1  1  0  0  0  0
 10  9  2  0  0  0  0
 10 15  1  0  0  0  0
 12 22  1  0  0  0  0
 12 11  2  0  0  0  0
 13  4  2  0  0  0  0
 13  7  1  0  0  0  0
 14 21  1  0  0  0  0
 16 21  1  0  0  0  0
 16  2  2  0  0  0  0
 17 11  1  0  0  0  0
 18 15  1  1  0  0  0
 18 13  1  0  0  0  0
 19  9  1  0  0  0  0
 20  3  1  0  0  0  0
 20 29  1  1  0  0  0
 21 19  2  0  0  0  0
 22 28  1  0  0  0  0
 23 26  1  0  0  0  0
 24 26  1  0  0  0  0
 25 23  1  0  0  0  0
 27 25  2  0  0  0  0
 27 22  1  0  0  0  0
 28 24  1  0  0  0  0
 29 30  1  0  0  0  0
 32 33  1  0  0  0  0
 33 30  1  0  0  0  0
 33 31  2  0  0  0  0
M  END
>  <MODEL>
3

>  <REMARK>
 VINA RESULT:      -7.9      1.500      1.591
  Name = 
  4 active torsions:
  status: ('A' for Active; 'I' for Inactive)
    1  A    between atoms: N_6  and  C_18
    2  A    between atoms: C_11  and  C_21
    3  A    between atoms: C_11  and  C_31
    4  A    between atoms: C_21  and  C_25
                            x       y       z     vdW  Elec       q    Type
                         _______ _______ _______ _____ _____    ______ ____

>  <TORSDO>
F 4

$$$$
=
 OpenBabel11042415043D

 33 38  0  0  1  0  0  0  0  0999 V2000
  191.9200  175.0500  142.6440 N   0  0  0  0  0  0  0  0  0  0  0  0
  194.6650  176.4410  144.5590 N   0  0  0  0  0  0  0  0  0  0  0  0
  189.6130  173.4710  140.4720 O   0  0  0  0  0  0  0  0  0  0  0  0
  188.8690  176.5170  144.1510 C   0  0  0  0  0  3  0  0  0  0  0  0
  189.9600  174.0630  141.6670 C   0  0  2  0  0  3  0  0  0  0  0  0
  191.9630  173.6250  140.5780 C   0  0  0  0  0  2  0  0  0  0  0  0
  189.1570  174.8480  142.4020 C   0  0  0  0  0  0  0  0  0  0  0  0
  191.3950  173.8640  141.9700 C   0  0  1  0  0  3  0  0  0  0  0  0
  193.2690  175.2450  143.0400 C   0  0  0  0  0  0  0  0  0  0  0  0
  193.4330  176.1730  144.0510 C   0  0  0  0  0  0  0  0  0  0  0  0
  186.9470  175.6810  142.9460 C   0  0  0  0  0  3  0  0  0  0  0  0
  187.4780  176.4980  143.9580 C   0  0  0  0  0  0  0  0  0  0  0  0
  189.7190  175.7170  143.3780 C   0  0  0  0  0  0  0  0  0  0  0  0
  196.7880  174.1860  142.5400 N   0  0  0  0  0  1  0  0  0  0  0  0
  191.9170  176.9190  144.6460 S   0  0  0  0  0  0  0  0  0  0  0  0
  195.7660  175.8020  144.0720 C   0  0  0  0  0  3  0  0  0  0  0  0
  187.7780  174.8680  142.1720 C   0  0  0  0  0  3  0  0  0  0  0  0
  191.0600  175.8280  143.4870 C   0  0  2  0  0  3  0  0  0  0  0  0
  194.3710  174.5640  142.5220 C   0  0  0  0  0  3  0  0  0  0  0  0
  190.7810  173.0460  139.7810 C   0  0  2  0  0  3  0  0  0  0  0  0
  195.6380  174.8540  143.0430 C   0  0  0  0  0  0  0  0  0  0  0  0
  186.6140  177.3310  144.7590 N   0  0  0  0  0  0  0  0  0  0  0  0
  184.2660  178.6840  146.1050 C   0  0  0  0  0  2  0  0  0  0  0  0
  185.3150  179.2370  143.8640 C   0  0  0  0  0  2  0  0  0  0  0  0
  184.8120  177.3300  146.4440 C   0  0  0  0  0  3  0  0  0  0  0  0
  184.0440  178.8090  144.6030 C   0  0  0  0  0  2  0  0  0  0  0  0
  185.8500  176.7430  145.8320 C   0  0  0  0  0  3  0  0  0  0  0  0
  186.6060  178.7800  144.5420 C   0  0  0  0  0  2  0  0  0  0  0  0
  190.7910  173.6050  138.3710 C   0  0  0  0  0  2  0  0  0  0  0  0
  189.5920  173.0880  137.5960 C   0  0  0  0  0  2  0  0  0  0  0  0
  187.8090  174.6360  137.8990 O   0  0  0  0  0  0  0  0  0  0  0  0
  188.9640  174.8380  135.8930 N   0  0  0  0  0  1  0  0  0  0  0  0
  188.7420  174.2290  137.1600 C   0  0  0  0  0  0  0  0  0  0  0  0
  1  9  1  0  0  0  0
  1 18  1  0  0  0  0
  5  3  1  6  0  0  0
  5  8  1  0  0  0  0
  5  7  1  0  0  0  0
  7 13  1  0  0  0  0
  8  6  1  6  0  0  0
  8  1  1  0  0  0  0
  9 10  1  0  0  0  0
 10  2  2  0  0  0  0
 10 15  1  0  0  0  0
 11 12  2  0  0  0  0
 12  4  1  0  0  0  0
 12 22  1  0  0  0  0
 13  4  2  0  0  0  0
 14 21  1  0  0  0  0
 16  2  1  0  0  0  0
 17  7  2  0  0  0  0
 17 11  1  0  0  0  0
 18 13  1  6  0  0  0
 18 15  1  0  0  0  0
 19  9  2  0  0  0  0
 19 21  1  0  0  0  0
 20 29  1  6  0  0  0
 20  3  1  0  0  0  0
 20  6  1  0  0  0  0
 21 16  2  0  0  0  0
 22 27  1  0  0  0  0
 23 25  1  0  0  0  0
 24 28  1  0  0  0  0
 24 26  1  0  0  0  0
 26 23  1  0  0  0  0
 27 25  2  0  0  0  0
 28 22  1  0  0  0  0
 30 29  1  0  0  0  0
 32 33  1  0  0  0  0
 33 30  1  0  0  0  0
 33 31  2  0  0  0  0
M  END
>  <MODEL>
4

>  <REMARK>
 VINA RESULT:      -7.7      2.821      5.413
  Name = 
  4 active torsions:
  status: ('A' for Active; 'I' for Inactive)
    1  A    between atoms: N_6  and  C_18
    2  A    between atoms: C_11  and  C_21
    3  A    between atoms: C_11  and  C_31
    4  A    between atoms: C_21  and  C_25
                            x       y       z     vdW  Elec       q    Type
                         _______ _______ _______ _____ _____    ______ ____

>  <TORSDO>
F 4

$$$$
=
 OpenBabel11042415043D

 33 38  0  0  1  0  0  0  0  0999 V2000
  188.4030  175.9370  143.9670 N   0  0  0  0  0  0  0  0  0  0  0  0
  186.2730  177.6840  141.6120 N   0  0  0  0  0  0  0  0  0  0  0  0
  190.4040  174.6440  146.5860 O   0  0  0  0  0  0  0  0  0  0  0  0
  189.5750  172.9320  142.1410 C   0  0  0  0  0  3  0  0  0  0  0  0
  189.6460  174.5070  145.4430 C   0  0  2  0  0  3  0  0  0  0  0  0
  189.1950  176.6390  146.2430 C   0  0  0  0  0  2  0  0  0  0  0  0
  189.8990  173.6430  144.4470 C   0  0  0  0  0  0  0  0  0  0  0  0
  188.5990  175.5500  145.3630 C   0  0  1  0  0  3  0  0  0  0  0  0
  187.5180  176.9470  143.5080 C   0  0  0  0  0  0  0  0  0  0  0  0
  187.1440  176.8120  142.1840 C   0  0  0  0  0  0  0  0  0  0  0  0
  191.0330  171.6750  143.6030 C   0  0  0  0  0  3  0  0  0  0  0  0
  190.4180  171.8290  142.3490 C   0  0  0  0  0  0  0  0  0  0  0  0
  189.3180  173.8510  143.1660 C   0  0  0  0  0  0  0  0  0  0  0  0
  185.5750  179.9660  144.4370 N   0  0  0  0  0  1  0  0  0  0  0  0
  187.8450  175.3950  141.3410 S   0  0  0  0  0  0  0  0  0  0  0  0
  185.7580  178.7190  142.3350 C   0  0  0  0  0  3  0  0  0  0  0  0
  190.7820  172.5750  144.6400 C   0  0  0  0  0  3  0  0  0  0  0  0
  188.6040  174.9720  142.9260 C   0  0  2  0  0  3  0  0  0  0  0  0
  187.0050  177.9880  144.2830 C   0  0  0  0  0  3  0  0  0  0  0  0
  190.1020  175.8770  147.2260 C   0  0  2  0  0  3  0  0  0  0  0  0
  186.1170  178.8890  143.6830 C   0  0  0  0  0  0  0  0  0  0  0  0
  190.6770  170.8920  141.2820 N   0  0  0  0  0  0  0  0  0  0  0  0
  191.8910  168.8900  139.3660 C   0  0  0  0  0  2  0  0  0  0  0  0
  192.0280  171.4200  139.2780 C   0  0  0  0  0  2  0  0  0  0  0  0
  191.4040  168.5950  140.7530 C   0  0  0  0  0  3  0  0  0  0  0  0
  192.8080  170.1060  139.3710 C   0  0  0  0  0  2  0  0  0  0  0  0
  190.8740  169.4970  141.5910 C   0  0  0  0  0  3  0  0  0  0  0  0
  190.6290  171.3510  139.8920 C   0  0  0  0  0  2  0  0  0  0  0  0
  191.3730  176.6700  147.4690 C   0  0  0  0  0  2  0  0  0  0  0  0
  192.5730  175.9030  146.9450 C   0  0  0  0  0  2  0  0  0  0  0  0
  192.5480  176.7250  144.7110 O   0  0  0  0  0  0  0  0  0  0  0  0
  194.4780  177.1950  145.9160 N   0  0  0  0  0  1  0  0  0  0  0  0
  193.1760  176.6310  145.7970 C   0  0  0  0  0  0  0  0  0  0  0  0
  1  8  1  0  0  0  0
  2 10  2  0  0  0  0
  2 16  1  0  0  0  0
  3 20  1  0  0  0  0
  4 12  2  0  0  0  0
  4 13  1  0  0  0  0
  5  7  1  6  0  0  0
  5  3  1  0  0  0  0
  6 20  1  0  0  0  0
  7 17  1  0  0  0  0
  8  5  1  0  0  0  0
  8  6  1  1  0  0  0
  9  1  1  0  0  0  0
  9 19  2  0  0  0  0
 10  9  1  0  0  0  0
 11 17  2  0  0  0  0
 12 11  1  0  0  0  0
 13  7  2  0  0  0  0
 15 10  1  0  0  0  0
 16 21  2  0  0  0  0
 18 15  1  6  0  0  0
 18 13  1  0  0  0  0
 18  1  1  0  0  0  0
 20 29  1  6  0  0  0
 21 19  1  0  0  0  0
 21 14  1  0  0  0  0
 22 27  1  0  0  0  0
 22 12  1  0  0  0  0
 23 26  1  0  0  0  0
 23 25  1  0  0  0  0
 24 26  1  0  0  0  0
 24 28  1  0  0  0  0
 25 27  2  0  0  0  0
 28 22  1  0  0  0  0
 30 29  1  0  0  0  0
 31 33  2  0  0  0  0
 33 32  1  0  0  0  0
 33 30  1  0  0  0  0
M  END
>  <MODEL>
5

>  <REMARK>
 VINA RESULT:      -7.5      2.352      7.452
  Name = 
  4 active torsions:
  status: ('A' for Active; 'I' for Inactive)
    1  A    between atoms: N_6  and  C_18
    2  A    between atoms: C_11  and  C_21
    3  A    between atoms: C_11  and  C_31
    4  A    between atoms: C_21  and  C_25
                            x       y       z     vdW  Elec       q    Type
                         _______ _______ _______ _____ _____    ______ ____

>  <TORSDO>
F 4

$$$$
=
 OpenBabel11042415043D

 33 38  0  0  1  0  0  0  0  0999 V2000
  189.8450  175.6130  143.9020 N   0  0  0  0  0  0  0  0  0  0  0  0
  192.7270  174.5870  145.8460 N   0  0  0  0  0  0  0  0  0  0  0  0
  186.8850  176.8840  142.4340 O   0  0  0  0  0  0  0  0  0  0  0  0
  190.1410  173.7550  140.7090 C   0  0  0  0  0  3  0  0  0  0  0  0
  188.1480  176.3380  142.3650 C   0  0  2  0  0  3  0  0  0  0  0  0
  187.8870  177.0380  144.5630 C   0  0  0  0  0  2  0  0  0  0  0  0
  188.5580  175.4520  141.4430 C   0  0  0  0  0  0  0  0  0  0  0  0
  188.9660  176.7220  143.5370 C   0  0  1  0  0  3  0  0  0  0  0  0
  190.7350  175.5950  145.0080 C   0  0  0  0  0  0  0  0  0  0  0  0
  191.7750  174.6940  144.8820 C   0  0  0  0  0  0  0  0  0  0  0  0
  188.2550  174.3360  139.3130 C   0  0  0  0  0  3  0  0  0  0  0  0
  189.4310  173.5920  139.5090 C   0  0  0  0  0  0  0  0  0  0  0  0
  189.7140  174.6620  141.6870 C   0  0  0  0  0  0  0  0  0  0  0  0
  191.5670  177.1070  148.2910 N   0  0  0  0  0  1  0  0  0  0  0  0
  191.7810  173.7530  143.3570 S   0  0  0  0  0  0  0  0  0  0  0  0
  192.6670  175.3660  146.9640 C   0  0  0  0  0  3  0  0  0  0  0  0
  187.8190  175.2530  140.2720 C   0  0  0  0  0  3  0  0  0  0  0  0
  190.3320  174.7270  142.8860 C   0  0  2  0  0  3  0  0  0  0  0  0
  190.6460  176.4160  146.1320 C   0  0  0  0  0  3  0  0  0  0  0  0
  186.6730  177.4600  143.7170 C   0  0  2  0  0  3  0  0  0  0  0  0
  191.6240  176.2930  147.1260 C   0  0  0  0  0  0  0  0  0  0  0  0
  189.8800  172.6510  138.5110 N   0  0  0  0  0  0  0  0  0  0  0  0
  190.1320  170.4100  136.4950 C   0  0  0  0  0  2  0  0  0  0  0  0
  190.4870  170.3030  139.0030 C   0  0  0  0  0  2  0  0  0  0  0  0
  189.4200  171.7110  136.2780 C   0  0  0  0  0  3  0  0  0  0  0  0
  189.6920  169.7740  137.8070 C   0  0  0  0  0  2  0  0  0  0  0  0
  189.3130  172.6910  137.1860 C   0  0  0  0  0  3  0  0  0  0  0  0
  190.9830  171.7390  138.8270 C   0  0  0  0  0  2  0  0  0  0  0  0
  185.4010  176.9110  144.3370 C   0  0  0  0  0  2  0  0  0  0  0  0
  185.5430  176.8480  145.8470 C   0  0  0  0  0  2  0  0  0  0  0  0
  185.0540  178.3080  147.6630 O   0  0  0  0  0  0  0  0  0  0  0  0
  183.8240  178.6890  145.7290 N   0  0  0  0  0  1  0  0  0  0  0  0
  184.8150  177.9860  146.4710 C   0  0  0  0  0  0  0  0  0  0  0  0
  1  9  1  0  0  0  0
  2 16  1  0  0  0  0
  3 20  1  0  0  0  0
  4 13  1  0  0  0  0
  5  7  1  1  0  0  0
  5  3  1  0  0  0  0
  5  8  1  0  0  0  0
  7 13  2  0  0  0  0
  8  1  1  0  0  0  0
  8  6  1  1  0  0  0
  9 19  2  0  0  0  0
 10  9  1  0  0  0  0
 10  2  2  0  0  0  0
 11 12  1  0  0  0  0
 11 17  2  0  0  0  0
 12  4  2  0  0  0  0
 15 10  1  0  0  0  0
 16 21  2  0  0  0  0
 17  7  1  0  0  0  0
 18 13  1  1  0  0  0
 18 15  1  0  0  0  0
 18  1  1  0  0  0  0
 19 21  1  0  0  0  0
 20 29  1  1  0  0  0
 20  6  1  0  0  0  0
 21 14  1  0  0  0  0
 22 28  1  0  0  0  0
 22 12  1  0  0  0  0
 23 26  1  0  0  0  0
 25 23  1  0  0  0  0
 25 27  2  0  0  0  0
 26 24  1  0  0  0  0
 27 22  1  0  0  0  0
 28 24  1  0  0  0  0
 29 30  1  0  0  0  0
 30 33  1  0  0  0  0
 32 33  1  0  0  0  0
 33 31  2  0  0  0  0
M  END
>  <MODEL>
6

>  <REMARK>
 VINA RESULT:      -7.5      2.721      8.009
  Name = 
  4 active torsions:
  status: ('A' for Active; 'I' for Inactive)
    1  A    between atoms: N_6  and  C_18
    2  A    between atoms: C_11  and  C_21
    3  A    between atoms: C_11  and  C_31
    4  A    between atoms: C_21  and  C_25
                            x       y       z     vdW  Elec       q    Type
                         _______ _______ _______ _____ _____    ______ ____

>  <TORSDO>
F 4

$$$$
=
 OpenBabel11042415043D

 33 38  0  0  1  0  0  0  0  0999 V2000
  191.8570  174.8130  143.5980 N   0  0  0  0  0  0  0  0  0  0  0  0
  193.8330  176.2320  146.2840 N   0  0  0  0  0  0  0  0  0  0  0  0
  190.3810  173.2270  140.7970 O   0  0  0  0  0  0  0  0  0  0  0  0
  188.4360  176.1340  144.1340 C   0  0  0  0  0  3  0  0  0  0  0  0
  190.3260  173.7930  142.0520 C   0  0  2  0  0  3  0  0  0  0  0  0
  192.5810  173.4540  141.6160 C   0  0  0  0  0  2  0  0  0  0  0  0
  189.3070  174.5300  142.5240 C   0  0  0  0  0  0  0  0  0  0  0  0
  191.6090  173.6320  142.7730 C   0  0  1  0  0  3  0  0  0  0  0  0
  193.0130  175.0390  144.3890 C   0  0  0  0  0  0  0  0  0  0  0  0
  192.8260  175.9400  145.4200 C   0  0  0  0  0  0  0  0  0  0  0  0
  187.0050  175.2730  142.3860 C   0  0  0  0  0  3  0  0  0  0  0  0
  187.1710  176.0760  143.5280 C   0  0  0  0  0  0  0  0  0  0  0  0
  189.5110  175.3850  143.6410 C   0  0  0  0  0  0  0  0  0  0  0  0
  196.5580  174.1100  144.9620 N   0  0  0  0  0  1  0  0  0  0  0  0
  191.1720  176.6180  145.5410 S   0  0  0  0  0  0  0  0  0  0  0  0
  195.0560  175.6450  146.1420 C   0  0  0  0  0  3  0  0  0  0  0  0
  188.0630  174.5120  141.8850 C   0  0  0  0  0  3  0  0  0  0  0  0
  190.7510  175.5360  144.1540 C   0  0  2  0  0  3  0  0  0  0  0  0
  194.2470  174.4100  144.2180 C   0  0  0  0  0  3  0  0  0  0  0  0
  191.7200  172.8620  140.4860 C   0  0  2  0  0  3  0  0  0  0  0  0
  195.2830  174.7250  145.1050 C   0  0  0  0  0  0  0  0  0  0  0  0
  186.0720  176.8560  144.0440 N   0  0  0  0  0  0  0  0  0  0  0  0
  184.1660  179.0590  144.8610 C   0  0  0  0  0  2  0  0  0  0  0  0
  186.1830  178.1860  146.1270 C   0  0  0  0  0  2  0  0  0  0  0  0
  184.3360  178.5130  143.4750 C   0  0  0  0  0  3  0  0  0  0  0  0
  185.5210  179.4000  145.4690 C   0  0  0  0  0  2  0  0  0  0  0  0
  185.1910  177.5400  143.1300 C   0  0  0  0  0  3  0  0  0  0  0  0
  185.8010  176.8530  145.4840 C   0  0  0  0  0  2  0  0  0  0  0  0
  192.1350  173.4640  139.1570 C   0  0  0  0  0  2  0  0  0  0  0  0
  191.3710  172.8030  138.0240 C   0  0  0  0  0  2  0  0  0  0  0  0
  189.2970  173.9130  137.6590 O   0  0  0  0  0  0  0  0  0  0  0  0
  191.0490  174.6220  136.3080 N   0  0  0  0  0  1  0  0  0  0  0  0
  190.5090  173.8060  137.3420 C   0  0  0  0  0  0  0  0  0  0  0  0
  1 18  1  0  0  0  0
  1  9  1  0  0  0  0
  5  3  1  6  0  0  0
  5  7  1  0  0  0  0
  5  8  1  0  0  0  0
  7 13  2  0  0  0  0
  8  6  1  6  0  0  0
  8  1  1  0  0  0  0
  9 10  1  0  0  0  0
 10 15  1  0  0  0  0
 10  2  2  0  0  0  0
 11 12  1  0  0  0  0
 12 22  1  0  0  0  0
 12  4  2  0  0  0  0
 13  4  1  0  0  0  0
 14 21  1  0  0  0  0
 16  2  1  0  0  0  0
 17 11  2  0  0  0  0
 17  7  1  0  0  0  0
 18 13  1  6  0  0  0
 18 15  1  0  0  0  0
 19  9  2  0  0  0  0
 19 21  1  0  0  0  0
 20 29  1  6  0  0  0
 20  3  1  0  0  0  0
 20  6  1  0  0  0  0
 21 16  2  0  0  0  0
 22 28  1  0  0  0  0
 23 26  1  0  0  0  0
 25 23  1  0  0  0  0
 26 24  1  0  0  0  0
 27 25  2  0  0  0  0
 27 22  1  0  0  0  0
 28 24  1  0  0  0  0
 30 29  1  0  0  0  0
 32 33  1  0  0  0  0
 33 31  2  0  0  0  0
 33 30  1  0  0  0  0
M  END
>  <MODEL>
7

>  <REMARK>
 VINA RESULT:      -7.3      2.652      5.322
  Name = 
  4 active torsions:
  status: ('A' for Active; 'I' for Inactive)
    1  A    between atoms: N_6  and  C_18
    2  A    between atoms: C_11  and  C_21
    3  A    between atoms: C_11  and  C_31
    4  A    between atoms: C_21  and  C_25
                            x       y       z     vdW  Elec       q    Type
                         _______ _______ _______ _____ _____    ______ ____

>  <TORSDO>
F 4

$$$$
=
 OpenBabel11042415043D

 33 38  0  0  1  0  0  0  0  0999 V2000
  191.9790  174.4050  143.0170 N   0  0  0  0  0  0  0  0  0  0  0  0
  194.7180  176.1970  144.5730 N   0  0  0  0  0  0  0  0  0  0  0  0
  189.6680  172.2970  141.3590 O   0  0  0  0  0  0  0  0  0  0  0  0
  189.0400  176.6270  143.4150 C   0  0  0  0  0  3  0  0  0  0  0  0
  189.9920  173.2880  142.2590 C   0  0  2  0  0  3  0  0  0  0  0  0
  192.0010  172.2670  141.7020 C   0  0  0  0  0  2  0  0  0  0  0  0
  189.2440  174.3740  142.5160 C   0  0  0  0  0  0  0  0  0  0  0  0
  191.3560  173.1000  142.8010 C   0  0  1  0  0  3  0  0  0  0  0  0
  193.3040  174.6200  143.4770 C   0  0  0  0  0  0  0  0  0  0  0  0
  193.5090  175.8590  144.0550 C   0  0  0  0  0  0  0  0  0  0  0  0
  187.1300  175.5520  142.3950 C   0  0  0  0  0  3  0  0  0  0  0  0
  187.6810  176.6580  143.0650 C   0  0  0  0  0  0  0  0  0  0  0  0
  189.8350  175.5080  143.1370 C   0  0  0  0  0  0  0  0  0  0  0  0
  196.6770  173.1350  143.8970 N   0  0  0  0  0  1  0  0  0  0  0  0
  192.0630  176.9170  144.1060 S   0  0  0  0  0  0  0  0  0  0  0  0
  195.7600  175.3190  144.5240 C   0  0  0  0  0  3  0  0  0  0  0  0
  187.9050  174.4240  142.1180 C   0  0  0  0  0  3  0  0  0  0  0  0
  191.1650  175.5320  143.3670 C   0  0  2  0  0  3  0  0  0  0  0  0
  194.3430  173.6910  143.4170 C   0  0  0  0  0  3  0  0  0  0  0  0
  190.8210  171.5240  141.0490 C   0  0  2  0  0  3  0  0  0  0  0  0
  195.5900  174.0510  143.9430 C   0  0  0  0  0  0  0  0  0  0  0  0
  186.8740  177.8190  143.3550 N   0  0  0  0  0  0  0  0  0  0  0  0
  184.7520  179.7540  144.3080 C   0  0  0  0  0  2  0  0  0  0  0  0
  184.7530  178.3500  142.1970 C   0  0  0  0  0  2  0  0  0  0  0  0
  185.8350  179.1520  145.1520 C   0  0  0  0  0  3  0  0  0  0  0  0
  184.0360  178.6720  143.5100 C   0  0  0  0  0  2  0  0  0  0  0  0
  186.7640  178.2900  144.7140 C   0  0  0  0  0  3  0  0  0  0  0  0
  186.2650  178.5660  142.2520 C   0  0  0  0  0  2  0  0  0  0  0  0
  191.0240  171.4600  139.5470 C   0  0  0  0  0  2  0  0  0  0  0  0
  191.7740  172.6910  139.0700 C   0  0  0  0  0  2  0  0  0  0  0  0
  191.4310  173.7970  136.9900 O   0  0  0  0  0  0  0  0  0  0  0  0
  189.6010  173.7910  138.4210 N   0  0  0  0  0  1  0  0  0  0  0  0
  190.9420  173.4430  138.0930 C   0  0  0  0  0  0  0  0  0  0  0  0
  1 18  1  0  0  0  0
  1  9  1  0  0  0  0
  5  3  1  6  0  0  0
  5  7  1  0  0  0  0
  5  8  1  0  0  0  0
  7 13  2  0  0  0  0
  8  6  1  6  0  0  0
  8  1  1  0  0  0  0
  9 10  1  0  0  0  0
 10 15  1  0  0  0  0
 10  2  2  0  0  0  0
 11 12  1  0  0  0  0
 12 22  1  0  0  0  0
 12  4  2  0  0  0  0
 13  4  1  0  0  0  0
 14 21  1  0  0  0  0
 16  2  1  0  0  0  0
 17 11  2  0  0  0  0
 17  7  1  0  0  0  0
 18 13  1  6  0  0  0
 18 15  1  0  0  0  0
 19  9  2  0  0  0  0
 19 21  1  0  0  0  0
 20 29  1  6  0  0  0
 20  3  1  0  0  0  0
 20  6  1  0  0  0  0
 21 16  2  0  0  0  0
 22 27  1  0  0  0  0
 23 25  1  0  0  0  0
 24 28  1  0  0  0  0
 24 26  1  0  0  0  0
 26 23  1  0  0  0  0
 27 25  2  0  0  0  0
 28 22  1  0  0  0  0
 30 29  1  0  0  0  0
 31 33  2  0  0  0  0
 33 32  1  0  0  0  0
 33 30  1  0  0  0  0
M  END
>  <MODEL>
8

>  <REMARK>
 VINA RESULT:      -7.2      2.668      5.183
  Name = 
  4 active torsions:
  status: ('A' for Active; 'I' for Inactive)
    1  A    between atoms: N_6  and  C_18
    2  A    between atoms: C_11  and  C_21
    3  A    between atoms: C_11  and  C_31
    4  A    between atoms: C_21  and  C_25
                            x       y       z     vdW  Elec       q    Type
                         _______ _______ _______ _____ _____    ______ ____

>  <TORSDO>
F 4

$$$$
=
 OpenBabel11042415043D

 33 38  0  0  1  0  0  0  0  0999 V2000
  188.1250  175.9860  143.0280 N   0  0  0  0  0  0  0  0  0  0  0  0
  185.8560  178.7350  142.3720 N   0  0  0  0  0  0  0  0  0  0  0  0
  190.3680  173.4920  144.1610 O   0  0  0  0  0  0  0  0  0  0  0  0
  188.5870  174.3290  139.7450 C   0  0  0  0  0  3  0  0  0  0  0  0
  189.4150  173.9770  143.2920 C   0  0  2  0  0  3  0  0  0  0  0  0
  189.3740  175.4010  145.1250 C   0  0  0  0  0  2  0  0  0  0  0  0
  189.3850  173.7440  141.9700 C   0  0  0  0  0  0  0  0  0  0  0  0
  188.5070  174.9310  143.9660 C   0  0  1  0  0  3  0  0  0  0  0  0
  187.3060  177.1040  143.3340 C   0  0  0  0  0  0  0  0  0  0  0  0
  186.6980  177.6770  142.2330 C   0  0  0  0  0  0  0  0  0  0  0  0
  190.1060  172.4720  140.0370 C   0  0  0  0  0  3  0  0  0  0  0  0
  189.3090  173.2610  139.1900 C   0  0  0  0  0  0  0  0  0  0  0  0
  188.6240  174.5940  141.1200 C   0  0  0  0  0  0  0  0  0  0  0  0
  185.9380  179.2490  146.0330 N   0  0  0  0  0  1  0  0  0  0  0  0
  187.0630  176.8840  140.6680 S   0  0  0  0  0  0  0  0  0  0  0  0
  185.6050  179.2590  143.6050 C   0  0  0  0  0  3  0  0  0  0  0  0
  190.1480  172.7140  141.4120 C   0  0  0  0  0  3  0  0  0  0  0  0
  188.0240  175.6910  141.6290 C   0  0  2  0  0  3  0  0  0  0  0  0
  187.0650  177.6060  144.6130 C   0  0  0  0  0  3  0  0  0  0  0  0
  190.3340  174.2250  145.3790 C   0  0  2  0  0  3  0  0  0  0  0  0
  186.2070  178.7040  144.7470 C   0  0  0  0  0  0  0  0  0  0  0  0
  189.2650  173.0030  137.7710 N   0  0  0  0  0  0  0  0  0  0  0  0
  189.8910  172.3050  134.8950 C   0  0  0  0  0  2  0  0  0  0  0  0
  190.1720  174.5400  136.0590 C   0  0  0  0  0  2  0  0  0  0  0  0
  189.7030  171.3270  136.0150 C   0  0  0  0  0  3  0  0  0  0  0  0
  190.8650  173.4020  135.3040 C   0  0  0  0  0  2  0  0  0  0  0  0
  189.4320  171.6540  137.2870 C   0  0  0  0  0  3  0  0  0  0  0  0
  188.9420  174.0950  136.8500 C   0  0  0  0  0  2  0  0  0  0  0  0
  191.7160  174.7550  145.7130 C   0  0  0  0  0  2  0  0  0  0  0  0
  191.7120  176.2720  145.6900 C   0  0  0  0  0  2  0  0  0  0  0  0
  193.8170  177.1520  145.0100 O   0  0  0  0  0  0  0  0  0  0  0  0
  192.2800  176.8280  143.2970 N   0  0  0  0  0  1  0  0  0  0  0  0
  192.6710  176.7650  144.6650 C   0  0  0  0  0  0  0  0  0  0  0  0
  1  9  1  0  0  0  0
  1  8  1  0  0  0  0
  2 16  1  0  0  0  0
  3 20  1  0  0  0  0
  4 13  1  0  0  0  0
  5  7  1  6  0  0  0
  5  8  1  0  0  0  0
  5  3  1  0  0  0  0
  6 20  1  0  0  0  0
  8  6  1  1  0  0  0
  9 19  2  0  0  0  0
 10  2  2  0  0  0  0
 10  9  1  0  0  0  0
 11 17  2  0  0  0  0
 12  4  2  0  0  0  0
 12 11  1  0  0  0  0
 13 18  1  0  0  0  0
 13  7  2  0  0  0  0
 15 10  1  0  0  0  0
 16 21  2  0  0  0  0
 17  7  1  0  0  0  0
 18 15  1  6  0  0  0
 18  1  1  0  0  0  0
 19 21  1  0  0  0  0
 20 29  1  6  0  0  0
 21 14  1  0  0  0  0
 22 12  1  0  0  0  0
 23 26  1  0  0  0  0
 23 25  1  0  0  0  0
 24 28  1  0  0  0  0
 25 27  2  0  0  0  0
 26 24  1  0  0  0  0
 27 22  1  0  0  0  0
 28 22  1  0  0  0  0
 30 29  1  0  0  0  0
 32 33  1  0  0  0  0
 33 31  2  0  0  0  0
 33 30  1  0  0  0  0
M  END
>  <MODEL>
9

>  <REMARK>
 VINA RESULT:      -7.1      2.528      7.657
  Name = 
  4 active torsions:
  status: ('A' for Active; 'I' for Inactive)
    1  A    between atoms: N_6  and  C_18
    2  A    between atoms: C_11  and  C_21
    3  A    between atoms: C_11  and  C_31
    4  A    between atoms: C_21  and  C_25
                            x       y       z     vdW  Elec       q    Type
                         _______ _______ _______ _____ _____    ______ ____

>  <TORSDO>
F 4

$$$$
