=
 OpenBabel11042418283D

 30 31  0  0  1  0  0  0  0  0999 V2000
  188.5720  174.9170  143.0700 C   0  0  0  0  0  2  0  0  0  0  0  0
  191.3180  176.7710  144.0830 C   0  0  0  0  0  0  0  0  0  0  0  0
  190.6100  174.6590  145.2940 C   0  0  0  0  0  0  0  0  0  0  0  0
  189.8690  175.1510  142.9750 C   0  0  0  0  0  2  0  0  0  0  0  0
  190.2330  173.4580  145.2020 O   0  0  0  0  0  0  0  0  0  0  0  0
  188.7260  177.5230  142.1340 C   0  0  0  0  0  0  0  0  0  0  0  0
  187.7830  175.2470  141.8530 C   0  0  0  0  0  2  0  0  0  0  0  0
  187.7450  176.7630  141.6710 C   0  0  0  0  0  0  0  0  0  0  0  0
  190.6250  175.5000  144.1200 N   0  0  0  0  0  0  0  0  0  0  0  0
  190.8920  177.8840  143.4260 C   0  0  0  0  0  3  0  0  0  0  0  0
  189.7060  178.2680  142.5940 C   0  0  0  0  0  3  0  0  0  0  0  0
  184.4310  178.4210  140.5140 C   0  0  0  0  0  1  0  0  0  0  0  0
  185.3990  177.7590  141.4280 C   0  0  0  0  0  0  0  0  0  0  0  0
  186.6930  177.3960  140.9320 N   0  0  0  0  0  2  0  0  0  0  0  0
  185.0660  177.5330  142.6200 O   0  0  0  0  0  0  0  0  0  0  0  0
  192.6470  176.8890  144.7560 C   0  0  0  0  0  2  0  0  0  0  0  0
  193.6450  175.9910  144.1050 C   0  0  0  0  0  0  0  0  0  0  0  0
  194.3100  175.0180  144.7440 N   0  0  0  0  0  0  0  0  0  0  0  0
  194.9370  175.0160  142.6730 C   0  0  0  0  0  3  0  0  0  0  0  0
  194.0060  176.0360  142.7760 C   0  0  0  0  0  3  0  0  0  0  0  0
  195.0720  174.4570  143.8550 O   0  0  0  0  0  0  0  0  0  0  0  0
  190.9510  175.2110  146.6460 C   0  0  0  0  0  2  0  0  0  0  0  0
  190.0690  177.3820  147.3190 N   0  0  0  0  0  1  0  0  0  0  0  0
  189.7800  175.9580  147.2660 C   0  0  1  0  0  3  0  0  0  0  0  0
  188.5380  175.7180  146.4240 C   0  0  0  0  0  2  0  0  0  0  0  0
  187.8840  177.0310  146.0250 C   0  0  0  0  0  2  0  0  0  0  0  0
  186.4400  176.8700  145.9640 N   0  0  0  0  0  2  0  0  0  0  0  0
  184.4420  177.8980  146.4110 C   0  0  0  0  0  1  0  0  0  0  0  0
  186.3450  178.4240  147.6440 C   0  0  0  0  0  1  0  0  0  0  0  0
  185.8760  178.1050  146.3070 N   0  0  0  0  0  0  0  0  0  0  0  0
  2  9  1  0  0  0  0
  2 16  1  0  0  0  0
  3 22  1  0  0  0  0
  4  1  1  0  0  0  0
  4  9  1  0  0  0  0
  5  3  2  0  0  0  0
  6 11  2  0  0  0  0
  7  1  1  0  0  0  0
  8  7  1  0  0  0  0
  8  6  2  0  0  0  0
  9  3  1  0  0  0  0
 10  2  2  0  0  0  0
 11 10  1  0  0  0  0
 12 13  1  0  0  0  0
 13 15  2  0  0  0  0
 14 13  1  0  0  0  0
 14  8  1  0  0  0  0
 17 18  2  0  0  0  0
 17 16  1  0  0  0  0
 19 20  2  0  0  0  0
 19 21  1  0  0  0  0
 20 17  1  0  0  0  0
 21 18  1  0  0  0  0
 22 24  1  0  0  0  0
 24 23  1  6  0  0  0
 25 24  1  0  0  0  0
 26 25  1  0  0  0  0
 27 26  1  0  0  0  0
 27 30  1  0  0  0  0
 30 28  1  0  0  0  0
 30 29  1  0  0  0  0
M  END
>  <MODEL>
1

>  <REMARK>
 VINA RESULT:      -6.3      0.000      0.000
  Name = 
  9 active torsions:
  status: ('A' for Active; 'I' for Inactive)
    1  A    between atoms: C_2  and  C_19
    2  A    between atoms: C_3  and  C_22
    3  A    between atoms: C_5  and  N_11
    4  A    between atoms: C_5  and  C_15
    5  A    between atoms: C_8  and  C_19
    6  A    between atoms: N_11  and  N_26
    7  A    between atoms: N_14  and  C_18
    8  A    between atoms: C_15  and  C_17
    9  A    between atoms: C_17  and  C_22
                            x       y       z     vdW  Elec       q    Type
                         _______ _______ _______ _____ _____    ______ ____

>  <TORSDO>
F 9

$$$$
=
 OpenBabel11042418283D

 30 31  0  0  1  0  0  0  0  0999 V2000
  188.9470  176.1530  143.5580 C   0  0  0  0  0  2  0  0  0  0  0  0
  191.3270  174.9890  145.7900 C   0  0  0  0  0  0  0  0  0  0  0  0
  191.5020  174.5520  143.2990 C   0  0  0  0  0  0  0  0  0  0  0  0
  190.0750  176.3660  144.2140 C   0  0  0  0  0  2  0  0  0  0  0  0
  191.4190  175.0200  142.1300 O   0  0  0  0  0  0  0  0  0  0  0  0
  188.2080  176.0660  146.2300 C   0  0  0  0  0  0  0  0  0  0  0  0
  187.8070  177.0140  143.9750 C   0  0  0  0  0  2  0  0  0  0  0  0
  187.3550  176.6110  145.3760 C   0  0  0  0  0  0  0  0  0  0  0  0
  191.0000  175.3140  144.4170 N   0  0  0  0  0  0  0  0  0  0  0  0
  190.4860  175.1060  146.8510 C   0  0  0  0  0  3  0  0  0  0  0  0
  189.0640  175.5290  147.0700 C   0  0  0  0  0  3  0  0  0  0  0  0
  184.0190  178.2510  146.4940 C   0  0  0  0  0  1  0  0  0  0  0  0
  185.4250  178.1660  146.0190 C   0  0  0  0  0  0  0  0  0  0  0  0
  186.0230  176.8780  145.8330 N   0  0  0  0  0  2  0  0  0  0  0  0
  186.0630  179.2250  145.7850 O   0  0  0  0  0  0  0  0  0  0  0  0
  192.7180  174.5480  146.1150 C   0  0  0  0  0  2  0  0  0  0  0  0
  193.6930  175.6440  145.8420 C   0  0  0  0  0  0  0  0  0  0  0  0
  194.5600  175.6410  144.8180 N   0  0  0  0  0  0  0  0  0  0  0  0
  194.8370  177.4750  145.9330 C   0  0  0  0  0  3  0  0  0  0  0  0
  193.8250  176.7940  146.5890 C   0  0  0  0  0  3  0  0  0  0  0  0
  195.2250  176.7520  144.9060 O   0  0  0  0  0  0  0  0  0  0  0  0
  192.0460  173.1670  143.4870 C   0  0  0  0  0  2  0  0  0  0  0  0
  191.6940  170.7860  143.0940 N   0  0  0  0  0  1  0  0  0  0  0  0
  191.1300  172.1110  142.8880 C   0  0  1  0  0  3  0  0  0  0  0  0
  189.7690  172.1980  143.5580 C   0  0  0  0  0  2  0  0  0  0  0  0
  188.6610  172.3560  142.5310 C   0  0  0  0  0  2  0  0  0  0  0  0
  189.2300  172.4710  141.1970 N   0  0  0  0  0  2  0  0  0  0  0  0
  188.5030  174.4510  140.3030 C   0  0  0  0  0  1  0  0  0  0  0  0
  188.4590  172.4960  139.0410 C   0  0  0  0  0  1  0  0  0  0  0  0
  188.2400  173.0240  140.3760 N   0  0  0  0  0  0  0  0  0  0  0  0
  1  7  1  0  0  0  0
  1  4  1  0  0  0  0
  2 16  1  0  0  0  0
  2 10  2  0  0  0  0
  3 22  1  0  0  0  0
  3  9  1  0  0  0  0
  4  9  1  0  0  0  0
  5  3  2  0  0  0  0
  6 11  2  0  0  0  0
  7  8  1  0  0  0  0
  8 14  1  0  0  0  0
  8  6  2  0  0  0  0
  9  2  1  0  0  0  0
 10 11  1  0  0  0  0
 13 12  1  0  0  0  0
 14 13  1  0  0  0  0
 15 13  2  0  0  0  0
 17 16  1  0  0  0  0
 17 20  1  0  0  0  0
 18 21  1  0  0  0  0
 18 17  2  0  0  0  0
 19 20  2  0  0  0  0
 21 19  1  0  0  0  0
 24 23  1  1  0  0  0
 24 22  1  0  0  0  0
 24 25  1  0  0  0  0
 26 25  1  0  0  0  0
 27 26  1  0  0  0  0
 28 30  1  0  0  0  0
 29 30  1  0  0  0  0
 30 27  1  0  0  0  0
M  END
>  <MODEL>
2

>  <REMARK>
 VINA RESULT:      -6.3      2.503      4.934
  Name = 
  9 active torsions:
  status: ('A' for Active; 'I' for Inactive)
    1  A    between atoms: C_2  and  C_19
    2  A    between atoms: C_3  and  C_22
    3  A    between atoms: C_5  and  N_11
    4  A    between atoms: C_5  and  C_15
    5  A    between atoms: C_8  and  C_19
    6  A    between atoms: N_11  and  N_26
    7  A    between atoms: N_14  and  C_18
    8  A    between atoms: C_15  and  C_17
    9  A    between atoms: C_17  and  C_22
                            x       y       z     vdW  Elec       q    Type
                         _______ _______ _______ _____ _____    ______ ____

>  <TORSDO>
F 9

$$$$
=
 OpenBabel11042418283D

 30 31  0  0  1  0  0  0  0  0999 V2000
  193.0330  175.2830  146.2690 C   0  0  0  0  0  2  0  0  0  0  0  0
  190.7330  176.9800  144.3110 C   0  0  0  0  0  0  0  0  0  0  0  0
  190.1210  176.0470  146.5880 C   0  0  0  0  0  0  0  0  0  0  0  0
  192.4820  176.4330  145.9210 C   0  0  0  0  0  2  0  0  0  0  0  0
  190.4440  175.9080  147.8000 O   0  0  0  0  0  0  0  0  0  0  0  0
  193.6450  175.5410  143.5770 C   0  0  0  0  0  0  0  0  0  0  0  0
  194.4600  175.1280  145.8810 C   0  0  0  0  0  2  0  0  0  0  0  0
  194.5600  174.9960  144.3630 C   0  0  0  0  0  0  0  0  0  0  0  0
  191.0980  176.5120  145.6310 N   0  0  0  0  0  0  0  0  0  0  0  0
  191.4550  176.7820  143.1750 C   0  0  0  0  0  3  0  0  0  0  0  0
  192.7330  176.0900  142.8060 C   0  0  0  0  0  3  0  0  0  0  0  0
  197.9390  174.1370  142.6550 C   0  0  0  0  0  1  0  0  0  0  0  0
  196.8720  174.9750  143.2620 C   0  0  0  0  0  0  0  0  0  0  0  0
  195.6790  174.3470  143.7450 N   0  0  0  0  0  2  0  0  0  0  0  0
  197.0370  176.2200  143.3460 O   0  0  0  0  0  0  0  0  0  0  0  0
  189.5000  177.8090  144.1550 C   0  0  0  0  0  2  0  0  0  0  0  0
  188.7650  177.4270  142.9140 C   0  0  0  0  0  0  0  0  0  0  0  0
  188.5510  178.2550  141.8810 N   0  0  0  0  0  0  0  0  0  0  0  0
  187.6690  176.3380  141.4010 C   0  0  0  0  0  3  0  0  0  0  0  0
  188.2230  176.1850  142.6620 C   0  0  0  0  0  3  0  0  0  0  0  0
  187.8940  177.5690  140.9970 O   0  0  0  0  0  0  0  0  0  0  0  0
  188.7440  175.6410  146.1530 C   0  0  0  0  0  2  0  0  0  0  0  0
  188.0940  177.7460  147.1970 N   0  0  0  0  0  1  0  0  0  0  0  0
  187.6640  176.3840  146.9230 C   0  0  1  0  0  3  0  0  0  0  0  0
  186.3900  176.4070  146.0940 C   0  0  0  0  0  2  0  0  0  0  0  0
  185.8760  177.8260  145.9160 C   0  0  0  0  0  2  0  0  0  0  0  0
  184.8150  177.8490  144.9220 N   0  0  0  0  0  2  0  0  0  0  0  0
  184.3730  178.1090  142.6890 C   0  0  0  0  0  1  0  0  0  0  0  0
  185.6950  179.6550  143.8210 C   0  0  0  0  0  1  0  0  0  0  0  0
  185.3990  178.2380  143.7090 N   0  0  0  0  0  0  0  0  0  0  0  0
  2  9  1  0  0  0  0
  3  5  2  0  0  0  0
  4  1  1  0  0  0  0
  6  8  2  0  0  0  0
  7  1  1  0  0  0  0
  8  7  1  0  0  0  0
  9  4  1  0  0  0  0
  9  3  1  0  0  0  0
 10  2  2  0  0  0  0
 11 10  1  0  0  0  0
 11  6  2  0  0  0  0
 12 13  1  0  0  0  0
 13 15  2  0  0  0  0
 13 14  1  0  0  0  0
 14  8  1  0  0  0  0
 16  2  1  0  0  0  0
 17 16  1  0  0  0  0
 18 17  2  0  0  0  0
 19 20  2  0  0  0  0
 20 17  1  0  0  0  0
 21 19  1  0  0  0  0
 21 18  1  0  0  0  0
 22  3  1  0  0  0  0
 22 24  1  0  0  0  0
 24 23  1  6  0  0  0
 25 24  1  0  0  0  0
 26 25  1  0  0  0  0
 27 26  1  0  0  0  0
 28 30  1  0  0  0  0
 30 29  1  0  0  0  0
 30 27  1  0  0  0  0
M  END
>  <MODEL>
3

>  <REMARK>
 VINA RESULT:      -6.2      1.919      6.160
  Name = 
  9 active torsions:
  status: ('A' for Active; 'I' for Inactive)
    1  A    between atoms: C_2  and  C_19
    2  A    between atoms: C_3  and  C_22
    3  A    between atoms: C_5  and  N_11
    4  A    between atoms: C_5  and  C_15
    5  A    between atoms: C_8  and  C_19
    6  A    between atoms: N_11  and  N_26
    7  A    between atoms: N_14  and  C_18
    8  A    between atoms: C_15  and  C_17
    9  A    between atoms: C_17  and  C_22
                            x       y       z     vdW  Elec       q    Type
                         _______ _______ _______ _____ _____    ______ ____

>  <TORSDO>
F 9

$$$$
=
 OpenBabel11042418283D

 30 31  0  0  1  0  0  0  0  0999 V2000
  187.8210  175.8270  142.3650 C   0  0  0  0  0  2  0  0  0  0  0  0
  191.1510  176.3290  143.1810 C   0  0  0  0  0  0  0  0  0  0  0  0
  190.3720  174.2480  141.9600 C   0  0  0  0  0  0  0  0  0  0  0  0
  189.0010  176.3180  142.0280 C   0  0  0  0  0  2  0  0  0  0  0  0
  189.6650  173.7610  141.0350 O   0  0  0  0  0  0  0  0  0  0  0  0
  188.3500  177.7270  144.3140 C   0  0  0  0  0  0  0  0  0  0  0  0
  186.7680  176.8460  142.6210 C   0  0  0  0  0  2  0  0  0  0  0  0
  187.0960  177.5990  143.9080 C   0  0  0  0  0  0  0  0  0  0  0  0
  190.1920  175.6240  142.3560 N   0  0  0  0  0  0  0  0  0  0  0  0
  190.8470  177.2480  144.1350 C   0  0  0  0  0  3  0  0  0  0  0  0
  189.5980  177.8510  144.7060 C   0  0  0  0  0  3  0  0  0  0  0  0
  184.2230  178.4870  146.3630 C   0  0  0  0  0  1  0  0  0  0  0  0
  185.2320  177.6500  145.6630 C   0  0  0  0  0  0  0  0  0  0  0  0
  186.0710  178.2500  144.6690 N   0  0  0  0  0  2  0  0  0  0  0  0
  185.3360  176.4310  145.9600 O   0  0  0  0  0  0  0  0  0  0  0  0
  192.6090  176.1000  142.9470 C   0  0  0  0  0  2  0  0  0  0  0  0
  193.3400  176.0150  144.2450 C   0  0  0  0  0  0  0  0  0  0  0  0
  193.9350  177.0570  144.8430 N   0  0  0  0  0  0  0  0  0  0  0  0
  194.2250  175.3110  146.0880 C   0  0  0  0  0  3  0  0  0  0  0  0
  193.4930  174.8700  144.9970 C   0  0  0  0  0  3  0  0  0  0  0  0
  194.4520  176.5970  145.9410 O   0  0  0  0  0  0  0  0  0  0  0  0
  191.3280  173.3510  142.6900 C   0  0  0  0  0  2  0  0  0  0  0  0
  191.6450  171.1780  143.7500 N   0  0  0  0  0  1  0  0  0  0  0  0
  190.6600  172.0660  143.1530 C   0  0  1  0  0  3  0  0  0  0  0  0
  189.5890  172.4060  144.1780 C   0  0  0  0  0  2  0  0  0  0  0  0
  190.1780  173.1660  145.3540 C   0  0  0  0  0  2  0  0  0  0  0  0
  189.4000  174.3680  145.6100 N   0  0  0  0  0  2  0  0  0  0  0  0
  190.6480  175.2530  147.3150 C   0  0  0  0  0  1  0  0  0  0  0  0
  188.3350  175.5090  147.2860 C   0  0  0  0  0  1  0  0  0  0  0  0
  189.4050  174.5720  146.9950 N   0  0  0  0  0  0  0  0  0  0  0  0
  1  7  1  0  0  0  0
  2 10  2  0  0  0  0
  3  9  1  0  0  0  0
  3 22  1  0  0  0  0
  4  9  1  0  0  0  0
  4  1  1  0  0  0  0
  5  3  2  0  0  0  0
  6 11  2  0  0  0  0
  7  8  1  0  0  0  0
  8  6  2  0  0  0  0
  8 14  1  0  0  0  0
  9  2  1  0  0  0  0
 10 11  1  0  0  0  0
 13 15  2  0  0  0  0
 13 12  1  0  0  0  0
 14 13  1  0  0  0  0
 16  2  1  0  0  0  0
 16 17  1  0  0  0  0
 17 18  2  0  0  0  0
 17 20  1  0  0  0  0
 18 21  1  0  0  0  0
 20 19  2  0  0  0  0
 21 19  1  0  0  0  0
 22 24  1  0  0  0  0
 24 23  1  1  0  0  0
 24 25  1  0  0  0  0
 25 26  1  0  0  0  0
 26 27  1  0  0  0  0
 27 30  1  0  0  0  0
 30 29  1  0  0  0  0
 30 28  1  0  0  0  0
M  END
>  <MODEL>
4

>  <REMARK>
 VINA RESULT:      -6.2      2.164      3.735
  Name = 
  9 active torsions:
  status: ('A' for Active; 'I' for Inactive)
    1  A    between atoms: C_2  and  C_19
    2  A    between atoms: C_3  and  C_22
    3  A    between atoms: C_5  and  N_11
    4  A    between atoms: C_5  and  C_15
    5  A    between atoms: C_8  and  C_19
    6  A    between atoms: N_11  and  N_26
    7  A    between atoms: N_14  and  C_18
    8  A    between atoms: C_15  and  C_17
    9  A    between atoms: C_17  and  C_22
                            x       y       z     vdW  Elec       q    Type
                         _______ _______ _______ _____ _____    ______ ____

>  <TORSDO>
F 9

$$$$
=
 OpenBabel11042418283D

 30 31  0  0  1  0  0  0  0  0999 V2000
  191.0800  175.0320  142.7530 C   0  0  0  0  0  2  0  0  0  0  0  0
  187.8420  176.2290  143.0410 C   0  0  0  0  0  0  0  0  0  0  0  0
  189.7360  177.1420  144.4580 C   0  0  0  0  0  0  0  0  0  0  0  0
  190.1580  175.8910  142.3540 C   0  0  0  0  0  2  0  0  0  0  0  0
  190.9270  177.5550  144.4990 O   0  0  0  0  0  0  0  0  0  0  0  0
  189.0680  173.4330  141.7130 C   0  0  0  0  0  0  0  0  0  0  0  0
  191.4760  174.0200  141.7380 C   0  0  0  0  0  2  0  0  0  0  0  0
  190.3190  173.0490  141.5150 C   0  0  0  0  0  0  0  0  0  0  0  0
  189.2510  176.4580  143.2820 N   0  0  0  0  0  0  0  0  0  0  0  0
  187.3100  175.1210  142.4600 C   0  0  0  0  0  3  0  0  0  0  0  0
  187.8290  173.8270  141.9090 C   0  0  0  0  0  3  0  0  0  0  0  0
  190.8740  169.9040  139.3060 C   0  0  0  0  0  1  0  0  0  0  0  0
  190.6210  171.3310  139.6400 C   0  0  0  0  0  0  0  0  0  0  0  0
  190.5470  171.7250  141.0150 N   0  0  0  0  0  2  0  0  0  0  0  0
  190.4810  172.1670  138.7100 O   0  0  0  0  0  0  0  0  0  0  0  0
  186.8660  177.3070  143.3870 C   0  0  0  0  0  2  0  0  0  0  0  0
  186.0950  177.7230  142.1790 C   0  0  0  0  0  0  0  0  0  0  0  0
  186.6440  177.9350  140.9730 N   0  0  0  0  0  0  0  0  0  0  0  0
  184.5140  178.2890  140.8180 C   0  0  0  0  0  3  0  0  0  0  0  0
  184.7340  177.9350  142.1390 C   0  0  0  0  0  3  0  0  0  0  0  0
  185.6680  178.2710  140.1870 O   0  0  0  0  0  0  0  0  0  0  0  0
  188.8730  177.2960  145.6750 C   0  0  0  0  0  2  0  0  0  0  0  0
  189.8750  175.7740  147.2950 N   0  0  0  0  0  1  0  0  0  0  0  0
  188.7230  175.9870  146.4340 C   0  0  1  0  0  3  0  0  0  0  0  0
  187.4580  176.0430  147.2750 C   0  0  0  0  0  2  0  0  0  0  0  0
  186.7230  177.3580  147.0730 C   0  0  0  0  0  2  0  0  0  0  0  0
  185.3180  177.1050  146.7990 N   0  0  0  0  0  2  0  0  0  0  0  0
  185.6520  179.3250  147.2590 C   0  0  0  0  0  1  0  0  0  0  0  0
  184.0680  178.6680  145.6840 C   0  0  0  0  0  1  0  0  0  0  0  0
  184.6420  178.3200  146.9710 N   0  0  0  0  0  0  0  0  0  0  0  0
  2  9  1  0  0  0  0
  2 16  1  0  0  0  0
  3  5  2  0  0  0  0
  3 22  1  0  0  0  0
  4  1  1  0  0  0  0
  4  9  1  0  0  0  0
  6 11  2  0  0  0  0
  7  1  1  0  0  0  0
  8  6  2  0  0  0  0
  8  7  1  0  0  0  0
  9  3  1  0  0  0  0
 10  2  2  0  0  0  0
 11 10  1  0  0  0  0
 12 13  1  0  0  0  0
 13 14  1  0  0  0  0
 14  8  1  0  0  0  0
 15 13  2  0  0  0  0
 17 16  1  0  0  0  0
 18 17  2  0  0  0  0
 19 20  2  0  0  0  0
 20 17  1  0  0  0  0
 21 19  1  0  0  0  0
 21 18  1  0  0  0  0
 22 24  1  0  0  0  0
 24 25  1  0  0  0  0
 24 23  1  1  0  0  0
 26 25  1  0  0  0  0
 27 30  1  0  0  0  0
 27 26  1  0  0  0  0
 29 30  1  0  0  0  0
 30 28  1  0  0  0  0
M  END
>  <MODEL>
5

>  <REMARK>
 VINA RESULT:      -6.1      2.652      5.777
  Name = 
  9 active torsions:
  status: ('A' for Active; 'I' for Inactive)
    1  A    between atoms: C_2  and  C_19
    2  A    between atoms: C_3  and  C_22
    3  A    between atoms: C_5  and  N_11
    4  A    between atoms: C_5  and  C_15
    5  A    between atoms: C_8  and  C_19
    6  A    between atoms: N_11  and  N_26
    7  A    between atoms: N_14  and  C_18
    8  A    between atoms: C_15  and  C_17
    9  A    between atoms: C_17  and  C_22
                            x       y       z     vdW  Elec       q    Type
                         _______ _______ _______ _____ _____    ______ ____

>  <TORSDO>
F 9

$$$$
=
 OpenBabel11042418283D

 30 31  0  0  1  0  0  0  0  0999 V2000
  192.1340  176.8250  143.6370 C   0  0  0  0  0  2  0  0  0  0  0  0
  189.4770  174.6610  143.1280 C   0  0  0  0  0  0  0  0  0  0  0  0
  189.2240  177.1710  142.8750 C   0  0  0  0  0  0  0  0  0  0  0  0
  191.4460  176.0630  142.8040 C   0  0  0  0  0  2  0  0  0  0  0  0
  189.7000  178.2450  142.4130 O   0  0  0  0  0  0  0  0  0  0  0  0
  192.3960  174.2690  144.6800 C   0  0  0  0  0  0  0  0  0  0  0  0
  193.5130  176.3510  143.9280 C   0  0  0  0  0  2  0  0  0  0  0  0
  193.4420  175.0760  144.7650 C   0  0  0  0  0  0  0  0  0  0  0  0
  190.0360  175.9770  142.9020 N   0  0  0  0  0  0  0  0  0  0  0  0
  190.0730  173.6590  143.8280 C   0  0  0  0  0  3  0  0  0  0  0  0
  191.3540  173.4740  144.5850 C   0  0  0  0  0  3  0  0  0  0  0  0
  196.7690  173.6880  146.2090 C   0  0  0  0  0  1  0  0  0  0  0  0
  195.7350  174.0180  145.1930 C   0  0  0  0  0  0  0  0  0  0  0  0
  194.5330  174.6780  145.6060 N   0  0  0  0  0  2  0  0  0  0  0  0
  195.9360  173.7160  143.9870 O   0  0  0  0  0  0  0  0  0  0  0  0
  188.1650  174.3170  142.5000 C   0  0  0  0  0  2  0  0  0  0  0  0
  188.3560  173.9150  141.0750 C   0  0  0  0  0  0  0  0  0  0  0  0
  188.6880  172.6770  140.6810 N   0  0  0  0  0  0  0  0  0  0  0  0
  188.4820  173.9140  138.9180 C   0  0  0  0  0  3  0  0  0  0  0  0
  188.2110  174.7500  139.9880 C   0  0  0  0  0  3  0  0  0  0  0  0
  188.7530  172.7150  139.3860 O   0  0  0  0  0  0  0  0  0  0  0  0
  187.8470  177.1850  143.4690 C   0  0  0  0  0  2  0  0  0  0  0  0
  185.9560  177.1070  141.9310 N   0  0  0  0  0  1  0  0  0  0  0  0
  186.8740  177.9950  142.6260 C   0  0  1  0  0  3  0  0  0  0  0  0
  186.0930  178.9320  143.5340 C   0  0  0  0  0  2  0  0  0  0  0  0
  184.7180  178.3680  143.8500 C   0  0  0  0  0  2  0  0  0  0  0  0
  184.3830  178.6240  145.2420 N   0  0  0  0  0  2  0  0  0  0  0  0
  185.4850  178.9910  147.2170 C   0  0  0  0  0  1  0  0  0  0  0  0
  185.1570  176.8250  146.4300 C   0  0  0  0  0  1  0  0  0  0  0  0
  185.4660  178.1800  146.0110 N   0  0  0  0  0  0  0  0  0  0  0  0
  1  7  1  0  0  0  0
  2 10  2  0  0  0  0
  3  9  1  0  0  0  0
  3 22  1  0  0  0  0
  4  9  1  0  0  0  0
  4  1  1  0  0  0  0
  5  3  2  0  0  0  0
  6  8  2  0  0  0  0
  7  8  1  0  0  0  0
  8 14  1  0  0  0  0
  9  2  1  0  0  0  0
 10 11  1  0  0  0  0
 11  6  2  0  0  0  0
 13 14  1  0  0  0  0
 13 12  1  0  0  0  0
 15 13  2  0  0  0  0
 16  2  1  0  0  0  0
 17 16  1  0  0  0  0
 18 17  2  0  0  0  0
 19 21  1  0  0  0  0
 19 20  2  0  0  0  0
 20 17  1  0  0  0  0
 21 18  1  0  0  0  0
 24 23  1  1  0  0  0
 24 22  1  0  0  0  0
 24 25  1  0  0  0  0
 25 26  1  0  0  0  0
 26 27  1  0  0  0  0
 27 30  1  0  0  0  0
 30 29  1  0  0  0  0
 30 28  1  0  0  0  0
M  END
>  <MODEL>
6

>  <REMARK>
 VINA RESULT:      -6.0      2.399      6.472
  Name = 
  9 active torsions:
  status: ('A' for Active; 'I' for Inactive)
    1  A    between atoms: C_2  and  C_19
    2  A    between atoms: C_3  and  C_22
    3  A    between atoms: C_5  and  N_11
    4  A    between atoms: C_5  and  C_15
    5  A    between atoms: C_8  and  C_19
    6  A    between atoms: N_11  and  N_26
    7  A    between atoms: N_14  and  C_18
    8  A    between atoms: C_15  and  C_17
    9  A    between atoms: C_17  and  C_22
                            x       y       z     vdW  Elec       q    Type
                         _______ _______ _______ _____ _____    ______ ____

>  <TORSDO>
F 9

$$$$
=
 OpenBabel11042418283D

 30 31  0  0  1  0  0  0  0  0999 V2000
  192.0500  175.7370  146.6800 C   0  0  0  0  0  2  0  0  0  0  0  0
  192.5720  173.0470  144.5610 C   0  0  0  0  0  0  0  0  0  0  0  0
  194.2730  174.9110  144.7980 C   0  0  0  0  0  0  0  0  0  0  0  0
  192.5180  174.5130  146.5090 C   0  0  0  0  0  2  0  0  0  0  0  0
  194.9160  175.6700  145.5750 O   0  0  0  0  0  0  0  0  0  0  0  0
  189.8160  174.2460  145.9920 C   0  0  0  0  0  0  0  0  0  0  0  0
  190.8670  175.8380  147.5750 C   0  0  0  0  0  2  0  0  0  0  0  0
  189.6580  175.2080  146.8880 C   0  0  0  0  0  0  0  0  0  0  0  0
  193.1560  174.1460  145.2990 N   0  0  0  0  0  0  0  0  0  0  0  0
  191.2490  172.7340  144.5250 C   0  0  0  0  0  3  0  0  0  0  0  0
  189.9840  173.2880  145.1080 C   0  0  0  0  0  3  0  0  0  0  0  0
  186.1910  176.9280  147.2050 C   0  0  0  0  0  1  0  0  0  0  0  0
  187.5790  176.6940  146.7240 C   0  0  0  0  0  0  0  0  0  0  0  0
  188.3210  175.5850  147.2440 N   0  0  0  0  0  2  0  0  0  0  0  0
  188.0730  177.4700  145.8660 O   0  0  0  0  0  0  0  0  0  0  0  0
  193.4750  172.1160  143.8160 C   0  0  0  0  0  2  0  0  0  0  0  0
  193.8820  170.9740  144.6850 C   0  0  0  0  0  0  0  0  0  0  0  0
  194.6850  171.0910  145.7530 N   0  0  0  0  0  0  0  0  0  0  0  0
  194.1150  169.0120  145.5620 C   0  0  0  0  0  3  0  0  0  0  0  0
  193.4860  169.6650  144.5150 C   0  0  0  0  0  3  0  0  0  0  0  0
  194.8000  169.8980  146.2510 O   0  0  0  0  0  0  0  0  0  0  0  0
  194.6340  174.8910  143.3420 C   0  0  0  0  0  2  0  0  0  0  0  0
  194.7410  176.4100  141.4380 N   0  0  0  0  0  1  0  0  0  0  0  0
  193.9250  175.9900  142.5660 C   0  0  1  0  0  3  0  0  0  0  0  0
  192.5920  175.4610  142.0640 C   0  0  0  0  0  2  0  0  0  0  0  0
  191.4320  176.1000  142.8090 C   0  0  0  0  0  2  0  0  0  0  0  0
  190.1710  175.6900  142.2130 N   0  0  0  0  0  2  0  0  0  0  0  0
  188.8940  177.5920  142.2730 C   0  0  0  0  0  1  0  0  0  0  0  0
  187.9540  175.5200  142.7670 C   0  0  0  0  0  1  0  0  0  0  0  0
  189.1520  176.3250  142.9350 N   0  0  0  0  0  0  0  0  0  0  0  0
  1  7  1  0  0  0  0
  2  9  1  0  0  0  0
  3  9  1  0  0  0  0
  3  5  2  0  0  0  0
  4  1  1  0  0  0  0
  6  8  2  0  0  0  0
  8 14  1  0  0  0  0
  8  7  1  0  0  0  0
  9  4  1  0  0  0  0
 10  2  2  0  0  0  0
 10 11  1  0  0  0  0
 11  6  2  0  0  0  0
 13 12  1  0  0  0  0
 13 14  1  0  0  0  0
 15 13  2  0  0  0  0
 16  2  1  0  0  0  0
 16 17  1  0  0  0  0
 17 18  2  0  0  0  0
 18 21  1  0  0  0  0
 19 21  1  0  0  0  0
 20 17  1  0  0  0  0
 20 19  2  0  0  0  0
 22  3  1  0  0  0  0
 24 23  1  6  0  0  0
 24 22  1  0  0  0  0
 25 24  1  0  0  0  0
 25 26  1  0  0  0  0
 27 26  1  0  0  0  0
 27 30  1  0  0  0  0
 28 30  1  0  0  0  0
 29 30  1  0  0  0  0
M  END
>  <MODEL>
7

>  <REMARK>
 VINA RESULT:      -6.0      2.839      5.513
  Name = 
  9 active torsions:
  status: ('A' for Active; 'I' for Inactive)
    1  A    between atoms: C_2  and  C_19
    2  A    between atoms: C_3  and  C_22
    3  A    between atoms: C_5  and  N_11
    4  A    between atoms: C_5  and  C_15
    5  A    between atoms: C_8  and  C_19
    6  A    between atoms: N_11  and  N_26
    7  A    between atoms: N_14  and  C_18
    8  A    between atoms: C_15  and  C_17
    9  A    between atoms: C_17  and  C_22
                            x       y       z     vdW  Elec       q    Type
                         _______ _______ _______ _____ _____    ______ ____

>  <TORSDO>
F 9

$$$$
=
 OpenBabel11042418283D

 30 31  0  0  1  0  0  0  0  0999 V2000
  189.9760  174.5970  143.2900 C   0  0  0  0  0  2  0  0  0  0  0  0
  188.0210  177.3630  144.0180 C   0  0  0  0  0  0  0  0  0  0  0  0
  187.7830  176.0940  141.8360 C   0  0  0  0  0  0  0  0  0  0  0  0
  188.8710  175.0840  143.8280 C   0  0  0  0  0  2  0  0  0  0  0  0
  187.6980  174.9720  141.2640 O   0  0  0  0  0  0  0  0  0  0  0  0
  190.8810  176.2600  145.3160 C   0  0  0  0  0  0  0  0  0  0  0  0
  190.9420  174.0170  144.2610 C   0  0  0  0  0  2  0  0  0  0  0  0
  191.5520  175.1400  145.0970 C   0  0  0  0  0  0  0  0  0  0  0  0
  188.1900  176.1670  143.2200 N   0  0  0  0  0  0  0  0  0  0  0  0
  188.8860  177.8070  144.9680 C   0  0  0  0  0  3  0  0  0  0  0  0
  190.2050  177.3670  145.5290 C   0  0  0  0  0  3  0  0  0  0  0  0
  195.3280  175.1420  146.0020 C   0  0  0  0  0  1  0  0  0  0  0  0
  194.1010  175.3730  145.1950 C   0  0  0  0  0  0  0  0  0  0  0  0
  192.8300  174.9850  145.7300 N   0  0  0  0  0  2  0  0  0  0  0  0
  194.1990  175.9080  144.0610 O   0  0  0  0  0  0  0  0  0  0  0  0
  186.7700  178.1660  143.8580 C   0  0  0  0  0  2  0  0  0  0  0  0
  185.8780  177.9860  145.0400 C   0  0  0  0  0  0  0  0  0  0  0  0
  185.5650  176.7950  145.5720 N   0  0  0  0  0  0  0  0  0  0  0  0
  184.5720  178.3310  146.7280 C   0  0  0  0  0  3  0  0  0  0  0  0
  185.2700  179.0060  145.7400 C   0  0  0  0  0  3  0  0  0  0  0  0
  184.7840  177.0420  146.5780 O   0  0  0  0  0  0  0  0  0  0  0  0
  187.5410  177.3370  141.0330 C   0  0  0  0  0  2  0  0  0  0  0  0
  185.3620  178.2890  140.4940 N   0  0  0  0  0  1  0  0  0  0  0  0
  186.2950  177.2210  140.1700 C   0  0  1  0  0  3  0  0  0  0  0  0
  186.6940  177.3180  138.7060 C   0  0  0  0  0  2  0  0  0  0  0  0
  186.3210  176.0530  137.9510 C   0  0  0  0  0  2  0  0  0  0  0  0
  187.2660  175.8210  136.8700 N   0  0  0  0  0  2  0  0  0  0  0  0
  188.2040  176.8270  135.0370 C   0  0  0  0  0  1  0  0  0  0  0  0
  185.9200  176.3820  135.1040 C   0  0  0  0  0  1  0  0  0  0  0  0
  187.0440  176.8190  135.9120 N   0  0  0  0  0  0  0  0  0  0  0  0
  1  4  1  0  0  0  0
  1  7  1  0  0  0  0
  2 10  2  0  0  0  0
  3  9  1  0  0  0  0
  5  3  2  0  0  0  0
  6 11  2  0  0  0  0
  7  8  1  0  0  0  0
  8  6  2  0  0  0  0
  8 14  1  0  0  0  0
  9  4  1  0  0  0  0
  9  2  1  0  0  0  0
 10 11  1  0  0  0  0
 13 14  1  0  0  0  0
 13 12  1  0  0  0  0
 15 13  2  0  0  0  0
 16  2  1  0  0  0  0
 16 17  1  0  0  0  0
 17 18  2  0  0  0  0
 17 20  1  0  0  0  0
 18 21  1  0  0  0  0
 20 19  2  0  0  0  0
 21 19  1  0  0  0  0
 22  3  1  0  0  0  0
 24 23  1  1  0  0  0
 24 22  1  0  0  0  0
 25 24  1  0  0  0  0
 26 25  1  0  0  0  0
 27 26  1  0  0  0  0
 28 30  1  0  0  0  0
 29 30  1  0  0  0  0
 30 27  1  0  0  0  0
M  END
>  <MODEL>
8

>  <REMARK>
 VINA RESULT:      -5.9      2.835      7.970
  Name = 
  9 active torsions:
  status: ('A' for Active; 'I' for Inactive)
    1  A    between atoms: C_2  and  C_19
    2  A    between atoms: C_3  and  C_22
    3  A    between atoms: C_5  and  N_11
    4  A    between atoms: C_5  and  C_15
    5  A    between atoms: C_8  and  C_19
    6  A    between atoms: N_11  and  N_26
    7  A    between atoms: N_14  and  C_18
    8  A    between atoms: C_15  and  C_17
    9  A    between atoms: C_17  and  C_22
                            x       y       z     vdW  Elec       q    Type
                         _______ _______ _______ _____ _____    ______ ____

>  <TORSDO>
F 9

$$$$
=
 OpenBabel11042418283D

 30 31  0  0  1  0  0  0  0  0999 V2000
  192.0290  176.7200  143.5410 C   0  0  0  0  0  2  0  0  0  0  0  0
  189.4810  174.4580  142.9150 C   0  0  0  0  0  0  0  0  0  0  0  0
  189.1270  176.9610  142.7160 C   0  0  0  0  0  0  0  0  0  0  0  0
  191.3950  175.9510  142.6740 C   0  0  0  0  0  2  0  0  0  0  0  0
  189.5660  178.0650  142.2920 O   0  0  0  0  0  0  0  0  0  0  0  0
  192.3760  174.1520  144.5290 C   0  0  0  0  0  0  0  0  0  0  0  0
  193.4200  176.2970  143.8550 C   0  0  0  0  0  2  0  0  0  0  0  0
  193.3850  175.0000  144.6600 C   0  0  0  0  0  0  0  0  0  0  0  0
  189.9880  175.8020  142.7340 N   0  0  0  0  0  0  0  0  0  0  0  0
  190.1020  173.4660  143.6060 C   0  0  0  0  0  3  0  0  0  0  0  0
  191.3720  173.3160  144.3890 C   0  0  0  0  0  3  0  0  0  0  0  0
  196.7310  173.7160  146.1530 C   0  0  0  0  0  1  0  0  0  0  0  0
  195.7080  174.0270  145.1190 C   0  0  0  0  0  0  0  0  0  0  0  0
  194.4710  174.6280  145.5180 N   0  0  0  0  0  2  0  0  0  0  0  0
  195.9490  173.7610  143.9130 O   0  0  0  0  0  0  0  0  0  0  0  0
  188.2000  174.0740  142.2460 C   0  0  0  0  0  2  0  0  0  0  0  0
  188.4150  173.8630  140.7850 C   0  0  0  0  0  0  0  0  0  0  0  0
  188.2050  174.8020  139.8510 N   0  0  0  0  0  0  0  0  0  0  0  0
  188.9000  173.0070  138.8600 C   0  0  0  0  0  3  0  0  0  0  0  0
  188.8610  172.6930  140.2090 C   0  0  0  0  0  3  0  0  0  0  0  0
  188.5060  174.2530  138.7140 O   0  0  0  0  0  0  0  0  0  0  0  0
  187.7360  176.9010  143.2750 C   0  0  0  0  0  2  0  0  0  0  0  0
  186.3540  178.6930  144.1840 N   0  0  0  0  0  1  0  0  0  0  0  0
  187.5410  177.8860  144.4170 C   0  0  1  0  0  3  0  0  0  0  0  0
  187.3880  177.1140  145.7170 C   0  0  0  0  0  2  0  0  0  0  0  0
  188.5390  177.4020  146.6660 C   0  0  0  0  0  2  0  0  0  0  0  0
  189.6510  176.5080  146.3850 N   0  0  0  0  0  2  0  0  0  0  0  0
  189.2590  174.3930  147.1730 C   0  0  0  0  0  1  0  0  0  0  0  0
  191.2430  175.4970  147.6850 C   0  0  0  0  0  1  0  0  0  0  0  0
  189.8150  175.6920  147.5110 N   0  0  0  0  0  0  0  0  0  0  0  0
  1  7  1  0  0  0  0
  2 10  2  0  0  0  0
  3  9  1  0  0  0  0
  3 22  1  0  0  0  0
  4  9  1  0  0  0  0
  4  1  1  0  0  0  0
  5  3  2  0  0  0  0
  6  8  2  0  0  0  0
  7  8  1  0  0  0  0
  8 14  1  0  0  0  0
  9  2  1  0  0  0  0
 10 11  1  0  0  0  0
 11  6  2  0  0  0  0
 13 14  1  0  0  0  0
 13 12  1  0  0  0  0
 15 13  2  0  0  0  0
 16  2  1  0  0  0  0
 17 16  1  0  0  0  0
 18 17  2  0  0  0  0
 19 20  2  0  0  0  0
 20 17  1  0  0  0  0
 21 19  1  0  0  0  0
 21 18  1  0  0  0  0
 22 24  1  0  0  0  0
 24 23  1  6  0  0  0
 24 25  1  0  0  0  0
 25 26  1  0  0  0  0
 27 26  1  0  0  0  0
 27 30  1  0  0  0  0
 28 30  1  0  0  0  0
 30 29  1  0  0  0  0
M  END
>  <MODEL>
9

>  <REMARK>
 VINA RESULT:      -5.9      2.355      6.533
  Name = 
  9 active torsions:
  status: ('A' for Active; 'I' for Inactive)
    1  A    between atoms: C_2  and  C_19
    2  A    between atoms: C_3  and  C_22
    3  A    between atoms: C_5  and  N_11
    4  A    between atoms: C_5  and  C_15
    5  A    between atoms: C_8  and  C_19
    6  A    between atoms: N_11  and  N_26
    7  A    between atoms: N_14  and  C_18
    8  A    between atoms: C_15  and  C_17
    9  A    between atoms: C_17  and  C_22
                            x       y       z     vdW  Elec       q    Type
                         _______ _______ _______ _____ _____    ______ ____

>  <TORSDO>
F 9

$$$$
