=
 OpenBabel11042413533D

 51 56  0  0  1  0  0  0  0  0999 V2000
  193.5810  176.2050  145.4790 C   0  0  0  0  0  3  0  0  0  0  0  0
  193.4140  173.7870  144.8460 C   0  0  0  0  0  0  0  0  0  0  0  0
  194.0810  172.5090  144.4370 C   0  0  0  0  0  1  0  0  0  0  0  0
  194.1500  174.9220  144.9960 C   0  0  0  0  0  0  0  0  0  0  0  0
  191.9020  175.1630  146.9490 C   0  0  0  0  0  2  0  0  0  0  0  0
  191.2120  172.8590  144.0940 N   0  0  0  0  0  2  0  0  0  0  0  0
  192.5680  176.3390  146.3300 C   0  0  0  0  0  3  0  0  0  0  0  0
  191.2830  174.3480  145.9180 N   0  0  0  0  0  0  0  0  0  0  0  0
  191.9320  173.7240  144.9790 C   0  0  0  0  0  0  0  0  0  0  0  0
  196.1550  175.4980  143.4590 C   0  0  2  0  0  0  0  0  0  0  0  0
  195.6520  174.9020  144.7780 C   0  0  2  0  0  3  0  0  0  0  0  0
  196.0340  174.0010  143.5990 C   0  0  0  0  0  2  0  0  0  0  0  0
  197.4800  175.9570  143.5070 O   0  0  0  0  0  0  0  0  0  0  0  0
  197.4380  177.2350  143.1810 O   0  0  0  0  0  1  0  0  0  0  0  0
  195.2190  176.0940  142.4070 C   0  0  0  0  0  2  0  0  0  0  0  0
  195.5100  175.4850  141.0450 C   0  0  0  0  0  2  0  0  0  0  0  0
  192.0730  173.3970  139.5530 C   0  0  0  0  0  0  0  0  0  0  0  0
  194.3170  174.7560  140.5360 C   0  0  0  0  0  0  0  0  0  0  0  0
  194.3590  174.1460  139.2770 C   0  0  0  0  0  3  0  0  0  0  0  0
  192.0340  174.0010  140.8210 C   0  0  0  0  0  3  0  0  0  0  0  0
  193.2400  173.4700  138.7870 C   0  0  0  0  0  3  0  0  0  0  0  0
  193.1550  174.6780  141.3110 C   0  0  0  0  0  3  0  0  0  0  0  0
  190.8740  172.6850  138.9880 C   0  0  2  0  0  3  0  0  0  0  0  0
  190.2470  171.0190  137.2290 C   0  0  0  0  0  2  0  0  0  0  0  0
  189.4360  170.0030  137.7530 O   0  0  0  0  0  0  0  0  0  0  0  0
  191.1510  170.2120  139.2130 C   0  0  0  0  0  2  0  0  0  0  0  0
  191.2640  171.3810  138.2800 C   0  0  2  0  0  3  0  0  0  0  0  0
  190.2450  169.2760  138.5710 N   0  0  0  0  0  2  0  0  0  0  0  0
  190.0940  173.6020  138.0460 C   0  0  0  0  0  2  0  0  0  0  0  0
  188.2020  172.9190  139.3280 O   0  0  0  0  0  0  0  0  0  0  0  0
  188.6650  173.7070  138.4630 C   0  0  0  0  0  0  0  0  0  0  0  0
  187.8290  174.7060  137.8930 N   0  0  0  0  0  1  0  0  0  0  0  0
  189.7620  172.7340  144.1260 C   0  0  0  0  0  2  0  0  0  0  0  0
  189.2050  172.8330  142.7170 C   0  0  0  0  0  2  0  0  0  0  0  0
  188.3290  174.0710  142.6020 C   0  0  0  0  0  2  0  0  0  0  0  0
  189.1280  175.2570  142.0740 C   0  0  0  0  0  2  0  0  0  0  0  0
  189.3990  176.3580  143.1040 C   0  0  0  0  0  0  0  0  0  0  0  0
  189.7180  177.7820  142.6790 C   0  0  0  0  0  2  0  0  0  0  0  0
  190.8390  176.8240  143.0550 C   0  0  0  0  0  2  0  0  0  0  0  0
  188.9560  176.1270  144.5390 C   0  0  0  0  0  2  0  0  0  0  0  0
  188.5160  177.4300  145.1830 C   0  0  2  0  0  3  0  0  0  0  0  0
  189.2550  177.6450  146.3420 O   0  0  0  0  0  1  0  0  0  0  0  0
  187.0380  177.3640  145.5340 C   0  0  0  0  0  2  0  0  0  0  0  0
  185.5210  178.1770  143.9320 C   0  0  2  0  0  3  0  0  0  0  0  0
  184.1460  178.7670  144.1400 C   0  0  0  0  0  2  0  0  0  0  0  0
  185.4660  179.0110  146.1220 C   0  0  0  0  0  2  0  0  0  0  0  0
  186.3640  178.5660  145.0600 N   0  0  0  0  0  0  0  0  0  0  0  0
  184.0350  178.8930  145.6340 C   0  0  0  0  0  2  0  0  0  0  0  0
  186.1340  178.6170  142.6030 C   0  0  0  0  0  2  0  0  0  0  0  0
  186.7880  177.6040  140.4420 C   0  0  0  0  0  1  0  0  0  0  0  0
  185.6600  177.7620  141.4410 C   0  0  0  0  0  2  0  0  0  0  0  0
  1  7  2  0  0  0  0
  2  9  1  0  0  0  0
  2  4  2  0  0  0  0
  3  2  1  0  0  0  0
  4  1  1  0  0  0  0
  6 33  1  0  0  0  0
  6  9  1  0  0  0  0
  7  5  1  0  0  0  0
  8  5  1  0  0  0  0
  9  8  2  0  0  0  0
 10 15  1  6  0  0  0
 10 13  1  0  0  0  0
 10 12  1  0  0  0  0
 10 11  1  0  0  0  0
 11  4  1  6  0  0  0
 12 11  1  0  0  0  0
 14 13  1  0  0  0  0
 16 15  1  0  0  0  0
 17 20  1  0  0  0  0
 18 16  1  0  0  0  0
 18 22  1  0  0  0  0
 19 18  2  0  0  0  0
 20 22  2  0  0  0  0
 21 19  1  0  0  0  0
 21 17  2  0  0  0  0
 23 29  1  6  0  0  0
 23 17  1  0  0  0  0
 24 25  1  0  0  0  0
 24 27  1  0  0  0  0
 25 28  1  0  0  0  0
 27 23  1  1  0  0  0
 27 26  1  0  0  0  0
 28 26  1  0  0  0  0
 29 31  1  0  0  0  0
 31 30  2  0  0  0  0
 32 31  1  0  0  0  0
 34 33  1  0  0  0  0
 35 34  1  0  0  0  0
 36 35  1  0  0  0  0
 36 37  1  0  0  0  0
 37 40  1  0  0  0  0
 38 39  1  0  0  0  0
 38 37  1  0  0  0  0
 39 37  1  0  0  0  0
 40 41  1  0  0  0  0
 41 43  1  0  0  0  0
 41 42  1  1  0  0  0
 44 49  1  6  0  0  0
 44 45  1  0  0  0  0
 44 47  1  0  0  0  0
 45 48  1  0  0  0  0
 47 43  1  0  0  0  0
 47 46  1  0  0  0  0
 48 46  1  0  0  0  0
 50 51  1  0  0  0  0
 51 49  1  0  0  0  0
M  END
>  <MODEL>
1

>  <REMARK>
 VINA RESULT:      -6.5      0.000      0.000
  Name = 
  20 active torsions:
  status: ('A' for Active; 'I' for Inactive)
    1  A    between atoms: C_1  and  C_14
    2  A    between atoms: C_1  and  C_34
    3  A    between atoms: C_2  and  C_14
    4  A    between atoms: C_3  and  C_9
    5  A    between atoms: C_3  and  C_37
    6  A    between atoms: C_5  and  C_16
    7  A    between atoms: C_6  and  C_13
    8  A    between atoms: C_6  and  C_43
    9  A    between atoms: C_7  and  C_37
   10  A    between atoms: C_7  and  C_49
   11  A    between atoms: C_9  and  C_17
   12  A    between atoms: C_12  and  C_17
   13  A    between atoms: C_12  and  N_42
   14  A    between atoms: C_14  and  C_45
   15  A    between atoms: C_16  and  C_39
   16  A    between atoms: C_20  and  O_33
   17  A    between atoms: C_20  and  C_43
   18  A    between atoms: C_21  and  C_28
   19  A    between atoms: N_30  and  C_35
   20  A    between atoms: C_35  and  C_49
                            x       y       z     vdW  Elec       q    Type
                         _______ _______ _______ _____ _____    ______ ____

>  <TORSDO>
F 20

$$$$
=
 OpenBabel11042413533D

 51 56  0  0  1  0  0  0  0  0999 V2000
  195.8140  172.2980  145.8650 C   0  0  0  0  0  3  0  0  0  0  0  0
  196.5120  172.9150  143.5390 C   0  0  0  0  0  0  0  0  0  0  0  0
  196.9000  173.9640  142.5410 C   0  0  0  0  0  1  0  0  0  0  0  0
  196.1310  173.2770  144.7940 C   0  0  0  0  0  0  0  0  0  0  0  0
  197.4190  170.5980  145.0910 C   0  0  0  0  0  2  0  0  0  0  0  0
  196.1160  171.3000  141.6650 N   0  0  0  0  0  2  0  0  0  0  0  0
  196.3570  171.0930  146.0050 C   0  0  0  0  0  3  0  0  0  0  0  0
  196.9000  170.5030  143.7380 N   0  0  0  0  0  0  0  0  0  0  0  0
  196.4970  171.5160  143.0280 C   0  0  0  0  0  0  0  0  0  0  0  0
  194.7410  175.3680  145.4340 C   0  0  2  0  0  0  0  0  0  0  0  0
  196.1190  174.7380  145.2050 C   0  0  2  0  0  3  0  0  0  0  0  0
  195.4650  175.6150  144.1340 C   0  0  0  0  0  2  0  0  0  0  0  0
  194.7540  176.4740  146.2970 O   0  0  0  0  0  0  0  0  0  0  0  0
  194.3780  177.5110  145.5720 O   0  0  0  0  0  1  0  0  0  0  0  0
  193.4350  174.5910  145.2720 C   0  0  0  0  0  2  0  0  0  0  0  0
  192.6230  174.6620  146.5550 C   0  0  0  0  0  2  0  0  0  0  0  0
  188.8570  176.5900  145.8470 C   0  0  0  0  0  0  0  0  0  0  0  0
  191.3130  175.3230  146.3050 C   0  0  0  0  0  0  0  0  0  0  0  0
  191.2770  176.6080  145.7530 C   0  0  0  0  0  3  0  0  0  0  0  0
  188.8940  175.2960  146.3920 C   0  0  0  0  0  3  0  0  0  0  0  0
  190.0520  177.2400  145.5260 C   0  0  0  0  0  3  0  0  0  0  0  0
  190.1200  174.6630  146.6200 C   0  0  0  0  0  3  0  0  0  0  0  0
  187.5540  177.3060  145.6170 C   0  0  2  0  0  3  0  0  0  0  0  0
  185.2140  176.7120  146.2780 C   0  0  0  0  0  2  0  0  0  0  0  0
  184.3940  177.8490  146.3310 O   0  0  0  0  0  0  0  0  0  0  0  0
  186.2750  178.4140  147.4550 C   0  0  0  0  0  2  0  0  0  0  0  0
  186.5780  177.1070  146.7830 C   0  0  2  0  0  3  0  0  0  0  0  0
  184.8320  178.5630  147.4050 N   0  0  0  0  0  2  0  0  0  0  0  0
  186.9200  176.8640  144.2980 C   0  0  0  0  0  2  0  0  0  0  0  0
  188.1200  178.1590  142.6920 O   0  0  0  0  0  0  0  0  0  0  0  0
  187.0220  177.9410  143.2680 C   0  0  0  0  0  0  0  0  0  0  0  0
  185.8770  178.7100  142.9270 N   0  0  0  0  0  1  0  0  0  0  0  0
  196.0500  169.9750  141.0680 C   0  0  0  0  0  2  0  0  0  0  0  0
  194.6650  169.7350  140.4950 C   0  0  0  0  0  2  0  0  0  0  0  0
  193.6930  169.4270  141.6230 C   0  0  0  0  0  2  0  0  0  0  0  0
  192.5320  170.4160  141.6280 C   0  0  0  0  0  2  0  0  0  0  0  0
  192.6830  171.5790  142.6140 C   0  0  0  0  0  0  0  0  0  0  0  0
  193.0340  171.3420  144.0730 C   0  0  0  0  0  2  0  0  0  0  0  0
  191.5870  171.5670  143.6590 C   0  0  0  0  0  2  0  0  0  0  0  0
  192.8780  172.9780  142.0540 C   0  0  0  0  0  2  0  0  0  0  0  0
  192.9680  172.9430  140.5380 C   0  0  2  0  0  3  0  0  0  0  0  0
  194.1790  173.4960  140.1350 O   0  0  0  0  0  1  0  0  0  0  0  0
  191.8230  173.7400  139.9310 C   0  0  0  0  0  2  0  0  0  0  0  0
  189.5040  173.6080  140.2920 C   0  0  2  0  0  3  0  0  0  0  0  0
  188.3880  173.5260  139.2760 C   0  0  0  0  0  2  0  0  0  0  0  0
  190.4340  172.7180  138.3330 C   0  0  0  0  0  2  0  0  0  0  0  0
  190.6570  172.8820  139.7670 N   0  0  0  0  0  0  0  0  0  0  0  0
  189.1090  173.3600  137.9680 C   0  0  0  0  0  2  0  0  0  0  0  0
  189.0760  173.0600  141.6520 C   0  0  0  0  0  2  0  0  0  0  0  0
  190.0000  175.1520  142.5980 C   0  0  0  0  0  1  0  0  0  0  0  0
  188.8550  174.1630  142.6730 C   0  0  0  0  0  2  0  0  0  0  0  0
  1  7  2  0  0  0  0
  2  4  2  0  0  0  0
  3  2  1  0  0  0  0
  4  1  1  0  0  0  0
  5  7  1  0  0  0  0
  6  9  1  0  0  0  0
  8  5  1  0  0  0  0
  9  2  1  0  0  0  0
  9  8  2  0  0  0  0
 10 15  1  6  0  0  0
 10 13  1  0  0  0  0
 11  4  1  6  0  0  0
 11 10  1  0  0  0  0
 12 11  1  0  0  0  0
 12 10  1  0  0  0  0
 14 13  1  0  0  0  0
 15 16  1  0  0  0  0
 17 20  1  0  0  0  0
 18 16  1  0  0  0  0
 18 22  1  0  0  0  0
 19 18  2  0  0  0  0
 20 22  2  0  0  0  0
 21 19  1  0  0  0  0
 21 17  2  0  0  0  0
 23 29  1  6  0  0  0
 23 17  1  0  0  0  0
 24 25  1  0  0  0  0
 24 27  1  0  0  0  0
 25 28  1  0  0  0  0
 27 23  1  6  0  0  0
 27 26  1  0  0  0  0
 28 26  1  0  0  0  0
 30 31  2  0  0  0  0
 31 29  1  0  0  0  0
 32 31  1  0  0  0  0
 33  6  1  0  0  0  0
 34 33  1  0  0  0  0
 34 35  1  0  0  0  0
 35 36  1  0  0  0  0
 36 37  1  0  0  0  0
 37 39  1  0  0  0  0
 37 38  1  0  0  0  0
 39 38  1  0  0  0  0
 40 37  1  0  0  0  0
 41 42  1  1  0  0  0
 41 40  1  0  0  0  0
 43 41  1  0  0  0  0
 44 49  1  1  0  0  0
 45 44  1  0  0  0  0
 46 47  1  0  0  0  0
 47 43  1  0  0  0  0
 47 44  1  0  0  0  0
 48 46  1  0  0  0  0
 48 45  1  0  0  0  0
 49 51  1  0  0  0  0
 50 51  1  0  0  0  0
M  END
>  <MODEL>
2

>  <REMARK>
 VINA RESULT:      -6.4      2.628      7.380
  Name = 
  20 active torsions:
  status: ('A' for Active; 'I' for Inactive)
    1  A    between atoms: C_1  and  C_14
    2  A    between atoms: C_1  and  C_34
    3  A    between atoms: C_2  and  C_14
    4  A    between atoms: C_3  and  C_9
    5  A    between atoms: C_3  and  C_37
    6  A    between atoms: C_5  and  C_16
    7  A    between atoms: C_6  and  C_13
    8  A    between atoms: C_6  and  C_43
    9  A    between atoms: C_7  and  C_37
   10  A    between atoms: C_7  and  C_49
   11  A    between atoms: C_9  and  C_17
   12  A    between atoms: C_12  and  C_17
   13  A    between atoms: C_12  and  N_42
   14  A    between atoms: C_14  and  C_45
   15  A    between atoms: C_16  and  C_39
   16  A    between atoms: C_20  and  O_33
   17  A    between atoms: C_20  and  C_43
   18  A    between atoms: C_21  and  C_28
   19  A    between atoms: N_30  and  C_35
   20  A    between atoms: C_35  and  C_49
                            x       y       z     vdW  Elec       q    Type
                         _______ _______ _______ _____ _____    ______ ____

>  <TORSDO>
F 20

$$$$
=
 OpenBabel11042413533D

 51 56  0  0  1  0  0  0  0  0999 V2000
  190.5480  170.7260  141.8100 C   0  0  0  0  0  3  0  0  0  0  0  0
  192.8670  171.6550  142.0000 C   0  0  0  0  0  0  0  0  0  0  0  0
  194.0860  172.2300  141.3460 C   0  0  0  0  0  1  0  0  0  0  0  0
  191.8230  171.2270  141.2380 C   0  0  0  0  0  0  0  0  0  0  0  0
  190.6090  172.1790  143.7970 C   0  0  0  0  0  2  0  0  0  0  0  0
  194.2050  171.2140  144.0710 N   0  0  0  0  0  2  0  0  0  0  0  0
  189.9990  171.1160  142.9560 C   0  0  0  0  0  3  0  0  0  0  0  0
  191.9190  171.7510  144.2580 N   0  0  0  0  0  0  0  0  0  0  0  0
  192.9360  171.5180  143.4810 C   0  0  0  0  0  0  0  0  0  0  0  0
  191.2180  172.6040  139.1280 C   0  0  2  0  0  0  0  0  0  0  0  0
  191.8690  171.3530  139.7260 C   0  0  2  0  0  3  0  0  0  0  0  0
  190.4650  171.2970  139.1170 C   0  0  0  0  0  2  0  0  0  0  0  0
  191.7240  172.9660  137.8700 O   0  0  0  0  0  0  0  0  0  0  0  0
  192.0770  174.2340  137.9680 O   0  0  0  0  0  1  0  0  0  0  0  0
  190.5590  173.6860  139.9830 C   0  0  0  0  0  2  0  0  0  0  0  0
  189.0770  173.7810  139.6540 C   0  0  0  0  0  2  0  0  0  0  0  0
  187.0470  176.1450  142.6010 C   0  0  0  0  0  0  0  0  0  0  0  0
  188.3680  174.5930  140.6790 C   0  0  0  0  0  0  0  0  0  0  0  0
  187.8610  175.8520  140.3390 C   0  0  0  0  0  3  0  0  0  0  0  0
  187.5480  174.8770  142.9390 C   0  0  0  0  0  3  0  0  0  0  0  0
  187.2040  176.6270  141.2980 C   0  0  0  0  0  3  0  0  0  0  0  0
  188.2060  174.1030  141.9790 C   0  0  0  0  0  3  0  0  0  0  0  0
  186.3590  177.0120  143.6190 C   0  0  2  0  0  3  0  0  0  0  0  0
  186.0030  179.4870  143.4930 C   0  0  0  0  0  2  0  0  0  0  0  0
  185.0420  179.9130  144.4210 O   0  0  0  0  0  0  0  0  0  0  0  0
  184.1280  178.1150  143.3970 C   0  0  0  0  0  2  0  0  0  0  0  0
  185.5630  178.1470  142.9610 C   0  0  2  0  0  3  0  0  0  0  0  0
  183.8560  179.4210  143.9690 N   0  0  0  0  0  2  0  0  0  0  0  0
  187.3660  177.5700  144.6260 C   0  0  0  0  0  2  0  0  0  0  0  0
  187.5790  177.7930  146.9910 O   0  0  0  0  0  0  0  0  0  0  0  0
  186.9020  177.3480  146.0270 C   0  0  0  0  0  0  0  0  0  0  0  0
  185.6910  176.6470  146.2730 N   0  0  0  0  0  1  0  0  0  0  0  0
  194.3830  171.0410  145.5050 C   0  0  0  0  0  2  0  0  0  0  0  0
  195.8060  170.6010  145.7990 C   0  0  0  0  0  2  0  0  0  0  0  0
  196.6430  171.8080  146.1940 C   0  0  0  0  0  2  0  0  0  0  0  0
  197.2600  172.4690  144.9660 C   0  0  0  0  0  2  0  0  0  0  0  0
  196.7080  173.8610  144.6410 C   0  0  0  0  0  0  0  0  0  0  0  0
  196.5320  174.3300  143.2060 C   0  0  0  0  0  2  0  0  0  0  0  0
  197.7610  174.7420  144.0030 C   0  0  0  0  0  2  0  0  0  0  0  0
  195.9630  174.6140  145.7310 C   0  0  0  0  0  2  0  0  0  0  0  0
  194.6650  175.1910  145.1950 C   0  0  2  0  0  3  0  0  0  0  0  0
  194.7960  176.5690  145.0540 O   0  0  0  0  0  1  0  0  0  0  0  0
  193.5260  174.8900  146.1570 C   0  0  0  0  0  2  0  0  0  0  0  0
  191.5030  175.1880  144.9970 C   0  0  2  0  0  3  0  0  0  0  0  0
  190.1030  175.3260  145.5490 C   0  0  0  0  0  2  0  0  0  0  0  0
  191.7150  175.9730  147.1950 C   0  0  0  0  0  2  0  0  0  0  0  0
  192.4300  175.8230  145.9300 N   0  0  0  0  0  0  0  0  0  0  0  0
  190.3130  175.4170  147.0340 C   0  0  0  0  0  2  0  0  0  0  0  0
  191.6250  175.7900  143.5980 C   0  0  0  0  0  2  0  0  0  0  0  0
  191.2740  178.2410  143.6190 C   0  0  0  0  0  1  0  0  0  0  0  0
  190.6160  176.9000  143.3610 C   0  0  0  0  0  2  0  0  0  0  0  0
  1  7  2  0  0  0  0
  2  9  1  0  0  0  0
  3  2  1  0  0  0  0
  4  1  1  0  0  0  0
  4  2  2  0  0  0  0
  5  8  1  0  0  0  0
  6 33  1  0  0  0  0
  7  5  1  0  0  0  0
  9  6  1  0  0  0  0
  9  8  2  0  0  0  0
 10 11  1  0  0  0  0
 10 15  1  1  0  0  0
 11  4  1  1  0  0  0
 12 10  1  0  0  0  0
 12 11  1  0  0  0  0
 13 14  1  0  0  0  0
 13 10  1  0  0  0  0
 16 15  1  0  0  0  0
 16 18  1  0  0  0  0
 17 20  1  0  0  0  0
 17 23  1  0  0  0  0
 18 22  1  0  0  0  0
 19 18  2  0  0  0  0
 19 21  1  0  0  0  0
 21 17  2  0  0  0  0
 22 20  2  0  0  0  0
 23 29  1  1  0  0  0
 24 25  1  0  0  0  0
 26 28  1  0  0  0  0
 27 26  1  0  0  0  0
 27 24  1  0  0  0  0
 27 23  1  1  0  0  0
 28 25  1  0  0  0  0
 29 31  1  0  0  0  0
 31 32  1  0  0  0  0
 31 30  2  0  0  0  0
 33 34  1  0  0  0  0
 34 35  1  0  0  0  0
 36 35  1  0  0  0  0
 37 36  1  0  0  0  0
 37 40  1  0  0  0  0
 38 39  1  0  0  0  0
 38 37  1  0  0  0  0
 39 37  1  0  0  0  0
 41 42  1  1  0  0  0
 41 40  1  0  0  0  0
 41 43  1  0  0  0  0
 44 49  1  6  0  0  0
 44 45  1  0  0  0  0
 44 47  1  0  0  0  0
 45 48  1  0  0  0  0
 47 43  1  0  0  0  0
 47 46  1  0  0  0  0
 48 46  1  0  0  0  0
 51 49  1  0  0  0  0
 51 50  1  0  0  0  0
M  END
>  <MODEL>
3

>  <REMARK>
 VINA RESULT:      -6.3      2.328      7.428
  Name = 
  20 active torsions:
  status: ('A' for Active; 'I' for Inactive)
    1  A    between atoms: C_1  and  C_14
    2  A    between atoms: C_1  and  C_34
    3  A    between atoms: C_2  and  C_14
    4  A    between atoms: C_3  and  C_9
    5  A    between atoms: C_3  and  C_37
    6  A    between atoms: C_5  and  C_16
    7  A    between atoms: C_6  and  C_13
    8  A    between atoms: C_6  and  C_43
    9  A    between atoms: C_7  and  C_37
   10  A    between atoms: C_7  and  C_49
   11  A    between atoms: C_9  and  C_17
   12  A    between atoms: C_12  and  C_17
   13  A    between atoms: C_12  and  N_42
   14  A    between atoms: C_14  and  C_45
   15  A    between atoms: C_16  and  C_39
   16  A    between atoms: C_20  and  O_33
   17  A    between atoms: C_20  and  C_43
   18  A    between atoms: C_21  and  C_28
   19  A    between atoms: N_30  and  C_35
   20  A    between atoms: C_35  and  C_49
                            x       y       z     vdW  Elec       q    Type
                         _______ _______ _______ _____ _____    ______ ____

>  <TORSDO>
F 20

$$$$
=
 OpenBabel11042413533D

 51 56  0  0  1  0  0  0  0  0999 V2000
  195.0520  172.6670  144.7200 C   0  0  0  0  0  3  0  0  0  0  0  0
  195.4860  173.9670  142.6230 C   0  0  0  0  0  0  0  0  0  0  0  0
  195.8120  175.2670  141.9520 C   0  0  0  0  0  1  0  0  0  0  0  0
  195.2940  173.9240  143.9700 C   0  0  0  0  0  0  0  0  0  0  0  0
  196.4250  171.2580  143.2380 C   0  0  0  0  0  2  0  0  0  0  0  0
  194.7420  173.0350  140.4190 N   0  0  0  0  0  2  0  0  0  0  0  0
  195.5250  171.4650  144.4020 C   0  0  0  0  0  3  0  0  0  0  0  0
  195.7310  171.6060  142.0110 N   0  0  0  0  0  0  0  0  0  0  0  0
  195.3100  172.8010  141.7130 C   0  0  0  0  0  0  0  0  0  0  0  0
  194.2800  175.4910  145.7670 C   0  0  2  0  0  0  0  0  0  0  0  0
  195.4350  175.1810  144.8080 C   0  0  2  0  0  3  0  0  0  0  0  0
  194.3650  176.2170  144.4480 C   0  0  0  0  0  2  0  0  0  0  0  0
  194.6450  176.2850  146.8640 O   0  0  0  0  0  0  0  0  0  0  0  0
  194.5140  177.5380  146.4700 O   0  0  0  0  0  1  0  0  0  0  0  0
  193.0470  174.5970  145.8980 C   0  0  0  0  0  2  0  0  0  0  0  0
  192.2080  175.0360  147.0880 C   0  0  0  0  0  2  0  0  0  0  0  0
  188.5700  176.8900  145.7750 C   0  0  0  0  0  0  0  0  0  0  0  0
  190.9440  175.6710  146.6270 C   0  0  0  0  0  0  0  0  0  0  0  0
  190.9650  176.9770  146.1260 C   0  0  0  0  0  3  0  0  0  0  0  0
  188.5510  175.5750  146.2690 C   0  0  0  0  0  3  0  0  0  0  0  0
  189.7810  177.5850  145.7030 C   0  0  0  0  0  3  0  0  0  0  0  0
  189.7370  174.9670  146.6930 C   0  0  0  0  0  3  0  0  0  0  0  0
  187.3070  177.5790  145.3370 C   0  0  2  0  0  3  0  0  0  0  0  0
  185.3850  177.0050  146.8340 C   0  0  0  0  0  2  0  0  0  0  0  0
  184.1740  177.4920  146.3210 O   0  0  0  0  0  0  0  0  0  0  0  0
  185.6240  179.2230  146.1780 C   0  0  0  0  0  2  0  0  0  0  0  0
  186.4540  178.0240  146.5310 C   0  0  2  0  0  3  0  0  0  0  0  0
  184.2470  178.8470  146.4410 N   0  0  0  0  0  2  0  0  0  0  0  0
  186.5000  176.6840  144.3970 C   0  0  0  0  0  2  0  0  0  0  0  0
  184.9150  177.3840  142.7560 O   0  0  0  0  0  0  0  0  0  0  0  0
  186.1070  177.4220  143.1600 C   0  0  0  0  0  0  0  0  0  0  0  0
  187.0750  178.1780  142.4450 N   0  0  0  0  0  1  0  0  0  0  0  0
  194.5110  171.9660  139.4580 C   0  0  0  0  0  2  0  0  0  0  0  0
  193.1240  171.3820  139.6600 C   0  0  0  0  0  2  0  0  0  0  0  0
  192.0950  172.5010  139.6610 C   0  0  0  0  0  2  0  0  0  0  0  0
  190.7010  171.9590  139.3620 C   0  0  0  0  0  2  0  0  0  0  0  0
  189.7480  172.9640  138.7080 C   0  0  0  0  0  0  0  0  0  0  0  0
  189.1240  172.6980  137.3480 C   0  0  0  0  0  2  0  0  0  0  0  0
  190.3570  173.5830  137.4670 C   0  0  0  0  0  2  0  0  0  0  0  0
  189.1120  174.0300  139.5850 C   0  0  0  0  0  2  0  0  0  0  0  0
  188.7440  173.4590  140.9430 C   0  0  2  0  0  3  0  0  0  0  0  0
  187.6710  172.5850  140.8000 O   0  0  0  0  0  1  0  0  0  0  0  0
  188.3540  174.5830  141.8920 C   0  0  0  0  0  2  0  0  0  0  0  0
  190.3190  173.6310  142.7630 C   0  0  2  0  0  3  0  0  0  0  0  0
  191.7180  174.2040  142.7960 C   0  0  0  0  0  2  0  0  0  0  0  0
  190.1010  175.9620  142.6500 C   0  0  0  0  0  2  0  0  0  0  0  0
  189.3700  174.7290  142.9260 N   0  0  0  0  0  0  0  0  0  0  0  0
  191.5370  175.6130  142.3080 C   0  0  0  0  0  2  0  0  0  0  0  0
  190.1180  172.5590  143.8320 C   0  0  0  0  0  2  0  0  0  0  0  0
  191.6750  170.7840  143.0870 C   0  0  0  0  0  1  0  0  0  0  0  0
  191.4060  171.8230  144.1570 C   0  0  0  0  0  2  0  0  0  0  0  0
  2  4  2  0  0  0  0
  3  2  1  0  0  0  0
  4  1  1  0  0  0  0
  5  7  1  0  0  0  0
  6  9  1  0  0  0  0
  7  1  2  0  0  0  0
  8  5  1  0  0  0  0
  9  8  2  0  0  0  0
  9  2  1  0  0  0  0
 10 15  1  1  0  0  0
 10 13  1  0  0  0  0
 11  4  1  6  0  0  0
 11 10  1  0  0  0  0
 12 11  1  0  0  0  0
 12 10  1  0  0  0  0
 14 13  1  0  0  0  0
 15 16  1  0  0  0  0
 17 20  1  0  0  0  0
 18 22  1  0  0  0  0
 18 16  1  0  0  0  0
 19 18  2  0  0  0  0
 20 22  2  0  0  0  0
 21 17  2  0  0  0  0
 21 19  1  0  0  0  0
 23 29  1  6  0  0  0
 23 17  1  0  0  0  0
 25 28  1  0  0  0  0
 25 24  1  0  0  0  0
 26 28  1  0  0  0  0
 26 27  1  0  0  0  0
 27 23  1  6  0  0  0
 27 24  1  0  0  0  0
 30 31  2  0  0  0  0
 31 29  1  0  0  0  0
 32 31  1  0  0  0  0
 33 34  1  0  0  0  0
 33  6  1  0  0  0  0
 34 35  1  0  0  0  0
 36 35  1  0  0  0  0
 37 36  1  0  0  0  0
 37 40  1  0  0  0  0
 38 39  1  0  0  0  0
 38 37  1  0  0  0  0
 39 37  1  0  0  0  0
 40 41  1  0  0  0  0
 41 42  1  6  0  0  0
 41 43  1  0  0  0  0
 43 47  1  0  0  0  0
 44 45  1  0  0  0  0
 44 47  1  0  0  0  0
 44 49  1  1  0  0  0
 46 47  1  0  0  0  0
 48 46  1  0  0  0  0
 48 45  1  0  0  0  0
 49 51  1  0  0  0  0
 50 51  1  0  0  0  0
M  END
>  <MODEL>
4

>  <REMARK>
 VINA RESULT:      -6.1      2.283      7.152
  Name = 
  20 active torsions:
  status: ('A' for Active; 'I' for Inactive)
    1  A    between atoms: C_1  and  C_14
    2  A    between atoms: C_1  and  C_34
    3  A    between atoms: C_2  and  C_14
    4  A    between atoms: C_3  and  C_9
    5  A    between atoms: C_3  and  C_37
    6  A    between atoms: C_5  and  C_16
    7  A    between atoms: C_6  and  C_13
    8  A    between atoms: C_6  and  C_43
    9  A    between atoms: C_7  and  C_37
   10  A    between atoms: C_7  and  C_49
   11  A    between atoms: C_9  and  C_17
   12  A    between atoms: C_12  and  C_17
   13  A    between atoms: C_12  and  N_42
   14  A    between atoms: C_14  and  C_45
   15  A    between atoms: C_16  and  C_39
   16  A    between atoms: C_20  and  O_33
   17  A    between atoms: C_20  and  C_43
   18  A    between atoms: C_21  and  C_28
   19  A    between atoms: N_30  and  C_35
   20  A    between atoms: C_35  and  C_49
                            x       y       z     vdW  Elec       q    Type
                         _______ _______ _______ _____ _____    ______ ____

>  <TORSDO>
F 20

$$$$
=
 OpenBabel11042413533D

 51 56  0  0  1  0  0  0  0  0999 V2000
  191.3320  175.0890  142.9060 C   0  0  0  0  0  3  0  0  0  0  0  0
  192.5230  172.9260  143.3290 C   0  0  0  0  0  0  0  0  0  0  0  0
  193.7390  172.1910  143.8070 C   0  0  0  0  0  1  0  0  0  0  0  0
  192.5220  174.2860  143.2850 C   0  0  0  0  0  0  0  0  0  0  0  0
  189.6910  173.5000  143.8280 C   0  0  0  0  0  2  0  0  0  0  0  0
  191.7330  170.8400  142.1870 N   0  0  0  0  0  2  0  0  0  0  0  0
  190.0630  174.7510  143.1160 C   0  0  0  0  0  3  0  0  0  0  0  0
  190.1550  172.3480  143.0740 N   0  0  0  0  0  0  0  0  0  0  0  0
  191.4050  172.0690  142.8450 C   0  0  0  0  0  0  0  0  0  0  0  0
  193.7880  175.4340  145.2320 C   0  0  2  0  0  0  0  0  0  0  0  0
  193.7350  175.0730  143.7440 C   0  0  2  0  0  3  0  0  0  0  0  0
  193.3440  176.4710  144.2320 C   0  0  0  0  0  2  0  0  0  0  0  0
  195.0850  175.6520  145.7220 O   0  0  0  0  0  0  0  0  0  0  0  0
  195.5160  174.4810  146.1530 O   0  0  0  0  0  1  0  0  0  0  0  0
  192.6980  175.0290  146.2240 C   0  0  0  0  0  2  0  0  0  0  0  0
  192.1210  176.2640  146.8970 C   0  0  0  0  0  2  0  0  0  0  0  0
  188.1260  176.9710  145.5040 C   0  0  0  0  0  0  0  0  0  0  0  0
  190.7360  176.5190  146.4160 C   0  0  0  0  0  0  0  0  0  0  0  0
  189.6940  175.6750  146.8180 C   0  0  0  0  0  3  0  0  0  0  0  0
  189.1710  177.8240  145.1090 C   0  0  0  0  0  3  0  0  0  0  0  0
  188.3930  175.9000  146.3620 C   0  0  0  0  0  3  0  0  0  0  0  0
  190.4730  177.5970  145.5660 C   0  0  0  0  0  3  0  0  0  0  0  0
  186.7210  177.1730  145.0080 C   0  0  2  0  0  3  0  0  0  0  0  0
  187.5000  177.5820  142.6640 C   0  0  0  0  0  2  0  0  0  0  0  0
  186.7390  178.5790  142.0390 O   0  0  0  0  0  0  0  0  0  0  0  0
  185.2330  177.1920  143.0000 C   0  0  0  0  0  2  0  0  0  0  0  0
  186.5710  176.7740  143.5340 C   0  0  2  0  0  3  0  0  0  0  0  0
  185.5070  178.0310  141.8490 N   0  0  0  0  0  2  0  0  0  0  0  0
  186.2710  178.6180  145.2270 C   0  0  0  0  0  2  0  0  0  0  0  0
  185.8760  179.3760  147.4540 O   0  0  0  0  0  0  0  0  0  0  0  0
  185.4390  178.7390  146.4600 C   0  0  0  0  0  0  0  0  0  0  0  0
  184.1480  178.1480  146.5070 N   0  0  0  0  0  1  0  0  0  0  0  0
  190.7210  169.9370  141.6610 C   0  0  0  0  0  2  0  0  0  0  0  0
  191.3790  168.8600  140.8170 C   0  0  0  0  0  2  0  0  0  0  0  0
  192.8010  169.2780  140.4760 C   0  0  0  0  0  2  0  0  0  0  0  0
  193.1320  168.9510  139.0240 C   0  0  0  0  0  2  0  0  0  0  0  0
  194.0740  169.9460  138.3400 C   0  0  0  0  0  0  0  0  0  0  0  0
  195.5730  169.9240  138.5940 C   0  0  0  0  0  2  0  0  0  0  0  0
  194.6830  170.9110  139.3360 C   0  0  0  0  0  2  0  0  0  0  0  0
  193.5730  170.6860  137.1100 C   0  0  0  0  0  2  0  0  0  0  0  0
  192.0980  170.4070  136.8800 C   0  0  2  0  0  3  0  0  0  0  0  0
  191.9130  169.9530  135.5780 O   0  0  0  0  0  1  0  0  0  0  0  0
  191.2890  171.6780  137.0900 C   0  0  0  0  0  2  0  0  0  0  0  0
  190.9630  173.1980  138.8530 C   0  0  2  0  0  3  0  0  0  0  0  0
  189.6810  173.5690  139.5620 C   0  0  0  0  0  2  0  0  0  0  0  0
  189.4890  171.3970  138.5760 C   0  0  0  0  0  2  0  0  0  0  0  0
  190.8940  171.7850  138.4880 N   0  0  0  0  0  0  0  0  0  0  0  0
  188.6740  172.6020  139.0070 C   0  0  0  0  0  2  0  0  0  0  0  0
  192.1930  173.4890  139.7120 C   0  0  0  0  0  2  0  0  0  0  0  0
  194.1110  175.0350  139.9470 C   0  0  0  0  0  1  0  0  0  0  0  0
  193.2460  174.2810  138.9580 C   0  0  0  0  0  2  0  0  0  0  0  0
  1  7  2  0  0  0  0
  1  4  1  0  0  0  0
  2  3  1  0  0  0  0
  4  2  2  0  0  0  0
  6  9  1  0  0  0  0
  7  5  1  0  0  0  0
  8  5  1  0  0  0  0
  9  8  2  0  0  0  0
  9  2  1  0  0  0  0
 10 13  1  0  0  0  0
 10 15  1  1  0  0  0
 11  4  1  1  0  0  0
 11 12  1  0  0  0  0
 11 10  1  0  0  0  0
 12 10  1  0  0  0  0
 13 14  1  0  0  0  0
 15 16  1  0  0  0  0
 17 21  1  0  0  0  0
 18 19  1  0  0  0  0
 18 16  1  0  0  0  0
 20 17  2  0  0  0  0
 20 22  1  0  0  0  0
 21 19  2  0  0  0  0
 22 18  2  0  0  0  0
 23 29  1  6  0  0  0
 23 17  1  0  0  0  0
 24 27  1  0  0  0  0
 25 24  1  0  0  0  0
 26 27  1  0  0  0  0
 27 23  1  1  0  0  0
 28 25  1  0  0  0  0
 28 26  1  0  0  0  0
 29 31  1  0  0  0  0
 31 32  1  0  0  0  0
 31 30  2  0  0  0  0
 33  6  1  0  0  0  0
 34 33  1  0  0  0  0
 35 34  1  0  0  0  0
 36 35  1  0  0  0  0
 37 38  1  0  0  0  0
 37 36  1  0  0  0  0
 37 39  1  0  0  0  0
 38 39  1  0  0  0  0
 40 37  1  0  0  0  0
 41 42  1  6  0  0  0
 41 43  1  0  0  0  0
 41 40  1  0  0  0  0
 43 47  1  0  0  0  0
 44 45  1  0  0  0  0
 44 49  1  1  0  0  0
 46 48  1  0  0  0  0
 47 46  1  0  0  0  0
 47 44  1  0  0  0  0
 48 45  1  0  0  0  0
 51 49  1  0  0  0  0
 51 50  1  0  0  0  0
M  END
>  <MODEL>
5

>  <REMARK>
 VINA RESULT:      -6.1      2.176      7.899
  Name = 
  20 active torsions:
  status: ('A' for Active; 'I' for Inactive)
    1  A    between atoms: C_1  and  C_14
    2  A    between atoms: C_1  and  C_34
    3  A    between atoms: C_2  and  C_14
    4  A    between atoms: C_3  and  C_9
    5  A    between atoms: C_3  and  C_37
    6  A    between atoms: C_5  and  C_16
    7  A    between atoms: C_6  and  C_13
    8  A    between atoms: C_6  and  C_43
    9  A    between atoms: C_7  and  C_37
   10  A    between atoms: C_7  and  C_49
   11  A    between atoms: C_9  and  C_17
   12  A    between atoms: C_12  and  C_17
   13  A    between atoms: C_12  and  N_42
   14  A    between atoms: C_14  and  C_45
   15  A    between atoms: C_16  and  C_39
   16  A    between atoms: C_20  and  O_33
   17  A    between atoms: C_20  and  C_43
   18  A    between atoms: C_21  and  C_28
   19  A    between atoms: N_30  and  C_35
   20  A    between atoms: C_35  and  C_49
                            x       y       z     vdW  Elec       q    Type
                         _______ _______ _______ _____ _____    ______ ____

>  <TORSDO>
F 20

$$$$
=
 OpenBabel11042413533D

 51 56  0  0  1  0  0  0  0  0999 V2000
  194.7140  172.8330  145.4930 C   0  0  0  0  0  3  0  0  0  0  0  0
  193.4250  174.9430  145.0890 C   0  0  0  0  0  0  0  0  0  0  0  0
  193.4080  176.4000  144.7380 C   0  0  0  0  0  1  0  0  0  0  0  0
  194.6110  174.2900  145.2310 C   0  0  0  0  0  0  0  0  0  0  0  0
  192.6820  172.2380  144.2340 C   0  0  0  0  0  2  0  0  0  0  0  0
  191.0810  175.1400  145.9520 N   0  0  0  0  0  2  0  0  0  0  0  0
  193.8570  171.9030  145.0800 C   0  0  0  0  0  3  0  0  0  0  0  0
  191.7880  173.1230  144.9600 N   0  0  0  0  0  0  0  0  0  0  0  0
  192.0930  174.3280  145.3450 C   0  0  0  0  0  0  0  0  0  0  0  0
  196.5000  174.9630  143.5900 C   0  0  2  0  0  0  0  0  0  0  0  0
  195.9230  175.0200  145.0090 C   0  0  2  0  0  3  0  0  0  0  0  0
  197.0510  174.0460  144.6520 C   0  0  0  0  0  2  0  0  0  0  0  0
  197.3550  176.0310  143.2770 O   0  0  0  0  0  0  0  0  0  0  0  0
  196.6200  177.1250  143.3530 O   0  0  0  0  0  1  0  0  0  0  0  0
  195.8090  174.2290  142.4410 C   0  0  0  0  0  2  0  0  0  0  0  0
  195.0620  175.2190  141.5620 C   0  0  0  0  0  2  0  0  0  0  0  0
  191.9210  173.2660  139.3910 C   0  0  0  0  0  0  0  0  0  0  0  0
  193.9750  174.5330  140.8140 C   0  0  0  0  0  0  0  0  0  0  0  0
  193.9090  174.6490  139.4210 C   0  0  0  0  0  3  0  0  0  0  0  0
  191.9930  173.1420  140.7880 C   0  0  0  0  0  3  0  0  0  0  0  0
  192.8840  174.0190  138.7120 C   0  0  0  0  0  3  0  0  0  0  0  0
  193.0190  173.7740  141.4980 C   0  0  0  0  0  3  0  0  0  0  0  0
  190.8140  172.6200  138.6040 C   0  0  2  0  0  3  0  0  0  0  0  0
  190.6350  171.4010  136.4240 C   0  0  0  0  0  2  0  0  0  0  0  0
  189.6520  170.4030  136.4770 O   0  0  0  0  0  0  0  0  0  0  0  0
  190.8770  170.1340  138.3590 C   0  0  0  0  0  2  0  0  0  0  0  0
  191.3210  171.4390  137.7660 C   0  0  2  0  0  3  0  0  0  0  0  0
  190.1470  169.4460  137.3090 N   0  0  0  0  0  2  0  0  0  0  0  0
  190.1070  173.6480  137.7200 C   0  0  0  0  0  2  0  0  0  0  0  0
  187.9530  174.6620  137.5690 O   0  0  0  0  0  0  0  0  0  0  0  0
  188.6570  173.7440  138.0640 C   0  0  0  0  0  0  0  0  0  0  0  0
  188.0700  172.7920  138.9400 N   0  0  0  0  0  1  0  0  0  0  0  0
  189.7510  174.6360  146.2620 C   0  0  0  0  0  2  0  0  0  0  0  0
  189.0300  175.6120  147.1740 C   0  0  0  0  0  2  0  0  0  0  0  0
  187.7330  176.0590  146.5200 C   0  0  0  0  0  2  0  0  0  0  0  0
  187.6730  177.5780  146.4080 C   0  0  0  0  0  2  0  0  0  0  0  0
  186.2940  178.1890  146.6740 C   0  0  0  0  0  0  0  0  0  0  0  0
  186.1080  179.3330  147.6580 C   0  0  0  0  0  2  0  0  0  0  0  0
  185.8200  177.9000  148.0830 C   0  0  0  0  0  2  0  0  0  0  0  0
  185.1840  177.9280  145.6680 C   0  0  0  0  0  2  0  0  0  0  0  0
  185.5080  178.5720  144.3320 C   0  0  2  0  0  3  0  0  0  0  0  0
  184.5150  179.4930  144.0110 O   0  0  0  0  0  1  0  0  0  0  0  0
  185.5790  177.5100  143.2460 C   0  0  0  0  0  2  0  0  0  0  0  0
  187.2490  176.1820  142.2600 C   0  0  2  0  0  3  0  0  0  0  0  0
  187.7150  176.1530  140.8220 C   0  0  0  0  0  2  0  0  0  0  0  0
  186.7190  178.2680  141.3340 C   0  0  0  0  0  2  0  0  0  0  0  0
  186.8830  177.5540  142.5970 N   0  0  0  0  0  0  0  0  0  0  0  0
  186.9910  177.3090  140.1910 C   0  0  0  0  0  2  0  0  0  0  0  0
  188.3140  175.6410  143.2130 C   0  0  0  0  0  2  0  0  0  0  0  0
  189.8980  177.4990  143.6230 C   0  0  0  0  0  1  0  0  0  0  0  0
  189.6970  176.1840  142.8970 C   0  0  0  0  0  2  0  0  0  0  0  0
  2  4  2  0  0  0  0
  2  9  1  0  0  0  0
  3  2  1  0  0  0  0
  4  1  1  0  0  0  0
  5  8  1  0  0  0  0
  5  7  1  0  0  0  0
  6 33  1  0  0  0  0
  7  1  2  0  0  0  0
  8  9  2  0  0  0  0
  9  6  1  0  0  0  0
 10 15  1  6  0  0  0
 10 12  1  0  0  0  0
 10 11  1  0  0  0  0
 11  4  1  6  0  0  0
 12 11  1  0  0  0  0
 13 14  1  0  0  0  0
 13 10  1  0  0  0  0
 16 15  1  0  0  0  0
 17 20  1  0  0  0  0
 18 22  1  0  0  0  0
 18 16  1  0  0  0  0
 19 18  2  0  0  0  0
 20 22  2  0  0  0  0
 21 17  2  0  0  0  0
 21 19  1  0  0  0  0
 23 29  1  6  0  0  0
 23 17  1  0  0  0  0
 24 25  1  0  0  0  0
 24 27  1  0  0  0  0
 25 28  1  0  0  0  0
 27 26  1  0  0  0  0
 27 23  1  1  0  0  0
 28 26  1  0  0  0  0
 29 31  1  0  0  0  0
 30 31  2  0  0  0  0
 31 32  1  0  0  0  0
 33 34  1  0  0  0  0
 35 34  1  0  0  0  0
 36 35  1  0  0  0  0
 36 37  1  0  0  0  0
 37 38  1  0  0  0  0
 37 39  1  0  0  0  0
 38 39  1  0  0  0  0
 40 37  1  0  0  0  0
 41 42  1  6  0  0  0
 41 40  1  0  0  0  0
 43 41  1  0  0  0  0
 44 47  1  0  0  0  0
 44 49  1  1  0  0  0
 45 44  1  0  0  0  0
 46 47  1  0  0  0  0
 47 43  1  0  0  0  0
 48 45  1  0  0  0  0
 48 46  1  0  0  0  0
 51 49  1  0  0  0  0
 51 50  1  0  0  0  0
M  END
>  <MODEL>
6

>  <REMARK>
 VINA RESULT:      -6.0      1.503      3.270
  Name = 
  20 active torsions:
  status: ('A' for Active; 'I' for Inactive)
    1  A    between atoms: C_1  and  C_14
    2  A    between atoms: C_1  and  C_34
    3  A    between atoms: C_2  and  C_14
    4  A    between atoms: C_3  and  C_9
    5  A    between atoms: C_3  and  C_37
    6  A    between atoms: C_5  and  C_16
    7  A    between atoms: C_6  and  C_13
    8  A    between atoms: C_6  and  C_43
    9  A    between atoms: C_7  and  C_37
   10  A    between atoms: C_7  and  C_49
   11  A    between atoms: C_9  and  C_17
   12  A    between atoms: C_12  and  C_17
   13  A    between atoms: C_12  and  N_42
   14  A    between atoms: C_14  and  C_45
   15  A    between atoms: C_16  and  C_39
   16  A    between atoms: C_20  and  O_33
   17  A    between atoms: C_20  and  C_43
   18  A    between atoms: C_21  and  C_28
   19  A    between atoms: N_30  and  C_35
   20  A    between atoms: C_35  and  C_49
                            x       y       z     vdW  Elec       q    Type
                         _______ _______ _______ _____ _____    ______ ____

>  <TORSDO>
F 20

$$$$
=
 OpenBabel11042413533D

 51 56  0  0  1  0  0  0  0  0999 V2000
  194.5100  172.4320  145.7020 C   0  0  0  0  0  3  0  0  0  0  0  0
  196.5580  173.2770  144.5320 C   0  0  0  0  0  0  0  0  0  0  0  0
  197.5450  174.3770  144.2860 C   0  0  0  0  0  1  0  0  0  0  0  0
  195.4840  173.4910  145.3410 C   0  0  0  0  0  0  0  0  0  0  0  0
  196.1500  170.5950  145.6480 C   0  0  0  0  0  2  0  0  0  0  0  0
  197.3590  172.1170  142.4610 N   0  0  0  0  0  2  0  0  0  0  0  0
  194.7760  171.1350  145.8230 C   0  0  0  0  0  3  0  0  0  0  0  0
  196.6050  170.8380  144.2890 N   0  0  0  0  0  0  0  0  0  0  0  0
  196.7980  172.0170  143.7740 C   0  0  0  0  0  0  0  0  0  0  0  0
  193.9160  175.4890  145.8520 C   0  0  2  0  0  0  0  0  0  0  0  0
  195.2900  174.8330  146.0230 C   0  0  2  0  0  3  0  0  0  0  0  0
  195.0710  175.9540  145.0020 C   0  0  0  0  0  2  0  0  0  0  0  0
  193.5810  176.3890  146.8760 O   0  0  0  0  0  0  0  0  0  0  0  0
  192.4010  176.0070  147.3280 O   0  0  0  0  0  1  0  0  0  0  0  0
  192.7830  174.8470  145.0530 C   0  0  0  0  0  2  0  0  0  0  0  0
  192.3420  175.7760  143.9330 C   0  0  0  0  0  2  0  0  0  0  0  0
  188.2970  177.0600  144.5560 C   0  0  0  0  0  0  0  0  0  0  0  0
  190.9420  176.2290  144.1550 C   0  0  0  0  0  0  0  0  0  0  0  0
  189.9690  175.3080  144.5580 C   0  0  0  0  0  3  0  0  0  0  0  0
  189.2760  177.9860  144.1610 C   0  0  0  0  0  3  0  0  0  0  0  0
  188.6500  175.7220  144.7560 C   0  0  0  0  0  3  0  0  0  0  0  0
  190.5960  177.5710  143.9620 C   0  0  0  0  0  3  0  0  0  0  0  0
  186.8630  177.4720  144.7520 C   0  0  2  0  0  3  0  0  0  0  0  0
  185.4820  179.3900  143.9280 C   0  0  0  0  0  2  0  0  0  0  0  0
  184.1290  179.0370  143.8210 O   0  0  0  0  0  0  0  0  0  0  0  0
  185.2680  177.3510  142.8330 C   0  0  0  0  0  2  0  0  0  0  0  0
  186.3020  178.1930  143.5200 C   0  0  2  0  0  3  0  0  0  0  0  0
  184.0630  178.1590  142.7830 N   0  0  0  0  0  2  0  0  0  0  0  0
  186.7150  178.3390  146.0020 C   0  0  0  0  0  2  0  0  0  0  0  0
  186.1800  176.5830  147.5270 O   0  0  0  0  0  0  0  0  0  0  0  0
  185.8340  177.6780  147.0110 C   0  0  0  0  0  0  0  0  0  0  0  0
  184.6130  178.2910  147.3990 N   0  0  0  0  0  1  0  0  0  0  0  0
  197.6200  170.9520  141.6270 C   0  0  0  0  0  2  0  0  0  0  0  0
  196.8210  171.0510  140.3400 C   0  0  0  0  0  2  0  0  0  0  0  0
  196.3930  172.4920  140.1130 C   0  0  0  0  0  2  0  0  0  0  0  0
  194.8890  172.5840  139.8770 C   0  0  0  0  0  2  0  0  0  0  0  0
  194.1020  173.2600  141.0040 C   0  0  0  0  0  0  0  0  0  0  0  0
  193.5160  174.6520  140.8390 C   0  0  0  0  0  2  0  0  0  0  0  0
  194.8420  174.4590  141.5590 C   0  0  0  0  0  2  0  0  0  0  0  0
  193.5640  172.3910  142.1290 C   0  0  0  0  0  2  0  0  0  0  0  0
  192.0470  172.3380  142.0890 C   0  0  2  0  0  3  0  0  0  0  0  0
  191.5520  172.3210  143.3890 O   0  0  0  0  0  1  0  0  0  0  0  0
  191.5900  171.0830  141.3600 C   0  0  0  0  0  2  0  0  0  0  0  0
  190.4800  172.8910  140.3470 C   0  0  2  0  0  3  0  0  0  0  0  0
  190.6140  173.4180  138.9370 C   0  0  0  0  0  2  0  0  0  0  0  0
  191.2650  171.1170  139.0320 C   0  0  0  0  0  2  0  0  0  0  0  0
  190.6420  171.4400  140.3130 N   0  0  0  0  0  0  0  0  0  0  0  0
  191.4900  172.4030  138.2600 C   0  0  0  0  0  2  0  0  0  0  0  0
  189.1440  173.2850  140.9770 C   0  0  0  0  0  2  0  0  0  0  0  0
  188.1790  175.5550  141.1770 C   0  0  0  0  0  1  0  0  0  0  0  0
  188.4640  174.4140  140.2220 C   0  0  0  0  0  2  0  0  0  0  0  0
  1  7  2  0  0  0  0
  2  4  2  0  0  0  0
  3  2  1  0  0  0  0
  4  1  1  0  0  0  0
  5  7  1  0  0  0  0
  6  9  1  0  0  0  0
  8  5  1  0  0  0  0
  9  8  2  0  0  0  0
  9  2  1  0  0  0  0
 10 15  1  6  0  0  0
 10 11  1  0  0  0  0
 10 13  1  0  0  0  0
 11  4  1  6  0  0  0
 12 10  1  0  0  0  0
 12 11  1  0  0  0  0
 13 14  1  0  0  0  0
 16 18  1  0  0  0  0
 16 15  1  0  0  0  0
 17 23  1  0  0  0  0
 17 21  1  0  0  0  0
 18 19  1  0  0  0  0
 19 21  2  0  0  0  0
 20 17  2  0  0  0  0
 22 18  2  0  0  0  0
 22 20  1  0  0  0  0
 23 29  1  1  0  0  0
 25 24  1  0  0  0  0
 26 27  1  0  0  0  0
 27 24  1  0  0  0  0
 27 23  1  1  0  0  0
 28 26  1  0  0  0  0
 28 25  1  0  0  0  0
 29 31  1  0  0  0  0
 31 32  1  0  0  0  0
 31 30  2  0  0  0  0
 33  6  1  0  0  0  0
 34 33  1  0  0  0  0
 35 34  1  0  0  0  0
 36 35  1  0  0  0  0
 36 37  1  0  0  0  0
 37 39  1  0  0  0  0
 37 40  1  0  0  0  0
 38 37  1  0  0  0  0
 38 39  1  0  0  0  0
 41 40  1  0  0  0  0
 41 42  1  1  0  0  0
 43 41  1  0  0  0  0
 44 49  1  6  0  0  0
 45 44  1  0  0  0  0
 46 47  1  0  0  0  0
 47 44  1  0  0  0  0
 47 43  1  0  0  0  0
 48 45  1  0  0  0  0
 48 46  1  0  0  0  0
 51 49  1  0  0  0  0
 51 50  1  0  0  0  0
M  END
>  <MODEL>
7

>  <REMARK>
 VINA RESULT:      -6.0      2.578      7.480
  Name = 
  20 active torsions:
  status: ('A' for Active; 'I' for Inactive)
    1  A    between atoms: C_1  and  C_14
    2  A    between atoms: C_1  and  C_34
    3  A    between atoms: C_2  and  C_14
    4  A    between atoms: C_3  and  C_9
    5  A    between atoms: C_3  and  C_37
    6  A    between atoms: C_5  and  C_16
    7  A    between atoms: C_6  and  C_13
    8  A    between atoms: C_6  and  C_43
    9  A    between atoms: C_7  and  C_37
   10  A    between atoms: C_7  and  C_49
   11  A    between atoms: C_9  and  C_17
   12  A    between atoms: C_12  and  C_17
   13  A    between atoms: C_12  and  N_42
   14  A    between atoms: C_14  and  C_45
   15  A    between atoms: C_16  and  C_39
   16  A    between atoms: C_20  and  O_33
   17  A    between atoms: C_20  and  C_43
   18  A    between atoms: C_21  and  C_28
   19  A    between atoms: N_30  and  C_35
   20  A    between atoms: C_35  and  C_49
                            x       y       z     vdW  Elec       q    Type
                         _______ _______ _______ _____ _____    ______ ____

>  <TORSDO>
F 20

$$$$
=
 OpenBabel11042413533D

 51 56  0  0  1  0  0  0  0  0999 V2000
  194.4420  172.7740  145.5520 C   0  0  0  0  0  3  0  0  0  0  0  0
  193.4780  175.0740  145.3190 C   0  0  0  0  0  0  0  0  0  0  0  0
  193.6780  176.5440  145.1040 C   0  0  0  0  0  1  0  0  0  0  0  0
  194.5550  174.2480  145.4240 C   0  0  0  0  0  0  0  0  0  0  0  0
  192.3910  172.5900  144.2020 C   0  0  0  0  0  2  0  0  0  0  0  0
  191.1570  175.5270  146.1480 N   0  0  0  0  0  2  0  0  0  0  0  0
  193.4780  172.0170  145.0370 C   0  0  0  0  0  3  0  0  0  0  0  0
  191.6070  173.5260  144.9890 N   0  0  0  0  0  0  0  0  0  0  0  0
  192.0650  174.6360  145.4900 C   0  0  0  0  0  0  0  0  0  0  0  0
  196.6810  174.5290  143.9710 C   0  0  2  0  0  0  0  0  0  0  0  0
  195.9630  174.7990  145.2970 C   0  0  2  0  0  3  0  0  0  0  0  0
  196.9940  173.6730  145.1720 C   0  0  0  0  0  2  0  0  0  0  0  0
  197.6910  175.4550  143.6680 O   0  0  0  0  0  0  0  0  0  0  0  0
  197.0810  176.5070  143.1530 O   0  0  0  0  0  1  0  0  0  0  0  0
  196.0350  173.7590  142.8190 C   0  0  0  0  0  2  0  0  0  0  0  0
  195.4310  174.7290  141.8160 C   0  0  0  0  0  2  0  0  0  0  0  0
  192.4740  172.7670  139.4070 C   0  0  0  0  0  0  0  0  0  0  0  0
  194.4000  174.0470  140.9890 C   0  0  0  0  0  0  0  0  0  0  0  0
  194.7910  173.1170  140.0180 C   0  0  0  0  0  3  0  0  0  0  0  0
  192.0810  173.6930  140.3880 C   0  0  0  0  0  3  0  0  0  0  0  0
  193.8310  172.4810  139.2290 C   0  0  0  0  0  3  0  0  0  0  0  0
  193.0430  174.3310  141.1770 C   0  0  0  0  0  3  0  0  0  0  0  0
  191.4640  172.0860  138.5240 C   0  0  2  0  0  3  0  0  0  0  0  0
  189.3950  172.7380  137.2750 C   0  0  0  0  0  2  0  0  0  0  0  0
  189.2950  172.0490  136.0580 O   0  0  0  0  0  0  0  0  0  0  0  0
  191.4200  172.8190  136.1360 C   0  0  0  0  0  2  0  0  0  0  0  0
  190.8510  173.0540  137.5040 C   0  0  2  0  0  3  0  0  0  0  0  0
  190.2850  172.5540  135.2710 N   0  0  0  0  0  2  0  0  0  0  0  0
  190.3730  171.4200  139.3630 C   0  0  0  0  0  2  0  0  0  0  0  0
  190.7570  170.0550  141.2820 O   0  0  0  0  0  0  0  0  0  0  0  0
  190.8910  170.1930  140.0380 C   0  0  0  0  0  0  0  0  0  0  0  0
  191.5220  169.1740  139.2740 N   0  0  0  0  0  1  0  0  0  0  0  0
  189.7600  175.1940  146.3830 C   0  0  0  0  0  2  0  0  0  0  0  0
  189.0620  176.3520  147.0720 C   0  0  0  0  0  2  0  0  0  0  0  0
  187.5860  176.3490  146.7080 C   0  0  0  0  0  2  0  0  0  0  0  0
  187.0110  177.7600  146.7510 C   0  0  0  0  0  2  0  0  0  0  0  0
  185.7680  177.9740  145.8820 C   0  0  0  0  0  0  0  0  0  0  0  0
  184.7170  179.0120  146.2400 C   0  0  0  0  0  2  0  0  0  0  0  0
  184.5050  177.5490  146.6010 C   0  0  0  0  0  2  0  0  0  0  0  0
  185.7830  177.4400  144.4590 C   0  0  0  0  0  2  0  0  0  0  0  0
  186.4450  178.4320  143.5190 C   0  0  2  0  0  3  0  0  0  0  0  0
  185.4710  179.0510  142.7420 O   0  0  0  0  0  1  0  0  0  0  0  0
  187.4300  177.7110  142.6110 C   0  0  0  0  0  2  0  0  0  0  0  0
  189.1050  176.0640  142.5410 C   0  0  2  0  0  3  0  0  0  0  0  0
  190.5950  176.2150  142.7480 C   0  0  0  0  0  2  0  0  0  0  0  0
  189.4170  177.9920  143.8350 C   0  0  0  0  0  2  0  0  0  0  0  0
  188.4210  177.0100  143.4170 N   0  0  0  0  0  0  0  0  0  0  0  0
  190.7480  177.6400  143.1990 C   0  0  0  0  0  2  0  0  0  0  0  0
  188.6380  174.6320  142.7970 C   0  0  0  0  0  2  0  0  0  0  0  0
  188.2980  174.4870  140.3490 C   0  0  0  0  0  1  0  0  0  0  0  0
  188.7990  173.7480  141.5730 C   0  0  0  0  0  2  0  0  0  0  0  0
  2  4  2  0  0  0  0
  2  9  1  0  0  0  0
  3  2  1  0  0  0  0
  4  1  1  0  0  0  0
  5  8  1  0  0  0  0
  5  7  1  0  0  0  0
  6 33  1  0  0  0  0
  7  1  2  0  0  0  0
  8  9  2  0  0  0  0
  9  6  1  0  0  0  0
 10 15  1  6  0  0  0
 10 12  1  0  0  0  0
 10 11  1  0  0  0  0
 11  4  1  6  0  0  0
 12 11  1  0  0  0  0
 13 10  1  0  0  0  0
 14 13  1  0  0  0  0
 16 15  1  0  0  0  0
 17 20  1  0  0  0  0
 18 22  1  0  0  0  0
 18 16  1  0  0  0  0
 19 18  2  0  0  0  0
 20 22  2  0  0  0  0
 21 17  2  0  0  0  0
 21 19  1  0  0  0  0
 23 29  1  1  0  0  0
 23 17  1  0  0  0  0
 24 27  1  0  0  0  0
 25 24  1  0  0  0  0
 26 27  1  0  0  0  0
 27 23  1  1  0  0  0
 28 25  1  0  0  0  0
 28 26  1  0  0  0  0
 29 31  1  0  0  0  0
 31 30  2  0  0  0  0
 32 31  1  0  0  0  0
 33 34  1  0  0  0  0
 35 36  1  0  0  0  0
 35 34  1  0  0  0  0
 37 38  1  0  0  0  0
 37 39  1  0  0  0  0
 37 36  1  0  0  0  0
 38 39  1  0  0  0  0
 40 37  1  0  0  0  0
 41 42  1  6  0  0  0
 41 40  1  0  0  0  0
 43 47  1  0  0  0  0
 43 41  1  0  0  0  0
 44 45  1  0  0  0  0
 44 49  1  1  0  0  0
 44 47  1  0  0  0  0
 45 48  1  0  0  0  0
 47 46  1  0  0  0  0
 48 46  1  0  0  0  0
 50 51  1  0  0  0  0
 51 49  1  0  0  0  0
M  END
>  <MODEL>
8

>  <REMARK>
 VINA RESULT:      -5.9      1.723      3.783
  Name = 
  20 active torsions:
  status: ('A' for Active; 'I' for Inactive)
    1  A    between atoms: C_1  and  C_14
    2  A    between atoms: C_1  and  C_34
    3  A    between atoms: C_2  and  C_14
    4  A    between atoms: C_3  and  C_9
    5  A    between atoms: C_3  and  C_37
    6  A    between atoms: C_5  and  C_16
    7  A    between atoms: C_6  and  C_13
    8  A    between atoms: C_6  and  C_43
    9  A    between atoms: C_7  and  C_37
   10  A    between atoms: C_7  and  C_49
   11  A    between atoms: C_9  and  C_17
   12  A    between atoms: C_12  and  C_17
   13  A    between atoms: C_12  and  N_42
   14  A    between atoms: C_14  and  C_45
   15  A    between atoms: C_16  and  C_39
   16  A    between atoms: C_20  and  O_33
   17  A    between atoms: C_20  and  C_43
   18  A    between atoms: C_21  and  C_28
   19  A    between atoms: N_30  and  C_35
   20  A    between atoms: C_35  and  C_49
                            x       y       z     vdW  Elec       q    Type
                         _______ _______ _______ _____ _____    ______ ____

>  <TORSDO>
F 20

$$$$
=
 OpenBabel11042413533D

 51 56  0  0  1  0  0  0  0  0999 V2000
  195.2850  172.6750  142.7760 C   0  0  0  0  0  3  0  0  0  0  0  0
  196.2370  173.5470  144.9230 C   0  0  0  0  0  0  0  0  0  0  0  0
  197.0940  173.3420  146.1350 C   0  0  0  0  0  1  0  0  0  0  0  0
  196.0480  172.5290  144.0410 C   0  0  0  0  0  0  0  0  0  0  0  0
  195.9060  175.0310  142.4150 C   0  0  0  0  0  2  0  0  0  0  0  0
  195.1570  175.5130  146.0410 N   0  0  0  0  0  2  0  0  0  0  0  0
  195.1880  173.7830  142.0470 C   0  0  0  0  0  3  0  0  0  0  0  0
  195.4300  175.5120  143.7010 N   0  0  0  0  0  0  0  0  0  0  0  0
  195.5690  174.8750  144.8270 C   0  0  0  0  0  0  0  0  0  0  0  0
  195.9060  170.1280  145.0040 C   0  0  2  0  0  0  0  0  0  0  0  0
  196.7240  171.1870  144.2570 C   0  0  2  0  0  3  0  0  0  0  0  0
  196.9600  170.9130  145.7450 C   0  0  0  0  0  2  0  0  0  0  0  0
  196.2890  168.8070  144.7250 O   0  0  0  0  0  0  0  0  0  0  0  0
  196.5990  168.2610  145.8860 O   0  0  0  0  0  1  0  0  0  0  0  0
  194.4850  170.3790  145.5080 C   0  0  0  0  0  2  0  0  0  0  0  0
  193.5100  169.4480  144.8040 C   0  0  0  0  0  2  0  0  0  0  0  0
  191.2180  171.6040  141.8890 C   0  0  0  0  0  0  0  0  0  0  0  0
  192.7080  170.1980  143.8000 C   0  0  0  0  0  0  0  0  0  0  0  0
  192.4380  169.6200  142.5550 C   0  0  0  0  0  3  0  0  0  0  0  0
  191.4810  172.1800  143.1430 C   0  0  0  0  0  3  0  0  0  0  0  0
  191.6960  170.3220  141.6010 C   0  0  0  0  0  3  0  0  0  0  0  0
  192.2240  171.4770  144.0970 C   0  0  0  0  0  3  0  0  0  0  0  0
  190.4450  172.3460  140.8340 C   0  0  2  0  0  3  0  0  0  0  0  0
  191.1560  173.7220  138.8670 C   0  0  0  0  0  2  0  0  0  0  0  0
  190.1750  173.7260  137.8650 O   0  0  0  0  0  0  0  0  0  0  0  0
  190.4080  171.5570  138.4640 C   0  0  0  0  0  2  0  0  0  0  0  0
  191.1740  172.3470  139.4840 C   0  0  2  0  0  3  0  0  0  0  0  0
  190.1690  172.4640  137.3560 N   0  0  0  0  0  2  0  0  0  0  0  0
  190.1430  173.7750  141.2880 C   0  0  0  0  0  2  0  0  0  0  0  0
  188.1820  175.0500  140.8180 O   0  0  0  0  0  0  0  0  0  0  0  0
  188.6710  174.0180  141.3480 C   0  0  0  0  0  0  0  0  0  0  0  0
  187.8210  173.0800  141.9930 N   0  0  0  0  0  1  0  0  0  0  0  0
  194.4830  176.8020  146.0610 C   0  0  0  0  0  2  0  0  0  0  0  0
  193.1850  176.6930  146.8420 C   0  0  0  0  0  2  0  0  0  0  0  0
  192.5120  175.3660  146.5290 C   0  0  0  0  0  2  0  0  0  0  0  0
  191.6670  175.4680  145.2640 C   0  0  0  0  0  2  0  0  0  0  0  0
  190.2090  175.8770  145.4960 C   0  0  0  0  0  0  0  0  0  0  0  0
  189.3460  175.1840  146.5380 C   0  0  0  0  0  2  0  0  0  0  0  0
  189.2500  174.7840  145.0730 C   0  0  0  0  0  2  0  0  0  0  0  0
  189.7480  177.2290  144.9760 C   0  0  0  0  0  2  0  0  0  0  0  0
  189.0110  177.0760  143.6580 C   0  0  2  0  0  3  0  0  0  0  0  0
  189.9160  177.1970  142.6070 O   0  0  0  0  0  1  0  0  0  0  0  0
  187.9440  178.1520  143.5300 C   0  0  0  0  0  2  0  0  0  0  0  0
  185.7840  178.7740  144.2200 C   0  0  2  0  0  3  0  0  0  0  0  0
  184.4580  178.5020  143.5490 C   0  0  0  0  0  2  0  0  0  0  0  0
  186.0800  176.8740  142.8790 C   0  0  0  0  0  2  0  0  0  0  0  0
  186.6610  177.6300  143.9850 N   0  0  0  0  0  0  0  0  0  0  0  0
  184.8130  177.5720  142.4230 C   0  0  0  0  0  2  0  0  0  0  0  0
  185.6200  179.0500  145.7140 C   0  0  0  0  0  2  0  0  0  0  0  0
  186.6980  178.2710  147.8010 C   0  0  0  0  0  1  0  0  0  0  0  0
  185.9440  177.8330  146.5620 C   0  0  0  0  0  2  0  0  0  0  0  0
  1  4  1  0  0  0  0
  2  3  1  0  0  0  0
  4  2  2  0  0  0  0
  5  8  1  0  0  0  0
  6 33  1  0  0  0  0
  7  5  1  0  0  0  0
  7  1  2  0  0  0  0
  8  9  2  0  0  0  0
  9  2  1  0  0  0  0
  9  6  1  0  0  0  0
 10 15  1  1  0  0  0
 10 12  1  0  0  0  0
 11  4  1  1  0  0  0
 11 10  1  0  0  0  0
 11 12  1  0  0  0  0
 13 10  1  0  0  0  0
 13 14  1  0  0  0  0
 16 15  1  0  0  0  0
 17 20  1  0  0  0  0
 18 22  1  0  0  0  0
 18 16  1  0  0  0  0
 19 18  2  0  0  0  0
 20 22  2  0  0  0  0
 21 17  2  0  0  0  0
 21 19  1  0  0  0  0
 23 29  1  1  0  0  0
 23 17  1  0  0  0  0
 24 27  1  0  0  0  0
 25 24  1  0  0  0  0
 26 27  1  0  0  0  0
 27 23  1  1  0  0  0
 28 25  1  0  0  0  0
 28 26  1  0  0  0  0
 29 31  1  0  0  0  0
 30 31  2  0  0  0  0
 31 32  1  0  0  0  0
 33 34  1  0  0  0  0
 35 34  1  0  0  0  0
 36 37  1  0  0  0  0
 36 35  1  0  0  0  0
 37 38  1  0  0  0  0
 39 37  1  0  0  0  0
 39 38  1  0  0  0  0
 40 37  1  0  0  0  0
 41 42  1  6  0  0  0
 41 40  1  0  0  0  0
 43 41  1  0  0  0  0
 43 47  1  0  0  0  0
 44 49  1  1  0  0  0
 45 44  1  0  0  0  0
 46 47  1  0  0  0  0
 47 44  1  0  0  0  0
 48 46  1  0  0  0  0
 48 45  1  0  0  0  0
 49 51  1  0  0  0  0
 51 50  1  0  0  0  0
M  END
>  <MODEL>
9

>  <REMARK>
 VINA RESULT:      -5.9      2.689      4.501
  Name = 
  20 active torsions:
  status: ('A' for Active; 'I' for Inactive)
    1  A    between atoms: C_1  and  C_14
    2  A    between atoms: C_1  and  C_34
    3  A    between atoms: C_2  and  C_14
    4  A    between atoms: C_3  and  C_9
    5  A    between atoms: C_3  and  C_37
    6  A    between atoms: C_5  and  C_16
    7  A    between atoms: C_6  and  C_13
    8  A    between atoms: C_6  and  C_43
    9  A    between atoms: C_7  and  C_37
   10  A    between atoms: C_7  and  C_49
   11  A    between atoms: C_9  and  C_17
   12  A    between atoms: C_12  and  C_17
   13  A    between atoms: C_12  and  N_42
   14  A    between atoms: C_14  and  C_45
   15  A    between atoms: C_16  and  C_39
   16  A    between atoms: C_20  and  O_33
   17  A    between atoms: C_20  and  C_43
   18  A    between atoms: C_21  and  C_28
   19  A    between atoms: N_30  and  C_35
   20  A    between atoms: C_35  and  C_49
                            x       y       z     vdW  Elec       q    Type
                         _______ _______ _______ _____ _____    ______ ____

>  <TORSDO>
F 20

$$$$
