=
 OpenBabel11042418533D

 27 29  0  0  1  0  0  0  0  0999 V2000
  184.5020  178.6570  146.1820 C   0  0  0  0  0  3  0  0  0  0  0  0
  185.2670  178.6630  145.0170 C   0  0  0  0  0  3  0  0  0  0  0  0
  188.5150  177.1570  146.3730 C   0  0  1  0  0  3  0  0  0  0  0  0
  191.7180  176.4000  145.5000 C   0  0  0  0  0  0  0  0  0  0  0  0
  186.3110  177.7310  147.4040 C   0  0  0  0  0  3  0  0  0  0  0  0
  186.5870  178.1910  145.0420 C   0  0  0  0  0  0  0  0  0  0  0  0
  189.3820  177.4530  145.1760 C   0  0  0  0  0  0  0  0  0  0  0  0
  189.5090  175.0020  147.2630 C   0  0  0  0  0  3  0  0  0  0  0  0
  188.7940  177.9080  143.9060 C   0  0  0  0  0  0  0  0  0  0  0  0
  189.5140  178.0150  142.8750 O   0  0  0  0  0  0  0  0  0  0  0  0
  187.1160  177.7080  146.2590 C   0  0  0  0  0  0  0  0  0  0  0  0
  188.4930  175.6750  146.6890 C   0  0  0  0  0  3  0  0  0  0  0  0
  187.3980  178.2390  143.8490 N   0  0  0  0  0  0  0  0  0  0  0  0
  190.6030  177.0100  145.2370 C   0  0  0  0  0  0  0  0  0  0  0  0
  191.8050  175.6080  146.6550 O   0  0  0  0  0  0  0  0  0  0  0  0
  185.0360  178.1980  147.3440 N   0  0  0  0  0  0  0  0  0  0  0  0
  192.8700  176.4950  144.5630 C   0  0  0  0  0  1  0  0  0  0  0  0
  190.8150  175.6240  147.6970 C   0  0  0  0  0  2  0  0  0  0  0  0
  186.8120  178.6350  142.5710 C   0  0  0  0  0  2  0  0  0  0  0  0
  186.0350  177.4740  141.9730 C   0  0  0  0  0  2  0  0  0  0  0  0
  186.9970  176.4520  141.3960 C   0  0  0  0  0  2  0  0  0  0  0  0
  187.0670  175.2910  142.2690 N   0  0  0  0  0  2  0  0  0  0  0  0
  188.2910  174.2350  141.6480 S   0  0  0  0  0  0  0  0  0  0  0  0
  187.8520  172.8030  141.7880 O   0  0  0  0  0  0  0  0  0  0  0  0
  188.5450  174.5410  140.1970 O   0  0  0  0  0  0  0  0  0  0  0  0
  189.7930  174.4830  142.5640 C   0  0  0  0  0  2  0  0  0  0  0  0
  189.7120  173.7910  143.8370 N   0  0  0  0  0  1  0  0  0  0  0  0
  1 16  1  0  0  0  0
  2  6  1  0  0  0  0
  2  1  2  0  0  0  0
  3 12  1  6  0  0  0
  4 15  1  0  0  0  0
  6 11  2  0  0  0  0
  7 14  2  0  0  0  0
  7  3  1  0  0  0  0
  8 18  1  0  0  0  0
  9  7  1  0  0  0  0
 10  9  2  0  0  0  0
 11  3  1  0  0  0  0
 11  5  1  0  0  0  0
 12  8  2  0  0  0  0
 13  9  1  0  0  0  0
 13  6  1  0  0  0  0
 14  4  2  0  0  0  0
 15 18  1  0  0  0  0
 16  5  2  0  0  0  0
 17  4  1  0  0  0  0
 19 13  1  0  0  0  0
 20 19  1  0  0  0  0
 21 20  1  0  0  0  0
 21 22  1  0  0  0  0
 23 24  2  0  0  0  0
 23 22  1  0  0  0  0
 23 26  1  0  0  0  0
 25 23  2  0  0  0  0
 26 27  1  0  0  0  0
M  END
>  <MODEL>
1

>  <REMARK>
 VINA RESULT:      -7.4      0.000      0.000
  Name = 
  6 active torsions:
  status: ('A' for Active; 'I' for Inactive)
    1  A    between atoms: S_4  and  C_12
    2  A    between atoms: S_4  and  N_23
    3  A    between atoms: C_7  and  C_16
    4  A    between atoms: C_7  and  C_21
    5  A    between atoms: C_16  and  N_23
    6  A    between atoms: N_20  and  C_21
                            x       y       z     vdW  Elec       q    Type
                         _______ _______ _______ _____ _____    ______ ____

>  <TORSDO>
F 6

$$$$
=
 OpenBabel11042418533D

 27 29  0  0  1  0  0  0  0  0999 V2000
  189.6940  174.9350  147.0150 C   0  0  0  0  0  3  0  0  0  0  0  0
  189.9050  175.0520  145.6420 C   0  0  0  0  0  3  0  0  0  0  0  0
  186.7120  176.9230  144.6600 C   0  0  1  0  0  3  0  0  0  0  0  0
  184.9810  178.0950  141.9720 C   0  0  0  0  0  0  0  0  0  0  0  0
  187.6120  176.0530  146.8240 C   0  0  0  0  0  3  0  0  0  0  0  0
  188.9470  175.6850  144.8360 C   0  0  0  0  0  0  0  0  0  0  0  0
  186.8450  176.7650  143.1670 C   0  0  0  0  0  0  0  0  0  0  0  0
  185.5510  179.1650  144.8830 C   0  0  0  0  0  3  0  0  0  0  0  0
  188.0920  176.2700  142.5630 C   0  0  0  0  0  0  0  0  0  0  0  0
  188.2390  176.2770  141.3100 O   0  0  0  0  0  0  0  0  0  0  0  0
  187.7810  176.2030  145.4420 C   0  0  0  0  0  0  0  0  0  0  0  0
  186.6350  178.3830  145.0590 C   0  0  0  0  0  3  0  0  0  0  0  0
  189.1380  175.7670  143.4090 N   0  0  0  0  0  0  0  0  0  0  0  0
  185.9350  177.3570  142.4500 C   0  0  0  0  0  0  0  0  0  0  0  0
  184.2090  178.8660  142.8540 O   0  0  0  0  0  0  0  0  0  0  0  0
  188.5600  175.4310  147.5740 N   0  0  0  0  0  0  0  0  0  0  0  0
  184.7460  178.1680  140.5050 C   0  0  0  0  0  1  0  0  0  0  0  0
  184.2450  178.7020  144.2810 C   0  0  0  0  0  2  0  0  0  0  0  0
  190.3950  175.3300  142.8040 C   0  0  0  0  0  2  0  0  0  0  0  0
  191.3570  176.5000  142.7000 C   0  0  0  0  0  2  0  0  0  0  0  0
  192.6420  176.1790  143.4400 C   0  0  0  0  0  2  0  0  0  0  0  0
  192.7610  177.0260  144.6170 N   0  0  0  0  0  2  0  0  0  0  0  0
  194.2680  176.6550  145.3860 S   0  0  0  0  0  0  0  0  0  0  0  0
  194.9380  177.9240  145.8370 O   0  0  0  0  0  0  0  0  0  0  0  0
  194.0310  175.7640  146.5750 O   0  0  0  0  0  0  0  0  0  0  0  0
  195.3200  175.8110  144.2290 C   0  0  0  0  0  2  0  0  0  0  0  0
  196.2530  176.7520  143.6370 N   0  0  0  0  0  1  0  0  0  0  0  0
  1 16  1  0  0  0  0
  2  1  2  0  0  0  0
  3 12  1  6  0  0  0
  3 11  1  0  0  0  0
  4 14  2  0  0  0  0
  4 15  1  0  0  0  0
  5 16  2  0  0  0  0
  6 11  2  0  0  0  0
  6  2  1  0  0  0  0
  7  3  1  0  0  0  0
  8 12  2  0  0  0  0
  9  7  1  0  0  0  0
  9 13  1  0  0  0  0
 10  9  2  0  0  0  0
 11  5  1  0  0  0  0
 13  6  1  0  0  0  0
 14  7  2  0  0  0  0
 15 18  1  0  0  0  0
 17  4  1  0  0  0  0
 18  8  1  0  0  0  0
 19 13  1  0  0  0  0
 20 19  1  0  0  0  0
 20 21  1  0  0  0  0
 21 22  1  0  0  0  0
 22 23  1  0  0  0  0
 23 24  2  0  0  0  0
 23 25  2  0  0  0  0
 26 23  1  0  0  0  0
 27 26  1  0  0  0  0
M  END
>  <MODEL>
2

>  <REMARK>
 VINA RESULT:      -6.8      3.002      5.988
  Name = 
  6 active torsions:
  status: ('A' for Active; 'I' for Inactive)
    1  A    between atoms: S_4  and  C_12
    2  A    between atoms: S_4  and  N_23
    3  A    between atoms: C_7  and  C_16
    4  A    between atoms: C_7  and  C_21
    5  A    between atoms: C_16  and  N_23
    6  A    between atoms: N_20  and  C_21
                            x       y       z     vdW  Elec       q    Type
                         _______ _______ _______ _____ _____    ______ ____

>  <TORSDO>
F 6

$$$$
=
 OpenBabel11042418533D

 27 29  0  0  1  0  0  0  0  0999 V2000
  189.9430  174.9030  146.4210 C   0  0  0  0  0  3  0  0  0  0  0  0
  189.7720  174.9910  145.0400 C   0  0  0  0  0  3  0  0  0  0  0  0
  186.5000  176.9770  144.9240 C   0  0  1  0  0  3  0  0  0  0  0  0
  184.1400  178.1810  142.7850 C   0  0  0  0  0  0  0  0  0  0  0  0
  187.9300  176.1020  146.7800 C   0  0  0  0  0  3  0  0  0  0  0  0
  188.6520  175.6510  144.5120 C   0  0  0  0  0  0  0  0  0  0  0  0
  186.2120  176.7920  143.4560 C   0  0  0  0  0  0  0  0  0  0  0  0
  185.5270  179.2680  145.4010 C   0  0  0  0  0  3  0  0  0  0  0  0
  187.2270  176.2370  142.5460 C   0  0  0  0  0  0  0  0  0  0  0  0
  187.0230  176.2200  141.3020 O   0  0  0  0  0  0  0  0  0  0  0  0
  187.7170  176.2260  145.4010 C   0  0  0  0  0  0  0  0  0  0  0  0
  186.5880  178.4450  145.2920 C   0  0  0  0  0  3  0  0  0  0  0  0
  188.4470  175.7040  143.0850 N   0  0  0  0  0  0  0  0  0  0  0  0
  185.1620  177.4110  143.0020 C   0  0  0  0  0  0  0  0  0  0  0  0
  183.6680  178.9950  143.8260 O   0  0  0  0  0  0  0  0  0  0  0  0
  189.0240  175.4520  147.2570 N   0  0  0  0  0  0  0  0  0  0  0  0
  183.5130  178.2410  141.4380 C   0  0  0  0  0  1  0  0  0  0  0  0
  184.0900  178.8510  145.1920 C   0  0  0  0  0  2  0  0  0  0  0  0
  189.4710  175.2060  142.1700 C   0  0  0  0  0  2  0  0  0  0  0  0
  189.2080  173.7470  141.8390 C   0  0  0  0  0  2  0  0  0  0  0  0
  190.3900  173.1690  141.0820 C   0  0  0  0  0  2  0  0  0  0  0  0
  189.9170  172.3320  139.9900 N   0  0  0  0  0  2  0  0  0  0  0  0
  190.6540  172.9000  138.5290 S   0  0  0  0  0  0  0  0  0  0  0  0
  191.8040  173.8120  138.8580 O   0  0  0  0  0  0  0  0  0  0  0  0
  191.1540  171.7350  137.7200 O   0  0  0  0  0  0  0  0  0  0  0  0
  189.4480  173.7930  137.5770 C   0  0  0  0  0  2  0  0  0  0  0  0
  188.2330  173.9570  138.3530 N   0  0  0  0  0  1  0  0  0  0  0  0
  1 16  1  0  0  0  0
  2  1  2  0  0  0  0
  3 12  1  6  0  0  0
  3 11  1  0  0  0  0
  4 14  2  0  0  0  0
  4 15  1  0  0  0  0
  5 16  2  0  0  0  0
  6  2  1  0  0  0  0
  6 11  2  0  0  0  0
  7  3  1  0  0  0  0
  9 13  1  0  0  0  0
  9  7  1  0  0  0  0
 10  9  2  0  0  0  0
 11  5  1  0  0  0  0
 12  8  2  0  0  0  0
 13  6  1  0  0  0  0
 14  7  2  0  0  0  0
 15 18  1  0  0  0  0
 17  4  1  0  0  0  0
 18  8  1  0  0  0  0
 19 13  1  0  0  0  0
 20 19  1  0  0  0  0
 21 20  1  0  0  0  0
 22 21  1  0  0  0  0
 23 24  2  0  0  0  0
 23 22  1  0  0  0  0
 25 23  2  0  0  0  0
 26 27  1  0  0  0  0
 26 23  1  0  0  0  0
M  END
>  <MODEL>
3

>  <REMARK>
 VINA RESULT:      -6.4      2.805      5.366
  Name = 
  6 active torsions:
  status: ('A' for Active; 'I' for Inactive)
    1  A    between atoms: S_4  and  C_12
    2  A    between atoms: S_4  and  N_23
    3  A    between atoms: C_7  and  C_16
    4  A    between atoms: C_7  and  C_21
    5  A    between atoms: C_16  and  N_23
    6  A    between atoms: N_20  and  C_21
                            x       y       z     vdW  Elec       q    Type
                         _______ _______ _______ _____ _____    ______ ____

>  <TORSDO>
F 6

$$$$
=
 OpenBabel11042418533D

 27 29  0  0  1  0  0  0  0  0999 V2000
  190.0300  175.0140  146.4180 C   0  0  0  0  0  3  0  0  0  0  0  0
  189.8860  175.1140  145.0350 C   0  0  0  0  0  3  0  0  0  0  0  0
  186.5520  176.9910  144.8730 C   0  0  1  0  0  3  0  0  0  0  0  0
  184.1980  178.1420  142.6990 C   0  0  0  0  0  0  0  0  0  0  0  0
  187.9700  176.1400  146.7480 C   0  0  0  0  0  3  0  0  0  0  0  0
  188.7560  175.7430  144.4910 C   0  0  0  0  0  0  0  0  0  0  0  0
  186.3010  176.8150  143.3970 C   0  0  0  0  0  0  0  0  0  0  0  0
  185.4920  179.2410  145.3570 C   0  0  0  0  0  3  0  0  0  0  0  0
  187.3530  176.3070  142.5030 C   0  0  0  0  0  0  0  0  0  0  0  0
  187.1760  176.2990  141.2540 O   0  0  0  0  0  0  0  0  0  0  0  0
  187.7830  176.2740  145.3670 C   0  0  0  0  0  0  0  0  0  0  0  0
  186.5820  178.4550  145.2610 C   0  0  0  0  0  3  0  0  0  0  0  0
  188.5790  175.8080  143.0610 N   0  0  0  0  0  0  0  0  0  0  0  0
  185.2400  177.4040  142.9280 C   0  0  0  0  0  0  0  0  0  0  0  0
  183.6770  178.9260  143.7390 O   0  0  0  0  0  0  0  0  0  0  0  0
  189.0760  175.5210  147.2400 N   0  0  0  0  0  0  0  0  0  0  0  0
  183.5980  178.1990  141.3390 C   0  0  0  0  0  1  0  0  0  0  0  0
  184.0740  178.7780  145.1120 C   0  0  0  0  0  2  0  0  0  0  0  0
  189.6390  175.3570  142.1620 C   0  0  0  0  0  2  0  0  0  0  0  0
  189.5180  173.8610  141.9240 C   0  0  0  0  0  2  0  0  0  0  0  0
  190.8920  173.2650  141.6840 C   0  0  0  0  0  2  0  0  0  0  0  0
  191.9200  174.2090  142.0940 N   0  0  0  0  0  2  0  0  0  0  0  0
  192.8910  173.4410  143.3050 S   0  0  0  0  0  0  0  0  0  0  0  0
  192.0570  172.4610  144.0830 O   0  0  0  0  0  0  0  0  0  0  0  0
  194.0410  172.7190  142.6590 O   0  0  0  0  0  0  0  0  0  0  0  0
  193.5290  174.6790  144.4090 C   0  0  0  0  0  2  0  0  0  0  0  0
  193.4350  175.9870  143.7890 N   0  0  0  0  0  1  0  0  0  0  0  0
  1 16  1  0  0  0  0
  2  1  2  0  0  0  0
  3 12  1  6  0  0  0
  3 11  1  0  0  0  0
  4 14  2  0  0  0  0
  4 15  1  0  0  0  0
  5 16  2  0  0  0  0
  6  2  1  0  0  0  0
  6 11  2  0  0  0  0
  7  3  1  0  0  0  0
  9 13  1  0  0  0  0
  9  7  1  0  0  0  0
 10  9  2  0  0  0  0
 11  5  1  0  0  0  0
 12  8  2  0  0  0  0
 13  6  1  0  0  0  0
 14  7  2  0  0  0  0
 15 18  1  0  0  0  0
 17  4  1  0  0  0  0
 18  8  1  0  0  0  0
 19 13  1  0  0  0  0
 20 19  1  0  0  0  0
 21 20  1  0  0  0  0
 21 22  1  0  0  0  0
 22 23  1  0  0  0  0
 23 24  2  0  0  0  0
 23 26  1  0  0  0  0
 25 23  2  0  0  0  0
 27 26  1  0  0  0  0
M  END
>  <MODEL>
4

>  <REMARK>
 VINA RESULT:      -6.4      2.708      5.386
  Name = 
  6 active torsions:
  status: ('A' for Active; 'I' for Inactive)
    1  A    between atoms: S_4  and  C_12
    2  A    between atoms: S_4  and  N_23
    3  A    between atoms: C_7  and  C_16
    4  A    between atoms: C_7  and  C_21
    5  A    between atoms: C_16  and  N_23
    6  A    between atoms: N_20  and  C_21
                            x       y       z     vdW  Elec       q    Type
                         _______ _______ _______ _____ _____    ______ ____

>  <TORSDO>
F 6

$$$$
=
 OpenBabel11042418533D

 27 29  0  0  1  0  0  0  0  0999 V2000
  185.9370  177.9480  147.9910 C   0  0  0  0  0  3  0  0  0  0  0  0
  187.0510  177.2080  147.5960 C   0  0  0  0  0  3  0  0  0  0  0  0
  186.4610  177.1300  143.8140 C   0  0  1  0  0  3  0  0  0  0  0  0
  187.6750  175.8240  140.9130 C   0  0  0  0  0  0  0  0  0  0  0  0
  185.2060  178.1100  145.7410 C   0  0  0  0  0  3  0  0  0  0  0  0
  187.2510  176.9100  146.2400 C   0  0  0  0  0  0  0  0  0  0  0  0
  187.5030  176.0940  143.4760 C   0  0  0  0  0  0  0  0  0  0  0  0
  186.4520  178.6070  141.7540 C   0  0  0  0  0  3  0  0  0  0  0  0
  188.4980  175.6640  144.4710 C   0  0  0  0  0  0  0  0  0  0  0  0
  189.4470  174.9050  144.1330 O   0  0  0  0  0  0  0  0  0  0  0  0
  186.3130  177.3790  145.2940 C   0  0  0  0  0  0  0  0  0  0  0  0
  186.7030  178.4250  143.0660 C   0  0  0  0  0  3  0  0  0  0  0  0
  188.3760  176.1050  145.8320 N   0  0  0  0  0  0  0  0  0  0  0  0
  187.6550  175.8350  142.2100 C   0  0  0  0  0  0  0  0  0  0  0  0
  186.8890  176.7520  140.2120 O   0  0  0  0  0  0  0  0  0  0  0  0
  185.0420  178.3780  147.0640 N   0  0  0  0  0  0  0  0  0  0  0  0
  188.5580  174.8790  140.1790 C   0  0  0  0  0  1  0  0  0  0  0  0
  185.8740  177.5550  140.8360 C   0  0  0  0  0  2  0  0  0  0  0  0
  189.4000  175.7180  146.8000 C   0  0  0  0  0  2  0  0  0  0  0  0
  190.5630  176.6950  146.7450 C   0  0  0  0  0  2  0  0  0  0  0  0
  191.8390  175.9570  146.3850 C   0  0  0  0  0  2  0  0  0  0  0  0
  192.4330  176.5460  145.1960 N   0  0  0  0  0  2  0  0  0  0  0  0
  194.1530  176.5270  145.3990 S   0  0  0  0  0  0  0  0  0  0  0  0
  194.6450  177.9100  145.7270 O   0  0  0  0  0  0  0  0  0  0  0  0
  194.5280  175.5850  146.5100 O   0  0  0  0  0  0  0  0  0  0  0  0
  194.9110  175.9750  143.8890 C   0  0  0  0  0  2  0  0  0  0  0  0
  196.1740  176.6620  143.6930 N   0  0  0  0  0  1  0  0  0  0  0  0
  2  1  1  0  0  0  0
  3 12  1  6  0  0  0
  3 11  1  0  0  0  0
  4 14  2  0  0  0  0
  5 16  1  0  0  0  0
  6  2  2  0  0  0  0
  7  3  1  0  0  0  0
  7  9  1  0  0  0  0
  8 12  2  0  0  0  0
  9 13  1  0  0  0  0
 10  9  2  0  0  0  0
 11  5  2  0  0  0  0
 11  6  1  0  0  0  0
 13  6  1  0  0  0  0
 13 19  1  0  0  0  0
 14  7  2  0  0  0  0
 15 18  1  0  0  0  0
 15  4  1  0  0  0  0
 16  1  2  0  0  0  0
 17  4  1  0  0  0  0
 18  8  1  0  0  0  0
 20 19  1  0  0  0  0
 21 20  1  0  0  0  0
 22 23  1  0  0  0  0
 22 21  1  0  0  0  0
 23 24  2  0  0  0  0
 23 25  2  0  0  0  0
 26 23  1  0  0  0  0
 27 26  1  0  0  0  0
M  END
>  <MODEL>
5

>  <REMARK>
 VINA RESULT:      -6.3      2.764      5.616
  Name = 
  6 active torsions:
  status: ('A' for Active; 'I' for Inactive)
    1  A    between atoms: S_4  and  C_12
    2  A    between atoms: S_4  and  N_23
    3  A    between atoms: C_7  and  C_16
    4  A    between atoms: C_7  and  C_21
    5  A    between atoms: C_16  and  N_23
    6  A    between atoms: N_20  and  C_21
                            x       y       z     vdW  Elec       q    Type
                         _______ _______ _______ _____ _____    ______ ____

>  <TORSDO>
F 6

$$$$
=
 OpenBabel11042418533D

 27 29  0  0  1  0  0  0  0  0999 V2000
  189.3830  174.4080  141.2850 C   0  0  0  0  0  3  0  0  0  0  0  0
  189.5120  174.3880  142.6720 C   0  0  0  0  0  3  0  0  0  0  0  0
  187.0570  177.1810  143.5860 C   0  0  1  0  0  3  0  0  0  0  0  0
  185.8700  178.9850  146.2180 C   0  0  0  0  0  0  0  0  0  0  0  0
  187.8180  176.1840  141.4230 C   0  0  0  0  0  3  0  0  0  0  0  0
  188.7770  175.2870  143.4590 C   0  0  0  0  0  0  0  0  0  0  0  0
  187.4460  177.3150  145.0360 C   0  0  0  0  0  0  0  0  0  0  0  0
  184.5870  177.7500  143.6150 C   0  0  0  0  0  3  0  0  0  0  0  0
  188.3150  176.3210  145.6850 C   0  0  0  0  0  0  0  0  0  0  0  0
  188.5160  176.3690  146.9300 O   0  0  0  0  0  0  0  0  0  0  0  0
  187.9060  176.1980  142.8200 C   0  0  0  0  0  0  0  0  0  0  0  0
  185.5830  176.8600  143.4340 C   0  0  0  0  0  3  0  0  0  0  0  0
  188.9420  175.3020  144.8920 N   0  0  0  0  0  0  0  0  0  0  0  0
  186.7500  178.1640  145.7330 C   0  0  0  0  0  0  0  0  0  0  0  0
  184.8170  179.4180  145.3970 O   0  0  0  0  0  0  0  0  0  0  0  0
  188.5480  175.3010  140.6920 N   0  0  0  0  0  0  0  0  0  0  0  0
  185.9430  179.4180  147.6390 C   0  0  0  0  0  1  0  0  0  0  0  0
  184.7880  179.2030  143.9760 C   0  0  0  0  0  2  0  0  0  0  0  0
  189.7580  174.2860  145.5530 C   0  0  0  0  0  2  0  0  0  0  0  0
  190.9560  174.9360  146.2240 C   0  0  0  0  0  2  0  0  0  0  0  0
  192.1040  175.0420  145.2380 C   0  0  0  0  0  2  0  0  0  0  0  0
  192.5330  176.4280  145.1260 N   0  0  0  0  0  2  0  0  0  0  0  0
  194.2430  176.4760  145.3980 S   0  0  0  0  0  0  0  0  0  0  0  0
  194.6640  177.8730  145.7640 O   0  0  0  0  0  0  0  0  0  0  0  0
  194.6120  175.5340  146.5110 O   0  0  0  0  0  0  0  0  0  0  0  0
  195.0830  175.9770  143.9140 C   0  0  0  0  0  2  0  0  0  0  0  0
  195.6080  174.6340  144.0740 N   0  0  0  0  0  1  0  0  0  0  0  0
  1  2  1  0  0  0  0
  2  6  2  0  0  0  0
  3 12  1  1  0  0  0
  3  7  1  0  0  0  0
  4 17  1  0  0  0  0
  5 11  2  0  0  0  0
  6 13  1  0  0  0  0
  7  9  1  0  0  0  0
  7 14  2  0  0  0  0
  8 18  1  0  0  0  0
  9 10  2  0  0  0  0
 11  6  1  0  0  0  0
 11  3  1  0  0  0  0
 12  8  2  0  0  0  0
 13 19  1  0  0  0  0
 13  9  1  0  0  0  0
 14  4  2  0  0  0  0
 15  4  1  0  0  0  0
 16  1  2  0  0  0  0
 16  5  1  0  0  0  0
 18 15  1  0  0  0  0
 19 20  1  0  0  0  0
 21 20  1  0  0  0  0
 22 21  1  0  0  0  0
 22 23  1  0  0  0  0
 23 24  2  0  0  0  0
 23 25  2  0  0  0  0
 26 27  1  0  0  0  0
 26 23  1  0  0  0  0
M  END
>  <MODEL>
6

>  <REMARK>
 VINA RESULT:      -6.2      3.109      6.288
  Name = 
  6 active torsions:
  status: ('A' for Active; 'I' for Inactive)
    1  A    between atoms: S_4  and  C_12
    2  A    between atoms: S_4  and  N_23
    3  A    between atoms: C_7  and  C_16
    4  A    between atoms: C_7  and  C_21
    5  A    between atoms: C_16  and  N_23
    6  A    between atoms: N_20  and  C_21
                            x       y       z     vdW  Elec       q    Type
                         _______ _______ _______ _____ _____    ______ ____

>  <TORSDO>
F 6

$$$$
=
 OpenBabel11042418533D

 27 29  0  0  1  0  0  0  0  0999 V2000
  192.2880  175.5870  147.1490 C   0  0  0  0  0  3  0  0  0  0  0  0
  192.0560  176.1730  145.9060 C   0  0  0  0  0  3  0  0  0  0  0  0
  188.2530  176.5840  146.0920 C   0  0  1  0  0  3  0  0  0  0  0  0
  185.5450  177.5560  144.2710 C   0  0  0  0  0  0  0  0  0  0  0  0
  189.9700  175.6400  147.6450 C   0  0  0  0  0  3  0  0  0  0  0  0
  190.7480  176.5030  145.5190 C   0  0  0  0  0  0  0  0  0  0  0  0
  188.0250  176.9380  144.6440 C   0  0  0  0  0  0  0  0  0  0  0  0
  186.4320  177.8870  147.2790 C   0  0  0  0  0  3  0  0  0  0  0  0
  189.1510  177.2570  143.7530 C   0  0  0  0  0  0  0  0  0  0  0  0
  188.9360  177.6880  142.5870 O   0  0  0  0  0  0  0  0  0  0  0  0
  189.6850  176.2390  146.4110 C   0  0  0  0  0  0  0  0  0  0  0  0
  187.7350  177.6680  147.0160 C   0  0  0  0  0  3  0  0  0  0  0  0
  190.4970  177.0660  144.2150 N   0  0  0  0  0  0  0  0  0  0  0  0
  186.7990  177.2290  144.3180 C   0  0  0  0  0  0  0  0  0  0  0  0
  184.8090  177.6040  145.4650 O   0  0  0  0  0  0  0  0  0  0  0  0
  191.2490  175.3310  147.9860 N   0  0  0  0  0  0  0  0  0  0  0  0
  184.9100  177.9290  142.9790 C   0  0  0  0  0  1  0  0  0  0  0  0
  185.2920  177.0750  146.7100 C   0  0  0  0  0  2  0  0  0  0  0  0
  191.6090  177.4390  143.3430 C   0  0  0  0  0  2  0  0  0  0  0  0
  192.2120  176.1980  142.7090 C   0  0  0  0  0  2  0  0  0  0  0  0
  193.6990  176.4030  142.4860 C   0  0  0  0  0  2  0  0  0  0  0  0
  194.4140  175.1630  142.7490 N   0  0  0  0  0  2  0  0  0  0  0  0
  195.4290  175.4210  144.1290 S   0  0  0  0  0  0  0  0  0  0  0  0
  195.2660  176.8300  144.6290 O   0  0  0  0  0  0  0  0  0  0  0  0
  195.0630  174.4550  145.2230 O   0  0  0  0  0  0  0  0  0  0  0  0
  197.1230  175.1530  143.6620 C   0  0  0  0  0  2  0  0  0  0  0  0
  197.7660  174.2790  144.6250 N   0  0  0  0  0  1  0  0  0  0  0  0
  1 16  1  0  0  0  0
  2  1  2  0  0  0  0
  3 11  1  0  0  0  0
  3 12  1  1  0  0  0
  4 14  2  0  0  0  0
  4 15  1  0  0  0  0
  5 16  2  0  0  0  0
  6  2  1  0  0  0  0
  6 11  2  0  0  0  0
  7  3  1  0  0  0  0
  9 13  1  0  0  0  0
  9  7  1  0  0  0  0
 10  9  2  0  0  0  0
 11  5  1  0  0  0  0
 12  8  2  0  0  0  0
 13  6  1  0  0  0  0
 14  7  2  0  0  0  0
 15 18  1  0  0  0  0
 17  4  1  0  0  0  0
 18  8  1  0  0  0  0
 19 13  1  0  0  0  0
 20 19  1  0  0  0  0
 21 20  1  0  0  0  0
 21 22  1  0  0  0  0
 22 23  1  0  0  0  0
 23 24  2  0  0  0  0
 23 25  2  0  0  0  0
 26 23  1  0  0  0  0
 26 27  1  0  0  0  0
M  END
>  <MODEL>
7

>  <REMARK>
 VINA RESULT:      -6.2      3.304      5.964
  Name = 
  6 active torsions:
  status: ('A' for Active; 'I' for Inactive)
    1  A    between atoms: S_4  and  C_12
    2  A    between atoms: S_4  and  N_23
    3  A    between atoms: C_7  and  C_16
    4  A    between atoms: C_7  and  C_21
    5  A    between atoms: C_16  and  N_23
    6  A    between atoms: N_20  and  C_21
                            x       y       z     vdW  Elec       q    Type
                         _______ _______ _______ _____ _____    ______ ____

>  <TORSDO>
F 6

$$$$
=
 OpenBabel11042418533D

 27 29  0  0  1  0  0  0  0  0999 V2000
  186.2390  177.6320  139.6930 C   0  0  0  0  0  3  0  0  0  0  0  0
  187.1420  176.6310  140.0460 C   0  0  0  0  0  3  0  0  0  0  0  0
  187.0760  177.0190  143.8550 C   0  0  1  0  0  3  0  0  0  0  0  0
  188.5210  175.8730  146.7160 C   0  0  0  0  0  0  0  0  0  0  0  0
  185.9330  178.2050  141.9740 C   0  0  0  0  0  3  0  0  0  0  0  0
  187.4510  176.4080  141.3960 C   0  0  0  0  0  0  0  0  0  0  0  0
  188.2600  176.1390  144.1600 C   0  0  0  0  0  0  0  0  0  0  0  0
  185.5900  176.6810  145.8800 C   0  0  0  0  0  3  0  0  0  0  0  0
  188.8570  175.2800  143.1250 C   0  0  0  0  0  0  0  0  0  0  0  0
  189.7530  174.4460  143.4300 O   0  0  0  0  0  0  0  0  0  0  0  0
  186.8260  177.2060  142.3790 C   0  0  0  0  0  0  0  0  0  0  0  0
  185.8260  176.5340  144.5610 C   0  0  0  0  0  3  0  0  0  0  0  0
  188.4200  175.4040  141.7630 N   0  0  0  0  0  0  0  0  0  0  0  0
  188.5240  175.9600  145.4220 C   0  0  0  0  0  0  0  0  0  0  0  0
  187.4710  176.4610  147.4370 O   0  0  0  0  0  0  0  0  0  0  0  0
  185.6590  178.3960  140.6560 N   0  0  0  0  0  0  0  0  0  0  0  0
  189.5860  175.1120  147.4240 C   0  0  0  0  0  1  0  0  0  0  0  0
  186.5240  177.3680  146.8490 C   0  0  0  0  0  2  0  0  0  0  0  0
  188.9780  174.5090  140.7520 C   0  0  0  0  0  2  0  0  0  0  0  0
  188.1480  173.2380  140.6670 C   0  0  0  0  0  2  0  0  0  0  0  0
  188.2660  172.6370  139.2790 C   0  0  0  0  0  2  0  0  0  0  0  0
  188.0630  173.6690  138.2740 N   0  0  0  0  0  2  0  0  0  0  0  0
  189.3180  173.5100  137.0910 S   0  0  0  0  0  0  0  0  0  0  0  0
  190.6600  173.7190  137.7380 O   0  0  0  0  0  0  0  0  0  0  0  0
  189.2690  172.1400  136.4720 O   0  0  0  0  0  0  0  0  0  0  0  0
  189.0790  174.7300  135.8210 C   0  0  0  0  0  2  0  0  0  0  0  0
  187.9360  175.5620  136.1490 N   0  0  0  0  0  1  0  0  0  0  0  0
  1  2  2  0  0  0  0
  1 16  1  0  0  0  0
  2  6  1  0  0  0  0
  3  7  1  0  0  0  0
  3 12  1  6  0  0  0
  4 17  1  0  0  0  0
  4 15  1  0  0  0  0
  5 11  1  0  0  0  0
  6 13  1  0  0  0  0
  6 11  2  0  0  0  0
  7 14  2  0  0  0  0
  8 18  1  0  0  0  0
  9 10  2  0  0  0  0
  9  7  1  0  0  0  0
 11  3  1  0  0  0  0
 12  8  2  0  0  0  0
 13  9  1  0  0  0  0
 14  4  2  0  0  0  0
 16  5  2  0  0  0  0
 18 15  1  0  0  0  0
 19 13  1  0  0  0  0
 20 19  1  0  0  0  0
 21 20  1  0  0  0  0
 22 21  1  0  0  0  0
 23 24  2  0  0  0  0
 23 22  1  0  0  0  0
 25 23  2  0  0  0  0
 26 27  1  0  0  0  0
 26 23  1  0  0  0  0
M  END
>  <MODEL>
8

>  <REMARK>
 VINA RESULT:      -6.2      3.036      4.769
  Name = 
  6 active torsions:
  status: ('A' for Active; 'I' for Inactive)
    1  A    between atoms: S_4  and  C_12
    2  A    between atoms: S_4  and  N_23
    3  A    between atoms: C_7  and  C_16
    4  A    between atoms: C_7  and  C_21
    5  A    between atoms: C_16  and  N_23
    6  A    between atoms: N_20  and  C_21
                            x       y       z     vdW  Elec       q    Type
                         _______ _______ _______ _____ _____    ______ ____

>  <TORSDO>
F 6

$$$$
=
 OpenBabel11042418533D

 27 29  0  0  1  0  0  0  0  0999 V2000
  190.1930  177.4580  145.6880 C   0  0  0  0  0  3  0  0  0  0  0  0
  189.2510  177.5940  144.6690 C   0  0  0  0  0  3  0  0  0  0  0  0
  190.0160  174.4230  142.6630 C   0  0  1  0  0  3  0  0  0  0  0  0
  189.1910  172.7650  139.8050 C   0  0  0  0  0  0  0  0  0  0  0  0
  190.9840  175.4370  144.7330 C   0  0  0  0  0  3  0  0  0  0  0  0
  189.1710  176.6280  143.6550 C   0  0  0  0  0  0  0  0  0  0  0  0
  189.1960  174.7620  141.4440 C   0  0  0  0  0  0  0  0  0  0  0  0
  189.8490  171.8960  142.7640 C   0  0  0  0  0  3  0  0  0  0  0  0
  188.2510  175.8900  141.4530 C   0  0  0  0  0  0  0  0  0  0  0  0
  187.4710  176.0740  140.4780 O   0  0  0  0  0  0  0  0  0  0  0  0
  190.0490  175.5230  143.6940 C   0  0  0  0  0  0  0  0  0  0  0  0
  189.5760  173.1110  143.2810 C   0  0  0  0  0  3  0  0  0  0  0  0
  188.2300  176.7880  142.5730 N   0  0  0  0  0  0  0  0  0  0  0  0
  189.1500  173.8480  140.5200 C   0  0  0  0  0  0  0  0  0  0  0  0
  189.8260  171.6280  140.3280 O   0  0  0  0  0  0  0  0  0  0  0  0
  191.0360  176.3930  145.6980 N   0  0  0  0  0  0  0  0  0  0  0  0
  188.5280  172.7130  138.4750 C   0  0  0  0  0  1  0  0  0  0  0  0
  190.6490  171.6580  141.5060 C   0  0  0  0  0  2  0  0  0  0  0  0
  187.2500  177.8720  142.5980 C   0  0  0  0  0  2  0  0  0  0  0  0
  185.9040  177.3460  143.0660 C   0  0  0  0  0  2  0  0  0  0  0  0
  185.0770  178.4830  143.6370 C   0  0  0  0  0  2  0  0  0  0  0  0
  185.7970  179.1190  144.7290 N   0  0  0  0  0  2  0  0  0  0  0  0
  185.1020  178.5650  146.2160 S   0  0  0  0  0  0  0  0  0  0  0  0
  185.6060  179.4030  147.3590 O   0  0  0  0  0  0  0  0  0  0  0  0
  183.6020  178.6610  146.1480 O   0  0  0  0  0  0  0  0  0  0  0  0
  185.5640  176.8700  146.4780 C   0  0  0  0  0  2  0  0  0  0  0  0
  186.8550  176.8080  147.1390 N   0  0  0  0  0  1  0  0  0  0  0  0
  1 16  1  0  0  0  0
  2  1  2  0  0  0  0
  3 12  1  1  0  0  0
  3 11  1  0  0  0  0
  4 15  1  0  0  0  0
  4 14  2  0  0  0  0
  5 16  2  0  0  0  0
  6 11  2  0  0  0  0
  6  2  1  0  0  0  0
  7  9  1  0  0  0  0
  7  3  1  0  0  0  0
  8 12  2  0  0  0  0
  9 13  1  0  0  0  0
 10  9  2  0  0  0  0
 11  5  1  0  0  0  0
 13 19  1  0  0  0  0
 13  6  1  0  0  0  0
 14  7  2  0  0  0  0
 15 18  1  0  0  0  0
 17  4  1  0  0  0  0
 18  8  1  0  0  0  0
 19 20  1  0  0  0  0
 20 21  1  0  0  0  0
 21 22  1  0  0  0  0
 22 23  1  0  0  0  0
 23 26  1  0  0  0  0
 23 24  2  0  0  0  0
 25 23  2  0  0  0  0
 26 27  1  0  0  0  0
M  END
>  <MODEL>
9

>  <REMARK>
 VINA RESULT:      -6.1      2.997      5.650
  Name = 
  6 active torsions:
  status: ('A' for Active; 'I' for Inactive)
    1  A    between atoms: S_4  and  C_12
    2  A    between atoms: S_4  and  N_23
    3  A    between atoms: C_7  and  C_16
    4  A    between atoms: C_7  and  C_21
    5  A    between atoms: C_16  and  N_23
    6  A    between atoms: N_20  and  C_21
                            x       y       z     vdW  Elec       q    Type
                         _______ _______ _______ _____ _____    ______ ____

>  <TORSDO>
F 6

$$$$
