=
 OpenBabel11042417243D

 56 63  0  0  1  0  0  0  0  0999 V2000
  191.9710  172.4060  143.6450 C   0  0  2  0  0  3  0  0  0  0  0  0
  193.1090  176.4460  145.3620 O   0  0  0  0  0  0  0  0  0  0  0  0
  189.9820  173.3390  144.8680 C   0  0  0  0  0  2  0  0  0  0  0  0
  192.0120  175.8330  145.2700 C   0  0  0  0  0  0  0  0  0  0  0  0
  191.2640  176.6600  147.3490 O   0  0  0  0  0  0  0  0  0  0  0  0
  191.4710  173.5000  144.5930 C   0  0  2  0  0  3  0  0  0  0  0  0
  190.9690  176.0410  146.2910 C   0  0  0  0  0  0  0  0  0  0  0  0
  191.7980  174.9120  144.1120 C   0  0  0  0  0  2  0  0  0  0  0  0
  189.5890  173.9740  146.1950 C   0  0  0  0  0  2  0  0  0  0  0  0
  189.5780  175.4920  146.0910 C   0  0  1  0  0  3  0  0  0  0  0  0
  188.5860  176.0460  147.1040 C   0  0  0  0  0  2  0  0  0  0  0  0
  188.3580  177.4630  146.8640 N   0  0  0  0  0  2  0  0  0  0  0  0
  187.0320  177.7750  147.3830 C   0  0  1  0  0  3  0  0  0  0  0  0
  187.1060  179.0380  148.2280 C   0  0  0  0  0  1  0  0  0  0  0  0
  185.9730  177.8600  146.2600 C   0  0  0  0  0  0  0  0  0  0  0  0
  185.0370  179.0150  146.5690 C   0  0  0  0  0  1  0  0  0  0  0  0
  185.1080  176.5980  146.2160 C   0  0  0  0  0  1  0  0  0  0  0  0
  186.6390  178.1890  144.9840 N   0  0  0  0  0  2  0  0  0  0  0  0
  185.4030  180.3190  143.9830 O   0  0  0  0  0  0  0  0  0  0  0  0
  184.3060  178.1520  143.6480 O   0  0  0  0  0  0  0  0  0  0  0  0
  185.6320  178.8580  143.7210 S   0  0  0  0  0  0  0  0  0  0  0  0
  187.4800  177.7000  142.2690 O   0  0  0  0  0  0  0  0  0  0  0  0
  187.5160  177.0210  141.0350 C   0  0  0  0  0  2  0  0  0  0  0  0
  186.3830  177.4990  140.1530 C   0  0  0  0  0  2  0  0  0  0  0  0
  186.4770  178.6810  142.1620 C   0  0  1  0  0  3  0  0  0  0  0  0
  185.5090  178.2580  141.0910 C   0  0  0  0  0  2  0  0  0  0  0  0
  190.5940  171.5550  142.7970 S   0  0  0  0  0  0  0  0  0  0  0  0
  190.9140  172.3160  141.1600 C   0  0  2  0  0  3  0  0  0  0  0  0
  190.1300  172.9070  134.9080 C   0  0  0  0  0  2  0  0  0  0  0  0
  189.7840  173.2140  140.7280 C   0  0  0  0  0  0  0  0  0  0  0  0
  189.1870  173.9350  141.5740 O   0  0  0  0  0  0  0  0  0  0  0  0
  189.8130  173.3980  136.2950 C   0  0  2  0  0  3  0  0  0  0  0  0
  191.4930  173.5420  135.0320 C   0  0  0  0  0  2  0  0  0  0  0  0
  192.3550  173.1000  136.9900 C   0  0  0  0  0  2  0  0  0  0  0  0
  190.9330  171.4050  138.9200 C   0  0  0  0  0  3  0  0  0  0  0  0
  191.4350  173.6600  137.9580 C   0  0  1  0  0  3  0  0  0  0  0  0
  191.2110  174.0030  136.4620 C   0  0  2  0  0  0  0  0  0  0  0  0
  188.3350  174.1450  138.9220 C   0  0  0  0  0  1  0  0  0  0  0  0
  189.4400  173.2860  139.3360 N   0  0  0  0  0  0  0  0  0  0  0  0
  189.6210  172.3260  137.1810 O   0  0  0  0  0  0  0  0  0  0  0  0
  190.3340  172.6680  138.3410 C   0  0  2  0  0  0  0  0  0  0  0  0
  191.1800  171.2790  140.1800 N   0  0  0  0  0  0  0  0  0  0  0  0
  192.9590  171.4270  144.2740 C   0  0  0  0  0  2  0  0  0  0  0  0
  193.7270  172.0450  145.2640 O   0  0  0  0  0  0  0  0  0  0  0  0
  195.0380  171.9760  144.7850 C   0  0  0  0  0  2  0  0  0  0  0  0
  196.0830  173.2260  140.5260 C   0  0  0  0  0  2  0  0  0  0  0  0
  195.3290  172.7020  141.7600 C   0  0  0  0  0  2  0  0  0  0  0  0
  196.2410  175.3800  144.0520 N   0  0  0  0  0  0  0  0  0  0  0  0
  195.5910  173.5580  142.9130 N   0  0  0  0  0  0  0  0  0  0  0  0
  196.3070  175.4430  141.5970 N   0  0  0  0  0  2  0  0  0  0  0  0
  195.4740  173.2940  144.2210 C   0  0  0  0  0  0  0  0  0  0  0  0
  196.0250  174.8180  142.8460 C   0  0  0  0  0  0  0  0  0  0  0  0
  195.8880  174.4130  144.9330 C   0  0  0  0  0  3  0  0  0  0  0  0
  195.9140  174.7490  140.3710 C   0  0  1  0  0  3  0  0  0  0  0  0
  197.9260  175.8430  139.6880 O   0  0  0  0  0  1  0  0  0  0  0  0
  196.7490  175.2600  139.2110 C   0  0  0  0  0  2  0  0  0  0  0  0
  1 43  1  1  0  0  0
  3  9  1  0  0  0  0
  4  2  2  0  0  0  0
  4  7  1  0  0  0  0
  6  1  1  6  0  0  0
  6  3  1  0  0  0  0
  7  5  2  0  0  0  0
  8  6  1  0  0  0  0
  8  4  1  0  0  0  0
 10  9  1  0  0  0  0
 10  7  1  0  0  0  0
 10 11  1  1  0  0  0
 12 11  1  0  0  0  0
 12 13  1  0  0  0  0
 13 14  1  6  0  0  0
 15 16  1  0  0  0  0
 15 13  1  0  0  0  0
 17 15  1  0  0  0  0
 18 15  1  0  0  0  0
 20 21  2  0  0  0  0
 21 19  2  0  0  0  0
 21 18  1  0  0  0  0
 23 22  1  0  0  0  0
 24 23  1  0  0  0  0
 24 26  1  0  0  0  0
 25 22  1  0  0  0  0
 25 21  1  1  0  0  0
 26 25  1  0  0  0  0
 27  1  1  0  0  0  0
 28 27  1  1  0  0  0
 29 33  1  0  0  0  0
 30 28  1  0  0  0  0
 30 31  2  0  0  0  0
 32 29  1  6  0  0  0
 32 37  1  0  0  0  0
 32 40  1  0  0  0  0
 35 42  2  0  0  0  0
 36 34  1  6  0  0  0
 36 41  1  0  0  0  0
 37 33  1  6  0  0  0
 37 34  1  0  0  0  0
 37 36  1  0  0  0  0
 38 39  1  0  0  0  0
 39 30  1  0  0  0  0
 40 41  1  0  0  0  0
 41 35  1  1  0  0  0
 41 39  1  0  0  0  0
 42 28  1  0  0  0  0
 43 44  1  0  0  0  0
 45 44  1  0  0  0  0
 46 47  1  0  0  0  0
 47 49  1  0  0  0  0
 48 53  1  0  0  0  0
 49 51  1  0  0  0  0
 50 52  1  0  0  0  0
 51 45  1  0  0  0  0
 51 53  2  0  0  0  0
 52 49  1  0  0  0  0
 52 48  2  0  0  0  0
 54 56  1  6  0  0  0
 54 46  1  0  0  0  0
 54 50  1  0  0  0  0
 56 55  1  0  0  0  0
M  END
>  <MODEL>
1

>  <REMARK>
 VINA RESULT:      -7.8      0.000      0.000
  Name = 
  15 active torsions:
  status: ('A' for Active; 'I' for Inactive)
    1  A    between atoms: C_2  and  C_11
    2  A    between atoms: C_2  and  N_25
    3  A    between atoms: N_3  and  C_11
    4  A    between atoms: N_3  and  S_47
    5  A    between atoms: C_5  and  S_19
    6  A    between atoms: S_19  and  C_35
    7  A    between atoms: C_21  and  C_35
    8  A    between atoms: C_24  and  C_35
    9  A    between atoms: C_24  and  O_52
   10  A    between atoms: N_25  and  C_27
   11  A    between atoms: C_27  and  C_49
   12  A    between atoms: C_28  and  S_47
   13  A    between atoms: C_32  and  CA_53
   14  A    between atoms: C_40  and  C_51
   15  A    between atoms: C_51  and  O_52
                            x       y       z     vdW  Elec       q    Type
                         _______ _______ _______ _____ _____    ______ ____

>  <TORSDO>
F 15

$$$$
=
 OpenBabel11042417243D

 56 63  0  0  1  0  0  0  0  0999 V2000
  191.5520  172.9180  144.3010 C   0  0  2  0  0  3  0  0  0  0  0  0
  193.3000  176.6070  146.2760 O   0  0  0  0  0  0  0  0  0  0  0  0
  189.6760  174.2180  145.3560 C   0  0  0  0  0  2  0  0  0  0  0  0
  192.1170  176.2350  146.0530 C   0  0  0  0  0  0  0  0  0  0  0  0
  191.3380  177.1610  148.0770 O   0  0  0  0  0  0  0  0  0  0  0  0
  191.1880  174.0750  145.2360 C   0  0  2  0  0  3  0  0  0  0  0  0
  191.0360  176.6350  146.9720 C   0  0  0  0  0  0  0  0  0  0  0  0
  191.8430  175.3970  144.8450 C   0  0  0  0  0  2  0  0  0  0  0  0
  189.2830  174.8990  146.6610 C   0  0  0  0  0  2  0  0  0  0  0  0
  189.5920  176.3870  146.6140 C   0  0  1  0  0  3  0  0  0  0  0  0
  188.6320  177.1160  147.5450 C   0  0  0  0  0  2  0  0  0  0  0  0
  187.3110  176.5060  147.4840 N   0  0  0  0  0  2  0  0  0  0  0  0
  186.3410  177.5690  147.7190 C   0  0  1  0  0  3  0  0  0  0  0  0
  187.0690  178.8170  148.1980 C   0  0  0  0  0  1  0  0  0  0  0  0
  185.4490  177.8260  146.4830 C   0  0  0  0  0  0  0  0  0  0  0  0
  184.0850  178.2900  146.9640 C   0  0  0  0  0  1  0  0  0  0  0  0
  185.2170  176.5380  145.6900 C   0  0  0  0  0  1  0  0  0  0  0  0
  186.0170  178.9370  145.6930 N   0  0  0  0  0  2  0  0  0  0  0  0
  185.8360  180.3410  143.4440 O   0  0  0  0  0  0  0  0  0  0  0  0
  184.2450  178.4950  143.7200 O   0  0  0  0  0  0  0  0  0  0  0  0
  185.6540  178.9510  143.9830 S   0  0  0  0  0  0  0  0  0  0  0  0
  187.0350  178.3280  141.8460 O   0  0  0  0  0  0  0  0  0  0  0  0
  188.3870  178.0480  141.5640 C   0  0  0  0  0  2  0  0  0  0  0  0
  189.0690  177.5070  142.8010 C   0  0  0  0  0  2  0  0  0  0  0  0
  186.7890  177.8590  143.1490 C   0  0  1  0  0  3  0  0  0  0  0  0
  188.0960  177.8030  143.8910 C   0  0  0  0  0  2  0  0  0  0  0  0
  190.1300  171.8110  143.9980 S   0  0  0  0  0  0  0  0  0  0  0  0
  190.1000  172.0740  142.1840 C   0  0  2  0  0  3  0  0  0  0  0  0
  192.2190  174.5490  136.7580 C   0  0  0  0  0  2  0  0  0  0  0  0
  191.1760  171.2840  141.4850 C   0  0  0  0  0  0  0  0  0  0  0  0
  191.4650  170.1200  141.8770 O   0  0  0  0  0  0  0  0  0  0  0  0
  192.1430  173.3680  137.6900 C   0  0  2  0  0  3  0  0  0  0  0  0
  190.7940  174.2700  136.3460 C   0  0  0  0  0  2  0  0  0  0  0  0
  189.5690  173.8520  138.1050 C   0  0  0  0  0  2  0  0  0  0  0  0
  190.7130  173.9650  140.8070 C   0  0  0  0  0  3  0  0  0  0  0  0
  190.1630  172.6870  138.7280 C   0  0  1  0  0  3  0  0  0  0  0  0
  190.6790  173.1020  137.3260 C   0  0  2  0  0  0  0  0  0  0  0  0
  192.8700  171.0850  139.6640 C   0  0  0  0  0  1  0  0  0  0  0  0
  191.8180  171.8450  140.3310 N   0  0  0  0  0  0  0  0  0  0  0  0
  192.2620  173.7710  139.0290 O   0  0  0  0  0  0  0  0  0  0  0  0
  191.2630  173.0670  139.7210 C   0  0  2  0  0  0  0  0  0  0  0  0
  190.2010  173.4930  141.8930 N   0  0  0  0  0  0  0  0  0  0  0  0
  192.8100  172.1510  144.7030 C   0  0  0  0  0  2  0  0  0  0  0  0
  193.6130  172.9070  145.5610 O   0  0  0  0  0  0  0  0  0  0  0  0
  194.9110  172.7180  145.0830 C   0  0  0  0  0  2  0  0  0  0  0  0
  195.6350  173.4490  140.6390 C   0  0  0  0  0  2  0  0  0  0  0  0
  194.9640  173.1170  141.9840 C   0  0  0  0  0  2  0  0  0  0  0  0
  196.3060  175.9130  143.8910 N   0  0  0  0  0  0  0  0  0  0  0  0
  195.4050  174.0540  143.0120 N   0  0  0  0  0  0  0  0  0  0  0  0
  196.1390  175.7310  141.4470 N   0  0  0  0  0  2  0  0  0  0  0  0
  195.3950  173.9310  144.3460 C   0  0  0  0  0  0  0  0  0  0  0  0
  195.9300  175.2580  142.7750 C   0  0  0  0  0  0  0  0  0  0  0  0
  195.9640  175.0720  144.8980 C   0  0  0  0  0  3  0  0  0  0  0  0
  195.5740  174.9580  140.3410 C   0  0  1  0  0  3  0  0  0  0  0  0
  195.5380  174.9810  137.9510 O   0  0  0  0  0  1  0  0  0  0  0  0
  196.3300  175.2770  139.0640 C   0  0  0  0  0  2  0  0  0  0  0  0
  1 43  1  1  0  0  0
  3  9  1  0  0  0  0
  4  2  2  0  0  0  0
  4  7  1  0  0  0  0
  6  1  1  6  0  0  0
  6  3  1  0  0  0  0
  7  5  2  0  0  0  0
  8  6  1  0  0  0  0
  8  4  1  0  0  0  0
 10  9  1  0  0  0  0
 10  7  1  0  0  0  0
 10 11  1  1  0  0  0
 12 11  1  0  0  0  0
 12 13  1  0  0  0  0
 13 14  1  6  0  0  0
 15 16  1  0  0  0  0
 15 13  1  0  0  0  0
 17 15  1  0  0  0  0
 18 15  1  0  0  0  0
 19 21  2  0  0  0  0
 20 21  2  0  0  0  0
 21 18  1  0  0  0  0
 22 25  1  0  0  0  0
 23 22  1  0  0  0  0
 23 24  1  0  0  0  0
 24 26  1  0  0  0  0
 25 26  1  0  0  0  0
 25 21  1  1  0  0  0
 27  1  1  0  0  0  0
 28 27  1  1  0  0  0
 30 31  2  0  0  0  0
 30 28  1  0  0  0  0
 32 29  1  6  0  0  0
 32 40  1  0  0  0  0
 33 29  1  0  0  0  0
 35 42  2  0  0  0  0
 36 34  1  1  0  0  0
 36 41  1  0  0  0  0
 37 33  1  6  0  0  0
 37 32  1  0  0  0  0
 37 34  1  0  0  0  0
 37 36  1  0  0  0  0
 38 39  1  0  0  0  0
 39 30  1  0  0  0  0
 40 41  1  0  0  0  0
 41 39  1  0  0  0  0
 41 35  1  1  0  0  0
 42 28  1  0  0  0  0
 43 44  1  0  0  0  0
 45 44  1  0  0  0  0
 46 47  1  0  0  0  0
 47 49  1  0  0  0  0
 48 53  1  0  0  0  0
 49 51  1  0  0  0  0
 50 52  1  0  0  0  0
 51 53  2  0  0  0  0
 51 45  1  0  0  0  0
 52 49  1  0  0  0  0
 52 48  2  0  0  0  0
 54 56  1  6  0  0  0
 54 46  1  0  0  0  0
 54 50  1  0  0  0  0
 55 56  1  0  0  0  0
M  END
>  <MODEL>
2

>  <REMARK>
 VINA RESULT:      -7.7      1.382      1.910
  Name = 
  15 active torsions:
  status: ('A' for Active; 'I' for Inactive)
    1  A    between atoms: C_2  and  C_11
    2  A    between atoms: C_2  and  N_25
    3  A    between atoms: N_3  and  C_11
    4  A    between atoms: N_3  and  S_47
    5  A    between atoms: C_5  and  S_19
    6  A    between atoms: S_19  and  C_35
    7  A    between atoms: C_21  and  C_35
    8  A    between atoms: C_24  and  C_35
    9  A    between atoms: C_24  and  O_52
   10  A    between atoms: N_25  and  C_27
   11  A    between atoms: C_27  and  C_49
   12  A    between atoms: C_28  and  S_47
   13  A    between atoms: C_32  and  CA_53
   14  A    between atoms: C_40  and  C_51
   15  A    between atoms: C_51  and  O_52
                            x       y       z     vdW  Elec       q    Type
                         _______ _______ _______ _____ _____    ______ ____

>  <TORSDO>
F 15

$$$$
=
 OpenBabel11042417243D

 56 63  0  0  1  0  0  0  0  0999 V2000
  192.7470  174.7570  143.3140 C   0  0  2  0  0  3  0  0  0  0  0  0
  189.3190  171.8090  142.9670 O   0  0  0  0  0  0  0  0  0  0  0  0
  190.6230  176.0490  142.9390 C   0  0  0  0  0  2  0  0  0  0  0  0
  189.3620  173.0650  143.0540 C   0  0  0  0  0  0  0  0  0  0  0  0
  187.5160  173.3280  141.6100 O   0  0  0  0  0  0  0  0  0  0  0  0
  191.2640  174.6670  142.9450 C   0  0  2  0  0  3  0  0  0  0  0  0
  188.3160  173.8820  142.4120 C   0  0  0  0  0  0  0  0  0  0  0  0
  190.4800  173.6940  143.8220 C   0  0  0  0  0  2  0  0  0  0  0  0
  189.3950  176.0910  142.0390 C   0  0  0  0  0  2  0  0  0  0  0  0
  188.2240  175.3630  142.6810 C   0  0  1  0  0  3  0  0  0  0  0  0
  186.9270  175.9670  142.1590 C   0  0  0  0  0  2  0  0  0  0  0  0
  186.0730  176.3630  143.2690 N   0  0  0  0  0  2  0  0  0  0  0  0
  186.3830  177.7560  143.5680 C   0  0  1  0  0  3  0  0  0  0  0  0
  186.5920  178.5140  142.2660 C   0  0  0  0  0  1  0  0  0  0  0  0
  185.3190  178.4050  144.4820 C   0  0  0  0  0  0  0  0  0  0  0  0
  183.9980  178.4410  143.7320 C   0  0  0  0  0  1  0  0  0  0  0  0
  185.6770  179.8590  144.8020 C   0  0  0  0  0  1  0  0  0  0  0  0
  185.1060  177.5530  145.6670 N   0  0  0  0  0  2  0  0  0  0  0  0
  185.9190  176.7500  148.0670 O   0  0  0  0  0  0  0  0  0  0  0  0
  186.1860  179.1330  147.5550 O   0  0  0  0  0  0  0  0  0  0  0  0
  186.2380  177.7420  146.9860 S   0  0  0  0  0  0  0  0  0  0  0  0
  188.8340  177.9900  147.2430 O   0  0  0  0  0  0  0  0  0  0  0  0
  189.9330  177.1100  147.2730 C   0  0  0  0  0  2  0  0  0  0  0  0
  189.6040  175.8490  146.5030 C   0  0  0  0  0  2  0  0  0  0  0  0
  187.8820  177.4190  146.3790 C   0  0  1  0  0  3  0  0  0  0  0  0
  188.1280  175.9360  146.3100 C   0  0  0  0  0  2  0  0  0  0  0  0
  192.9890  175.2430  145.0590 S   0  0  0  0  0  0  0  0  0  0  0  0
  194.1250  173.8610  145.4580 C   0  0  2  0  0  3  0  0  0  0  0  0
  197.9410  169.0280  143.9980 C   0  0  0  0  0  2  0  0  0  0  0  0
  195.5640  174.2250  145.1950 C   0  0  0  0  0  0  0  0  0  0  0  0
  195.9830  175.3870  145.4530 O   0  0  0  0  0  0  0  0  0  0  0  0
  197.7910  170.4700  144.4070 C   0  0  2  0  0  3  0  0  0  0  0  0
  197.5890  168.6270  145.4090 C   0  0  0  0  0  2  0  0  0  0  0  0
  195.8820  169.7920  146.1190 C   0  0  0  0  0  2  0  0  0  0  0  0
  194.5510  171.7430  144.3740 C   0  0  0  0  0  3  0  0  0  0  0  0
  196.3050  171.1770  146.0670 C   0  0  1  0  0  3  0  0  0  0  0  0
  197.3780  170.0820  145.8300 C   0  0  2  0  0  0  0  0  0  0  0  0
  197.8530  173.5740  144.4440 C   0  0  0  0  0  1  0  0  0  0  0  0
  196.4640  173.2160  144.7120 N   0  0  0  0  0  0  0  0  0  0  0  0
  196.7280  171.0820  143.7250 O   0  0  0  0  0  0  0  0  0  0  0  0
  196.0270  171.8090  144.7000 C   0  0  2  0  0  0  0  0  0  0  0  0
  193.7290  172.6730  144.7250 N   0  0  0  0  0  0  0  0  0  0  0  0
  193.5890  175.5960  142.3550 C   0  0  0  0  0  2  0  0  0  0  0  0
  194.8280  174.9980  142.1110 O   0  0  0  0  0  0  0  0  0  0  0  0
  194.5330  173.9000  141.3000 C   0  0  0  0  0  2  0  0  0  0  0  0
  191.0750  172.6800  138.5890 C   0  0  0  0  0  2  0  0  0  0  0  0
  191.8910  173.2140  139.7780 C   0  0  0  0  0  2  0  0  0  0  0  0
  194.2550  175.2230  137.8730 N   0  0  0  0  0  0  0  0  0  0  0  0
  193.0150  174.0130  139.3010 N   0  0  0  0  0  0  0  0  0  0  0  0
  192.0580  174.4140  137.1270 N   0  0  0  0  0  2  0  0  0  0  0  0
  194.1590  174.3390  139.9160 C   0  0  0  0  0  0  0  0  0  0  0  0
  193.0920  174.5780  138.0940 C   0  0  0  0  0  0  0  0  0  0  0  0
  194.9380  175.0780  139.0340 C   0  0  0  0  0  3  0  0  0  0  0  0
  190.8080  173.7860  137.5520 C   0  0  1  0  0  3  0  0  0  0  0  0
  189.3460  172.0930  136.7100 O   0  0  0  0  0  1  0  0  0  0  0  0
  190.0920  173.2160  136.3410 C   0  0  0  0  0  2  0  0  0  0  0  0
  1 43  1  6  0  0  0
  1 27  1  0  0  0  0
  2  4  2  0  0  0  0
  3  6  1  0  0  0  0
  4  8  1  0  0  0  0
  5  7  2  0  0  0  0
  6  1  1  1  0  0  0
  6  8  1  0  0  0  0
  7 10  1  0  0  0  0
  7  4  1  0  0  0  0
  9 10  1  0  0  0  0
  9  3  1  0  0  0  0
 10 11  1  6  0  0  0
 11 12  1  0  0  0  0
 12 13  1  0  0  0  0
 13 14  1  6  0  0  0
 13 15  1  0  0  0  0
 15 17  1  0  0  0  0
 15 18  1  0  0  0  0
 16 15  1  0  0  0  0
 18 21  1  0  0  0  0
 21 20  2  0  0  0  0
 21 19  2  0  0  0  0
 22 23  1  0  0  0  0
 24 23  1  0  0  0  0
 25 21  1  1  0  0  0
 25 22  1  0  0  0  0
 26 25  1  0  0  0  0
 26 24  1  0  0  0  0
 28 27  1  6  0  0  0
 29 33  1  0  0  0  0
 30 31  2  0  0  0  0
 30 28  1  0  0  0  0
 32 29  1  6  0  0  0
 32 37  1  0  0  0  0
 35 42  2  0  0  0  0
 36 34  1  6  0  0  0
 37 33  1  1  0  0  0
 37 36  1  0  0  0  0
 37 34  1  0  0  0  0
 38 39  1  0  0  0  0
 39 30  1  0  0  0  0
 40 32  1  0  0  0  0
 40 41  1  0  0  0  0
 41 35  1  6  0  0  0
 41 39  1  0  0  0  0
 41 36  1  0  0  0  0
 42 28  1  0  0  0  0
 44 43  1  0  0  0  0
 45 44  1  0  0  0  0
 46 47  1  0  0  0  0
 48 52  2  0  0  0  0
 48 53  1  0  0  0  0
 49 47  1  0  0  0  0
 49 51  1  0  0  0  0
 50 54  1  0  0  0  0
 50 52  1  0  0  0  0
 51 45  1  0  0  0  0
 52 49  1  0  0  0  0
 53 51  2  0  0  0  0
 54 56  1  6  0  0  0
 54 46  1  0  0  0  0
 56 55  1  0  0  0  0
M  END
>  <MODEL>
3

>  <REMARK>
 VINA RESULT:      -7.7      2.513      6.661
  Name = 
  15 active torsions:
  status: ('A' for Active; 'I' for Inactive)
    1  A    between atoms: C_2  and  C_11
    2  A    between atoms: C_2  and  N_25
    3  A    between atoms: N_3  and  C_11
    4  A    between atoms: N_3  and  S_47
    5  A    between atoms: C_5  and  S_19
    6  A    between atoms: S_19  and  C_35
    7  A    between atoms: C_21  and  C_35
    8  A    between atoms: C_24  and  C_35
    9  A    between atoms: C_24  and  O_52
   10  A    between atoms: N_25  and  C_27
   11  A    between atoms: C_27  and  C_49
   12  A    between atoms: C_28  and  S_47
   13  A    between atoms: C_32  and  CA_53
   14  A    between atoms: C_40  and  C_51
   15  A    between atoms: C_51  and  O_52
                            x       y       z     vdW  Elec       q    Type
                         _______ _______ _______ _____ _____    ______ ____

>  <TORSDO>
F 15

$$$$
=
 OpenBabel11042417243D

 56 63  0  0  1  0  0  0  0  0999 V2000
  191.0820  173.4020  144.1680 C   0  0  2  0  0  3  0  0  0  0  0  0
  193.1080  176.5230  146.7580 O   0  0  0  0  0  0  0  0  0  0  0  0
  189.3080  174.8720  145.1740 C   0  0  0  0  0  2  0  0  0  0  0  0
  191.9190  176.3760  146.3680 C   0  0  0  0  0  0  0  0  0  0  0  0
  191.0450  177.1970  148.3990 O   0  0  0  0  0  0  0  0  0  0  0  0
  190.7840  174.4960  145.1960 C   0  0  2  0  0  3  0  0  0  0  0  0
  190.8060  176.8470  147.2120 C   0  0  0  0  0  0  0  0  0  0  0  0
  191.6730  175.7280  145.0430 C   0  0  0  0  0  2  0  0  0  0  0  0
  188.8640  175.4640  146.5050 C   0  0  0  0  0  2  0  0  0  0  0  0
  189.3960  176.8790  146.6760 C   0  0  1  0  0  3  0  0  0  0  0  0
  188.4490  177.6520  147.5850 C   0  0  0  0  0  2  0  0  0  0  0  0
  187.1670  176.9690  147.6740 N   0  0  0  0  0  2  0  0  0  0  0  0
  186.1330  177.9920  147.5680 C   0  0  1  0  0  3  0  0  0  0  0  0
  186.7340  179.3510  147.8950 C   0  0  0  0  0  1  0  0  0  0  0  0
  185.4220  177.9600  146.1960 C   0  0  0  0  0  0  0  0  0  0  0  0
  184.0830  178.6650  146.3320 C   0  0  0  0  0  1  0  0  0  0  0  0
  185.1150  176.5240  145.7640 C   0  0  0  0  0  1  0  0  0  0  0  0
  186.2090  178.7380  145.2190 N   0  0  0  0  0  2  0  0  0  0  0  0
  186.3430  176.4460  143.8800 O   0  0  0  0  0  0  0  0  0  0  0  0
  188.2350  177.9840  143.6210 O   0  0  0  0  0  0  0  0  0  0  0  0
  186.7430  177.8910  143.7860 S   0  0  0  0  0  0  0  0  0  0  0  0
  186.5320  178.1160  141.1850 O   0  0  0  0  0  0  0  0  0  0  0  0
  185.4920  177.9910  140.2420 C   0  0  0  0  0  2  0  0  0  0  0  0
  184.1630  178.2880  140.9010 C   0  0  0  0  0  2  0  0  0  0  0  0
  185.9500  178.6150  142.3650 C   0  0  1  0  0  3  0  0  0  0  0  0
  184.4850  178.2720  142.3560 C   0  0  0  0  0  2  0  0  0  0  0  0
  189.7570  172.1440  144.1040 S   0  0  0  0  0  0  0  0  0  0  0  0
  189.4320  172.3390  142.3100 C   0  0  2  0  0  3  0  0  0  0  0  0
  190.8110  174.3220  136.4600 C   0  0  0  0  0  2  0  0  0  0  0  0
  190.2670  171.3960  141.4840 C   0  0  0  0  0  0  0  0  0  0  0  0
  190.4870  170.2220  141.8890 O   0  0  0  0  0  0  0  0  0  0  0  0
  190.7690  173.1960  137.4600 C   0  0  2  0  0  3  0  0  0  0  0  0
  189.3120  174.2050  136.3190 C   0  0  0  0  0  2  0  0  0  0  0  0
  188.3830  174.0100  138.2860 C   0  0  0  0  0  2  0  0  0  0  0  0
  189.9990  174.0850  140.7360 C   0  0  0  0  0  3  0  0  0  0  0  0
  188.9420  172.8050  138.8650 C   0  0  1  0  0  3  0  0  0  0  0  0
  189.2430  173.0990  137.3720 C   0  0  2  0  0  0  0  0  0  0  0  0
  191.5730  170.9190  139.4110 C   0  0  0  0  0  1  0  0  0  0  0  0
  190.7510  171.8280  140.2030 N   0  0  0  0  0  0  0  0  0  0  0  0
  191.1710  173.6330  138.7320 O   0  0  0  0  0  0  0  0  0  0  0  0
  190.2400  173.0850  139.6270 C   0  0  2  0  0  0  0  0  0  0  0  0
  189.6400  173.7220  141.9210 N   0  0  0  0  0  0  0  0  0  0  0  0
  192.4690  172.7760  144.2930 C   0  0  0  0  0  2  0  0  0  0  0  0
  193.3230  173.2300  143.2840 O   0  0  0  0  0  0  0  0  0  0  0  0
  194.2720  174.0080  143.9510 C   0  0  0  0  0  2  0  0  0  0  0  0
  195.8070  175.2710  139.8460 C   0  0  0  0  0  2  0  0  0  0  0  0
  195.2050  175.2980  141.2620 C   0  0  0  0  0  2  0  0  0  0  0  0
  197.7070  173.2120  142.8860 N   0  0  0  0  0  0  0  0  0  0  0  0
  195.9750  174.4380  142.1540 N   0  0  0  0  0  0  0  0  0  0  0  0
  197.9410  174.4270  140.7640 N   0  0  0  0  0  2  0  0  0  0  0  0
  195.6220  173.8710  143.3150 C   0  0  0  0  0  0  0  0  0  0  0  0
  197.2330  174.0470  141.9410 C   0  0  0  0  0  0  0  0  0  0  0  0
  196.6850  173.0990  143.7680 C   0  0  0  0  0  3  0  0  0  0  0  0
  197.3380  175.4290  139.8860 C   0  0  1  0  0  3  0  0  0  0  0  0
  196.9610  175.6410  137.5360 O   0  0  0  0  0  1  0  0  0  0  0  0
  197.9210  175.2960  138.4910 C   0  0  0  0  0  2  0  0  0  0  0  0
  1 43  1  1  0  0  0
  3  6  1  0  0  0  0
  3  9  1  0  0  0  0
  4  2  2  0  0  0  0
  4  7  1  0  0  0  0
  6  1  1  6  0  0  0
  7  5  2  0  0  0  0
  8  6  1  0  0  0  0
  8  4  1  0  0  0  0
  9 10  1  0  0  0  0
 10  7  1  0  0  0  0
 10 11  1  1  0  0  0
 11 12  1  0  0  0  0
 13 12  1  0  0  0  0
 13 14  1  6  0  0  0
 15 16  1  0  0  0  0
 15 13  1  0  0  0  0
 17 15  1  0  0  0  0
 18 15  1  0  0  0  0
 20 21  2  0  0  0  0
 21 19  2  0  0  0  0
 21 18  1  0  0  0  0
 22 25  1  0  0  0  0
 23 24  1  0  0  0  0
 23 22  1  0  0  0  0
 24 26  1  0  0  0  0
 25 21  1  1  0  0  0
 26 25  1  0  0  0  0
 27  1  1  0  0  0  0
 28 27  1  1  0  0  0
 30 31  2  0  0  0  0
 30 28  1  0  0  0  0
 32 29  1  6  0  0  0
 32 40  1  0  0  0  0
 33 29  1  0  0  0  0
 35 42  2  0  0  0  0
 36 34  1  1  0  0  0
 36 41  1  0  0  0  0
 37 33  1  6  0  0  0
 37 32  1  0  0  0  0
 37 34  1  0  0  0  0
 37 36  1  0  0  0  0
 38 39  1  0  0  0  0
 39 30  1  0  0  0  0
 40 41  1  0  0  0  0
 41 39  1  0  0  0  0
 41 35  1  1  0  0  0
 42 28  1  0  0  0  0
 44 45  1  0  0  0  0
 44 43  1  0  0  0  0
 46 54  1  0  0  0  0
 46 47  1  0  0  0  0
 47 49  1  0  0  0  0
 48 53  1  0  0  0  0
 49 51  1  0  0  0  0
 50 52  1  0  0  0  0
 51 53  2  0  0  0  0
 51 45  1  0  0  0  0
 52 49  1  0  0  0  0
 52 48  2  0  0  0  0
 54 56  1  6  0  0  0
 54 50  1  0  0  0  0
 55 56  1  0  0  0  0
M  END
>  <MODEL>
4

>  <REMARK>
 VINA RESULT:      -7.5      1.552      2.172
  Name = 
  15 active torsions:
  status: ('A' for Active; 'I' for Inactive)
    1  A    between atoms: C_2  and  C_11
    2  A    between atoms: C_2  and  N_25
    3  A    between atoms: N_3  and  C_11
    4  A    between atoms: N_3  and  S_47
    5  A    between atoms: C_5  and  S_19
    6  A    between atoms: S_19  and  C_35
    7  A    between atoms: C_21  and  C_35
    8  A    between atoms: C_24  and  C_35
    9  A    between atoms: C_24  and  O_52
   10  A    between atoms: N_25  and  C_27
   11  A    between atoms: C_27  and  C_49
   12  A    between atoms: C_28  and  S_47
   13  A    between atoms: C_32  and  CA_53
   14  A    between atoms: C_40  and  C_51
   15  A    between atoms: C_51  and  O_52
                            x       y       z     vdW  Elec       q    Type
                         _______ _______ _______ _____ _____    ______ ____

>  <TORSDO>
F 15

$$$$
=
 OpenBabel11042417243D

 56 63  0  0  1  0  0  0  0  0999 V2000
  190.4330  175.9200  145.7230 C   0  0  2  0  0  3  0  0  0  0  0  0
  190.8560  171.5520  144.5810 O   0  0  0  0  0  0  0  0  0  0  0  0
  189.2230  175.5470  143.5510 C   0  0  0  0  0  2  0  0  0  0  0  0
  190.1640  172.4960  144.1130 C   0  0  0  0  0  0  0  0  0  0  0  0
  190.4070  171.7120  141.9020 O   0  0  0  0  0  0  0  0  0  0  0  0
  190.1780  174.9420  144.5730 C   0  0  2  0  0  3  0  0  0  0  0  0
  189.8260  172.5180  142.6780 C   0  0  0  0  0  0  0  0  0  0  0  0
  189.6950  173.5710  145.0410 C   0  0  0  0  0  2  0  0  0  0  0  0
  189.4070  174.9170  142.1770 C   0  0  0  0  0  2  0  0  0  0  0  0
  188.8270  173.5110  142.1390 C   0  0  1  0  0  3  0  0  0  0  0  0
  188.4070  173.1920  140.7110 C   0  0  0  0  0  2  0  0  0  0  0  0
  189.1240  174.0440  139.7730 N   0  0  0  0  0  2  0  0  0  0  0  0
  188.6320  173.7170  138.4400 C   0  0  1  0  0  3  0  0  0  0  0  0
  187.7250  174.8360  137.9500 C   0  0  0  0  0  1  0  0  0  0  0  0
  189.7810  173.3960  137.4570 C   0  0  0  0  0  0  0  0  0  0  0  0
  189.5840  174.2260  136.2010 C   0  0  0  0  0  1  0  0  0  0  0  0
  189.7440  171.9300  137.0210 C   0  0  0  0  0  1  0  0  0  0  0  0
  191.0640  173.8260  138.0480 N   0  0  0  0  0  2  0  0  0  0  0  0
  193.5910  174.3190  137.3890 O   0  0  0  0  0  0  0  0  0  0  0  0
  192.2750  173.0020  135.7940 O   0  0  0  0  0  0  0  0  0  0  0  0
  192.5200  173.2750  137.2520 S   0  0  0  0  0  0  0  0  0  0  0  0
  194.4470  171.5910  137.8090 O   0  0  0  0  0  0  0  0  0  0  0  0
  194.9860  171.0250  138.9810 C   0  0  0  0  0  2  0  0  0  0  0  0
  193.9300  170.9850  140.0650 C   0  0  0  0  0  2  0  0  0  0  0  0
  193.0730  171.7790  138.0450 C   0  0  1  0  0  3  0  0  0  0  0  0
  192.8520  171.8640  139.5300 C   0  0  0  0  0  2  0  0  0  0  0  0
  192.1230  175.7520  146.4000 S   0  0  0  0  0  0  0  0  0  0  0  0
  192.8960  175.2980  144.8000 C   0  0  2  0  0  3  0  0  0  0  0  0
  197.6800  175.0260  140.6670 C   0  0  0  0  0  2  0  0  0  0  0  0
  193.8070  174.1050  144.9370 C   0  0  0  0  0  0  0  0  0  0  0  0
  193.4920  173.1500  145.6990 O   0  0  0  0  0  0  0  0  0  0  0  0
  196.8390  174.3340  141.7060 C   0  0  2  0  0  3  0  0  0  0  0  0
  196.5300  174.8950  139.6990 C   0  0  0  0  0  2  0  0  0  0  0  0
  194.6550  175.4360  140.6810 C   0  0  0  0  0  2  0  0  0  0  0  0
  194.6180  176.3530  143.4700 C   0  0  0  0  0  3  0  0  0  0  0  0
  194.5090  174.5080  141.7840 C   0  0  1  0  0  3  0  0  0  0  0  0
  195.6400  174.2410  140.7570 C   0  0  2  0  0  0  0  0  0  0  0  0
  195.8880  172.8920  144.2860 C   0  0  0  0  0  1  0  0  0  0  0  0
  195.0000  174.0410  144.1420 N   0  0  0  0  0  0  0  0  0  0  0  0
  196.5600  175.1900  142.7840 O   0  0  0  0  0  0  0  0  0  0  0  0
  195.1940  175.0170  143.0550 C   0  0  2  0  0  0  0  0  0  0  0  0
  193.5930  176.4450  144.2490 N   0  0  0  0  0  0  0  0  0  0  0  0
  189.3670  175.9060  146.8160 C   0  0  0  0  0  2  0  0  0  0  0  0
  188.5000  176.9950  146.6930 O   0  0  0  0  0  0  0  0  0  0  0  0
  187.2260  176.4260  146.6480 C   0  0  0  0  0  2  0  0  0  0  0  0
  185.7520  177.1230  142.3890 C   0  0  0  0  0  2  0  0  0  0  0  0
  186.0830  176.4650  143.7400 C   0  0  0  0  0  2  0  0  0  0  0  0
  184.8440  179.1310  145.8870 N   0  0  0  0  0  0  0  0  0  0  0  0
  185.7680  177.3760  144.8350 N   0  0  0  0  0  0  0  0  0  0  0  0
  184.2670  178.7360  143.5320 N   0  0  0  0  0  2  0  0  0  0  0  0
  186.2250  177.3940  146.0950 C   0  0  0  0  0  0  0  0  0  0  0  0
  184.9270  178.4090  144.7520 C   0  0  0  0  0  0  0  0  0  0  0  0
  185.6670  178.4860  146.7490 C   0  0  0  0  0  3  0  0  0  0  0  0
  184.3660  177.7930  142.4180 C   0  0  1  0  0  3  0  0  0  0  0  0
  184.7630  177.8800  140.0630 O   0  0  0  0  0  1  0  0  0  0  0  0
  184.1020  178.5230  141.1140 C   0  0  0  0  0  2  0  0  0  0  0  0
  1 27  1  0  0  0  0
  1 43  1  1  0  0  0
  3  6  1  0  0  0  0
  4  2  2  0  0  0  0
  4  8  1  0  0  0  0
  5  7  2  0  0  0  0
  6  8  1  0  0  0  0
  6  1  1  1  0  0  0
  7  4  1  0  0  0  0
  9  3  1  0  0  0  0
 10 11  1  6  0  0  0
 10  9  1  0  0  0  0
 10  7  1  0  0  0  0
 12 11  1  0  0  0  0
 13 14  1  6  0  0  0
 13 12  1  0  0  0  0
 15 18  1  0  0  0  0
 15 13  1  0  0  0  0
 16 15  1  0  0  0  0
 17 15  1  0  0  0  0
 20 21  2  0  0  0  0
 21 19  2  0  0  0  0
 21 18  1  0  0  0  0
 22 25  1  0  0  0  0
 22 23  1  0  0  0  0
 23 24  1  0  0  0  0
 25 21  1  6  0  0  0
 25 26  1  0  0  0  0
 26 24  1  0  0  0  0
 28 30  1  0  0  0  0
 28 27  1  1  0  0  0
 30 31  2  0  0  0  0
 32 29  1  6  0  0  0
 32 40  1  0  0  0  0
 33 29  1  0  0  0  0
 34 37  1  0  0  0  0
 35 42  2  0  0  0  0
 36 34  1  6  0  0  0
 36 41  1  0  0  0  0
 37 33  1  6  0  0  0
 37 32  1  0  0  0  0
 37 36  1  0  0  0  0
 39 38  1  0  0  0  0
 39 30  1  0  0  0  0
 40 41  1  0  0  0  0
 41 35  1  1  0  0  0
 41 39  1  0  0  0  0
 42 28  1  0  0  0  0
 44 43  1  0  0  0  0
 45 44  1  0  0  0  0
 46 54  1  0  0  0  0
 46 47  1  0  0  0  0
 47 49  1  0  0  0  0
 48 53  1  0  0  0  0
 49 51  1  0  0  0  0
 50 52  1  0  0  0  0
 51 45  1  0  0  0  0
 51 53  2  0  0  0  0
 52 49  1  0  0  0  0
 52 48  2  0  0  0  0
 54 56  1  6  0  0  0
 54 50  1  0  0  0  0
 55 56  1  0  0  0  0
M  END
>  <MODEL>
5

>  <REMARK>
 VINA RESULT:      -7.4      2.378      8.929
  Name = 
  15 active torsions:
  status: ('A' for Active; 'I' for Inactive)
    1  A    between atoms: C_2  and  C_11
    2  A    between atoms: C_2  and  N_25
    3  A    between atoms: N_3  and  C_11
    4  A    between atoms: N_3  and  S_47
    5  A    between atoms: C_5  and  S_19
    6  A    between atoms: S_19  and  C_35
    7  A    between atoms: C_21  and  C_35
    8  A    between atoms: C_24  and  C_35
    9  A    between atoms: C_24  and  O_52
   10  A    between atoms: N_25  and  C_27
   11  A    between atoms: C_27  and  C_49
   12  A    between atoms: C_28  and  S_47
   13  A    between atoms: C_32  and  CA_53
   14  A    between atoms: C_40  and  C_51
   15  A    between atoms: C_51  and  O_52
                            x       y       z     vdW  Elec       q    Type
                         _______ _______ _______ _____ _____    ______ ____

>  <TORSDO>
F 15

$$$$
=
 OpenBabel11042417243D

 56 63  0  0  1  0  0  0  0  0999 V2000
  190.4450  175.5610  146.8960 C   0  0  2  0  0  3  0  0  0  0  0  0
  191.2890  177.2390  142.7690 O   0  0  0  0  0  0  0  0  0  0  0  0
  192.9330  175.5560  146.5290 C   0  0  0  0  0  2  0  0  0  0  0  0
  192.0340  176.9400  143.7400 C   0  0  0  0  0  0  0  0  0  0  0  0
  193.7530  176.1800  142.3150 O   0  0  0  0  0  0  0  0  0  0  0  0
  191.5710  175.7480  145.8750 C   0  0  2  0  0  3  0  0  0  0  0  0
  193.4110  176.4740  143.4920 C   0  0  0  0  0  0  0  0  0  0  0  0
  191.4950  177.0770  145.1280 C   0  0  0  0  0  2  0  0  0  0  0  0
  193.9880  175.1430  145.5110 C   0  0  0  0  0  2  0  0  0  0  0  0
  194.3860  176.3190  144.6320 C   0  0  1  0  0  3  0  0  0  0  0  0
  195.8140  176.1060  144.1470 C   0  0  0  0  0  2  0  0  0  0  0  0
  196.2290  174.7320  144.3900 N   0  0  0  0  0  2  0  0  0  0  0  0
  196.4460  174.1170  143.0860 C   0  0  1  0  0  3  0  0  0  0  0  0
  197.7630  174.6120  142.5090 C   0  0  0  0  0  1  0  0  0  0  0  0
  196.3540  172.5750  143.1480 C   0  0  0  0  0  0  0  0  0  0  0  0
  197.6070  172.0460  143.8240 C   0  0  0  0  0  1  0  0  0  0  0  0
  196.3260  171.9650  141.7440 C   0  0  0  0  0  1  0  0  0  0  0  0
  195.2180  172.1860  144.0060 N   0  0  0  0  0  2  0  0  0  0  0  0
  195.8920  169.7030  143.3410 O   0  0  0  0  0  0  0  0  0  0  0  0
  193.5080  170.1320  143.7190 O   0  0  0  0  0  0  0  0  0  0  0  0
  194.9020  170.4740  144.1660 S   0  0  0  0  0  0  0  0  0  0  0  0
  194.9200  168.6260  146.0230 O   0  0  0  0  0  0  0  0  0  0  0  0
  195.8230  168.2050  147.0180 C   0  0  0  0  0  2  0  0  0  0  0  0
  196.7200  169.3550  147.4200 C   0  0  0  0  0  2  0  0  0  0  0  0
  195.0990  170.0140  145.8750 C   0  0  1  0  0  3  0  0  0  0  0  0
  196.4800  170.3700  146.3540 C   0  0  0  0  0  2  0  0  0  0  0  0
  189.3000  174.2220  146.4130 S   0  0  0  0  0  0  0  0  0  0  0  0
  190.0260  173.9760  144.7480 C   0  0  2  0  0  3  0  0  0  0  0  0
  190.5700  171.0780  139.1480 C   0  0  0  0  0  2  0  0  0  0  0  0
  189.1190  174.4880  143.6590 C   0  0  0  0  0  0  0  0  0  0  0  0
  188.4570  175.5490  143.8310 O   0  0  0  0  0  0  0  0  0  0  0  0
  190.0470  172.2410  139.9480 C   0  0  2  0  0  3  0  0  0  0  0  0
  191.9480  171.6890  139.2280 C   0  0  0  0  0  2  0  0  0  0  0  0
  192.3470  172.3840  141.2610 C   0  0  0  0  0  2  0  0  0  0  0  0
  190.3780  171.9960  143.4040 C   0  0  0  0  0  3  0  0  0  0  0  0
  191.3270  173.3730  141.5430 C   0  0  1  0  0  3  0  0  0  0  0  0
  191.4460  172.8490  140.0880 C   0  0  2  0  0  0  0  0  0  0  0  0
  188.1780  174.2820  141.3570 C   0  0  0  0  0  1  0  0  0  0  0  0
  189.0690  173.7930  142.4050 N   0  0  0  0  0  0  0  0  0  0  0  0
  189.5560  171.8190  141.1940 O   0  0  0  0  0  0  0  0  0  0  0  0
  190.0610  172.7400  142.1260 C   0  0  2  0  0  0  0  0  0  0  0  0
  190.3540  172.5750  144.5570 N   0  0  0  0  0  0  0  0  0  0  0  0
  189.7110  176.8460  147.2700 C   0  0  0  0  0  2  0  0  0  0  0  0
  188.3310  176.7120  147.0920 O   0  0  0  0  0  0  0  0  0  0  0  0
  187.9100  177.9720  146.6600 C   0  0  0  0  0  2  0  0  0  0  0  0
  186.1310  178.6310  142.5130 C   0  0  0  0  0  2  0  0  0  0  0  0
  186.9580  178.0760  143.6850 C   0  0  0  0  0  2  0  0  0  0  0  0
  184.2650  177.9050  146.1290 N   0  0  0  0  0  0  0  0  0  0  0  0
  186.1320  177.9810  144.8840 N   0  0  0  0  0  0  0  0  0  0  0  0
  184.0430  178.0180  143.6860 N   0  0  0  0  0  2  0  0  0  0  0  0
  186.4930  177.9260  146.1730 C   0  0  0  0  0  0  0  0  0  0  0  0
  184.7970  177.9400  144.8920 C   0  0  0  0  0  0  0  0  0  0  0  0
  185.3420  177.8930  146.9520 C   0  0  0  0  0  3  0  0  0  0  0  0
  184.7620  177.9360  142.4140 C   0  0  1  0  0  3  0  0  0  0  0  0
  184.5530  178.4080  140.0810 O   0  0  0  0  0  1  0  0  0  0  0  0
  183.9230  178.5680  141.3180 C   0  0  0  0  0  2  0  0  0  0  0  0
  1 43  1  6  0  0  0
  2  4  2  0  0  0  0
  4  8  1  0  0  0  0
  5  7  2  0  0  0  0
  6  3  1  0  0  0  0
  6  1  1  1  0  0  0
  7  4  1  0  0  0  0
  7 10  1  0  0  0  0
  8  6  1  0  0  0  0
  9  3  1  0  0  0  0
 10 11  1  6  0  0  0
 10  9  1  0  0  0  0
 11 12  1  0  0  0  0
 13 14  1  1  0  0  0
 13 15  1  0  0  0  0
 13 12  1  0  0  0  0
 15 16  1  0  0  0  0
 15 18  1  0  0  0  0
 17 15  1  0  0  0  0
 18 21  1  0  0  0  0
 19 21  2  0  0  0  0
 20 21  2  0  0  0  0
 22 23  1  0  0  0  0
 23 24  1  0  0  0  0
 25 21  1  6  0  0  0
 25 22  1  0  0  0  0
 25 26  1  0  0  0  0
 26 24  1  0  0  0  0
 27  1  1  0  0  0  0
 28 27  1  1  0  0  0
 29 33  1  0  0  0  0
 30 31  2  0  0  0  0
 30 28  1  0  0  0  0
 32 29  1  6  0  0  0
 32 37  1  0  0  0  0
 32 40  1  0  0  0  0
 35 42  2  0  0  0  0
 36 34  1  1  0  0  0
 36 41  1  0  0  0  0
 37 33  1  6  0  0  0
 37 34  1  0  0  0  0
 37 36  1  0  0  0  0
 38 39  1  0  0  0  0
 39 30  1  0  0  0  0
 40 41  1  0  0  0  0
 41 39  1  0  0  0  0
 41 35  1  1  0  0  0
 42 28  1  0  0  0  0
 44 43  1  0  0  0  0
 45 44  1  0  0  0  0
 46 47  1  0  0  0  0
 47 49  1  0  0  0  0
 48 53  1  0  0  0  0
 49 52  1  0  0  0  0
 49 51  1  0  0  0  0
 50 52  1  0  0  0  0
 51 45  1  0  0  0  0
 51 53  2  0  0  0  0
 52 48  2  0  0  0  0
 54 56  1  6  0  0  0
 54 46  1  0  0  0  0
 54 50  1  0  0  0  0
 55 56  1  0  0  0  0
M  END
>  <MODEL>
6

>  <REMARK>
 VINA RESULT:      -7.3      2.681      9.127
  Name = 
  15 active torsions:
  status: ('A' for Active; 'I' for Inactive)
    1  A    between atoms: C_2  and  C_11
    2  A    between atoms: C_2  and  N_25
    3  A    between atoms: N_3  and  C_11
    4  A    between atoms: N_3  and  S_47
    5  A    between atoms: C_5  and  S_19
    6  A    between atoms: S_19  and  C_35
    7  A    between atoms: C_21  and  C_35
    8  A    between atoms: C_24  and  C_35
    9  A    between atoms: C_24  and  O_52
   10  A    between atoms: N_25  and  C_27
   11  A    between atoms: C_27  and  C_49
   12  A    between atoms: C_28  and  S_47
   13  A    between atoms: C_32  and  CA_53
   14  A    between atoms: C_40  and  C_51
   15  A    between atoms: C_51  and  O_52
                            x       y       z     vdW  Elec       q    Type
                         _______ _______ _______ _____ _____    ______ ____

>  <TORSDO>
F 15

$$$$
=
 OpenBabel11042417243D

 56 63  0  0  1  0  0  0  0  0999 V2000
  191.5420  172.9920  143.6240 C   0  0  2  0  0  3  0  0  0  0  0  0
  193.2580  176.7610  145.4710 O   0  0  0  0  0  0  0  0  0  0  0  0
  189.7110  174.1600  144.8910 C   0  0  0  0  0  2  0  0  0  0  0  0
  192.0830  176.3180  145.3660 C   0  0  0  0  0  0  0  0  0  0  0  0
  191.4650  177.1710  147.4760 O   0  0  0  0  0  0  0  0  0  0  0  0
  191.2080  174.1130  144.6120 C   0  0  2  0  0  3  0  0  0  0  0  0
  191.0820  176.6390  146.3990 C   0  0  0  0  0  0  0  0  0  0  0  0
  191.7360  175.4790  144.1780 C   0  0  0  0  0  2  0  0  0  0  0  0
  189.4160  174.8000  146.2410 C   0  0  0  0  0  2  0  0  0  0  0  0
  189.6270  176.3060  146.1890 C   0  0  1  0  0  3  0  0  0  0  0  0
  188.7260  176.9620  147.2270 C   0  0  0  0  0  2  0  0  0  0  0  0
  187.4360  176.2890  147.2730 N   0  0  0  0  0  2  0  0  0  0  0  0
  186.4230  177.3230  147.4400 C   0  0  1  0  0  3  0  0  0  0  0  0
  187.0630  178.5610  148.0510 C   0  0  0  0  0  1  0  0  0  0  0  0
  185.6720  177.6200  146.1220 C   0  0  0  0  0  0  0  0  0  0  0  0
  184.2970  178.1670  146.4650 C   0  0  0  0  0  1  0  0  0  0  0  0
  185.4420  176.3400  145.3150 C   0  0  0  0  0  1  0  0  0  0  0  0
  186.3770  178.6880  145.3860 N   0  0  0  0  0  2  0  0  0  0  0  0
  185.5250  180.7110  143.8870 O   0  0  0  0  0  0  0  0  0  0  0  0
  184.3020  178.5960  143.6790 O   0  0  0  0  0  0  0  0  0  0  0  0
  185.6580  179.2150  143.8830 S   0  0  0  0  0  0  0  0  0  0  0  0
  187.7070  177.8400  143.0020 O   0  0  0  0  0  0  0  0  0  0  0  0
  187.9300  176.9140  141.9640 C   0  0  0  0  0  2  0  0  0  0  0  0
  186.9390  177.1490  140.8440 C   0  0  0  0  0  2  0  0  0  0  0  0
  186.7270  178.7380  142.5400 C   0  0  1  0  0  3  0  0  0  0  0  0
  185.9310  178.0590  141.4580 C   0  0  0  0  0  2  0  0  0  0  0  0
  193.0040  173.3950  142.6020 S   0  0  0  0  0  0  0  0  0  0  0  0
  194.1100  172.1770  143.4120 C   0  0  2  0  0  3  0  0  0  0  0  0
  195.7520  168.1660  148.0230 C   0  0  0  0  0  2  0  0  0  0  0  0
  193.5990  170.7680  143.2600 C   0  0  0  0  0  0  0  0  0  0  0  0
  193.0560  170.4020  142.1820 O   0  0  0  0  0  0  0  0  0  0  0  0
  195.1870  168.3770  146.6430 C   0  0  2  0  0  3  0  0  0  0  0  0
  197.1250  168.4540  147.4660 C   0  0  0  0  0  2  0  0  0  0  0  0
  197.0530  170.1960  146.1490 C   0  0  0  0  0  2  0  0  0  0  0  0
  194.5520  171.6770  145.7360 C   0  0  0  0  0  3  0  0  0  0  0  0
  196.1300  169.8460  145.0890 C   0  0  1  0  0  3  0  0  0  0  0  0
  196.5640  168.7260  146.0700 C   0  0  2  0  0  0  0  0  0  0  0  0
  193.2870  168.4730  144.1890 C   0  0  0  0  0  1  0  0  0  0  0  0
  193.7960  169.8330  144.3310 N   0  0  0  0  0  0  0  0  0  0  0  0
  194.3320  169.4900  146.6100 O   0  0  0  0  0  0  0  0  0  0  0  0
  194.6840  170.1970  145.4500 C   0  0  2  0  0  0  0  0  0  0  0  0
  194.2950  172.5340  144.8060 N   0  0  0  0  0  0  0  0  0  0  0  0
  190.3600  172.5150  142.7830 C   0  0  0  0  0  2  0  0  0  0  0  0
  190.2850  173.2110  141.5740 O   0  0  0  0  0  0  0  0  0  0  0  0
  190.2550  172.2130  140.5970 C   0  0  0  0  0  2  0  0  0  0  0  0
  192.9180  174.5480  137.7240 C   0  0  0  0  0  2  0  0  0  0  0  0
  192.3520  173.4450  138.6340 C   0  0  0  0  0  2  0  0  0  0  0  0
  188.9150  173.5560  137.4400 N   0  0  0  0  0  0  0  0  0  0  0  0
  190.9110  173.3190  138.4380 N   0  0  0  0  0  0  0  0  0  0  0  0
  190.9120  174.4000  136.2860 N   0  0  0  0  0  2  0  0  0  0  0  0
  189.9780  172.7940  139.2430 C   0  0  0  0  0  0  0  0  0  0  0  0
  190.2470  173.7400  137.3600 C   0  0  0  0  0  0  0  0  0  0  0  0
  188.7370  172.9490  138.6380 C   0  0  0  0  0  3  0  0  0  0  0  0
  192.3750  174.4240  136.2890 C   0  0  1  0  0  3  0  0  0  0  0  0
  191.9910  176.6650  135.5540 O   0  0  0  0  0  1  0  0  0  0  0  0
  192.8630  175.5790  135.4350 C   0  0  0  0  0  2  0  0  0  0  0  0
  1 43  1  6  0  0  0
  3  9  1  0  0  0  0
  4  2  2  0  0  0  0
  4  7  1  0  0  0  0
  6  1  1  6  0  0  0
  6  3  1  0  0  0  0
  7  5  2  0  0  0  0
  8  6  1  0  0  0  0
  8  4  1  0  0  0  0
 10  9  1  0  0  0  0
 10  7  1  0  0  0  0
 10 11  1  1  0  0  0
 11 12  1  0  0  0  0
 12 13  1  0  0  0  0
 13 14  1  6  0  0  0
 15 16  1  0  0  0  0
 15 13  1  0  0  0  0
 17 15  1  0  0  0  0
 18 15  1  0  0  0  0
 20 21  2  0  0  0  0
 21 19  2  0  0  0  0
 21 18  1  0  0  0  0
 23 22  1  0  0  0  0
 24 26  1  0  0  0  0
 24 23  1  0  0  0  0
 25 22  1  0  0  0  0
 25 21  1  1  0  0  0
 26 25  1  0  0  0  0
 27  1  1  0  0  0  0
 28 27  1  1  0  0  0
 28 42  1  0  0  0  0
 30 28  1  0  0  0  0
 30 39  1  0  0  0  0
 31 30  2  0  0  0  0
 32 29  1  1  0  0  0
 33 29  1  0  0  0  0
 36 41  1  0  0  0  0
 36 37  1  0  0  0  0
 36 34  1  1  0  0  0
 37 34  1  1  0  0  0
 37 32  1  0  0  0  0
 37 33  1  0  0  0  0
 38 39  1  0  0  0  0
 39 41  1  0  0  0  0
 40 32  1  0  0  0  0
 41 35  1  1  0  0  0
 41 40  1  0  0  0  0
 42 35  2  0  0  0  0
 44 43  1  0  0  0  0
 45 44  1  0  0  0  0
 46 47  1  0  0  0  0
 48 53  1  0  0  0  0
 49 47  1  0  0  0  0
 49 51  1  0  0  0  0
 50 54  1  0  0  0  0
 50 52  1  0  0  0  0
 51 45  1  0  0  0  0
 52 48  2  0  0  0  0
 52 49  1  0  0  0  0
 53 51  2  0  0  0  0
 54 56  1  6  0  0  0
 54 46  1  0  0  0  0
 56 55  1  0  0  0  0
M  END
>  <MODEL>
7

>  <REMARK>
 VINA RESULT:      -7.3      2.165      6.144
  Name = 
  15 active torsions:
  status: ('A' for Active; 'I' for Inactive)
    1  A    between atoms: C_2  and  C_11
    2  A    between atoms: C_2  and  N_25
    3  A    between atoms: N_3  and  C_11
    4  A    between atoms: N_3  and  S_47
    5  A    between atoms: C_5  and  S_19
    6  A    between atoms: S_19  and  C_35
    7  A    between atoms: C_21  and  C_35
    8  A    between atoms: C_24  and  C_35
    9  A    between atoms: C_24  and  O_52
   10  A    between atoms: N_25  and  C_27
   11  A    between atoms: C_27  and  C_49
   12  A    between atoms: C_28  and  S_47
   13  A    between atoms: C_32  and  CA_53
   14  A    between atoms: C_40  and  C_51
   15  A    between atoms: C_51  and  O_52
                            x       y       z     vdW  Elec       q    Type
                         _______ _______ _______ _____ _____    ______ ____

>  <TORSDO>
F 15

$$$$
=
 OpenBabel11042417243D

 56 63  0  0  1  0  0  0  0  0999 V2000
  189.6920  176.2200  144.3470 C   0  0  2  0  0  3  0  0  0  0  0  0
  191.2950  171.9860  144.5970 O   0  0  0  0  0  0  0  0  0  0  0  0
  189.1170  175.0250  142.2110 C   0  0  0  0  0  2  0  0  0  0  0  0
  190.5410  172.5680  143.7730 C   0  0  0  0  0  0  0  0  0  0  0  0
  191.4430  171.3720  141.9510 O   0  0  0  0  0  0  0  0  0  0  0  0
  189.9210  174.9630  143.5030 C   0  0  2  0  0  3  0  0  0  0  0  0
  190.5420  172.1530  142.3580 C   0  0  0  0  0  0  0  0  0  0  0  0
  189.6530  173.6670  144.2630 C   0  0  0  0  0  2  0  0  0  0  0  0
  189.7400  174.1580  141.1240 C   0  0  0  0  0  2  0  0  0  0  0  0
  189.5010  172.6810  141.4020 C   0  0  1  0  0  3  0  0  0  0  0  0
  189.4960  171.9290  140.0790 C   0  0  0  0  0  2  0  0  0  0  0  0
  189.7140  172.8510  138.9730 N   0  0  0  0  0  2  0  0  0  0  0  0
  190.8030  172.3050  138.1730 C   0  0  1  0  0  3  0  0  0  0  0  0
  190.9070  170.8070  138.4200 C   0  0  0  0  0  1  0  0  0  0  0  0
  190.6620  172.6620  136.6760 C   0  0  0  0  0  0  0  0  0  0  0  0
  189.8330  173.9300  136.5610 C   0  0  0  0  0  1  0  0  0  0  0  0
  189.9000  171.5740  135.9160 C   0  0  0  0  0  1  0  0  0  0  0  0
  191.9920  172.9790  136.1210 N   0  0  0  0  0  2  0  0  0  0  0  0
  192.7530  174.2410  138.3320 O   0  0  0  0  0  0  0  0  0  0  0  0
  192.2670  175.6410  136.3790 O   0  0  0  0  0  0  0  0  0  0  0  0
  192.8430  174.3280  136.8360 S   0  0  0  0  0  0  0  0  0  0  0  0
  195.0690  175.5380  136.1720 O   0  0  0  0  0  0  0  0  0  0  0  0
  196.4040  175.5150  136.6230 C   0  0  0  0  0  2  0  0  0  0  0  0
  196.7080  174.1760  137.2590 C   0  0  0  0  0  2  0  0  0  0  0  0
  194.5570  174.2420  136.3580 C   0  0  1  0  0  3  0  0  0  0  0  0
  195.3610  173.5590  137.4300 C   0  0  0  0  0  2  0  0  0  0  0  0
  191.1440  177.3300  144.3290 S   0  0  0  0  0  0  0  0  0  0  0  0
  192.3140  176.0610  143.7100 C   0  0  2  0  0  3  0  0  0  0  0  0
  197.9090  174.0590  141.5340 C   0  0  0  0  0  2  0  0  0  0  0  0
  193.3160  175.6630  144.7620 C   0  0  0  0  0  0  0  0  0  0  0  0
  192.9630  175.5590  145.9690 O   0  0  0  0  0  0  0  0  0  0  0  0
  196.9490  174.1870  142.6870 C   0  0  2  0  0  3  0  0  0  0  0  0
  197.0360  172.9610  140.9760 C   0  0  0  0  0  2  0  0  0  0  0  0
  194.9320  173.5380  141.0910 C   0  0  0  0  0  2  0  0  0  0  0  0
  194.1410  176.1680  142.1310 C   0  0  0  0  0  3  0  0  0  0  0  0
  194.6610  173.7480  142.4990 C   0  0  1  0  0  3  0  0  0  0  0  0
  196.0220  173.1140  142.1100 C   0  0  2  0  0  0  0  0  0  0  0  0
  195.6310  174.9700  145.3870 C   0  0  0  0  0  1  0  0  0  0  0  0
  194.6570  175.3410  144.3650 N   0  0  0  0  0  0  0  0  0  0  0  0
  196.3230  175.4440  142.6880 O   0  0  0  0  0  0  0  0  0  0  0  0
  194.9650  175.1850  142.9320 C   0  0  2  0  0  0  0  0  0  0  0  0
  192.9630  176.5390  142.5040 N   0  0  0  0  0  0  0  0  0  0  0  0
  189.1870  175.9480  145.7620 C   0  0  0  0  0  2  0  0  0  0  0  0
  187.8100  176.1620  145.8590 O   0  0  0  0  0  0  0  0  0  0  0  0
  187.6630  177.5480  145.7710 C   0  0  0  0  0  2  0  0  0  0  0  0
  185.8300  178.1050  141.6320 C   0  0  0  0  0  2  0  0  0  0  0  0
  186.5290  177.4950  142.8600 C   0  0  0  0  0  2  0  0  0  0  0  0
  184.1720  178.6550  145.3800 N   0  0  0  0  0  0  0  0  0  0  0  0
  185.8340  177.8840  144.0820 N   0  0  0  0  0  0  0  0  0  0  0  0
  183.7750  178.4450  142.9650 N   0  0  0  0  0  2  0  0  0  0  0  0
  186.2740  177.9160  145.3470 C   0  0  0  0  0  0  0  0  0  0  0  0
  184.5680  178.3060  144.1400 C   0  0  0  0  0  0  0  0  0  0  0  0
  185.2540  178.4050  146.1550 C   0  0  0  0  0  3  0  0  0  0  0  0
  184.3040  177.9170  141.7070 C   0  0  1  0  0  3  0  0  0  0  0  0
  182.4170  177.9800  140.2410 O   0  0  0  0  0  1  0  0  0  0  0  0
  183.6260  178.6150  140.5420 C   0  0  0  0  0  2  0  0  0  0  0  0
  1 43  1  1  0  0  0
  3  6  1  0  0  0  0
  4  8  1  0  0  0  0
  4  2  2  0  0  0  0
  5  7  2  0  0  0  0
  6  8  1  0  0  0  0
  6  1  1  1  0  0  0
  7  4  1  0  0  0  0
  9 10  1  0  0  0  0
  9  3  1  0  0  0  0
 10 11  1  6  0  0  0
 10  7  1  0  0  0  0
 12 11  1  0  0  0  0
 13 14  1  6  0  0  0
 13 12  1  0  0  0  0
 15 13  1  0  0  0  0
 16 15  1  0  0  0  0
 17 15  1  0  0  0  0
 18 15  1  0  0  0  0
 18 21  1  0  0  0  0
 20 21  2  0  0  0  0
 21 19  2  0  0  0  0
 22 25  1  0  0  0  0
 22 23  1  0  0  0  0
 23 24  1  0  0  0  0
 24 26  1  0  0  0  0
 25 21  1  1  0  0  0
 25 26  1  0  0  0  0
 27  1  1  0  0  0  0
 28 27  1  1  0  0  0
 28 30  1  0  0  0  0
 30 31  2  0  0  0  0
 32 29  1  6  0  0  0
 32 40  1  0  0  0  0
 33 29  1  0  0  0  0
 34 37  1  0  0  0  0
 35 42  2  0  0  0  0
 36 34  1  6  0  0  0
 36 41  1  0  0  0  0
 37 33  1  1  0  0  0
 37 36  1  0  0  0  0
 37 32  1  0  0  0  0
 39 30  1  0  0  0  0
 39 38  1  0  0  0  0
 40 41  1  0  0  0  0
 41 35  1  6  0  0  0
 41 39  1  0  0  0  0
 42 28  1  0  0  0  0
 43 44  1  0  0  0  0
 45 44  1  0  0  0  0
 46 54  1  0  0  0  0
 46 47  1  0  0  0  0
 47 49  1  0  0  0  0
 48 53  1  0  0  0  0
 49 52  1  0  0  0  0
 49 51  1  0  0  0  0
 50 52  1  0  0  0  0
 51 45  1  0  0  0  0
 51 53  2  0  0  0  0
 52 48  2  0  0  0  0
 54 56  1  6  0  0  0
 54 50  1  0  0  0  0
 55 56  1  0  0  0  0
M  END
>  <MODEL>
8

>  <REMARK>
 VINA RESULT:      -7.2      2.487      9.340
  Name = 
  15 active torsions:
  status: ('A' for Active; 'I' for Inactive)
    1  A    between atoms: C_2  and  C_11
    2  A    between atoms: C_2  and  N_25
    3  A    between atoms: N_3  and  C_11
    4  A    between atoms: N_3  and  S_47
    5  A    between atoms: C_5  and  S_19
    6  A    between atoms: S_19  and  C_35
    7  A    between atoms: C_21  and  C_35
    8  A    between atoms: C_24  and  C_35
    9  A    between atoms: C_24  and  O_52
   10  A    between atoms: N_25  and  C_27
   11  A    between atoms: C_27  and  C_49
   12  A    between atoms: C_28  and  S_47
   13  A    between atoms: C_32  and  CA_53
   14  A    between atoms: C_40  and  C_51
   15  A    between atoms: C_51  and  O_52
                            x       y       z     vdW  Elec       q    Type
                         _______ _______ _______ _____ _____    ______ ____

>  <TORSDO>
F 15

$$$$
=
 OpenBabel11042417243D

 56 63  0  0  1  0  0  0  0  0999 V2000
  191.6780  173.5600  143.2440 C   0  0  2  0  0  3  0  0  0  0  0  0
  193.3140  176.5760  146.2090 O   0  0  0  0  0  0  0  0  0  0  0  0
  189.7420  174.7770  144.2890 C   0  0  0  0  0  2  0  0  0  0  0  0
  192.1600  176.3690  145.7470 C   0  0  0  0  0  0  0  0  0  0  0  0
  191.1320  176.9180  147.7980 O   0  0  0  0  0  0  0  0  0  0  0  0
  191.2430  174.5230  144.3520 C   0  0  2  0  0  3  0  0  0  0  0  0
  190.9750  176.6650  146.5730 C   0  0  0  0  0  0  0  0  0  0  0  0
  192.0280  175.8330  144.3580 C   0  0  0  0  0  2  0  0  0  0  0  0
  189.1920  175.2010  145.6450 C   0  0  0  0  0  2  0  0  0  0  0  0
  189.5920  176.6320  145.9720 C   0  0  1  0  0  3  0  0  0  0  0  0
  188.5440  177.2340  146.8980 C   0  0  0  0  0  2  0  0  0  0  0  0
  187.2330  176.6710  146.6080 N   0  0  0  0  0  2  0  0  0  0  0  0
  186.2480  177.5420  147.2380 C   0  0  1  0  0  3  0  0  0  0  0  0
  186.9670  178.6310  148.0200 C   0  0  0  0  0  1  0  0  0  0  0  0
  185.2300  178.1020  146.2180 C   0  0  0  0  0  0  0  0  0  0  0  0
  185.7070  179.4720  145.7660 C   0  0  0  0  0  1  0  0  0  0  0  0
  183.8580  178.3110  146.8630 C   0  0  0  0  0  1  0  0  0  0  0  0
  185.2180  177.2440  145.0170 N   0  0  0  0  0  2  0  0  0  0  0  0
  186.0000  179.3420  143.5860 O   0  0  0  0  0  0  0  0  0  0  0  0
  183.8370  178.3510  142.9940 O   0  0  0  0  0  0  0  0  0  0  0  0
  185.2330  178.0560  143.4700 S   0  0  0  0  0  0  0  0  0  0  0  0
  185.8700  177.5230  140.9850 O   0  0  0  0  0  0  0  0  0  0  0  0
  187.0630  177.2700  140.2810 C   0  0  0  0  0  2  0  0  0  0  0  0
  188.1020  176.6960  141.2200 C   0  0  0  0  0  2  0  0  0  0  0  0
  186.0480  177.0080  142.2820 C   0  0  1  0  0  3  0  0  0  0  0  0
  187.5220  176.9430  142.5710 C   0  0  0  0  0  2  0  0  0  0  0  0
  193.2270  174.1020  142.4380 S   0  0  0  0  0  0  0  0  0  0  0  0
  194.2870  172.8540  143.2630 C   0  0  2  0  0  3  0  0  0  0  0  0
  195.5480  168.4590  147.6390 C   0  0  0  0  0  2  0  0  0  0  0  0
  193.8750  171.4480  142.9110 C   0  0  0  0  0  0  0  0  0  0  0  0
  193.4930  171.1720  141.7400 O   0  0  0  0  0  0  0  0  0  0  0  0
  195.1510  168.7880  146.2240 C   0  0  2  0  0  3  0  0  0  0  0  0
  196.9630  168.8590  147.2970 C   0  0  0  0  0  2  0  0  0  0  0  0
  196.9640  170.7220  146.1560 C   0  0  0  0  0  2  0  0  0  0  0  0
  194.4590  172.1350  145.5650 C   0  0  0  0  0  3  0  0  0  0  0  0
  196.2010  170.4460  144.9560 C   0  0  1  0  0  3  0  0  0  0  0  0
  196.5680  169.2500  145.8720 C   0  0  2  0  0  0  0  0  0  0  0  0
  193.5720  169.0580  143.5640 C   0  0  0  0  0  1  0  0  0  0  0  0
  193.9860  170.4160  143.9030 N   0  0  0  0  0  0  0  0  0  0  0  0
  194.2480  169.8630  146.1880 O   0  0  0  0  0  0  0  0  0  0  0  0
  194.7050  170.6990  145.1580 C   0  0  2  0  0  0  0  0  0  0  0  0
  194.2760  173.0720  144.6980 N   0  0  0  0  0  0  0  0  0  0  0  0
  190.5850  173.2220  142.2330 C   0  0  0  0  0  2  0  0  0  0  0  0
  190.8730  173.7600  140.9760 O   0  0  0  0  0  0  0  0  0  0  0  0
  189.8290  173.3200  140.1590 C   0  0  0  0  0  2  0  0  0  0  0  0
  191.2580  169.3220  138.4950 C   0  0  0  0  0  2  0  0  0  0  0  0
  190.3910  170.4250  139.1260 C   0  0  0  0  0  2  0  0  0  0  0  0
  191.1470  173.0590  136.7290 N   0  0  0  0  0  0  0  0  0  0  0  0
  190.5680  171.6810  138.4040 N   0  0  0  0  0  0  0  0  0  0  0  0
  191.4260  170.6390  136.4090 N   0  0  0  0  0  2  0  0  0  0  0  0
  190.3340  172.9390  138.8000 C   0  0  0  0  0  0  0  0  0  0  0  0
  191.0270  171.7860  137.1550 C   0  0  0  0  0  0  0  0  0  0  0  0
  190.7030  173.7990  137.7740 C   0  0  0  0  0  3  0  0  0  0  0  0
  191.1280  169.3170  136.9610 C   0  0  1  0  0  3  0  0  0  0  0  0
  191.8180  168.1670  134.9830 O   0  0  0  0  0  1  0  0  0  0  0  0
  192.0680  168.2930  136.3520 C   0  0  0  0  0  2  0  0  0  0  0  0
  1 43  1  6  0  0  0
  3  6  1  0  0  0  0
  3  9  1  0  0  0  0
  4  2  2  0  0  0  0
  4  7  1  0  0  0  0
  6  1  1  6  0  0  0
  6  8  1  0  0  0  0
  7  5  2  0  0  0  0
  8  4  1  0  0  0  0
  9 10  1  0  0  0  0
 10  7  1  0  0  0  0
 10 11  1  1  0  0  0
 12 11  1  0  0  0  0
 12 13  1  0  0  0  0
 13 14  1  6  0  0  0
 15 17  1  0  0  0  0
 15 13  1  0  0  0  0
 16 15  1  0  0  0  0
 18 15  1  0  0  0  0
 20 21  2  0  0  0  0
 21 19  2  0  0  0  0
 21 18  1  0  0  0  0
 22 25  1  0  0  0  0
 23 22  1  0  0  0  0
 23 24  1  0  0  0  0
 24 26  1  0  0  0  0
 25 26  1  0  0  0  0
 25 21  1  1  0  0  0
 27  1  1  0  0  0  0
 28 27  1  6  0  0  0
 28 42  1  0  0  0  0
 30 28  1  0  0  0  0
 30 39  1  0  0  0  0
 31 30  2  0  0  0  0
 32 29  1  1  0  0  0
 33 29  1  0  0  0  0
 36 41  1  0  0  0  0
 36 37  1  0  0  0  0
 36 34  1  1  0  0  0
 37 34  1  1  0  0  0
 37 32  1  0  0  0  0
 37 33  1  0  0  0  0
 38 39  1  0  0  0  0
 39 41  1  0  0  0  0
 40 32  1  0  0  0  0
 41 35  1  1  0  0  0
 41 40  1  0  0  0  0
 42 35  2  0  0  0  0
 44 43  1  0  0  0  0
 45 44  1  0  0  0  0
 46 47  1  0  0  0  0
 48 52  2  0  0  0  0
 48 53  1  0  0  0  0
 49 51  1  0  0  0  0
 49 47  1  0  0  0  0
 50 54  1  0  0  0  0
 50 52  1  0  0  0  0
 51 45  1  0  0  0  0
 52 49  1  0  0  0  0
 53 51  2  0  0  0  0
 54 56  1  6  0  0  0
 54 46  1  0  0  0  0
 55 56  1  0  0  0  0
M  END
>  <MODEL>
9

>  <REMARK>
 VINA RESULT:      -7.0      2.218      6.352
  Name = 
  15 active torsions:
  status: ('A' for Active; 'I' for Inactive)
    1  A    between atoms: C_2  and  C_11
    2  A    between atoms: C_2  and  N_25
    3  A    between atoms: N_3  and  C_11
    4  A    between atoms: N_3  and  S_47
    5  A    between atoms: C_5  and  S_19
    6  A    between atoms: S_19  and  C_35
    7  A    between atoms: C_21  and  C_35
    8  A    between atoms: C_24  and  C_35
    9  A    between atoms: C_24  and  O_52
   10  A    between atoms: N_25  and  C_27
   11  A    between atoms: C_27  and  C_49
   12  A    between atoms: C_28  and  S_47
   13  A    between atoms: C_32  and  CA_53
   14  A    between atoms: C_40  and  C_51
   15  A    between atoms: C_51  and  O_52
                            x       y       z     vdW  Elec       q    Type
                         _______ _______ _______ _____ _____    ______ ____

>  <TORSDO>
F 15

$$$$
