=
 OpenBabel11042413523D

 70 75  0  0  1  0  0  0  0  0999 V2000
  191.2380  170.0580  137.6090 N   0  0  0  0  0  0  0  0  0  0  0  0
  192.3120  169.6110  136.7660 C   0  0  0  0  0  0  0  0  0  0  0  0
  193.6170  170.1070  136.9590 C   0  0  0  0  0  3  0  0  0  0  0  0
  194.6570  169.7060  136.1430 C   0  0  0  0  0  3  0  0  0  0  0  0
  193.1540  168.3050  134.8830 C   0  0  0  0  0  3  0  0  0  0  0  0
  192.1110  168.6860  135.7270 C   0  0  0  0  0  3  0  0  0  0  0  0
  194.4360  168.8210  135.0880 C   0  0  0  0  0  3  0  0  0  0  0  0
  190.7630  169.2210  138.7680 C   0  0  0  0  0  2  0  0  0  0  0  0
  191.7760  168.1660  139.2740 C   0  0  0  0  0  2  0  0  0  0  0  0
  191.9500  168.9620  141.4980 N   0  0  0  0  0  0  0  0  0  0  0  0
  192.5590  168.5740  140.4290 N   0  0  0  0  0  0  0  0  0  0  0  0
  192.7190  169.3700  142.6460 C   0  0  0  0  0  0  0  0  0  0  0  0
  193.7090  168.7030  142.9960 O   0  0  0  0  0  0  0  0  0  0  0  0
  192.1500  173.0580  143.0190 C   0  0  0  0  0  2  0  0  0  0  0  0
  194.5310  173.0700  145.3930 O   0  0  0  0  0  1  0  0  0  0  0  0
  192.3870  173.3500  144.4410 N   0  0  0  0  0  0  0  0  0  0  0  0
  193.2930  172.4440  145.1520 C   0  0  1  0  0  3  0  0  0  0  0  0
  192.2660  170.5460  143.5430 C   0  0  1  0  0  3  0  0  0  0  0  0
  193.4820  171.1080  144.3390 C   0  0  0  0  0  2  0  0  0  0  0  0
  191.5810  171.6140  142.7310 C   0  0  0  0  0  2  0  0  0  0  0  0
  192.0930  174.6920  145.1320 C   0  0  2  0  0  3  0  0  0  0  0  0
  189.7600  174.9520  147.4600 C   0  0  0  0  0  2  0  0  0  0  0  0
  189.0460  172.9970  145.9490 O   0  0  0  0  0  0  0  0  0  0  0  0
  191.1200  175.3750  147.2720 N   0  0  0  0  0  2  0  0  0  0  0  0
  191.2610  174.2710  146.3530 C   0  0  1  0  0  3  0  0  0  0  0  0
  189.8080  173.8500  146.4110 C   0  0  0  0  0  0  0  0  0  0  0  0
  191.5330  175.8550  144.1990 C   0  0  1  0  0  3  0  0  0  0  0  0
  190.1380  175.9650  144.0940 O   0  0  0  0  0  0  0  0  0  0  0  0
  189.3590  176.9100  144.8360 C   0  0  0  0  0  0  0  0  0  0  0  0
  189.8510  177.9310  145.3140 O   0  0  0  0  0  0  0  0  0  0  0  0
  187.8990  176.6260  144.8920 C   0  0  0  0  0  2  0  0  0  0  0  0
  185.6170  177.0990  143.1580 O   0  0  0  0  0  1  0  0  0  0  0  0
  186.9990  177.8190  143.8140 P   0  0  0  0  0  0  0  0  0  0  0  0
  187.9990  178.3500  142.5460 O   0  0  0  0  0  0  0  0  0  0  0  0
  186.5320  178.9910  144.6690 O   0  0  0  0  0  1  0  0  0  0  0  0
  192.3260  177.1720  143.9680 C   0  0  0  0  0  2  0  0  0  0  0  0
  193.8230  176.9290  144.2280 C   0  0  0  0  0  2  0  0  0  0  0  0
  194.9130  176.3100  146.3040 O   0  0  0  0  0  1  0  0  0  0  0  0
  194.2110  177.3320  145.6510 C   0  0  0  0  0  2  0  0  0  0  0  0
  190.7590  171.4650  137.4210 C   0  0  0  0  0  2  0  0  0  0  0  0
  191.7900  172.1680  134.7750 O   0  0  0  0  0  0  0  0  0  0  0  0
  190.3890  172.0430  135.7000 P   0  0  1  0  0  0  0  0  0  0  0  0
  189.5880  170.9650  135.0200 O   0  0  0  0  0  1  0  0  0  0  0  0
  189.6880  173.6370  135.6860 O   0  0  0  0  0  0  0  0  0  0  0  0
  190.7710  174.5280  135.8520 C   0  0  0  0  0  2  0  0  0  0  0  0
  193.5490  174.8740  138.7520 C   0  0  2  0  0  3  0  0  0  0  0  0
  192.8360  173.7970  139.5530 C   0  0  0  0  0  2  0  0  0  0  0  0
  191.4220  174.3890  137.2150 C   0  0  0  0  0  0  0  0  0  0  0  0
  192.9260  174.8320  137.3450 C   0  0  0  0  0  2  0  0  0  0  0  0
  191.2850  173.6370  139.6410 C   0  0  2  0  0  3  0  0  0  0  0  0
  190.7710  173.7660  138.2400 C   0  0  0  0  0  3  0  0  0  0  0  0
  195.2220  174.8810  138.9910 C   0  0  1  0  0  3  0  0  0  0  0  0
  195.2350  175.0510  140.3440 O   0  0  0  0  0  0  0  0  0  0  0  0
  195.4470  173.6540  142.3410 C   0  0  0  0  0  2  0  0  0  0  0  0
  196.4900  174.6920  142.5390 C   0  0  2  0  0  3  0  0  0  0  0  0
  196.1460  174.1490  141.1050 C   0  0  2  0  0  3  0  0  0  0  0  0
  197.9130  174.3300  144.7230 O   0  0  0  0  0  1  0  0  0  0  0  0
  197.5460  173.8250  143.4500 C   0  0  0  0  0  2  0  0  0  0  0  0
  196.1300  173.8300  138.6730 O   0  0  0  0  0  0  0  0  0  0  0  0
  197.5420  175.7220  138.5600 O   0  0  0  0  0  1  0  0  0  0  0  0
  197.5350  174.2290  137.6350 P   0  0  2  0  0  0  0  0  0  0  0  0
  196.9470  174.0180  135.0430 O   0  0  0  0  0  0  0  0  0  0  0  0
  195.8590  173.3340  135.6440 C   0  0  0  0  0  2  0  0  0  0  0  0
  196.3510  174.6120  136.2330 C   0  0  1  0  0  3  0  0  0  0  0  0
  190.6710  174.5720  140.5960 O   0  0  0  0  0  0  0  0  0  0  0  0
  189.3350  174.5360  140.9200 C   0  0  0  0  0  0  0  0  0  0  0  0
  188.6860  175.6260  141.2560 O   0  0  0  0  0  0  0  0  0  0  0  0
  188.2270  172.7500  139.8230 O   0  0  0  0  0  0  0  0  0  0  0  0
  188.6550  173.2980  140.9100 C   0  0  0  0  0  0  0  0  0  0  0  0
  188.5090  172.5760  142.0670 O   0  0  0  0  0  1  0  0  0  0  0  0
  1  8  1  0  0  0  0
  2  3  1  0  0  0  0
  2  1  1  0  0  0  0
  4  3  2  0  0  0  0
  5  7  2  0  0  0  0
  5  6  1  0  0  0  0
  6  2  2  0  0  0  0
  7  4  1  0  0  0  0
  8  9  1  0  0  0  0
  9 11  1  0  0  0  0
 10 12  1  0  0  0  0
 11 10  2  0  0  0  0
 12 13  2  0  0  0  0
 14 16  1  0  0  0  0
 16 21  1  0  0  0  0
 16 17  1  0  0  0  0
 17 15  1  6  0  0  0
 18 12  1  6  0  0  0
 18 19  1  0  0  0  0
 19 17  1  0  0  0  0
 20 14  1  0  0  0  0
 20 18  1  0  0  0  0
 21 27  1  6  0  0  0
 23 26  2  0  0  0  0
 24 22  1  0  0  0  0
 25 21  1  6  0  0  0
 25 26  1  0  0  0  0
 25 24  1  0  0  0  0
 26 22  1  0  0  0  0
 27 36  1  1  0  0  0
 28 27  1  0  0  0  0
 28 29  1  0  0  0  0
 29 31  1  0  0  0  0
 29 30  2  0  0  0  0
 32 33  1  0  0  0  0
 33 35  1  0  0  0  0
 33 31  1  0  0  0  0
 34 33  2  0  0  0  0
 36 37  1  0  0  0  0
 37 39  1  0  0  0  0
 39 38  1  0  0  0  0
 40  1  1  0  0  0  0
 42 41  2  6  0  0  0
 42 40  1  0  0  0  0
 43 42  1  0  0  0  0
 44 42  1  0  0  0  0
 44 45  1  0  0  0  0
 45 48  1  0  0  0  0
 46 52  1  6  0  0  0
 46 47  1  0  0  0  0
 47 50  1  0  0  0  0
 48 49  1  0  0  0  0
 48 51  2  0  0  0  0
 49 46  1  0  0  0  0
 50 65  1  1  0  0  0
 51 50  1  0  0  0  0
 52 59  1  1  0  0  0
 52 53  1  0  0  0  0
 54 55  1  0  0  0  0
 55 58  1  1  0  0  0
 56 53  1  6  0  0  0
 56 54  1  0  0  0  0
 56 55  1  0  0  0  0
 58 57  1  0  0  0  0
 61 60  1  1  0  0  0
 61 59  1  0  0  0  0
 62 63  1  0  0  0  0
 62 64  1  0  0  0  0
 63 64  1  0  0  0  0
 64 61  1  1  0  0  0
 65 66  1  0  0  0  0
 66 67  2  0  0  0  0
 68 69  2  0  0  0  0
 69 66  1  0  0  0  0
 69 70  1  0  0  0  0
M  END
>  <MODEL>
1

>  <REMARK>
 VINA RESULT:      -3.9      0.000      0.000
  Name = 
  31 active torsions:
  status: ('A' for Active; 'I' for Inactive)
    1  A    between atoms: C_4  and  N_20
    2  A    between atoms: C_7  and  C_67
    3  A    between atoms: C_9  and  P_16
    4  A    between atoms: C_9  and  C_36
    5  A    between atoms: O_14  and  C_22
    6  A    between atoms: O_14  and  P_30
    7  A    between atoms: C_15  and  C_21
    8  A    between atoms: C_15  and  O_37
    9  A    between atoms: C_15  and  C_52
   10  A    between atoms: C_17  and  N_20
   11  A    between atoms: C_17  and  P_30
   12  A    between atoms: C_18  and  N_34
   13  A    between atoms: C_18  and  C_56
   14  A    between atoms: N_20  and  C_33
   15  A    between atoms: C_21  and  C_45
   16  A    between atoms: C_22  and  C_31
   17  A    between atoms: C_24  and  C_40
   18  A    between atoms: O_25  and  P_35
   19  A    between atoms: O_25  and  C_67
   20  A    between atoms: C_27  and  C_52
   21  A    between atoms: O_32  and  C_40
   22  A    between atoms: O_32  and  C_58
   23  A    between atoms: C_33  and  C_60
   24  A    between atoms: P_35  and  C_68
   25  A    between atoms: C_36  and  O_37
   26  A    between atoms: N_38  and  C_52
   27  A    between atoms: N_43  and  C_60
   28  A    between atoms: C_45  and  C_64
   29  A    between atoms: C_48  and  C_62
   30  A    between atoms: O_50  and  C_57
   31  A    between atoms: O_50  and  C_67
                            x       y       z     vdW  Elec       q    Type
                         _______ _______ _______ _____ _____    ______ ____

>  <TORSDO>
F 31

$$$$
=
 OpenBabel11042413523D

 70 75  0  0  1  0  0  0  0  0999 V2000
  194.5070  176.0220  144.9930 N   0  0  0  0  0  0  0  0  0  0  0  0
  195.6830  175.7580  144.2100 C   0  0  0  0  0  0  0  0  0  0  0  0
  195.9110  176.4640  143.0120 C   0  0  0  0  0  3  0  0  0  0  0  0
  197.0240  176.2070  142.2360 C   0  0  0  0  0  3  0  0  0  0  0  0
  197.7420  174.5130  143.7940 C   0  0  0  0  0  3  0  0  0  0  0  0
  196.6350  174.7960  144.5920 C   0  0  0  0  0  3  0  0  0  0  0  0
  197.9380  175.2190  142.6040 C   0  0  0  0  0  3  0  0  0  0  0  0
  194.6150  176.4680  146.4270 C   0  0  0  0  0  2  0  0  0  0  0  0
  193.3090  177.0300  147.0400 C   0  0  0  0  0  2  0  0  0  0  0  0
  191.0120  176.5560  147.3660 N   0  0  0  0  0  0  0  0  0  0  0  0
  192.1640  176.1390  146.9610 N   0  0  0  0  0  0  0  0  0  0  0  0
  189.8730  175.6780  147.2930 C   0  0  0  0  0  0  0  0  0  0  0  0
  189.6850  174.8310  148.1850 O   0  0  0  0  0  0  0  0  0  0  0  0
  188.0630  177.6250  144.6480 C   0  0  0  0  0  2  0  0  0  0  0  0
  185.1770  176.5160  145.9670 O   0  0  0  0  0  1  0  0  0  0  0  0
  186.8570  176.8410  144.3400 N   0  0  0  0  0  0  0  0  0  0  0  0
  186.3500  175.9750  145.4070 C   0  0  1  0  0  3  0  0  0  0  0  0
  188.9430  175.6660  146.0560 C   0  0  1  0  0  3  0  0  0  0  0  0
  187.4550  175.7580  146.5080 C   0  0  0  0  0  2  0  0  0  0  0  0
  189.3090  176.7640  145.0930 C   0  0  0  0  0  2  0  0  0  0  0  0
  185.8870  177.1260  143.1810 C   0  0  2  0  0  3  0  0  0  0  0  0
  187.4200  176.2670  140.3800 C   0  0  0  0  0  2  0  0  0  0  0  0
  185.8560  178.2140  139.7690 O   0  0  0  0  0  0  0  0  0  0  0  0
  187.6170  176.0910  141.7920 N   0  0  0  0  0  2  0  0  0  0  0  0
  186.8300  177.2860  141.9790 C   0  0  1  0  0  3  0  0  0  0  0  0
  186.4810  177.4570  140.5160 C   0  0  0  0  0  0  0  0  0  0  0  0
  184.7930  178.2550  143.4390 C   0  0  1  0  0  3  0  0  0  0  0  0
  183.4520  177.8920  143.2420 O   0  0  0  0  0  0  0  0  0  0  0  0
  182.5090  178.6990  142.5280 C   0  0  0  0  0  0  0  0  0  0  0  0
  181.8700  179.5970  143.0740 O   0  0  0  0  0  0  0  0  0  0  0  0
  182.4380  178.4480  141.0630 C   0  0  0  0  0  2  0  0  0  0  0  0
  179.7370  177.6010  141.7120 O   0  0  0  0  0  1  0  0  0  0  0  0
  180.6750  178.3730  140.5360 P   0  0  0  0  0  0  0  0  0  0  0  0
  180.5250  177.5280  139.0690 O   0  0  0  0  0  0  0  0  0  0  0  0
  180.1450  179.7960  140.4040 O   0  0  0  0  0  1  0  0  0  0  0  0
  185.0300  179.4080  144.4540 C   0  0  0  0  0  2  0  0  0  0  0  0
  184.3320  179.0780  145.7860 C   0  0  0  0  0  2  0  0  0  0  0  0
  185.6370  180.4500  147.3010 O   0  0  0  0  0  1  0  0  0  0  0  0
  185.3170  179.1300  146.9550 C   0  0  0  0  0  2  0  0  0  0  0  0
  193.1940  176.0410  144.2710 C   0  0  0  0  0  2  0  0  0  0  0  0
  192.4900  175.1070  141.5890 O   0  0  0  0  0  0  0  0  0  0  0  0
  192.7770  174.6090  143.1720 P   0  0  1  0  0  0  0  0  0  0  0  0
  194.0010  173.7390  143.0730 O   0  0  0  0  0  1  0  0  0  0  0  0
  191.3130  173.8100  143.6730 O   0  0  0  0  0  0  0  0  0  0  0  0
  190.5640  173.6170  142.4920 C   0  0  0  0  0  2  0  0  0  0  0  0
  191.8770  170.8340  139.8880 C   0  0  2  0  0  3  0  0  0  0  0  0
  190.9120  169.8260  140.4910 C   0  0  0  0  0  2  0  0  0  0  0  0
  190.8050  172.2500  141.8800 C   0  0  0  0  0  0  0  0  0  0  0  0
  191.4550  172.2040  140.4470 C   0  0  0  0  0  2  0  0  0  0  0  0
  190.5770  169.7200  142.0120 C   0  0  2  0  0  3  0  0  0  0  0  0
  190.3360  171.1210  142.4860 C   0  0  0  0  0  3  0  0  0  0  0  0
  192.1500  170.5860  138.2380 C   0  0  1  0  0  3  0  0  0  0  0  0
  191.2800  171.5110  137.7440 O   0  0  0  0  0  0  0  0  0  0  0  0
  192.4110  173.6280  137.2730 C   0  0  0  0  0  2  0  0  0  0  0  0
  191.0940  173.7900  136.6060 C   0  0  2  0  0  3  0  0  0  0  0  0
  191.8090  172.3920  136.6640 C   0  0  2  0  0  3  0  0  0  0  0  0
  191.7470  176.1870  135.7380 O   0  0  0  0  0  1  0  0  0  0  0  0
  191.5360  174.8250  135.4090 C   0  0  0  0  0  2  0  0  0  0  0  0
  193.3890  170.7380  137.5500 O   0  0  0  0  0  0  0  0  0  0  0  0
  195.5780  170.7780  138.4410 O   0  0  0  0  0  1  0  0  0  0  0  0
  194.6270  169.4620  137.7710 P   0  0  2  0  0  0  0  0  0  0  0  0
  195.1230  168.1790  135.4880 O   0  0  0  0  0  0  0  0  0  0  0  0
  193.9290  168.8780  135.1740 C   0  0  0  0  0  2  0  0  0  0  0  0
  195.0120  169.5590  135.9400 C   0  0  1  0  0  3  0  0  0  0  0  0
  191.6070  168.9960  142.7720 O   0  0  0  0  0  0  0  0  0  0  0  0
  192.9510  169.2590  142.6430 C   0  0  0  0  0  0  0  0  0  0  0  0
  193.6330  168.8270  141.6080 O   0  0  0  0  0  0  0  0  0  0  0  0
  194.8790  169.8810  143.8740 O   0  0  0  0  0  0  0  0  0  0  0  0
  193.6120  169.9910  143.6540 C   0  0  0  0  0  0  0  0  0  0  0  0
  192.9360  170.9320  144.3860 O   0  0  0  0  0  1  0  0  0  0  0  0
  1  8  1  0  0  0  0
  2  6  1  0  0  0  0
  2  1  1  0  0  0  0
  3  2  2  0  0  0  0
  4  7  2  0  0  0  0
  4  3  1  0  0  0  0
  5  6  2  0  0  0  0
  7  5  1  0  0  0  0
  8  9  1  0  0  0  0
 11  9  1  0  0  0  0
 11 10  2  0  0  0  0
 12 10  1  0  0  0  0
 12 13  2  0  0  0  0
 14 20  1  0  0  0  0
 16 14  1  0  0  0  0
 16 17  1  0  0  0  0
 17 15  1  1  0  0  0
 17 19  1  0  0  0  0
 18 19  1  0  0  0  0
 18 12  1  1  0  0  0
 20 18  1  0  0  0  0
 21 27  1  1  0  0  0
 21 16  1  0  0  0  0
 22 26  1  0  0  0  0
 22 24  1  0  0  0  0
 23 26  2  0  0  0  0
 24 25  1  0  0  0  0
 25 21  1  1  0  0  0
 26 25  1  0  0  0  0
 27 36  1  1  0  0  0
 28 27  1  0  0  0  0
 29 30  2  0  0  0  0
 29 28  1  0  0  0  0
 31 29  1  0  0  0  0
 33 31  1  0  0  0  0
 33 32  1  0  0  0  0
 34 33  2  0  0  0  0
 35 33  1  0  0  0  0
 36 37  1  0  0  0  0
 37 39  1  0  0  0  0
 39 38  1  0  0  0  0
 40  1  1  0  0  0  0
 42 41  2  6  0  0  0
 42 44  1  0  0  0  0
 42 40  1  0  0  0  0
 43 42  1  0  0  0  0
 45 44  1  0  0  0  0
 46 52  1  6  0  0  0
 46 49  1  0  0  0  0
 46 47  1  0  0  0  0
 47 50  1  0  0  0  0
 48 51  2  0  0  0  0
 48 45  1  0  0  0  0
 49 48  1  0  0  0  0
 50 51  1  0  0  0  0
 50 65  1  1  0  0  0
 52 59  1  1  0  0  0
 53 52  1  0  0  0  0
 55 58  1  6  0  0  0
 55 56  1  0  0  0  0
 55 54  1  0  0  0  0
 56 54  1  0  0  0  0
 56 53  1  1  0  0  0
 58 57  1  0  0  0  0
 59 61  1  0  0  0  0
 61 60  1  1  0  0  0
 62 64  1  0  0  0  0
 63 62  1  0  0  0  0
 63 64  1  0  0  0  0
 64 61  1  1  0  0  0
 66 65  1  0  0  0  0
 66 69  1  0  0  0  0
 67 66  2  0  0  0  0
 69 68  2  0  0  0  0
 69 70  1  0  0  0  0
M  END
>  <MODEL>
2

>  <REMARK>
 VINA RESULT:      -3.8      3.300      7.876
  Name = 
  31 active torsions:
  status: ('A' for Active; 'I' for Inactive)
    1  A    between atoms: C_4  and  N_20
    2  A    between atoms: C_7  and  C_67
    3  A    between atoms: C_9  and  P_16
    4  A    between atoms: C_9  and  C_36
    5  A    between atoms: O_14  and  C_22
    6  A    between atoms: O_14  and  P_30
    7  A    between atoms: C_15  and  C_21
    8  A    between atoms: C_15  and  O_37
    9  A    between atoms: C_15  and  C_52
   10  A    between atoms: C_17  and  N_20
   11  A    between atoms: C_17  and  P_30
   12  A    between atoms: C_18  and  N_34
   13  A    between atoms: C_18  and  C_56
   14  A    between atoms: N_20  and  C_33
   15  A    between atoms: C_21  and  C_45
   16  A    between atoms: C_22  and  C_31
   17  A    between atoms: C_24  and  C_40
   18  A    between atoms: O_25  and  P_35
   19  A    between atoms: O_25  and  C_67
   20  A    between atoms: C_27  and  C_52
   21  A    between atoms: O_32  and  C_40
   22  A    between atoms: O_32  and  C_58
   23  A    between atoms: C_33  and  C_60
   24  A    between atoms: P_35  and  C_68
   25  A    between atoms: C_36  and  O_37
   26  A    between atoms: N_38  and  C_52
   27  A    between atoms: N_43  and  C_60
   28  A    between atoms: C_45  and  C_64
   29  A    between atoms: C_48  and  C_62
   30  A    between atoms: O_50  and  C_57
   31  A    between atoms: O_50  and  C_67
                            x       y       z     vdW  Elec       q    Type
                         _______ _______ _______ _____ _____    ______ ____

>  <TORSDO>
F 31

$$$$
=
 OpenBabel11042413523D

 70 75  0  0  1  0  0  0  0  0999 V2000
  190.4380  176.3730  145.8180 N   0  0  0  0  0  0  0  0  0  0  0  0
  190.6290  177.0140  147.0900 C   0  0  0  0  0  0  0  0  0  0  0  0
  189.7270  178.0040  147.5280 C   0  0  0  0  0  3  0  0  0  0  0  0
  189.9080  178.6460  148.7370 C   0  0  0  0  0  3  0  0  0  0  0  0
  191.9100  177.3640  149.1390 C   0  0  0  0  0  3  0  0  0  0  0  0
  191.7090  176.6950  147.9320 C   0  0  0  0  0  3  0  0  0  0  0  0
  191.0080  178.3510  149.5430 C   0  0  0  0  0  3  0  0  0  0  0  0
  191.0510  175.0290  145.5280 C   0  0  0  0  0  2  0  0  0  0  0  0
  192.3360  174.7060  146.3280 C   0  0  0  0  0  2  0  0  0  0  0  0
  194.0830  173.3840  145.4290 N   0  0  0  0  0  0  0  0  0  0  0  0
  193.5350  174.5490  145.5230 N   0  0  0  0  0  0  0  0  0  0  0  0
  195.2730  173.2210  144.6340 C   0  0  0  0  0  0  0  0  0  0  0  0
  196.2800  173.9100  144.8780 O   0  0  0  0  0  0  0  0  0  0  0  0
  195.3380  172.9220  140.8960 C   0  0  0  0  0  2  0  0  0  0  0  0
  192.3150  171.4640  141.0740 O   0  0  0  0  0  1  0  0  0  0  0  0
  194.6160  171.6780  140.5890 N   0  0  0  0  0  0  0  0  0  0  0  0
  193.6150  171.2450  141.5680 C   0  0  1  0  0  3  0  0  0  0  0  0
  195.2900  172.3030  143.3890 C   0  0  1  0  0  3  0  0  0  0  0  0
  193.8320  171.9870  142.9400 C   0  0  0  0  0  2  0  0  0  0  0  0
  196.1030  172.9140  142.2770 C   0  0  0  0  0  2  0  0  0  0  0  0
  194.5370  171.0180  139.2030 C   0  0  2  0  0  3  0  0  0  0  0  0
  197.1220  170.2640  137.2840 C   0  0  0  0  0  2  0  0  0  0  0  0
  196.7700  172.8000  137.0440 O   0  0  0  0  0  0  0  0  0  0  0  0
  196.4110  169.6730  138.3840 N   0  0  0  0  0  2  0  0  0  0  0  0
  196.0040  171.0090  138.7460 C   0  0  1  0  0  3  0  0  0  0  0  0
  196.6250  171.6800  137.5400 C   0  0  0  0  0  0  0  0  0  0  0  0
  193.4380  171.6010  138.2080 C   0  0  1  0  0  3  0  0  0  0  0  0
  193.6340  172.9120  137.7470 O   0  0  0  0  0  0  0  0  0  0  0  0
  192.6900  173.9700  137.9420 C   0  0  0  0  0  0  0  0  0  0  0  0
  191.7740  173.8880  138.7590 O   0  0  0  0  0  0  0  0  0  0  0  0
  192.9610  175.2140  137.1700 C   0  0  0  0  0  2  0  0  0  0  0  0
  192.0910  176.2970  134.6190 O   0  0  0  0  0  0  0  0  0  0  0  0
  192.6690  174.9010  135.3790 P   0  0  0  0  0  0  0  0  0  0  0  0
  191.5380  173.6500  135.1680 O   0  0  0  0  0  1  0  0  0  0  0  0
  193.9990  174.5510  134.7220 O   0  0  0  0  0  1  0  0  0  0  0  0
  192.6150  170.6780  137.2660 C   0  0  0  0  0  2  0  0  0  0  0  0
  192.4450  169.2930  137.9160 C   0  0  0  0  0  2  0  0  0  0  0  0
  190.1180  169.0290  137.2860 O   0  0  0  0  0  1  0  0  0  0  0  0
  191.0020  169.0700  138.3720 C   0  0  0  0  0  2  0  0  0  0  0  0
  189.4420  176.9900  144.8830 C   0  0  0  0  0  2  0  0  0  0  0  0
  190.0460  178.1420  142.2620 O   0  0  0  0  0  0  0  0  0  0  0  0
  189.6590  176.7120  143.0640 P   0  0  1  0  0  0  0  0  0  0  0  0
  190.8710  175.8400  142.8770 O   0  0  0  0  0  1  0  0  0  0  0  0
  188.1920  176.1490  142.3130 O   0  0  0  0  0  0  0  0  0  0  0  0
  187.7790  177.1950  141.4590 C   0  0  0  0  0  2  0  0  0  0  0  0
  183.7980  177.7470  141.1490 C   0  0  2  0  0  3  0  0  0  0  0  0
  183.8920  178.9140  142.1180 C   0  0  0  0  0  2  0  0  0  0  0  0
  186.3860  177.6920  141.7970 C   0  0  0  0  0  0  0  0  0  0  0  0
  185.2460  177.4180  140.7470 C   0  0  0  0  0  2  0  0  0  0  0  0
  184.8330  178.9590  143.3630 C   0  0  2  0  0  3  0  0  0  0  0  0
  186.1700  178.4740  142.8940 C   0  0  0  0  0  3  0  0  0  0  0  0
  182.5700  177.9340  140.0020 C   0  0  1  0  0  3  0  0  0  0  0  0
  182.8150  176.8190  139.2550 O   0  0  0  0  0  0  0  0  0  0  0  0
  181.8730  175.0210  137.8890 C   0  0  0  0  0  2  0  0  0  0  0  0
  182.4070  175.9710  136.8810 C   0  0  2  0  0  3  0  0  0  0  0  0
  181.7860  176.4830  138.2300 C   0  0  2  0  0  3  0  0  0  0  0  0
  180.0750  176.1920  135.6830 O   0  0  0  0  0  1  0  0  0  0  0  0
  181.3790  175.6400  135.6440 C   0  0  0  0  0  2  0  0  0  0  0  0
  181.1690  177.9910  140.2580 O   0  0  0  0  0  0  0  0  0  0  0  0
  180.5390  179.0400  142.2800 O   0  0  0  0  0  1  0  0  0  0  0  0
  180.4530  179.5940  140.6150 P   0  0  2  0  0  0  0  0  0  0  0  0
  177.8190  179.4570  141.0040 O   0  0  0  0  0  0  0  0  0  0  0  0
  177.8920  180.0960  139.7400 C   0  0  0  0  0  2  0  0  0  0  0  0
  178.7900  178.9450  140.0460 C   0  0  1  0  0  3  0  0  0  0  0  0
  184.2920  178.2160  144.5110 O   0  0  0  0  0  0  0  0  0  0  0  0
  185.0930  177.6210  145.4580 C   0  0  0  0  0  0  0  0  0  0  0  0
  185.6260  176.4390  145.2530 O   0  0  0  0  0  0  0  0  0  0  0  0
  185.1030  177.7360  147.8250 O   0  0  0  0  0  1  0  0  0  0  0  0
  185.3290  178.2870  146.6810 C   0  0  0  0  0  0  0  0  0  0  0  0
  185.9080  179.5300  146.6950 O   0  0  0  0  0  0  0  0  0  0  0  0
  1  2  1  0  0  0  0
  2  3  2  0  0  0  0
  2  6  1  0  0  0  0
  3  4  1  0  0  0  0
  4  7  2  0  0  0  0
  5  7  1  0  0  0  0
  6  5  2  0  0  0  0
  8  1  1  0  0  0  0
  8  9  1  0  0  0  0
 10 11  2  0  0  0  0
 11  9  1  0  0  0  0
 12 13  2  0  0  0  0
 12 10  1  0  0  0  0
 14 20  1  0  0  0  0
 16 14  1  0  0  0  0
 16 17  1  0  0  0  0
 17 15  1  6  0  0  0
 17 19  1  0  0  0  0
 18 12  1  1  0  0  0
 19 18  1  0  0  0  0
 20 18  1  0  0  0  0
 21 27  1  6  0  0  0
 21 16  1  0  0  0  0
 22 26  1  0  0  0  0
 22 24  1  0  0  0  0
 23 26  2  0  0  0  0
 24 25  1  0  0  0  0
 25 21  1  6  0  0  0
 26 25  1  0  0  0  0
 27 36  1  6  0  0  0
 28 29  1  0  0  0  0
 28 27  1  0  0  0  0
 29 30  2  0  0  0  0
 31 29  1  0  0  0  0
 32 33  2  0  0  0  0
 33 31  1  0  0  0  0
 34 33  1  0  0  0  0
 35 33  1  0  0  0  0
 36 37  1  0  0  0  0
 37 39  1  0  0  0  0
 38 39  1  0  0  0  0
 40  1  1  0  0  0  0
 42 41  2  6  0  0  0
 42 40  1  0  0  0  0
 43 42  1  0  0  0  0
 44 42  1  0  0  0  0
 45 48  1  0  0  0  0
 45 44  1  0  0  0  0
 46 52  1  6  0  0  0
 46 47  1  0  0  0  0
 47 50  1  0  0  0  0
 48 51  2  0  0  0  0
 49 46  1  0  0  0  0
 49 48  1  0  0  0  0
 50 65  1  1  0  0  0
 51 50  1  0  0  0  0
 52 53  1  6  0  0  0
 52 59  1  0  0  0  0
 54 56  1  0  0  0  0
 55 58  1  6  0  0  0
 55 54  1  0  0  0  0
 55 56  1  0  0  0  0
 56 53  1  1  0  0  0
 58 57  1  0  0  0  0
 59 61  1  0  0  0  0
 61 60  1  1  0  0  0
 63 64  1  0  0  0  0
 63 62  1  0  0  0  0
 64 61  1  1  0  0  0
 64 62  1  0  0  0  0
 65 66  1  0  0  0  0
 66 69  1  0  0  0  0
 67 66  2  0  0  0  0
 69 70  2  0  0  0  0
 69 68  1  0  0  0  0
M  END
>  <MODEL>
3

>  <REMARK>
 VINA RESULT:      -3.7      4.359     11.417
  Name = 
  31 active torsions:
  status: ('A' for Active; 'I' for Inactive)
    1  A    between atoms: C_4  and  N_20
    2  A    between atoms: C_7  and  C_67
    3  A    between atoms: C_9  and  P_16
    4  A    between atoms: C_9  and  C_36
    5  A    between atoms: O_14  and  C_22
    6  A    between atoms: O_14  and  P_30
    7  A    between atoms: C_15  and  C_21
    8  A    between atoms: C_15  and  O_37
    9  A    between atoms: C_15  and  C_52
   10  A    between atoms: C_17  and  N_20
   11  A    between atoms: C_17  and  P_30
   12  A    between atoms: C_18  and  N_34
   13  A    between atoms: C_18  and  C_56
   14  A    between atoms: N_20  and  C_33
   15  A    between atoms: C_21  and  C_45
   16  A    between atoms: C_22  and  C_31
   17  A    between atoms: C_24  and  C_40
   18  A    between atoms: O_25  and  P_35
   19  A    between atoms: O_25  and  C_67
   20  A    between atoms: C_27  and  C_52
   21  A    between atoms: O_32  and  C_40
   22  A    between atoms: O_32  and  C_58
   23  A    between atoms: C_33  and  C_60
   24  A    between atoms: P_35  and  C_68
   25  A    between atoms: C_36  and  O_37
   26  A    between atoms: N_38  and  C_52
   27  A    between atoms: N_43  and  C_60
   28  A    between atoms: C_45  and  C_64
   29  A    between atoms: C_48  and  C_62
   30  A    between atoms: O_50  and  C_57
   31  A    between atoms: O_50  and  C_67
                            x       y       z     vdW  Elec       q    Type
                         _______ _______ _______ _____ _____    ______ ____

>  <TORSDO>
F 31

$$$$
=
 OpenBabel11042413523D

 70 75  0  0  1  0  0  0  0  0999 V2000
  194.8730  172.7220  144.6330 N   0  0  0  0  0  0  0  0  0  0  0  0
  195.8420  173.5800  144.0070 C   0  0  0  0  0  0  0  0  0  0  0  0
  197.0110  173.9530  144.7000 C   0  0  0  0  0  3  0  0  0  0  0  0
  197.9410  174.7950  144.1220 C   0  0  0  0  0  3  0  0  0  0  0  0
  196.5880  174.9550  142.1330 C   0  0  0  0  0  3  0  0  0  0  0  0
  195.6650  174.0810  142.7050 C   0  0  0  0  0  3  0  0  0  0  0  0
  197.7320  175.3200  142.8470 C   0  0  0  0  0  3  0  0  0  0  0  0
  194.3080  173.0520  145.9890 C   0  0  0  0  0  2  0  0  0  0  0  0
  193.6140  174.4320  146.0930 C   0  0  0  0  0  2  0  0  0  0  0  0
  192.6210  176.1130  144.7520 N   0  0  0  0  0  0  0  0  0  0  0  0
  192.9360  174.8680  144.8840 N   0  0  0  0  0  0  0  0  0  0  0  0
  191.9460  176.5520  143.5580 C   0  0  0  0  0  0  0  0  0  0  0  0
  192.6010  177.0500  142.6250 O   0  0  0  0  0  0  0  0  0  0  0  0
  188.8820  175.5910  141.6220 C   0  0  0  0  0  2  0  0  0  0  0  0
  188.2060  178.8660  141.2840 O   0  0  0  0  0  1  0  0  0  0  0  0
  187.8790  176.6200  141.9370 N   0  0  0  0  0  0  0  0  0  0  0  0
  188.3940  177.9360  142.3240 C   0  0  1  0  0  3  0  0  0  0  0  0
  190.4030  176.5480  143.4570 C   0  0  1  0  0  3  0  0  0  0  0  0
  189.9130  177.8340  142.7260 C   0  0  0  0  0  2  0  0  0  0  0  0
  189.9070  175.2950  142.7850 C   0  0  0  0  0  2  0  0  0  0  0  0
  186.3960  176.5640  141.5370 C   0  0  2  0  0  3  0  0  0  0  0  0
  186.4850  176.2340  138.2480 C   0  0  0  0  0  2  0  0  0  0  0  0
  184.1730  177.2110  138.8040 O   0  0  0  0  0  0  0  0  0  0  0  0
  187.4250  176.2930  139.3320 N   0  0  0  0  0  2  0  0  0  0  0  0
  186.4210  177.0210  140.0700 C   0  0  1  0  0  3  0  0  0  0  0  0
  185.3430  176.8850  139.0160 C   0  0  0  0  0  0  0  0  0  0  0  0
  185.3720  177.2710  142.5310 C   0  0  1  0  0  3  0  0  0  0  0  0
  185.6040  177.1000  143.9050 O   0  0  0  0  0  0  0  0  0  0  0  0
  186.1980  178.0990  144.7390 C   0  0  0  0  0  0  0  0  0  0  0  0
  185.9000  179.2890  144.6490 O   0  0  0  0  0  0  0  0  0  0  0  0
  187.1160  177.5850  145.7920 C   0  0  0  0  0  2  0  0  0  0  0  0
  187.6980  178.8880  148.3230 O   0  0  0  0  0  1  0  0  0  0  0  0
  186.4910  178.0860  147.4510 P   0  0  0  0  0  0  0  0  0  0  0  0
  185.9830  176.7260  148.3340 O   0  0  0  0  0  1  0  0  0  0  0  0
  185.3440  179.0730  147.2620 O   0  0  0  0  0  0  0  0  0  0  0  0
  184.6150  178.5710  142.1390 C   0  0  0  0  0  2  0  0  0  0  0  0
  183.1190  178.4190  142.4700 C   0  0  0  0  0  2  0  0  0  0  0  0
  181.0050  178.0810  141.3300 O   0  0  0  0  0  1  0  0  0  0  0  0
  182.2490  178.7230  141.2490 C   0  0  0  0  0  2  0  0  0  0  0  0
  194.2980  171.6160  143.8010 C   0  0  0  0  0  2  0  0  0  0  0  0
  195.1440  168.8190  143.9350 O   0  0  0  0  0  0  0  0  0  0  0  0
  194.0810  169.9520  144.5850 P   0  0  1  0  0  0  0  0  0  0  0  0
  194.4970  170.0690  146.0270 O   0  0  0  0  0  1  0  0  0  0  0  0
  192.4900  169.3030  144.3010 O   0  0  0  0  0  0  0  0  0  0  0  0
  192.5910  168.5650  143.1010 C   0  0  0  0  0  2  0  0  0  0  0  0
  193.6620  169.8460  139.4330 C   0  0  2  0  0  3  0  0  0  0  0  0
  193.2160  171.2520  139.8020 C   0  0  0  0  0  2  0  0  0  0  0  0
  192.6760  169.4650  141.8820 C   0  0  0  0  0  0  0  0  0  0  0  0
  193.6920  169.0560  140.7520 C   0  0  0  0  0  2  0  0  0  0  0  0
  191.9630  171.5840  140.6710 C   0  0  2  0  0  3  0  0  0  0  0  0
  192.0090  170.6550  141.8450 C   0  0  0  0  0  3  0  0  0  0  0  0
  194.9570  169.8250  138.3460 C   0  0  1  0  0  3  0  0  0  0  0  0
  195.9540  169.5080  139.2210 O   0  0  0  0  0  0  0  0  0  0  0  0
  196.9830  171.4100  140.3650 C   0  0  0  0  0  2  0  0  0  0  0  0
  196.7290  171.9310  138.9980 C   0  0  2  0  0  3  0  0  0  0  0  0
  197.1260  170.4290  139.2340 C   0  0  2  0  0  3  0  0  0  0  0  0
  197.6130  174.3750  138.5820 O   0  0  0  0  0  1  0  0  0  0  0  0
  197.9410  173.0370  138.9150 C   0  0  0  0  0  2  0  0  0  0  0  0
  195.0940  168.9850  137.2030 O   0  0  0  0  0  0  0  0  0  0  0  0
  195.6790  169.1470  134.9180 O   0  0  0  0  0  1  0  0  0  0  0  0
  194.1490  169.4100  135.7400 P   0  0  2  0  0  0  0  0  0  0  0  0
  194.1990  171.9680  134.9910 O   0  0  0  0  0  0  0  0  0  0  0  0
  193.0170  171.9190  135.7740 C   0  0  0  0  0  2  0  0  0  0  0  0
  194.2480  171.2140  136.2370 C   0  0  1  0  0  3  0  0  0  0  0  0
  190.7080  171.5260  139.9070 O   0  0  0  0  0  0  0  0  0  0  0  0
  190.1380  172.6330  139.3230 C   0  0  0  0  0  0  0  0  0  0  0  0
  190.8640  173.6720  138.9800 O   0  0  0  0  0  0  0  0  0  0  0  0
  187.8910  172.6360  140.0770 O   0  0  0  0  0  1  0  0  0  0  0  0
  188.7430  172.6600  139.1080 C   0  0  0  0  0  0  0  0  0  0  0  0
  188.2370  172.8130  137.8430 O   0  0  0  0  0  0  0  0  0  0  0  0
  1  8  1  0  0  0  0
  2  1  1  0  0  0  0
  2  3  1  0  0  0  0
  4  3  2  0  0  0  0
  5  6  1  0  0  0  0
  5  7  2  0  0  0  0
  6  2  2  0  0  0  0
  7  4  1  0  0  0  0
  8  9  1  0  0  0  0
 10 11  2  0  0  0  0
 11  9  1  0  0  0  0
 12 10  1  0  0  0  0
 13 12  2  0  0  0  0
 14 16  1  0  0  0  0
 14 20  1  0  0  0  0
 16 17  1  0  0  0  0
 17 15  1  6  0  0  0
 17 19  1  0  0  0  0
 18 12  1  6  0  0  0
 19 18  1  0  0  0  0
 20 18  1  0  0  0  0
 21 16  1  0  0  0  0
 21 27  1  1  0  0  0
 22 26  1  0  0  0  0
 22 24  1  0  0  0  0
 23 26  2  0  0  0  0
 24 25  1  0  0  0  0
 25 21  1  1  0  0  0
 26 25  1  0  0  0  0
 27 36  1  1  0  0  0
 27 28  1  0  0  0  0
 28 29  1  0  0  0  0
 29 31  1  0  0  0  0
 30 29  2  0  0  0  0
 31 33  1  0  0  0  0
 33 32  1  0  0  0  0
 33 34  1  0  0  0  0
 35 33  2  0  0  0  0
 36 37  1  0  0  0  0
 39 38  1  0  0  0  0
 39 37  1  0  0  0  0
 40 42  1  0  0  0  0
 40  1  1  0  0  0  0
 42 41  2  6  0  0  0
 42 43  1  0  0  0  0
 44 42  1  0  0  0  0
 45 44  1  0  0  0  0
 46 52  1  1  0  0  0
 46 47  1  0  0  0  0
 46 49  1  0  0  0  0
 47 50  1  0  0  0  0
 48 45  1  0  0  0  0
 49 48  1  0  0  0  0
 50 65  1  6  0  0  0
 50 51  1  0  0  0  0
 51 48  2  0  0  0  0
 52 59  1  6  0  0  0
 52 53  1  0  0  0  0
 55 58  1  6  0  0  0
 55 56  1  0  0  0  0
 55 54  1  0  0  0  0
 56 53  1  1  0  0  0
 56 54  1  0  0  0  0
 57 58  1  0  0  0  0
 61 60  1  6  0  0  0
 61 59  1  0  0  0  0
 62 63  1  0  0  0  0
 62 64  1  0  0  0  0
 63 64  1  0  0  0  0
 64 61  1  6  0  0  0
 66 65  1  0  0  0  0
 67 66  2  0  0  0  0
 69 66  1  0  0  0  0
 69 68  1  0  0  0  0
 70 69  2  0  0  0  0
M  END
>  <MODEL>
4

>  <REMARK>
 VINA RESULT:      -3.5      3.281      7.324
  Name = 
  31 active torsions:
  status: ('A' for Active; 'I' for Inactive)
    1  A    between atoms: C_4  and  N_20
    2  A    between atoms: C_7  and  C_67
    3  A    between atoms: C_9  and  P_16
    4  A    between atoms: C_9  and  C_36
    5  A    between atoms: O_14  and  C_22
    6  A    between atoms: O_14  and  P_30
    7  A    between atoms: C_15  and  C_21
    8  A    between atoms: C_15  and  O_37
    9  A    between atoms: C_15  and  C_52
   10  A    between atoms: C_17  and  N_20
   11  A    between atoms: C_17  and  P_30
   12  A    between atoms: C_18  and  N_34
   13  A    between atoms: C_18  and  C_56
   14  A    between atoms: N_20  and  C_33
   15  A    between atoms: C_21  and  C_45
   16  A    between atoms: C_22  and  C_31
   17  A    between atoms: C_24  and  C_40
   18  A    between atoms: O_25  and  P_35
   19  A    between atoms: O_25  and  C_67
   20  A    between atoms: C_27  and  C_52
   21  A    between atoms: O_32  and  C_40
   22  A    between atoms: O_32  and  C_58
   23  A    between atoms: C_33  and  C_60
   24  A    between atoms: P_35  and  C_68
   25  A    between atoms: C_36  and  O_37
   26  A    between atoms: N_38  and  C_52
   27  A    between atoms: N_43  and  C_60
   28  A    between atoms: C_45  and  C_64
   29  A    between atoms: C_48  and  C_62
   30  A    between atoms: O_50  and  C_57
   31  A    between atoms: O_50  and  C_67
                            x       y       z     vdW  Elec       q    Type
                         _______ _______ _______ _____ _____    ______ ____

>  <TORSDO>
F 31

$$$$
=
 OpenBabel11042413523D

 70 75  0  0  1  0  0  0  0  0999 V2000
  186.9240  176.4770  144.0070 N   0  0  0  0  0  0  0  0  0  0  0  0
  185.9730  177.5540  144.0170 C   0  0  0  0  0  0  0  0  0  0  0  0
  186.0240  178.5360  145.0260 C   0  0  0  0  0  3  0  0  0  0  0  0
  185.1030  179.5650  145.0630 C   0  0  0  0  0  3  0  0  0  0  0  0
  184.0140  178.6880  143.0990 C   0  0  0  0  0  3  0  0  0  0  0  0
  184.9630  177.6670  143.0450 C   0  0  0  0  0  3  0  0  0  0  0  0
  184.0800  179.6410  144.1180 C   0  0  0  0  0  3  0  0  0  0  0  0
  186.4760  175.0480  143.8530 C   0  0  0  0  0  2  0  0  0  0  0  0
  186.8320  174.3900  142.4980 C   0  0  0  0  0  2  0  0  0  0  0  0
  188.9580  173.6960  141.7200 N   0  0  0  0  0  0  0  0  0  0  0  0
  187.9770  173.4960  142.5340 N   0  0  0  0  0  0  0  0  0  0  0  0
  190.0960  172.8130  141.7490 C   0  0  0  0  0  0  0  0  0  0  0  0
  190.7180  172.6390  142.8120 O   0  0  0  0  0  0  0  0  0  0  0  0
  192.7150  172.8210  139.0650 C   0  0  0  0  0  2  0  0  0  0  0  0
  190.2830  173.5190  136.8520 O   0  0  0  0  0  1  0  0  0  0  0  0
  192.0440  172.3110  137.8600 N   0  0  0  0  0  0  0  0  0  0  0  0
  190.5950  172.5110  137.7840 C   0  0  1  0  0  3  0  0  0  0  0  0
  190.6530  172.1750  140.4540 C   0  0  1  0  0  3  0  0  0  0  0  0
  190.0140  172.8570  139.2070 C   0  0  0  0  0  2  0  0  0  0  0  0
  192.1580  172.2400  140.4230 C   0  0  0  0  0  2  0  0  0  0  0  0
  192.7460  171.9460  136.5410 C   0  0  2  0  0  3  0  0  0  0  0  0
  191.8760  169.4200  134.5940 C   0  0  0  0  0  2  0  0  0  0  0  0
  191.8890  168.4980  136.9930 O   0  0  0  0  0  0  0  0  0  0  0  0
  191.9180  170.8530  134.5130 N   0  0  0  0  0  2  0  0  0  0  0  0
  191.8250  170.8650  135.9530 C   0  0  1  0  0  3  0  0  0  0  0  0
  191.9030  169.3620  136.1140 C   0  0  0  0  0  0  0  0  0  0  0  0
  194.3060  171.6400  136.6360 C   0  0  1  0  0  3  0  0  0  0  0  0
  194.6990  170.3010  136.4830 O   0  0  0  0  0  0  0  0  0  0  0  0
  195.8240  169.7230  137.1530 C   0  0  0  0  0  0  0  0  0  0  0  0
  196.0950  168.5270  137.0640 O   0  0  0  0  0  0  0  0  0  0  0  0
  196.6990  170.6870  137.8740 C   0  0  0  0  0  2  0  0  0  0  0  0
  195.0430  170.2820  140.2250 O   0  0  0  0  0  1  0  0  0  0  0  0
  196.6430  170.3370  139.6810 P   0  0  0  0  0  0  0  0  0  0  0  0
  197.4790  171.5370  140.5480 O   0  0  0  0  0  1  0  0  0  0  0  0
  197.2490  168.9610  139.9300 O   0  0  0  0  0  0  0  0  0  0  0  0
  195.3730  172.6970  136.2390 C   0  0  0  0  0  2  0  0  0  0  0  0
  195.4360  173.7990  137.3130 C   0  0  0  0  0  2  0  0  0  0  0  0
  197.5660  174.6460  136.5230 O   0  0  0  0  0  1  0  0  0  0  0  0
  196.2450  175.0020  136.8250 C   0  0  0  0  0  2  0  0  0  0  0  0
  188.3750  176.8460  143.9420 C   0  0  0  0  0  2  0  0  0  0  0  0
  188.5930  176.8460  141.0250 O   0  0  0  0  0  0  0  0  0  0  0  0
  188.9960  177.6990  142.4190 P   0  0  1  0  0  0  0  0  0  0  0  0
  188.2490  179.0000  142.2900 O   0  0  0  0  0  1  0  0  0  0  0  0
  190.7330  177.8130  142.4000 O   0  0  0  0  0  0  0  0  0  0  0  0
  191.1190  177.9380  143.7530 C   0  0  0  0  0  2  0  0  0  0  0  0
  194.0590  175.5230  145.0850 C   0  0  2  0  0  3  0  0  0  0  0  0
  193.1770  174.3130  144.8140 C   0  0  0  0  0  2  0  0  0  0  0  0
  191.7980  176.6840  144.2720 C   0  0  0  0  0  0  0  0  0  0  0  0
  193.3670  176.7090  144.3910 C   0  0  0  0  0  2  0  0  0  0  0  0
  191.6350  174.2690  145.0530 C   0  0  2  0  0  3  0  0  0  0  0  0
  191.0860  175.5390  144.4780 C   0  0  0  0  0  3  0  0  0  0  0  0
  195.7060  175.2020  144.8820 C   0  0  1  0  0  3  0  0  0  0  0  0
  195.7920  174.0780  145.6500 O   0  0  0  0  0  0  0  0  0  0  0  0
  195.7790  171.9070  144.5240 C   0  0  0  0  0  2  0  0  0  0  0  0
  196.4160  171.6090  145.8320 C   0  0  2  0  0  3  0  0  0  0  0  0
  196.6490  172.9840  145.1090 C   0  0  2  0  0  3  0  0  0  0  0  0
  197.2330  169.8490  144.0540 O   0  0  0  0  0  1  0  0  0  0  0  0
  197.3540  170.3390  145.3780 C   0  0  0  0  0  2  0  0  0  0  0  0
  196.3760  174.9430  143.6510 O   0  0  0  0  0  0  0  0  0  0  0  0
  196.5110  177.2490  144.1530 O   0  0  0  0  0  1  0  0  0  0  0  0
  197.2810  176.2930  142.8950 P   0  0  2  0  0  0  0  0  0  0  0  0
  196.7860  176.3330  140.2760 O   0  0  0  0  0  0  0  0  0  0  0  0
  196.1810  175.1110  140.6670 C   0  0  0  0  0  2  0  0  0  0  0  0
  196.0160  176.3280  141.5130 C   0  0  1  0  0  3  0  0  0  0  0  0
  191.2850  174.0470  146.4640 O   0  0  0  0  0  0  0  0  0  0  0  0
  190.5680  174.9560  147.2060 C   0  0  0  0  0  0  0  0  0  0  0  0
  189.2620  175.0450  147.0980 O   0  0  0  0  0  0  0  0  0  0  0  0
  191.5470  177.0390  147.7720 O   0  0  0  0  0  0  0  0  0  0  0  0
  191.2520  175.8230  148.0860 C   0  0  0  0  0  0  0  0  0  0  0  0
  191.5450  175.4260  149.3650 O   0  0  0  0  0  1  0  0  0  0  0  0
  1  2  1  0  0  0  0
  2  3  1  0  0  0  0
  3  4  2  0  0  0  0
  5  7  2  0  0  0  0
  6  5  1  0  0  0  0
  6  2  2  0  0  0  0
  7  4  1  0  0  0  0
  8  1  1  0  0  0  0
  9 11  1  0  0  0  0
  9  8  1  0  0  0  0
 10 12  1  0  0  0  0
 10 11  2  0  0  0  0
 12 13  2  0  0  0  0
 14 20  1  0  0  0  0
 16 14  1  0  0  0  0
 17 15  1  6  0  0  0
 17 16  1  0  0  0  0
 17 19  1  0  0  0  0
 18 12  1  1  0  0  0
 19 18  1  0  0  0  0
 20 18  1  0  0  0  0
 21 27  1  1  0  0  0
 21 16  1  0  0  0  0
 22 26  1  0  0  0  0
 24 22  1  0  0  0  0
 24 25  1  0  0  0  0
 25 26  1  0  0  0  0
 25 21  1  1  0  0  0
 26 23  2  0  0  0  0
 27 36  1  6  0  0  0
 28 27  1  0  0  0  0
 28 29  1  0  0  0  0
 29 31  1  0  0  0  0
 30 29  2  0  0  0  0
 31 33  1  0  0  0  0
 33 35  2  0  0  0  0
 33 32  1  0  0  0  0
 33 34  1  0  0  0  0
 36 37  1  0  0  0  0
 38 39  1  0  0  0  0
 39 37  1  0  0  0  0
 40  1  1  0  0  0  0
 42 41  2  6  0  0  0
 42 40  1  0  0  0  0
 43 42  1  0  0  0  0
 44 42  1  0  0  0  0
 44 45  1  0  0  0  0
 45 48  1  0  0  0  0
 46 52  1  6  0  0  0
 47 50  1  0  0  0  0
 47 46  1  0  0  0  0
 48 49  1  0  0  0  0
 48 51  2  0  0  0  0
 49 46  1  0  0  0  0
 50 65  1  1  0  0  0
 51 50  1  0  0  0  0
 52 59  1  6  0  0  0
 52 53  1  0  0  0  0
 54 56  1  0  0  0  0
 54 55  1  0  0  0  0
 55 58  1  6  0  0  0
 56 53  1  1  0  0  0
 56 55  1  0  0  0  0
 57 58  1  0  0  0  0
 61 59  1  0  0  0  0
 61 60  1  1  0  0  0
 62 63  1  0  0  0  0
 62 64  1  0  0  0  0
 63 64  1  0  0  0  0
 64 61  1  1  0  0  0
 65 66  1  0  0  0  0
 66 69  1  0  0  0  0
 67 66  2  0  0  0  0
 68 69  2  0  0  0  0
 69 70  1  0  0  0  0
M  END
>  <MODEL>
5

>  <REMARK>
 VINA RESULT:      -3.4      2.807      9.247
  Name = 
  31 active torsions:
  status: ('A' for Active; 'I' for Inactive)
    1  A    between atoms: C_4  and  N_20
    2  A    between atoms: C_7  and  C_67
    3  A    between atoms: C_9  and  P_16
    4  A    between atoms: C_9  and  C_36
    5  A    between atoms: O_14  and  C_22
    6  A    between atoms: O_14  and  P_30
    7  A    between atoms: C_15  and  C_21
    8  A    between atoms: C_15  and  O_37
    9  A    between atoms: C_15  and  C_52
   10  A    between atoms: C_17  and  N_20
   11  A    between atoms: C_17  and  P_30
   12  A    between atoms: C_18  and  N_34
   13  A    between atoms: C_18  and  C_56
   14  A    between atoms: N_20  and  C_33
   15  A    between atoms: C_21  and  C_45
   16  A    between atoms: C_22  and  C_31
   17  A    between atoms: C_24  and  C_40
   18  A    between atoms: O_25  and  P_35
   19  A    between atoms: O_25  and  C_67
   20  A    between atoms: C_27  and  C_52
   21  A    between atoms: O_32  and  C_40
   22  A    between atoms: O_32  and  C_58
   23  A    between atoms: C_33  and  C_60
   24  A    between atoms: P_35  and  C_68
   25  A    between atoms: C_36  and  O_37
   26  A    between atoms: N_38  and  C_52
   27  A    between atoms: N_43  and  C_60
   28  A    between atoms: C_45  and  C_64
   29  A    between atoms: C_48  and  C_62
   30  A    between atoms: O_50  and  C_57
   31  A    between atoms: O_50  and  C_67
                            x       y       z     vdW  Elec       q    Type
                         _______ _______ _______ _____ _____    ______ ____

>  <TORSDO>
F 31

$$$$
=
 OpenBabel11042413523D

 70 75  0  0  1  0  0  0  0  0999 V2000
  190.2190  176.5450  145.1000 N   0  0  0  0  0  0  0  0  0  0  0  0
  190.4420  176.9620  146.4570 C   0  0  0  0  0  0  0  0  0  0  0  0
  189.5700  177.8840  147.0680 C   0  0  0  0  0  3  0  0  0  0  0  0
  189.7830  178.3130  148.3630 C   0  0  0  0  0  3  0  0  0  0  0  0
  191.7590  176.9390  148.5130 C   0  0  0  0  0  3  0  0  0  0  0  0
  191.5250  176.4840  147.2160 C   0  0  0  0  0  3  0  0  0  0  0  0
  190.8860  177.8640  149.0910 C   0  0  0  0  0  3  0  0  0  0  0  0
  190.8710  175.3030  144.5530 C   0  0  0  0  0  2  0  0  0  0  0  0
  192.2430  174.9520  145.1780 C   0  0  0  0  0  2  0  0  0  0  0  0
  194.3080  174.7520  144.0360 N   0  0  0  0  0  0  0  0  0  0  0  0
  193.3900  175.5310  144.5010 N   0  0  0  0  0  0  0  0  0  0  0  0
  195.4490  175.3200  143.3660 C   0  0  0  0  0  0  0  0  0  0  0  0
  196.0500  176.2830  143.8740 O   0  0  0  0  0  0  0  0  0  0  0  0
  194.8250  175.3840  139.6680 C   0  0  0  0  0  2  0  0  0  0  0  0
  194.2080  172.0830  139.8310 O   0  0  0  0  0  1  0  0  0  0  0  0
  195.2850  174.0780  139.1700 N   0  0  0  0  0  0  0  0  0  0  0  0
  195.2620  172.9690  140.1260 C   0  0  1  0  0  3  0  0  0  0  0  0
  195.8700  174.8490  141.9530 C   0  0  1  0  0  3  0  0  0  0  0  0
  195.1460  173.5160  141.5990 C   0  0  0  0  0  2  0  0  0  0  0  0
  195.6130  175.9210  140.9270 C   0  0  0  0  0  2  0  0  0  0  0  0
  195.4160  173.6920  137.6880 C   0  0  2  0  0  3  0  0  0  0  0  0
  195.0090  175.7730  135.1510 C   0  0  0  0  0  2  0  0  0  0  0  0
  192.9940  176.1410  136.7060 O   0  0  0  0  0  0  0  0  0  0  0  0
  196.0810  175.0240  135.7440 N   0  0  0  0  0  2  0  0  0  0  0  0
  195.3240  175.0490  136.9720 C   0  0  1  0  0  3  0  0  0  0  0  0
  194.1090  175.7270  136.3770 C   0  0  0  0  0  0  0  0  0  0  0  0
  194.4790  172.5060  137.1840 C   0  0  1  0  0  3  0  0  0  0  0  0
  193.1750  172.8520  136.7980 O   0  0  0  0  0  0  0  0  0  0  0  0
  192.0080  172.5150  137.5560 C   0  0  0  0  0  0  0  0  0  0  0  0
  191.6310  171.3520  137.6950 O   0  0  0  0  0  0  0  0  0  0  0  0
  191.3500  173.6540  138.2510 C   0  0  0  0  0  2  0  0  0  0  0  0
  189.4860  172.2530  139.9830 O   0  0  0  0  0  1  0  0  0  0  0  0
  189.5930  173.2270  138.6050 P   0  0  0  0  0  0  0  0  0  0  0  0
  188.9030  172.4000  137.2900 O   0  0  0  0  0  0  0  0  0  0  0  0
  188.8300  174.5120  138.9040 O   0  0  0  0  0  1  0  0  0  0  0  0
  195.0600  171.2350  136.5060 C   0  0  0  0  0  2  0  0  0  0  0  0
  194.4150  169.9790  137.1200 C   0  0  0  0  0  2  0  0  0  0  0  0
  192.7650  168.8830  135.7200 O   0  0  0  0  0  1  0  0  0  0  0  0
  194.1270  168.9250  136.0500 C   0  0  0  0  0  2  0  0  0  0  0  0
  189.1580  177.2690  144.3270 C   0  0  0  0  0  2  0  0  0  0  0  0
  189.2940  179.0730  142.0280 O   0  0  0  0  0  0  0  0  0  0  0  0
  189.3810  177.4580  142.4980 P   0  0  1  0  0  0  0  0  0  0  0  0
  190.7910  177.0490  142.1660 O   0  0  0  0  0  1  0  0  0  0  0  0
  188.1240  176.6530  141.6020 O   0  0  0  0  0  0  0  0  0  0  0  0
  187.4370  177.6750  140.9110 C   0  0  0  0  0  2  0  0  0  0  0  0
  183.4140  177.5530  141.1290 C   0  0  2  0  0  3  0  0  0  0  0  0
  183.4460  178.6390  142.1930 C   0  0  0  0  0  2  0  0  0  0  0  0
  186.0390  177.8960  141.4590 C   0  0  0  0  0  0  0  0  0  0  0  0
  184.8300  177.5120  140.5280 C   0  0  0  0  0  2  0  0  0  0  0  0
  184.5240  178.7480  143.3160 C   0  0  2  0  0  3  0  0  0  0  0  0
  185.8480  178.5400  142.6470 C   0  0  0  0  0  3  0  0  0  0  0  0
  182.0300  177.6150  140.1600 C   0  0  1  0  0  3  0  0  0  0  0  0
  182.3920  176.6890  139.2260 O   0  0  0  0  0  0  0  0  0  0  0  0
  181.2180  174.9760  137.9340 C   0  0  0  0  0  2  0  0  0  0  0  0
  182.0290  175.6790  136.9090 C   0  0  2  0  0  3  0  0  0  0  0  0
  181.4120  176.4540  138.1280 C   0  0  2  0  0  3  0  0  0  0  0  0
  180.5710  174.1170  135.3730 O   0  0  0  0  0  1  0  0  0  0  0  0
  181.0700  175.4240  135.6010 C   0  0  0  0  0  2  0  0  0  0  0  0
  180.6940  177.3290  140.5660 O   0  0  0  0  0  0  0  0  0  0  0  0
  180.9170  179.6800  140.4570 O   0  0  0  0  0  1  0  0  0  0  0  0
  179.4910  178.6530  140.4630 P   0  0  2  0  0  0  0  0  0  0  0  0
  177.6920  178.3300  142.4030 O   0  0  0  0  0  0  0  0  0  0  0  0
  178.4480  177.1340  142.5070 C   0  0  0  0  0  2  0  0  0  0  0  0
  179.1410  178.4370  142.2910 C   0  0  1  0  0  3  0  0  0  0  0  0
  184.2680  177.8350  144.4400 O   0  0  0  0  0  0  0  0  0  0  0  0
  184.7850  178.0380  145.6990 C   0  0  0  0  0  0  0  0  0  0  0  0
  184.7460  179.2200  146.2680 O   0  0  0  0  0  0  0  0  0  0  0  0
  184.9040  176.4740  147.4750 O   0  0  0  0  0  1  0  0  0  0  0  0
  185.3870  176.9580  146.3810 C   0  0  0  0  0  0  0  0  0  0  0  0
  186.4700  176.3120  145.8420 O   0  0  0  0  0  0  0  0  0  0  0  0
  1  2  1  0  0  0  0
  2  3  2  0  0  0  0
  2  6  1  0  0  0  0
  3  4  1  0  0  0  0
  4  7  2  0  0  0  0
  5  7  1  0  0  0  0
  6  5  2  0  0  0  0
  8  1  1  0  0  0  0
  8  9  1  0  0  0  0
 10 11  2  0  0  0  0
 11  9  1  0  0  0  0
 12 13  2  0  0  0  0
 12 10  1  0  0  0  0
 14 20  1  0  0  0  0
 16 14  1  0  0  0  0
 16 17  1  0  0  0  0
 17 15  1  6  0  0  0
 17 19  1  0  0  0  0
 18 12  1  1  0  0  0
 19 18  1  0  0  0  0
 20 18  1  0  0  0  0
 21 27  1  6  0  0  0
 21 16  1  0  0  0  0
 22 24  1  0  0  0  0
 22 26  1  0  0  0  0
 24 25  1  0  0  0  0
 25 21  1  6  0  0  0
 26 23  2  0  0  0  0
 26 25  1  0  0  0  0
 27 36  1  6  0  0  0
 28 27  1  0  0  0  0
 28 29  1  0  0  0  0
 29 30  2  0  0  0  0
 29 31  1  0  0  0  0
 31 33  1  0  0  0  0
 33 35  1  0  0  0  0
 33 32  1  0  0  0  0
 34 33  2  0  0  0  0
 36 37  1  0  0  0  0
 38 39  1  0  0  0  0
 39 37  1  0  0  0  0
 40  1  1  0  0  0  0
 42 41  2  6  0  0  0
 42 40  1  0  0  0  0
 43 42  1  0  0  0  0
 44 42  1  0  0  0  0
 45 48  1  0  0  0  0
 45 44  1  0  0  0  0
 46 52  1  6  0  0  0
 46 47  1  0  0  0  0
 47 50  1  0  0  0  0
 48 51  2  0  0  0  0
 49 46  1  0  0  0  0
 49 48  1  0  0  0  0
 50 65  1  1  0  0  0
 51 50  1  0  0  0  0
 52 53  1  6  0  0  0
 52 59  1  0  0  0  0
 54 56  1  0  0  0  0
 55 58  1  6  0  0  0
 55 54  1  0  0  0  0
 55 56  1  0  0  0  0
 56 53  1  1  0  0  0
 57 58  1  0  0  0  0
 61 60  1  1  0  0  0
 61 59  1  0  0  0  0
 62 63  1  0  0  0  0
 64 61  1  6  0  0  0
 64 62  1  0  0  0  0
 64 63  1  0  0  0  0
 65 66  1  0  0  0  0
 66 67  2  0  0  0  0
 66 69  1  0  0  0  0
 69 68  1  0  0  0  0
 70 69  2  0  0  0  0
M  END
>  <MODEL>
6

>  <REMARK>
 VINA RESULT:      -3.1      4.381     11.370
  Name = 
  31 active torsions:
  status: ('A' for Active; 'I' for Inactive)
    1  A    between atoms: C_4  and  N_20
    2  A    between atoms: C_7  and  C_67
    3  A    between atoms: C_9  and  P_16
    4  A    between atoms: C_9  and  C_36
    5  A    between atoms: O_14  and  C_22
    6  A    between atoms: O_14  and  P_30
    7  A    between atoms: C_15  and  C_21
    8  A    between atoms: C_15  and  O_37
    9  A    between atoms: C_15  and  C_52
   10  A    between atoms: C_17  and  N_20
   11  A    between atoms: C_17  and  P_30
   12  A    between atoms: C_18  and  N_34
   13  A    between atoms: C_18  and  C_56
   14  A    between atoms: N_20  and  C_33
   15  A    between atoms: C_21  and  C_45
   16  A    between atoms: C_22  and  C_31
   17  A    between atoms: C_24  and  C_40
   18  A    between atoms: O_25  and  P_35
   19  A    between atoms: O_25  and  C_67
   20  A    between atoms: C_27  and  C_52
   21  A    between atoms: O_32  and  C_40
   22  A    between atoms: O_32  and  C_58
   23  A    between atoms: C_33  and  C_60
   24  A    between atoms: P_35  and  C_68
   25  A    between atoms: C_36  and  O_37
   26  A    between atoms: N_38  and  C_52
   27  A    between atoms: N_43  and  C_60
   28  A    between atoms: C_45  and  C_64
   29  A    between atoms: C_48  and  C_62
   30  A    between atoms: O_50  and  C_57
   31  A    between atoms: O_50  and  C_67
                            x       y       z     vdW  Elec       q    Type
                         _______ _______ _______ _____ _____    ______ ____

>  <TORSDO>
F 31

$$$$
=
 OpenBabel11042413523D

 70 75  0  0  1  0  0  0  0  0999 V2000
  187.6400  176.3700  145.9270 N   0  0  0  0  0  0  0  0  0  0  0  0
  186.8000  177.3260  146.5940 C   0  0  0  0  0  0  0  0  0  0  0  0
  185.4000  177.2730  146.4340 C   0  0  0  0  0  3  0  0  0  0  0  0
  184.5800  178.1980  147.0500 C   0  0  0  0  0  3  0  0  0  0  0  0
  186.5020  179.2940  148.0090 C   0  0  0  0  0  3  0  0  0  0  0  0
  187.3270  178.3410  147.4120 C   0  0  0  0  0  3  0  0  0  0  0  0
  185.1190  179.2270  147.8240 C   0  0  0  0  0  3  0  0  0  0  0  0
  187.7190  176.3250  144.4240 C   0  0  0  0  0  2  0  0  0  0  0  0
  186.4320  175.8420  143.7120 C   0  0  0  0  0  2  0  0  0  0  0  0
  185.1470  176.8140  141.9760 N   0  0  0  0  0  0  0  0  0  0  0  0
  185.5900  176.9030  143.1850 N   0  0  0  0  0  0  0  0  0  0  0  0
  184.3140  177.8630  141.4470 C   0  0  0  0  0  0  0  0  0  0  0  0
  184.8360  178.8700  140.9350 O   0  0  0  0  0  0  0  0  0  0  0  0
  180.9920  179.4260  140.6820 C   0  0  0  0  0  2  0  0  0  0  0  0
  180.6590  180.0540  143.9680 O   0  0  0  0  0  1  0  0  0  0  0  0
  180.1460  179.1410  141.8510 N   0  0  0  0  0  0  0  0  0  0  0  0
  180.8390  178.9400  143.1260 C   0  0  1  0  0  3  0  0  0  0  0  0
  182.7770  177.8350  141.6200 C   0  0  1  0  0  3  0  0  0  0  0  0
  182.3690  178.6570  142.8800 C   0  0  0  0  0  2  0  0  0  0  0  0
  182.0830  178.3260  140.3780 C   0  0  0  0  0  2  0  0  0  0  0  0
  178.6340  179.4090  141.9380 C   0  0  2  0  0  3  0  0  0  0  0  0
  178.7750  176.4050  143.3100 C   0  0  0  0  0  2  0  0  0  0  0  0
  178.1760  178.0290  145.2110 O   0  0  0  0  0  0  0  0  0  0  0  0
  178.6370  176.9610  141.9930 N   0  0  0  0  0  2  0  0  0  0  0  0
  178.1030  178.1430  142.6270 C   0  0  1  0  0  3  0  0  0  0  0  0
  178.3390  177.6640  144.0440 C   0  0  0  0  0  0  0  0  0  0  0  0
  177.9270  179.8930  140.5950 C   0  0  1  0  0  3  0  0  0  0  0  0
  177.8750  181.2780  140.3710 O   0  0  0  0  0  0  0  0  0  0  0  0
  178.9970  182.0530  139.9350 C   0  0  0  0  0  0  0  0  0  0  0  0
  180.0250  181.5330  139.5050 O   0  0  0  0  0  0  0  0  0  0  0  0
  178.7900  183.5270  139.9370 C   0  0  0  0  0  2  0  0  0  0  0  0
  180.6320  184.7430  138.0490 O   0  0  0  0  0  1  0  0  0  0  0  0
  179.0460  184.1860  138.2370 P   0  0  0  0  0  0  0  0  0  0  0  0
  177.9720  185.4660  137.9240 O   0  0  0  0  0  1  0  0  0  0  0  0
  178.8480  183.0510  137.2390 O   0  0  0  0  0  0  0  0  0  0  0  0
  177.9050  179.0090  139.3170 C   0  0  0  0  0  2  0  0  0  0  0  0
  178.7330  177.7330  139.5550 C   0  0  0  0  0  2  0  0  0  0  0  0
  177.7820  176.5250  137.6790 O   0  0  0  0  0  1  0  0  0  0  0  0
  177.9870  176.4900  139.0650 C   0  0  0  0  0  2  0  0  0  0  0  0
  188.5820  175.5740  146.7780 C   0  0  0  0  0  2  0  0  0  0  0  0
  190.6380  177.4600  145.8990 O   0  0  0  0  0  0  0  0  0  0  0  0
  190.3660  176.0730  146.8140 P   0  0  1  0  0  0  0  0  0  0  0  0
  190.6950  176.4860  148.2240 O   0  0  0  0  0  1  0  0  0  0  0  0
  191.3960  174.8550  146.1170 O   0  0  0  0  0  0  0  0  0  0  0  0
  190.6220  174.2350  145.1110 C   0  0  0  0  0  2  0  0  0  0  0  0
  192.6830  173.5260  141.7200 C   0  0  2  0  0  3  0  0  0  0  0  0
  192.6900  172.0400  142.0450 C   0  0  0  0  0  2  0  0  0  0  0  0
  191.4820  173.4960  144.1030 C   0  0  0  0  0  0  0  0  0  0  0  0
  191.6710  174.1620  142.6890 C   0  0  0  0  0  2  0  0  0  0  0  0
  192.8540  171.4470  143.4790 C   0  0  2  0  0  3  0  0  0  0  0  0
  191.9420  172.2390  144.3660 C   0  0  0  0  0  3  0  0  0  0  0  0
  192.6540  173.8420  140.0600 C   0  0  1  0  0  3  0  0  0  0  0  0
  193.8840  173.3510  139.7360 O   0  0  0  0  0  0  0  0  0  0  0  0
  195.3570  172.5010  137.9770 C   0  0  0  0  0  2  0  0  0  0  0  0
  194.3800  173.3340  137.2310 C   0  0  2  0  0  3  0  0  0  0  0  0
  193.9480  172.5170  138.5020 C   0  0  2  0  0  3  0  0  0  0  0  0
  195.0680  173.1630  134.6970 O   0  0  0  0  0  1  0  0  0  0  0  0
  194.4140  172.5440  135.7910 C   0  0  0  0  0  2  0  0  0  0  0  0
  191.7160  173.3340  139.1140 O   0  0  0  0  0  0  0  0  0  0  0  0
  190.6260  171.2850  139.5590 O   0  0  0  0  0  1  0  0  0  0  0  0
  190.0690  172.9450  139.7020 P   0  0  2  0  0  0  0  0  0  0  0  0
  188.0330  172.8140  137.9860 O   0  0  0  0  0  0  0  0  0  0  0  0
  188.2240  174.2150  138.1030 C   0  0  0  0  0  2  0  0  0  0  0  0
  189.4040  173.3100  137.9890 C   0  0  1  0  0  3  0  0  0  0  0  0
  194.2540  171.4210  143.9270 O   0  0  0  0  0  0  0  0  0  0  0  0
  195.1500  172.4220  143.6320 C   0  0  0  0  0  0  0  0  0  0  0  0
  196.0670  172.2640  142.7070 O   0  0  0  0  0  0  0  0  0  0  0  0
  194.9520  174.7800  143.7770 O   0  0  0  0  0  0  0  0  0  0  0  0
  195.0930  173.6350  144.3540 C   0  0  0  0  0  0  0  0  0  0  0  0
  195.0890  173.6280  145.7250 O   0  0  0  0  0  1  0  0  0  0  0  0
  1  2  1  0  0  0  0
  1 40  1  0  0  0  0
  2  6  1  0  0  0  0
  3  2  2  0  0  0  0
  3  4  1  0  0  0  0
  4  7  2  0  0  0  0
  6  5  2  0  0  0  0
  7  5  1  0  0  0  0
  8  1  1  0  0  0  0
  9  8  1  0  0  0  0
 10 11  2  0  0  0  0
 11  9  1  0  0  0  0
 12 10  1  0  0  0  0
 13 12  2  0  0  0  0
 14 16  1  0  0  0  0
 16 21  1  0  0  0  0
 16 17  1  0  0  0  0
 17 15  1  1  0  0  0
 18 12  1  6  0  0  0
 18 19  1  0  0  0  0
 19 17  1  0  0  0  0
 20 14  1  0  0  0  0
 20 18  1  0  0  0  0
 21 27  1  6  0  0  0
 22 26  1  0  0  0  0
 24 25  1  0  0  0  0
 24 22  1  0  0  0  0
 25 21  1  6  0  0  0
 25 26  1  0  0  0  0
 26 23  2  0  0  0  0
 27 36  1  6  0  0  0
 28 27  1  0  0  0  0
 29 31  1  0  0  0  0
 29 28  1  0  0  0  0
 30 29  2  0  0  0  0
 32 33  1  0  0  0  0
 33 31  1  0  0  0  0
 34 33  1  0  0  0  0
 35 33  2  0  0  0  0
 36 37  1  0  0  0  0
 38 39  1  0  0  0  0
 39 37  1  0  0  0  0
 40 42  1  0  0  0  0
 42 41  2  6  0  0  0
 42 43  1  0  0  0  0
 44 42  1  0  0  0  0
 45 44  1  0  0  0  0
 46 52  1  6  0  0  0
 46 47  1  0  0  0  0
 46 49  1  0  0  0  0
 47 50  1  0  0  0  0
 48 51  2  0  0  0  0
 48 45  1  0  0  0  0
 49 48  1  0  0  0  0
 50 65  1  1  0  0  0
 50 51  1  0  0  0  0
 52 59  1  6  0  0  0
 53 52  1  0  0  0  0
 54 56  1  0  0  0  0
 55 58  1  6  0  0  0
 55 54  1  0  0  0  0
 55 56  1  0  0  0  0
 56 53  1  1  0  0  0
 57 58  1  0  0  0  0
 59 61  1  0  0  0  0
 61 60  1  6  0  0  0
 62 64  1  0  0  0  0
 62 63  1  0  0  0  0
 64 63  1  0  0  0  0
 64 61  1  1  0  0  0
 66 65  1  0  0  0  0
 66 69  1  0  0  0  0
 67 66  2  0  0  0  0
 68 69  2  0  0  0  0
 69 70  1  0  0  0  0
M  END
>  <MODEL>
7

>  <REMARK>
 VINA RESULT:      -2.7      6.608     11.537
  Name = 
  31 active torsions:
  status: ('A' for Active; 'I' for Inactive)
    1  A    between atoms: C_4  and  N_20
    2  A    between atoms: C_7  and  C_67
    3  A    between atoms: C_9  and  P_16
    4  A    between atoms: C_9  and  C_36
    5  A    between atoms: O_14  and  C_22
    6  A    between atoms: O_14  and  P_30
    7  A    between atoms: C_15  and  C_21
    8  A    between atoms: C_15  and  O_37
    9  A    between atoms: C_15  and  C_52
   10  A    between atoms: C_17  and  N_20
   11  A    between atoms: C_17  and  P_30
   12  A    between atoms: C_18  and  N_34
   13  A    between atoms: C_18  and  C_56
   14  A    between atoms: N_20  and  C_33
   15  A    between atoms: C_21  and  C_45
   16  A    between atoms: C_22  and  C_31
   17  A    between atoms: C_24  and  C_40
   18  A    between atoms: O_25  and  P_35
   19  A    between atoms: O_25  and  C_67
   20  A    between atoms: C_27  and  C_52
   21  A    between atoms: O_32  and  C_40
   22  A    between atoms: O_32  and  C_58
   23  A    between atoms: C_33  and  C_60
   24  A    between atoms: P_35  and  C_68
   25  A    between atoms: C_36  and  O_37
   26  A    between atoms: N_38  and  C_52
   27  A    between atoms: N_43  and  C_60
   28  A    between atoms: C_45  and  C_64
   29  A    between atoms: C_48  and  C_62
   30  A    between atoms: O_50  and  C_57
   31  A    between atoms: O_50  and  C_67
                            x       y       z     vdW  Elec       q    Type
                         _______ _______ _______ _____ _____    ______ ____

>  <TORSDO>
F 31

$$$$
=
 OpenBabel11042413523D

 70 75  0  0  1  0  0  0  0  0999 V2000
  187.6400  176.3700  145.9270 N   0  0  0  0  0  0  0  0  0  0  0  0
  186.8000  177.3260  146.5940 C   0  0  0  0  0  0  0  0  0  0  0  0
  187.3650  178.4700  147.1930 C   0  0  0  0  0  3  0  0  0  0  0  0
  186.5750  179.3870  147.8580 C   0  0  0  0  0  3  0  0  0  0  0  0
  184.6120  178.0700  147.3830 C   0  0  0  0  0  3  0  0  0  0  0  0
  185.4060  177.1610  146.6860 C   0  0  0  0  0  3  0  0  0  0  0  0
  185.1990  179.1890  147.9790 C   0  0  0  0  0  3  0  0  0  0  0  0
  187.7190  176.3250  144.4240 C   0  0  0  0  0  2  0  0  0  0  0  0
  186.4320  175.8420  143.7120 C   0  0  0  0  0  2  0  0  0  0  0  0
  185.2290  176.8320  141.9290 N   0  0  0  0  0  0  0  0  0  0  0  0
  185.6040  176.9010  143.1620 N   0  0  0  0  0  0  0  0  0  0  0  0
  184.4090  177.8800  141.3760 C   0  0  0  0  0  0  0  0  0  0  0  0
  184.9440  178.8920  140.8880 O   0  0  0  0  0  0  0  0  0  0  0  0
  181.1120  179.4760  140.5720 C   0  0  0  0  0  2  0  0  0  0  0  0
  180.6660  179.9500  143.8690 O   0  0  0  0  0  1  0  0  0  0  0  0
  180.2270  179.1370  141.6960 N   0  0  0  0  0  0  0  0  0  0  0  0
  180.8760  178.8770  142.9830 C   0  0  1  0  0  3  0  0  0  0  0  0
  182.8670  177.8440  141.4950 C   0  0  1  0  0  3  0  0  0  0  0  0
  182.4140  178.6050  142.7770 C   0  0  0  0  0  2  0  0  0  0  0  0
  182.2150  178.3920  140.2540 C   0  0  0  0  0  2  0  0  0  0  0  0
  178.7130  179.4000  141.7430 C   0  0  2  0  0  3  0  0  0  0  0  0
  178.7820  176.2350  142.6940 C   0  0  0  0  0  2  0  0  0  0  0  0
  178.2050  177.5980  144.7960 O   0  0  0  0  0  0  0  0  0  0  0  0
  178.6630  176.9680  141.4650 N   0  0  0  0  0  2  0  0  0  0  0  0
  178.1510  178.0640  142.2520 C   0  0  1  0  0  3  0  0  0  0  0  0
  178.3680  177.3920  143.5910 C   0  0  0  0  0  0  0  0  0  0  0  0
  178.0700  180.0430  140.4350 C   0  0  1  0  0  3  0  0  0  0  0  0
  177.8160  181.4230  140.4680 O   0  0  0  0  0  0  0  0  0  0  0  0
  178.5450  182.3810  139.6940 C   0  0  0  0  0  0  0  0  0  0  0  0
  179.7140  182.1990  139.3580 O   0  0  0  0  0  0  0  0  0  0  0  0
  177.7590  183.5580  139.2330 C   0  0  0  0  0  2  0  0  0  0  0  0
  177.7000  185.6070  137.1750 O   0  0  0  0  0  1  0  0  0  0  0  0
  178.4050  184.1320  137.6070 P   0  0  0  0  0  0  0  0  0  0  0  0
  178.0730  182.9870  136.3950 O   0  0  0  0  0  0  0  0  0  0  0  0
  179.9050  184.3720  137.7350 O   0  0  0  0  0  1  0  0  0  0  0  0
  178.3130  179.4430  139.0230 C   0  0  0  0  0  2  0  0  0  0  0  0
  178.9240  178.0360  139.1560 C   0  0  0  0  0  2  0  0  0  0  0  0
  179.0820  176.2200  137.5560 O   0  0  0  0  0  1  0  0  0  0  0  0
  178.1870  177.0270  138.2730 C   0  0  0  0  0  2  0  0  0  0  0  0
  188.5820  175.5740  146.7780 C   0  0  0  0  0  2  0  0  0  0  0  0
  190.7230  177.0890  145.4820 O   0  0  0  0  0  0  0  0  0  0  0  0
  190.3860  175.9880  146.7120 P   0  0  1  0  0  0  0  0  0  0  0  0
  190.7310  176.7260  147.9770 O   0  0  0  0  0  1  0  0  0  0  0  0
  191.3610  174.5910  146.3540 O   0  0  0  0  0  0  0  0  0  0  0  0
  190.9990  174.2010  145.0460 C   0  0  0  0  0  2  0  0  0  0  0  0
  193.5330  173.0830  142.1170 C   0  0  2  0  0  3  0  0  0  0  0  0
  193.8450  171.8080  142.8840 C   0  0  0  0  0  2  0  0  0  0  0  0
  192.1130  173.4430  144.3470 C   0  0  0  0  0  0  0  0  0  0  0  0
  192.3000  173.6950  142.8050 C   0  0  0  0  0  2  0  0  0  0  0  0
  193.9790  171.7180  144.4370 C   0  0  2  0  0  3  0  0  0  0  0  0
  192.8170  172.4750  145.0020 C   0  0  0  0  0  3  0  0  0  0  0  0
  193.6180  172.8860  140.4400 C   0  0  1  0  0  3  0  0  0  0  0  0
  192.5420  173.6470  140.0890 O   0  0  0  0  0  0  0  0  0  0  0  0
  190.9710  173.5220  138.2180 C   0  0  0  0  0  2  0  0  0  0  0  0
  190.0940  173.8040  139.3820 C   0  0  2  0  0  3  0  0  0  0  0  0
  191.3750  172.9070  139.5300 C   0  0  2  0  0  3  0  0  0  0  0  0
  188.6740  171.6710  138.7800 O   0  0  0  0  0  1  0  0  0  0  0  0
  188.7170  173.0860  138.8470 C   0  0  0  0  0  2  0  0  0  0  0  0
  194.7070  173.2500  139.5960 O   0  0  0  0  0  0  0  0  0  0  0  0
  196.7970  174.1390  140.2490 O   0  0  0  0  0  1  0  0  0  0  0  0
  196.2980  172.4890  139.9140 P   0  0  2  0  0  0  0  0  0  0  0  0
  197.6200  171.3510  137.8980 O   0  0  0  0  0  0  0  0  0  0  0  0
  196.2870  170.9370  137.6410 C   0  0  0  0  0  2  0  0  0  0  0  0
  196.5630  172.3410  138.0650 C   0  0  1  0  0  3  0  0  0  0  0  0
  195.2890  172.1770  144.9210 O   0  0  0  0  0  0  0  0  0  0  0  0
  196.2740  172.6430  144.0810 C   0  0  0  0  0  0  0  0  0  0  0  0
  196.9840  171.8220  143.3430 O   0  0  0  0  0  0  0  0  0  0  0  0
  195.5980  174.9150  144.0570 O   0  0  0  0  0  1  0  0  0  0  0  0
  196.5360  174.0300  144.0260 C   0  0  0  0  0  0  0  0  0  0  0  0
  197.8270  174.4940  144.0370 O   0  0  0  0  0  0  0  0  0  0  0  0
  1  2  1  0  0  0  0
  1 40  1  0  0  0  0
  2  6  2  0  0  0  0
  2  3  1  0  0  0  0
  3  4  2  0  0  0  0
  4  7  1  0  0  0  0
  5  7  2  0  0  0  0
  6  5  1  0  0  0  0
  8  1  1  0  0  0  0
  9  8  1  0  0  0  0
 10 11  2  0  0  0  0
 11  9  1  0  0  0  0
 12 10  1  0  0  0  0
 13 12  2  0  0  0  0
 14 16  1  0  0  0  0
 16 21  1  0  0  0  0
 16 17  1  0  0  0  0
 17 15  1  1  0  0  0
 18 12  1  6  0  0  0
 18 19  1  0  0  0  0
 19 17  1  0  0  0  0
 20 14  1  0  0  0  0
 20 18  1  0  0  0  0
 21 27  1  6  0  0  0
 22 26  1  0  0  0  0
 24 25  1  0  0  0  0
 24 22  1  0  0  0  0
 25 21  1  1  0  0  0
 25 26  1  0  0  0  0
 26 23  2  0  0  0  0
 27 36  1  6  0  0  0
 27 28  1  0  0  0  0
 29 28  1  0  0  0  0
 30 29  2  0  0  0  0
 31 29  1  0  0  0  0
 32 33  1  0  0  0  0
 33 35  1  0  0  0  0
 33 31  1  0  0  0  0
 34 33  2  0  0  0  0
 36 37  1  0  0  0  0
 38 39  1  0  0  0  0
 39 37  1  0  0  0  0
 42 41  2  6  0  0  0
 42 40  1  0  0  0  0
 42 43  1  0  0  0  0
 44 42  1  0  0  0  0
 45 44  1  0  0  0  0
 46 52  1  6  0  0  0
 46 49  1  0  0  0  0
 46 47  1  0  0  0  0
 47 50  1  0  0  0  0
 48 51  2  0  0  0  0
 48 45  1  0  0  0  0
 49 48  1  0  0  0  0
 50 65  1  1  0  0  0
 50 51  1  0  0  0  0
 52 59  1  6  0  0  0
 53 52  1  0  0  0  0
 54 55  1  0  0  0  0
 54 56  1  0  0  0  0
 55 58  1  6  0  0  0
 55 56  1  0  0  0  0
 56 53  1  1  0  0  0
 57 58  1  0  0  0  0
 59 61  1  0  0  0  0
 61 60  1  6  0  0  0
 62 64  1  0  0  0  0
 63 62  1  0  0  0  0
 63 64  1  0  0  0  0
 64 61  1  1  0  0  0
 66 65  1  0  0  0  0
 67 66  2  0  0  0  0
 69 70  2  0  0  0  0
 69 68  1  0  0  0  0
 69 66  1  0  0  0  0
M  END
>  <MODEL>
8

>  <REMARK>
 VINA RESULT:      -2.4      6.691     11.519
  Name = 
  31 active torsions:
  status: ('A' for Active; 'I' for Inactive)
    1  A    between atoms: C_4  and  N_20
    2  A    between atoms: C_7  and  C_67
    3  A    between atoms: C_9  and  P_16
    4  A    between atoms: C_9  and  C_36
    5  A    between atoms: O_14  and  C_22
    6  A    between atoms: O_14  and  P_30
    7  A    between atoms: C_15  and  C_21
    8  A    between atoms: C_15  and  O_37
    9  A    between atoms: C_15  and  C_52
   10  A    between atoms: C_17  and  N_20
   11  A    between atoms: C_17  and  P_30
   12  A    between atoms: C_18  and  N_34
   13  A    between atoms: C_18  and  C_56
   14  A    between atoms: N_20  and  C_33
   15  A    between atoms: C_21  and  C_45
   16  A    between atoms: C_22  and  C_31
   17  A    between atoms: C_24  and  C_40
   18  A    between atoms: O_25  and  P_35
   19  A    between atoms: O_25  and  C_67
   20  A    between atoms: C_27  and  C_52
   21  A    between atoms: O_32  and  C_40
   22  A    between atoms: O_32  and  C_58
   23  A    between atoms: C_33  and  C_60
   24  A    between atoms: P_35  and  C_68
   25  A    between atoms: C_36  and  O_37
   26  A    between atoms: N_38  and  C_52
   27  A    between atoms: N_43  and  C_60
   28  A    between atoms: C_45  and  C_64
   29  A    between atoms: C_48  and  C_62
   30  A    between atoms: O_50  and  C_57
   31  A    between atoms: O_50  and  C_67
                            x       y       z     vdW  Elec       q    Type
                         _______ _______ _______ _____ _____    ______ ____

>  <TORSDO>
F 31

$$$$
=
 OpenBabel11042413523D

 70 75  0  0  1  0  0  0  0  0999 V2000
  187.9740  175.0610  139.0100 N   0  0  0  0  0  0  0  0  0  0  0  0
  187.9970  175.1690  137.5770 C   0  0  0  0  0  0  0  0  0  0  0  0
  189.0690  174.6260  136.8420 C   0  0  0  0  0  3  0  0  0  0  0  0
  189.1180  174.7410  135.4670 C   0  0  0  0  0  3  0  0  0  0  0  0
  187.0390  175.9610  135.4750 C   0  0  0  0  0  3  0  0  0  0  0  0
  186.9750  175.8170  136.8610 C   0  0  0  0  0  3  0  0  0  0  0  0
  188.1200  175.4240  134.7720 C   0  0  0  0  0  3  0  0  0  0  0  0
  188.1320  173.7270  139.6890 C   0  0  0  0  0  2  0  0  0  0  0  0
  187.9200  172.4960  138.7750 C   0  0  0  0  0  2  0  0  0  0  0  0
  189.1410  171.1340  137.2700 N   0  0  0  0  0  0  0  0  0  0  0  0
  189.1390  171.8230  138.3620 N   0  0  0  0  0  0  0  0  0  0  0  0
  190.3460  170.4630  136.8560 C   0  0  0  0  0  0  0  0  0  0  0  0
  190.5400  170.2270  135.6500 O   0  0  0  0  0  0  0  0  0  0  0  0
  193.1530  171.1190  139.2550 C   0  0  0  0  0  2  0  0  0  0  0  0
  195.1020  169.1720  137.3300 O   0  0  0  0  0  1  0  0  0  0  0  0
  193.9560  169.8870  139.2660 N   0  0  0  0  0  0  0  0  0  0  0  0
  193.9020  169.0610  138.0580 C   0  0  1  0  0  3  0  0  0  0  0  0
  191.3510  169.9010  137.8890 C   0  0  1  0  0  3  0  0  0  0  0  0
  192.6640  169.4640  137.1720 C   0  0  0  0  0  2  0  0  0  0  0  0
  191.6130  170.8970  138.9870 C   0  0  0  0  0  2  0  0  0  0  0  0
  195.1090  169.5890  140.2390 C   0  0  2  0  0  3  0  0  0  0  0  0
  194.5840  168.5800  143.3430 C   0  0  0  0  0  2  0  0  0  0  0  0
  192.6060  170.1110  142.7480 O   0  0  0  0  0  0  0  0  0  0  0  0
  195.3700  168.1660  142.2150 N   0  0  0  0  0  2  0  0  0  0  0  0
  194.4040  168.8450  141.3840 C   0  0  1  0  0  3  0  0  0  0  0  0
  193.6030  169.4160  142.5350 C   0  0  0  0  0  0  0  0  0  0  0  0
  196.0560  170.8160  140.6040 C   0  0  1  0  0  3  0  0  0  0  0  0
  196.0130  171.9260  139.7460 O   0  0  0  0  0  0  0  0  0  0  0  0
  196.7280  171.9990  138.5080 C   0  0  0  0  0  0  0  0  0  0  0  0
  197.9120  171.6810  138.4160 O   0  0  0  0  0  0  0  0  0  0  0  0
  195.9110  172.3800  137.3230 C   0  0  0  0  0  2  0  0  0  0  0  0
  194.7290  174.8660  138.2530 O   0  0  0  0  0  1  0  0  0  0  0  0
  195.8600  174.2160  137.1770 P   0  0  0  0  0  0  0  0  0  0  0  0
  195.4440  174.6770  135.5950 O   0  0  0  0  0  0  0  0  0  0  0  0
  197.2240  174.7740  137.5680 O   0  0  0  0  0  1  0  0  0  0  0  0
  196.4710  171.1220  142.0700 C   0  0  0  0  0  2  0  0  0  0  0  0
  195.4910  172.1370  142.6860 C   0  0  0  0  0  2  0  0  0  0  0  0
  196.1480  171.2800  144.8570 O   0  0  0  0  0  1  0  0  0  0  0  0
  195.8540  172.4470  144.1390 C   0  0  0  0  0  2  0  0  0  0  0  0
  188.0010  176.3380  139.7940 C   0  0  0  0  0  2  0  0  0  0  0  0
  186.5000  178.8040  140.2720 O   0  0  0  0  0  1  0  0  0  0  0  0
  186.3850  177.1240  140.2460 P   0  0  1  0  0  0  0  0  0  0  0  0
  185.4110  176.8340  139.1360 O   0  0  0  0  0  0  0  0  0  0  0  0
  185.8710  176.6760  141.8480 O   0  0  0  0  0  0  0  0  0  0  0  0
  186.6990  175.5940  142.2230 C   0  0  0  0  0  2  0  0  0  0  0  0
  189.8390  176.1380  144.6920 C   0  0  2  0  0  3  0  0  0  0  0  0
  188.9170  175.9660  145.8890 C   0  0  0  0  0  2  0  0  0  0  0  0
  187.4640  175.8770  143.5020 C   0  0  0  0  0  0  0  0  0  0  0  0
  189.0260  175.6810  143.4680 C   0  0  0  0  0  2  0  0  0  0  0  0
  187.4550  176.5060  145.9660 C   0  0  2  0  0  3  0  0  0  0  0  0
  186.8040  176.1420  144.6670 C   0  0  0  0  0  3  0  0  0  0  0  0
  191.4100  175.5860  144.9800 C   0  0  1  0  0  3  0  0  0  0  0  0
  191.2100  175.0280  146.2070 O   0  0  0  0  0  0  0  0  0  0  0  0
  191.2450  175.3940  148.6260 C   0  0  0  0  0  2  0  0  0  0  0  0
  191.1670  176.7700  148.0740 C   0  0  2  0  0  3  0  0  0  0  0  0
  191.9710  175.6420  147.3330 C   0  0  2  0  0  3  0  0  0  0  0  0
  191.2590  178.6730  149.8900 O   0  0  0  0  0  1  0  0  0  0  0  0
  191.9260  177.5780  149.2870 C   0  0  0  0  0  2  0  0  0  0  0  0
  192.1420  174.6530  144.1880 O   0  0  0  0  0  0  0  0  0  0  0  0
  192.2040  173.1990  142.3260 O   0  0  0  0  0  1  0  0  0  0  0  0
  192.2370  174.9520  142.4240 P   0  0  2  0  0  0  0  0  0  0  0  0
  194.4790  175.9160  141.3510 O   0  0  0  0  0  0  0  0  0  0  0  0
  194.2860  176.7900  142.4520 C   0  0  0  0  0  2  0  0  0  0  0  0
  194.0640  175.3240  142.6160 C   0  0  1  0  0  3  0  0  0  0  0  0
  187.3950  177.9390  146.2890 O   0  0  0  0  0  0  0  0  0  0  0  0
  186.2180  178.5880  146.5860 C   0  0  0  0  0  0  0  0  0  0  0  0
  186.1110  179.3520  147.6480 O   0  0  0  0  0  0  0  0  0  0  0  0
  184.0380  177.7850  146.1190 O   0  0  0  0  0  1  0  0  0  0  0  0
  185.1000  178.4120  145.7410 C   0  0  0  0  0  0  0  0  0  0  0  0
  185.0670  178.9970  144.5010 O   0  0  0  0  0  0  0  0  0  0  0  0
  1  8  1  0  0  0  0
  1 40  1  0  0  0  0
  2  1  1  0  0  0  0
  3  2  2  0  0  0  0
  4  3  1  0  0  0  0
  5  6  2  0  0  0  0
  6  2  1  0  0  0  0
  7  4  2  0  0  0  0
  7  5  1  0  0  0  0
  9  8  1  0  0  0  0
 10 11  2  0  0  0  0
 11  9  1  0  0  0  0
 12 10  1  0  0  0  0
 13 12  2  0  0  0  0
 14 16  1  0  0  0  0
 16 21  1  0  0  0  0
 17 15  1  6  0  0  0
 17 16  1  0  0  0  0
 18 12  1  6  0  0  0
 18 20  1  0  0  0  0
 19 18  1  0  0  0  0
 19 17  1  0  0  0  0
 20 14  1  0  0  0  0
 21 27  1  1  0  0  0
 24 22  1  0  0  0  0
 25 21  1  6  0  0  0
 25 24  1  0  0  0  0
 25 26  1  0  0  0  0
 26 23  2  0  0  0  0
 26 22  1  0  0  0  0
 27 36  1  1  0  0  0
 28 27  1  0  0  0  0
 29 28  1  0  0  0  0
 30 29  2  0  0  0  0
 31 29  1  0  0  0  0
 33 31  1  0  0  0  0
 33 35  1  0  0  0  0
 33 32  1  0  0  0  0
 34 33  2  0  0  0  0
 36 37  1  0  0  0  0
 37 39  1  0  0  0  0
 39 38  1  0  0  0  0
 40 42  1  0  0  0  0
 42 43  2  6  0  0  0
 42 41  1  0  0  0  0
 42 44  1  0  0  0  0
 44 45  1  0  0  0  0
 45 48  1  0  0  0  0
 46 52  1  1  0  0  0
 46 47  1  0  0  0  0
 47 50  1  0  0  0  0
 48 51  2  0  0  0  0
 49 48  1  0  0  0  0
 49 46  1  0  0  0  0
 50 65  1  6  0  0  0
 51 50  1  0  0  0  0
 52 59  1  6  0  0  0
 52 53  1  0  0  0  0
 55 54  1  0  0  0  0
 55 58  1  1  0  0  0
 56 53  1  6  0  0  0
 56 55  1  0  0  0  0
 56 54  1  0  0  0  0
 58 57  1  0  0  0  0
 61 60  1  6  0  0  0
 61 59  1  0  0  0  0
 62 63  1  0  0  0  0
 62 64  1  0  0  0  0
 63 64  1  0  0  0  0
 64 61  1  6  0  0  0
 65 66  1  0  0  0  0
 66 67  2  0  0  0  0
 69 68  1  0  0  0  0
 69 66  1  0  0  0  0
 70 69  2  0  0  0  0
M  END
>  <MODEL>
9

>  <REMARK>
 VINA RESULT:      -2.4      2.816      7.979
  Name = 
  31 active torsions:
  status: ('A' for Active; 'I' for Inactive)
    1  A    between atoms: C_4  and  N_20
    2  A    between atoms: C_7  and  C_67
    3  A    between atoms: C_9  and  P_16
    4  A    between atoms: C_9  and  C_36
    5  A    between atoms: O_14  and  C_22
    6  A    between atoms: O_14  and  P_30
    7  A    between atoms: C_15  and  C_21
    8  A    between atoms: C_15  and  O_37
    9  A    between atoms: C_15  and  C_52
   10  A    between atoms: C_17  and  N_20
   11  A    between atoms: C_17  and  P_30
   12  A    between atoms: C_18  and  N_34
   13  A    between atoms: C_18  and  C_56
   14  A    between atoms: N_20  and  C_33
   15  A    between atoms: C_21  and  C_45
   16  A    between atoms: C_22  and  C_31
   17  A    between atoms: C_24  and  C_40
   18  A    between atoms: O_25  and  P_35
   19  A    between atoms: O_25  and  C_67
   20  A    between atoms: C_27  and  C_52
   21  A    between atoms: O_32  and  C_40
   22  A    between atoms: O_32  and  C_58
   23  A    between atoms: C_33  and  C_60
   24  A    between atoms: P_35  and  C_68
   25  A    between atoms: C_36  and  O_37
   26  A    between atoms: N_38  and  C_52
   27  A    between atoms: N_43  and  C_60
   28  A    between atoms: C_45  and  C_64
   29  A    between atoms: C_48  and  C_62
   30  A    between atoms: O_50  and  C_57
   31  A    between atoms: O_50  and  C_67
                            x       y       z     vdW  Elec       q    Type
                         _______ _______ _______ _____ _____    ______ ____

>  <TORSDO>
F 31

$$$$
