=
 OpenBabel11042414573D

 39 45  0  0  1  0  0  0  0  0999 V2000
  189.3320  174.8870  144.8530 C   0  0  2  0  0  3  0  0  0  0  0  0
  190.1030  176.5770  146.3910 C   0  0  1  0  0  3  0  0  0  0  0  0
  190.2580  175.2320  147.0810 C   0  0  0  0  0  2  0  0  0  0  0  0
  189.9700  176.2600  144.9130 C   0  0  0  0  0  2  0  0  0  0  0  0
  189.8190  174.1590  146.0930 C   0  0  0  0  0  2  0  0  0  0  0  0
  192.4320  171.9670  142.4230 N   0  0  0  0  0  2  0  0  0  0  0  0
  190.0800  172.2800  141.4950 C   0  0  1  0  0  3  0  0  0  0  0  0
  190.6430  171.8610  140.1480 C   0  0  0  0  0  1  0  0  0  0  0  0
  189.6760  174.1730  143.5770 C   0  0  0  0  0  0  0  0  0  0  0  0
  191.1790  172.6500  142.4670 C   0  0  0  0  0  0  0  0  0  0  0  0
  189.1210  173.4560  141.2890 C   0  0  0  0  0  2  0  0  0  0  0  0
  188.7700  174.1090  142.5930 C   0  0  0  0  0  3  0  0  0  0  0  0
  190.9390  173.4960  143.4310 N   0  0  0  0  0  0  0  0  0  0  0  0
  193.4270  172.2240  143.3770 N   0  0  0  0  0  2  0  0  0  0  0  0
  194.6820  173.5480  141.9240 O   0  0  0  0  0  0  0  0  0  0  0  0
  194.5690  173.0180  143.0600 C   0  0  0  0  0  0  0  0  0  0  0  0
  195.6510  173.1890  144.0650 C   0  0  0  0  0  2  0  0  0  0  0  0
  195.0860  173.2450  145.3450 O   0  0  0  0  0  0  0  0  0  0  0  0
  195.1950  174.5830  145.7260 C   0  0  0  0  0  2  0  0  0  0  0  0
  193.8050  175.1770  145.8930 C   0  0  2  0  0  3  0  0  0  0  0  0
  194.5670  177.5410  145.7640 C   0  0  0  0  0  2  0  0  0  0  0  0
  193.6820  176.4830  145.1290 C   0  0  2  0  0  3  0  0  0  0  0  0
  193.8780  176.5030  146.6300 C   0  0  1  0  0  3  0  0  0  0  0  0
  188.8890  177.2180  146.8770 N   0  0  0  0  0  2  0  0  0  0  0  0
  188.1240  177.5830  145.7580 N   0  0  0  0  0  2  0  0  0  0  0  0
  185.9380  178.1390  144.7510 C   0  0  0  0  0  0  0  0  0  0  0  0
  185.3200  178.1740  141.1600 C   0  0  0  0  0  3  0  0  0  0  0  0
  184.0500  178.6660  146.1460 N   0  0  0  0  0  0  0  0  0  0  0  0
  184.6080  178.5060  144.9190 C   0  0  0  0  0  0  0  0  0  0  0  0
  186.2740  177.9920  143.3960 C   0  0  0  0  0  0  0  0  0  0  0  0
  187.5140  177.6200  142.8650 C   0  0  0  0  0  3  0  0  0  0  0  0
  184.8110  178.4840  147.2620 C   0  0  0  0  0  3  0  0  0  0  0  0
  186.7490  177.9530  145.8830 C   0  0  0  0  0  0  0  0  0  0  0  0
  186.1670  178.1320  147.1520 C   0  0  0  0  0  3  0  0  0  0  0  0
  183.8220  178.6660  143.4340 S   0  0  0  0  0  0  0  0  0  0  0  0
  187.6510  177.5260  141.4710 C   0  0  0  0  0  3  0  0  0  0  0  0
  185.1990  178.2540  142.5460 C   0  0  0  0  0  0  0  0  0  0  0  0
  186.7150  177.7120  139.2800 F   0  0  0  0  0  0  0  0  0  0  0  0
  186.5620  177.8050  140.6220 C   0  0  0  0  0  0  0  0  0  0  0  0
  1  9  1  6  0  0  0
  1  4  1  0  0  0  0
  1  5  1  0  0  0  0
  2 24  1  1  0  0  0
  2  3  1  0  0  0  0
  4  2  1  0  0  0  0
  5  3  1  0  0  0  0
  6 10  1  0  0  0  0
  6 14  1  0  0  0  0
  7  8  1  6  0  0  0
  7 10  1  0  0  0  0
 10 13  2  0  0  0  0
 11  7  1  0  0  0  0
 11 12  1  0  0  0  0
 12  9  2  0  0  0  0
 13  9  1  0  0  0  0
 15 16  2  0  0  0  0
 16 14  1  0  0  0  0
 16 17  1  0  0  0  0
 17 18  1  0  0  0  0
 18 19  1  0  0  0  0
 20 19  1  6  0  0  0
 20 23  1  0  0  0  0
 22 21  1  6  0  0  0
 22 20  1  0  0  0  0
 22 23  1  0  0  0  0
 23 21  1  6  0  0  0
 25 33  1  0  0  0  0
 25 24  1  0  0  0  0
 26 29  2  0  0  0  0
 26 33  1  0  0  0  0
 27 37  1  0  0  0  0
 28 32  2  0  0  0  0
 29 28  1  0  0  0  0
 30 26  1  0  0  0  0
 31 30  1  0  0  0  0
 33 34  2  0  0  0  0
 34 32  1  0  0  0  0
 35 29  1  0  0  0  0
 36 31  2  0  0  0  0
 37 30  2  0  0  0  0
 37 35  1  0  0  0  0
 38 39  1  0  0  0  0
 39 27  2  0  0  0  0
 39 36  1  0  0  0  0
M  END
>  <MODEL>
1

>  <REMARK>
 VINA RESULT:      -8.2      0.000      0.000
  Name = 
  9 active torsions:
  status: ('A' for Active; 'I' for Inactive)
    1  A    between atoms: O_1  and  C_35
    2  A    between atoms: O_1  and  C_37
    3  A    between atoms: N_2  and  N_16
    4  A    between atoms: C_3  and  C_20
    5  A    between atoms: C_5  and  C_35
    6  A    between atoms: N_6  and  C_7
    7  A    between atoms: N_6  and  N_11
    8  A    between atoms: N_11  and  C_28
    9  A    between atoms: C_23  and  C_37
                            x       y       z     vdW  Elec       q    Type
                         _______ _______ _______ _____ _____    ______ ____

>  <TORSDO>
F 9

$$$$
=
 OpenBabel11042414573D

 39 45  0  0  1  0  0  0  0  0999 V2000
  191.4800  175.6870  146.3190 C   0  0  2  0  0  3  0  0  0  0  0  0
  189.5560  177.1220  146.5450 C   0  0  1  0  0  3  0  0  0  0  0  0
  190.3830  177.2720  147.8110 C   0  0  0  0  0  2  0  0  0  0  0  0
  190.4930  176.5130  145.5190 C   0  0  0  0  0  2  0  0  0  0  0  0
  191.6250  176.4050  147.6490 C   0  0  0  0  0  2  0  0  0  0  0  0
  193.8200  175.1540  142.0430 N   0  0  0  0  0  2  0  0  0  0  0  0
  195.1650  175.8900  144.0790 C   0  0  1  0  0  3  0  0  0  0  0  0
  196.3930  175.3640  143.3560 C   0  0  0  0  0  1  0  0  0  0  0  0
  192.7840  175.5280  145.5900 C   0  0  0  0  0  0  0  0  0  0  0  0
  193.8880  175.3740  143.4520 C   0  0  0  0  0  0  0  0  0  0  0  0
  195.2450  175.4880  145.5540 C   0  0  0  0  0  2  0  0  0  0  0  0
  193.9350  175.7060  146.2520 C   0  0  0  0  0  3  0  0  0  0  0  0
  192.8070  175.2590  144.1750 N   0  0  0  0  0  0  0  0  0  0  0  0
  192.6190  174.7730  141.4290 N   0  0  0  0  0  2  0  0  0  0  0  0
  193.6450  173.1610  140.0910 O   0  0  0  0  0  0  0  0  0  0  0  0
  192.5910  173.7660  140.4190 C   0  0  0  0  0  0  0  0  0  0  0  0
  191.3150  173.4560  139.7220 C   0  0  0  0  0  2  0  0  0  0  0  0
  190.2410  173.8470  140.5300 O   0  0  0  0  0  0  0  0  0  0  0  0
  189.7630  172.6610  141.0890 C   0  0  0  0  0  2  0  0  0  0  0  0
  188.7930  172.9850  142.2140 C   0  0  2  0  0  3  0  0  0  0  0  0
  190.4310  172.5630  144.0370 C   0  0  0  0  0  2  0  0  0  0  0  0
  189.5240  173.5970  143.3950 C   0  0  2  0  0  3  0  0  0  0  0  0
  189.1010  172.1440  143.4410 C   0  0  1  0  0  3  0  0  0  0  0  0
  188.4470  176.2170  146.8120 N   0  0  0  0  0  2  0  0  0  0  0  0
  187.5830  176.2670  145.7070 N   0  0  0  0  0  2  0  0  0  0  0  0
  185.7740  177.4960  144.5600 C   0  0  0  0  0  0  0  0  0  0  0  0
  185.5650  177.8690  140.9410 C   0  0  0  0  0  3  0  0  0  0  0  0
  183.9920  178.5070  145.8230 N   0  0  0  0  0  0  0  0  0  0  0  0
  184.6010  178.2390  144.6400 C   0  0  0  0  0  0  0  0  0  0  0  0
  186.1880  177.3140  143.2320 C   0  0  0  0  0  0  0  0  0  0  0  0
  187.3110  176.6090  142.7830 C   0  0  0  0  0  3  0  0  0  0  0  0
  184.5470  178.0570  146.9840 C   0  0  0  0  0  3  0  0  0  0  0  0
  186.3730  177.0280  145.7410 C   0  0  0  0  0  0  0  0  0  0  0  0
  185.7430  177.3190  146.9650 C   0  0  0  0  0  3  0  0  0  0  0  0
  184.0540  178.6910  143.1090 S   0  0  0  0  0  0  0  0  0  0  0  0
  187.5560  176.5380  141.4020 C   0  0  0  0  0  3  0  0  0  0  0  0
  185.3310  177.9230  142.3140 C   0  0  0  0  0  0  0  0  0  0  0  0
  186.9460  177.0910  139.1580 F   0  0  0  0  0  0  0  0  0  0  0  0
  186.6910  177.1680  140.4860 C   0  0  0  0  0  0  0  0  0  0  0  0
  1  9  1  6  0  0  0
  1  5  1  0  0  0  0
  2 24  1  1  0  0  0
  2  3  1  0  0  0  0
  4  1  1  0  0  0  0
  4  2  1  0  0  0  0
  5  3  1  0  0  0  0
  6 10  1  0  0  0  0
  7  8  1  6  0  0  0
  7 11  1  0  0  0  0
  9 12  2  0  0  0  0
 10  7  1  0  0  0  0
 10 13  2  0  0  0  0
 11 12  1  0  0  0  0
 13  9  1  0  0  0  0
 14  6  1  0  0  0  0
 15 16  2  0  0  0  0
 16 14  1  0  0  0  0
 17 16  1  0  0  0  0
 17 18  1  0  0  0  0
 18 19  1  0  0  0  0
 20 19  1  6  0  0  0
 20 22  1  0  0  0  0
 20 23  1  0  0  0  0
 22 23  1  0  0  0  0
 22 21  1  6  0  0  0
 23 21  1  6  0  0  0
 25 33  1  0  0  0  0
 25 24  1  0  0  0  0
 26 29  2  0  0  0  0
 26 33  1  0  0  0  0
 27 37  1  0  0  0  0
 28 32  2  0  0  0  0
 29 28  1  0  0  0  0
 30 26  1  0  0  0  0
 31 30  1  0  0  0  0
 33 34  2  0  0  0  0
 34 32  1  0  0  0  0
 35 29  1  0  0  0  0
 36 31  2  0  0  0  0
 37 35  1  0  0  0  0
 37 30  2  0  0  0  0
 38 39  1  0  0  0  0
 39 27  2  0  0  0  0
 39 36  1  0  0  0  0
M  END
>  <MODEL>
2

>  <REMARK>
 VINA RESULT:      -8.1      1.694      4.000
  Name = 
  9 active torsions:
  status: ('A' for Active; 'I' for Inactive)
    1  A    between atoms: O_1  and  C_35
    2  A    between atoms: O_1  and  C_37
    3  A    between atoms: N_2  and  N_16
    4  A    between atoms: C_3  and  C_20
    5  A    between atoms: C_5  and  C_35
    6  A    between atoms: N_6  and  C_7
    7  A    between atoms: N_6  and  N_11
    8  A    between atoms: N_11  and  C_28
    9  A    between atoms: C_23  and  C_37
                            x       y       z     vdW  Elec       q    Type
                         _______ _______ _______ _____ _____    ______ ____

>  <TORSDO>
F 9

$$$$
=
 OpenBabel11042414573D

 39 45  0  0  1  0  0  0  0  0999 V2000
  191.7520  175.4890  145.6520 C   0  0  2  0  0  3  0  0  0  0  0  0
  190.2480  177.0070  146.7680 C   0  0  1  0  0  3  0  0  0  0  0  0
  190.9600  176.2030  147.8430 C   0  0  0  0  0  2  0  0  0  0  0  0
  191.0910  176.8460  145.5170 C   0  0  0  0  0  2  0  0  0  0  0  0
  191.9470  175.2790  147.1430 C   0  0  0  0  0  2  0  0  0  0  0  0
  194.3870  173.2780  142.1560 N   0  0  0  0  0  2  0  0  0  0  0  0
  195.0930  175.6050  142.9200 C   0  0  1  0  0  3  0  0  0  0  0  0
  196.4750  175.2720  142.3860 C   0  0  0  0  0  1  0  0  0  0  0  0
  193.0350  175.4210  144.8730 C   0  0  0  0  0  0  0  0  0  0  0  0
  194.2420  174.3640  143.0740 C   0  0  0  0  0  0  0  0  0  0  0  0
  195.2380  176.3320  144.2600 C   0  0  0  0  0  2  0  0  0  0  0  0
  193.9250  176.4150  144.9810 C   0  0  0  0  0  3  0  0  0  0  0  0
  193.2830  174.3350  143.9580 N   0  0  0  0  0  0  0  0  0  0  0  0
  193.5410  172.1630  142.2200 N   0  0  0  0  0  2  0  0  0  0  0  0
  192.3760  172.7540  140.2880 O   0  0  0  0  0  0  0  0  0  0  0  0
  192.5130  171.9570  141.2520 C   0  0  0  0  0  0  0  0  0  0  0  0
  191.5720  170.8160  141.4060 C   0  0  0  0  0  2  0  0  0  0  0  0
  190.2570  171.2890  141.3280 O   0  0  0  0  0  0  0  0  0  0  0  0
  189.9560  171.7220  142.6200 C   0  0  0  0  0  2  0  0  0  0  0  0
  188.7910  172.6990  142.5690 C   0  0  2  0  0  3  0  0  0  0  0  0
  190.2200  174.7210  142.3300 C   0  0  0  0  0  2  0  0  0  0  0  0
  189.1250  173.8880  141.6870 C   0  0  2  0  0  3  0  0  0  0  0  0
  189.1830  174.0270  143.1930 C   0  0  1  0  0  3  0  0  0  0  0  0
  188.9230  176.4400  146.5560 N   0  0  0  0  0  2  0  0  0  0  0  0
  188.2780  177.2200  145.5830 N   0  0  0  0  0  2  0  0  0  0  0  0
  186.1030  177.9370  144.6590 C   0  0  0  0  0  0  0  0  0  0  0  0
  185.3830  178.1090  141.0910 C   0  0  0  0  0  3  0  0  0  0  0  0
  184.2930  178.5410  146.1240 N   0  0  0  0  0  0  0  0  0  0  0  0
  184.8040  178.3810  144.8770 C   0  0  0  0  0  0  0  0  0  0  0  0
  186.3890  177.8070  143.2910 C   0  0  0  0  0  0  0  0  0  0  0  0
  187.5870  177.3740  142.7120 C   0  0  0  0  0  3  0  0  0  0  0  0
  185.0740  178.2830  147.2120 C   0  0  0  0  0  3  0  0  0  0  0  0
  186.9340  177.6710  145.7600 C   0  0  0  0  0  0  0  0  0  0  0  0
  186.4010  177.8500  147.0510 C   0  0  0  0  0  3  0  0  0  0  0  0
  183.9870  178.6300  143.4220 S   0  0  0  0  0  0  0  0  0  0  0  0
  187.6780  177.3100  141.3130 C   0  0  0  0  0  3  0  0  0  0  0  0
  185.3080  178.1590  142.4810 C   0  0  0  0  0  0  0  0  0  0  0  0
  186.6910  177.6140  139.1570 F   0  0  0  0  0  0  0  0  0  0  0  0
  186.5840  177.6800  140.5060 C   0  0  0  0  0  0  0  0  0  0  0  0
  1  9  1  6  0  0  0
  1  5  1  0  0  0  0
  2 24  1  6  0  0  0
  2  3  1  0  0  0  0
  4  1  1  0  0  0  0
  4  2  1  0  0  0  0
  5  3  1  0  0  0  0
  6 14  1  0  0  0  0
  6 10  1  0  0  0  0
  7  8  1  1  0  0  0
  7 10  1  0  0  0  0
  7 11  1  0  0  0  0
  9 12  2  0  0  0  0
 10 13  2  0  0  0  0
 11 12  1  0  0  0  0
 13  9  1  0  0  0  0
 15 16  2  0  0  0  0
 16 17  1  0  0  0  0
 16 14  1  0  0  0  0
 18 17  1  0  0  0  0
 18 19  1  0  0  0  0
 20 19  1  6  0  0  0
 20 23  1  0  0  0  0
 22 21  1  6  0  0  0
 22 20  1  0  0  0  0
 22 23  1  0  0  0  0
 23 21  1  6  0  0  0
 25 33  1  0  0  0  0
 25 24  1  0  0  0  0
 26 29  2  0  0  0  0
 26 33  1  0  0  0  0
 27 37  1  0  0  0  0
 28 32  2  0  0  0  0
 29 28  1  0  0  0  0
 30 26  1  0  0  0  0
 31 30  1  0  0  0  0
 33 34  2  0  0  0  0
 34 32  1  0  0  0  0
 35 29  1  0  0  0  0
 36 31  2  0  0  0  0
 37 30  2  0  0  0  0
 37 35  1  0  0  0  0
 38 39  1  0  0  0  0
 39 27  2  0  0  0  0
 39 36  1  0  0  0  0
M  END
>  <MODEL>
3

>  <REMARK>
 VINA RESULT:      -8.0      1.547      3.711
  Name = 
  9 active torsions:
  status: ('A' for Active; 'I' for Inactive)
    1  A    between atoms: O_1  and  C_35
    2  A    between atoms: O_1  and  C_37
    3  A    between atoms: N_2  and  N_16
    4  A    between atoms: C_3  and  C_20
    5  A    between atoms: C_5  and  C_35
    6  A    between atoms: N_6  and  C_7
    7  A    between atoms: N_6  and  N_11
    8  A    between atoms: N_11  and  C_28
    9  A    between atoms: C_23  and  C_37
                            x       y       z     vdW  Elec       q    Type
                         _______ _______ _______ _____ _____    ______ ____

>  <TORSDO>
F 9

$$$$
=
 OpenBabel11042414573D

 39 45  0  0  1  0  0  0  0  0999 V2000
  188.7220  176.6890  147.0810 C   0  0  2  0  0  3  0  0  0  0  0  0
  190.7320  175.6280  146.2750 C   0  0  1  0  0  3  0  0  0  0  0  0
  189.8180  174.5310  146.7970 C   0  0  0  0  0  2  0  0  0  0  0  0
  189.8350  176.8330  146.0630 C   0  0  0  0  0  2  0  0  0  0  0  0
  188.5270  175.1940  147.2600 C   0  0  0  0  0  2  0  0  0  0  0  0
  185.1840  177.1760  143.7200 N   0  0  0  0  0  2  0  0  0  0  0  0
  184.8050  178.1730  146.0350 C   0  0  1  0  0  3  0  0  0  0  0  0
  183.7860  179.0910  145.3840 C   0  0  0  0  0  1  0  0  0  0  0  0
  187.4730  177.3970  146.6370 C   0  0  0  0  0  0  0  0  0  0  0  0
  185.7020  177.5190  145.0070 C   0  0  0  0  0  0  0  0  0  0  0  0
  185.6320  178.9810  147.0390 C   0  0  0  0  0  2  0  0  0  0  0  0
  186.8440  178.2180  147.4870 C   0  0  0  0  0  3  0  0  0  0  0  0
  186.9080  177.1440  145.3360 N   0  0  0  0  0  0  0  0  0  0  0  0
  185.9680  176.4800  142.7900 N   0  0  0  0  0  2  0  0  0  0  0  0
  186.7190  178.4270  141.7490 O   0  0  0  0  0  0  0  0  0  0  0  0
  186.7120  177.1690  141.7870 C   0  0  0  0  0  0  0  0  0  0  0  0
  187.4550  176.3960  140.7560 C   0  0  0  0  0  2  0  0  0  0  0  0
  187.6910  175.1010  141.2340 O   0  0  0  0  0  0  0  0  0  0  0  0
  188.8780  174.7030  140.6180 C   0  0  0  0  0  2  0  0  0  0  0  0
  189.6240  173.7410  141.5280 C   0  0  2  0  0  3  0  0  0  0  0  0
  191.0110  175.5000  142.6070 C   0  0  0  0  0  2  0  0  0  0  0  0
  189.9810  174.4110  142.8420 C   0  0  2  0  0  3  0  0  0  0  0  0
  191.0410  174.2320  141.7760 C   0  0  1  0  0  3  0  0  0  0  0  0
  191.7380  175.9230  147.2860 N   0  0  0  0  0  2  0  0  0  0  0  0
  192.9090  175.2350  146.9320 N   0  0  0  0  0  2  0  0  0  0  0  0
  194.2430  175.1090  144.8570 C   0  0  0  0  0  0  0  0  0  0  0  0
  194.1200  172.2940  142.5460 C   0  0  0  0  0  3  0  0  0  0  0  0
  195.7050  176.9150  144.2330 N   0  0  0  0  0  0  0  0  0  0  0  0
  195.1730  175.6890  144.0010 C   0  0  0  0  0  0  0  0  0  0  0  0
  193.8050  173.8610  144.3870 C   0  0  0  0  0  0  0  0  0  0  0  0
  192.8670  173.0120  144.9840 C   0  0  0  0  0  3  0  0  0  0  0  0
  195.3420  177.6080  145.3500 C   0  0  0  0  0  3  0  0  0  0  0  0
  193.8560  175.7950  146.0200 C   0  0  0  0  0  0  0  0  0  0  0  0
  194.4210  177.0620  146.2610 C   0  0  0  0  0  3  0  0  0  0  0  0
  195.4830  174.6990  142.6700 S   0  0  0  0  0  0  0  0  0  0  0  0
  192.5580  171.7960  144.3520 C   0  0  0  0  0  3  0  0  0  0  0  0
  194.4080  173.5010  143.1810 C   0  0  0  0  0  0  0  0  0  0  0  0
  192.8750  170.2590  142.5500 F   0  0  0  0  0  0  0  0  0  0  0  0
  193.1830  171.4370  143.1430 C   0  0  0  0  0  0  0  0  0  0  0  0
  1  9  1  6  0  0  0
  1  5  1  0  0  0  0
  2  3  1  0  0  0  0
  2 24  1  1  0  0  0
  3  5  1  0  0  0  0
  4  2  1  0  0  0  0
  4  1  1  0  0  0  0
  6 10  1  0  0  0  0
  7  8  1  6  0  0  0
  7 11  1  0  0  0  0
  9 12  2  0  0  0  0
 10 13  2  0  0  0  0
 10  7  1  0  0  0  0
 11 12  1  0  0  0  0
 13  9  1  0  0  0  0
 14  6  1  0  0  0  0
 15 16  2  0  0  0  0
 16 14  1  0  0  0  0
 17 18  1  0  0  0  0
 17 16  1  0  0  0  0
 19 18  1  0  0  0  0
 20 19  1  6  0  0  0
 20 23  1  0  0  0  0
 20 22  1  0  0  0  0
 22 21  1  6  0  0  0
 23 21  1  6  0  0  0
 23 22  1  0  0  0  0
 25 24  1  0  0  0  0
 26 33  1  0  0  0  0
 27 39  2  0  0  0  0
 27 37  1  0  0  0  0
 28 32  2  0  0  0  0
 29 28  1  0  0  0  0
 29 26  2  0  0  0  0
 30 26  1  0  0  0  0
 30 31  1  0  0  0  0
 32 34  1  0  0  0  0
 33 34  2  0  0  0  0
 33 25  1  0  0  0  0
 35 37  1  0  0  0  0
 35 29  1  0  0  0  0
 36 31  2  0  0  0  0
 37 30  2  0  0  0  0
 38 39  1  0  0  0  0
 39 36  1  0  0  0  0
M  END
>  <MODEL>
4

>  <REMARK>
 VINA RESULT:      -7.9      3.700      8.050
  Name = 
  9 active torsions:
  status: ('A' for Active; 'I' for Inactive)
    1  A    between atoms: O_1  and  C_35
    2  A    between atoms: O_1  and  C_37
    3  A    between atoms: N_2  and  N_16
    4  A    between atoms: C_3  and  C_20
    5  A    between atoms: C_5  and  C_35
    6  A    between atoms: N_6  and  C_7
    7  A    between atoms: N_6  and  N_11
    8  A    between atoms: N_11  and  C_28
    9  A    between atoms: C_23  and  C_37
                            x       y       z     vdW  Elec       q    Type
                         _______ _______ _______ _____ _____    ______ ____

>  <TORSDO>
F 9

$$$$
=
 OpenBabel11042414573D

 39 45  0  0  1  0  0  0  0  0999 V2000
  191.6500  175.9190  144.2910 C   0  0  2  0  0  3  0  0  0  0  0  0
  190.6980  177.8660  143.2350 C   0  0  1  0  0  3  0  0  0  0  0  0
  190.1480  177.8040  144.6500 C   0  0  0  0  0  2  0  0  0  0  0  0
  191.9250  176.9730  143.2390 C   0  0  0  0  0  2  0  0  0  0  0  0
  190.7860  176.6030  145.3360 C   0  0  0  0  0  2  0  0  0  0  0  0
  194.8250  172.1870  144.4860 N   0  0  0  0  0  2  0  0  0  0  0  0
  195.5870  174.4730  145.3160 C   0  0  1  0  0  3  0  0  0  0  0  0
  196.6390  173.7380  146.1270 C   0  0  0  0  0  1  0  0  0  0  0  0
  192.9230  175.3560  144.8560 C   0  0  0  0  0  0  0  0  0  0  0  0
  194.5030  173.5350  144.8300 C   0  0  0  0  0  0  0  0  0  0  0  0
  194.9890  175.5920  146.1730 C   0  0  0  0  0  2  0  0  0  0  0  0
  193.7460  176.1540  145.5490 C   0  0  0  0  0  3  0  0  0  0  0  0
  193.3030  173.9910  144.5950 N   0  0  0  0  0  0  0  0  0  0  0  0
  193.8580  171.3310  143.9400 N   0  0  0  0  0  2  0  0  0  0  0  0
  194.4310  171.8510  141.7390 O   0  0  0  0  0  0  0  0  0  0  0  0
  193.6830  171.2180  142.5280 C   0  0  0  0  0  0  0  0  0  0  0  0
  192.5830  170.3760  141.9870 C   0  0  0  0  0  2  0  0  0  0  0  0
  191.4470  170.5280  142.7900 O   0  0  0  0  0  0  0  0  0  0  0  0
  190.6750  171.4910  142.1400 C   0  0  0  0  0  2  0  0  0  0  0  0
  189.6740  172.0840  143.1180 C   0  0  2  0  0  3  0  0  0  0  0  0
  188.8190  173.8010  141.5350 C   0  0  0  0  0  2  0  0  0  0  0  0
  188.4480  172.6010  142.3870 C   0  0  2  0  0  3  0  0  0  0  0  0
  189.5040  173.5730  142.8690 C   0  0  1  0  0  3  0  0  0  0  0  0
  189.6980  177.3390  142.3170 N   0  0  0  0  0  2  0  0  0  0  0  0
  188.4520  177.4110  142.9590 N   0  0  0  0  0  2  0  0  0  0  0  0
  186.0560  178.0070  142.8920 C   0  0  0  0  0  0  0  0  0  0  0  0
  184.0540  178.6640  145.8650 C   0  0  0  0  0  3  0  0  0  0  0  0
  184.9100  178.2200  140.7870 N   0  0  0  0  0  0  0  0  0  0  0  0
  184.9110  178.2550  142.1440 C   0  0  0  0  0  0  0  0  0  0  0  0
  185.8220  178.1440  144.2690 C   0  0  0  0  0  0  0  0  0  0  0  0
  186.7470  177.9830  145.3070 C   0  0  0  0  0  3  0  0  0  0  0  0
  186.0580  177.9140  140.1190 C   0  0  0  0  0  3  0  0  0  0  0  0
  187.2520  177.6800  142.2310 C   0  0  0  0  0  0  0  0  0  0  0  0
  187.2420  177.6350  140.8240 C   0  0  0  0  0  3  0  0  0  0  0  0
  183.5990  178.6340  143.1360 S   0  0  0  0  0  0  0  0  0  0  0  0
  186.3170  178.1650  146.6300 C   0  0  0  0  0  3  0  0  0  0  0  0
  184.5010  178.4880  144.5570 C   0  0  0  0  0  0  0  0  0  0  0  0
  184.5790  178.6690  148.1930 F   0  0  0  0  0  0  0  0  0  0  0  0
  184.9770  178.5000  146.9090 C   0  0  0  0  0  0  0  0  0  0  0  0
  1  9  1  1  0  0  0
  1  5  1  0  0  0  0
  2 24  1  6  0  0  0
  2  4  1  0  0  0  0
  2  3  1  0  0  0  0
  3  5  1  0  0  0  0
  4  1  1  0  0  0  0
  6 10  1  0  0  0  0
  7  8  1  1  0  0  0
  7 11  1  0  0  0  0
  9 12  2  0  0  0  0
 10  7  1  0  0  0  0
 12 11  1  0  0  0  0
 13 10  2  0  0  0  0
 13  9  1  0  0  0  0
 14  6  1  0  0  0  0
 15 16  2  0  0  0  0
 16 14  1  0  0  0  0
 17 16  1  0  0  0  0
 17 18  1  0  0  0  0
 19 18  1  0  0  0  0
 20 19  1  6  0  0  0
 22 21  1  6  0  0  0
 22 23  1  0  0  0  0
 22 20  1  0  0  0  0
 23 21  1  6  0  0  0
 23 20  1  0  0  0  0
 24 25  1  0  0  0  0
 26 30  1  0  0  0  0
 27 39  1  0  0  0  0
 28 29  1  0  0  0  0
 29 26  2  0  0  0  0
 29 35  1  0  0  0  0
 30 37  1  0  0  0  0
 30 31  2  0  0  0  0
 31 36  1  0  0  0  0
 32 28  2  0  0  0  0
 32 34  1  0  0  0  0
 33 26  1  0  0  0  0
 33 25  1  0  0  0  0
 34 33  2  0  0  0  0
 35 37  1  0  0  0  0
 36 39  2  0  0  0  0
 37 27  2  0  0  0  0
 39 38  1  0  0  0  0
M  END
>  <MODEL>
5

>  <REMARK>
 VINA RESULT:      -7.8      2.384      5.018
  Name = 
  9 active torsions:
  status: ('A' for Active; 'I' for Inactive)
    1  A    between atoms: O_1  and  C_35
    2  A    between atoms: O_1  and  C_37
    3  A    between atoms: N_2  and  N_16
    4  A    between atoms: C_3  and  C_20
    5  A    between atoms: C_5  and  C_35
    6  A    between atoms: N_6  and  C_7
    7  A    between atoms: N_6  and  N_11
    8  A    between atoms: N_11  and  C_28
    9  A    between atoms: C_23  and  C_37
                            x       y       z     vdW  Elec       q    Type
                         _______ _______ _______ _____ _____    ______ ____

>  <TORSDO>
F 9

$$$$
=
 OpenBabel11042414573D

 39 45  0  0  1  0  0  0  0  0999 V2000
  191.5610  175.4320  145.5130 C   0  0  2  0  0  3  0  0  0  0  0  0
  189.8490  175.4510  147.2110 C   0  0  1  0  0  3  0  0  0  0  0  0
  189.5250  174.3170  146.2530 C   0  0  0  0  0  2  0  0  0  0  0  0
  191.3100  175.7810  146.9650 C   0  0  0  0  0  2  0  0  0  0  0  0
  190.6320  174.2710  145.2080 C   0  0  0  0  0  2  0  0  0  0  0  0
  195.0260  174.0140  142.3450 N   0  0  0  0  0  2  0  0  0  0  0  0
  195.7520  175.1290  144.5200 C   0  0  1  0  0  3  0  0  0  0  0  0
  197.0960  174.4520  144.3230 C   0  0  0  0  0  1  0  0  0  0  0  0
  193.0080  175.1110  145.2650 C   0  0  0  0  0  0  0  0  0  0  0  0
  194.6850  174.5140  143.6400 C   0  0  0  0  0  0  0  0  0  0  0  0
  195.3570  175.0320  145.9960 C   0  0  0  0  0  2  0  0  0  0  0  0
  193.9180  175.4040  146.2020 C   0  0  0  0  0  3  0  0  0  0  0  0
  193.4320  174.5620  144.0020 N   0  0  0  0  0  0  0  0  0  0  0  0
  194.0380  173.5330  141.4750 N   0  0  0  0  0  2  0  0  0  0  0  0
  194.2110  175.3600  140.0360 O   0  0  0  0  0  0  0  0  0  0  0  0
  193.6420  174.2750  140.3230 C   0  0  0  0  0  0  0  0  0  0  0  0
  192.5240  173.7810  139.4760 C   0  0  0  0  0  2  0  0  0  0  0  0
  191.7260  172.9100  140.2280 O   0  0  0  0  0  0  0  0  0  0  0  0
  190.6140  173.6700  140.5940 C   0  0  0  0  0  2  0  0  0  0  0  0
  189.3880  172.7730  140.6630 C   0  0  2  0  0  3  0  0  0  0  0  0
  188.7830  173.0530  138.2670 C   0  0  0  0  0  2  0  0  0  0  0  0
  189.1710  172.0550  139.3430 C   0  0  2  0  0  3  0  0  0  0  0  0
  188.3200  173.2560  139.6970 C   0  0  1  0  0  3  0  0  0  0  0  0
  189.0140  176.5980  146.8830 N   0  0  0  0  0  2  0  0  0  0  0  0
  187.7470  176.1110  146.5230 N   0  0  0  0  0  2  0  0  0  0  0  0
  186.1070  177.3830  145.1840 C   0  0  0  0  0  0  0  0  0  0  0  0
  186.0740  177.4270  141.5410 C   0  0  0  0  0  3  0  0  0  0  0  0
  184.3810  178.6660  146.2640 N   0  0  0  0  0  0  0  0  0  0  0  0
  185.0070  178.2330  145.1400 C   0  0  0  0  0  0  0  0  0  0  0  0
  186.5540  177.0380  143.8990 C   0  0  0  0  0  0  0  0  0  0  0  0
  187.6210  176.1960  143.5700 C   0  0  0  0  0  3  0  0  0  0  0  0
  184.8470  178.2810  147.4870 C   0  0  0  0  0  3  0  0  0  0  0  0
  186.6140  176.9780  146.4300 C   0  0  0  0  0  0  0  0  0  0  0  0
  185.9680  177.4390  147.5920 C   0  0  0  0  0  3  0  0  0  0  0  0
  184.5640  178.5840  143.5500 S   0  0  0  0  0  0  0  0  0  0  0  0
  187.9120  175.9710  142.2150 C   0  0  0  0  0  3  0  0  0  0  0  0
  185.7930  177.6320  142.8900 C   0  0  0  0  0  0  0  0  0  0  0  0
  187.4430  176.3600  139.9030 F   0  0  0  0  0  0  0  0  0  0  0  0
  187.1460  176.5860  141.2050 C   0  0  0  0  0  0  0  0  0  0  0  0
  1  9  1  1  0  0  0
  1  4  1  0  0  0  0
  2 24  1  6  0  0  0
  3  2  1  0  0  0  0
  4  2  1  0  0  0  0
  5  1  1  0  0  0  0
  5  3  1  0  0  0  0
  6 10  1  0  0  0  0
  7  8  1  1  0  0  0
  7 11  1  0  0  0  0
  9 12  2  0  0  0  0
 10 13  2  0  0  0  0
 10  7  1  0  0  0  0
 11 12  1  0  0  0  0
 13  9  1  0  0  0  0
 14  6  1  0  0  0  0
 15 16  2  0  0  0  0
 16 14  1  0  0  0  0
 17 18  1  0  0  0  0
 17 16  1  0  0  0  0
 18 19  1  0  0  0  0
 20 19  1  6  0  0  0
 22 21  1  6  0  0  0
 22 23  1  0  0  0  0
 22 20  1  0  0  0  0
 23 21  1  6  0  0  0
 23 20  1  0  0  0  0
 25 24  1  0  0  0  0
 26 33  1  0  0  0  0
 27 37  1  0  0  0  0
 28 32  2  0  0  0  0
 29 26  2  0  0  0  0
 29 28  1  0  0  0  0
 30 26  1  0  0  0  0
 31 30  1  0  0  0  0
 32 34  1  0  0  0  0
 33 25  1  0  0  0  0
 33 34  2  0  0  0  0
 35 29  1  0  0  0  0
 36 31  2  0  0  0  0
 37 35  1  0  0  0  0
 37 30  2  0  0  0  0
 38 39  1  0  0  0  0
 39 27  2  0  0  0  0
 39 36  1  0  0  0  0
M  END
>  <MODEL>
6

>  <REMARK>
 VINA RESULT:      -7.7      1.739      4.455
  Name = 
  9 active torsions:
  status: ('A' for Active; 'I' for Inactive)
    1  A    between atoms: O_1  and  C_35
    2  A    between atoms: O_1  and  C_37
    3  A    between atoms: N_2  and  N_16
    4  A    between atoms: C_3  and  C_20
    5  A    between atoms: C_5  and  C_35
    6  A    between atoms: N_6  and  C_7
    7  A    between atoms: N_6  and  N_11
    8  A    between atoms: N_11  and  C_28
    9  A    between atoms: C_23  and  C_37
                            x       y       z     vdW  Elec       q    Type
                         _______ _______ _______ _____ _____    ______ ____

>  <TORSDO>
F 9

$$$$
=
 OpenBabel11042414573D

 39 45  0  0  1  0  0  0  0  0999 V2000
  190.9600  174.0300  141.2700 C   0  0  2  0  0  3  0  0  0  0  0  0
  189.3850  174.3480  143.0670 C   0  0  1  0  0  3  0  0  0  0  0  0
  189.5380  172.8510  142.8580 C   0  0  0  0  0  2  0  0  0  0  0  0
  190.5920  174.9750  142.3960 C   0  0  0  0  0  2  0  0  0  0  0  0
  190.5710  172.6460  141.7580 C   0  0  0  0  0  2  0  0  0  0  0  0
  195.6330  173.9470  142.7540 N   0  0  0  0  0  2  0  0  0  0  0  0
  195.1440  173.6690  140.2680 C   0  0  1  0  0  3  0  0  0  0  0  0
  196.5670  174.1350  140.0190 C   0  0  0  0  0  1  0  0  0  0  0  0
  192.4150  174.1410  140.9100 C   0  0  0  0  0  0  0  0  0  0  0  0
  194.6940  173.9840  141.6790 C   0  0  0  0  0  0  0  0  0  0  0  0
  194.2170  174.3300  139.2440 C   0  0  0  0  0  2  0  0  0  0  0  0
  192.7750  174.1560  139.6210 C   0  0  0  0  0  3  0  0  0  0  0  0
  193.4260  174.1560  141.9360 N   0  0  0  0  0  0  0  0  0  0  0  0
  195.2190  174.1370  144.0800 N   0  0  0  0  0  2  0  0  0  0  0  0
  195.6990  176.4190  144.0550 O   0  0  0  0  0  0  0  0  0  0  0  0
  195.2980  175.4170  144.7030 C   0  0  0  0  0  0  0  0  0  0  0  0
  194.9420  175.5620  146.1400 C   0  0  0  0  0  2  0  0  0  0  0  0
  194.3360  176.8080  146.3400 O   0  0  0  0  0  0  0  0  0  0  0  0
  193.0850  176.5150  146.8830 C   0  0  0  0  0  2  0  0  0  0  0  0
  192.1290  176.1180  145.7690 C   0  0  2  0  0  3  0  0  0  0  0  0
  190.3440  175.3050  147.2980 C   0  0  0  0  0  2  0  0  0  0  0  0
  190.6870  176.3020  146.2060 C   0  0  2  0  0  3  0  0  0  0  0  0
  191.2970  174.9160  146.1830 C   0  0  1  0  0  3  0  0  0  0  0  0
  188.1610  174.7910  142.4140 N   0  0  0  0  0  2  0  0  0  0  0  0
  188.1480  176.1940  142.4440 N   0  0  0  0  0  2  0  0  0  0  0  0
  186.1050  177.4740  142.9790 C   0  0  0  0  0  0  0  0  0  0  0  0
  184.9580  178.1210  146.3770 C   0  0  0  0  0  3  0  0  0  0  0  0
  184.7550  178.4100  141.2210 N   0  0  0  0  0  0  0  0  0  0  0  0
  184.9950  178.1860  142.5370 C   0  0  0  0  0  0  0  0  0  0  0  0
  186.1630  177.4120  144.3800 C   0  0  0  0  0  0  0  0  0  0  0  0
  187.1450  176.7920  145.1610 C   0  0  0  0  0  3  0  0  0  0  0  0
  185.6100  177.9090  140.2840 C   0  0  0  0  0  3  0  0  0  0  0  0
  186.9980  176.9390  142.0370 C   0  0  0  0  0  0  0  0  0  0  0  0
  186.7370  177.1650  140.6720 C   0  0  0  0  0  3  0  0  0  0  0  0
  184.0660  178.7420  143.8320 S   0  0  0  0  0  0  0  0  0  0  0  0
  187.0270  176.8400  146.5590 C   0  0  0  0  0  3  0  0  0  0  0  0
  185.0960  178.0710  144.9910 C   0  0  0  0  0  0  0  0  0  0  0  0
  185.8390  177.5310  148.5150 F   0  0  0  0  0  0  0  0  0  0  0  0
  185.9380  177.4970  147.1640 C   0  0  0  0  0  0  0  0  0  0  0  0
  1  9  1  1  0  0  0
  1  5  1  0  0  0  0
  1  4  1  0  0  0  0
  2 24  1  6  0  0  0
  3  2  1  0  0  0  0
  4  2  1  0  0  0  0
  5  3  1  0  0  0  0
  6 14  1  0  0  0  0
  7  8  1  1  0  0  0
  7 10  1  0  0  0  0
  9 13  1  0  0  0  0
 10 13  2  0  0  0  0
 10  6  1  0  0  0  0
 11 12  1  0  0  0  0
 11  7  1  0  0  0  0
 12  9  2  0  0  0  0
 14 16  1  0  0  0  0
 15 16  2  0  0  0  0
 16 17  1  0  0  0  0
 17 18  1  0  0  0  0
 18 19  1  0  0  0  0
 20 23  1  0  0  0  0
 20 22  1  0  0  0  0
 20 19  1  1  0  0  0
 22 21  1  1  0  0  0
 23 22  1  0  0  0  0
 23 21  1  1  0  0  0
 24 25  1  0  0  0  0
 26 30  1  0  0  0  0
 27 39  1  0  0  0  0
 28 29  2  0  0  0  0
 29 26  1  0  0  0  0
 29 35  1  0  0  0  0
 30 37  1  0  0  0  0
 30 31  2  0  0  0  0
 31 36  1  0  0  0  0
 32 34  2  0  0  0  0
 32 28  1  0  0  0  0
 33 25  1  0  0  0  0
 33 26  2  0  0  0  0
 34 33  1  0  0  0  0
 35 37  1  0  0  0  0
 36 39  2  0  0  0  0
 37 27  2  0  0  0  0
 39 38  1  0  0  0  0
M  END
>  <MODEL>
7

>  <REMARK>
 VINA RESULT:      -7.6      2.624      4.405
  Name = 
  9 active torsions:
  status: ('A' for Active; 'I' for Inactive)
    1  A    between atoms: O_1  and  C_35
    2  A    between atoms: O_1  and  C_37
    3  A    between atoms: N_2  and  N_16
    4  A    between atoms: C_3  and  C_20
    5  A    between atoms: C_5  and  C_35
    6  A    between atoms: N_6  and  C_7
    7  A    between atoms: N_6  and  N_11
    8  A    between atoms: N_11  and  C_28
    9  A    between atoms: C_23  and  C_37
                            x       y       z     vdW  Elec       q    Type
                         _______ _______ _______ _____ _____    ______ ____

>  <TORSDO>
F 9

$$$$
=
 OpenBabel11042414573D

 39 45  0  0  1  0  0  0  0  0999 V2000
  190.5960  172.8560  141.6720 C   0  0  2  0  0  3  0  0  0  0  0  0
  188.4290  173.8930  141.8780 C   0  0  1  0  0  3  0  0  0  0  0  0
  188.3660  172.9410  140.6950 C   0  0  0  0  0  2  0  0  0  0  0  0
  189.6400  173.4580  142.6820 C   0  0  0  0  0  2  0  0  0  0  0  0
  189.7180  172.2470  140.5940 C   0  0  0  0  0  2  0  0  0  0  0  0
  193.7280  171.8160  145.3000 N   0  0  0  0  0  2  0  0  0  0  0  0
  192.7430  169.8870  143.9560 C   0  0  1  0  0  3  0  0  0  0  0  0
  193.9370  169.0670  144.4100 C   0  0  0  0  0  1  0  0  0  0  0  0
  191.5190  171.8590  142.3130 C   0  0  0  0  0  0  0  0  0  0  0  0
  192.9670  171.3670  144.1770 C   0  0  0  0  0  0  0  0  0  0  0  0
  192.4720  169.5950  142.4770 C   0  0  0  0  0  2  0  0  0  0  0  0
  191.5120  170.5880  141.8910 C   0  0  0  0  0  3  0  0  0  0  0  0
  192.3560  172.2390  143.4230 N   0  0  0  0  0  0  0  0  0  0  0  0
  193.8640  173.1820  145.5790 N   0  0  0  0  0  2  0  0  0  0  0  0
  195.8800  173.3660  144.4210 O   0  0  0  0  0  0  0  0  0  0  0  0
  194.9970  173.9210  145.1260 C   0  0  0  0  0  0  0  0  0  0  0  0
  195.1570  175.3450  145.5230 C   0  0  0  0  0  2  0  0  0  0  0  0
  194.3510  175.6050  146.6380 O   0  0  0  0  0  0  0  0  0  0  0  0
  193.3830  176.4990  146.1800 C   0  0  0  0  0  2  0  0  0  0  0  0
  192.2440  176.5710  147.1840 C   0  0  2  0  0  3  0  0  0  0  0  0
  190.7340  175.0680  145.9010 C   0  0  0  0  0  2  0  0  0  0  0  0
  191.4700  175.2660  147.2140 C   0  0  2  0  0  3  0  0  0  0  0  0
  190.9030  176.4610  146.4770 C   0  0  1  0  0  3  0  0  0  0  0  0
  188.6180  175.2490  141.3810 N   0  0  0  0  0  2  0  0  0  0  0  0
  188.0270  176.1260  142.3040 N   0  0  0  0  0  2  0  0  0  0  0  0
  186.0340  177.4330  142.9520 C   0  0  0  0  0  0  0  0  0  0  0  0
  185.0190  177.9890  146.4070 C   0  0  0  0  0  3  0  0  0  0  0  0
  184.6490  178.4590  141.2730 N   0  0  0  0  0  0  0  0  0  0  0  0
  184.9280  178.1840  142.5730 C   0  0  0  0  0  0  0  0  0  0  0  0
  186.1390  177.3210  144.3470 C   0  0  0  0  0  0  0  0  0  0  0  0
  187.1310  176.6520  145.0720 C   0  0  0  0  0  3  0  0  0  0  0  0
  185.4600  177.9700  140.2920 C   0  0  0  0  0  3  0  0  0  0  0  0
  186.8830  176.9100  141.9620 C   0  0  0  0  0  0  0  0  0  0  0  0
  186.5810  177.1880  140.6150 C   0  0  0  0  0  3  0  0  0  0  0  0
  184.0570  178.7170  143.9170 S   0  0  0  0  0  0  0  0  0  0  0  0
  187.0610  176.6560  146.4740 C   0  0  0  0  0  3  0  0  0  0  0  0
  185.1080  177.9830  145.0160 C   0  0  0  0  0  0  0  0  0  0  0  0
  185.9570  177.3070  148.4920 F   0  0  0  0  0  0  0  0  0  0  0  0
  186.0090  177.3160  147.1390 C   0  0  0  0  0  0  0  0  0  0  0  0
  1  9  1  1  0  0  0
  1  4  1  0  0  0  0
  2 24  1  6  0  0  0
  2  4  1  0  0  0  0
  3  2  1  0  0  0  0
  5  3  1  0  0  0  0
  5  1  1  0  0  0  0
  6 14  1  0  0  0  0
  7 10  1  0  0  0  0
  7  8  1  6  0  0  0
  9 13  1  0  0  0  0
 10  6  1  0  0  0  0
 11  7  1  0  0  0  0
 12  9  2  0  0  0  0
 12 11  1  0  0  0  0
 13 10  2  0  0  0  0
 15 16  2  0  0  0  0
 16 17  1  0  0  0  0
 16 14  1  0  0  0  0
 17 18  1  0  0  0  0
 19 18  1  0  0  0  0
 20 19  1  6  0  0  0
 20 22  1  0  0  0  0
 22 21  1  6  0  0  0
 23 21  1  6  0  0  0
 23 20  1  0  0  0  0
 23 22  1  0  0  0  0
 24 25  1  0  0  0  0
 26 30  1  0  0  0  0
 27 39  1  0  0  0  0
 28 29  2  0  0  0  0
 29 26  1  0  0  0  0
 29 35  1  0  0  0  0
 30 37  1  0  0  0  0
 30 31  2  0  0  0  0
 31 36  1  0  0  0  0
 32 34  2  0  0  0  0
 32 28  1  0  0  0  0
 33 25  1  0  0  0  0
 33 26  2  0  0  0  0
 34 33  1  0  0  0  0
 35 37  1  0  0  0  0
 36 39  2  0  0  0  0
 37 27  2  0  0  0  0
 39 38  1  0  0  0  0
M  END
>  <MODEL>
8

>  <REMARK>
 VINA RESULT:      -7.5      2.451      4.394
  Name = 
  9 active torsions:
  status: ('A' for Active; 'I' for Inactive)
    1  A    between atoms: O_1  and  C_35
    2  A    between atoms: O_1  and  C_37
    3  A    between atoms: N_2  and  N_16
    4  A    between atoms: C_3  and  C_20
    5  A    between atoms: C_5  and  C_35
    6  A    between atoms: N_6  and  C_7
    7  A    between atoms: N_6  and  N_11
    8  A    between atoms: N_11  and  C_28
    9  A    between atoms: C_23  and  C_37
                            x       y       z     vdW  Elec       q    Type
                         _______ _______ _______ _____ _____    ______ ____

>  <TORSDO>
F 9

$$$$
=
 OpenBabel11042414573D

 39 45  0  0  1  0  0  0  0  0999 V2000
  195.3310  174.1090  145.3140 C   0  0  2  0  0  3  0  0  0  0  0  0
  194.5300  175.8650  143.8700 C   0  0  1  0  0  3  0  0  0  0  0  0
  196.0450  175.9670  143.9090 C   0  0  0  0  0  2  0  0  0  0  0  0
  194.2060  174.4680  144.3650 C   0  0  0  0  0  2  0  0  0  0  0  0
  196.5570  174.8280  144.7800 C   0  0  0  0  0  2  0  0  0  0  0  0
  193.8050  169.6310  144.0230 N   0  0  0  0  0  2  0  0  0  0  0  0
  196.1530  169.8830  144.9830 C   0  0  1  0  0  3  0  0  0  0  0  0
  196.0750  168.4110  145.3460 C   0  0  0  0  0  1  0  0  0  0  0  0
  195.5160  172.6210  145.4120 C   0  0  0  0  0  0  0  0  0  0  0  0
  194.7870  170.4500  144.6600 C   0  0  0  0  0  0  0  0  0  0  0  0
  196.7960  170.6490  146.1430 C   0  0  0  0  0  2  0  0  0  0  0  0
  196.6260  172.1310  145.9800 C   0  0  0  0  0  3  0  0  0  0  0  0
  194.5500  171.7210  144.8370 N   0  0  0  0  0  0  0  0  0  0  0  0
  192.5710  170.1630  143.6250 N   0  0  0  0  0  2  0  0  0  0  0  0
  192.9990  169.8380  141.3560 O   0  0  0  0  0  0  0  0  0  0  0  0
  192.2210  170.2680  142.2460 C   0  0  0  0  0  0  0  0  0  0  0  0
  190.9460  170.9260  141.8570 C   0  0  0  0  0  2  0  0  0  0  0  0
  190.2670  171.3360  143.0110 O   0  0  0  0  0  0  0  0  0  0  0  0
  189.1720  172.0630  142.5440 C   0  0  0  0  0  2  0  0  0  0  0  0
  189.3050  173.5140  142.9800 C   0  0  2  0  0  3  0  0  0  0  0  0
  188.5080  174.4570  140.8210 C   0  0  0  0  0  2  0  0  0  0  0  0
  188.2460  174.3740  142.3130 C   0  0  2  0  0  3  0  0  0  0  0  0
  189.6690  174.3940  141.7960 C   0  0  1  0  0  3  0  0  0  0  0  0
  193.9680  176.8600  144.7730 N   0  0  0  0  0  2  0  0  0  0  0  0
  192.5750  176.8570  144.5940 N   0  0  0  0  0  2  0  0  0  0  0  0
  190.3000  176.6090  145.5220 C   0  0  0  0  0  0  0  0  0  0  0  0
  187.2770  177.6080  143.7500 C   0  0  0  0  0  3  0  0  0  0  0  0
  189.9670  175.6330  147.6960 N   0  0  0  0  0  0  0  0  0  0  0  0
  189.4770  176.2050  146.5670 C   0  0  0  0  0  0  0  0  0  0  0  0
  189.5640  177.1310  144.4470 C   0  0  0  0  0  0  0  0  0  0  0  0
  190.0630  177.6150  143.2330 C   0  0  0  0  0  3  0  0  0  0  0  0
  191.3120  175.4590  147.8340 C   0  0  0  0  0  3  0  0  0  0  0  0
  191.6910  176.4500  145.6400 C   0  0  0  0  0  0  0  0  0  0  0  0
  192.1940  175.8660  146.8180 C   0  0  0  0  0  3  0  0  0  0  0  0
  187.8510  176.4810  146.2100 S   0  0  0  0  0  0  0  0  0  0  0  0
  189.1570  178.0980  142.2740 C   0  0  0  0  0  3  0  0  0  0  0  0
  188.1880  177.1250  144.6860 C   0  0  0  0  0  0  0  0  0  0  0  0
  186.9140  178.5710  141.5970 F   0  0  0  0  0  0  0  0  0  0  0  0
  187.7720  178.0990  142.5320 C   0  0  0  0  0  0  0  0  0  0  0  0
  1  9  1  6  0  0  0
  2  3  1  0  0  0  0
  2  4  1  0  0  0  0
  2 24  1  1  0  0  0
  3  5  1  0  0  0  0
  4  1  1  0  0  0  0
  5  1  1  0  0  0  0
  6 10  1  0  0  0  0
  7  8  1  1  0  0  0
  7 11  1  0  0  0  0
  9 12  2  0  0  0  0
 10 13  2  0  0  0  0
 10  7  1  0  0  0  0
 12 11  1  0  0  0  0
 13  9  1  0  0  0  0
 14  6  1  0  0  0  0
 15 16  2  0  0  0  0
 16 14  1  0  0  0  0
 17 16  1  0  0  0  0
 17 18  1  0  0  0  0
 19 18  1  0  0  0  0
 20 19  1  6  0  0  0
 22 21  1  6  0  0  0
 22 20  1  0  0  0  0
 23 21  1  6  0  0  0
 23 22  1  0  0  0  0
 23 20  1  0  0  0  0
 25 24  1  0  0  0  0
 25 33  1  0  0  0  0
 26 33  2  0  0  0  0
 26 29  1  0  0  0  0
 27 37  1  0  0  0  0
 28 32  1  0  0  0  0
 29 28  2  0  0  0  0
 30 37  2  0  0  0  0
 30 26  1  0  0  0  0
 31 30  1  0  0  0  0
 33 34  1  0  0  0  0
 34 32  2  0  0  0  0
 35 29  1  0  0  0  0
 36 39  1  0  0  0  0
 36 31  2  0  0  0  0
 37 35  1  0  0  0  0
 38 39  1  0  0  0  0
 39 27  2  0  0  0  0
M  END
>  <MODEL>
9

>  <REMARK>
 VINA RESULT:      -7.3      2.693      5.686
  Name = 
  9 active torsions:
  status: ('A' for Active; 'I' for Inactive)
    1  A    between atoms: O_1  and  C_35
    2  A    between atoms: O_1  and  C_37
    3  A    between atoms: N_2  and  N_16
    4  A    between atoms: C_3  and  C_20
    5  A    between atoms: C_5  and  C_35
    6  A    between atoms: N_6  and  C_7
    7  A    between atoms: N_6  and  N_11
    8  A    between atoms: N_11  and  C_28
    9  A    between atoms: C_23  and  C_37
                            x       y       z     vdW  Elec       q    Type
                         _______ _______ _______ _____ _____    ______ ____

>  <TORSDO>
F 9

$$$$
