=
 OpenBabel11042414203D

 27 32  0  0  1  0  0  0  0  0999 V2000
  191.6590  174.4090  143.6210 O   0  0  0  0  0  0  0  0  0  0  0  0
  190.0730  173.0100  142.2940 C   0  0  0  0  0  2  0  0  0  0  0  0
  190.9260  173.8760  141.3810 C   0  0  0  0  0  2  0  0  0  0  0  0
  190.5500  174.3730  142.7610 C   0  0  0  0  0  0  0  0  0  0  0  0
  185.1900  177.3660  142.7830 C   0  0  0  0  0  3  0  0  0  0  0  0
  189.6200  175.5490  142.7310 C   0  0  0  0  0  0  0  0  0  0  0  0
  187.9370  177.7570  142.7790 C   0  0  0  0  0  0  0  0  0  0  0  0
  185.7020  178.6670  142.8010 C   0  0  0  0  0  3  0  0  0  0  0  0
  187.0840  178.8620  142.7990 C   0  0  0  0  0  3  0  0  0  0  0  0
  186.0330  176.2970  142.7630 N   0  0  0  0  0  0  0  0  0  0  0  0
  189.2860  177.9220  142.7810 N   0  0  0  0  0  0  0  0  0  0  0  0
  188.2340  175.3570  142.7410 C   0  0  0  0  0  3  0  0  0  0  0  0
  187.3830  176.4620  142.7590 C   0  0  0  0  0  0  0  0  0  0  0  0
  190.1300  176.8550  142.7620 C   0  0  0  0  0  3  0  0  0  0  0  0
  191.7560  172.5220  144.9130 O   0  0  0  0  0  1  0  0  0  0  0  0
  191.2570  173.8220  144.8310 C   0  0  1  0  0  3  0  0  0  0  0  0
  191.7270  174.6530  146.0250 C   0  0  0  0  0  2  0  0  0  0  0  0
  189.2140  174.9140  146.1380 C   0  0  0  0  0  2  0  0  0  0  0  0
  187.0660  176.5510  146.2720 C   0  0  2  0  0  3  0  0  0  0  0  0
  190.7920  176.8300  146.8770 C   0  0  0  0  0  2  0  0  0  0  0  0
  188.1930  175.7620  146.8620 C   0  0  2  0  0  3  0  0  0  0  0  0
  190.5720  175.2900  146.7830 C   0  0  2  0  0  3  0  0  0  0  0  0
  188.4790  177.0960  146.1630 C   0  0  2  0  0  3  0  0  0  0  0  0
  189.4850  177.6030  147.1770 C   0  0  0  0  0  2  0  0  0  0  0  0
  185.9500  178.6660  146.8880 C   0  0  0  0  0  2  0  0  0  0  0  0
  186.3140  177.2770  147.3710 C   0  0  0  0  0  3  0  0  0  0  0  0
  184.9050  177.5710  146.8970 C   0  0  0  0  0  2  0  0  0  0  0  0
  1 16  1  0  0  0  0
  2  4  1  0  0  0  0
  3  2  1  0  0  0  0
  3  4  1  0  0  0  0
  4  1  1  0  0  0  0
  5  8  1  0  0  0  0
  6 12  2  0  0  0  0
  6  4  1  0  0  0  0
  6 14  1  0  0  0  0
  7 11  1  0  0  0  0
  7  9  1  0  0  0  0
  9  8  2  0  0  0  0
 10  5  2  0  0  0  0
 12 13  1  0  0  0  0
 13 10  1  0  0  0  0
 13  7  2  0  0  0  0
 14 11  2  0  0  0  0
 16 15  1  1  0  0  0
 16 17  1  0  0  0  0
 18 22  1  0  0  0  0
 19 21  1  0  0  0  0
 19 26  1  1  0  0  0
 20 24  1  0  0  0  0
 21 18  1  6  0  0  0
 22 17  1  6  0  0  0
 22 20  1  0  0  0  0
 23 19  1  0  0  0  0
 23 21  1  0  0  0  0
 23 24  1  1  0  0  0
 25 27  1  0  0  0  0
 25 26  1  0  0  0  0
 27 26  1  0  0  0  0
M  END
>  <MODEL>
1

>  <REMARK>
 VINA RESULT:      -6.9      0.000      0.000
  Name = 
  6 active torsions:
  status: ('A' for Active; 'I' for Inactive)
    1  A    between atoms: C_2  and  C_14
    2  A    between atoms: C_2  and  C_23
    3  A    between atoms: C_3  and  C_24
    4  A    between atoms: C_8  and  C_9
    5  A    between atoms: O_16  and  C_23
    6  A    between atoms: O_16  and  C_24
                            x       y       z     vdW  Elec       q    Type
                         _______ _______ _______ _____ _____    ______ ____

>  <TORSDO>
F 6

$$$$
=
 OpenBabel11042414203D

 27 32  0  0  1  0  0  0  0  0999 V2000
  193.2690  175.3770  144.6280 O   0  0  0  0  0  0  0  0  0  0  0  0
  193.3240  174.5020  142.2890 C   0  0  0  0  0  2  0  0  0  0  0  0
  193.8330  175.9340  142.3450 C   0  0  0  0  0  2  0  0  0  0  0  0
  192.7700  175.4710  143.3190 C   0  0  0  0  0  0  0  0  0  0  0  0
  186.7050  175.8460  142.4440 C   0  0  0  0  0  3  0  0  0  0  0  0
  191.4400  176.1280  143.0970 C   0  0  0  0  0  0  0  0  0  0  0  0
  188.9850  177.3890  142.7920 C   0  0  0  0  0  0  0  0  0  0  0  0
  186.5990  177.2400  142.4590 C   0  0  0  0  0  3  0  0  0  0  0  0
  187.7480  178.0150  142.6340 C   0  0  0  0  0  3  0  0  0  0  0  0
  187.9180  175.2480  142.5990 N   0  0  0  0  0  0  0  0  0  0  0  0
  190.1160  178.1210  142.9690 N   0  0  0  0  0  0  0  0  0  0  0  0
  190.2860  175.3540  142.9290 C   0  0  0  0  0  3  0  0  0  0  0  0
  189.0510  175.9810  142.7700 C   0  0  0  0  0  0  0  0  0  0  0  0
  191.3290  177.5250  143.1240 C   0  0  0  0  0  3  0  0  0  0  0  0
  192.7110  173.2190  145.1510 O   0  0  0  0  0  1  0  0  0  0  0  0
  192.3810  174.5610  145.3460 C   0  0  1  0  0  3  0  0  0  0  0  0
  192.4020  174.9070  146.8350 C   0  0  0  0  0  2  0  0  0  0  0  0
  189.9030  174.8940  146.4390 C   0  0  0  0  0  2  0  0  0  0  0  0
  187.6100  176.2880  146.1100 C   0  0  2  0  0  3  0  0  0  0  0  0
  191.0870  176.9680  147.4400 C   0  0  0  0  0  2  0  0  0  0  0  0
  188.6740  175.6240  146.9280 C   0  0  2  0  0  3  0  0  0  0  0  0
  191.0560  175.4130  147.3340 C   0  0  2  0  0  3  0  0  0  0  0  0
  188.9490  176.9830  146.2740 C   0  0  2  0  0  3  0  0  0  0  0  0
  189.6720  177.5930  147.4590 C   0  0  0  0  0  2  0  0  0  0  0  0
  186.0160  178.1590  146.3480 C   0  0  0  0  0  2  0  0  0  0  0  0
  186.5800  176.9250  147.0230 C   0  0  0  0  0  3  0  0  0  0  0  0
  185.2220  176.8710  146.3520 C   0  0  0  0  0  2  0  0  0  0  0  0
  1 16  1  0  0  0  0
  2  3  1  0  0  0  0
  2  4  1  0  0  0  0
  3  4  1  0  0  0  0
  4  1  1  0  0  0  0
  5  8  2  0  0  0  0
  5 10  1  0  0  0  0
  6 14  1  0  0  0  0
  6  4  1  0  0  0  0
  7 11  1  0  0  0  0
  8  9  1  0  0  0  0
  9  7  2  0  0  0  0
 10 13  2  0  0  0  0
 11 14  2  0  0  0  0
 12  6  2  0  0  0  0
 13  7  1  0  0  0  0
 13 12  1  0  0  0  0
 16 15  1  1  0  0  0
 16 17  1  0  0  0  0
 18 22  1  0  0  0  0
 19 23  1  0  0  0  0
 19 21  1  0  0  0  0
 19 26  1  1  0  0  0
 20 24  1  0  0  0  0
 21 18  1  6  0  0  0
 22 17  1  6  0  0  0
 22 20  1  0  0  0  0
 23 21  1  0  0  0  0
 23 24  1  1  0  0  0
 25 27  1  0  0  0  0
 25 26  1  0  0  0  0
 27 26  1  0  0  0  0
M  END
>  <MODEL>
2

>  <REMARK>
 VINA RESULT:      -6.9      1.409      1.667
  Name = 
  6 active torsions:
  status: ('A' for Active; 'I' for Inactive)
    1  A    between atoms: C_2  and  C_14
    2  A    between atoms: C_2  and  C_23
    3  A    between atoms: C_3  and  C_24
    4  A    between atoms: C_8  and  C_9
    5  A    between atoms: O_16  and  C_23
    6  A    between atoms: O_16  and  C_24
                            x       y       z     vdW  Elec       q    Type
                         _______ _______ _______ _____ _____    ______ ____

>  <TORSDO>
F 6

$$$$
=
 OpenBabel11042414203D

 27 32  0  0  1  0  0  0  0  0999 V2000
  186.3190  178.7960  145.5370 O   0  0  0  0  0  0  0  0  0  0  0  0
  185.2490  176.7920  146.5730 C   0  0  0  0  0  2  0  0  0  0  0  0
  185.8700  177.6860  147.6350 C   0  0  0  0  0  2  0  0  0  0  0  0
  186.4920  177.6040  146.2580 C   0  0  0  0  0  0  0  0  0  0  0  0
  192.4360  176.8600  144.9130 C   0  0  0  0  0  3  0  0  0  0  0  0
  187.8410  176.9500  146.2580 C   0  0  0  0  0  0  0  0  0  0  0  0
  190.3480  175.7600  146.3720 C   0  0  0  0  0  0  0  0  0  0  0  0
  192.6620  175.7180  145.6880 C   0  0  0  0  0  3  0  0  0  0  0  0
  191.6100  175.1660  146.4210 C   0  0  0  0  0  3  0  0  0  0  0  0
  191.2000  177.4300  144.8750 N   0  0  0  0  0  0  0  0  0  0  0  0
  189.3100  175.2430  147.0810 N   0  0  0  0  0  0  0  0  0  0  0  0
  188.9000  177.5050  145.5310 C   0  0  0  0  0  3  0  0  0  0  0  0
  190.1600  176.9090  145.5790 C   0  0  0  0  0  0  0  0  0  0  0  0
  188.0750  175.8110  147.0440 C   0  0  0  0  0  3  0  0  0  0  0  0
  184.1750  179.0600  144.7790 O   0  0  0  0  0  1  0  0  0  0  0  0
  185.4260  178.5150  144.4900 C   0  0  1  0  0  3  0  0  0  0  0  0
  185.9530  179.0560  143.1620 C   0  0  0  0  0  2  0  0  0  0  0  0
  186.2490  176.5630  142.8500 C   0  0  0  0  0  2  0  0  0  0  0  0
  187.9140  174.4590  142.5110 C   0  0  2  0  0  3  0  0  0  0  0  0
  188.1200  178.2250  142.1850 C   0  0  0  0  0  2  0  0  0  0  0  0
  187.0920  175.6150  142.0290 C   0  0  2  0  0  3  0  0  0  0  0  0
  186.5870  177.9720  142.3010 C   0  0  2  0  0  3  0  0  0  0  0  0
  188.4400  175.8690  142.7130 C   0  0  2  0  0  3  0  0  0  0  0  0
  188.9040  176.9570  141.7660 C   0  0  0  0  0  2  0  0  0  0  0  0
  190.0340  173.4490  141.7500 C   0  0  0  0  0  2  0  0  0  0  0  0
  188.6210  173.8060  141.3390 C   0  0  0  0  0  3  0  0  0  0  0  0
  188.9680  172.3770  141.7040 C   0  0  0  0  0  2  0  0  0  0  0  0
  1  4  1  0  0  0  0
  2  3  1  0  0  0  0
  4  2  1  0  0  0  0
  4  3  1  0  0  0  0
  5  8  1  0  0  0  0
  6  4  1  0  0  0  0
  6 14  1  0  0  0  0
  7  9  1  0  0  0  0
  7 11  1  0  0  0  0
  8  9  2  0  0  0  0
 10  5  2  0  0  0  0
 10 13  1  0  0  0  0
 12 13  1  0  0  0  0
 12  6  2  0  0  0  0
 13  7  2  0  0  0  0
 14 11  2  0  0  0  0
 16 15  1  1  0  0  0
 16  1  1  0  0  0  0
 17 16  1  0  0  0  0
 19 26  1  6  0  0  0
 19 23  1  0  0  0  0
 20 22  1  0  0  0  0
 21 19  1  0  0  0  0
 21 23  1  0  0  0  0
 21 18  1  1  0  0  0
 22 18  1  0  0  0  0
 22 17  1  1  0  0  0
 23 24  1  6  0  0  0
 24 20  1  0  0  0  0
 26 27  1  0  0  0  0
 26 25  1  0  0  0  0
 27 25  1  0  0  0  0
M  END
>  <MODEL>
3

>  <REMARK>
 VINA RESULT:      -6.6      2.705      6.504
  Name = 
  6 active torsions:
  status: ('A' for Active; 'I' for Inactive)
    1  A    between atoms: C_2  and  C_14
    2  A    between atoms: C_2  and  C_23
    3  A    between atoms: C_3  and  C_24
    4  A    between atoms: C_8  and  C_9
    5  A    between atoms: O_16  and  C_23
    6  A    between atoms: O_16  and  C_24
                            x       y       z     vdW  Elec       q    Type
                         _______ _______ _______ _____ _____    ______ ____

>  <TORSDO>
F 6

$$$$
=
 OpenBabel11042414203D

 27 32  0  0  1  0  0  0  0  0999 V2000
  186.4770  176.8510  143.4370 O   0  0  0  0  0  0  0  0  0  0  0  0
  188.1470  178.2010  142.1610 C   0  0  0  0  0  2  0  0  0  0  0  0
  187.0580  177.6730  141.2400 C   0  0  0  0  0  2  0  0  0  0  0  0
  187.4770  176.8690  142.4520 C   0  0  0  0  0  0  0  0  0  0  0  0
  190.4700  171.5920  143.3920 C   0  0  0  0  0  3  0  0  0  0  0  0
  188.1670  175.5860  142.0980 C   0  0  0  0  0  0  0  0  0  0  0  0
  189.3440  173.1670  141.4050 C   0  0  0  0  0  0  0  0  0  0  0  0
  190.5070  171.1580  142.0630 C   0  0  0  0  0  3  0  0  0  0  0  0
  189.9400  171.9520  141.0650 C   0  0  0  0  0  3  0  0  0  0  0  0
  189.8850  172.7790  143.7110 N   0  0  0  0  0  0  0  0  0  0  0  0
  188.7810  173.9550  140.4520 N   0  0  0  0  0  0  0  0  0  0  0  0
  188.7300  174.7840  143.0970 C   0  0  0  0  0  3  0  0  0  0  0  0
  189.3270  173.5710  142.7550 C   0  0  0  0  0  0  0  0  0  0  0  0
  188.1950  175.1420  140.7680 C   0  0  0  0  0  3  0  0  0  0  0  0
  186.1890  178.7410  144.6940 O   0  0  0  0  0  1  0  0  0  0  0  0
  186.9620  177.5920  144.5260 C   0  0  1  0  0  3  0  0  0  0  0  0
  186.9590  176.7520  145.8030 C   0  0  0  0  0  2  0  0  0  0  0  0
  189.4090  177.3330  145.5640 C   0  0  0  0  0  2  0  0  0  0  0  0
  191.9920  176.5410  145.6750 C   0  0  2  0  0  3  0  0  0  0  0  0
  188.6530  175.2530  146.9080 C   0  0  0  0  0  2  0  0  0  0  0  0
  190.7150  177.0510  146.2690 C   0  0  2  0  0  3  0  0  0  0  0  0
  188.3220  176.7130  146.4780 C   0  0  2  0  0  3  0  0  0  0  0  0
  190.8490  175.5680  145.9020 C   0  0  2  0  0  3  0  0  0  0  0  0
  190.1670  175.0280  147.1430 C   0  0  0  0  0  2  0  0  0  0  0  0
  194.1080  175.4200  146.2780 C   0  0  0  0  0  2  0  0  0  0  0  0
  193.0370  176.3750  146.7620 C   0  0  0  0  0  3  0  0  0  0  0  0
  194.3630  176.9120  146.2610 C   0  0  0  0  0  2  0  0  0  0  0  0
  1 16  1  0  0  0  0
  2  4  1  0  0  0  0
  3  2  1  0  0  0  0
  3  4  1  0  0  0  0
  4  1  1  0  0  0  0
  5 10  1  0  0  0  0
  6  4  1  0  0  0  0
  6 12  2  0  0  0  0
  7 13  1  0  0  0  0
  8  5  2  0  0  0  0
  9  7  2  0  0  0  0
  9  8  1  0  0  0  0
 11 14  2  0  0  0  0
 11  7  1  0  0  0  0
 13 12  1  0  0  0  0
 13 10  2  0  0  0  0
 14  6  1  0  0  0  0
 16 15  1  1  0  0  0
 16 17  1  0  0  0  0
 18 22  1  0  0  0  0
 19 23  1  0  0  0  0
 19 21  1  0  0  0  0
 19 26  1  1  0  0  0
 20 24  1  0  0  0  0
 21 18  1  6  0  0  0
 22 17  1  6  0  0  0
 22 20  1  0  0  0  0
 23 21  1  0  0  0  0
 23 24  1  1  0  0  0
 25 26  1  0  0  0  0
 27 25  1  0  0  0  0
 27 26  1  0  0  0  0
M  END
>  <MODEL>
4

>  <REMARK>
 VINA RESULT:      -6.6      2.615      5.518
  Name = 
  6 active torsions:
  status: ('A' for Active; 'I' for Inactive)
    1  A    between atoms: C_2  and  C_14
    2  A    between atoms: C_2  and  C_23
    3  A    between atoms: C_3  and  C_24
    4  A    between atoms: C_8  and  C_9
    5  A    between atoms: O_16  and  C_23
    6  A    between atoms: O_16  and  C_24
                            x       y       z     vdW  Elec       q    Type
                         _______ _______ _______ _____ _____    ______ ____

>  <TORSDO>
F 6

$$$$
=
 OpenBabel11042414203D

 27 32  0  0  1  0  0  0  0  0999 V2000
  192.9990  176.1950  144.3170 O   0  0  0  0  0  0  0  0  0  0  0  0
  192.8920  176.4080  146.8030 C   0  0  0  0  0  2  0  0  0  0  0  0
  194.1670  177.0330  146.2590 C   0  0  0  0  0  2  0  0  0  0  0  0
  193.5520  175.8410  145.5580 C   0  0  0  0  0  0  0  0  0  0  0  0
  194.8530  169.8430  145.4260 C   0  0  0  0  0  3  0  0  0  0  0  0
  194.3940  174.6040  145.6480 C   0  0  0  0  0  0  0  0  0  0  0  0
  196.0110  172.3470  145.7210 C   0  0  0  0  0  0  0  0  0  0  0  0
  196.2360  169.9470  145.6120 C   0  0  0  0  0  3  0  0  0  0  0  0
  196.8160  171.2080  145.7600 C   0  0  0  0  0  3  0  0  0  0  0  0
  194.0790  170.9620  145.3900 N   0  0  0  0  0  0  0  0  0  0  0  0
  196.5540  173.5850  145.8580 N   0  0  0  0  0  0  0  0  0  0  0  0
  193.8170  173.3390  145.4920 C   0  0  0  0  0  3  0  0  0  0  0  0
  194.6220  172.2010  145.5330 C   0  0  0  0  0  0  0  0  0  0  0  0
  195.7820  174.7050  145.8220 C   0  0  0  0  0  3  0  0  0  0  0  0
  191.4480  177.8650  144.1060 O   0  0  0  0  0  1  0  0  0  0  0  0
  191.6650  176.5610  144.5520 C   0  0  1  0  0  3  0  0  0  0  0  0
  190.7030  175.5920  143.8650 C   0  0  0  0  0  2  0  0  0  0  0  0
  188.4120  176.6640  143.9010 C   0  0  0  0  0  2  0  0  0  0  0  0
  186.4340  177.8400  145.3200 C   0  0  2  0  0  3  0  0  0  0  0  0
  189.4770  175.7150  146.0610 C   0  0  0  0  0  2  0  0  0  0  0  0
  187.1720  176.6620  144.7640 C   0  0  2  0  0  3  0  0  0  0  0  0
  189.3270  175.5760  144.5170 C   0  0  2  0  0  3  0  0  0  0  0  0
  187.7400  177.4200  145.9690 C   0  0  2  0  0  3  0  0  0  0  0  0
  188.1740  176.1940  146.7470 C   0  0  0  0  0  2  0  0  0  0  0  0
  185.0870  178.3010  147.3380 C   0  0  0  0  0  2  0  0  0  0  0  0
  185.2630  177.3660  146.1590 C   0  0  0  0  0  3  0  0  0  0  0  0
  184.1760  178.4220  146.1360 C   0  0  0  0  0  2  0  0  0  0  0  0
  1 16  1  0  0  0  0
  1  4  1  0  0  0  0
  3  2  1  0  0  0  0
  4  6  1  0  0  0  0
  4  3  1  0  0  0  0
  4  2  1  0  0  0  0
  5  8  1  0  0  0  0
  6 14  1  0  0  0  0
  7  9  1  0  0  0  0
  7 11  1  0  0  0  0
  8  9  2  0  0  0  0
 10  5  2  0  0  0  0
 10 13  1  0  0  0  0
 12 13  1  0  0  0  0
 12  6  2  0  0  0  0
 13  7  2  0  0  0  0
 14 11  2  0  0  0  0
 16 15  1  6  0  0  0
 17 16  1  0  0  0  0
 18 22  1  0  0  0  0
 19 23  1  0  0  0  0
 19 26  1  1  0  0  0
 20 24  1  0  0  0  0
 21 18  1  6  0  0  0
 21 19  1  0  0  0  0
 21 23  1  0  0  0  0
 22 17  1  6  0  0  0
 22 20  1  0  0  0  0
 23 24  1  1  0  0  0
 26 25  1  0  0  0  0
 27 26  1  0  0  0  0
 27 25  1  0  0  0  0
M  END
>  <MODEL>
5

>  <REMARK>
 VINA RESULT:      -6.5      3.838      6.633
  Name = 
  6 active torsions:
  status: ('A' for Active; 'I' for Inactive)
    1  A    between atoms: C_2  and  C_14
    2  A    between atoms: C_2  and  C_23
    3  A    between atoms: C_3  and  C_24
    4  A    between atoms: C_8  and  C_9
    5  A    between atoms: O_16  and  C_23
    6  A    between atoms: O_16  and  C_24
                            x       y       z     vdW  Elec       q    Type
                         _______ _______ _______ _____ _____    ______ ____

>  <TORSDO>
F 6

$$$$
=
 OpenBabel11042414203D

 27 32  0  0  1  0  0  0  0  0999 V2000
  185.8020  176.7360  145.2360 O   0  0  0  0  0  0  0  0  0  0  0  0
  185.9770  178.8900  143.9840 C   0  0  0  0  0  2  0  0  0  0  0  0
  184.7800  178.0820  143.5080 C   0  0  0  0  0  2  0  0  0  0  0  0
  186.0220  177.3720  144.0040 C   0  0  0  0  0  0  0  0  0  0  0  0
  188.9420  172.6800  141.3320 C   0  0  0  0  0  3  0  0  0  0  0  0
  186.7450  176.6250  142.9230 C   0  0  0  0  0  0  0  0  0  0  0  0
  187.9870  175.2410  140.8610 C   0  0  0  0  0  0  0  0  0  0  0  0
  189.0970  173.2520  140.0650 C   0  0  0  0  0  3  0  0  0  0  0  0
  188.6160  174.5410  139.8300 C   0  0  0  0  0  3  0  0  0  0  0  0
  188.3270  173.3740  142.3280 N   0  0  0  0  0  0  0  0  0  0  0  0
  187.5060  176.4950  140.6540 N   0  0  0  0  0  0  0  0  0  0  0  0
  187.2220  175.3300  143.1540 C   0  0  0  0  0  3  0  0  0  0  0  0
  187.8510  174.6320  142.1240 C   0  0  0  0  0  0  0  0  0  0  0  0
  186.8900  177.1910  141.6480 C   0  0  0  0  0  3  0  0  0  0  0  0
  185.9870  178.0490  147.1020 O   0  0  0  0  0  1  0  0  0  0  0  0
  186.6950  177.3070  146.1560 C   0  0  1  0  0  3  0  0  0  0  0  0
  187.5360  176.2300  146.8410 C   0  0  0  0  0  2  0  0  0  0  0  0
  189.8750  175.2880  147.0500 C   0  0  0  0  0  2  0  0  0  0  0  0
  192.5370  175.6220  146.7210 C   0  0  2  0  0  3  0  0  0  0  0  0
  189.3710  177.2770  145.4710 C   0  0  0  0  0  2  0  0  0  0  0  0
  191.1610  175.2590  146.2570 C   0  0  2  0  0  3  0  0  0  0  0  0
  188.8420  175.9570  146.1080 C   0  0  2  0  0  3  0  0  0  0  0  0
  191.5500  176.7330  146.4140 C   0  0  2  0  0  3  0  0  0  0  0  0
  190.8830  177.2170  145.1420 C   0  0  0  0  0  2  0  0  0  0  0  0
  194.4850  176.6430  145.5980 C   0  0  0  0  0  2  0  0  0  0  0  0
  193.5220  175.4740  145.5770 C   0  0  0  0  0  3  0  0  0  0  0  0
  194.9170  175.3000  146.1440 C   0  0  0  0  0  2  0  0  0  0  0  0
  1 16  1  0  0  0  0
  2  4  1  0  0  0  0
  3  2  1  0  0  0  0
  3  4  1  0  0  0  0
  4  1  1  0  0  0  0
  5 10  1  0  0  0  0
  6 12  2  0  0  0  0
  6  4  1  0  0  0  0
  7 13  1  0  0  0  0
  8  5  2  0  0  0  0
  9  8  1  0  0  0  0
  9  7  2  0  0  0  0
 11  7  1  0  0  0  0
 11 14  2  0  0  0  0
 13 10  2  0  0  0  0
 13 12  1  0  0  0  0
 14  6  1  0  0  0  0
 16 17  1  0  0  0  0
 16 15  1  1  0  0  0
 19 26  1  6  0  0  0
 20 22  1  0  0  0  0
 21 23  1  0  0  0  0
 21 19  1  0  0  0  0
 21 18  1  1  0  0  0
 22 17  1  1  0  0  0
 22 18  1  0  0  0  0
 23 24  1  6  0  0  0
 23 19  1  0  0  0  0
 24 20  1  0  0  0  0
 25 27  1  0  0  0  0
 26 25  1  0  0  0  0
 26 27  1  0  0  0  0
M  END
>  <MODEL>
6

>  <REMARK>
 VINA RESULT:      -6.4      2.633      5.433
  Name = 
  6 active torsions:
  status: ('A' for Active; 'I' for Inactive)
    1  A    between atoms: C_2  and  C_14
    2  A    between atoms: C_2  and  C_23
    3  A    between atoms: C_3  and  C_24
    4  A    between atoms: C_8  and  C_9
    5  A    between atoms: O_16  and  C_23
    6  A    between atoms: O_16  and  C_24
                            x       y       z     vdW  Elec       q    Type
                         _______ _______ _______ _____ _____    ______ ____

>  <TORSDO>
F 6

$$$$
=
 OpenBabel11042414203D

 27 32  0  0  1  0  0  0  0  0999 V2000
  188.5520  173.5730  142.1380 O   0  0  0  0  0  0  0  0  0  0  0  0
  190.5530  172.1830  141.5900 C   0  0  0  0  0  2  0  0  0  0  0  0
  189.7540  171.5610  142.7250 C   0  0  0  0  0  2  0  0  0  0  0  0
  189.7900  173.0660  142.5620 C   0  0  0  0  0  0  0  0  0  0  0  0
  194.1260  176.4860  145.2430 C   0  0  0  0  0  3  0  0  0  0  0  0
  190.5140  173.7610  143.6760 C   0  0  0  0  0  0  0  0  0  0  0  0
  191.7640  175.1210  145.7500 C   0  0  0  0  0  0  0  0  0  0  0  0
  193.5890  176.4920  146.5350 C   0  0  0  0  0  3  0  0  0  0  0  0
  192.4000  175.8040  146.7880 C   0  0  0  0  0  3  0  0  0  0  0  0
  193.4950  175.8170  144.2400 N   0  0  0  0  0  0  0  0  0  0  0  0
  190.6040  174.4490  145.9710 N   0  0  0  0  0  0  0  0  0  0  0  0
  191.7010  174.4580  143.4250 C   0  0  0  0  0  3  0  0  0  0  0  0
  192.3370  175.1380  144.4630 C   0  0  0  0  0  0  0  0  0  0  0  0
  189.9720  173.7790  144.9690 C   0  0  0  0  0  3  0  0  0  0  0  0
  188.3100  174.0030  139.9030 O   0  0  0  0  0  1  0  0  0  0  0  0
  188.8170  174.4900  141.1080 C   0  0  1  0  0  3  0  0  0  0  0  0
  188.2200  175.8600  141.4280 C   0  0  0  0  0  2  0  0  0  0  0  0
  186.3500  176.4350  143.0300 C   0  0  0  0  0  2  0  0  0  0  0  0
  185.4790  177.8890  145.1370 C   0  0  2  0  0  3  0  0  0  0  0  0
  188.8170  176.9670  143.6090 C   0  0  0  0  0  2  0  0  0  0  0  0
  186.1650  176.7190  144.5030 C   0  0  2  0  0  3  0  0  0  0  0  0
  187.8300  175.9980  142.8920 C   0  0  2  0  0  3  0  0  0  0  0  0
  186.8680  178.0800  144.5560 C   0  0  2  0  0  3  0  0  0  0  0  0
  188.2380  177.5450  144.9230 C   0  0  0  0  0  2  0  0  0  0  0  0
  185.8290  179.1490  147.2320 C   0  0  0  0  0  2  0  0  0  0  0  0
  185.5610  177.7770  146.6480 C   0  0  0  0  0  3  0  0  0  0  0  0
  184.4300  178.5750  147.2650 C   0  0  0  0  0  2  0  0  0  0  0  0
  1  4  1  0  0  0  0
  2  4  1  0  0  0  0
  2  3  1  0  0  0  0
  4  3  1  0  0  0  0
  4  6  1  0  0  0  0
  5  8  1  0  0  0  0
  6 14  1  0  0  0  0
  7 11  1  0  0  0  0
  7  9  1  0  0  0  0
  8  9  2  0  0  0  0
 10 13  1  0  0  0  0
 10  5  2  0  0  0  0
 12  6  2  0  0  0  0
 12 13  1  0  0  0  0
 13  7  2  0  0  0  0
 14 11  2  0  0  0  0
 16 15  1  6  0  0  0
 16 17  1  0  0  0  0
 16  1  1  0  0  0  0
 19 26  1  1  0  0  0
 20 24  1  0  0  0  0
 21 18  1  6  0  0  0
 21 23  1  0  0  0  0
 21 19  1  0  0  0  0
 22 17  1  6  0  0  0
 22 18  1  0  0  0  0
 22 20  1  0  0  0  0
 23 24  1  1  0  0  0
 23 19  1  0  0  0  0
 25 27  1  0  0  0  0
 26 25  1  0  0  0  0
 26 27  1  0  0  0  0
M  END
>  <MODEL>
7

>  <REMARK>
 VINA RESULT:      -6.4      2.336      4.731
  Name = 
  6 active torsions:
  status: ('A' for Active; 'I' for Inactive)
    1  A    between atoms: C_2  and  C_14
    2  A    between atoms: C_2  and  C_23
    3  A    between atoms: C_3  and  C_24
    4  A    between atoms: C_8  and  C_9
    5  A    between atoms: O_16  and  C_23
    6  A    between atoms: O_16  and  C_24
                            x       y       z     vdW  Elec       q    Type
                         _______ _______ _______ _____ _____    ______ ____

>  <TORSDO>
F 6

$$$$
=
 OpenBabel11042414203D

 27 32  0  0  1  0  0  0  0  0999 V2000
  189.5930  175.3070  146.0980 O   0  0  0  0  0  0  0  0  0  0  0  0
  189.8780  174.7820  143.6730 C   0  0  0  0  0  2  0  0  0  0  0  0
  190.6010  176.0690  144.0370 C   0  0  0  0  0  2  0  0  0  0  0  0
  189.3340  175.6800  144.7690 C   0  0  0  0  0  0  0  0  0  0  0  0
  184.0690  178.6600  145.8090 C   0  0  0  0  0  3  0  0  0  0  0  0
  188.1850  176.6010  144.4880 C   0  0  0  0  0  0  0  0  0  0  0  0
  186.1290  178.3960  143.9700 C   0  0  0  0  0  0  0  0  0  0  0  0
  184.0530  179.4270  144.6400 C   0  0  0  0  0  3  0  0  0  0  0  0
  185.0910  179.2920  143.7160 C   0  0  0  0  0  3  0  0  0  0  0  0
  185.0870  177.7890  146.0450 N   0  0  0  0  0  0  0  0  0  0  0  0
  187.1530  178.2510  143.0880 N   0  0  0  0  0  0  0  0  0  0  0  0
  187.1470  176.7440  145.4150 C   0  0  0  0  0  3  0  0  0  0  0  0
  186.1090  177.6400  145.1590 C   0  0  0  0  0  0  0  0  0  0  0  0
  188.1720  177.3810  143.3220 C   0  0  0  0  0  3  0  0  0  0  0  0
  190.1590  177.2400  147.1860 O   0  0  0  0  0  1  0  0  0  0  0  0
  190.6580  176.1050  146.5450 C   0  0  1  0  0  3  0  0  0  0  0  0
  191.5740  175.3190  147.4830 C   0  0  0  0  0  2  0  0  0  0  0  0
  193.5530  176.3900  146.3280 C   0  0  0  0  0  2  0  0  0  0  0  0
  195.2850  176.4040  144.2520 C   0  0  2  0  0  3  0  0  0  0  0  0
  192.8630  173.9480  145.8110 C   0  0  0  0  0  2  0  0  0  0  0  0
  194.8080  175.9650  145.6010 C   0  0  2  0  0  3  0  0  0  0  0  0
  192.9510  175.0750  146.8840 C   0  0  2  0  0  3  0  0  0  0  0  0
  194.1510  175.3980  144.3380 C   0  0  2  0  0  3  0  0  0  0  0  0
  194.0580  173.9670  144.8270 C   0  0  0  0  0  2  0  0  0  0  0  0
  196.5780  175.3470  142.4330 C   0  0  0  0  0  2  0  0  0  0  0  0
  196.5800  175.6950  143.9070 C   0  0  0  0  0  3  0  0  0  0  0  0
  197.3630  176.5430  142.9250 C   0  0  0  0  0  2  0  0  0  0  0  0
  1 16  1  0  0  0  0
  2  3  1  0  0  0  0
  2  4  1  0  0  0  0
  3  4  1  0  0  0  0
  4  1  1  0  0  0  0
  5 10  1  0  0  0  0
  6  4  1  0  0  0  0
  6 12  2  0  0  0  0
  7 13  1  0  0  0  0
  8  5  2  0  0  0  0
  9  7  2  0  0  0  0
  9  8  1  0  0  0  0
 11 14  2  0  0  0  0
 11  7  1  0  0  0  0
 13 12  1  0  0  0  0
 13 10  2  0  0  0  0
 14  6  1  0  0  0  0
 16 15  1  1  0  0  0
 16 17  1  0  0  0  0
 18 22  1  0  0  0  0
 19 26  1  6  0  0  0
 19 23  1  0  0  0  0
 19 21  1  0  0  0  0
 20 22  1  0  0  0  0
 21 18  1  1  0  0  0
 22 17  1  6  0  0  0
 23 24  1  6  0  0  0
 23 21  1  0  0  0  0
 24 20  1  0  0  0  0
 25 27  1  0  0  0  0
 25 26  1  0  0  0  0
 27 26  1  0  0  0  0
M  END
>  <MODEL>
8

>  <REMARK>
 VINA RESULT:      -6.3      3.036      5.528
  Name = 
  6 active torsions:
  status: ('A' for Active; 'I' for Inactive)
    1  A    between atoms: C_2  and  C_14
    2  A    between atoms: C_2  and  C_23
    3  A    between atoms: C_3  and  C_24
    4  A    between atoms: C_8  and  C_9
    5  A    between atoms: O_16  and  C_23
    6  A    between atoms: O_16  and  C_24
                            x       y       z     vdW  Elec       q    Type
                         _______ _______ _______ _____ _____    ______ ____

>  <TORSDO>
F 6

$$$$
=
 OpenBabel11042414203D

 27 32  0  0  1  0  0  0  0  0999 V2000
  187.8990  175.7490  146.1620 O   0  0  0  0  0  0  0  0  0  0  0  0
  187.2050  177.8640  147.2960 C   0  0  0  0  0  2  0  0  0  0  0  0
  186.0910  176.8310  147.3450 C   0  0  0  0  0  2  0  0  0  0  0  0
  187.0410  176.8610  146.1680 C   0  0  0  0  0  0  0  0  0  0  0  0
  186.3550  177.5430  140.1060 C   0  0  0  0  0  3  0  0  0  0  0  0
  186.3790  177.2690  144.8860 C   0  0  0  0  0  0  0  0  0  0  0  0
  185.0710  177.9470  142.5310 C   0  0  0  0  0  0  0  0  0  0  0  0
  185.0660  178.0860  140.1220 C   0  0  0  0  0  3  0  0  0  0  0  0
  184.4220  178.2890  141.3440 C   0  0  0  0  0  3  0  0  0  0  0  0
  186.9770  177.2140  141.2700 N   0  0  0  0  0  0  0  0  0  0  0  0
  184.4620  178.1310  143.7320 N   0  0  0  0  0  0  0  0  0  0  0  0
  187.0190  177.0600  143.6590 C   0  0  0  0  0  3  0  0  0  0  0  0
  186.3700  177.4030  142.4730 C   0  0  0  0  0  0  0  0  0  0  0  0
  185.0820  177.8030  144.8980 C   0  0  0  0  0  3  0  0  0  0  0  0
  189.4430  174.9330  147.6430 O   0  0  0  0  0  1  0  0  0  0  0  0
  188.9950  176.0750  146.9760 C   0  0  1  0  0  3  0  0  0  0  0  0
  190.1240  176.6920  146.1510 C   0  0  0  0  0  2  0  0  0  0  0  0
  192.4330  175.8370  146.7310 C   0  0  0  0  0  2  0  0  0  0  0  0
  194.9360  175.2110  145.9200 C   0  0  2  0  0  3  0  0  0  0  0  0
  191.5740  175.8130  144.2890 C   0  0  0  0  0  2  0  0  0  0  0  0
  193.4840  174.9220  146.1460 C   0  0  2  0  0  3  0  0  0  0  0  0
  191.2060  175.6820  145.7980 C   0  0  2  0  0  3  0  0  0  0  0  0
  193.9130  175.8030  144.9670 C   0  0  2  0  0  3  0  0  0  0  0  0
  192.9570  175.2040  143.9550 C   0  0  0  0  0  2  0  0  0  0  0  0
  196.7820  174.4860  144.4500 C   0  0  0  0  0  2  0  0  0  0  0  0
  195.6070  174.0120  145.2790 C   0  0  0  0  0  3  0  0  0  0  0  0
  197.0170  173.8860  145.8190 C   0  0  0  0  0  2  0  0  0  0  0  0
  1  4  1  0  0  0  0
  1 16  1  0  0  0  0
  2  3  1  0  0  0  0
  4  2  1  0  0  0  0
  4  3  1  0  0  0  0
  5  8  2  0  0  0  0
  5 10  1  0  0  0  0
  6 14  1  0  0  0  0
  6  4  1  0  0  0  0
  7 11  1  0  0  0  0
  8  9  1  0  0  0  0
  9  7  2  0  0  0  0
 10 13  2  0  0  0  0
 11 14  2  0  0  0  0
 12  6  2  0  0  0  0
 13  7  1  0  0  0  0
 13 12  1  0  0  0  0
 16 15  1  6  0  0  0
 17 16  1  0  0  0  0
 19 26  1  6  0  0  0
 19 21  1  0  0  0  0
 20 22  1  0  0  0  0
 21 18  1  1  0  0  0
 22 17  1  1  0  0  0
 22 18  1  0  0  0  0
 23 24  1  6  0  0  0
 23 19  1  0  0  0  0
 23 21  1  0  0  0  0
 24 20  1  0  0  0  0
 25 26  1  0  0  0  0
 25 27  1  0  0  0  0
 26 27  1  0  0  0  0
M  END
>  <MODEL>
9

>  <REMARK>
 VINA RESULT:      -6.3      2.669      5.821
  Name = 
  6 active torsions:
  status: ('A' for Active; 'I' for Inactive)
    1  A    between atoms: C_2  and  C_14
    2  A    between atoms: C_2  and  C_23
    3  A    between atoms: C_3  and  C_24
    4  A    between atoms: C_8  and  C_9
    5  A    between atoms: O_16  and  C_23
    6  A    between atoms: O_16  and  C_24
                            x       y       z     vdW  Elec       q    Type
                         _______ _______ _______ _____ _____    ______ ____

>  <TORSDO>
F 6

$$$$
