=
 OpenBabel11042418313D

 70 76  0  0  1  0  0  0  0  0999 V2000
  193.8140  173.5380  143.8420 C   0  0  2  0  0  3  0  0  0  0  0  0
  193.8900  174.6970  144.8860 C   0  0  1  0  0  3  0  0  0  0  0  0
  195.2750  175.3800  145.0010 C   0  0  1  0  0  3  0  0  0  0  0  0
  195.3320  176.2370  146.1240 O   0  0  0  0  0  0  0  0  0  0  0  0
  196.0590  175.0420  146.2140 C   0  0  0  0  0  2  0  0  0  0  0  0
  192.8490  175.6650  144.6420 O   0  0  0  0  0  0  0  0  0  0  0  0
  192.8620  176.6170  143.6120 C   0  0  0  0  0  3  0  0  0  0  0  0
  191.9830  176.5670  142.6110 C   0  0  0  0  0  3  0  0  0  0  0  0
  190.9490  175.4870  142.4920 C   0  0  0  0  0  2  0  0  0  0  0  0
  189.6340  176.0050  142.5430 O   0  0  0  0  0  0  0  0  0  0  0  0
  189.4220  176.4740  143.8520 C   0  0  0  0  0  2  0  0  0  0  0  0
  188.9830  175.3530  144.7760 C   0  0  0  0  0  2  0  0  0  0  0  0
  188.1670  177.3030  146.1610 N   0  0  0  0  0  2  0  0  0  0  0  0
  188.5860  175.1940  147.1110 O   0  0  0  0  0  0  0  0  0  0  0  0
  188.6030  175.9430  146.0850 C   0  0  0  0  0  0  0  0  0  0  0  0
  187.6420  177.8790  147.3900 C   0  0  0  0  0  2  0  0  0  0  0  0
  186.1970  177.5690  147.5430 C   0  0  0  0  0  0  0  0  0  0  0  0
  185.8400  176.6590  148.2710 O   0  0  0  0  0  0  0  0  0  0  0  0
  185.1830  178.3820  146.8260 C   0  0  0  0  0  2  0  0  0  0  0  0
  185.4770  178.5120  145.3540 C   0  0  0  0  0  0  0  0  0  0  0  0
  186.3890  179.2510  144.9990 O   0  0  0  0  0  0  0  0  0  0  0  0
  184.7020  177.7650  144.2960 C   0  0  0  0  0  2  0  0  0  0  0  0
  185.4860  177.5570  143.1600 O   0  0  0  0  0  0  0  0  0  0  0  0
  184.6440  177.7960  142.0660 C   0  0  2  0  0  3  0  0  0  0  0  0
  186.7180  177.7020  140.6280 C   0  0  0  0  0  2  0  0  0  0  0  0
  185.5040  177.3060  139.8120 C   0  0  0  0  0  2  0  0  0  0  0  0
  185.3930  178.4020  140.8750 C   0  0  0  0  0  3  0  0  0  0  0  0
  183.4490  178.6880  142.4570 C   0  0  0  0  0  2  0  0  0  0  0  0
  182.1400  178.2180  141.8460 C   0  0  0  0  0  2  0  0  0  0  0  0
  181.9670  178.8580  140.6190 O   0  0  0  0  0  0  0  0  0  0  0  0
  178.5180  179.3350  141.7410 C   0  0  0  0  0  2  0  0  0  0  0  0
  180.6050  178.7850  140.3760 C   0  0  2  0  0  3  0  0  0  0  0  0
  180.1140  180.0790  140.1590 O   0  0  0  0  0  0  0  0  0  0  0  0
  178.7380  179.9980  140.4020 C   0  0  0  0  0  2  0  0  0  0  0  0
  179.7480  178.0310  141.7960 S   0  0  0  0  0  0  0  0  0  0  0  0
  193.1380  171.9750  144.4710 S   0  0  0  0  0  0  0  0  0  0  0  0
  193.2150  171.1350  142.8720 C   0  0  1  0  0  3  0  0  0  0  0  0
  194.2760  170.0140  142.7630 C   0  0  2  0  0  3  0  0  0  0  0  0
  193.7450  168.7970  143.1920 O   0  0  0  0  0  1  0  0  0  0  0  0
  195.6800  169.9000  144.7750 O   0  0  0  0  0  1  0  0  0  0  0  0
  195.6500  170.2620  143.4270 C   0  0  1  0  0  3  0  0  0  0  0  0
  196.8150  169.6320  142.6700 C   0  0  0  0  0  1  0  0  0  0  0  0
  191.8550  170.8910  142.1930 C   0  0  0  0  0  2  0  0  0  0  0  0
  191.8290  171.3130  140.7870 N   0  0  0  0  0  0  0  0  0  0  0  0
  191.2900  170.2110  140.0020 C   0  0  0  0  0  2  0  0  0  0  0  0
  190.6250  172.1020  140.4380 C   0  0  1  0  0  3  0  0  0  0  0  0
  190.0390  170.9540  139.6300 C   0  0  1  0  0  3  0  0  0  0  0  0
  189.6870  172.4830  141.5790 C   0  0  0  0  0  1  0  0  0  0  0  0
  189.3680  172.7270  136.3970 C   0  0  0  0  0  3  0  0  0  0  0  0
  189.9040  171.8380  135.4730 C   0  0  0  0  0  3  0  0  0  0  0  0
  190.5370  170.4160  137.2810 N   0  0  0  0  0  0  0  0  0  0  0  0
  189.4240  172.4490  137.7230 N   0  0  0  0  0  0  0  0  0  0  0  0
  190.4980  170.6660  135.9470 C   0  0  0  0  0  3  0  0  0  0  0  0
  190.0090  171.2920  138.1690 C   0  0  0  0  0  0  0  0  0  0  0  0
  195.1410  173.2380  143.1370 C   0  0  0  0  0  2  0  0  0  0  0  0
  195.0540  173.5760  141.7570 O   0  0  0  0  0  0  0  0  0  0  0  0
  195.8610  174.5510  141.1570 C   0  0  0  0  0  0  0  0  0  0  0  0
  196.1440  175.6460  141.7300 O   0  0  0  0  0  0  0  0  0  0  0  0
  196.4360  174.2470  139.7950 C   0  0  0  0  0  2  0  0  0  0  0  0
  195.4070  173.9180  138.7990 N   0  0  0  0  0  0  0  0  0  0  0  0
  195.1750  175.0770  137.9490 C   0  0  0  0  0  2  0  0  0  0  0  0
  194.5010  174.6510  136.7350 N   0  0  0  0  0  2  0  0  0  0  0  0
  193.0850  174.4200  136.6240 C   0  0  0  0  0  0  0  0  0  0  0  0
  192.3480  174.0770  137.6780 C   0  0  0  0  0  2  0  0  0  0  0  0
  192.3820  174.8630  135.3970 C   0  0  0  0  0  1  0  0  0  0  0  0
  195.8700  172.8060  137.9530 C   0  0  0  0  0  2  0  0  0  0  0  0
  197.7210  172.3670  136.4890 C   0  0  2  0  0  3  0  0  0  0  0  0
  197.9000  173.6840  136.9540 O   0  0  0  0  0  0  0  0  0  0  0  0
  197.4000  172.7580  137.8840 C   0  0  1  0  0  0  0  0  0  0  0  0
  197.9410  171.3690  137.5840 C   0  0  0  0  0  2  0  0  0  0  0  0
  1 55  1  1  0  0  0
  1 36  1  0  0  0  0
  1  2  1  0  0  0  0
  2  6  1  6  0  0  0
  3  2  1  1  0  0  0
  3  4  1  0  0  0  0
  3  5  1  0  0  0  0
  4  5  1  0  0  0  0
  7  6  1  0  0  0  0
  8  7  2  0  0  0  0
  9 10  1  0  0  0  0
  9  8  1  0  0  0  0
 10 11  1  0  0  0  0
 11 12  1  0  0  0  0
 12 15  1  0  0  0  0
 13 16  1  0  0  0  0
 15 13  1  0  0  0  0
 15 14  2  0  0  0  0
 16 17  1  0  0  0  0
 17 18  2  0  0  0  0
 19 17  1  0  0  0  0
 20 19  1  0  0  0  0
 21 20  2  0  0  0  0
 22 20  1  0  0  0  0
 23 22  1  0  0  0  0
 24 28  1  1  0  0  0
 24 23  1  0  0  0  0
 25 27  1  0  0  0  0
 26 25  1  0  0  0  0
 26 27  1  0  0  0  0
 27 24  1  0  0  0  0
 29 28  1  0  0  0  0
 30 29  1  0  0  0  0
 31 35  1  0  0  0  0
 32 30  1  1  0  0  0
 32 35  1  0  0  0  0
 33 32  1  0  0  0  0
 33 34  1  0  0  0  0
 34 31  1  0  0  0  0
 37 43  1  1  0  0  0
 37 36  1  0  0  0  0
 38 37  1  0  0  0  0
 38 39  1  1  0  0  0
 38 41  1  0  0  0  0
 41 42  1  6  0  0  0
 41 40  1  0  0  0  0
 44 43  1  0  0  0  0
 45 44  1  0  0  0  0
 46 44  1  0  0  0  0
 46 48  1  1  0  0  0
 47 54  1  6  0  0  0
 47 45  1  0  0  0  0
 47 46  1  0  0  0  0
 49 52  2  0  0  0  0
 50 53  2  0  0  0  0
 50 49  1  0  0  0  0
 51 54  2  0  0  0  0
 52 54  1  0  0  0  0
 53 51  1  0  0  0  0
 56 55  1  0  0  0  0
 57 58  2  0  0  0  0
 57 56  1  0  0  0  0
 59 57  1  0  0  0  0
 60 59  1  0  0  0  0
 61 60  1  0  0  0  0
 62 61  1  0  0  0  0
 63 62  1  0  0  0  0
 63 64  2  0  0  0  0
 65 63  1  0  0  0  0
 66 60  1  0  0  0  0
 67 68  1  0  0  0  0
 67 70  1  1  0  0  0
 67 69  1  0  0  0  0
 68 69  1  0  0  0  0
 69 66  1  1  0  0  0
 70 69  1  0  0  0  0
M  END
>  <MODEL>
1

>  <REMARK>
 VINA RESULT:      -4.1      0.000      0.000
  Name = 
  38 active torsions:
  status: ('A' for Active; 'I' for Inactive)
    1  A    between atoms: N_1  and  C_51
    2  A    between atoms: C_2  and  C_12
    3  A    between atoms: C_2  and  C_26
    4  A    between atoms: O_3  and  C_9
    5  A    between atoms: O_3  and  C_57
    6  A    between atoms: C_4  and  C_52
    7  A    between atoms: C_6  and  C_57
    8  A    between atoms: C_6  and  C_70
    9  A    between atoms: C_7  and  C_24
   10  A    between atoms: C_7  and  C_51
   11  A    between atoms: C_7  and  S_66
   12  A    between atoms: C_9  and  C_61
   13  A    between atoms: C_10  and  C_52
   14  A    between atoms: C_10  and  S_66
   15  A    between atoms: C_10  and  C_69
   16  A    between atoms: C_11  and  C_26
   17  A    between atoms: C_11  and  N_59
   18  A    between atoms: C_12  and  C_33
   19  A    between atoms: N_15  and  C_27
   20  A    between atoms: N_15  and  C_42
   21  A    between atoms: C_18  and  O_54
   22  A    between atoms: C_19  and  C_45
   23  A    between atoms: C_19  and  N_58
   24  A    between atoms: C_20  and  C_35
   25  A    between atoms: C_20  and  O_54
   26  A    between atoms: C_24  and  C_46
   27  A    between atoms: O_28  and  C_39
   28  A    between atoms: O_28  and  C_69
   29  A    between atoms: C_31  and  O_53
   30  A    between atoms: C_32  and  C_35
   31  A    between atoms: C_32  and  C_62
   32  A    between atoms: C_32  and  O_63
   33  A    between atoms: C_33  and  O_63
   34  A    between atoms: C_37  and  C_49
   35  A    between atoms: C_39  and  C_60
   36  A    between atoms: C_42  and  N_58
   37  A    between atoms: C_52  and  O_53
   38  A    between atoms: N_58  and  C_60
                            x       y       z     vdW  Elec       q    Type
                         _______ _______ _______ _____ _____    ______ ____

>  <TORSDO>
F 38

$$$$
=
 OpenBabel11042418313D

 70 76  0  0  1  0  0  0  0  0999 V2000
  193.1390  174.7220  143.5420 C   0  0  2  0  0  3  0  0  0  0  0  0
  193.5200  175.7860  144.6190 C   0  0  1  0  0  3  0  0  0  0  0  0
  194.6810  176.7300  144.2220 C   0  0  1  0  0  3  0  0  0  0  0  0
  195.4800  177.0590  145.3410 O   0  0  0  0  0  0  0  0  0  0  0  0
  196.0460  176.1820  144.4060 C   0  0  0  0  0  2  0  0  0  0  0  0
  192.3540  176.5330  145.0240 O   0  0  0  0  0  0  0  0  0  0  0  0
  192.0150  177.8100  144.5530 C   0  0  0  0  0  3  0  0  0  0  0  0
  191.2610  177.9690  143.4640 C   0  0  0  0  0  3  0  0  0  0  0  0
  190.7540  176.8140  142.6530 C   0  0  0  0  0  2  0  0  0  0  0  0
  189.3460  176.7010  142.7150 O   0  0  0  0  0  0  0  0  0  0  0  0
  188.9520  177.1180  143.9990 C   0  0  0  0  0  2  0  0  0  0  0  0
  188.2680  175.9950  144.7570 C   0  0  0  0  0  2  0  0  0  0  0  0
  188.0310  177.8780  146.4260 N   0  0  0  0  0  2  0  0  0  0  0  0
  187.4500  175.6640  146.9610 O   0  0  0  0  0  0  0  0  0  0  0  0
  187.9240  176.4860  146.1170 C   0  0  0  0  0  0  0  0  0  0  0  0
  187.5650  178.4270  147.6910 C   0  0  0  0  0  2  0  0  0  0  0  0
  186.0840  178.3370  147.7900 C   0  0  0  0  0  0  0  0  0  0  0  0
  185.5700  177.5610  148.5780 O   0  0  0  0  0  0  0  0  0  0  0  0
  185.2290  179.2090  146.9470 C   0  0  0  0  0  2  0  0  0  0  0  0
  185.3910  178.9330  145.4750 C   0  0  0  0  0  0  0  0  0  0  0  0
  186.1740  179.6220  144.8300 O   0  0  0  0  0  0  0  0  0  0  0  0
  184.6360  177.8390  144.7590 C   0  0  0  0  0  2  0  0  0  0  0  0
  185.3040  177.4540  143.5960 O   0  0  0  0  0  0  0  0  0  0  0  0
  184.4400  177.7670  142.5390 C   0  0  2  0  0  3  0  0  0  0  0  0
  186.6540  178.5820  141.6380 C   0  0  0  0  0  2  0  0  0  0  0  0
  186.1260  177.4560  140.7720 C   0  0  0  0  0  2  0  0  0  0  0  0
  185.1600  178.4730  141.3860 C   0  0  0  0  0  3  0  0  0  0  0  0
  183.2420  178.6100  143.0180 C   0  0  0  0  0  2  0  0  0  0  0  0
  182.3010  178.9910  141.8880 C   0  0  0  0  0  2  0  0  0  0  0  0
  181.5410  177.8720  141.5470 O   0  0  0  0  0  0  0  0  0  0  0  0
  178.4580  179.7860  141.0840 C   0  0  0  0  0  2  0  0  0  0  0  0
  180.5480  178.3640  140.7160 C   0  0  2  0  0  3  0  0  0  0  0  0
  180.7570  179.7360  140.5230 O   0  0  0  0  0  0  0  0  0  0  0  0
  179.5190  180.2450  140.1130 C   0  0  0  0  0  2  0  0  0  0  0  0
  178.9070  178.0900  141.4610 S   0  0  0  0  0  0  0  0  0  0  0  0
  192.6700  173.0950  144.1950 S   0  0  0  0  0  0  0  0  0  0  0  0
  192.2210  172.4200  142.5790 C   0  0  1  0  0  3  0  0  0  0  0  0
  193.0020  171.1550  142.1490 C   0  0  2  0  0  3  0  0  0  0  0  0
  192.1200  170.1460  141.7600 O   0  0  0  0  0  1  0  0  0  0  0  0
  194.0670  169.2010  143.1870 O   0  0  0  0  0  1  0  0  0  0  0  0
  194.0550  170.5960  143.1320 C   0  0  1  0  0  3  0  0  0  0  0  0
  195.4600  171.1420  142.8960 C   0  0  0  0  0  1  0  0  0  0  0  0
  190.7190  172.4740  142.2400 C   0  0  0  0  0  2  0  0  0  0  0  0
  190.4090  173.4010  141.1450 N   0  0  0  0  0  0  0  0  0  0  0  0
  190.2330  172.6140  139.9330 C   0  0  0  0  0  2  0  0  0  0  0  0
  188.9740  173.7600  141.0760 C   0  0  1  0  0  3  0  0  0  0  0  0
  188.7690  172.9270  139.8200 C   0  0  1  0  0  3  0  0  0  0  0  0
  188.0740  173.2570  142.2010 C   0  0  0  0  0  1  0  0  0  0  0  0
  187.3400  175.6380  137.6620 C   0  0  0  0  0  3  0  0  0  0  0  0
  187.9120  175.3480  136.4300 C   0  0  0  0  0  3  0  0  0  0  0  0
  189.0470  173.5110  137.4460 N   0  0  0  0  0  0  0  0  0  0  0  0
  187.6250  174.8730  138.7440 N   0  0  0  0  0  0  0  0  0  0  0  0
  188.7830  174.2580  136.3430 C   0  0  0  0  0  3  0  0  0  0  0  0
  188.4790  173.8060  138.6390 C   0  0  0  0  0  0  0  0  0  0  0  0
  194.2040  174.5150  142.4590 C   0  0  0  0  0  2  0  0  0  0  0  0
  193.5880  174.3550  141.1860 O   0  0  0  0  0  0  0  0  0  0  0  0
  194.2930  173.9640  140.0400 C   0  0  0  0  0  0  0  0  0  0  0  0
  195.4410  173.4300  140.0970 O   0  0  0  0  0  0  0  0  0  0  0  0
  193.6230  174.1590  138.7010 C   0  0  0  0  0  2  0  0  0  0  0  0
  194.5420  174.6540  137.6670 N   0  0  0  0  0  0  0  0  0  0  0  0
  194.6020  173.6910  136.5780 C   0  0  0  0  0  2  0  0  0  0  0  0
  193.7670  172.5480  136.9070 N   0  0  0  0  0  2  0  0  0  0  0  0
  194.0840  171.1840  136.5770 C   0  0  0  0  0  0  0  0  0  0  0  0
  194.6850  170.3750  137.4460 C   0  0  0  0  0  2  0  0  0  0  0  0
  193.4670  170.5770  135.3740 C   0  0  0  0  0  1  0  0  0  0  0  0
  194.0480  175.9340  137.1320 C   0  0  0  0  0  2  0  0  0  0  0  0
  193.9690  177.1000  135.0350 C   0  0  2  0  0  3  0  0  0  0  0  0
  194.7320  175.9400  134.8030 O   0  0  0  0  0  0  0  0  0  0  0  0
  193.6310  175.7990  135.6640 C   0  0  1  0  0  0  0  0  0  0  0  0
  192.5270  176.7650  135.2660 C   0  0  0  0  0  2  0  0  0  0  0  0
  1 55  1  6  0  0  0
  1 36  1  0  0  0  0
  1  2  1  0  0  0  0
  2  6  1  6  0  0  0
  3  5  1  0  0  0  0
  3  2  1  1  0  0  0
  3  4  1  0  0  0  0
  5  4  1  0  0  0  0
  7  6  1  0  0  0  0
  8  7  2  0  0  0  0
  9 10  1  0  0  0  0
  9  8  1  0  0  0  0
 10 11  1  0  0  0  0
 11 12  1  0  0  0  0
 12 15  1  0  0  0  0
 13 16  1  0  0  0  0
 15 13  1  0  0  0  0
 15 14  2  0  0  0  0
 16 17  1  0  0  0  0
 17 18  2  0  0  0  0
 19 17  1  0  0  0  0
 20 19  1  0  0  0  0
 21 20  2  0  0  0  0
 22 20  1  0  0  0  0
 23 22  1  0  0  0  0
 24 28  1  1  0  0  0
 24 23  1  0  0  0  0
 26 27  1  0  0  0  0
 26 25  1  0  0  0  0
 27 25  1  0  0  0  0
 27 24  1  0  0  0  0
 29 28  1  0  0  0  0
 30 29  1  0  0  0  0
 31 35  1  0  0  0  0
 32 35  1  0  0  0  0
 32 30  1  1  0  0  0
 33 32  1  0  0  0  0
 34 33  1  0  0  0  0
 34 31  1  0  0  0  0
 37 43  1  1  0  0  0
 37 36  1  0  0  0  0
 38 39  1  1  0  0  0
 38 37  1  0  0  0  0
 38 41  1  0  0  0  0
 41 42  1  6  0  0  0
 41 40  1  0  0  0  0
 44 43  1  0  0  0  0
 45 44  1  0  0  0  0
 46 44  1  0  0  0  0
 46 48  1  1  0  0  0
 47 54  1  6  0  0  0
 47 45  1  0  0  0  0
 47 46  1  0  0  0  0
 49 52  2  0  0  0  0
 50 49  1  0  0  0  0
 51 54  2  0  0  0  0
 53 50  2  0  0  0  0
 53 51  1  0  0  0  0
 54 52  1  0  0  0  0
 56 55  1  0  0  0  0
 57 58  2  0  0  0  0
 57 56  1  0  0  0  0
 59 57  1  0  0  0  0
 60 59  1  0  0  0  0
 61 62  1  0  0  0  0
 61 60  1  0  0  0  0
 63 62  1  0  0  0  0
 63 64  2  0  0  0  0
 65 63  1  0  0  0  0
 66 60  1  0  0  0  0
 67 70  1  6  0  0  0
 67 69  1  0  0  0  0
 68 67  1  0  0  0  0
 68 69  1  0  0  0  0
 69 66  1  1  0  0  0
 70 69  1  0  0  0  0
M  END
>  <MODEL>
2

>  <REMARK>
 VINA RESULT:      -4.0      1.675      2.479
  Name = 
  38 active torsions:
  status: ('A' for Active; 'I' for Inactive)
    1  A    between atoms: N_1  and  C_51
    2  A    between atoms: C_2  and  C_12
    3  A    between atoms: C_2  and  C_26
    4  A    between atoms: O_3  and  C_9
    5  A    between atoms: O_3  and  C_57
    6  A    between atoms: C_4  and  C_52
    7  A    between atoms: C_6  and  C_57
    8  A    between atoms: C_6  and  C_70
    9  A    between atoms: C_7  and  C_24
   10  A    between atoms: C_7  and  C_51
   11  A    between atoms: C_7  and  S_66
   12  A    between atoms: C_9  and  C_61
   13  A    between atoms: C_10  and  C_52
   14  A    between atoms: C_10  and  S_66
   15  A    between atoms: C_10  and  C_69
   16  A    between atoms: C_11  and  C_26
   17  A    between atoms: C_11  and  N_59
   18  A    between atoms: C_12  and  C_33
   19  A    between atoms: N_15  and  C_27
   20  A    between atoms: N_15  and  C_42
   21  A    between atoms: C_18  and  O_54
   22  A    between atoms: C_19  and  C_45
   23  A    between atoms: C_19  and  N_58
   24  A    between atoms: C_20  and  C_35
   25  A    between atoms: C_20  and  O_54
   26  A    between atoms: C_24  and  C_46
   27  A    between atoms: O_28  and  C_39
   28  A    between atoms: O_28  and  C_69
   29  A    between atoms: C_31  and  O_53
   30  A    between atoms: C_32  and  C_35
   31  A    between atoms: C_32  and  C_62
   32  A    between atoms: C_32  and  O_63
   33  A    between atoms: C_33  and  O_63
   34  A    between atoms: C_37  and  C_49
   35  A    between atoms: C_39  and  C_60
   36  A    between atoms: C_42  and  N_58
   37  A    between atoms: C_52  and  O_53
   38  A    between atoms: N_58  and  C_60
                            x       y       z     vdW  Elec       q    Type
                         _______ _______ _______ _____ _____    ______ ____

>  <TORSDO>
F 38

$$$$
=
 OpenBabel11042418313D

 70 76  0  0  1  0  0  0  0  0999 V2000
  192.6700  173.3620  140.8200 C   0  0  2  0  0  3  0  0  0  0  0  0
  193.0430  173.3410  139.3040 C   0  0  1  0  0  3  0  0  0  0  0  0
  191.8910  172.9290  138.3540 C   0  0  1  0  0  3  0  0  0  0  0  0
  192.3890  172.3410  137.1690 O   0  0  0  0  0  0  0  0  0  0  0  0
  191.7710  171.4770  138.0830 C   0  0  0  0  0  2  0  0  0  0  0  0
  193.6210  174.6020  138.9080 O   0  0  0  0  0  0  0  0  0  0  0  0
  193.5820  175.1320  137.6100 C   0  0  0  0  0  3  0  0  0  0  0  0
  194.6860  175.5800  137.0110 C   0  0  0  0  0  3  0  0  0  0  0  0
  196.0280  175.5840  137.6820 C   0  0  0  0  0  2  0  0  0  0  0  0
  196.6590  174.3210  137.6110 O   0  0  0  0  0  0  0  0  0  0  0  0
  197.2930  174.1020  138.8480 C   0  0  0  0  0  2  0  0  0  0  0  0
  197.3100  175.3660  139.6890 C   0  0  0  0  0  2  0  0  0  0  0  0
  195.6020  176.0160  141.4340 N   0  0  0  0  0  2  0  0  0  0  0  0
  196.7990  173.9980  141.5600 O   0  0  0  0  0  0  0  0  0  0  0  0
  196.5880  175.0970  140.9590 C   0  0  0  0  0  0  0  0  0  0  0  0
  194.7640  175.7240  142.5880 C   0  0  0  0  0  2  0  0  0  0  0  0
  195.1750  176.5450  143.7570 C   0  0  0  0  0  0  0  0  0  0  0  0
  196.3390  176.8790  143.8920 O   0  0  0  0  0  0  0  0  0  0  0  0
  194.1620  176.9790  144.7520 C   0  0  0  0  0  2  0  0  0  0  0  0
  193.7070  175.8560  145.6460 C   0  0  0  0  0  0  0  0  0  0  0  0
  194.5390  175.0500  146.0480 O   0  0  0  0  0  0  0  0  0  0  0  0
  192.2700  175.6820  146.0760 C   0  0  0  0  0  2  0  0  0  0  0  0
  191.5110  176.8020  145.7340 O   0  0  0  0  0  0  0  0  0  0  0  0
  190.4640  176.3250  144.9360 C   0  0  2  0  0  3  0  0  0  0  0  0
  190.9240  178.5670  143.8700 C   0  0  0  0  0  2  0  0  0  0  0  0
  191.1850  177.4570  142.8720 C   0  0  0  0  0  2  0  0  0  0  0  0
  190.0320  177.3390  143.8720 C   0  0  0  0  0  3  0  0  0  0  0  0
  189.2550  175.8940  145.7880 C   0  0  0  0  0  2  0  0  0  0  0  0
  188.1790  176.9640  145.8650 C   0  0  0  0  0  2  0  0  0  0  0  0
  186.9740  176.4160  145.4260 O   0  0  0  0  0  0  0  0  0  0  0  0
  185.2120  179.0030  147.3200 C   0  0  0  0  0  2  0  0  0  0  0  0
  186.0530  176.7750  146.3960 C   0  0  2  0  0  3  0  0  0  0  0  0
  184.8920  177.2450  145.7670 O   0  0  0  0  0  0  0  0  0  0  0  0
  184.2330  178.0140  146.7330 C   0  0  0  0  0  2  0  0  0  0  0  0
  186.7400  178.0760  147.4710 S   0  0  0  0  0  0  0  0  0  0  0  0
  192.3130  171.7390  141.5510 S   0  0  0  0  0  0  0  0  0  0  0  0
  194.0150  171.4500  142.0870 C   0  0  1  0  0  3  0  0  0  0  0  0
  194.4430  172.2010  143.3700 C   0  0  2  0  0  3  0  0  0  0  0  0
  195.8320  172.1770  143.5090 O   0  0  0  0  0  1  0  0  0  0  0  0
  192.4710  172.3010  144.8310 O   0  0  0  0  0  1  0  0  0  0  0  0
  193.7650  171.7930  144.6980 C   0  0  1  0  0  3  0  0  0  0  0  0
  193.7870  170.2890  144.9560 C   0  0  0  0  0  1  0  0  0  0  0  0
  194.5210  170.0060  141.9100 C   0  0  0  0  0  2  0  0  0  0  0  0
  194.7410  169.6410  140.5050 N   0  0  0  0  0  0  0  0  0  0  0  0
  195.3900  170.7670  139.8490 C   0  0  0  0  0  2  0  0  0  0  0  0
  195.9780  168.8530  140.2950 C   0  0  1  0  0  3  0  0  0  0  0  0
  196.6770  170.0260  139.6250 C   0  0  1  0  0  3  0  0  0  0  0  0
  196.7450  168.4170  141.5390 C   0  0  0  0  0  1  0  0  0  0  0  0
  197.0360  170.4830  135.9220 C   0  0  0  0  0  3  0  0  0  0  0  0
  197.2660  169.1790  135.4990 C   0  0  0  0  0  3  0  0  0  0  0  0
  197.1350  168.4700  137.7740 N   0  0  0  0  0  0  0  0  0  0  0  0
  196.8610  170.7520  137.2390 N   0  0  0  0  0  0  0  0  0  0  0  0
  197.3150  168.1680  136.4620 C   0  0  0  0  0  3  0  0  0  0  0  0
  196.9100  169.7460  138.1690 C   0  0  0  0  0  0  0  0  0  0  0  0
  191.5190  174.3100  141.1700 C   0  0  0  0  0  2  0  0  0  0  0  0
  190.4410  174.1370  140.2560 O   0  0  0  0  0  0  0  0  0  0  0  0
  189.1050  174.3850  140.5950 C   0  0  0  0  0  0  0  0  0  0  0  0
  188.6920  174.3680  141.7940 O   0  0  0  0  0  0  0  0  0  0  0  0
  188.1470  174.7220  139.4780 C   0  0  0  0  0  2  0  0  0  0  0  0
  187.1530  175.7340  139.8620 N   0  0  0  0  0  0  0  0  0  0  0  0
  187.7080  176.5760  140.9110 C   0  0  0  0  0  2  0  0  0  0  0  0
  186.7040  176.7750  141.9430 N   0  0  0  0  0  2  0  0  0  0  0  0
  185.8760  177.9450  142.0630 C   0  0  0  0  0  0  0  0  0  0  0  0
  184.6950  178.0320  141.4550 C   0  0  0  0  0  2  0  0  0  0  0  0
  186.1920  178.9410  143.1150 C   0  0  0  0  0  1  0  0  0  0  0  0
  186.8340  176.5840  138.7020 C   0  0  0  0  0  2  0  0  0  0  0  0
  186.7060  176.7570  136.3110 C   0  0  2  0  0  3  0  0  0  0  0  0
  188.0750  176.8420  136.6320 O   0  0  0  0  0  0  0  0  0  0  0  0
  187.3100  175.9430  137.3940 C   0  0  1  0  0  0  0  0  0  0  0  0
  186.1740  175.3780  136.5570 C   0  0  0  0  0  2  0  0  0  0  0  0
  1 55  1  6  0  0  0
  1 36  1  0  0  0  0
  2  6  1  6  0  0  0
  2  1  1  0  0  0  0
  3  2  1  1  0  0  0
  4  5  1  0  0  0  0
  4  3  1  0  0  0  0
  5  3  1  0  0  0  0
  7  6  1  0  0  0  0
  8  7  2  0  0  0  0
  8  9  1  0  0  0  0
 10  9  1  0  0  0  0
 10 11  1  0  0  0  0
 11 12  1  0  0  0  0
 12 15  1  0  0  0  0
 13 16  1  0  0  0  0
 15 13  1  0  0  0  0
 15 14  2  0  0  0  0
 16 17  1  0  0  0  0
 17 18  2  0  0  0  0
 17 19  1  0  0  0  0
 19 20  1  0  0  0  0
 20 21  2  0  0  0  0
 20 22  1  0  0  0  0
 23 22  1  0  0  0  0
 24 23  1  0  0  0  0
 24 28  1  1  0  0  0
 25 27  1  0  0  0  0
 26 25  1  0  0  0  0
 26 27  1  0  0  0  0
 27 24  1  0  0  0  0
 28 29  1  0  0  0  0
 30 29  1  0  0  0  0
 31 35  1  0  0  0  0
 32 30  1  6  0  0  0
 32 35  1  0  0  0  0
 33 32  1  0  0  0  0
 33 34  1  0  0  0  0
 34 31  1  0  0  0  0
 36 37  1  0  0  0  0
 37 43  1  1  0  0  0
 37 38  1  0  0  0  0
 38 39  1  1  0  0  0
 38 41  1  0  0  0  0
 41 40  1  0  0  0  0
 41 42  1  6  0  0  0
 44 43  1  0  0  0  0
 45 44  1  0  0  0  0
 46 44  1  0  0  0  0
 46 48  1  1  0  0  0
 47 54  1  6  0  0  0
 47 45  1  0  0  0  0
 47 46  1  0  0  0  0
 49 52  2  0  0  0  0
 50 49  1  0  0  0  0
 50 53  2  0  0  0  0
 51 54  2  0  0  0  0
 52 54  1  0  0  0  0
 53 51  1  0  0  0  0
 56 57  1  0  0  0  0
 56 55  1  0  0  0  0
 57 58  2  0  0  0  0
 59 60  1  0  0  0  0
 59 57  1  0  0  0  0
 60 61  1  0  0  0  0
 61 62  1  0  0  0  0
 62 63  1  0  0  0  0
 63 65  1  0  0  0  0
 64 63  2  0  0  0  0
 66 60  1  0  0  0  0
 67 70  1  6  0  0  0
 67 68  1  0  0  0  0
 67 69  1  0  0  0  0
 68 69  1  0  0  0  0
 69 66  1  1  0  0  0
 70 69  1  0  0  0  0
M  END
>  <MODEL>
3

>  <REMARK>
 VINA RESULT:      -3.7      2.992      7.818
  Name = 
  38 active torsions:
  status: ('A' for Active; 'I' for Inactive)
    1  A    between atoms: N_1  and  C_51
    2  A    between atoms: C_2  and  C_12
    3  A    between atoms: C_2  and  C_26
    4  A    between atoms: O_3  and  C_9
    5  A    between atoms: O_3  and  C_57
    6  A    between atoms: C_4  and  C_52
    7  A    between atoms: C_6  and  C_57
    8  A    between atoms: C_6  and  C_70
    9  A    between atoms: C_7  and  C_24
   10  A    between atoms: C_7  and  C_51
   11  A    between atoms: C_7  and  S_66
   12  A    between atoms: C_9  and  C_61
   13  A    between atoms: C_10  and  C_52
   14  A    between atoms: C_10  and  S_66
   15  A    between atoms: C_10  and  C_69
   16  A    between atoms: C_11  and  C_26
   17  A    between atoms: C_11  and  N_59
   18  A    between atoms: C_12  and  C_33
   19  A    between atoms: N_15  and  C_27
   20  A    between atoms: N_15  and  C_42
   21  A    between atoms: C_18  and  O_54
   22  A    between atoms: C_19  and  C_45
   23  A    between atoms: C_19  and  N_58
   24  A    between atoms: C_20  and  C_35
   25  A    between atoms: C_20  and  O_54
   26  A    between atoms: C_24  and  C_46
   27  A    between atoms: O_28  and  C_39
   28  A    between atoms: O_28  and  C_69
   29  A    between atoms: C_31  and  O_53
   30  A    between atoms: C_32  and  C_35
   31  A    between atoms: C_32  and  C_62
   32  A    between atoms: C_32  and  O_63
   33  A    between atoms: C_33  and  O_63
   34  A    between atoms: C_37  and  C_49
   35  A    between atoms: C_39  and  C_60
   36  A    between atoms: C_42  and  N_58
   37  A    between atoms: C_52  and  O_53
   38  A    between atoms: N_58  and  C_60
                            x       y       z     vdW  Elec       q    Type
                         _______ _______ _______ _____ _____    ______ ____

>  <TORSDO>
F 38

$$$$
=
 OpenBabel11042418313D

 70 76  0  0  1  0  0  0  0  0999 V2000
  190.4130  175.7940  142.4010 C   0  0  2  0  0  3  0  0  0  0  0  0
  190.5580  174.2530  142.1970 C   0  0  1  0  0  3  0  0  0  0  0  0
  189.2420  173.4490  142.3340 C   0  0  1  0  0  3  0  0  0  0  0  0
  189.1750  172.4080  141.3800 O   0  0  0  0  0  0  0  0  0  0  0  0
  189.3950  172.0240  142.7100 C   0  0  0  0  0  2  0  0  0  0  0  0
  191.2140  173.9700  140.9440 O   0  0  0  0  0  0  0  0  0  0  0  0
  192.2520  173.0420  140.7720 C   0  0  0  0  0  3  0  0  0  0  0  0
  193.4350  173.4090  140.2780 C   0  0  0  0  0  3  0  0  0  0  0  0
  193.7320  174.8130  139.8430 C   0  0  0  0  0  2  0  0  0  0  0  0
  195.1190  175.0310  139.6700 O   0  0  0  0  0  0  0  0  0  0  0  0
  195.6760  173.8230  139.2140 C   0  0  0  0  0  2  0  0  0  0  0  0
  197.0740  173.6160  139.7670 C   0  0  0  0  0  2  0  0  0  0  0  0
  196.7000  171.4840  141.0710 N   0  0  0  0  0  2  0  0  0  0  0  0
  197.9400  171.5170  139.0740 O   0  0  0  0  0  0  0  0  0  0  0  0
  197.2950  172.1600  139.9600 C   0  0  0  0  0  0  0  0  0  0  0  0
  196.7610  170.0370  141.2190 C   0  0  0  0  0  2  0  0  0  0  0  0
  195.5970  169.3910  140.5570 C   0  0  0  0  0  0  0  0  0  0  0  0
  195.7730  168.5010  139.7430 O   0  0  0  0  0  0  0  0  0  0  0  0
  194.2170  169.8110  140.9050 C   0  0  0  0  0  2  0  0  0  0  0  0
  193.2000  169.3650  139.8870 C   0  0  0  0  0  0  0  0  0  0  0  0
  192.3410  168.5590  140.2280 O   0  0  0  0  0  0  0  0  0  0  0  0
  193.1890  169.8710  138.4650 C   0  0  0  0  0  2  0  0  0  0  0  0
  192.2050  170.8460  138.2930 O   0  0  0  0  0  0  0  0  0  0  0  0
  192.1890  171.1340  136.9220 C   0  0  2  0  0  3  0  0  0  0  0  0
  189.7760  170.4410  136.6520 C   0  0  0  0  0  2  0  0  0  0  0  0
  190.2370  171.1980  135.4230 C   0  0  0  0  0  2  0  0  0  0  0  0
  191.1980  170.2560  136.1530 C   0  0  0  0  0  3  0  0  0  0  0  0
  193.5960  171.0220  136.3040 C   0  0  0  0  0  2  0  0  0  0  0  0
  194.2960  172.3650  136.1870 C   0  0  0  0  0  2  0  0  0  0  0  0
  193.4380  173.3560  136.6630 O   0  0  0  0  0  0  0  0  0  0  0  0
  194.1780  176.7600  135.5440 C   0  0  0  0  0  2  0  0  0  0  0  0
  193.4320  174.3200  135.6680 C   0  0  2  0  0  3  0  0  0  0  0  0
  194.7390  174.4870  135.1910 O   0  0  0  0  0  0  0  0  0  0  0  0
  194.7520  175.7480  134.5820 C   0  0  0  0  0  2  0  0  0  0  0  0
  192.8090  175.9020  136.3240 S   0  0  0  0  0  0  0  0  0  0  0  0
  191.8250  176.6040  143.2030 S   0  0  0  0  0  0  0  0  0  0  0  0
  192.2940  175.1470  144.1650 C   0  0  1  0  0  3  0  0  0  0  0  0
  193.8110  174.9800  144.4200 C   0  0  2  0  0  3  0  0  0  0  0  0
  194.5250  176.0080  143.8020 O   0  0  0  0  0  1  0  0  0  0  0  0
  195.5920  173.3400  144.8350 O   0  0  0  0  0  1  0  0  0  0  0  0
  194.4460  173.6110  144.0840 C   0  0  1  0  0  3  0  0  0  0  0  0
  193.4610  172.4480  144.1580 C   0  0  0  0  0  1  0  0  0  0  0  0
  191.3390  174.7880  145.3190 C   0  0  0  0  0  2  0  0  0  0  0  0
  190.3160  175.8130  145.5610 N   0  0  0  0  0  0  0  0  0  0  0  0
  189.0410  175.1350  145.7450 C   0  0  0  0  0  2  0  0  0  0  0  0
  190.2490  176.2460  146.9750 C   0  0  1  0  0  3  0  0  0  0  0  0
  188.9260  175.5270  147.1900 C   0  0  1  0  0  3  0  0  0  0  0  0
  191.3110  175.6990  147.9230 C   0  0  0  0  0  1  0  0  0  0  0  0
  185.5400  176.9830  147.8750 C   0  0  0  0  0  3  0  0  0  0  0  0
  185.7850  178.3430  147.7330 C   0  0  0  0  0  3  0  0  0  0  0  0
  188.0710  177.8330  147.2710 N   0  0  0  0  0  0  0  0  0  0  0  0
  186.5460  176.0880  147.7140 N   0  0  0  0  0  0  0  0  0  0  0  0
  187.0850  178.7550  147.4260 C   0  0  0  0  0  3  0  0  0  0  0  0
  187.8140  176.5100  147.4110 C   0  0  0  0  0  0  0  0  0  0  0  0
  189.1370  176.2120  143.1400 C   0  0  0  0  0  2  0  0  0  0  0  0
  188.7900  177.5520  142.8060 O   0  0  0  0  0  0  0  0  0  0  0  0
  188.3060  177.9240  141.5450 C   0  0  0  0  0  0  0  0  0  0  0  0
  188.8050  178.8840  140.8820 O   0  0  0  0  0  0  0  0  0  0  0  0
  187.1770  177.1140  140.9580 C   0  0  0  0  0  2  0  0  0  0  0  0
  186.3870  177.8640  139.9710 N   0  0  0  0  0  0  0  0  0  0  0  0
  185.8230  176.9350  139.0030 C   0  0  0  0  0  2  0  0  0  0  0  0
  186.8330  175.9550  138.6390 N   0  0  0  0  0  2  0  0  0  0  0  0
  187.2480  175.6730  137.2910 C   0  0  0  0  0  0  0  0  0  0  0  0
  188.1340  174.7180  137.0170 C   0  0  0  0  0  2  0  0  0  0  0  0
  186.4620  176.2350  136.1670 C   0  0  0  0  0  1  0  0  0  0  0  0
  185.2800  178.5620  140.6450 C   0  0  0  0  0  2  0  0  0  0  0  0
  183.9570  178.5120  142.6480 C   0  0  2  0  0  3  0  0  0  0  0  0
  183.1620  177.9250  141.6450 O   0  0  0  0  0  0  0  0  0  0  0  0
  184.5340  177.6290  141.6050 C   0  0  1  0  0  0  0  0  0  0  0  0
  185.1130  177.6310  143.0100 C   0  0  0  0  0  2  0  0  0  0  0  0
  1 55  1  1  0  0  0
  1 36  1  0  0  0  0
  2  6  1  6  0  0  0
  2  1  1  0  0  0  0
  3  2  1  6  0  0  0
  3  5  1  0  0  0  0
  4  3  1  0  0  0  0
  4  5  1  0  0  0  0
  7  6  1  0  0  0  0
  8  7  2  0  0  0  0
  9  8  1  0  0  0  0
 10  9  1  0  0  0  0
 11 10  1  0  0  0  0
 11 12  1  0  0  0  0
 12 15  1  0  0  0  0
 13 16  1  0  0  0  0
 14 15  2  0  0  0  0
 15 13  1  0  0  0  0
 17 19  1  0  0  0  0
 17 16  1  0  0  0  0
 18 17  2  0  0  0  0
 20 21  2  0  0  0  0
 20 19  1  0  0  0  0
 22 20  1  0  0  0  0
 23 22  1  0  0  0  0
 24 28  1  6  0  0  0
 24 23  1  0  0  0  0
 26 27  1  0  0  0  0
 26 25  1  0  0  0  0
 27 25  1  0  0  0  0
 27 24  1  0  0  0  0
 29 28  1  0  0  0  0
 29 30  1  0  0  0  0
 31 35  1  0  0  0  0
 32 35  1  0  0  0  0
 32 30  1  1  0  0  0
 33 32  1  0  0  0  0
 34 33  1  0  0  0  0
 34 31  1  0  0  0  0
 36 37  1  0  0  0  0
 37 38  1  0  0  0  0
 37 43  1  1  0  0  0
 38 39  1  6  0  0  0
 41 42  1  1  0  0  0
 41 38  1  0  0  0  0
 41 40  1  0  0  0  0
 43 44  1  0  0  0  0
 44 45  1  0  0  0  0
 44 46  1  0  0  0  0
 45 47  1  0  0  0  0
 46 47  1  0  0  0  0
 46 48  1  1  0  0  0
 47 54  1  6  0  0  0
 50 49  1  0  0  0  0
 51 54  2  0  0  0  0
 51 53  1  0  0  0  0
 52 49  2  0  0  0  0
 53 50  2  0  0  0  0
 54 52  1  0  0  0  0
 56 55  1  0  0  0  0
 57 56  1  0  0  0  0
 58 57  2  0  0  0  0
 59 57  1  0  0  0  0
 60 66  1  0  0  0  0
 60 59  1  0  0  0  0
 61 60  1  0  0  0  0
 62 61  1  0  0  0  0
 63 62  1  0  0  0  0
 64 63  2  0  0  0  0
 65 63  1  0  0  0  0
 67 70  1  1  0  0  0
 68 67  1  0  0  0  0
 69 66  1  6  0  0  0
 69 68  1  0  0  0  0
 69 67  1  0  0  0  0
 69 70  1  0  0  0  0
M  END
>  <MODEL>
4

>  <REMARK>
 VINA RESULT:      -3.6      3.130     10.631
  Name = 
  38 active torsions:
  status: ('A' for Active; 'I' for Inactive)
    1  A    between atoms: N_1  and  C_51
    2  A    between atoms: C_2  and  C_12
    3  A    between atoms: C_2  and  C_26
    4  A    between atoms: O_3  and  C_9
    5  A    between atoms: O_3  and  C_57
    6  A    between atoms: C_4  and  C_52
    7  A    between atoms: C_6  and  C_57
    8  A    between atoms: C_6  and  C_70
    9  A    between atoms: C_7  and  C_24
   10  A    between atoms: C_7  and  C_51
   11  A    between atoms: C_7  and  S_66
   12  A    between atoms: C_9  and  C_61
   13  A    between atoms: C_10  and  C_52
   14  A    between atoms: C_10  and  S_66
   15  A    between atoms: C_10  and  C_69
   16  A    between atoms: C_11  and  C_26
   17  A    between atoms: C_11  and  N_59
   18  A    between atoms: C_12  and  C_33
   19  A    between atoms: N_15  and  C_27
   20  A    between atoms: N_15  and  C_42
   21  A    between atoms: C_18  and  O_54
   22  A    between atoms: C_19  and  C_45
   23  A    between atoms: C_19  and  N_58
   24  A    between atoms: C_20  and  C_35
   25  A    between atoms: C_20  and  O_54
   26  A    between atoms: C_24  and  C_46
   27  A    between atoms: O_28  and  C_39
   28  A    between atoms: O_28  and  C_69
   29  A    between atoms: C_31  and  O_53
   30  A    between atoms: C_32  and  C_35
   31  A    between atoms: C_32  and  C_62
   32  A    between atoms: C_32  and  O_63
   33  A    between atoms: C_33  and  O_63
   34  A    between atoms: C_37  and  C_49
   35  A    between atoms: C_39  and  C_60
   36  A    between atoms: C_42  and  N_58
   37  A    between atoms: C_52  and  O_53
   38  A    between atoms: N_58  and  C_60
                            x       y       z     vdW  Elec       q    Type
                         _______ _______ _______ _____ _____    ______ ____

>  <TORSDO>
F 38

$$$$
=
 OpenBabel11042418313D

 70 76  0  0  1  0  0  0  0  0999 V2000
  189.4980  174.7500  141.6780 C   0  0  2  0  0  3  0  0  0  0  0  0
  189.8190  174.1140  143.0680 C   0  0  1  0  0  3  0  0  0  0  0  0
  190.0790  172.5880  143.0430 C   0  0  1  0  0  3  0  0  0  0  0  0
  189.5520  171.9590  144.1950 O   0  0  0  0  0  0  0  0  0  0  0  0
  188.8700  171.7310  142.9920 C   0  0  0  0  0  2  0  0  0  0  0  0
  190.9040  174.8180  143.7070 O   0  0  0  0  0  0  0  0  0  0  0  0
  190.7500  175.8670  144.6250 C   0  0  0  0  0  3  0  0  0  0  0  0
  191.7220  176.1870  145.4810 C   0  0  0  0  0  3  0  0  0  0  0  0
  193.0200  175.4390  145.5500 C   0  0  0  0  0  2  0  0  0  0  0  0
  194.0290  176.0570  144.7750 O   0  0  0  0  0  0  0  0  0  0  0  0
  195.2570  175.4940  145.1670 C   0  0  0  0  0  2  0  0  0  0  0  0
  196.4080  176.0650  144.3580 C   0  0  0  0  0  2  0  0  0  0  0  0
  197.1270  176.1600  141.9370 N   0  0  0  0  0  2  0  0  0  0  0  0
  195.2130  174.9790  142.6180 O   0  0  0  0  0  0  0  0  0  0  0  0
  196.1900  175.7290  142.9270 C   0  0  0  0  0  0  0  0  0  0  0  0
  197.0390  175.7300  140.5490 C   0  0  0  0  0  2  0  0  0  0  0  0
  196.8450  174.2590  140.4660 C   0  0  0  0  0  0  0  0  0  0  0  0
  197.3620  173.5250  141.2900 O   0  0  0  0  0  0  0  0  0  0  0  0
  196.0000  173.6810  139.3910 C   0  0  0  0  0  2  0  0  0  0  0  0
  194.8230  172.9090  139.9290 C   0  0  0  0  0  0  0  0  0  0  0  0
  193.7690  173.5030  140.1250 O   0  0  0  0  0  0  0  0  0  0  0  0
  194.8840  171.4310  140.2320 C   0  0  0  0  0  2  0  0  0  0  0  0
  194.9230  171.2080  141.6090 O   0  0  0  0  0  0  0  0  0  0  0  0
  194.1120  170.0880  141.8370 C   0  0  2  0  0  3  0  0  0  0  0  0
  194.1750  168.1680  140.1980 C   0  0  0  0  0  2  0  0  0  0  0  0
  192.8360  168.1990  140.9080 C   0  0  0  0  0  2  0  0  0  0  0  0
  193.5430  169.5060  140.5400 C   0  0  0  0  0  3  0  0  0  0  0  0
  192.9740  170.4060  142.8260 C   0  0  0  0  0  2  0  0  0  0  0  0
  193.0380  169.5620  144.0880 C   0  0  0  0  0  2  0  0  0  0  0  0
  194.3250  169.0380  144.2070 O   0  0  0  0  0  0  0  0  0  0  0  0
  196.5060  169.1800  147.1400 C   0  0  0  0  0  2  0  0  0  0  0  0
  194.9020  169.7590  145.2390 C   0  0  2  0  0  3  0  0  0  0  0  0
  196.2490  169.9910  144.9310 O   0  0  0  0  0  0  0  0  0  0  0  0
  196.8670  170.2680  146.1570 C   0  0  0  0  0  2  0  0  0  0  0  0
  194.7790  168.8340  146.8040 S   0  0  0  0  0  0  0  0  0  0  0  0
  187.7440  174.7470  141.2130 S   0  0  0  0  0  0  0  0  0  0  0  0
  187.8390  176.3030  140.2980 C   0  0  1  0  0  3  0  0  0  0  0  0
  187.2230  176.2770  138.8790 C   0  0  2  0  0  3  0  0  0  0  0  0
  185.8300  176.2550  138.9520 O   0  0  0  0  0  1  0  0  0  0  0  0
  187.1860  173.9260  138.1650 O   0  0  0  0  0  1  0  0  0  0  0  0
  187.7250  175.1880  137.9020 C   0  0  1  0  0  3  0  0  0  0  0  0
  187.5480  175.5590  136.4330 C   0  0  0  0  0  1  0  0  0  0  0  0
  187.6210  177.5740  141.1410 C   0  0  0  0  0  2  0  0  0  0  0  0
  187.0300  177.2990  142.4560 N   0  0  0  0  0  0  0  0  0  0  0  0
  187.5290  178.3010  143.3860 C   0  0  0  0  0  2  0  0  0  0  0  0
  185.6760  177.8750  142.6180 C   0  0  1  0  0  3  0  0  0  0  0  0
  186.1840  178.9410  143.5770 C   0  0  1  0  0  3  0  0  0  0  0  0
  185.0430  178.5220  141.3910 C   0  0  0  0  0  1  0  0  0  0  0  0
  185.8950  178.8400  147.3120 C   0  0  0  0  0  3  0  0  0  0  0  0
  184.6720  178.2020  147.4820 C   0  0  0  0  0  3  0  0  0  0  0  0
  184.4560  178.0910  145.1080 N   0  0  0  0  0  0  0  0  0  0  0  0
  186.3690  179.0860  146.0660 N   0  0  0  0  0  0  0  0  0  0  0  0
  183.9540  177.8300  146.3430 C   0  0  0  0  0  3  0  0  0  0  0  0
  185.6510  178.7120  144.9600 C   0  0  0  0  0  0  0  0  0  0  0  0
  190.3040  174.1590  140.5160 C   0  0  0  0  0  2  0  0  0  0  0  0
  189.7360  172.9210  140.1020 O   0  0  0  0  0  0  0  0  0  0  0  0
  190.1280  172.2530  138.9340 C   0  0  0  0  0  0  0  0  0  0  0  0
  190.1200  170.9880  138.8390 O   0  0  0  0  0  0  0  0  0  0  0  0
  190.5320  173.0920  137.7460 C   0  0  0  0  0  2  0  0  0  0  0  0
  191.9630  172.9860  137.4300 N   0  0  0  0  0  0  0  0  0  0  0  0
  192.2910  171.5950  137.1530 C   0  0  0  0  0  2  0  0  0  0  0  0
  193.2150  171.5380  136.0330 N   0  0  0  0  0  2  0  0  0  0  0  0
  194.0010  170.3850  135.6810 C   0  0  0  0  0  0  0  0  0  0  0  0
  194.8370  170.3980  134.6450 C   0  0  0  0  0  2  0  0  0  0  0  0
  194.1150  169.2730  136.6540 C   0  0  0  0  0  1  0  0  0  0  0  0
  192.2700  173.7850  136.2320 C   0  0  0  0  0  2  0  0  0  0  0  0
  193.3470  175.7190  135.3020 C   0  0  2  0  0  3  0  0  0  0  0  0
  192.5610  176.1910  136.3710 O   0  0  0  0  0  0  0  0  0  0  0  0
  193.2000  174.9550  136.5660 C   0  0  1  0  0  0  0  0  0  0  0  0
  194.5110  174.9150  135.7960 C   0  0  0  0  0  2  0  0  0  0  0  0
  1 55  1  6  0  0  0
  1  2  1  0  0  0  0
  2  6  1  6  0  0  0
  3  2  1  1  0  0  0
  3  4  1  0  0  0  0
  5  3  1  0  0  0  0
  5  4  1  0  0  0  0
  6  7  1  0  0  0  0
  7  8  2  0  0  0  0
  8  9  1  0  0  0  0
 10 11  1  0  0  0  0
 10  9  1  0  0  0  0
 12 11  1  0  0  0  0
 13 15  1  0  0  0  0
 14 15  2  0  0  0  0
 15 12  1  0  0  0  0
 16 13  1  0  0  0  0
 17 16  1  0  0  0  0
 17 18  2  0  0  0  0
 19 20  1  0  0  0  0
 19 17  1  0  0  0  0
 20 21  2  0  0  0  0
 20 22  1  0  0  0  0
 22 23  1  0  0  0  0
 23 24  1  0  0  0  0
 24 28  1  1  0  0  0
 25 27  1  0  0  0  0
 25 26  1  0  0  0  0
 27 26  1  0  0  0  0
 27 24  1  0  0  0  0
 28 29  1  0  0  0  0
 29 30  1  0  0  0  0
 32 30  1  6  0  0  0
 32 35  1  0  0  0  0
 33 32  1  0  0  0  0
 33 34  1  0  0  0  0
 34 31  1  0  0  0  0
 35 31  1  0  0  0  0
 36  1  1  0  0  0  0
 37 43  1  1  0  0  0
 37 36  1  0  0  0  0
 38 39  1  1  0  0  0
 38 37  1  0  0  0  0
 41 42  1  6  0  0  0
 41 40  1  0  0  0  0
 41 38  1  0  0  0  0
 43 44  1  0  0  0  0
 44 46  1  0  0  0  0
 44 45  1  0  0  0  0
 45 47  1  0  0  0  0
 46 48  1  6  0  0  0
 46 47  1  0  0  0  0
 47 54  1  1  0  0  0
 49 50  1  0  0  0  0
 51 53  1  0  0  0  0
 52 49  2  0  0  0  0
 53 50  2  0  0  0  0
 54 51  2  0  0  0  0
 54 52  1  0  0  0  0
 56 55  1  0  0  0  0
 57 56  1  0  0  0  0
 58 57  2  0  0  0  0
 59 57  1  0  0  0  0
 60 59  1  0  0  0  0
 61 60  1  0  0  0  0
 62 61  1  0  0  0  0
 63 62  1  0  0  0  0
 63 65  1  0  0  0  0
 64 63  2  0  0  0  0
 66 60  1  0  0  0  0
 67 70  1  1  0  0  0
 67 68  1  0  0  0  0
 67 69  1  0  0  0  0
 68 69  1  0  0  0  0
 69 66  1  6  0  0  0
 70 69  1  0  0  0  0
M  END
>  <MODEL>
5

>  <REMARK>
 VINA RESULT:      -3.0      3.073     10.446
  Name = 
  38 active torsions:
  status: ('A' for Active; 'I' for Inactive)
    1  A    between atoms: N_1  and  C_51
    2  A    between atoms: C_2  and  C_12
    3  A    between atoms: C_2  and  C_26
    4  A    between atoms: O_3  and  C_9
    5  A    between atoms: O_3  and  C_57
    6  A    between atoms: C_4  and  C_52
    7  A    between atoms: C_6  and  C_57
    8  A    between atoms: C_6  and  C_70
    9  A    between atoms: C_7  and  C_24
   10  A    between atoms: C_7  and  C_51
   11  A    between atoms: C_7  and  S_66
   12  A    between atoms: C_9  and  C_61
   13  A    between atoms: C_10  and  C_52
   14  A    between atoms: C_10  and  S_66
   15  A    between atoms: C_10  and  C_69
   16  A    between atoms: C_11  and  C_26
   17  A    between atoms: C_11  and  N_59
   18  A    between atoms: C_12  and  C_33
   19  A    between atoms: N_15  and  C_27
   20  A    between atoms: N_15  and  C_42
   21  A    between atoms: C_18  and  O_54
   22  A    between atoms: C_19  and  C_45
   23  A    between atoms: C_19  and  N_58
   24  A    between atoms: C_20  and  C_35
   25  A    between atoms: C_20  and  O_54
   26  A    between atoms: C_24  and  C_46
   27  A    between atoms: O_28  and  C_39
   28  A    between atoms: O_28  and  C_69
   29  A    between atoms: C_31  and  O_53
   30  A    between atoms: C_32  and  C_35
   31  A    between atoms: C_32  and  C_62
   32  A    between atoms: C_32  and  O_63
   33  A    between atoms: C_33  and  O_63
   34  A    between atoms: C_37  and  C_49
   35  A    between atoms: C_39  and  C_60
   36  A    between atoms: C_42  and  N_58
   37  A    between atoms: C_52  and  O_53
   38  A    between atoms: N_58  and  C_60
                            x       y       z     vdW  Elec       q    Type
                         _______ _______ _______ _____ _____    ______ ____

>  <TORSDO>
F 38

$$$$
=
 OpenBabel11042418313D

 70 76  0  0  1  0  0  0  0  0999 V2000
  190.0990  176.0000  142.6100 C   0  0  2  0  0  3  0  0  0  0  0  0
  190.2110  174.4610  142.3680 C   0  0  1  0  0  3  0  0  0  0  0  0
  188.8610  173.7030  142.3600 C   0  0  1  0  0  3  0  0  0  0  0  0
  188.8100  172.7570  141.3100 O   0  0  0  0  0  0  0  0  0  0  0  0
  188.9430  172.2430  142.6070 C   0  0  0  0  0  2  0  0  0  0  0  0
  190.9680  174.1920  141.1700 O   0  0  0  0  0  0  0  0  0  0  0  0
  192.1090  173.3780  141.1060 C   0  0  0  0  0  3  0  0  0  0  0  0
  192.9220  173.4060  140.0490 C   0  0  0  0  0  3  0  0  0  0  0  0
  192.6640  174.2700  138.8500 C   0  0  0  0  0  2  0  0  0  0  0  0
  193.8570  174.8280  138.3350 O   0  0  0  0  0  0  0  0  0  0  0  0
  194.8990  173.9330  138.6370 C   0  0  0  0  0  2  0  0  0  0  0  0
  196.2480  174.6300  138.6190 C   0  0  0  0  0  2  0  0  0  0  0  0
  197.0710  174.2140  140.9720 N   0  0  0  0  0  2  0  0  0  0  0  0
  197.9220  173.0270  139.1310 O   0  0  0  0  0  0  0  0  0  0  0  0
  197.1500  173.9340  139.5720 C   0  0  0  0  0  0  0  0  0  0  0  0
  197.8250  173.4520  141.9570 C   0  0  0  0  0  2  0  0  0  0  0  0
  196.9910  172.3650  142.5320 C   0  0  0  0  0  0  0  0  0  0  0  0
  197.4580  171.2480  142.6780 O   0  0  0  0  0  0  0  0  0  0  0  0
  195.5960  172.6420  142.9540 C   0  0  0  0  0  2  0  0  0  0  0  0
  194.7700  171.3890  143.0910 C   0  0  0  0  0  0  0  0  0  0  0  0
  194.1520  171.2040  144.1330 O   0  0  0  0  0  0  0  0  0  0  0  0
  194.6670  170.3530  141.9980 C   0  0  0  0  0  2  0  0  0  0  0  0
  193.5260  170.5630  141.2220 O   0  0  0  0  0  0  0  0  0  0  0  0
  193.5260  169.5440  140.2600 C   0  0  2  0  0  3  0  0  0  0  0  0
  191.5630  168.5730  141.5170 C   0  0  0  0  0  2  0  0  0  0  0  0
  191.4880  168.1780  140.0560 C   0  0  0  0  0  2  0  0  0  0  0  0
  192.8440  168.2680  140.7620 C   0  0  0  0  0  3  0  0  0  0  0  0
  194.9530  169.2320  139.7690 C   0  0  0  0  0  2  0  0  0  0  0  0
  195.2780  169.9020  138.4450 C   0  0  0  0  0  2  0  0  0  0  0  0
  196.6280  170.2490  138.4420 O   0  0  0  0  0  0  0  0  0  0  0  0
  195.9520  169.1510  135.0180 C   0  0  0  0  0  2  0  0  0  0  0  0
  197.0100  170.1590  137.1130 C   0  0  2  0  0  3  0  0  0  0  0  0
  196.2600  171.0750  136.3630 O   0  0  0  0  0  0  0  0  0  0  0  0
  196.3260  170.6140  135.0430 C   0  0  0  0  0  2  0  0  0  0  0  0
  196.7260  168.4710  136.4870 S   0  0  0  0  0  0  0  0  0  0  0  0
  191.5190  176.7550  143.4520 S   0  0  0  0  0  0  0  0  0  0  0  0
  191.8390  175.3180  144.5010 C   0  0  1  0  0  3  0  0  0  0  0  0
  193.2800  175.2100  145.0560 C   0  0  2  0  0  3  0  0  0  0  0  0
  193.2560  174.9400  146.4250 O   0  0  0  0  0  1  0  0  0  0  0  0
  195.1520  176.6170  145.7960 O   0  0  0  0  0  1  0  0  0  0  0  0
  194.2500  176.3760  144.7570 C   0  0  1  0  0  3  0  0  0  0  0  0
  194.9810  176.2340  143.4250 C   0  0  0  0  0  1  0  0  0  0  0  0
  190.6860  174.9250  145.4440 C   0  0  0  0  0  2  0  0  0  0  0  0
  189.6610  175.9690  145.5670 N   0  0  0  0  0  0  0  0  0  0  0  0
  188.3900  175.3140  145.8400 C   0  0  0  0  0  2  0  0  0  0  0  0
  189.6020  176.5690  146.9190 C   0  0  1  0  0  3  0  0  0  0  0  0
  188.2820  175.8770  147.2280 C   0  0  1  0  0  3  0  0  0  0  0  0
  190.6720  176.1430  147.9180 C   0  0  0  0  0  1  0  0  0  0  0  0
  186.4180  179.1060  147.6060 C   0  0  0  0  0  3  0  0  0  0  0  0
  185.0990  178.6700  147.6130 C   0  0  0  0  0  3  0  0  0  0  0  0
  185.8880  176.4350  147.3400 N   0  0  0  0  0  0  0  0  0  0  0  0
  187.4310  178.2150  147.4700 N   0  0  0  0  0  0  0  0  0  0  0  0
  184.8510  177.3020  147.4740 C   0  0  0  0  0  3  0  0  0  0  0  0
  187.1690  176.8760  147.3370 C   0  0  0  0  0  0  0  0  0  0  0  0
  188.8230  176.4300  143.3410 C   0  0  0  0  0  2  0  0  0  0  0  0
  188.4900  177.7720  143.0020 O   0  0  0  0  0  0  0  0  0  0  0  0
  188.0230  178.1470  141.7360 C   0  0  0  0  0  0  0  0  0  0  0  0
  188.5470  179.0920  141.0710 O   0  0  0  0  0  0  0  0  0  0  0  0
  186.8810  177.3580  141.1440 C   0  0  0  0  0  2  0  0  0  0  0  0
  186.0260  178.1630  140.2600 N   0  0  0  0  0  0  0  0  0  0  0  0
  185.5730  177.3370  139.1500 C   0  0  0  0  0  2  0  0  0  0  0  0
  186.7250  176.7200  138.5140 N   0  0  0  0  0  2  0  0  0  0  0  0
  186.6760  175.9750  137.2840 C   0  0  0  0  0  0  0  0  0  0  0  0
  187.5430  174.9990  137.0230 C   0  0  0  0  0  2  0  0  0  0  0  0
  185.4700  176.0820  136.4300 C   0  0  0  0  0  1  0  0  0  0  0  0
  184.8460  178.6340  141.0020 C   0  0  0  0  0  2  0  0  0  0  0  0
  183.9210  179.0740  143.1740 C   0  0  2  0  0  3  0  0  0  0  0  0
  183.6780  177.7110  142.9200 O   0  0  0  0  0  0  0  0  0  0  0  0
  184.9110  178.2170  142.4750 C   0  0  1  0  0  0  0  0  0  0  0  0
  185.3810  179.3350  143.3920 C   0  0  0  0  0  2  0  0  0  0  0  0
  1 55  1  1  0  0  0
  1 36  1  0  0  0  0
  2  6  1  6  0  0  0
  2  1  1  0  0  0  0
  3  2  1  6  0  0  0
  3  5  1  0  0  0  0
  4  3  1  0  0  0  0
  4  5  1  0  0  0  0
  7  6  1  0  0  0  0
  8  7  2  0  0  0  0
  9  8  1  0  0  0  0
 10 11  1  0  0  0  0
 10  9  1  0  0  0  0
 12 11  1  0  0  0  0
 12 15  1  0  0  0  0
 13 16  1  0  0  0  0
 14 15  2  0  0  0  0
 15 13  1  0  0  0  0
 16 17  1  0  0  0  0
 17 18  2  0  0  0  0
 17 19  1  0  0  0  0
 19 20  1  0  0  0  0
 20 21  2  0  0  0  0
 22 20  1  0  0  0  0
 23 22  1  0  0  0  0
 24 28  1  1  0  0  0
 24 27  1  0  0  0  0
 24 23  1  0  0  0  0
 26 27  1  0  0  0  0
 26 25  1  0  0  0  0
 27 25  1  0  0  0  0
 29 28  1  0  0  0  0
 30 29  1  0  0  0  0
 31 34  1  0  0  0  0
 31 35  1  0  0  0  0
 32 30  1  1  0  0  0
 33 32  1  0  0  0  0
 34 33  1  0  0  0  0
 35 32  1  0  0  0  0
 36 37  1  0  0  0  0
 37 38  1  0  0  0  0
 37 43  1  1  0  0  0
 38 39  1  1  0  0  0
 41 42  1  6  0  0  0
 41 38  1  0  0  0  0
 41 40  1  0  0  0  0
 43 44  1  0  0  0  0
 44 45  1  0  0  0  0
 44 46  1  0  0  0  0
 45 47  1  0  0  0  0
 46 47  1  0  0  0  0
 46 48  1  1  0  0  0
 47 54  1  6  0  0  0
 49 50  1  0  0  0  0
 51 53  1  0  0  0  0
 52 49  2  0  0  0  0
 53 50  2  0  0  0  0
 54 51  2  0  0  0  0
 54 52  1  0  0  0  0
 56 55  1  0  0  0  0
 57 56  1  0  0  0  0
 58 57  2  0  0  0  0
 59 57  1  0  0  0  0
 60 66  1  0  0  0  0
 60 59  1  0  0  0  0
 61 60  1  0  0  0  0
 62 61  1  0  0  0  0
 63 62  1  0  0  0  0
 64 63  2  0  0  0  0
 65 63  1  0  0  0  0
 67 70  1  1  0  0  0
 68 67  1  0  0  0  0
 69 66  1  6  0  0  0
 69 68  1  0  0  0  0
 69 67  1  0  0  0  0
 69 70  1  0  0  0  0
M  END
>  <MODEL>
6

>  <REMARK>
 VINA RESULT:      -3.0      3.291     11.317
  Name = 
  38 active torsions:
  status: ('A' for Active; 'I' for Inactive)
    1  A    between atoms: N_1  and  C_51
    2  A    between atoms: C_2  and  C_12
    3  A    between atoms: C_2  and  C_26
    4  A    between atoms: O_3  and  C_9
    5  A    between atoms: O_3  and  C_57
    6  A    between atoms: C_4  and  C_52
    7  A    between atoms: C_6  and  C_57
    8  A    between atoms: C_6  and  C_70
    9  A    between atoms: C_7  and  C_24
   10  A    between atoms: C_7  and  C_51
   11  A    between atoms: C_7  and  S_66
   12  A    between atoms: C_9  and  C_61
   13  A    between atoms: C_10  and  C_52
   14  A    between atoms: C_10  and  S_66
   15  A    between atoms: C_10  and  C_69
   16  A    between atoms: C_11  and  C_26
   17  A    between atoms: C_11  and  N_59
   18  A    between atoms: C_12  and  C_33
   19  A    between atoms: N_15  and  C_27
   20  A    between atoms: N_15  and  C_42
   21  A    between atoms: C_18  and  O_54
   22  A    between atoms: C_19  and  C_45
   23  A    between atoms: C_19  and  N_58
   24  A    between atoms: C_20  and  C_35
   25  A    between atoms: C_20  and  O_54
   26  A    between atoms: C_24  and  C_46
   27  A    between atoms: O_28  and  C_39
   28  A    between atoms: O_28  and  C_69
   29  A    between atoms: C_31  and  O_53
   30  A    between atoms: C_32  and  C_35
   31  A    between atoms: C_32  and  C_62
   32  A    between atoms: C_32  and  O_63
   33  A    between atoms: C_33  and  O_63
   34  A    between atoms: C_37  and  C_49
   35  A    between atoms: C_39  and  C_60
   36  A    between atoms: C_42  and  N_58
   37  A    between atoms: C_52  and  O_53
   38  A    between atoms: N_58  and  C_60
                            x       y       z     vdW  Elec       q    Type
                         _______ _______ _______ _____ _____    ______ ____

>  <TORSDO>
F 38

$$$$
=
 OpenBabel11042418313D

 70 76  0  0  1  0  0  0  0  0999 V2000
  193.0050  172.9650  140.8110 C   0  0  2  0  0  3  0  0  0  0  0  0
  192.1880  171.8560  140.0740 C   0  0  1  0  0  3  0  0  0  0  0  0
  191.4830  170.8380  141.0030 C   0  0  1  0  0  3  0  0  0  0  0  0
  191.7140  169.5100  140.5770 O   0  0  0  0  0  0  0  0  0  0  0  0
  192.3780  169.9160  141.7420 C   0  0  0  0  0  2  0  0  0  0  0  0
  191.2560  172.4500  139.1460 O   0  0  0  0  0  0  0  0  0  0  0  0
  190.7870  171.8360  137.9750 C   0  0  0  0  0  3  0  0  0  0  0  0
  189.5840  172.1230  137.4760 C   0  0  0  0  0  3  0  0  0  0  0  0
  188.6400  173.0840  138.1360 C   0  0  0  0  0  2  0  0  0  0  0  0
  188.3070  172.6800  139.4500 O   0  0  0  0  0  0  0  0  0  0  0  0
  187.6760  173.7720  140.0730 C   0  0  0  0  0  2  0  0  0  0  0  0
  187.4490  174.9090  139.0940 C   0  0  0  0  0  2  0  0  0  0  0  0
  186.0240  176.8720  139.8050 N   0  0  0  0  0  2  0  0  0  0  0  0
  188.1960  176.5450  140.6440 O   0  0  0  0  0  0  0  0  0  0  0  0
  187.2660  176.1660  139.8660 C   0  0  0  0  0  0  0  0  0  0  0  0
  185.7460  178.0200  140.6560 C   0  0  0  0  0  2  0  0  0  0  0  0
  185.0000  177.6050  141.8730 C   0  0  0  0  0  0  0  0  0  0  0  0
  185.5080  176.8340  142.6690 O   0  0  0  0  0  0  0  0  0  0  0  0
  183.6430  178.1470  142.1330 C   0  0  0  0  0  2  0  0  0  0  0  0
  182.9350  178.5720  140.8720 C   0  0  0  0  0  0  0  0  0  0  0  0
  183.2100  179.6620  140.3820 O   0  0  0  0  0  0  0  0  0  0  0  0
  181.9070  177.7100  140.1810 C   0  0  0  0  0  2  0  0  0  0  0  0
  180.7080  177.6980  140.8960 O   0  0  0  0  0  0  0  0  0  0  0  0
  179.7780  178.3700  140.0920 C   0  0  2  0  0  3  0  0  0  0  0  0
  178.4400  178.3010  142.2330 C   0  0  0  0  0  2  0  0  0  0  0  0
  178.3070  179.6640  141.5830 C   0  0  0  0  0  2  0  0  0  0  0  0
  178.3810  178.4020  140.7190 C   0  0  0  0  0  3  0  0  0  0  0  0
  179.7150  177.7660  138.6750 C   0  0  0  0  0  2  0  0  0  0  0  0
  179.0140  176.4190  138.6410 C   0  0  0  0  0  2  0  0  0  0  0  0
  178.1800  176.3790  137.5240 O   0  0  0  0  0  0  0  0  0  0  0  0
  179.3130  174.5780  134.5490 C   0  0  0  0  0  2  0  0  0  0  0  0
  178.4990  175.1890  136.8910 C   0  0  2  0  0  3  0  0  0  0  0  0
  179.8930  175.0920  136.7860 O   0  0  0  0  0  0  0  0  0  0  0  0
  180.1230  174.1710  135.7570 C   0  0  0  0  0  2  0  0  0  0  0  0
  177.7510  175.1360  135.2310 S   0  0  0  0  0  0  0  0  0  0  0  0
  194.7040  172.5060  141.2560 S   0  0  0  0  0  0  0  0  0  0  0  0
  195.4480  173.9590  140.4810 C   0  0  1  0  0  3  0  0  0  0  0  0
  196.2770  174.8630  141.4250 C   0  0  2  0  0  3  0  0  0  0  0  0
  197.5750  175.0200  140.9350 O   0  0  0  0  0  1  0  0  0  0  0  0
  197.5970  174.1850  143.3820 O   0  0  0  0  0  1  0  0  0  0  0  0
  196.3130  174.4880  142.9240 C   0  0  1  0  0  3  0  0  0  0  0  0
  195.6430  175.5200  143.8270 C   0  0  0  0  0  1  0  0  0  0  0  0
  195.9910  173.7370  139.0560 C   0  0  0  0  0  2  0  0  0  0  0  0
  195.3620  172.6020  138.3710 N   0  0  0  0  0  0  0  0  0  0  0  0
  195.7630  172.6490  136.9720 C   0  0  0  0  0  2  0  0  0  0  0  0
  196.1280  171.3420  138.5100 C   0  0  1  0  0  3  0  0  0  0  0  0
  196.5710  171.3860  137.0560 C   0  0  1  0  0  3  0  0  0  0  0  0
  197.3390  171.3610  139.4360 C   0  0  0  0  0  1  0  0  0  0  0  0
  194.0310  169.0440  135.6040 C   0  0  0  0  0  3  0  0  0  0  0  0
  194.8350  168.1680  134.8840 C   0  0  0  0  0  3  0  0  0  0  0  0
  196.7400  169.4290  135.5730 N   0  0  0  0  0  0  0  0  0  0  0  0
  194.5860  170.0760  136.2850 N   0  0  0  0  0  0  0  0  0  0  0  0
  196.2160  168.3860  134.8800 C   0  0  0  0  0  3  0  0  0  0  0  0
  195.9420  170.2720  136.2720 C   0  0  0  0  0  0  0  0  0  0  0  0
  192.3160  173.5260  142.0600 C   0  0  0  0  0  2  0  0  0  0  0  0
  192.5750  174.9200  142.1810 O   0  0  0  0  0  0  0  0  0  0  0  0
  191.7770  175.7820  142.9450 C   0  0  0  0  0  0  0  0  0  0  0  0
  192.1730  176.9310  143.3100 O   0  0  0  0  0  0  0  0  0  0  0  0
  190.3850  175.3220  143.3000 C   0  0  0  0  0  2  0  0  0  0  0  0
  189.8300  176.0220  144.4670 N   0  0  0  0  0  0  0  0  0  0  0  0
  188.3800  175.8980  144.4550 C   0  0  0  0  0  2  0  0  0  0  0  0
  187.7880  177.2230  144.4000 N   0  0  0  0  0  0  0  0  0  0  0  0
  187.0520  177.8340  145.4740 C   0  0  0  0  0  0  0  0  0  0  0  0
  186.5110  179.0440  145.3520 C   0  0  0  0  0  1  0  0  0  0  0  0
  186.6270  176.9940  146.6190 C   0  0  0  0  0  1  0  0  0  0  0  0
  190.3400  175.4110  145.7050 C   0  0  0  0  0  2  0  0  0  0  0  0
  191.9240  175.5210  147.5070 C   0  0  2  0  0  3  0  0  0  0  0  0
  192.6470  175.8250  146.3370 O   0  0  0  0  0  0  0  0  0  0  0  0
  191.3400  176.3340  146.4110 C   0  0  1  0  0  0  0  0  0  0  0  0
  190.9690  176.6220  147.8560 C   0  0  0  0  0  2  0  0  0  0  0  0
  1 36  1  0  0  0  0
  1 55  1  1  0  0  0
  2  6  1  1  0  0  0
  2  1  1  0  0  0  0
  3  2  1  6  0  0  0
  3  5  1  0  0  0  0
  4  3  1  0  0  0  0
  4  5  1  0  0  0  0
  7  6  1  0  0  0  0
  8  7  2  0  0  0  0
  8  9  1  0  0  0  0
  9 10  1  0  0  0  0
 10 11  1  0  0  0  0
 12 15  1  0  0  0  0
 12 11  1  0  0  0  0
 13 15  1  0  0  0  0
 13 16  1  0  0  0  0
 15 14  2  0  0  0  0
 16 17  1  0  0  0  0
 17 19  1  0  0  0  0
 17 18  2  0  0  0  0
 20 19  1  0  0  0  0
 21 20  2  0  0  0  0
 22 20  1  0  0  0  0
 22 23  1  0  0  0  0
 24 28  1  6  0  0  0
 24 27  1  0  0  0  0
 24 23  1  0  0  0  0
 26 25  1  0  0  0  0
 27 26  1  0  0  0  0
 27 25  1  0  0  0  0
 29 28  1  0  0  0  0
 30 29  1  0  0  0  0
 31 35  1  0  0  0  0
 31 34  1  0  0  0  0
 32 30  1  6  0  0  0
 33 32  1  0  0  0  0
 34 33  1  0  0  0  0
 35 32  1  0  0  0  0
 37 43  1  6  0  0  0
 37 36  1  0  0  0  0
 37 38  1  0  0  0  0
 38 39  1  6  0  0  0
 38 41  1  0  0  0  0
 41 40  1  0  0  0  0
 41 42  1  1  0  0  0
 44 46  1  0  0  0  0
 44 43  1  0  0  0  0
 45 47  1  0  0  0  0
 45 44  1  0  0  0  0
 46 48  1  1  0  0  0
 47 54  1  6  0  0  0
 47 46  1  0  0  0  0
 49 52  2  0  0  0  0
 50 49  1  0  0  0  0
 51 54  2  0  0  0  0
 53 50  2  0  0  0  0
 53 51  1  0  0  0  0
 54 52  1  0  0  0  0
 55 56  1  0  0  0  0
 56 57  1  0  0  0  0
 57 59  1  0  0  0  0
 57 58  2  0  0  0  0
 59 60  1  0  0  0  0
 60 66  1  0  0  0  0
 61 60  1  0  0  0  0
 62 61  1  0  0  0  0
 62 63  2  0  0  0  0
 63 65  1  0  0  0  0
 64 63  1  0  0  0  0
 67 70  1  1  0  0  0
 68 69  1  0  0  0  0
 68 67  1  0  0  0  0
 69 66  1  6  0  0  0
 69 67  1  0  0  0  0
 69 70  1  0  0  0  0
M  END
>  <MODEL>
7

>  <REMARK>
 VINA RESULT:      -2.7      3.012      7.143
  Name = 
  38 active torsions:
  status: ('A' for Active; 'I' for Inactive)
    1  A    between atoms: N_1  and  C_51
    2  A    between atoms: C_2  and  C_12
    3  A    between atoms: C_2  and  C_26
    4  A    between atoms: O_3  and  C_9
    5  A    between atoms: O_3  and  C_57
    6  A    between atoms: C_4  and  C_52
    7  A    between atoms: C_6  and  C_57
    8  A    between atoms: C_6  and  C_70
    9  A    between atoms: C_7  and  C_24
   10  A    between atoms: C_7  and  C_51
   11  A    between atoms: C_7  and  S_66
   12  A    between atoms: C_9  and  C_61
   13  A    between atoms: C_10  and  C_52
   14  A    between atoms: C_10  and  S_66
   15  A    between atoms: C_10  and  C_69
   16  A    between atoms: C_11  and  C_26
   17  A    between atoms: C_11  and  N_59
   18  A    between atoms: C_12  and  C_33
   19  A    between atoms: N_15  and  C_27
   20  A    between atoms: N_15  and  C_42
   21  A    between atoms: C_18  and  O_54
   22  A    between atoms: C_19  and  C_45
   23  A    between atoms: C_19  and  N_58
   24  A    between atoms: C_20  and  C_35
   25  A    between atoms: C_20  and  O_54
   26  A    between atoms: C_24  and  C_46
   27  A    between atoms: O_28  and  C_39
   28  A    between atoms: O_28  and  C_69
   29  A    between atoms: C_31  and  O_53
   30  A    between atoms: C_32  and  C_35
   31  A    between atoms: C_32  and  C_62
   32  A    between atoms: C_32  and  O_63
   33  A    between atoms: C_33  and  O_63
   34  A    between atoms: C_37  and  C_49
   35  A    between atoms: C_39  and  C_60
   36  A    between atoms: C_42  and  N_58
   37  A    between atoms: C_52  and  O_53
   38  A    between atoms: N_58  and  C_60
                            x       y       z     vdW  Elec       q    Type
                         _______ _______ _______ _____ _____    ______ ____

>  <TORSDO>
F 38

$$$$
=
 OpenBabel11042418313D

 70 76  0  0  1  0  0  0  0  0999 V2000
  189.1450  174.5770  142.1320 C   0  0  2  0  0  3  0  0  0  0  0  0
  189.0880  174.1630  143.6370 C   0  0  1  0  0  3  0  0  0  0  0  0
  189.5740  172.7240  143.9360 C   0  0  1  0  0  3  0  0  0  0  0  0
  190.6330  172.7250  144.8740 O   0  0  0  0  0  0  0  0  0  0  0  0
  189.3920  172.2620  145.3330 C   0  0  0  0  0  2  0  0  0  0  0  0
  189.7820  175.1290  144.4520 O   0  0  0  0  0  0  0  0  0  0  0  0
  189.1650  176.1640  145.1710 C   0  0  0  0  0  3  0  0  0  0  0  0
  189.6830  176.6180  146.3130 C   0  0  0  0  0  3  0  0  0  0  0  0
  190.9250  176.0430  146.9260 C   0  0  0  0  0  2  0  0  0  0  0  0
  192.0830  176.7630  146.5500 O   0  0  0  0  0  0  0  0  0  0  0  0
  193.1520  176.2570  147.3110 C   0  0  0  0  0  2  0  0  0  0  0  0
  194.4540  176.9580  146.9670 C   0  0  0  0  0  2  0  0  0  0  0  0
  196.0500  177.0020  145.0090 N   0  0  0  0  0  2  0  0  0  0  0  0
  193.8500  176.2010  144.7990 O   0  0  0  0  0  0  0  0  0  0  0  0
  194.7470  176.7280  145.5280 C   0  0  0  0  0  0  0  0  0  0  0  0
  196.4280  176.6520  143.6470 C   0  0  0  0  0  2  0  0  0  0  0  0
  196.1460  175.2190  143.3730 C   0  0  0  0  0  0  0  0  0  0  0  0
  196.8190  174.3510  143.9030 O   0  0  0  0  0  0  0  0  0  0  0  0
  195.0280  174.8410  142.4730 C   0  0  0  0  0  2  0  0  0  0  0  0
  194.2490  173.6560  142.9810 C   0  0  0  0  0  0  0  0  0  0  0  0
  193.0790  173.8180  143.3100 O   0  0  0  0  0  0  0  0  0  0  0  0
  194.8440  172.2740  143.0980 C   0  0  0  0  0  2  0  0  0  0  0  0
  195.5780  171.9510  141.9550 O   0  0  0  0  0  0  0  0  0  0  0  0
  195.6500  170.5530  141.9300 C   0  0  2  0  0  3  0  0  0  0  0  0
  197.4140  170.7840  140.1370 C   0  0  0  0  0  2  0  0  0  0  0  0
  197.5860  169.4660  140.8640 C   0  0  0  0  0  2  0  0  0  0  0  0
  196.1840  170.0210  140.5960 C   0  0  0  0  0  3  0  0  0  0  0  0
  194.2880  169.9110  142.2560 C   0  0  0  0  0  2  0  0  0  0  0  0
  194.3950  168.4250  142.5530 C   0  0  0  0  0  2  0  0  0  0  0  0
  195.4760  168.2190  143.4090 O   0  0  0  0  0  0  0  0  0  0  0  0
  195.3700  170.0310  146.5860 C   0  0  0  0  0  2  0  0  0  0  0  0
  194.9510  168.3820  144.6810 C   0  0  2  0  0  3  0  0  0  0  0  0
  194.0840  169.4820  144.6760 O   0  0  0  0  0  0  0  0  0  0  0  0
  193.9810  169.8790  146.0150 C   0  0  0  0  0  2  0  0  0  0  0  0
  196.2890  168.6570  145.8870 S   0  0  0  0  0  0  0  0  0  0  0  0
  187.6190  174.2880  141.1930 S   0  0  0  0  0  0  0  0  0  0  0  0
  187.6750  175.8820  140.3420 C   0  0  1  0  0  3  0  0  0  0  0  0
  187.6050  175.8130  138.7980 C   0  0  2  0  0  3  0  0  0  0  0  0
  186.2780  175.7240  138.3730 O   0  0  0  0  0  1  0  0  0  0  0  0
  187.7090  173.7050  137.5420 O   0  0  0  0  0  1  0  0  0  0  0  0
  188.4660  174.7420  138.0910 C   0  0  1  0  0  3  0  0  0  0  0  0
  189.4280  175.3180  137.0560 C   0  0  0  0  0  1  0  0  0  0  0  0
  186.9050  177.0230  141.0350 C   0  0  0  0  0  2  0  0  0  0  0  0
  186.6900  176.7850  142.4680 N   0  0  0  0  0  0  0  0  0  0  0  0
  187.5250  177.7230  143.2040 C   0  0  0  0  0  2  0  0  0  0  0  0
  185.4980  177.4840  143.0000 C   0  0  1  0  0  3  0  0  0  0  0  0
  186.3560  178.4840  143.7610 C   0  0  1  0  0  3  0  0  0  0  0  0
  184.6050  178.2040  141.9960 C   0  0  0  0  0  1  0  0  0  0  0  0
  186.0390  176.8590  147.1240 C   0  0  0  0  0  3  0  0  0  0  0  0
  185.8880  177.9620  147.9560 C   0  0  0  0  0  3  0  0  0  0  0  0
  186.0760  179.3720  146.0390 N   0  0  0  0  0  0  0  0  0  0  0  0
  186.2010  177.0290  145.7890 N   0  0  0  0  0  0  0  0  0  0  0  0
  185.9130  179.2360  147.3810 C   0  0  0  0  0  3  0  0  0  0  0  0
  186.2190  178.2860  145.2420 C   0  0  0  0  0  0  0  0  0  0  0  0
  190.3110  173.9580  141.3540 C   0  0  0  0  0  2  0  0  0  0  0  0
  189.8330  172.9660  140.4530 O   0  0  0  0  0  0  0  0  0  0  0  0
  190.5990  172.4620  139.3940 C   0  0  0  0  0  0  0  0  0  0  0  0
  190.4040  171.3090  138.9010 O   0  0  0  0  0  0  0  0  0  0  0  0
  191.6630  173.3570  138.8070 C   0  0  0  0  0  2  0  0  0  0  0  0
  193.0100  173.0490  139.3060 N   0  0  0  0  0  0  0  0  0  0  0  0
  193.1510  171.6070  139.4450 C   0  0  0  0  0  2  0  0  0  0  0  0
  193.1640  171.0000  138.1260 N   0  0  0  0  0  2  0  0  0  0  0  0
  192.6950  169.6720  137.8330 C   0  0  0  0  0  0  0  0  0  0  0  0
  192.4960  169.2590  136.5840 C   0  0  0  0  0  2  0  0  0  0  0  0
  192.7240  168.6500  138.9070 C   0  0  0  0  0  1  0  0  0  0  0  0
  194.0180  173.5260  138.3450 C   0  0  0  0  0  2  0  0  0  0  0  0
  194.4740  174.7910  136.3550 C   0  0  2  0  0  3  0  0  0  0  0  0
  193.8150  173.6220  135.9280 O   0  0  0  0  0  0  0  0  0  0  0  0
  193.3600  174.1890  137.1300 C   0  0  1  0  0  0  0  0  0  0  0  0
  193.5440  175.6980  137.1010 C   0  0  0  0  0  2  0  0  0  0  0  0
  1 55  1  6  0  0  0
  1  2  1  0  0  0  0
  2  6  1  1  0  0  0
  3  2  1  1  0  0  0
  3  4  1  0  0  0  0
  3  5  1  0  0  0  0
  4  5  1  0  0  0  0
  6  7  1  0  0  0  0
  7  8  2  0  0  0  0
  8  9  1  0  0  0  0
 10  9  1  0  0  0  0
 10 11  1  0  0  0  0
 12 11  1  0  0  0  0
 13 15  1  0  0  0  0
 14 15  2  0  0  0  0
 15 12  1  0  0  0  0
 16 13  1  0  0  0  0
 17 16  1  0  0  0  0
 17 18  2  0  0  0  0
 19 20  1  0  0  0  0
 19 17  1  0  0  0  0
 20 22  1  0  0  0  0
 20 21  2  0  0  0  0
 23 22  1  0  0  0  0
 24 23  1  0  0  0  0
 24 28  1  6  0  0  0
 25 27  1  0  0  0  0
 25 26  1  0  0  0  0
 27 26  1  0  0  0  0
 27 24  1  0  0  0  0
 28 29  1  0  0  0  0
 29 30  1  0  0  0  0
 32 30  1  6  0  0  0
 32 35  1  0  0  0  0
 33 32  1  0  0  0  0
 33 34  1  0  0  0  0
 34 31  1  0  0  0  0
 35 31  1  0  0  0  0
 36  1  1  0  0  0  0
 37 43  1  1  0  0  0
 37 36  1  0  0  0  0
 38 39  1  1  0  0  0
 38 37  1  0  0  0  0
 40 41  1  0  0  0  0
 41 42  1  6  0  0  0
 41 38  1  0  0  0  0
 43 44  1  0  0  0  0
 44 46  1  0  0  0  0
 44 45  1  0  0  0  0
 45 47  1  0  0  0  0
 46 48  1  6  0  0  0
 46 47  1  0  0  0  0
 47 54  1  1  0  0  0
 49 50  1  0  0  0  0
 51 53  1  0  0  0  0
 52 49  2  0  0  0  0
 53 50  2  0  0  0  0
 54 52  1  0  0  0  0
 54 51  2  0  0  0  0
 56 55  1  0  0  0  0
 57 56  1  0  0  0  0
 58 57  2  0  0  0  0
 59 60  1  0  0  0  0
 59 57  1  0  0  0  0
 60 61  1  0  0  0  0
 62 61  1  0  0  0  0
 63 62  1  0  0  0  0
 63 65  1  0  0  0  0
 64 63  2  0  0  0  0
 66 60  1  0  0  0  0
 67 70  1  6  0  0  0
 67 69  1  0  0  0  0
 68 67  1  0  0  0  0
 68 69  1  0  0  0  0
 69 66  1  1  0  0  0
 70 69  1  0  0  0  0
M  END
>  <MODEL>
8

>  <REMARK>
 VINA RESULT:      -2.0      3.070     10.105
  Name = 
  38 active torsions:
  status: ('A' for Active; 'I' for Inactive)
    1  A    between atoms: N_1  and  C_51
    2  A    between atoms: C_2  and  C_12
    3  A    between atoms: C_2  and  C_26
    4  A    between atoms: O_3  and  C_9
    5  A    between atoms: O_3  and  C_57
    6  A    between atoms: C_4  and  C_52
    7  A    between atoms: C_6  and  C_57
    8  A    between atoms: C_6  and  C_70
    9  A    between atoms: C_7  and  C_24
   10  A    between atoms: C_7  and  C_51
   11  A    between atoms: C_7  and  S_66
   12  A    between atoms: C_9  and  C_61
   13  A    between atoms: C_10  and  C_52
   14  A    between atoms: C_10  and  S_66
   15  A    between atoms: C_10  and  C_69
   16  A    between atoms: C_11  and  C_26
   17  A    between atoms: C_11  and  N_59
   18  A    between atoms: C_12  and  C_33
   19  A    between atoms: N_15  and  C_27
   20  A    between atoms: N_15  and  C_42
   21  A    between atoms: C_18  and  O_54
   22  A    between atoms: C_19  and  C_45
   23  A    between atoms: C_19  and  N_58
   24  A    between atoms: C_20  and  C_35
   25  A    between atoms: C_20  and  O_54
   26  A    between atoms: C_24  and  C_46
   27  A    between atoms: O_28  and  C_39
   28  A    between atoms: O_28  and  C_69
   29  A    between atoms: C_31  and  O_53
   30  A    between atoms: C_32  and  C_35
   31  A    between atoms: C_32  and  C_62
   32  A    between atoms: C_32  and  O_63
   33  A    between atoms: C_33  and  O_63
   34  A    between atoms: C_37  and  C_49
   35  A    between atoms: C_39  and  C_60
   36  A    between atoms: C_42  and  N_58
   37  A    between atoms: C_52  and  O_53
   38  A    between atoms: N_58  and  C_60
                            x       y       z     vdW  Elec       q    Type
                         _______ _______ _______ _____ _____    ______ ____

>  <TORSDO>
F 38

$$$$
=
 OpenBabel11042418313D

 70 76  0  0  1  0  0  0  0  0999 V2000
  192.6000  173.7700  140.6010 C   0  0  2  0  0  3  0  0  0  0  0  0
  191.7010  172.7120  139.8850 C   0  0  1  0  0  3  0  0  0  0  0  0
  191.1140  171.6200  140.8120 C   0  0  1  0  0  3  0  0  0  0  0  0
  190.6740  170.4990  140.0700 O   0  0  0  0  0  0  0  0  0  0  0  0
  191.8430  170.3290  140.8250 C   0  0  0  0  0  2  0  0  0  0  0  0
  190.6640  173.3640  139.1240 O   0  0  0  0  0  0  0  0  0  0  0  0
  190.0620  172.8370  137.9710 C   0  0  0  0  0  3  0  0  0  0  0  0
  188.8130  173.1590  137.6330 C   0  0  0  0  0  3  0  0  0  0  0  0
  187.9550  174.0660  138.4650 C   0  0  0  0  0  2  0  0  0  0  0  0
  187.9420  173.6810  139.8260 O   0  0  0  0  0  0  0  0  0  0  0  0
  187.4850  174.7870  140.5660 C   0  0  0  0  0  2  0  0  0  0  0  0
  187.2330  175.9850  139.6680 C   0  0  0  0  0  2  0  0  0  0  0  0
  185.6020  177.8260  140.2480 N   0  0  0  0  0  2  0  0  0  0  0  0
  187.5260  177.4210  141.5350 O   0  0  0  0  0  0  0  0  0  0  0  0
  186.8220  177.1320  140.5180 C   0  0  0  0  0  0  0  0  0  0  0  0
  185.0840  178.8550  141.1380 C   0  0  0  0  0  2  0  0  0  0  0  0
  184.1720  178.2630  142.1530 C   0  0  0  0  0  0  0  0  0  0  0  0
  184.6000  177.4600  142.9650 O   0  0  0  0  0  0  0  0  0  0  0  0
  182.7450  178.6670  142.1940 C   0  0  0  0  0  2  0  0  0  0  0  0
  182.1560  178.8620  140.8210 C   0  0  0  0  0  0  0  0  0  0  0  0
  182.5390  179.8110  140.1460 O   0  0  0  0  0  0  0  0  0  0  0  0
  181.1190  177.9340  140.2360 C   0  0  0  0  0  2  0  0  0  0  0  0
  180.0870  177.7050  141.1480 O   0  0  0  0  0  0  0  0  0  0  0  0
  178.9260  177.5530  140.3790 C   0  0  2  0  0  3  0  0  0  0  0  0
  178.2370  176.2830  142.4500 C   0  0  0  0  0  2  0  0  0  0  0  0
  177.7540  177.7160  142.5380 C   0  0  0  0  0  2  0  0  0  0  0  0
  177.7580  176.9860  141.1930 C   0  0  0  0  0  3  0  0  0  0  0  0
  179.1820  176.6840  139.1330 C   0  0  0  0  0  2  0  0  0  0  0  0
  177.9000  176.2600  138.4380 C   0  0  0  0  0  2  0  0  0  0  0  0
  178.1500  176.1520  137.0700 O   0  0  0  0  0  0  0  0  0  0  0  0
  180.1740  173.6020  135.4010 C   0  0  0  0  0  2  0  0  0  0  0  0
  178.4860  174.8210  136.8810 C   0  0  2  0  0  3  0  0  0  0  0  0
  179.7120  174.5690  137.5120 O   0  0  0  0  0  0  0  0  0  0  0  0
  180.2130  173.4150  136.8990 C   0  0  0  0  0  2  0  0  0  0  0  0
  178.6220  174.4510  135.1020 S   0  0  0  0  0  0  0  0  0  0  0  0
  194.3400  173.2970  140.8010 S   0  0  0  0  0  0  0  0  0  0  0  0
  194.9790  174.7330  139.9090 C   0  0  1  0  0  3  0  0  0  0  0  0
  196.3140  175.3060  140.4420 C   0  0  2  0  0  3  0  0  0  0  0  0
  197.3400  175.0890  139.5220 O   0  0  0  0  0  1  0  0  0  0  0  0
  197.5550  173.7220  141.8510 O   0  0  0  0  0  1  0  0  0  0  0  0
  196.7630  174.8720  141.8570 C   0  0  1  0  0  3  0  0  0  0  0  0
  197.4330  175.9890  142.6520 C   0  0  0  0  0  1  0  0  0  0  0  0
  194.7850  174.6950  138.3810 C   0  0  0  0  0  2  0  0  0  0  0  0
  193.8860  173.6210  137.9410 N   0  0  0  0  0  0  0  0  0  0  0  0
  193.6830  173.7700  136.5070 C   0  0  0  0  0  2  0  0  0  0  0  0
  194.5910  172.3470  137.6720 C   0  0  1  0  0  3  0  0  0  0  0  0
  194.4040  172.4970  136.1690 C   0  0  1  0  0  3  0  0  0  0  0  0
  196.0750  172.2830  138.0190 C   0  0  0  0  0  1  0  0  0  0  0  0
  193.0120  169.2110  135.0240 C   0  0  0  0  0  3  0  0  0  0  0  0
  191.7420  169.5780  134.5950 C   0  0  0  0  0  3  0  0  0  0  0  0
  192.2300  171.8260  135.2310 N   0  0  0  0  0  0  0  0  0  0  0  0
  193.8540  170.1410  135.5370 N   0  0  0  0  0  0  0  0  0  0  0  0
  191.3630  170.9180  134.7130 C   0  0  0  0  0  3  0  0  0  0  0  0
  193.4660  171.4520  135.6420 C   0  0  0  0  0  0  0  0  0  0  0  0
  192.0670  174.2280  141.9630 C   0  0  0  0  0  2  0  0  0  0  0  0
  193.1390  174.3830  142.8850 O   0  0  0  0  0  0  0  0  0  0  0  0
  193.0000  174.1670  144.2630 C   0  0  0  0  0  0  0  0  0  0  0  0
  192.9250  175.1200  145.0960 O   0  0  0  0  0  0  0  0  0  0  0  0
  192.8960  172.7410  144.7440 C   0  0  0  0  0  2  0  0  0  0  0  0
  193.9550  172.3790  145.6970 N   0  0  0  0  0  0  0  0  0  0  0  0
  194.1560  170.9380  145.6650 C   0  0  0  0  0  2  0  0  0  0  0  0
  195.4100  170.6470  144.9920 N   0  0  0  0  0  2  0  0  0  0  0  0
  196.3790  169.6870  145.4500 C   0  0  0  0  0  0  0  0  0  0  0  0
  197.6790  169.9700  145.4930 C   0  0  0  0  0  2  0  0  0  0  0  0
  195.9060  168.4790  146.1680 C   0  0  0  0  0  1  0  0  0  0  0  0
  195.2160  173.0340  145.3130 C   0  0  0  0  0  2  0  0  0  0  0  0
  196.5740  174.9800  145.6810 C   0  0  2  0  0  3  0  0  0  0  0  0
  195.2700  175.3390  146.0730 O   0  0  0  0  0  0  0  0  0  0  0  0
  195.6750  174.0300  146.3830 C   0  0  1  0  0  0  0  0  0  0  0  0
  197.1740  173.9900  146.6330 C   0  0  0  0  0  2  0  0  0  0  0  0
  1 36  1  0  0  0  0
  1 55  1  1  0  0  0
  2  6  1  1  0  0  0
  2  1  1  0  0  0  0
  3  2  1  6  0  0  0
  3  5  1  0  0  0  0
  4  3  1  0  0  0  0
  4  5  1  0  0  0  0
  7  6  1  0  0  0  0
  8  7  2  0  0  0  0
  8  9  1  0  0  0  0
  9 10  1  0  0  0  0
 10 11  1  0  0  0  0
 12 15  1  0  0  0  0
 12 11  1  0  0  0  0
 13 15  1  0  0  0  0
 13 16  1  0  0  0  0
 15 14  2  0  0  0  0
 16 17  1  0  0  0  0
 17 19  1  0  0  0  0
 17 18  2  0  0  0  0
 20 19  1  0  0  0  0
 21 20  2  0  0  0  0
 22 20  1  0  0  0  0
 22 23  1  0  0  0  0
 24 28  1  6  0  0  0
 24 23  1  0  0  0  0
 24 27  1  0  0  0  0
 25 26  1  0  0  0  0
 27 25  1  0  0  0  0
 27 26  1  0  0  0  0
 29 28  1  0  0  0  0
 30 29  1  0  0  0  0
 31 34  1  0  0  0  0
 32 30  1  6  0  0  0
 32 33  1  0  0  0  0
 34 33  1  0  0  0  0
 35 31  1  0  0  0  0
 35 32  1  0  0  0  0
 37 43  1  6  0  0  0
 37 38  1  0  0  0  0
 37 36  1  0  0  0  0
 38 39  1  6  0  0  0
 38 41  1  0  0  0  0
 40 41  1  0  0  0  0
 41 42  1  6  0  0  0
 44 43  1  0  0  0  0
 45 44  1  0  0  0  0
 46 44  1  0  0  0  0
 46 48  1  6  0  0  0
 47 54  1  1  0  0  0
 47 45  1  0  0  0  0
 47 46  1  0  0  0  0
 49 52  2  0  0  0  0
 50 53  2  0  0  0  0
 50 49  1  0  0  0  0
 51 54  2  0  0  0  0
 52 54  1  0  0  0  0
 53 51  1  0  0  0  0
 55 56  1  0  0  0  0
 56 57  1  0  0  0  0
 57 59  1  0  0  0  0
 57 58  2  0  0  0  0
 59 60  1  0  0  0  0
 61 60  1  0  0  0  0
 62 63  1  0  0  0  0
 62 61  1  0  0  0  0
 63 64  2  0  0  0  0
 63 65  1  0  0  0  0
 66 60  1  0  0  0  0
 67 68  1  0  0  0  0
 67 69  1  0  0  0  0
 67 70  1  1  0  0  0
 68 69  1  0  0  0  0
 69 66  1  6  0  0  0
 69 70  1  0  0  0  0
M  END
>  <MODEL>
9

>  <REMARK>
 VINA RESULT:      -1.6      3.083      6.666
  Name = 
  38 active torsions:
  status: ('A' for Active; 'I' for Inactive)
    1  A    between atoms: N_1  and  C_51
    2  A    between atoms: C_2  and  C_12
    3  A    between atoms: C_2  and  C_26
    4  A    between atoms: O_3  and  C_9
    5  A    between atoms: O_3  and  C_57
    6  A    between atoms: C_4  and  C_52
    7  A    between atoms: C_6  and  C_57
    8  A    between atoms: C_6  and  C_70
    9  A    between atoms: C_7  and  C_24
   10  A    between atoms: C_7  and  C_51
   11  A    between atoms: C_7  and  S_66
   12  A    between atoms: C_9  and  C_61
   13  A    between atoms: C_10  and  C_52
   14  A    between atoms: C_10  and  S_66
   15  A    between atoms: C_10  and  C_69
   16  A    between atoms: C_11  and  C_26
   17  A    between atoms: C_11  and  N_59
   18  A    between atoms: C_12  and  C_33
   19  A    between atoms: N_15  and  C_27
   20  A    between atoms: N_15  and  C_42
   21  A    between atoms: C_18  and  O_54
   22  A    between atoms: C_19  and  C_45
   23  A    between atoms: C_19  and  N_58
   24  A    between atoms: C_20  and  C_35
   25  A    between atoms: C_20  and  O_54
   26  A    between atoms: C_24  and  C_46
   27  A    between atoms: O_28  and  C_39
   28  A    between atoms: O_28  and  C_69
   29  A    between atoms: C_31  and  O_53
   30  A    between atoms: C_32  and  C_35
   31  A    between atoms: C_32  and  C_62
   32  A    between atoms: C_32  and  O_63
   33  A    between atoms: C_33  and  O_63
   34  A    between atoms: C_37  and  C_49
   35  A    between atoms: C_39  and  C_60
   36  A    between atoms: C_42  and  N_58
   37  A    between atoms: C_52  and  O_53
   38  A    between atoms: N_58  and  C_60
                            x       y       z     vdW  Elec       q    Type
                         _______ _______ _______ _____ _____    ______ ____

>  <TORSDO>
F 38

$$$$
