=
 OpenBabel11042418383D

 67 72  0  0  1  0  0  0  0  0999 V2000
  190.3050  174.2590  141.2970 O   0  0  0  0  0  0  0  0  0  0  0  0
  184.6400  178.3740  142.0380 C   0  0  0  0  0  0  0  0  0  0  0  0
  188.0010  175.1100  140.6930 C   0  0  0  0  0  3  0  0  0  0  0  0
  185.4360  179.3790  146.3030 C   0  0  0  0  0  3  0  0  0  0  0  0
  188.7710  172.7310  140.1410 C   0  0  1  0  0  0  0  0  0  0  0  0
  185.3920  178.1390  141.0100 N   0  0  0  0  0  0  0  0  0  0  0  0
  184.7690  179.5400  144.9780 C   0  0  0  0  0  2  0  0  0  0  0  0
  190.8370  175.6920  145.9840 C   0  0  0  0  0  0  0  0  0  0  0  0
  188.3450  172.7280  141.5980 C   0  0  0  0  0  2  0  0  0  0  0  0
  190.3320  174.9640  142.5080 C   0  0  2  0  0  3  0  0  0  0  0  0
  187.6910  172.6990  139.2580 O   0  0  0  0  0  1  0  0  0  0  0  0
  189.9730  174.9990  145.1110 C   0  0  0  0  0  0  0  0  0  0  0  0
  188.4280  177.8670  147.8310 N   0  0  0  0  0  2  0  0  0  0  0  0
  186.6800  177.6120  141.1500 N   0  0  0  0  0  2  0  0  0  0  0  0
  190.3070  176.6330  146.8750 C   0  0  0  0  0  3  0  0  0  0  0  0
  188.9340  176.8940  146.9050 C   0  0  0  0  0  0  0  0  0  0  0  0
  188.4140  176.2470  140.2680 N   0  0  0  0  0  0  0  0  0  0  0  0
  185.1280  178.1080  143.3650 N   0  0  0  0  0  2  0  0  0  0  0  0
  187.2170  178.5660  147.6700 N   0  0  0  0  0  2  0  0  0  0  0  0
  188.0780  176.1700  146.0680 C   0  0  0  0  0  3  0  0  0  0  0  0
  187.4690  177.2930  139.9700 C   0  0  0  0  0  2  0  0  0  0  0  0
  188.5950  175.2290  145.1770 C   0  0  0  0  0  3  0  0  0  0  0  0
  186.5680  178.6990  146.4080 C   0  0  0  0  0  3  0  0  0  0  0  0
  191.4510  175.9840  142.4630 C   0  0  0  0  0  1  0  0  0  0  0  0
  184.3750  178.2940  144.4760 O   0  0  0  0  0  0  0  0  0  0  0  0
  188.9570  173.9860  140.9800 C   0  0  1  0  0  0  0  0  0  0  0  0
  190.5860  173.8170  143.9030 S   0  0  0  0  0  0  0  0  0  0  0  0
  182.7860  178.6210  140.3570 C   0  0  0  0  0  2  0  0  0  0  0  0
  183.2570  178.9000  141.8000 C   0  0  1  0  0  3  0  0  0  0  0  0
  178.6860  179.1120  141.8650 C   0  0  0  0  0  1  0  0  0  0  0  0
  180.9550  179.1800  142.8870 C   0  0  0  0  0  2  0  0  0  0  0  0
  180.4800  177.7960  140.7980 C   0  0  0  0  0  3  0  0  0  0  0  0
  181.6840  177.6010  140.2430 C   0  0  0  0  0  3  0  0  0  0  0  0
  182.3090  178.4590  142.9190 C   0  0  0  0  0  2  0  0  0  0  0  0
  180.1680  179.0460  141.5770 C   0  0  1  0  0  3  0  0  0  0  0  0
  191.2820  172.3830  139.1500 O   0  0  0  0  0  1  0  0  0  0  0  0
  190.1630  171.6030  139.8040 P   0  0  2  0  0  0  0  0  0  0  0  0
  189.6190  170.3990  138.7480 O   0  0  0  0  0  0  0  0  0  0  0  0
  190.7170  170.8890  141.3110 N   0  0  0  0  0  2  0  0  0  0  0  0
  192.5370  168.9940  142.2950 O   0  0  0  0  0  1  0  0  0  0  0  0
  190.5980  168.2780  140.7060 O   0  0  0  0  0  1  0  0  0  0  0  0
  192.5800  169.6010  139.6110 O   0  0  0  0  0  0  0  0  0  0  0  0
  191.5820  169.3990  140.9620 P   0  0  0  0  0  0  0  0  0  0  0  0
  192.3170  175.4600  146.0040 C   0  0  0  0  0  2  0  0  0  0  0  0
  193.9630  172.1610  145.7370 N   0  0  0  0  0  2  0  0  0  0  0  0
  192.6030  174.0340  146.0330 N   0  0  0  0  0  2  0  0  0  0  0  0
  193.8630  173.4480  145.6810 C   0  0  0  0  0  0  0  0  0  0  0  0
  195.1140  174.3010  145.5950 C   0  0  2  0  0  3  0  0  0  0  0  0
  194.9930  175.4000  146.4540 O   0  0  0  0  0  1  0  0  0  0  0  0
  195.4520  174.8040  144.1740 C   0  0  2  0  0  3  0  0  0  0  0  0
  196.1970  176.7420  143.4470 O   0  0  0  0  0  1  0  0  0  0  0  0
  195.1330  176.1660  143.9810 O   0  0  0  0  0  0  0  0  0  0  0  0
  194.8010  173.9270  143.1000 C   0  0  0  0  0  2  0  0  0  0  0  0
  195.3990  171.2850  140.9050 O   0  0  0  0  0  0  0  0  0  0  0  0
  195.8500  173.1800  142.2870 C   0  0  2  0  0  3  0  0  0  0  0  0
  195.2770  172.6880  140.9650 C   0  0  1  0  0  3  0  0  0  0  0  0
  196.2250  171.9260  143.0190 C   0  0  0  0  0  2  0  0  0  0  0  0
  195.5290  170.8460  142.2300 C   0  0  0  0  0  2  0  0  0  0  0  0
  196.0320  173.2830  139.8710 N   0  0  0  0  0  2  0  0  0  0  0  0
  195.1200  173.9430  138.9380 C   0  0  0  0  0  0  0  0  0  0  0  0
  193.8580  174.5280  139.5390 C   0  0  0  0  0  2  0  0  0  0  0  0
  195.0330  175.4320  139.2000 C   0  0  0  0  0  2  0  0  0  0  0  0
  194.9340  174.5910  136.5890 O   0  0  0  0  0  1  0  0  0  0  0  0
  195.1420  173.5130  137.4580 C   0  0  2  0  0  3  0  0  0  0  0  0
  194.8450  171.0410  137.2530 C   0  0  0  0  0  1  0  0  0  0  0  0
  194.1490  172.3870  137.1760 C   0  0  2  0  0  3  0  0  0  0  0  0
  193.5610  172.5380  135.9170 O   0  0  0  0  0  1  0  0  0  0  0  0
  1 10  1  0  0  0  0
  2 18  1  0  0  0  0
  4 23  2  0  0  0  0
  5 11  1  6  0  0  0
  5 26  1  0  0  0  0
  5  9  1  0  0  0  0
  6 14  1  0  0  0  0
  6  2  2  0  0  0  0
  7  4  1  0  0  0  0
  8 44  1  0  0  0  0
  8 15  1  0  0  0  0
 10 24  1  6  0  0  0
 10 27  1  0  0  0  0
 12 22  1  0  0  0  0
 12  8  2  0  0  0  0
 15 16  2  0  0  0  0
 16 13  1  0  0  0  0
 17  3  2  0  0  0  0
 18 25  1  0  0  0  0
 19 13  1  0  0  0  0
 20 16  1  0  0  0  0
 21 17  1  0  0  0  0
 21 14  1  0  0  0  0
 22 20  2  0  0  0  0
 23 19  1  0  0  0  0
 25  7  1  0  0  0  0
 26  3  1  6  0  0  0
 26  1  1  0  0  0  0
 26  9  1  0  0  0  0
 27 12  1  0  0  0  0
 28 29  1  0  0  0  0
 29  2  1  1  0  0  0
 29 34  1  0  0  0  0
 31 34  1  0  0  0  0
 32 35  1  0  0  0  0
 33 28  1  0  0  0  0
 33 32  2  0  0  0  0
 35 30  1  1  0  0  0
 35 31  1  0  0  0  0
 36 37  1  0  0  0  0
 37 38  2  6  0  0  0
 37  5  1  0  0  0  0
 37 39  1  0  0  0  0
 41 43  1  0  0  0  0
 42 43  2  0  0  0  0
 43 39  1  0  0  0  0
 43 40  1  0  0  0  0
 44 46  1  0  0  0  0
 47 45  2  0  0  0  0
 47 46  1  0  0  0  0
 48 47  1  0  0  0  0
 48 49  1  1  0  0  0
 50 53  1  6  0  0  0
 50 48  1  0  0  0  0
 51 52  1  0  0  0  0
 52 50  1  0  0  0  0
 54 56  1  0  0  0  0
 54 58  1  0  0  0  0
 55 57  1  0  0  0  0
 55 53  1  1  0  0  0
 56 59  1  6  0  0  0
 56 55  1  0  0  0  0
 58 57  1  0  0  0  0
 60 62  1  0  0  0  0
 60 61  1  0  0  0  0
 60 59  1  0  0  0  0
 62 61  1  0  0  0  0
 64 63  1  6  0  0  0
 64 60  1  0  0  0  0
 66 65  1  6  0  0  0
 66 64  1  0  0  0  0
 67 66  1  0  0  0  0
M  END
>  <MODEL>
1

>  <REMARK>
 VINA RESULT:      -5.3      0.000      0.000
  Name = 
  15 active torsions:
  status: ('A' for Active; 'I' for Inactive)
    1  A    between atoms: C_6  and  C_8
    2  A    between atoms: N_10  and  C_28
    3  A    between atoms: C_11  and  C_55
    4  A    between atoms: N_13  and  P_35
    5  A    between atoms: N_13  and  P_61
    6  A    between atoms: C_14  and  P_61
    7  A    between atoms: C_18  and  C_32
    8  A    between atoms: C_18  and  N_34
    9  A    between atoms: C_19  and  C_28
   10  A    between atoms: C_20  and  N_34
   11  A    between atoms: C_29  and  C_32
   12  A    between atoms: C_33  and  C_43
   13  A    between atoms: C_33  and  C_47
   14  A    between atoms: O_45  and  C_47
   15  A    between atoms: C_47  and  C_55
                            x       y       z     vdW  Elec       q    Type
                         _______ _______ _______ _____ _____    ______ ____

>  <TORSDO>
F 15

$$$$
=
 OpenBabel11042418383D

 67 72  0  0  1  0  0  0  0  0999 V2000
  190.1930  174.5110  141.4340 O   0  0  0  0  0  0  0  0  0  0  0  0
  184.3630  178.4190  141.9960 C   0  0  0  0  0  0  0  0  0  0  0  0
  187.8790  175.2780  140.7600 C   0  0  0  0  0  3  0  0  0  0  0  0
  184.9940  179.4570  146.2810 C   0  0  0  0  0  3  0  0  0  0  0  0
  188.7510  172.9280  140.2360 C   0  0  1  0  0  0  0  0  0  0  0  0
  185.1540  178.2110  140.9920 N   0  0  0  0  0  0  0  0  0  0  0  0
  184.3620  179.5930  144.9360 C   0  0  0  0  0  2  0  0  0  0  0  0
  190.5320  175.9680  146.1310 C   0  0  0  0  0  0  0  0  0  0  0  0
  188.2810  172.9110  141.6790 C   0  0  0  0  0  2  0  0  0  0  0  0
  190.1580  175.2180  142.6440 C   0  0  2  0  0  3  0  0  0  0  0  0
  187.6990  172.8560  139.3210 O   0  0  0  0  0  1  0  0  0  0  0  0
  189.7200  175.2430  145.2350 C   0  0  0  0  0  0  0  0  0  0  0  0
  187.9920  178.0560  147.9010 N   0  0  0  0  0  2  0  0  0  0  0  0
  186.4560  177.7310  141.1710 N   0  0  0  0  0  2  0  0  0  0  0  0
  189.9410  176.8900  147.0050 C   0  0  0  0  0  3  0  0  0  0  0  0
  188.5600  177.1010  146.9920 C   0  0  0  0  0  0  0  0  0  0  0  0
  188.2630  176.4280  140.3450 N   0  0  0  0  0  0  0  0  0  0  0  0
  184.8210  178.1730  143.3370 N   0  0  0  0  0  2  0  0  0  0  0  0
  186.7620  178.7110  147.7020 N   0  0  0  0  0  2  0  0  0  0  0  0
  187.7560  176.3460  146.1320 C   0  0  0  0  0  3  0  0  0  0  0  0
  187.2900  177.4400  140.0160 C   0  0  0  0  0  2  0  0  0  0  0  0
  188.3340  175.4230  145.2590 C   0  0  0  0  0  3  0  0  0  0  0  0
  186.1460  178.8190  146.4210 C   0  0  0  0  0  3  0  0  0  0  0  0
  191.2410  176.2780  142.6310 C   0  0  0  0  0  1  0  0  0  0  0  0
  184.0290  178.3330  144.4250 O   0  0  0  0  0  0  0  0  0  0  0  0
  188.8660  174.1900  141.0770 C   0  0  1  0  0  0  0  0  0  0  0  0
  190.4110  174.0820  144.0480 S   0  0  0  0  0  0  0  0  0  0  0  0
  182.5580  178.6100  140.2560 C   0  0  0  0  0  2  0  0  0  0  0  0
  182.9710  178.8950  141.7160 C   0  0  1  0  0  3  0  0  0  0  0  0
  178.3950  178.9350  141.6300 C   0  0  0  0  0  1  0  0  0  0  0  0
  180.6250  179.0800  142.7280 C   0  0  0  0  0  2  0  0  0  0  0  0
  180.2720  177.6960  140.6150 C   0  0  0  0  0  3  0  0  0  0  0  0
  181.5000  177.5490  140.0990 C   0  0  0  0  0  3  0  0  0  0  0  0
  182.0030  178.4110  142.8000 C   0  0  0  0  0  2  0  0  0  0  0  0
  179.8870  178.9270  141.3910 C   0  0  1  0  0  3  0  0  0  0  0  0
  189.8070  170.7700  138.9560 O   0  0  0  0  0  0  0  0  0  0  0  0
  190.1920  171.8500  139.9430 P   0  0  2  0  0  0  0  0  0  0  0  0
  190.6280  171.1430  141.4160 O   0  0  0  0  0  1  0  0  0  0  0  0
  191.5210  172.8100  139.3090 N   0  0  0  0  0  2  0  0  0  0  0  0
  189.9030  172.8770  137.0180 O   0  0  0  0  0  1  0  0  0  0  0  0
  192.3090  173.8800  136.9790 O   0  0  0  0  0  0  0  0  0  0  0  0
  192.1330  171.2640  137.0160 O   0  0  0  0  0  1  0  0  0  0  0  0
  191.4990  172.7380  137.5530 P   0  0  0  0  0  0  0  0  0  0  0  0
  192.0180  175.7900  146.1960 C   0  0  0  0  0  2  0  0  0  0  0  0
  193.6340  172.5390  145.4930 N   0  0  0  0  0  2  0  0  0  0  0  0
  192.3580  174.3760  146.1630 N   0  0  0  0  0  2  0  0  0  0  0  0
  193.4670  173.8200  145.4450 C   0  0  0  0  0  0  0  0  0  0  0  0
  194.5920  174.7110  144.9540 C   0  0  2  0  0  3  0  0  0  0  0  0
  194.0840  175.6570  144.0560 O   0  0  0  0  0  1  0  0  0  0  0  0
  195.7640  173.9570  144.2880 C   0  0  2  0  0  3  0  0  0  0  0  0
  197.7480  173.7530  145.2180 O   0  0  0  0  0  1  0  0  0  0  0  0
  197.0120  174.5830  144.4970 O   0  0  0  0  0  0  0  0  0  0  0  0
  195.5050  173.7240  142.7970 C   0  0  0  0  0  2  0  0  0  0  0  0
  195.9520  170.9790  140.6960 O   0  0  0  0  0  0  0  0  0  0  0  0
  196.5070  172.7410  142.2080 C   0  0  2  0  0  3  0  0  0  0  0  0
  196.1440  172.3720  140.7760 C   0  0  1  0  0  3  0  0  0  0  0  0
  196.4140  171.4470  142.9600 C   0  0  0  0  0  2  0  0  0  0  0  0
  195.6810  170.5440  142.0010 C   0  0  0  0  0  2  0  0  0  0  0  0
  197.2390  172.7580  139.8950 N   0  0  0  0  0  2  0  0  0  0  0  0
  196.7120  173.4390  138.7150 C   0  0  0  0  0  0  0  0  0  0  0  0
  195.5270  172.7810  138.0370 C   0  0  0  0  0  2  0  0  0  0  0  0
  195.3160  173.9760  138.9550 C   0  0  0  0  0  2  0  0  0  0  0  0
  197.9410  175.5470  138.5640 O   0  0  0  0  0  1  0  0  0  0  0  0
  197.6580  174.3450  137.9030 C   0  0  2  0  0  3  0  0  0  0  0  0
  197.8890  173.7810  135.4800 C   0  0  0  0  0  1  0  0  0  0  0  0
  197.1260  174.6100  136.4950 C   0  0  2  0  0  3  0  0  0  0  0  0
  197.2280  175.9650  136.1650 O   0  0  0  0  0  1  0  0  0  0  0  0
  1 10  1  0  0  0  0
  2 18  1  0  0  0  0
  4 23  2  0  0  0  0
  5 11  1  6  0  0  0
  5 26  1  0  0  0  0
  5  9  1  0  0  0  0
  6 14  1  0  0  0  0
  6  2  2  0  0  0  0
  7  4  1  0  0  0  0
  8 44  1  0  0  0  0
  8 15  1  0  0  0  0
 10 24  1  6  0  0  0
 10 27  1  0  0  0  0
 12 22  1  0  0  0  0
 12  8  2  0  0  0  0
 16 15  2  0  0  0  0
 16 13  1  0  0  0  0
 17  3  2  0  0  0  0
 18 25  1  0  0  0  0
 19 13  1  0  0  0  0
 20 16  1  0  0  0  0
 21 17  1  0  0  0  0
 21 14  1  0  0  0  0
 22 20  2  0  0  0  0
 23 19  1  0  0  0  0
 25  7  1  0  0  0  0
 26  3  1  6  0  0  0
 26  1  1  0  0  0  0
 26  9  1  0  0  0  0
 27 12  1  0  0  0  0
 28 29  1  0  0  0  0
 29  2  1  1  0  0  0
 29 34  1  0  0  0  0
 31 34  1  0  0  0  0
 32 35  1  0  0  0  0
 33 28  1  0  0  0  0
 33 32  2  0  0  0  0
 35 30  1  1  0  0  0
 35 31  1  0  0  0  0
 37 36  2  6  0  0  0
 37  5  1  0  0  0  0
 37 38  1  0  0  0  0
 39 37  1  0  0  0  0
 40 43  1  0  0  0  0
 41 43  2  0  0  0  0
 42 43  1  0  0  0  0
 43 39  1  0  0  0  0
 46 44  1  0  0  0  0
 47 45  2  0  0  0  0
 47 46  1  0  0  0  0
 48 49  1  6  0  0  0
 48 47  1  0  0  0  0
 50 53  1  6  0  0  0
 50 52  1  0  0  0  0
 50 48  1  0  0  0  0
 52 51  1  0  0  0  0
 54 56  1  0  0  0  0
 54 58  1  0  0  0  0
 55 53  1  1  0  0  0
 55 57  1  0  0  0  0
 56 59  1  6  0  0  0
 56 55  1  0  0  0  0
 58 57  1  0  0  0  0
 60 62  1  0  0  0  0
 60 59  1  0  0  0  0
 61 60  1  0  0  0  0
 61 62  1  0  0  0  0
 64 63  1  1  0  0  0
 64 60  1  0  0  0  0
 66 65  1  6  0  0  0
 66 64  1  0  0  0  0
 67 66  1  0  0  0  0
M  END
>  <MODEL>
2

>  <REMARK>
 VINA RESULT:      -5.0      1.344      2.063
  Name = 
  15 active torsions:
  status: ('A' for Active; 'I' for Inactive)
    1  A    between atoms: C_6  and  C_8
    2  A    between atoms: N_10  and  C_28
    3  A    between atoms: C_11  and  C_55
    4  A    between atoms: N_13  and  P_35
    5  A    between atoms: N_13  and  P_61
    6  A    between atoms: C_14  and  P_61
    7  A    between atoms: C_18  and  C_32
    8  A    between atoms: C_18  and  N_34
    9  A    between atoms: C_19  and  C_28
   10  A    between atoms: C_20  and  N_34
   11  A    between atoms: C_29  and  C_32
   12  A    between atoms: C_33  and  C_43
   13  A    between atoms: C_33  and  C_47
   14  A    between atoms: O_45  and  C_47
   15  A    between atoms: C_47  and  C_55
                            x       y       z     vdW  Elec       q    Type
                         _______ _______ _______ _____ _____    ______ ____

>  <TORSDO>
F 15

$$$$
=
 OpenBabel11042418383D

 67 72  0  0  1  0  0  0  0  0999 V2000
  190.6520  173.4800  140.7350 O   0  0  0  0  0  0  0  0  0  0  0  0
  185.4200  178.0160  142.0110 C   0  0  0  0  0  0  0  0  0  0  0  0
  188.3890  174.5340  140.3320 C   0  0  0  0  0  3  0  0  0  0  0  0
  186.6110  178.8190  146.2270 C   0  0  0  0  0  3  0  0  0  0  0  0
  188.9150  172.1190  139.6630 C   0  0  1  0  0  0  0  0  0  0  0  0
  186.0720  177.7530  140.9230 N   0  0  0  0  0  0  0  0  0  0  0  0
  185.8640  179.0750  144.9610 C   0  0  0  0  0  2  0  0  0  0  0  0
  191.6480  174.7180  145.4020 C   0  0  0  0  0  0  0  0  0  0  0  0
  188.5990  172.1050  141.1470 C   0  0  0  0  0  2  0  0  0  0  0  0
  190.8270  174.1430  141.9580 C   0  0  2  0  0  3  0  0  0  0  0  0
  187.7730  172.2030  138.8640 O   0  0  0  0  0  1  0  0  0  0  0  0
  190.6670  174.1250  144.5810 C   0  0  0  0  0  0  0  0  0  0  0  0
  189.5720  177.0220  147.4820 N   0  0  0  0  0  2  0  0  0  0  0  0
  187.3180  177.1190  140.9510 N   0  0  0  0  0  2  0  0  0  0  0  0
  191.2660  175.6710  146.3550 C   0  0  0  0  0  3  0  0  0  0  0  0
  189.9260  176.0410  146.4960 C   0  0  0  0  0  0  0  0  0  0  0  0
  188.8620  175.6460  139.9050 N   0  0  0  0  0  0  0  0  0  0  0  0
  185.9820  177.6690  143.2890 N   0  0  0  0  0  2  0  0  0  0  0  0
  188.4160  177.8220  147.4320 N   0  0  0  0  0  2  0  0  0  0  0  0
  188.9530  175.4160  145.7090 C   0  0  0  0  0  3  0  0  0  0  0  0
  187.9880  176.7750  139.7060 C   0  0  0  0  0  2  0  0  0  0  0  0
  189.3220  174.4640  144.7580 C   0  0  0  0  0  3  0  0  0  0  0  0
  187.6870  178.0470  146.2270 C   0  0  0  0  0  3  0  0  0  0  0  0
  192.0220  175.0700  141.8540 C   0  0  0  0  0  1  0  0  0  0  0  0
  185.3310  177.8810  144.4590 O   0  0  0  0  0  0  0  0  0  0  0  0
  189.2660  173.3280  140.5160 C   0  0  1  0  0  0  0  0  0  0  0  0
  191.0880  172.9350  143.3010 S   0  0  0  0  0  0  0  0  0  0  0  0
  183.5550  178.6270  140.4400 C   0  0  0  0  0  2  0  0  0  0  0  0
  184.0720  178.6590  141.8930 C   0  0  1  0  0  3  0  0  0  0  0  0
  179.5280  179.1550  142.1220 C   0  0  0  0  0  1  0  0  0  0  0  0
  181.8160  178.9250  143.0770 C   0  0  0  0  0  2  0  0  0  0  0  0
  181.2070  177.8970  140.8230 C   0  0  0  0  0  3  0  0  0  0  0  0
  182.3830  177.7080  140.2100 C   0  0  0  0  0  3  0  0  0  0  0  0
  183.1180  178.1210  142.9640 C   0  0  0  0  0  2  0  0  0  0  0  0
  180.9960  179.0370  141.7840 C   0  0  1  0  0  3  0  0  0  0  0  0
  189.5350  169.8240  138.3360 O   0  0  0  0  0  0  0  0  0  0  0  0
  190.1800  170.8920  139.1910 P   0  0  2  0  0  0  0  0  0  0  0  0
  190.7890  170.1950  140.6070 O   0  0  0  0  0  1  0  0  0  0  0  0
  191.4670  171.6920  138.3010 N   0  0  0  0  0  2  0  0  0  0  0  0
  192.1080  169.2310  137.1170 O   0  0  0  0  0  1  0  0  0  0  0  0
  190.4790  170.8910  135.9390 O   0  0  0  0  0  1  0  0  0  0  0  0
  193.0190  171.5440  135.9360 O   0  0  0  0  0  0  0  0  0  0  0  0
  191.7330  170.8440  136.7850 P   0  0  0  0  0  0  0  0  0  0  0  0
  193.1010  174.3670  145.3030 C   0  0  0  0  0  2  0  0  0  0  0  0
  194.2720  170.9130  145.9090 N   0  0  0  0  0  2  0  0  0  0  0  0
  193.3420  173.0540  145.8800 N   0  0  0  0  0  2  0  0  0  0  0  0
  194.1660  172.0410  145.2880 C   0  0  0  0  0  0  0  0  0  0  0  0
  195.1460  172.3920  144.1850 C   0  0  2  0  0  3  0  0  0  0  0  0
  195.0920  171.4170  143.1810 O   0  0  0  0  0  1  0  0  0  0  0  0
  196.6090  172.5560  144.6530 C   0  0  2  0  0  3  0  0  0  0  0  0
  197.1210  173.6400  146.4980 O   0  0  0  0  0  1  0  0  0  0  0  0
  196.7540  172.4490  146.0530 O   0  0  0  0  0  0  0  0  0  0  0  0
  197.2210  173.8580  144.1320 C   0  0  0  0  0  2  0  0  0  0  0  0
  196.7690  176.3090  141.6930 O   0  0  0  0  0  0  0  0  0  0  0  0
  196.2070  174.6660  143.3330 C   0  0  2  0  0  3  0  0  0  0  0  0
  196.6960  174.9190  141.9140 C   0  0  1  0  0  3  0  0  0  0  0  0
  196.0960  176.0340  143.9360 C   0  0  0  0  0  2  0  0  0  0  0  0
  196.8480  176.9030  142.9600 C   0  0  0  0  0  2  0  0  0  0  0  0
  195.7490  174.3310  140.9750 N   0  0  0  0  0  2  0  0  0  0  0  0
  196.4680  173.6000  139.9340 C   0  0  0  0  0  0  0  0  0  0  0  0
  197.9350  173.3290  140.2000 C   0  0  0  0  0  2  0  0  0  0  0  0
  196.9050  172.2310  140.4120 C   0  0  0  0  0  2  0  0  0  0  0  0
  196.9860  173.6130  137.5450 O   0  0  0  0  0  1  0  0  0  0  0  0
  195.9500  173.6800  138.4850 C   0  0  2  0  0  3  0  0  0  0  0  0
  193.6140  174.5460  138.2880 C   0  0  0  0  0  1  0  0  0  0  0  0
  195.0850  174.9180  138.2550 C   0  0  2  0  0  3  0  0  0  0  0  0
  195.3880  175.5230  137.0310 O   0  0  0  0  0  1  0  0  0  0  0  0
  1 10  1  0  0  0  0
  2 18  1  0  0  0  0
  4 23  2  0  0  0  0
  5 11  1  6  0  0  0
  5 26  1  0  0  0  0
  5  9  1  0  0  0  0
  6 14  1  0  0  0  0
  6  2  2  0  0  0  0
  7  4  1  0  0  0  0
  8 15  1  0  0  0  0
 10 24  1  6  0  0  0
 10 27  1  0  0  0  0
 12 22  1  0  0  0  0
 12  8  2  0  0  0  0
 15 16  2  0  0  0  0
 16 13  1  0  0  0  0
 17  3  2  0  0  0  0
 18 25  1  0  0  0  0
 19 13  1  0  0  0  0
 20 16  1  0  0  0  0
 21 17  1  0  0  0  0
 21 14  1  0  0  0  0
 22 20  2  0  0  0  0
 23 19  1  0  0  0  0
 25  7  1  0  0  0  0
 26  3  1  6  0  0  0
 26  1  1  0  0  0  0
 26  9  1  0  0  0  0
 27 12  1  0  0  0  0
 28 29  1  0  0  0  0
 29  2  1  6  0  0  0
 29 34  1  0  0  0  0
 32 35  1  0  0  0  0
 33 28  1  0  0  0  0
 33 32  2  0  0  0  0
 34 31  1  0  0  0  0
 35 30  1  1  0  0  0
 35 31  1  0  0  0  0
 37 36  2  6  0  0  0
 37  5  1  0  0  0  0
 37 38  1  0  0  0  0
 39 37  1  0  0  0  0
 41 43  1  0  0  0  0
 42 43  2  0  0  0  0
 43 40  1  0  0  0  0
 43 39  1  0  0  0  0
 44  8  1  0  0  0  0
 44 46  1  0  0  0  0
 47 46  1  0  0  0  0
 47 45  2  0  0  0  0
 48 49  1  6  0  0  0
 48 50  1  0  0  0  0
 48 47  1  0  0  0  0
 50 53  1  1  0  0  0
 50 52  1  0  0  0  0
 52 51  1  0  0  0  0
 54 56  1  0  0  0  0
 54 58  1  0  0  0  0
 55 57  1  0  0  0  0
 55 53  1  1  0  0  0
 56 59  1  6  0  0  0
 56 55  1  0  0  0  0
 58 57  1  0  0  0  0
 60 61  1  0  0  0  0
 60 62  1  0  0  0  0
 60 59  1  0  0  0  0
 61 62  1  0  0  0  0
 64 63  1  6  0  0  0
 64 60  1  0  0  0  0
 66 65  1  6  0  0  0
 66 64  1  0  0  0  0
 67 66  1  0  0  0  0
M  END
>  <MODEL>
3

>  <REMARK>
 VINA RESULT:      -4.8      1.549      2.538
  Name = 
  15 active torsions:
  status: ('A' for Active; 'I' for Inactive)
    1  A    between atoms: C_6  and  C_8
    2  A    between atoms: N_10  and  C_28
    3  A    between atoms: C_11  and  C_55
    4  A    between atoms: N_13  and  P_35
    5  A    between atoms: N_13  and  P_61
    6  A    between atoms: C_14  and  P_61
    7  A    between atoms: C_18  and  C_32
    8  A    between atoms: C_18  and  N_34
    9  A    between atoms: C_19  and  C_28
   10  A    between atoms: C_20  and  N_34
   11  A    between atoms: C_29  and  C_32
   12  A    between atoms: C_33  and  C_43
   13  A    between atoms: C_33  and  C_47
   14  A    between atoms: O_45  and  C_47
   15  A    between atoms: C_47  and  C_55
                            x       y       z     vdW  Elec       q    Type
                         _______ _______ _______ _____ _____    ______ ____

>  <TORSDO>
F 15

$$$$
=
 OpenBabel11042418383D

 67 72  0  0  1  0  0  0  0  0999 V2000
  190.2310  176.4730  143.8290 O   0  0  0  0  0  0  0  0  0  0  0  0
  193.9610  173.7660  138.5070 C   0  0  0  0  0  0  0  0  0  0  0  0
  192.1290  175.1520  142.8050 C   0  0  0  0  0  3  0  0  0  0  0  0
  190.6380  173.9730  135.5490 C   0  0  0  0  0  3  0  0  0  0  0  0
  191.2450  174.6790  145.1620 C   0  0  1  0  0  0  0  0  0  0  0  0
  194.3210  174.4980  139.5120 N   0  0  0  0  0  0  0  0  0  0  0  0
  192.0570  173.8080  135.9780 C   0  0  0  0  0  2  0  0  0  0  0  0
  186.8720  176.5880  140.2230 C   0  0  0  0  0  0  0  0  0  0  0  0
  190.2990  173.9950  144.1930 C   0  0  0  0  0  2  0  0  0  0  0  0
  189.5490  176.5840  142.6100 C   0  0  2  0  0  3  0  0  0  0  0  0
  192.4350  173.9730  145.3520 O   0  0  0  0  0  1  0  0  0  0  0  0
  187.6850  175.7140  140.9740 C   0  0  0  0  0  0  0  0  0  0  0  0
  187.4250  175.3090  136.7580 N   0  0  0  0  0  2  0  0  0  0  0  0
  193.3950  175.2550  140.2370 N   0  0  0  0  0  2  0  0  0  0  0  0
  186.7980  176.4350  138.8330 C   0  0  0  0  0  3  0  0  0  0  0  0
  187.5240  175.4330  138.1850 C   0  0  0  0  0  0  0  0  0  0  0  0
  192.7260  176.1780  142.3220 N   0  0  0  0  0  0  0  0  0  0  0  0
  192.5820  173.7290  138.1000 N   0  0  0  0  0  2  0  0  0  0  0  0
  188.4000  174.7100  135.9400 N   0  0  0  0  0  2  0  0  0  0  0  0
  188.2930  174.5420  138.9410 C   0  0  0  0  0  3  0  0  0  0  0  0
  193.8250  176.0090  141.4040 C   0  0  0  0  0  2  0  0  0  0  0  0
  188.3720  174.6830  140.3280 C   0  0  0  0  0  3  0  0  0  0  0  0
  189.7510  174.5300  136.3590 C   0  0  0  0  0  3  0  0  0  0  0  0
  189.4690  178.0470  142.2190 C   0  0  0  0  0  1  0  0  0  0  0  0
  192.1360  172.9520  137.0820 O   0  0  0  0  0  0  0  0  0  0  0  0
  191.0030  175.2920  143.7920 C   0  0  1  0  0  0  0  0  0  0  0  0
  187.8720  175.8820  142.7550 S   0  0  0  0  0  0  0  0  0  0  0  0
  196.3850  173.0990  138.4900 C   0  0  0  0  0  2  0  0  0  0  0  0
  195.0080  172.9530  137.8090 C   0  0  1  0  0  3  0  0  0  0  0  0
  197.4680  169.3010  136.5610 C   0  0  0  0  0  1  0  0  0  0  0  0
  195.4210  170.7150  136.6320 C   0  0  0  0  0  2  0  0  0  0  0  0
  197.1040  170.7180  138.5480 C   0  0  0  0  0  3  0  0  0  0  0  0
  196.8680  171.8630  139.2030 C   0  0  0  0  0  3  0  0  0  0  0  0
  194.5180  171.5210  137.5750 C   0  0  0  0  0  2  0  0  0  0  0  0
  196.8890  170.6040  137.0620 C   0  0  1  0  0  3  0  0  0  0  0  0
  191.3060  175.1250  147.8470 O   0  0  0  0  0  1  0  0  0  0  0  0
  190.4040  175.3190  146.6480 P   0  0  2  0  0  0  0  0  0  0  0  0
  188.9770  174.4380  146.8640 O   0  0  0  0  0  0  0  0  0  0  0  0
  190.0410  177.0240  146.4270 N   0  0  0  0  0  2  0  0  0  0  0  0
  187.5400  175.7670  146.6080 O   0  0  0  0  0  1  0  0  0  0  0  0
  188.0040  177.9970  147.8750 O   0  0  0  0  0  1  0  0  0  0  0  0
  187.7210  178.1680  145.2740 O   0  0  0  0  0  0  0  0  0  0  0  0
  188.3080  177.2710  146.5830 P   0  0  0  0  0  0  0  0  0  0  0  0
  186.0680  177.6830  140.8540 C   0  0  0  0  0  2  0  0  0  0  0  0
  184.4700  177.5540  144.1850 N   0  0  0  0  0  2  0  0  0  0  0  0
  185.6840  177.3110  142.2060 N   0  0  0  0  0  2  0  0  0  0  0  0
  184.6920  177.9890  142.9880 C   0  0  0  0  0  0  0  0  0  0  0  0
  183.7040  178.9320  142.3310 C   0  0  2  0  0  3  0  0  0  0  0  0
  183.1760  179.8040  143.2910 O   0  0  0  0  0  1  0  0  0  0  0  0
  182.5430  178.2320  141.5900 C   0  0  2  0  0  3  0  0  0  0  0  0
  182.8750  177.1020  139.7320 O   0  0  0  0  0  1  0  0  0  0  0  0
  182.6510  178.3240  140.1860 O   0  0  0  0  0  0  0  0  0  0  0  0
  181.1820  178.7400  142.0740 C   0  0  0  0  0  2  0  0  0  0  0  0
  177.7710  178.9250  141.3780 O   0  0  0  0  0  0  0  0  0  0  0  0
  180.0620  178.2920  141.1450 C   0  0  2  0  0  3  0  0  0  0  0  0
  179.0300  179.3940  140.9520 C   0  0  1  0  0  3  0  0  0  0  0  0
  179.3010  177.1820  141.8070 C   0  0  0  0  0  2  0  0  0  0  0  0
  178.0260  177.8550  142.2470 C   0  0  0  0  0  2  0  0  0  0  0  0
  178.9620  179.7370  139.5380 N   0  0  0  0  0  2  0  0  0  0  0  0
  178.5290  181.1240  139.3820 C   0  0  0  0  0  0  0  0  0  0  0  0
  177.9450  181.7850  140.6140 C   0  0  0  0  0  2  0  0  0  0  0  0
  179.3800  182.0720  140.2010 C   0  0  0  0  0  2  0  0  0  0  0  0
  178.4130  180.6770  136.9810 O   0  0  0  0  0  1  0  0  0  0  0  0
  178.1230  181.6160  137.9790 C   0  0  2  0  0  3  0  0  0  0  0  0
  177.6960  183.9000  137.0600 C   0  0  0  0  0  1  0  0  0  0  0  0
  178.7430  182.9720  137.6470 C   0  0  2  0  0  3  0  0  0  0  0  0
  179.8040  182.8340  136.7470 O   0  0  0  0  0  1  0  0  0  0  0  0
  2  6  2  0  0  0  0
  4  7  1  0  0  0  0
  4 23  2  0  0  0  0
  5 11  1  1  0  0  0
  5 37  1  0  0  0  0
  6 14  1  0  0  0  0
  7 25  1  0  0  0  0
  8 44  1  0  0  0  0
  8 12  1  0  0  0  0
  9  5  1  0  0  0  0
 10 24  1  1  0  0  0
 10 27  1  0  0  0  0
 10  1  1  0  0  0  0
 12 27  1  0  0  0  0
 13 16  1  0  0  0  0
 14 21  1  0  0  0  0
 15  8  2  0  0  0  0
 16 15  1  0  0  0  0
 16 20  2  0  0  0  0
 17  3  2  0  0  0  0
 18  2  1  0  0  0  0
 19 23  1  0  0  0  0
 19 13  1  0  0  0  0
 20 22  1  0  0  0  0
 21 17  1  0  0  0  0
 22 12  2  0  0  0  0
 25 18  1  0  0  0  0
 26  3  1  6  0  0  0
 26  1  1  0  0  0  0
 26  9  1  0  0  0  0
 26  5  1  0  0  0  0
 28 33  1  0  0  0  0
 29 28  1  0  0  0  0
 29  2  1  1  0  0  0
 31 35  1  0  0  0  0
 31 34  1  0  0  0  0
 32 33  2  0  0  0  0
 34 29  1  0  0  0  0
 35 30  1  1  0  0  0
 35 32  1  0  0  0  0
 37 38  2  1  0  0  0
 37 36  1  0  0  0  0
 39 43  1  0  0  0  0
 39 37  1  0  0  0  0
 42 43  2  0  0  0  0
 43 40  1  0  0  0  0
 43 41  1  0  0  0  0
 44 46  1  0  0  0  0
 46 47  1  0  0  0  0
 47 45  2  0  0  0  0
 48 47  1  0  0  0  0
 48 49  1  1  0  0  0
 50 53  1  1  0  0  0
 50 48  1  0  0  0  0
 51 52  1  0  0  0  0
 52 50  1  0  0  0  0
 54 58  1  0  0  0  0
 55 57  1  0  0  0  0
 55 53  1  1  0  0  0
 56 59  1  6  0  0  0
 56 55  1  0  0  0  0
 56 54  1  0  0  0  0
 57 58  1  0  0  0  0
 60 59  1  0  0  0  0
 60 62  1  0  0  0  0
 60 61  1  0  0  0  0
 62 61  1  0  0  0  0
 64 63  1  6  0  0  0
 64 60  1  0  0  0  0
 66 65  1  6  0  0  0
 66 64  1  0  0  0  0
 67 66  1  0  0  0  0
M  END
>  <MODEL>
4

>  <REMARK>
 VINA RESULT:      -4.2      3.848     12.875
  Name = 
  15 active torsions:
  status: ('A' for Active; 'I' for Inactive)
    1  A    between atoms: C_6  and  C_8
    2  A    between atoms: N_10  and  C_28
    3  A    between atoms: C_11  and  C_55
    4  A    between atoms: N_13  and  P_35
    5  A    between atoms: N_13  and  P_61
    6  A    between atoms: C_14  and  P_61
    7  A    between atoms: C_18  and  C_32
    8  A    between atoms: C_18  and  N_34
    9  A    between atoms: C_19  and  C_28
   10  A    between atoms: C_20  and  N_34
   11  A    between atoms: C_29  and  C_32
   12  A    between atoms: C_33  and  C_43
   13  A    between atoms: C_33  and  C_47
   14  A    between atoms: O_45  and  C_47
   15  A    between atoms: C_47  and  C_55
                            x       y       z     vdW  Elec       q    Type
                         _______ _______ _______ _____ _____    ______ ____

>  <TORSDO>
F 15

$$$$
=
 OpenBabel11042418383D

 67 72  0  0  1  0  0  0  0  0999 V2000
  192.3970  172.5340  141.2630 O   0  0  0  0  0  0  0  0  0  0  0  0
  186.8160  176.4130  143.1020 C   0  0  0  0  0  0  0  0  0  0  0  0
  189.9630  173.2160  141.1950 C   0  0  0  0  0  3  0  0  0  0  0  0
  188.5620  177.8180  146.9520 C   0  0  0  0  0  3  0  0  0  0  0  0
  190.7360  170.8390  140.6380 C   0  0  1  0  0  0  0  0  0  0  0  0
  187.3080  176.1290  141.9390 N   0  0  0  0  0  0  0  0  0  0  0  0
  187.5810  177.8320  145.8270 C   0  0  0  0  0  2  0  0  0  0  0  0
  193.9610  174.3880  145.5550 C   0  0  0  0  0  0  0  0  0  0  0  0
  190.6800  170.9400  142.1510 C   0  0  0  0  0  2  0  0  0  0  0  0
  192.6710  173.3410  142.3760 C   0  0  2  0  0  3  0  0  0  0  0  0
  189.4760  170.6790  140.0570 O   0  0  0  0  0  1  0  0  0  0  0  0
  192.9590  173.5800  144.9770 C   0  0  0  0  0  0  0  0  0  0  0  0
  191.9340  176.5920  147.7860 N   0  0  0  0  0  2  0  0  0  0  0  0
  188.6250  175.6790  141.7890 N   0  0  0  0  0  2  0  0  0  0  0  0
  193.6020  175.3740  146.4820 C   0  0  0  0  0  3  0  0  0  0  0  0
  192.2640  175.5690  146.8340 C   0  0  0  0  0  0  0  0  0  0  0  0
  190.1790  174.3310  140.6010 N   0  0  0  0  0  0  0  0  0  0  0  0
  187.6320  176.2860  144.2800 N   0  0  0  0  0  2  0  0  0  0  0  0
  190.6760  177.2140  147.8840 N   0  0  0  0  0  2  0  0  0  0  0  0
  191.2810  174.7350  146.2910 C   0  0  0  0  0  3  0  0  0  0  0  0
  189.1200  175.3000  140.4750 C   0  0  0  0  0  2  0  0  0  0  0  0
  191.6270  173.7470  145.3690 C   0  0  0  0  0  3  0  0  0  0  0  0
  189.7290  177.2070  146.8180 C   0  0  0  0  0  3  0  0  0  0  0  0
  193.6720  174.4070  141.9810 C   0  0  0  0  0  1  0  0  0  0  0  0
  187.1640  176.5300  145.5280 O   0  0  0  0  0  0  0  0  0  0  0  0
  191.0340  172.1690  141.3130 C   0  0  1  0  0  0  0  0  0  0  0  0
  193.3370  172.3310  143.7410 S   0  0  0  0  0  0  0  0  0  0  0  0
  185.0470  177.4370  144.5670 C   0  0  0  0  0  2  0  0  0  0  0  0
  185.3850  176.8480  143.1810 C   0  0  1  0  0  3  0  0  0  0  0  0
  181.6620  179.4480  142.6140 C   0  0  0  0  0  1  0  0  0  0  0  0
  183.5030  177.9600  141.8450 C   0  0  0  0  0  2  0  0  0  0  0  0
  183.7760  179.4650  143.8860 C   0  0  0  0  0  3  0  0  0  0  0  0
  184.7900  178.9220  144.5730 C   0  0  0  0  0  3  0  0  0  0  0  0
  185.0110  177.7090  141.9700 C   0  0  0  0  0  2  0  0  0  0  0  0
  182.8420  178.6180  143.0640 C   0  0  1  0  0  3  0  0  0  0  0  0
  192.4020  168.7410  141.1180 O   0  0  0  0  0  1  0  0  0  0  0  0
  192.0770  169.7560  140.0450 P   0  0  2  0  0  0  0  0  0  0  0  0
  193.4340  170.7180  139.7430 O   0  0  0  0  0  0  0  0  0  0  0  0
  191.5640  168.9430  138.5730 N   0  0  0  0  0  2  0  0  0  0  0  0
  194.2370  169.0960  137.7350 O   0  0  0  0  0  1  0  0  0  0  0  0
  192.3370  168.5600  136.0330 O   0  0  0  0  0  0  0  0  0  0  0  0
  192.4740  171.0340  136.8930 O   0  0  0  0  0  1  0  0  0  0  0  0
  192.6430  169.3910  137.2600 P   0  0  0  0  0  0  0  0  0  0  0  0
  195.4130  174.2320  145.2210 C   0  0  0  0  0  2  0  0  0  0  0  0
  197.1860  171.0040  145.5510 N   0  0  0  0  0  2  0  0  0  0  0  0
  195.9050  172.9500  145.7020 N   0  0  0  0  0  2  0  0  0  0  0  0
  196.8550  172.1300  145.0090 C   0  0  0  0  0  0  0  0  0  0  0  0
  197.6980  172.7050  143.8870 C   0  0  2  0  0  3  0  0  0  0  0  0
  197.9390  174.0630  144.1290 O   0  0  0  0  0  1  0  0  0  0  0  0
  197.0890  172.5410  142.4770 C   0  0  2  0  0  3  0  0  0  0  0  0
  195.5790  171.0900  141.8020 O   0  0  0  0  0  1  0  0  0  0  0  0
  196.8560  171.1920  142.1310 O   0  0  0  0  0  0  0  0  0  0  0  0
  197.9380  173.2460  141.4150 C   0  0  0  0  0  2  0  0  0  0  0  0
  197.9160  174.7420  138.2660 O   0  0  0  0  0  0  0  0  0  0  0  0
  197.0710  173.7900  140.2870 C   0  0  2  0  0  3  0  0  0  0  0  0
  197.6990  173.5160  138.9270 C   0  0  1  0  0  3  0  0  0  0  0  0
  197.0340  175.2860  140.3850 C   0  0  0  0  0  2  0  0  0  0  0  0
  197.9410  175.7260  139.2640 C   0  0  0  0  0  2  0  0  0  0  0  0
  196.7850  172.7000  138.1390 N   0  0  0  0  0  2  0  0  0  0  0  0
  196.5970  173.2960  136.8180 C   0  0  0  0  0  0  0  0  0  0  0  0
  197.6200  172.9230  135.7650 C   0  0  0  0  0  2  0  0  0  0  0  0
  196.2550  172.2520  135.7760 C   0  0  0  0  0  2  0  0  0  0  0  0
  194.5260  174.5380  137.1950 O   0  0  0  0  0  1  0  0  0  0  0  0
  195.8380  174.6330  136.7150 C   0  0  2  0  0  3  0  0  0  0  0  0
  196.5910  176.5210  135.2610 C   0  0  0  0  0  1  0  0  0  0  0  0
  195.8580  175.1930  135.2930 C   0  0  2  0  0  3  0  0  0  0  0  0
  194.5610  175.3620  134.8000 O   0  0  0  0  0  1  0  0  0  0  0  0
  1 26  1  0  0  0  0
  1 10  1  0  0  0  0
  2 18  1  0  0  0  0
  5 11  1  6  0  0  0
  5 26  1  0  0  0  0
  5  9  1  0  0  0  0
  6  2  2  0  0  0  0
  7  4  1  0  0  0  0
  8 15  1  0  0  0  0
 10 24  1  6  0  0  0
 10 27  1  0  0  0  0
 12 22  1  0  0  0  0
 12  8  2  0  0  0  0
 13 19  1  0  0  0  0
 14  6  1  0  0  0  0
 15 16  2  0  0  0  0
 16 13  1  0  0  0  0
 17  3  2  0  0  0  0
 18 25  1  0  0  0  0
 20 16  1  0  0  0  0
 21 17  1  0  0  0  0
 21 14  1  0  0  0  0
 22 20  2  0  0  0  0
 23  4  2  0  0  0  0
 23 19  1  0  0  0  0
 25  7  1  0  0  0  0
 26  3  1  6  0  0  0
 26  9  1  0  0  0  0
 27 12  1  0  0  0  0
 28 33  1  0  0  0  0
 29  2  1  1  0  0  0
 29 28  1  0  0  0  0
 31 34  1  0  0  0  0
 31 35  1  0  0  0  0
 32 33  2  0  0  0  0
 34 29  1  0  0  0  0
 35 30  1  6  0  0  0
 35 32  1  0  0  0  0
 37 38  2  6  0  0  0
 37  5  1  0  0  0  0
 37 36  1  0  0  0  0
 39 37  1  0  0  0  0
 41 43  2  0  0  0  0
 42 43  1  0  0  0  0
 43 40  1  0  0  0  0
 43 39  1  0  0  0  0
 44  8  1  0  0  0  0
 44 46  1  0  0  0  0
 47 45  2  0  0  0  0
 47 46  1  0  0  0  0
 48 49  1  1  0  0  0
 48 47  1  0  0  0  0
 50 53  1  6  0  0  0
 50 48  1  0  0  0  0
 51 52  1  0  0  0  0
 52 50  1  0  0  0  0
 54 56  1  0  0  0  0
 54 58  1  0  0  0  0
 55 57  1  0  0  0  0
 55 53  1  1  0  0  0
 56 59  1  6  0  0  0
 56 55  1  0  0  0  0
 58 57  1  0  0  0  0
 60 59  1  0  0  0  0
 61 62  1  0  0  0  0
 61 60  1  0  0  0  0
 62 60  1  0  0  0  0
 64 60  1  0  0  0  0
 64 63  1  6  0  0  0
 66 65  1  1  0  0  0
 66 64  1  0  0  0  0
 67 66  1  0  0  0  0
M  END
>  <MODEL>
5

>  <REMARK>
 VINA RESULT:      -4.0      2.224      3.698
  Name = 
  15 active torsions:
  status: ('A' for Active; 'I' for Inactive)
    1  A    between atoms: C_6  and  C_8
    2  A    between atoms: N_10  and  C_28
    3  A    between atoms: C_11  and  C_55
    4  A    between atoms: N_13  and  P_35
    5  A    between atoms: N_13  and  P_61
    6  A    between atoms: C_14  and  P_61
    7  A    between atoms: C_18  and  C_32
    8  A    between atoms: C_18  and  N_34
    9  A    between atoms: C_19  and  C_28
   10  A    between atoms: C_20  and  N_34
   11  A    between atoms: C_29  and  C_32
   12  A    between atoms: C_33  and  C_43
   13  A    between atoms: C_33  and  C_47
   14  A    between atoms: O_45  and  C_47
   15  A    between atoms: C_47  and  C_55
                            x       y       z     vdW  Elec       q    Type
                         _______ _______ _______ _____ _____    ______ ____

>  <TORSDO>
F 15

$$$$
=
 OpenBabel11042418383D

 67 72  0  0  1  0  0  0  0  0999 V2000
  189.7430  174.5720  140.8120 O   0  0  0  0  0  0  0  0  0  0  0  0
  183.5200  176.2690  137.9890 C   0  0  0  0  0  0  0  0  0  0  0  0
  187.7960  174.2810  139.2250 C   0  0  0  0  0  3  0  0  0  0  0  0
  182.1390  178.6610  141.4830 C   0  0  0  0  0  3  0  0  0  0  0  0
  189.2640  172.3180  139.9660 C   0  0  1  0  0  0  0  0  0  0  0  0
  184.6730  176.0560  137.4400 N   0  0  0  0  0  0  0  0  0  0  0  0
  182.0920  178.1770  140.0720 C   0  0  0  0  0  2  0  0  0  0  0  0
  187.8500  177.3610  144.4090 C   0  0  0  0  0  0  0  0  0  0  0  0
  188.2650  172.5660  141.0820 C   0  0  0  0  0  2  0  0  0  0  0  0
  189.0780  175.5460  141.5700 C   0  0  2  0  0  3  0  0  0  0  0  0
  188.7100  171.6330  138.8830 O   0  0  0  0  0  1  0  0  0  0  0  0
  187.6360  176.1760  143.6740 C   0  0  0  0  0  0  0  0  0  0  0  0
  184.4440  178.8900  144.3480 N   0  0  0  0  0  2  0  0  0  0  0  0
  185.8600  176.1170  138.1790 N   0  0  0  0  0  2  0  0  0  0  0  0
  186.7830  178.2420  144.6230 C   0  0  0  0  0  3  0  0  0  0  0  0
  185.5130  177.9620  144.1110 C   0  0  0  0  0  0  0  0  0  0  0  0
  188.0710  175.3190  138.5250 N   0  0  0  0  0  0  0  0  0  0  0  0
  183.4370  176.5940  139.3880 N   0  0  0  0  0  2  0  0  0  0  0  0
  183.2940  179.0040  143.5450 N   0  0  0  0  0  2  0  0  0  0  0  0
  185.2980  176.7640  143.4220 C   0  0  0  0  0  3  0  0  0  0  0  0
  187.1300  175.8010  137.5450 C   0  0  0  0  0  2  0  0  0  0  0  0
  186.3540  175.8770  143.2050 C   0  0  0  0  0  3  0  0  0  0  0  0
  183.2400  178.5190  142.2050 C   0  0  0  0  0  3  0  0  0  0  0  0
  189.8330  176.8560  141.4660 C   0  0  0  0  0  1  0  0  0  0  0  0
  182.2580  176.7880  140.0280 O   0  0  0  0  0  0  0  0  0  0  0  0
  188.7690  173.7320  140.2290 C   0  0  1  0  0  0  0  0  0  0  0  0
  188.9690  175.0240  143.3140 S   0  0  0  0  0  0  0  0  0  0  0  0
  182.6370  176.2340  135.6350 C   0  0  0  0  0  2  0  0  0  0  0  0
  182.2940  176.1430  137.1370 C   0  0  1  0  0  3  0  0  0  0  0  0
  178.8210  174.1830  134.8930 C   0  0  0  0  0  1  0  0  0  0  0  0
  180.0610  174.9060  136.9270 C   0  0  0  0  0  2  0  0  0  0  0  0
  181.2800  174.3420  134.7580 C   0  0  0  0  0  3  0  0  0  0  0  0
  182.4710  174.9450  134.8740 C   0  0  0  0  0  3  0  0  0  0  0  0
  181.4540  174.9370  137.5680 C   0  0  0  0  0  2  0  0  0  0  0  0
  180.0420  174.9190  135.3920 C   0  0  1  0  0  3  0  0  0  0  0  0
  191.9740  172.3770  139.7270 O   0  0  0  0  0  0  0  0  0  0  0  0
  190.8870  171.7540  140.5740 P   0  0  2  0  0  0  0  0  0  0  0  0
  190.9480  170.0700  140.4260 O   0  0  0  0  0  1  0  0  0  0  0  0
  191.0780  172.2260  142.2560 N   0  0  0  0  0  2  0  0  0  0  0  0
  193.7360  171.4450  141.8120 O   0  0  0  0  0  0  0  0  0  0  0  0
  192.9200  172.0930  144.2020 O   0  0  0  0  0  1  0  0  0  0  0  0
  192.0950  169.7850  143.2700 O   0  0  0  0  0  1  0  0  0  0  0  0
  192.4730  171.3990  142.9340 P   0  0  0  0  0  0  0  0  0  0  0  0
  189.1850  177.7210  144.9850 C   0  0  0  0  0  2  0  0  0  0  0  0
  191.0130  175.4040  147.2130 N   0  0  0  0  0  2  0  0  0  0  0  0
  189.5430  176.7930  146.0470 N   0  0  0  0  0  2  0  0  0  0  0  0
  190.8480  176.2310  146.2330 C   0  0  0  0  0  0  0  0  0  0  0  0
  192.0560  176.8420  145.5490 C   0  0  2  0  0  3  0  0  0  0  0  0
  191.9210  176.7200  144.1610 O   0  0  0  0  0  1  0  0  0  0  0  0
  193.4110  176.2390  145.9800 C   0  0  2  0  0  3  0  0  0  0  0  0
  194.6750  177.8980  145.2780 O   0  0  0  0  0  1  0  0  0  0  0  0
  194.3520  177.2180  146.3660 O   0  0  0  0  0  0  0  0  0  0  0  0
  193.9840  175.3170  144.9000 C   0  0  0  0  0  2  0  0  0  0  0  0
  196.7620  173.2440  144.5280 O   0  0  0  0  0  0  0  0  0  0  0  0
  195.5000  175.2130  145.0080 C   0  0  2  0  0  3  0  0  0  0  0  0
  196.0710  174.3130  143.9220 C   0  0  1  0  0  3  0  0  0  0  0  0
  195.8460  174.5150  146.2900 C   0  0  0  0  0  2  0  0  0  0  0  0
  196.2580  173.1400  145.8310 C   0  0  0  0  0  2  0  0  0  0  0  0
  196.9980  175.0850  143.1060 N   0  0  0  0  0  2  0  0  0  0  0  0
  196.7720  174.8000  141.6900 C   0  0  0  0  0  0  0  0  0  0  0  0
  197.9320  174.1760  140.9410 C   0  0  0  0  0  2  0  0  0  0  0  0
  196.7730  173.3110  141.4120 C   0  0  0  0  0  2  0  0  0  0  0  0
  195.3320  176.7740  141.6400 O   0  0  0  0  0  1  0  0  0  0  0  0
  195.7220  175.6320  140.9290 C   0  0  2  0  0  3  0  0  0  0  0  0
  194.1390  175.0550  139.0840 C   0  0  0  0  0  1  0  0  0  0  0  0
  194.5070  174.7950  140.5330 C   0  0  2  0  0  3  0  0  0  0  0  0
  193.4110  175.0810  141.3520 O   0  0  0  0  0  1  0  0  0  0  0  0
  1 10  1  0  0  0  0
  2 18  1  0  0  0  0
  4 23  2  0  0  0  0
  5 11  1  6  0  0  0
  5 26  1  0  0  0  0
  5 37  1  0  0  0  0
  5  9  1  0  0  0  0
  6  2  2  0  0  0  0
  6 14  1  0  0  0  0
  7  4  1  0  0  0  0
  8 15  1  0  0  0  0
  8 44  1  0  0  0  0
 10 24  1  1  0  0  0
 10 27  1  0  0  0  0
 12  8  2  0  0  0  0
 16 13  1  0  0  0  0
 16 15  2  0  0  0  0
 17  3  2  0  0  0  0
 18 25  1  0  0  0  0
 19 13  1  0  0  0  0
 20 16  1  0  0  0  0
 21 14  1  0  0  0  0
 21 17  1  0  0  0  0
 22 20  2  0  0  0  0
 22 12  1  0  0  0  0
 23 19  1  0  0  0  0
 25  7  1  0  0  0  0
 26  3  1  6  0  0  0
 26  1  1  0  0  0  0
 26  9  1  0  0  0  0
 27 12  1  0  0  0  0
 28 29  1  0  0  0  0
 29 34  1  0  0  0  0
 29  2  1  1  0  0  0
 31 34  1  0  0  0  0
 32 33  2  0  0  0  0
 32 35  1  0  0  0  0
 33 28  1  0  0  0  0
 35 30  1  6  0  0  0
 35 31  1  0  0  0  0
 37 36  2  6  0  0  0
 37 39  1  0  0  0  0
 38 37  1  0  0  0  0
 39 43  1  0  0  0  0
 40 43  2  0  0  0  0
 43 42  1  0  0  0  0
 43 41  1  0  0  0  0
 44 46  1  0  0  0  0
 46 47  1  0  0  0  0
 47 45  2  0  0  0  0
 48 49  1  6  0  0  0
 48 50  1  0  0  0  0
 48 47  1  0  0  0  0
 50 53  1  6  0  0  0
 50 52  1  0  0  0  0
 51 52  1  0  0  0  0
 54 58  1  0  0  0  0
 55 53  1  6  0  0  0
 55 57  1  0  0  0  0
 56 59  1  6  0  0  0
 56 54  1  0  0  0  0
 56 55  1  0  0  0  0
 58 57  1  0  0  0  0
 60 59  1  0  0  0  0
 61 62  1  0  0  0  0
 61 60  1  0  0  0  0
 62 60  1  0  0  0  0
 64 63  1  1  0  0  0
 64 60  1  0  0  0  0
 66 65  1  6  0  0  0
 66 64  1  0  0  0  0
 66 67  1  0  0  0  0
M  END
>  <MODEL>
6

>  <REMARK>
 VINA RESULT:      -3.4      2.773      4.243
  Name = 
  15 active torsions:
  status: ('A' for Active; 'I' for Inactive)
    1  A    between atoms: C_6  and  C_8
    2  A    between atoms: N_10  and  C_28
    3  A    between atoms: C_11  and  C_55
    4  A    between atoms: N_13  and  P_35
    5  A    between atoms: N_13  and  P_61
    6  A    between atoms: C_14  and  P_61
    7  A    between atoms: C_18  and  C_32
    8  A    between atoms: C_18  and  N_34
    9  A    between atoms: C_19  and  C_28
   10  A    between atoms: C_20  and  N_34
   11  A    between atoms: C_29  and  C_32
   12  A    between atoms: C_33  and  C_43
   13  A    between atoms: C_33  and  C_47
   14  A    between atoms: O_45  and  C_47
   15  A    between atoms: C_47  and  C_55
                            x       y       z     vdW  Elec       q    Type
                         _______ _______ _______ _____ _____    ______ ____

>  <TORSDO>
F 15

$$$$
=
 OpenBabel11042418383D

 67 72  0  0  1  0  0  0  0  0999 V2000
  192.4290  172.5760  137.0830 O   0  0  0  0  0  0  0  0  0  0  0  0
  186.3120  176.0580  136.9240 C   0  0  0  0  0  0  0  0  0  0  0  0
  190.0890  173.0530  136.2500 C   0  0  0  0  0  3  0  0  0  0  0  0
  186.7190  177.7610  141.0190 C   0  0  0  0  0  3  0  0  0  0  0  0
  191.1480  170.7260  136.1030 C   0  0  1  0  0  0  0  0  0  0  0  0
  187.1490  175.7660  135.9810 N   0  0  0  0  0  0  0  0  0  0  0  0
  186.1250  177.6480  139.6550 C   0  0  0  0  0  2  0  0  0  0  0  0
  192.5010  174.7300  141.5170 C   0  0  0  0  0  0  0  0  0  0  0  0
  190.6330  170.8850  137.5210 C   0  0  0  0  0  2  0  0  0  0  0  0
  192.3010  173.4480  138.1730 C   0  0  2  0  0  3  0  0  0  0  0  0
  190.1360  170.4390  135.1850 O   0  0  0  0  0  1  0  0  0  0  0  0
  191.7750  173.8200  140.7200 C   0  0  0  0  0  0  0  0  0  0  0  0
  189.7560  176.8510  142.8970 N   0  0  0  0  0  2  0  0  0  0  0  0
  188.4760  175.4210  136.2590 N   0  0  0  0  0  2  0  0  0  0  0  0
  191.8150  175.7210  142.2290 C   0  0  0  0  0  3  0  0  0  0  0  0
  190.4230  175.8210  142.1540 C   0  0  0  0  0  0  0  0  0  0  0  0
  190.4010  174.1560  135.6770 N   0  0  0  0  0  0  0  0  0  0  0  0
  186.7410  176.0480  138.2970 N   0  0  0  0  0  2  0  0  0  0  0  0
  188.4890  177.3730  142.5750 N   0  0  0  0  0  2  0  0  0  0  0  0
  189.7070  174.8870  141.3980 C   0  0  0  0  0  3  0  0  0  0  0  0
  189.3680  175.0290  135.1790 C   0  0  0  0  0  2  0  0  0  0  0  0
  190.3800  173.8930  140.6860 C   0  0  0  0  0  3  0  0  0  0  0  0
  187.9100  177.2430  141.2790 C   0  0  0  0  0  3  0  0  0  0  0  0
  193.3030  174.5760  138.0260 C   0  0  0  0  0  1  0  0  0  0  0  0
  185.9030  176.3050  139.3310 O   0  0  0  0  0  0  0  0  0  0  0  0
  191.1420  172.1030  136.7480 C   0  0  1  0  0  0  0  0  0  0  0  0
  192.5900  172.5540  139.7360 S   0  0  0  0  0  0  0  0  0  0  0  0
  184.6920  176.3080  135.0170 C   0  0  0  0  0  2  0  0  0  0  0  0
  184.8980  176.3770  136.5450 C   0  0  1  0  0  3  0  0  0  0  0  0
  180.4100  175.7930  135.8650 C   0  0  0  0  0  1  0  0  0  0  0  0
  182.4600  176.0460  137.2560 C   0  0  0  0  0  2  0  0  0  0  0  0
  182.5580  175.0330  134.9170 C   0  0  0  0  0  3  0  0  0  0  0  0
  183.8400  175.1570  134.5500 C   0  0  0  0  0  3  0  0  0  0  0  0
  183.9120  175.5740  137.3980 C   0  0  0  0  0  2  0  0  0  0  0  0
  181.9010  176.0370  135.8270 C   0  0  1  0  0  3  0  0  0  0  0  0
  192.6750  168.9560  134.7080 O   0  0  0  0  0  0  0  0  0  0  0  0
  192.6740  169.7320  136.0060 P   0  0  2  0  0  0  0  0  0  0  0  0
  192.6840  168.6560  137.3110 O   0  0  0  0  0  1  0  0  0  0  0  0
  194.0710  170.7960  136.0820 N   0  0  0  0  0  2  0  0  0  0  0  0
  195.9170  168.7560  136.6320 O   0  0  0  0  0  0  0  0  0  0  0  0
  196.3080  171.1790  137.5130 O   0  0  0  0  0  1  0  0  0  0  0  0
  194.4310  169.7890  138.7050 O   0  0  0  0  0  1  0  0  0  0  0  0
  195.2170  170.1620  137.2540 P   0  0  0  0  0  0  0  0  0  0  0  0
  193.9930  174.6800  141.6410 C   0  0  0  0  0  2  0  0  0  0  0  0
  196.0540  176.7920  143.8670 N   0  0  0  0  0  2  0  0  0  0  0  0
  194.4590  175.7250  142.5380 N   0  0  0  0  0  2  0  0  0  0  0  0
  195.7900  175.8150  143.0630 C   0  0  0  0  0  0  0  0  0  0  0  0
  196.9230  175.0250  142.4360 C   0  0  2  0  0  3  0  0  0  0  0  0
  196.6710  174.8470  141.0700 O   0  0  0  0  0  1  0  0  0  0  0  0
  197.1830  173.6490  143.0870 C   0  0  2  0  0  3  0  0  0  0  0  0
  197.7710  171.6130  142.4940 O   0  0  0  0  0  1  0  0  0  0  0  0
  196.8960  172.5680  142.2250 O   0  0  0  0  0  0  0  0  0  0  0  0
  196.4370  173.5080  144.4170 C   0  0  0  0  0  2  0  0  0  0  0  0
  193.9590  171.7180  146.0930 O   0  0  0  0  0  0  0  0  0  0  0  0
  195.2050  172.6250  144.2690 C   0  0  2  0  0  3  0  0  0  0  0  0
  194.1900  172.9040  145.3680 C   0  0  1  0  0  3  0  0  0  0  0  0
  195.6060  171.1960  144.4890 C   0  0  0  0  0  2  0  0  0  0  0  0
  195.0730  170.8970  145.8660 C   0  0  0  0  0  2  0  0  0  0  0  0
  192.9420  173.3460  144.7590 N   0  0  0  0  0  2  0  0  0  0  0  0
  192.2420  174.2560  145.6620 C   0  0  0  0  0  0  0  0  0  0  0  0
  193.0950  174.9530  146.7020 C   0  0  0  0  0  2  0  0  0  0  0  0
  192.6650  175.6940  145.4460 C   0  0  0  0  0  2  0  0  0  0  0  0
  190.0070  173.8870  144.7430 O   0  0  0  0  0  1  0  0  0  0  0  0
  190.7420  174.0220  145.9270 C   0  0  2  0  0  3  0  0  0  0  0  0
  188.9440  174.5680  147.5750 C   0  0  0  0  0  1  0  0  0  0  0  0
  190.1430  175.1090  146.8190 C   0  0  2  0  0  3  0  0  0  0  0  0
  189.7580  176.2220  146.0660 O   0  0  0  0  0  1  0  0  0  0  0  0
  1 10  1  0  0  0  0
  2 18  1  0  0  0  0
  4 23  2  0  0  0  0
  5 11  1  6  0  0  0
  5 26  1  0  0  0  0
  5  9  1  0  0  0  0
  6 14  1  0  0  0  0
  6  2  2  0  0  0  0
  7  4  1  0  0  0  0
  8 44  1  0  0  0  0
  8 15  1  0  0  0  0
 10 24  1  6  0  0  0
 10 27  1  0  0  0  0
 12  8  2  0  0  0  0
 16 15  2  0  0  0  0
 16 13  1  0  0  0  0
 17  3  2  0  0  0  0
 18 25  1  0  0  0  0
 19 13  1  0  0  0  0
 20 16  1  0  0  0  0
 21 17  1  0  0  0  0
 21 14  1  0  0  0  0
 22 12  1  0  0  0  0
 22 20  2  0  0  0  0
 23 19  1  0  0  0  0
 25  7  1  0  0  0  0
 26  3  1  6  0  0  0
 26  1  1  0  0  0  0
 26  9  1  0  0  0  0
 27 12  1  0  0  0  0
 28 29  1  0  0  0  0
 29  2  1  6  0  0  0
 29 34  1  0  0  0  0
 31 34  1  0  0  0  0
 32 35  1  0  0  0  0
 33 32  2  0  0  0  0
 33 28  1  0  0  0  0
 35 30  1  1  0  0  0
 35 31  1  0  0  0  0
 37 36  2  6  0  0  0
 37 39  1  0  0  0  0
 37  5  1  0  0  0  0
 37 38  1  0  0  0  0
 39 43  1  0  0  0  0
 40 43  2  0  0  0  0
 43 41  1  0  0  0  0
 43 42  1  0  0  0  0
 44 46  1  0  0  0  0
 46 47  1  0  0  0  0
 47 45  2  0  0  0  0
 48 49  1  6  0  0  0
 48 47  1  0  0  0  0
 48 50  1  0  0  0  0
 50 53  1  1  0  0  0
 52 51  1  0  0  0  0
 52 50  1  0  0  0  0
 55 53  1  1  0  0  0
 55 57  1  0  0  0  0
 55 56  1  0  0  0  0
 56 59  1  6  0  0  0
 56 54  1  0  0  0  0
 57 58  1  0  0  0  0
 58 54  1  0  0  0  0
 59 60  1  0  0  0  0
 60 64  1  0  0  0  0
 60 61  1  0  0  0  0
 62 60  1  0  0  0  0
 62 61  1  0  0  0  0
 64 63  1  6  0  0  0
 64 66  1  0  0  0  0
 66 65  1  6  0  0  0
 67 66  1  0  0  0  0
M  END
>  <MODEL>
7

>  <REMARK>
 VINA RESULT:      -3.4      3.387      5.949
  Name = 
  15 active torsions:
  status: ('A' for Active; 'I' for Inactive)
    1  A    between atoms: C_6  and  C_8
    2  A    between atoms: N_10  and  C_28
    3  A    between atoms: C_11  and  C_55
    4  A    between atoms: N_13  and  P_35
    5  A    between atoms: N_13  and  P_61
    6  A    between atoms: C_14  and  P_61
    7  A    between atoms: C_18  and  C_32
    8  A    between atoms: C_18  and  N_34
    9  A    between atoms: C_19  and  C_28
   10  A    between atoms: C_20  and  N_34
   11  A    between atoms: C_29  and  C_32
   12  A    between atoms: C_33  and  C_43
   13  A    between atoms: C_33  and  C_47
   14  A    between atoms: O_45  and  C_47
   15  A    between atoms: C_47  and  C_55
                            x       y       z     vdW  Elec       q    Type
                         _______ _______ _______ _____ _____    ______ ____

>  <TORSDO>
F 15

$$$$
=
 OpenBabel11042418383D

 67 72  0  0  1  0  0  0  0  0999 V2000
  193.1050  173.0370  142.8010 O   0  0  0  0  0  0  0  0  0  0  0  0
  187.1260  176.5360  141.5440 C   0  0  0  0  0  0  0  0  0  0  0  0
  191.3080  174.7470  143.2940 C   0  0  0  0  0  3  0  0  0  0  0  0
  187.0520  175.6400  137.1820 C   0  0  0  0  0  2  0  0  0  0  0  0
  193.7090  174.9960  144.1500 C   0  0  1  0  0  0  0  0  0  0  0  0
  187.5300  175.8900  142.5920 N   0  0  0  0  0  0  0  0  0  0  0  0
  186.4730  176.1040  138.4770 C   0  0  0  0  0  2  0  0  0  0  0  0
  192.5850  172.2280  137.9660 C   0  0  0  0  0  0  0  0  0  0  0  0
  193.7060  175.4670  142.7080 C   0  0  0  0  0  2  0  0  0  0  0  0
  192.6230  172.7910  141.5080 C   0  0  2  0  0  3  0  0  0  0  0  0
  193.1850  175.9420  145.0330 O   0  0  0  0  0  1  0  0  0  0  0  0
  192.7480  173.2500  138.9240 C   0  0  0  0  0  0  0  0  0  0  0  0
  189.8390  173.6270  135.8570 N   0  0  0  0  0  2  0  0  0  0  0  0
  188.5570  174.9440  142.5190 N   0  0  0  0  0  2  0  0  0  0  0  0
  191.6210  172.3730  136.9610 C   0  0  0  0  0  3  0  0  0  0  0  0
  190.8180  173.5150  136.9010 C   0  0  0  0  0  0  0  0  0  0  0  0
  190.4050  173.8800  143.5660 N   0  0  0  0  0  0  0  0  0  0  0  0
  187.7250  176.2760  140.2630 N   0  0  0  0  0  2  0  0  0  0  0  0
  188.6860  174.4310  135.9290 N   0  0  0  0  0  0  0  0  0  0  0  0
  191.0160  174.5450  137.8270 C   0  0  0  0  0  3  0  0  0  0  0  0
  189.0330  174.2910  143.7280 C   0  0  0  0  0  2  0  0  0  0  0  0
  191.9760  174.4120  138.8320 C   0  0  0  0  0  3  0  0  0  0  0  0
  188.1470  174.8960  137.1640 C   0  0  0  0  0  3  0  0  0  0  0  0
  192.1630  171.3500  141.4160 C   0  0  0  0  0  1  0  0  0  0  0  0
  187.3740  176.9470  139.1380 O   0  0  0  0  0  0  0  0  0  0  0  0
  192.7530  174.3580  143.1550 C   0  0  1  0  0  0  0  0  0  0  0  0
  193.9270  173.1110  140.2740 S   0  0  0  0  0  0  0  0  0  0  0  0
  185.4420  177.9780  140.3580 C   0  0  0  0  0  2  0  0  0  0  0  0
  186.0490  177.5630  141.7150 C   0  0  1  0  0  3  0  0  0  0  0  0
  181.9300  179.3400  142.6240 C   0  0  0  0  0  1  0  0  0  0  0  0
  184.0890  178.2500  143.2140 C   0  0  0  0  0  2  0  0  0  0  0  0
  183.0190  177.9230  140.9230 C   0  0  0  0  0  3  0  0  0  0  0  0
  184.0250  177.5170  140.1360 C   0  0  0  0  0  3  0  0  0  0  0  0
  185.0550  177.1340  142.7980 C   0  0  0  0  0  2  0  0  0  0  0  0
  183.2550  178.8580  142.0790 C   0  0  1  0  0  3  0  0  0  0  0  0
  196.0600  175.1060  145.5190 O   0  0  0  0  0  1  0  0  0  0  0  0
  195.2660  174.1760  144.6280 P   0  0  2  0  0  0  0  0  0  0  0  0
  196.1440  173.8520  143.2200 O   0  0  0  0  0  0  0  0  0  0  0  0
  194.9030  172.6810  145.4780 N   0  0  0  0  0  2  0  0  0  0  0  0
  195.6330  169.9840  145.7300 O   0  0  0  0  0  1  0  0  0  0  0  0
  195.9840  171.2540  143.4810 O   0  0  0  0  0  0  0  0  0  0  0  0
  197.6160  171.8700  145.4390 O   0  0  0  0  0  1  0  0  0  0  0  0
  196.0450  171.4410  144.9810 P   0  0  0  0  0  0  0  0  0  0  0  0
  193.4110  170.9790  137.9730 C   0  0  0  0  0  2  0  0  0  0  0  0
  195.7750  170.2570  135.2230 N   0  0  0  0  0  2  0  0  0  0  0  0
  194.0110  170.7650  136.6650 N   0  0  0  0  0  2  0  0  0  0  0  0
  195.3780  170.3940  136.4450 C   0  0  0  0  0  0  0  0  0  0  0  0
  196.2200  169.8420  137.5800 C   0  0  2  0  0  3  0  0  0  0  0  0
  195.4110  169.0960  138.4450 O   0  0  0  0  0  1  0  0  0  0  0  0
  196.9810  170.9110  138.3930 C   0  0  2  0  0  3  0  0  0  0  0  0
  196.9070  170.5260  140.5580 O   0  0  0  0  0  1  0  0  0  0  0  0
  196.3370  171.2440  139.6050 O   0  0  0  0  0  0  0  0  0  0  0  0
  197.2590  172.1620  137.5540 C   0  0  0  0  0  2  0  0  0  0  0  0
  197.1000  175.6430  137.6440 O   0  0  0  0  0  0  0  0  0  0  0  0
  196.5180  173.3730  138.1030 C   0  0  2  0  0  3  0  0  0  0  0  0
  196.4810  174.5060  137.0870 C   0  0  1  0  0  3  0  0  0  0  0  0
  197.2980  173.9340  139.2560 C   0  0  0  0  0  2  0  0  0  0  0  0
  197.9260  175.1740  138.6750 C   0  0  0  0  0  2  0  0  0  0  0  0
  195.0920  174.8180  136.7770 N   0  0  0  0  0  2  0  0  0  0  0  0
  194.9130  174.9060  135.3300 C   0  0  0  0  0  0  0  0  0  0  0  0
  195.4170  173.7280  134.5210 C   0  0  0  0  0  2  0  0  0  0  0  0
  193.9330  173.8690  134.8220 C   0  0  0  0  0  2  0  0  0  0  0  0
  196.0770  176.9000  134.5250 O   0  0  0  0  0  1  0  0  0  0  0  0
  194.8200  176.3020  134.6820 C   0  0  2  0  0  3  0  0  0  0  0  0
  192.4370  176.7530  135.2820 C   0  0  0  0  0  1  0  0  0  0  0  0
  193.8700  177.2240  135.4450 C   0  0  2  0  0  3  0  0  0  0  0  0
  193.9830  178.5440  134.9980 O   0  0  0  0  0  1  0  0  0  0  0  0
  1 26  1  0  0  0  0
  2  6  2  0  0  0  0
  3 17  2  0  0  0  0
  4  7  1  0  0  0  0
  5 37  1  0  0  0  0
  5 11  1  1  0  0  0
  7 25  1  0  0  0  0
  8 44  1  0  0  0  0
  8 12  1  0  0  0  0
  9  5  1  0  0  0  0
 10 24  1  1  0  0  0
 10  1  1  0  0  0  0
 12 27  1  0  0  0  0
 13 19  1  0  0  0  0
 13 16  1  0  0  0  0
 14  6  1  0  0  0  0
 14 21  1  0  0  0  0
 15  8  2  0  0  0  0
 16 15  1  0  0  0  0
 16 20  2  0  0  0  0
 17 21  1  0  0  0  0
 18  2  1  0  0  0  0
 19 23  2  0  0  0  0
 20 22  1  0  0  0  0
 22 12  2  0  0  0  0
 23  4  1  0  0  0  0
 25 18  1  0  0  0  0
 26  9  1  6  0  0  0
 26  3  1  0  0  0  0
 26  5  1  0  0  0  0
 27 10  1  0  0  0  0
 28 29  1  0  0  0  0
 29  2  1  6  0  0  0
 29 34  1  0  0  0  0
 32 35  1  0  0  0  0
 33 28  1  0  0  0  0
 33 32  2  0  0  0  0
 34 31  1  0  0  0  0
 35 30  1  1  0  0  0
 35 31  1  0  0  0  0
 37 38  2  6  0  0  0
 37 39  1  0  0  0  0
 37 36  1  0  0  0  0
 41 43  2  0  0  0  0
 43 42  1  0  0  0  0
 43 39  1  0  0  0  0
 43 40  1  0  0  0  0
 45 47  2  0  0  0  0
 46 44  1  0  0  0  0
 47 46  1  0  0  0  0
 47 48  1  0  0  0  0
 48 50  1  0  0  0  0
 48 49  1  1  0  0  0
 50 53  1  6  0  0  0
 50 52  1  0  0  0  0
 52 51  1  0  0  0  0
 54 58  1  0  0  0  0
 55 53  1  6  0  0  0
 55 57  1  0  0  0  0
 56 59  1  1  0  0  0
 56 54  1  0  0  0  0
 56 55  1  0  0  0  0
 58 57  1  0  0  0  0
 60 59  1  0  0  0  0
 61 62  1  0  0  0  0
 61 60  1  0  0  0  0
 62 60  1  0  0  0  0
 64 63  1  1  0  0  0
 64 60  1  0  0  0  0
 64 66  1  0  0  0  0
 66 65  1  6  0  0  0
 67 66  1  0  0  0  0
M  END
>  <MODEL>
8

>  <REMARK>
 VINA RESULT:      -3.3      3.271      6.768
  Name = 
  15 active torsions:
  status: ('A' for Active; 'I' for Inactive)
    1  A    between atoms: C_6  and  C_8
    2  A    between atoms: N_10  and  C_28
    3  A    between atoms: C_11  and  C_55
    4  A    between atoms: N_13  and  P_35
    5  A    between atoms: N_13  and  P_61
    6  A    between atoms: C_14  and  P_61
    7  A    between atoms: C_18  and  C_32
    8  A    between atoms: C_18  and  N_34
    9  A    between atoms: C_19  and  C_28
   10  A    between atoms: C_20  and  N_34
   11  A    between atoms: C_29  and  C_32
   12  A    between atoms: C_33  and  C_43
   13  A    between atoms: C_33  and  C_47
   14  A    between atoms: O_45  and  C_47
   15  A    between atoms: C_47  and  C_55
                            x       y       z     vdW  Elec       q    Type
                         _______ _______ _______ _____ _____    ______ ____

>  <TORSDO>
F 15

$$$$
=
 OpenBabel11042418383D

 67 72  0  0  1  0  0  0  0  0999 V2000
  191.8260  172.5380  138.0820 O   0  0  0  0  0  0  0  0  0  0  0  0
  185.8370  176.0910  137.0440 C   0  0  0  0  0  0  0  0  0  0  0  0
  189.5520  172.9360  137.0500 C   0  0  0  0  0  3  0  0  0  0  0  0
  186.0700  178.3810  140.8570 C   0  0  0  0  0  3  0  0  0  0  0  0
  190.5450  170.5900  137.3140 C   0  0  1  0  0  0  0  0  0  0  0  0
  186.7160  175.6420  136.2050 N   0  0  0  0  0  0  0  0  0  0  0  0
  185.5480  178.0770  139.4920 C   0  0  0  0  0  2  0  0  0  0  0  0
  191.7190  175.3320  142.1420 C   0  0  0  0  0  0  0  0  0  0  0  0
  189.9570  170.9720  138.6600 C   0  0  0  0  0  2  0  0  0  0  0  0
  191.6650  173.5660  139.0200 C   0  0  2  0  0  3  0  0  0  0  0  0
  189.5770  170.1910  136.3910 O   0  0  0  0  0  1  0  0  0  0  0  0
  191.0110  174.3280  141.4480 C   0  0  0  0  0  0  0  0  0  0  0  0
  188.9680  177.6970  143.0250 N   0  0  0  0  0  2  0  0  0  0  0  0
  188.0140  175.3130  136.6100 N   0  0  0  0  0  2  0  0  0  0  0  0
  191.0250  176.4340  142.6570 C   0  0  0  0  0  3  0  0  0  0  0  0
  189.6440  176.5520  142.4850 C   0  0  0  0  0  0  0  0  0  0  0  0
  189.9290  173.9330  136.3380 N   0  0  0  0  0  0  0  0  0  0  0  0
  186.1890  176.2780  138.4260 N   0  0  0  0  0  2  0  0  0  0  0  0
  187.7370  178.1920  142.5550 N   0  0  0  0  0  2  0  0  0  0  0  0
  188.9420  175.5310  141.8360 C   0  0  0  0  0  3  0  0  0  0  0  0
  188.9520  174.7440  135.6560 C   0  0  0  0  0  2  0  0  0  0  0  0
  189.6220  174.4270  141.3210 C   0  0  0  0  0  3  0  0  0  0  0  0
  187.2270  177.8810  141.2600 C   0  0  0  0  0  3  0  0  0  0  0  0
  192.7080  174.6370  138.7660 C   0  0  0  0  0  1  0  0  0  0  0  0
  185.3030  176.7060  139.3580 O   0  0  0  0  0  0  0  0  0  0  0  0
  190.5450  172.0480  137.7460 C   0  0  1  0  0  0  0  0  0  0  0  0
  191.8390  172.9120  140.7130 S   0  0  0  0  0  0  0  0  0  0  0  0
  184.3570  176.1720  135.0120 C   0  0  0  0  0  2  0  0  0  0  0  0
  184.4570  176.3810  136.5380 C   0  0  1  0  0  3  0  0  0  0  0  0
  180.0210  175.7580  135.5990 C   0  0  0  0  0  1  0  0  0  0  0  0
  181.9710  176.1280  137.1020 C   0  0  0  0  0  2  0  0  0  0  0  0
  182.2210  174.9040  134.8790 C   0  0  0  0  0  3  0  0  0  0  0  0
  183.5280  174.9870  134.5930 C   0  0  0  0  0  3  0  0  0  0  0  0
  183.4050  175.6640  137.3890 C   0  0  0  0  0  2  0  0  0  0  0  0
  181.5140  175.9910  135.6440 C   0  0  1  0  0  3  0  0  0  0  0  0
  192.2530  168.8140  136.1580 O   0  0  0  0  0  0  0  0  0  0  0  0
  192.0430  169.5600  137.4570 P   0  0  2  0  0  0  0  0  0  0  0  0
  191.8020  168.4540  138.7130 O   0  0  0  0  0  1  0  0  0  0  0  0
  193.4280  170.5850  137.8030 N   0  0  0  0  0  2  0  0  0  0  0  0
  194.6070  168.1660  138.5960 O   0  0  0  0  0  0  0  0  0  0  0  0
  195.8160  170.4370  139.0160 O   0  0  0  0  0  1  0  0  0  0  0  0
  193.7440  169.9160  140.5370 O   0  0  0  0  0  1  0  0  0  0  0  0
  194.4440  169.7980  139.0010 P   0  0  0  0  0  0  0  0  0  0  0  0
  193.1990  175.2680  142.3600 C   0  0  0  0  0  2  0  0  0  0  0  0
  193.9300  176.9190  145.5870 N   0  0  0  0  0  2  0  0  0  0  0  0
  193.5990  176.2210  143.3840 N   0  0  0  0  0  2  0  0  0  0  0  0
  193.5600  175.9670  144.7940 C   0  0  0  0  0  0  0  0  0  0  0  0
  193.4380  174.5500  145.3200 C   0  0  2  0  0  3  0  0  0  0  0  0
  194.0570  173.6630  144.4300 O   0  0  0  0  0  1  0  0  0  0  0  0
  191.9890  174.0820  145.5760 C   0  0  2  0  0  3  0  0  0  0  0  0
  190.3060  172.8010  144.9680 O   0  0  0  0  0  1  0  0  0  0  0  0
  191.5670  173.0780  144.6780 O   0  0  0  0  0  0  0  0  0  0  0  0
  191.0130  175.2620  145.5830 C   0  0  0  0  0  2  0  0  0  0  0  0
  189.9240  177.4970  148.0270 O   0  0  0  0  0  0  0  0  0  0  0  0
  190.3360  175.4120  146.9390 C   0  0  2  0  0  3  0  0  0  0  0  0
  189.4680  176.6610  146.9890 C   0  0  1  0  0  3  0  0  0  0  0  0
  191.3890  175.6500  147.9810 C   0  0  0  0  0  2  0  0  0  0  0  0
  191.2510  177.1210  148.2790 C   0  0  0  0  0  2  0  0  0  0  0  0
  188.0900  176.2700  147.2560 N   0  0  0  0  0  2  0  0  0  0  0  0
  187.2190  177.4410  147.1950 C   0  0  0  0  0  0  0  0  0  0  0  0
  186.4450  177.7660  148.4570 C   0  0  0  0  0  2  0  0  0  0  0  0
  187.7020  178.5480  148.1080 C   0  0  0  0  0  2  0  0  0  0  0  0
  186.8910  179.2440  145.5760 O   0  0  0  0  0  1  0  0  0  0  0  0
  186.6730  177.8820  145.8220 C   0  0  2  0  0  3  0  0  0  0  0  0
  184.7440  177.8230  144.2350 C   0  0  0  0  0  1  0  0  0  0  0  0
  185.1970  177.5270  145.6530 C   0  0  2  0  0  3  0  0  0  0  0  0
  184.4020  178.2390  146.5570 O   0  0  0  0  0  1  0  0  0  0  0  0
  1 10  1  0  0  0  0
  2 18  1  0  0  0  0
  4 23  2  0  0  0  0
  5 11  1  6  0  0  0
  5 37  1  0  0  0  0
  5 26  1  0  0  0  0
  5  9  1  0  0  0  0
  6 14  1  0  0  0  0
  6  2  2  0  0  0  0
  7  4  1  0  0  0  0
  8 44  1  0  0  0  0
  8 15  1  0  0  0  0
 10 24  1  6  0  0  0
 10 27  1  0  0  0  0
 12  8  2  0  0  0  0
 16 15  2  0  0  0  0
 16 13  1  0  0  0  0
 17  3  2  0  0  0  0
 18 25  1  0  0  0  0
 19 13  1  0  0  0  0
 20 16  1  0  0  0  0
 21 17  1  0  0  0  0
 21 14  1  0  0  0  0
 22 12  1  0  0  0  0
 22 20  2  0  0  0  0
 23 19  1  0  0  0  0
 25  7  1  0  0  0  0
 26  3  1  6  0  0  0
 26  1  1  0  0  0  0
 26  9  1  0  0  0  0
 27 12  1  0  0  0  0
 28 29  1  0  0  0  0
 29  2  1  1  0  0  0
 29 34  1  0  0  0  0
 31 34  1  0  0  0  0
 32 35  1  0  0  0  0
 33 32  2  0  0  0  0
 33 28  1  0  0  0  0
 35 30  1  1  0  0  0
 35 31  1  0  0  0  0
 37 36  2  6  0  0  0
 37 39  1  0  0  0  0
 37 38  1  0  0  0  0
 39 43  1  0  0  0  0
 40 43  2  0  0  0  0
 43 41  1  0  0  0  0
 43 42  1  0  0  0  0
 44 46  1  0  0  0  0
 46 47  1  0  0  0  0
 47 48  1  0  0  0  0
 47 45  2  0  0  0  0
 48 49  1  6  0  0  0
 48 50  1  0  0  0  0
 50 53  1  6  0  0  0
 52 51  1  0  0  0  0
 52 50  1  0  0  0  0
 54 58  1  0  0  0  0
 55 53  1  6  0  0  0
 55 56  1  0  0  0  0
 55 57  1  0  0  0  0
 56 59  1  1  0  0  0
 56 54  1  0  0  0  0
 57 58  1  0  0  0  0
 60 59  1  0  0  0  0
 60 62  1  0  0  0  0
 60 61  1  0  0  0  0
 62 61  1  0  0  0  0
 64 63  1  1  0  0  0
 64 60  1  0  0  0  0
 66 65  1  6  0  0  0
 66 64  1  0  0  0  0
 66 67  1  0  0  0  0
M  END
>  <MODEL>
9

>  <REMARK>
 VINA RESULT:      -3.1      3.139      6.862
  Name = 
  15 active torsions:
  status: ('A' for Active; 'I' for Inactive)
    1  A    between atoms: C_6  and  C_8
    2  A    between atoms: N_10  and  C_28
    3  A    between atoms: C_11  and  C_55
    4  A    between atoms: N_13  and  P_35
    5  A    between atoms: N_13  and  P_61
    6  A    between atoms: C_14  and  P_61
    7  A    between atoms: C_18  and  C_32
    8  A    between atoms: C_18  and  N_34
    9  A    between atoms: C_19  and  C_28
   10  A    between atoms: C_20  and  N_34
   11  A    between atoms: C_29  and  C_32
   12  A    between atoms: C_33  and  C_43
   13  A    between atoms: C_33  and  C_47
   14  A    between atoms: O_45  and  C_47
   15  A    between atoms: C_47  and  C_55
                            x       y       z     vdW  Elec       q    Type
                         _______ _______ _______ _____ _____    ______ ____

>  <TORSDO>
F 15

$$$$
