=
 OpenBabel11042413393D

 42 49  0  0  1  0  0  0  0  0999 V2000
  193.6890  175.8940  136.1900 C   0  0  0  0  0  0  0  0  0  0  0  0
  188.7160  175.4370  143.5890 C   0  0  0  0  0  0  0  0  0  0  0  0
  190.4180  173.2110  139.2450 S   0  0  0  0  0  0  0  0  0  0  0  0
  188.2700  176.2200  142.5960 C   0  0  0  0  0  0  0  0  0  0  0  0
  189.3320  174.2930  142.9550 C   0  0  0  0  0  0  0  0  0  0  0  0
  192.2590  175.5300  136.0110 C   0  0  0  0  0  2  0  0  0  0  0  0
  189.8620  173.3730  140.9400 C   0  0  0  0  0  0  0  0  0  0  0  0
  194.1760  175.2920  137.2980 C   0  0  0  0  0  0  0  0  0  0  0  0
  197.5230  175.3140  135.8820 C   0  0  0  0  0  1  0  0  0  0  0  0
  193.0860  174.5650  137.8960 C   0  0  0  0  0  0  0  0  0  0  0  0
  189.1950  174.4770  141.5760 C   0  0  0  0  0  0  0  0  0  0  0  0
  191.4780  171.6730  141.6460 C   0  0  0  0  0  2  0  0  0  0  0  0
  192.4720  172.3320  140.7940 N   0  0  0  0  0  0  0  0  0  0  0  0
  190.3700  172.6360  141.9320 C   0  0  0  0  0  0  0  0  0  0  0  0
  188.5870  175.6110  141.2660 C   0  0  0  0  0  3  0  0  0  0  0  0
  192.0040  174.6860  137.1890 N   0  0  0  0  0  0  0  0  0  0  0  0
  192.1590  173.0420  139.7450 C   0  0  0  0  0  0  0  0  0  0  0  0
  193.2060  173.7460  139.0650 N   0  0  0  0  0  2  0  0  0  0  0  0
  194.9400  176.1070  135.0900 S   0  0  0  0  0  0  0  0  0  0  0  0
  196.0780  175.4840  136.1890 C   0  0  0  0  0  0  0  0  0  0  0  0
  195.5010  175.0090  137.3210 N   0  0  0  0  0  0  0  0  0  0  0  0
  190.0510  173.2210  143.2620 C   0  0  0  0  0  3  0  0  0  0  0  0
  186.1470  177.4750  142.3850 C   0  0  1  0  0  3  0  0  0  0  0  0
  187.1530  178.0420  141.5810 O   0  0  0  0  0  0  0  0  0  0  0  0
  187.5630  177.5220  142.8230 C   0  0  2  0  0  3  0  0  0  0  0  0
  185.3680  178.5840  143.0600 C   0  0  2  0  0  3  0  0  0  0  0  0
  184.5100  177.9850  144.1570 C   0  0  2  0  0  3  0  0  0  0  0  0
  183.8890  178.3680  142.8310 C   0  0  0  0  0  2  0  0  0  0  0  0
  184.2020  179.0570  145.1860 C   0  0  0  0  0  2  0  0  0  0  0  0
  184.5130  178.5560  146.5840 C   0  0  0  0  0  2  0  0  0  0  0  0
  185.0870  177.1510  146.5320 C   0  0  0  0  0  1  0  0  0  0  0  0
  188.5950  175.7070  144.9530 O   0  0  0  0  0  0  0  0  0  0  0  0
  194.2390  176.0280  146.4980 C   0  0  0  0  0  2  0  0  0  0  0  0
  189.5790  176.3980  145.6530 C   0  0  0  0  0  3  0  0  0  0  0  0
  192.8440  175.4940  146.7740 C   0  0  0  0  0  2  0  0  0  0  0  0
  192.0630  175.6270  145.5160 C   0  0  0  0  0  0  0  0  0  0  0  0
  194.1680  176.9120  145.2630 C   0  0  2  0  0  3  0  0  0  0  0  0
  190.8190  176.0100  145.5860 C   0  0  0  0  0  0  0  0  0  0  0  0
  193.0320  176.1080  144.1030 S   0  0  0  0  0  0  0  0  0  0  0  0
  195.4330  177.0250  144.6850 O   0  0  0  0  0  0  0  0  0  0  0  0
  196.8460  175.4200  143.6500 C   0  0  0  0  0  1  0  0  0  0  0  0
  195.4650  176.0380  143.7000 C   0  0  0  0  0  2  0  0  0  0  0  0
  1  8  2  0  0  0  0
  2 32  1  0  0  0  0
  3 17  1  0  0  0  0
  3  7  1  0  0  0  0
  4  2  2  0  0  0  0
  5 22  2  0  0  0  0
  5  2  1  0  0  0  0
  6  1  1  0  0  0  0
  6 16  1  0  0  0  0
  7 11  1  0  0  0  0
  7 14  2  0  0  0  0
  8 21  1  0  0  0  0
  8 10  1  0  0  0  0
  9 20  1  0  0  0  0
 10 18  1  0  0  0  0
 11  5  1  0  0  0  0
 12 14  1  0  0  0  0
 13 12  1  0  0  0  0
 14 22  1  0  0  0  0
 15 11  2  0  0  0  0
 15  4  1  0  0  0  0
 16 10  2  0  0  0  0
 17 13  2  0  0  0  0
 18 17  1  0  0  0  0
 19 20  1  0  0  0  0
 19  1  1  0  0  0  0
 20 21  2  0  0  0  0
 23 24  1  6  0  0  0
 23 25  1  0  0  0  0
 23 26  1  0  0  0  0
 24 25  1  0  0  0  0
 25  4  1  6  0  0  0
 26 28  1  6  0  0  0
 26 27  1  0  0  0  0
 27 29  1  1  0  0  0
 28 27  1  0  0  0  0
 29 30  1  0  0  0  0
 31 30  1  0  0  0  0
 32 34  1  0  0  0  0
 33 35  1  0  0  0  0
 36 38  2  0  0  0  0
 36 35  1  0  0  0  0
 37 40  1  6  0  0  0
 37 33  1  0  0  0  0
 38 34  2  0  0  0  0
 39 37  1  0  0  0  0
 39 36  1  0  0  0  0
 41 42  1  0  0  0  0
 42 40  1  0  0  0  0
M  END
>  <MODEL>
1

>  <REMARK>
 VINA RESULT:      -8.1      0.000      0.000
  Name = 
  8 active torsions:
  status: ('A' for Active; 'I' for Inactive)
    1  A    between atoms: C_2  and  O_13
    2  A    between atoms: C_5  and  C_6
    3  A    between atoms: C_7  and  O_13
    4  A    between atoms: C_10  and  O_12
    5  A    between atoms: C_11  and  C_30
    6  A    between atoms: O_12  and  C_41
    7  A    between atoms: C_20  and  C_24
    8  A    between atoms: C_20  and  C_31
                            x       y       z     vdW  Elec       q    Type
                         _______ _______ _______ _____ _____    ______ ____

>  <TORSDO>
F 8

$$$$
=
 OpenBabel11042413393D

 42 49  0  0  1  0  0  0  0  0999 V2000
  191.0560  170.3660  136.8060 C   0  0  0  0  0  0  0  0  0  0  0  0
  190.7320  175.1680  144.3240 C   0  0  0  0  0  0  0  0  0  0  0  0
  190.4960  170.5610  141.9910 S   0  0  0  0  0  0  0  0  0  0  0  0
  189.6780  175.2470  143.4980 C   0  0  0  0  0  0  0  0  0  0  0  0
  191.1970  173.8000  144.2560 C   0  0  0  0  0  0  0  0  0  0  0  0
  189.8610  170.1740  137.6680 C   0  0  0  0  0  2  0  0  0  0  0  0
  190.8440  171.7890  143.2480 C   0  0  0  0  0  0  0  0  0  0  0  0
  192.1590  170.4930  137.5770 C   0  0  0  0  0  0  0  0  0  0  0  0
  194.2300  169.1870  134.8930 C   0  0  0  0  0  1  0  0  0  0  0  0
  191.7220  170.4360  138.9480 C   0  0  0  0  0  0  0  0  0  0  0  0
  190.3480  173.1330  143.3680 C   0  0  0  0  0  0  0  0  0  0  0  0
  192.9440  170.6510  143.7930 C   0  0  0  0  0  2  0  0  0  0  0  0
  193.1900  170.5160  142.3540 N   0  0  0  0  0  0  0  0  0  0  0  0
  191.9380  171.7360  144.0130 C   0  0  0  0  0  0  0  0  0  0  0  0
  189.4190  173.9220  142.8520 C   0  0  0  0  0  3  0  0  0  0  0  0
  190.4380  170.2570  139.0190 N   0  0  0  0  0  0  0  0  0  0  0  0
  192.2360  170.4850  141.4650 C   0  0  0  0  0  0  0  0  0  0  0  0
  192.6010  170.4800  140.0790 N   0  0  0  0  0  2  0  0  0  0  0  0
  191.4960  169.6950  135.3310 S   0  0  0  0  0  0  0  0  0  0  0  0
  193.1410  169.7080  135.7600 C   0  0  0  0  0  0  0  0  0  0  0  0
  193.3400  170.0980  137.0430 N   0  0  0  0  0  0  0  0  0  0  0  0
  192.2010  173.0420  144.6750 C   0  0  0  0  0  3  0  0  0  0  0  0
  187.4710  176.3560  143.6510 C   0  0  1  0  0  3  0  0  0  0  0  0
  187.8970  176.2580  142.3140 O   0  0  0  0  0  0  0  0  0  0  0  0
  188.8970  176.5060  143.2730 C   0  0  2  0  0  3  0  0  0  0  0  0
  186.8580  177.7220  143.8770 C   0  0  2  0  0  3  0  0  0  0  0  0
  185.8400  177.6250  144.9960 C   0  0  2  0  0  3  0  0  0  0  0  0
  185.3810  177.6670  143.5540 C   0  0  0  0  0  2  0  0  0  0  0  0
  185.6610  178.9960  145.6210 C   0  0  0  0  0  2  0  0  0  0  0  0
  185.5050  178.8770  147.1260 C   0  0  0  0  0  2  0  0  0  0  0  0
  186.1530  177.6000  147.6300 C   0  0  0  0  0  1  0  0  0  0  0  0
  191.2510  176.2190  145.0820 O   0  0  0  0  0  0  0  0  0  0  0  0
  196.6610  176.5500  142.8500 C   0  0  0  0  0  2  0  0  0  0  0  0
  192.2710  177.0340  144.6000 C   0  0  0  0  0  3  0  0  0  0  0  0
  195.7590  176.4990  144.0720 C   0  0  0  0  0  2  0  0  0  0  0  0
  194.4410  175.9740  143.6270 C   0  0  0  0  0  0  0  0  0  0  0  0
  195.7760  176.5270  141.6130 C   0  0  2  0  0  3  0  0  0  0  0  0
  193.3560  176.5040  144.1160 C   0  0  0  0  0  0  0  0  0  0  0  0
  194.4230  175.3710  141.9520 S   0  0  0  0  0  0  0  0  0  0  0  0
  196.5110  176.0850  140.5110 O   0  0  0  0  0  0  0  0  0  0  0  0
  196.0500  175.1440  138.3790 C   0  0  0  0  0  1  0  0  0  0  0  0
  195.6550  175.2130  139.8380 C   0  0  0  0  0  2  0  0  0  0  0  0
  1  8  2  0  0  0  0
  1  6  1  0  0  0  0
  2 32  1  0  0  0  0
  3  7  1  0  0  0  0
  4  2  2  0  0  0  0
  5  2  1  0  0  0  0
  5 22  2  0  0  0  0
  6 16  1  0  0  0  0
  7 11  1  0  0  0  0
  7 14  2  0  0  0  0
  8 10  1  0  0  0  0
  9 20  1  0  0  0  0
 10 16  2  0  0  0  0
 10 18  1  0  0  0  0
 11  5  1  0  0  0  0
 12 14  1  0  0  0  0
 13 12  1  0  0  0  0
 14 22  1  0  0  0  0
 15 11  2  0  0  0  0
 15  4  1  0  0  0  0
 17  3  1  0  0  0  0
 17 13  2  0  0  0  0
 18 17  1  0  0  0  0
 19 20  1  0  0  0  0
 19  1  1  0  0  0  0
 20 21  2  0  0  0  0
 21  8  1  0  0  0  0
 23 24  1  6  0  0  0
 23 26  1  0  0  0  0
 24 25  1  0  0  0  0
 25  4  1  1  0  0  0
 25 23  1  0  0  0  0
 26 28  1  6  0  0  0
 26 27  1  0  0  0  0
 27 29  1  1  0  0  0
 28 27  1  0  0  0  0
 29 30  1  0  0  0  0
 30 31  1  0  0  0  0
 33 35  1  0  0  0  0
 34 32  1  0  0  0  0
 36 35  1  0  0  0  0
 36 38  2  0  0  0  0
 37 40  1  6  0  0  0
 37 39  1  0  0  0  0
 37 33  1  0  0  0  0
 38 34  2  0  0  0  0
 39 36  1  0  0  0  0
 41 42  1  0  0  0  0
 42 40  1  0  0  0  0
M  END
>  <MODEL>
2

>  <REMARK>
 VINA RESULT:      -7.1      2.732      3.797
  Name = 
  8 active torsions:
  status: ('A' for Active; 'I' for Inactive)
    1  A    between atoms: C_2  and  O_13
    2  A    between atoms: C_5  and  C_6
    3  A    between atoms: C_7  and  O_13
    4  A    between atoms: C_10  and  O_12
    5  A    between atoms: C_11  and  C_30
    6  A    between atoms: O_12  and  C_41
    7  A    between atoms: C_20  and  C_24
    8  A    between atoms: C_20  and  C_31
                            x       y       z     vdW  Elec       q    Type
                         _______ _______ _______ _____ _____    ______ ____

>  <TORSDO>
F 8

$$$$
=
 OpenBabel11042413393D

 42 49  0  0  1  0  0  0  0  0999 V2000
  181.5720  177.9710  140.5120 C   0  0  0  0  0  0  0  0  0  0  0  0
  188.6380  175.4350  145.3410 C   0  0  0  0  0  0  0  0  0  0  0  0
  185.8330  179.2380  143.2460 S   0  0  0  0  0  0  0  0  0  0  0  0
  188.6880  175.2190  144.0180 C   0  0  0  0  0  0  0  0  0  0  0  0
  187.9440  176.6900  145.5200 C   0  0  0  0  0  0  0  0  0  0  0  0
  182.8960  178.4860  140.0770 C   0  0  0  0  0  2  0  0  0  0  0  0
  186.8790  178.3740  144.4160 C   0  0  0  0  0  0  0  0  0  0  0  0
  181.5050  177.9700  141.8630 C   0  0  0  0  0  0  0  0  0  0  0  0
  177.8920  178.3280  141.7200 C   0  0  0  0  0  1  0  0  0  0  0  0
  182.7800  178.4320  142.3470 C   0  0  0  0  0  0  0  0  0  0  0  0
  187.6260  177.1570  144.2410 C   0  0  0  0  0  0  0  0  0  0  0  0
  185.7020  179.4440  146.2780 C   0  0  0  0  0  2  0  0  0  0  0  0
  184.4430  179.1630  145.5820 N   0  0  0  0  0  0  0  0  0  0  0  0
  186.7670  178.5440  145.7360 C   0  0  0  0  0  0  0  0  0  0  0  0
  188.0170  176.3350  143.2800 C   0  0  0  0  0  3  0  0  0  0  0  0
  183.5720  178.7270  141.3610 N   0  0  0  0  0  0  0  0  0  0  0  0
  184.3550  179.0280  144.2870 C   0  0  0  0  0  0  0  0  0  0  0  0
  183.0970  178.6260  143.7310 N   0  0  0  0  0  2  0  0  0  0  0  0
  180.0260  178.1790  139.8900 S   0  0  0  0  0  0  0  0  0  0  0  0
  179.3420  178.1510  141.4460 C   0  0  0  0  0  0  0  0  0  0  0  0
  180.2800  178.1090  142.4250 N   0  0  0  0  0  0  0  0  0  0  0  0
  187.4420  177.4500  146.4840 C   0  0  0  0  0  3  0  0  0  0  0  0
  190.4800  174.3710  142.5350 C   0  0  1  0  0  3  0  0  0  0  0  0
  189.2080  174.0980  142.0010 O   0  0  0  0  0  0  0  0  0  0  0  0
  189.3300  174.0130  143.4000 C   0  0  2  0  0  3  0  0  0  0  0  0
  191.3680  173.1600  142.3450 C   0  0  2  0  0  3  0  0  0  0  0  0
  192.7910  173.6260  142.1090 C   0  0  2  0  0  3  0  0  0  0  0  0
  191.9380  173.1740  140.9430 C   0  0  0  0  0  2  0  0  0  0  0  0
  193.7470  172.5130  142.4950 C   0  0  0  0  0  2  0  0  0  0  0  0
  195.1620  173.0480  142.6210 C   0  0  0  0  0  2  0  0  0  0  0  0
  195.9750  172.1860  143.5700 C   0  0  0  0  0  1  0  0  0  0  0  0
  189.1610  174.5900  146.3220 O   0  0  0  0  0  0  0  0  0  0  0  0
  194.9770  175.0800  145.7840 C   0  0  0  0  0  2  0  0  0  0  0  0
  190.3760  174.8570  146.9460 C   0  0  0  0  0  3  0  0  0  0  0  0
  193.7640  174.2010  146.0390 C   0  0  0  0  0  2  0  0  0  0  0  0
  192.5720  174.9400  145.5470 C   0  0  0  0  0  0  0  0  0  0  0  0
  194.4900  176.5090  145.5990 C   0  0  2  0  0  3  0  0  0  0  0  0
  191.4730  174.8960  146.2470 C   0  0  0  0  0  0  0  0  0  0  0  0
  192.9540  176.4240  144.6420 S   0  0  0  0  0  0  0  0  0  0  0  0
  195.4440  177.2490  144.8990 O   0  0  0  0  0  0  0  0  0  0  0  0
  197.0650  176.8260  143.2150 C   0  0  0  0  0  1  0  0  0  0  0  0
  195.6770  176.5190  143.7330 C   0  0  0  0  0  2  0  0  0  0  0  0
  1  8  2  0  0  0  0
  2  5  1  0  0  0  0
  2 32  1  0  0  0  0
  3 17  1  0  0  0  0
  3  7  1  0  0  0  0
  4  2  2  0  0  0  0
  5 22  2  0  0  0  0
  6  1  1  0  0  0  0
  6 16  1  0  0  0  0
  7 14  2  0  0  0  0
  8 10  1  0  0  0  0
  8 21  1  0  0  0  0
 10 18  1  0  0  0  0
 11  7  1  0  0  0  0
 11  5  1  0  0  0  0
 13 12  1  0  0  0  0
 14 12  1  0  0  0  0
 14 22  1  0  0  0  0
 15  4  1  0  0  0  0
 15 11  2  0  0  0  0
 16 10  2  0  0  0  0
 17 13  2  0  0  0  0
 18 17  1  0  0  0  0
 19  1  1  0  0  0  0
 19 20  1  0  0  0  0
 20  9  1  0  0  0  0
 20 21  2  0  0  0  0
 23 24  1  6  0  0  0
 23 25  1  0  0  0  0
 24 25  1  0  0  0  0
 25  4  1  1  0  0  0
 26 28  1  6  0  0  0
 26 23  1  0  0  0  0
 27 26  1  0  0  0  0
 27 29  1  1  0  0  0
 28 27  1  0  0  0  0
 29 30  1  0  0  0  0
 30 31  1  0  0  0  0
 32 34  1  0  0  0  0
 33 35  1  0  0  0  0
 36 35  1  0  0  0  0
 36 38  2  0  0  0  0
 37 40  1  6  0  0  0
 37 33  1  0  0  0  0
 38 34  2  0  0  0  0
 39 36  1  0  0  0  0
 39 37  1  0  0  0  0
 41 42  1  0  0  0  0
 42 40  1  0  0  0  0
M  END
>  <MODEL>
3

>  <REMARK>
 VINA RESULT:      -7.0      4.721      9.181
  Name = 
  8 active torsions:
  status: ('A' for Active; 'I' for Inactive)
    1  A    between atoms: C_2  and  O_13
    2  A    between atoms: C_5  and  C_6
    3  A    between atoms: C_7  and  O_13
    4  A    between atoms: C_10  and  O_12
    5  A    between atoms: C_11  and  C_30
    6  A    between atoms: O_12  and  C_41
    7  A    between atoms: C_20  and  C_24
    8  A    between atoms: C_20  and  C_31
                            x       y       z     vdW  Elec       q    Type
                         _______ _______ _______ _____ _____    ______ ____

>  <TORSDO>
F 8

$$$$
=
 OpenBabel11042413393D

 42 49  0  0  1  0  0  0  0  0999 V2000
  195.6010  169.4070  142.7860 C   0  0  0  0  0  0  0  0  0  0  0  0
  191.0010  176.6810  145.1550 C   0  0  0  0  0  0  0  0  0  0  0  0
  195.3480  173.8990  145.4320 S   0  0  0  0  0  0  0  0  0  0  0  0
  190.6360  175.5160  145.7100 C   0  0  0  0  0  0  0  0  0  0  0  0
  192.4410  176.6380  145.0340 C   0  0  0  0  0  0  0  0  0  0  0  0
  195.4880  169.6800  144.2430 C   0  0  0  0  0  2  0  0  0  0  0  0
  194.2750  175.3310  145.3770 C   0  0  0  0  0  0  0  0  0  0  0  0
  195.7790  170.5690  142.1180 C   0  0  0  0  0  0  0  0  0  0  0  0
  197.5380  168.8160  139.4660 C   0  0  0  0  0  1  0  0  0  0  0  0
  195.7410  171.6260  143.0960 C   0  0  0  0  0  0  0  0  0  0  0  0
  192.8490  175.4060  145.5540 C   0  0  0  0  0  0  0  0  0  0  0  0
  195.9290  176.5350  144.0310 C   0  0  0  0  0  2  0  0  0  0  0  0
  196.1010  175.3150  143.2370 N   0  0  0  0  0  0  0  0  0  0  0  0
  194.6230  176.4610  144.7560 C   0  0  0  0  0  0  0  0  0  0  0  0
  191.8370  174.6600  145.9680 C   0  0  0  0  0  3  0  0  0  0  0  0
  195.5800  171.1470  144.2920 N   0  0  0  0  0  0  0  0  0  0  0  0
  195.8680  174.1190  143.7020 C   0  0  0  0  0  0  0  0  0  0  0  0
  195.9460  173.0120  142.7950 N   0  0  0  0  0  2  0  0  0  0  0  0
  196.3400  168.1660  141.9300 S   0  0  0  0  0  0  0  0  0  0  0  0
  196.7640  169.2240  140.6680 C   0  0  0  0  0  0  0  0  0  0  0  0
  196.4600  170.5160  140.9480 N   0  0  0  0  0  0  0  0  0  0  0  0
  193.4420  177.3300  144.5060 C   0  0  0  0  0  3  0  0  0  0  0  0
  188.5910  176.0770  146.9870 C   0  0  1  0  0  3  0  0  0  0  0  0
  189.1030  174.8250  147.3740 O   0  0  0  0  0  0  0  0  0  0  0  0
  189.2130  175.1520  146.0090 C   0  0  2  0  0  3  0  0  0  0  0  0
  187.0840  175.9860  146.8850 C   0  0  2  0  0  3  0  0  0  0  0  0
  186.5320  177.3510  146.5220 C   0  0  2  0  0  3  0  0  0  0  0  0
  186.4570  176.8570  147.9510 C   0  0  0  0  0  2  0  0  0  0  0  0
  185.1790  177.1780  145.8570 C   0  0  0  0  0  2  0  0  0  0  0  0
  184.2180  178.2560  146.3200 C   0  0  0  0  0  2  0  0  0  0  0  0
  183.8630  179.1830  145.1710 C   0  0  0  0  0  1  0  0  0  0  0  0
  190.1330  177.7090  144.7800 O   0  0  0  0  0  0  0  0  0  0  0  0
  186.5490  177.0180  140.1940 C   0  0  0  0  0  2  0  0  0  0  0  0
  189.8740  177.9960  143.4440 C   0  0  0  0  0  3  0  0  0  0  0  0
  187.7220  176.5100  141.0170 C   0  0  0  0  0  2  0  0  0  0  0  0
  187.6590  177.1860  142.3390 C   0  0  0  0  0  0  0  0  0  0  0  0
  186.0760  178.3260  140.8100 C   0  0  2  0  0  3  0  0  0  0  0  0
  188.7680  177.5890  142.8920 C   0  0  0  0  0  0  0  0  0  0  0  0
  186.1730  178.1290  142.6090 S   0  0  0  0  0  0  0  0  0  0  0  0
  184.7570  178.5790  140.4320 O   0  0  0  0  0  0  0  0  0  0  0  0
  182.5370  178.4100  141.2630 C   0  0  0  0  0  1  0  0  0  0  0  0
  183.9800  177.9880  141.4290 C   0  0  0  0  0  2  0  0  0  0  0  0
  1  6  1  0  0  0  0
  2  4  1  0  0  0  0
  4 15  2  0  0  0  0
  5  2  2  0  0  0  0
  5 11  1  0  0  0  0
  6 16  1  0  0  0  0
  7  3  1  0  0  0  0
  7 11  2  0  0  0  0
  8  1  2  0  0  0  0
  8 10  1  0  0  0  0
  9 20  1  0  0  0  0
 10 16  2  0  0  0  0
 11 15  1  0  0  0  0
 12 14  1  0  0  0  0
 13 17  2  0  0  0  0
 13 12  1  0  0  0  0
 14  7  1  0  0  0  0
 17  3  1  0  0  0  0
 18 10  1  0  0  0  0
 18 17  1  0  0  0  0
 19  1  1  0  0  0  0
 20 21  2  0  0  0  0
 20 19  1  0  0  0  0
 21  8  1  0  0  0  0
 22 14  2  0  0  0  0
 22  5  1  0  0  0  0
 23 24  1  1  0  0  0
 25  4  1  1  0  0  0
 25 23  1  0  0  0  0
 25 24  1  0  0  0  0
 26 23  1  0  0  0  0
 26 28  1  1  0  0  0
 27 29  1  6  0  0  0
 27 26  1  0  0  0  0
 27 28  1  0  0  0  0
 29 30  1  0  0  0  0
 31 30  1  0  0  0  0
 32  2  1  0  0  0  0
 33 37  1  0  0  0  0
 33 35  1  0  0  0  0
 34 32  1  0  0  0  0
 35 36  1  0  0  0  0
 36 39  1  0  0  0  0
 36 38  2  0  0  0  0
 37 40  1  1  0  0  0
 37 39  1  0  0  0  0
 38 34  2  0  0  0  0
 40 42  1  0  0  0  0
 41 42  1  0  0  0  0
M  END
>  <MODEL>
4

>  <REMARK>
 VINA RESULT:      -7.0      4.331      7.031
  Name = 
  8 active torsions:
  status: ('A' for Active; 'I' for Inactive)
    1  A    between atoms: C_2  and  O_13
    2  A    between atoms: C_5  and  C_6
    3  A    between atoms: C_7  and  O_13
    4  A    between atoms: C_10  and  O_12
    5  A    between atoms: C_11  and  C_30
    6  A    between atoms: O_12  and  C_41
    7  A    between atoms: C_20  and  C_24
    8  A    between atoms: C_20  and  C_31
                            x       y       z     vdW  Elec       q    Type
                         _______ _______ _______ _____ _____    ______ ____

>  <TORSDO>
F 8

$$$$
=
 OpenBabel11042413393D

 42 49  0  0  1  0  0  0  0  0999 V2000
  185.6680  178.0320  143.4490 C   0  0  0  0  0  0  0  0  0  0  0  0
  190.8450  171.0410  141.4440 C   0  0  0  0  0  0  0  0  0  0  0  0
  190.4340  175.9460  143.0220 S   0  0  0  0  0  0  0  0  0  0  0  0
  190.2660  171.6900  140.4230 C   0  0  0  0  0  0  0  0  0  0  0  0
  191.1890  172.0500  142.4210 C   0  0  0  0  0  0  0  0  0  0  0  0
  186.7550  178.2680  142.4630 C   0  0  0  0  0  2  0  0  0  0  0  0
  191.0670  174.2770  142.8830 C   0  0  0  0  0  0  0  0  0  0  0  0
  186.1140  177.2140  144.4290 C   0  0  0  0  0  0  0  0  0  0  0  0
  183.7410  178.6680  146.7670 C   0  0  0  0  0  1  0  0  0  0  0  0
  187.4680  176.8570  144.0970 C   0  0  0  0  0  0  0  0  0  0  0  0
  190.7850  173.2770  141.8880 C   0  0  0  0  0  0  0  0  0  0  0  0
  191.5730  174.2550  145.2790 C   0  0  0  0  0  2  0  0  0  0  0  0
  190.2620  174.8700  145.5130 N   0  0  0  0  0  0  0  0  0  0  0  0
  191.5740  173.6150  143.9270 C   0  0  0  0  0  0  0  0  0  0  0  0
  190.2070  173.1590  140.7030 C   0  0  0  0  0  3  0  0  0  0  0  0
  187.8460  177.4380  142.9990 N   0  0  0  0  0  0  0  0  0  0  0  0
  189.6470  175.6020  144.6260 C   0  0  0  0  0  0  0  0  0  0  0  0
  188.3140  176.0420  144.9180 N   0  0  0  0  0  2  0  0  0  0  0  0
  184.4820  179.0410  144.0760 S   0  0  0  0  0  0  0  0  0  0  0  0
  184.5520  178.2660  145.5870 C   0  0  0  0  0  0  0  0  0  0  0  0
  185.5430  177.3410  145.6520 N   0  0  0  0  0  0  0  0  0  0  0  0
  191.6520  172.1550  143.6600 C   0  0  0  0  0  3  0  0  0  0  0  0
  190.4850  171.4280  137.9720 C   0  0  1  0  0  3  0  0  0  0  0  0
  189.2350  171.9740  138.3130 O   0  0  0  0  0  0  0  0  0  0  0  0
  189.7550  171.0060  139.1910 C   0  0  2  0  0  3  0  0  0  0  0  0
  190.2930  170.3950  136.8810 C   0  0  2  0  0  3  0  0  0  0  0  0
  191.3660  170.5860  135.8290 C   0  0  2  0  0  3  0  0  0  0  0  0
  189.9630  171.0950  135.5820 C   0  0  0  0  0  2  0  0  0  0  0  0
  191.5660  169.2790  135.0830 C   0  0  0  0  0  2  0  0  0  0  0  0
  192.9700  169.2030  134.5130 C   0  0  0  0  0  2  0  0  0  0  0  0
  193.7530  170.4590  134.8510 C   0  0  0  0  0  1  0  0  0  0  0  0
  191.0540  169.6620  141.5160 O   0  0  0  0  0  0  0  0  0  0  0  0
  195.4970  169.0110  137.7490 C   0  0  0  0  0  2  0  0  0  0  0  0
  192.3000  169.0970  141.2620 C   0  0  0  0  0  3  0  0  0  0  0  0
  194.1440  168.5410  138.2590 C   0  0  0  0  0  2  0  0  0  0  0  0
  193.5610  169.6550  139.0530 C   0  0  0  0  0  0  0  0  0  0  0  0
  195.9430  170.1810  138.6120 C   0  0  2  0  0  3  0  0  0  0  0  0
  192.9280  169.3740  140.1570 C   0  0  0  0  0  0  0  0  0  0  0  0
  194.4700  171.1810  138.9480 S   0  0  0  0  0  0  0  0  0  0  0  0
  196.8880  170.9450  137.9250 O   0  0  0  0  0  0  0  0  0  0  0  0
  196.8070  172.3020  135.9770 C   0  0  0  0  0  1  0  0  0  0  0  0
  196.1470  171.9420  137.2900 C   0  0  0  0  0  2  0  0  0  0  0  0
  1 19  1  0  0  0  0
  1  8  2  0  0  0  0
  2 32  1  0  0  0  0
  2  5  1  0  0  0  0
  3 17  1  0  0  0  0
  4 15  1  0  0  0  0
  4  2  2  0  0  0  0
  5 22  2  0  0  0  0
  6 16  1  0  0  0  0
  6  1  1  0  0  0  0
  7  3  1  0  0  0  0
  7 14  2  0  0  0  0
  8 21  1  0  0  0  0
 10  8  1  0  0  0  0
 10 18  1  0  0  0  0
 11  5  1  0  0  0  0
 11  7  1  0  0  0  0
 12 13  1  0  0  0  0
 14 12  1  0  0  0  0
 15 11  2  0  0  0  0
 16 10  2  0  0  0  0
 17 18  1  0  0  0  0
 17 13  2  0  0  0  0
 19 20  1  0  0  0  0
 20 21  2  0  0  0  0
 20  9  1  0  0  0  0
 22 14  1  0  0  0  0
 23 24  1  6  0  0  0
 23 25  1  0  0  0  0
 24 25  1  0  0  0  0
 25  4  1  1  0  0  0
 26 28  1  6  0  0  0
 26 23  1  0  0  0  0
 27 29  1  6  0  0  0
 27 26  1  0  0  0  0
 28 27  1  0  0  0  0
 30 31  1  0  0  0  0
 30 29  1  0  0  0  0
 33 35  1  0  0  0  0
 33 37  1  0  0  0  0
 34 32  1  0  0  0  0
 35 36  1  0  0  0  0
 36 38  2  0  0  0  0
 37 40  1  6  0  0  0
 37 39  1  0  0  0  0
 38 34  2  0  0  0  0
 39 36  1  0  0  0  0
 41 42  1  0  0  0  0
 42 40  1  0  0  0  0
M  END
>  <MODEL>
5

>  <REMARK>
 VINA RESULT:      -6.0      4.579      9.746
  Name = 
  8 active torsions:
  status: ('A' for Active; 'I' for Inactive)
    1  A    between atoms: C_2  and  O_13
    2  A    between atoms: C_5  and  C_6
    3  A    between atoms: C_7  and  O_13
    4  A    between atoms: C_10  and  O_12
    5  A    between atoms: C_11  and  C_30
    6  A    between atoms: O_12  and  C_41
    7  A    between atoms: C_20  and  C_24
    8  A    between atoms: C_20  and  C_31
                            x       y       z     vdW  Elec       q    Type
                         _______ _______ _______ _____ _____    ______ ____

>  <TORSDO>
F 8

$$$$
=
 OpenBabel11042413393D

 42 49  0  0  1  0  0  0  0  0999 V2000
  182.1770  178.2740  140.7360 C   0  0  0  0  0  0  0  0  0  0  0  0
  189.2600  173.8070  143.8290 C   0  0  0  0  0  0  0  0  0  0  0  0
  187.0810  178.3080  142.5220 S   0  0  0  0  0  0  0  0  0  0  0  0
  188.9880  173.6980  142.5210 C   0  0  0  0  0  0  0  0  0  0  0  0
  188.9380  175.1680  144.1960 C   0  0  0  0  0  0  0  0  0  0  0  0
  183.4700  178.5100  140.0420 C   0  0  0  0  0  2  0  0  0  0  0  0
  188.1050  177.1350  143.4070 C   0  0  0  0  0  0  0  0  0  0  0  0
  182.3880  178.1750  142.0680 C   0  0  0  0  0  0  0  0  0  0  0  0
  179.0130  179.3520  142.7250 C   0  0  0  0  0  1  0  0  0  0  0  0
  183.8070  178.2940  142.2790 C   0  0  0  0  0  0  0  0  0  0  0  0
  188.4880  175.8000  143.0340 C   0  0  0  0  0  0  0  0  0  0  0  0
  187.6210  178.2840  145.5150 C   0  0  0  0  0  2  0  0  0  0  0  0
  186.2170  178.3550  145.0990 N   0  0  0  0  0  0  0  0  0  0  0  0
  188.3070  177.2150  144.7250 C   0  0  0  0  0  0  0  0  0  0  0  0
  188.4680  174.9940  141.9830 C   0  0  0  0  0  3  0  0  0  0  0  0
  184.4300  178.4830  141.1560 N   0  0  0  0  0  0  0  0  0  0  0  0
  185.8390  178.3520  143.8510 C   0  0  0  0  0  0  0  0  0  0  0  0
  184.4350  178.2940  143.5680 N   0  0  0  0  0  2  0  0  0  0  0  0
  180.6330  178.8780  140.4710 S   0  0  0  0  0  0  0  0  0  0  0  0
  180.2930  178.8750  142.1370 C   0  0  0  0  0  0  0  0  0  0  0  0
  181.3720  178.5400  142.8870 N   0  0  0  0  0  0  0  0  0  0  0  0
  188.8380  175.9380  145.2720 C   0  0  0  0  0  3  0  0  0  0  0  0
  190.2690  172.5580  140.7350 C   0  0  1  0  0  3  0  0  0  0  0  0
  188.9140  172.6910  140.3810 O   0  0  0  0  0  0  0  0  0  0  0  0
  189.1830  172.4340  141.7380 C   0  0  2  0  0  3  0  0  0  0  0  0
  190.7520  171.1790  140.3360 C   0  0  2  0  0  3  0  0  0  0  0  0
  192.1590  171.2920  139.7850 C   0  0  2  0  0  3  0  0  0  0  0  0
  190.9840  171.1440  138.8420 C   0  0  0  0  0  2  0  0  0  0  0  0
  192.8580  169.9530  139.9330 C   0  0  0  0  0  2  0  0  0  0  0  0
  194.3630  170.1290  139.8620 C   0  0  0  0  0  2  0  0  0  0  0  0
  194.7150  171.5200  139.3670 C   0  0  0  0  0  1  0  0  0  0  0  0
  189.7540  172.7870  144.6440 O   0  0  0  0  0  0  0  0  0  0  0  0
  195.2320  173.7680  142.8050 C   0  0  0  0  0  2  0  0  0  0  0  0
  191.0450  172.2890  144.4930 C   0  0  0  0  0  3  0  0  0  0  0  0
  193.8180  173.3090  142.4920 C   0  0  0  0  0  2  0  0  0  0  0  0
  192.9370  173.8250  143.5730 C   0  0  0  0  0  0  0  0  0  0  0  0
  195.2930  174.1290  144.2810 C   0  0  2  0  0  3  0  0  0  0  0  0
  191.9890  173.0570  144.0310 C   0  0  0  0  0  0  0  0  0  0  0  0
  193.7350  174.9610  144.6860 S   0  0  0  0  0  0  0  0  0  0  0  0
  196.3640  174.9910  144.5170 O   0  0  0  0  0  0  0  0  0  0  0  0
  197.0080  173.3800  146.1410 C   0  0  0  0  0  1  0  0  0  0  0  0
  197.4130  174.1570  144.9070 C   0  0  0  0  0  2  0  0  0  0  0  0
  1  8  2  0  0  0  0
  2  5  1  0  0  0  0
  2 32  1  0  0  0  0
  3  7  1  0  0  0  0
  3 17  1  0  0  0  0
  4  2  2  0  0  0  0
  5 22  2  0  0  0  0
  6  1  1  0  0  0  0
  6 16  1  0  0  0  0
  7 14  2  0  0  0  0
  8 10  1  0  0  0  0
  8 21  1  0  0  0  0
 10 18  1  0  0  0  0
 11  7  1  0  0  0  0
 11  5  1  0  0  0  0
 13 12  1  0  0  0  0
 14 22  1  0  0  0  0
 14 12  1  0  0  0  0
 15  4  1  0  0  0  0
 15 11  2  0  0  0  0
 16 10  2  0  0  0  0
 17 13  2  0  0  0  0
 18 17  1  0  0  0  0
 19  1  1  0  0  0  0
 19 20  1  0  0  0  0
 20  9  1  0  0  0  0
 20 21  2  0  0  0  0
 23 24  1  6  0  0  0
 23 25  1  0  0  0  0
 24 25  1  0  0  0  0
 25  4  1  1  0  0  0
 26 28  1  6  0  0  0
 26 23  1  0  0  0  0
 27 29  1  1  0  0  0
 27 26  1  0  0  0  0
 28 27  1  0  0  0  0
 30 29  1  0  0  0  0
 31 30  1  0  0  0  0
 33 37  1  0  0  0  0
 34 32  1  0  0  0  0
 35 33  1  0  0  0  0
 35 36  1  0  0  0  0
 36 38  2  0  0  0  0
 36 39  1  0  0  0  0
 37 40  1  6  0  0  0
 37 39  1  0  0  0  0
 38 34  2  0  0  0  0
 40 42  1  0  0  0  0
 42 41  1  0  0  0  0
M  END
>  <MODEL>
6

>  <REMARK>
 VINA RESULT:      -6.0      4.559      9.094
  Name = 
  8 active torsions:
  status: ('A' for Active; 'I' for Inactive)
    1  A    between atoms: C_2  and  O_13
    2  A    between atoms: C_5  and  C_6
    3  A    between atoms: C_7  and  O_13
    4  A    between atoms: C_10  and  O_12
    5  A    between atoms: C_11  and  C_30
    6  A    between atoms: O_12  and  C_41
    7  A    between atoms: C_20  and  C_24
    8  A    between atoms: C_20  and  C_31
                            x       y       z     vdW  Elec       q    Type
                         _______ _______ _______ _____ _____    ______ ____

>  <TORSDO>
F 8

$$$$
=
 OpenBabel11042413393D

 42 49  0  0  1  0  0  0  0  0999 V2000
  185.7790  177.6790  143.4470 C   0  0  0  0  0  0  0  0  0  0  0  0
  191.4300  171.0460  141.5080 C   0  0  0  0  0  0  0  0  0  0  0  0
  190.6740  176.0040  142.7580 S   0  0  0  0  0  0  0  0  0  0  0  0
  190.7110  171.5570  140.4970 C   0  0  0  0  0  0  0  0  0  0  0  0
  191.7520  172.1570  142.3760 C   0  0  0  0  0  0  0  0  0  0  0  0
  186.7550  177.9320  142.3550 C   0  0  0  0  0  2  0  0  0  0  0  0
  191.4530  174.3930  142.6850 C   0  0  0  0  0  0  0  0  0  0  0  0
  186.3780  176.9860  144.4410 C   0  0  0  0  0  0  0  0  0  0  0  0
  184.0710  178.4010  146.8660 C   0  0  0  0  0  1  0  0  0  0  0  0
  187.7300  176.7270  144.0180 C   0  0  0  0  0  0  0  0  0  0  0  0
  191.1890  173.2960  141.7930 C   0  0  0  0  0  0  0  0  0  0  0  0
  192.1480  174.6090  145.0230 C   0  0  0  0  0  2  0  0  0  0  0  0
  190.8070  175.1200  145.3260 N   0  0  0  0  0  0  0  0  0  0  0  0
  192.1030  173.8660  143.7260 C   0  0  0  0  0  0  0  0  0  0  0  0
  190.5330  173.0320  140.6740 C   0  0  0  0  0  3  0  0  0  0  0  0
  187.9600  177.2500  142.8530 N   0  0  0  0  0  0  0  0  0  0  0  0
  190.0550  175.7200  144.4450 C   0  0  0  0  0  0  0  0  0  0  0  0
  188.7130  176.0600  144.8190 N   0  0  0  0  0  2  0  0  0  0  0  0
  184.5550  178.6240  144.1010 S   0  0  0  0  0  0  0  0  0  0  0  0
  184.8200  177.9810  145.6520 C   0  0  0  0  0  0  0  0  0  0  0  0
  185.8970  177.1580  145.6960 N   0  0  0  0  0  0  0  0  0  0  0  0
  192.3000  172.4010  143.5580 C   0  0  0  0  0  3  0  0  0  0  0  0
  190.2480  171.4440  138.0680 C   0  0  1  0  0  3  0  0  0  0  0  0
  189.0570  171.3900  138.8140 O   0  0  0  0  0  0  0  0  0  0  0  0
  190.1720  170.7330  139.3670 C   0  0  2  0  0  3  0  0  0  0  0  0
  190.1690  170.4430  136.9350 C   0  0  2  0  0  3  0  0  0  0  0  0
  191.4380  170.5310  136.1110 C   0  0  2  0  0  3  0  0  0  0  0  0
  190.1650  171.1810  135.6150 C   0  0  0  0  0  2  0  0  0  0  0  0
  191.6490  169.2160  135.3840 C   0  0  0  0  0  2  0  0  0  0  0  0
  193.1260  168.8740  135.3210 C   0  0  0  0  0  2  0  0  0  0  0  0
  193.8130  169.2330  136.6260 C   0  0  0  0  0  1  0  0  0  0  0  0
  191.7760  169.7020  141.6600 O   0  0  0  0  0  0  0  0  0  0  0  0
  197.2320  169.7630  143.8010 C   0  0  0  0  0  2  0  0  0  0  0  0
  193.0910  169.2660  141.5270 C   0  0  0  0  0  3  0  0  0  0  0  0
  196.1750  170.4020  142.9150 C   0  0  0  0  0  2  0  0  0  0  0  0
  194.8570  169.8670  143.3450 C   0  0  0  0  0  0  0  0  0  0  0  0
  196.6320  168.5100  144.4190 C   0  0  2  0  0  3  0  0  0  0  0  0
  193.9730  169.5690  142.4340 C   0  0  0  0  0  0  0  0  0  0  0  0
  194.9120  168.8980  144.8370 S   0  0  0  0  0  0  0  0  0  0  0  0
  197.3340  168.1660  145.5740 O   0  0  0  0  0  0  0  0  0  0  0  0
  197.1830  168.2750  147.9430 C   0  0  0  0  0  1  0  0  0  0  0  0
  196.4710  168.4820  146.6240 C   0  0  0  0  0  2  0  0  0  0  0  0
  1 19  1  0  0  0  0
  1  8  2  0  0  0  0
  2 32  1  0  0  0  0
  2  5  1  0  0  0  0
  3 17  1  0  0  0  0
  4 15  1  0  0  0  0
  4  2  2  0  0  0  0
  5 22  2  0  0  0  0
  6 16  1  0  0  0  0
  6  1  1  0  0  0  0
  7  3  1  0  0  0  0
  7 14  2  0  0  0  0
  8 21  1  0  0  0  0
 10  8  1  0  0  0  0
 10 18  1  0  0  0  0
 11  5  1  0  0  0  0
 11  7  1  0  0  0  0
 12 13  1  0  0  0  0
 14 12  1  0  0  0  0
 15 11  2  0  0  0  0
 16 10  2  0  0  0  0
 17 18  1  0  0  0  0
 17 13  2  0  0  0  0
 19 20  1  0  0  0  0
 20 21  2  0  0  0  0
 20  9  1  0  0  0  0
 22 14  1  0  0  0  0
 23 24  1  6  0  0  0
 23 25  1  0  0  0  0
 24 25  1  0  0  0  0
 25  4  1  1  0  0  0
 26 28  1  6  0  0  0
 26 23  1  0  0  0  0
 27 29  1  6  0  0  0
 27 26  1  0  0  0  0
 28 27  1  0  0  0  0
 30 29  1  0  0  0  0
 30 31  1  0  0  0  0
 33 37  1  0  0  0  0
 34 32  1  0  0  0  0
 34 38  2  0  0  0  0
 35 36  1  0  0  0  0
 35 33  1  0  0  0  0
 36 39  1  0  0  0  0
 37 39  1  0  0  0  0
 37 40  1  1  0  0  0
 38 36  2  0  0  0  0
 40 42  1  0  0  0  0
 42 41  1  0  0  0  0
M  END
>  <MODEL>
7

>  <REMARK>
 VINA RESULT:      -5.7      4.943      9.412
  Name = 
  8 active torsions:
  status: ('A' for Active; 'I' for Inactive)
    1  A    between atoms: C_2  and  O_13
    2  A    between atoms: C_5  and  C_6
    3  A    between atoms: C_7  and  O_13
    4  A    between atoms: C_10  and  O_12
    5  A    between atoms: C_11  and  C_30
    6  A    between atoms: O_12  and  C_41
    7  A    between atoms: C_20  and  C_24
    8  A    between atoms: C_20  and  C_31
                            x       y       z     vdW  Elec       q    Type
                         _______ _______ _______ _____ _____    ______ ____

>  <TORSDO>
F 8

$$$$
=
 OpenBabel11042413393D

 42 49  0  0  1  0  0  0  0  0999 V2000
  190.8140  176.8250  144.5060 C   0  0  0  0  0  0  0  0  0  0  0  0
  196.1570  173.3330  138.2650 C   0  0  0  0  0  0  0  0  0  0  0  0
  195.6260  175.6840  142.8370 S   0  0  0  0  0  0  0  0  0  0  0  0
  195.5760  174.5090  137.9880 C   0  0  0  0  0  0  0  0  0  0  0  0
  196.4690  173.3580  139.6760 C   0  0  0  0  0  0  0  0  0  0  0  0
  191.9070  177.6960  143.9990 C   0  0  0  0  0  2  0  0  0  0  0  0
  196.2960  174.6060  141.5740 C   0  0  0  0  0  0  0  0  0  0  0  0
  191.2650  175.5570  144.6320 C   0  0  0  0  0  0  0  0  0  0  0  0
  188.8380  174.9160  147.2580 C   0  0  0  0  0  1  0  0  0  0  0  0
  192.6310  175.5490  144.1750 C   0  0  0  0  0  0  0  0  0  0  0  0
  196.0450  174.6000  140.1570 C   0  0  0  0  0  0  0  0  0  0  0  0
  196.7750  172.9010  143.2650 C   0  0  0  0  0  2  0  0  0  0  0  0
  195.4500  173.1610  143.8350 N   0  0  0  0  0  0  0  0  0  0  0  0
  196.8040  173.4040  141.8570 C   0  0  0  0  0  0  0  0  0  0  0  0
  195.4830  175.3510  139.2220 C   0  0  0  0  0  3  0  0  0  0  0  0
  193.0080  176.7380  143.8170 N   0  0  0  0  0  0  0  0  0  0  0  0
  194.8290  174.3020  143.7110 C   0  0  0  0  0  0  0  0  0  0  0  0
  193.4840  174.3980  144.1990 N   0  0  0  0  0  2  0  0  0  0  0  0
  189.6010  177.0870  145.6360 S   0  0  0  0  0  0  0  0  0  0  0  0
  189.6700  175.4710  146.1590 C   0  0  0  0  0  0  0  0  0  0  0  0
  190.6790  174.7780  145.5730 N   0  0  0  0  0  0  0  0  0  0  0  0
  196.9170  172.5600  140.6370 C   0  0  0  0  0  3  0  0  0  0  0  0
  193.8690  175.7280  136.6740 C   0  0  1  0  0  3  0  0  0  0  0  0
  193.8110  174.3460  136.4210 O   0  0  0  0  0  0  0  0  0  0  0  0
  195.0920  174.8920  136.6220 C   0  0  2  0  0  3  0  0  0  0  0  0
  193.7090  176.4780  135.3690 C   0  0  2  0  0  3  0  0  0  0  0  0
  193.1830  177.8690  135.6620 C   0  0  2  0  0  3  0  0  0  0  0  0
  192.2470  176.7960  135.1500 C   0  0  0  0  0  2  0  0  0  0  0  0
  193.5620  178.7930  134.5200 C   0  0  0  0  0  2  0  0  0  0  0  0
  194.4710  179.9030  135.0140 C   0  0  0  0  0  2  0  0  0  0  0  0
  193.8530  181.2610  134.7380 C   0  0  0  0  0  1  0  0  0  0  0  0
  196.3940  172.3080  137.3460 O   0  0  0  0  0  0  0  0  0  0  0  0
  191.5750  169.5320  139.1980 C   0  0  0  0  0  2  0  0  0  0  0  0
  195.4610  171.3030  137.1140 C   0  0  0  0  0  3  0  0  0  0  0  0
  193.0890  169.6630  139.2170 C   0  0  0  0  0  2  0  0  0  0  0  0
  193.4210  171.0210  138.7100 C   0  0  0  0  0  0  0  0  0  0  0  0
  191.0250  170.5850  138.2480 C   0  0  2  0  0  3  0  0  0  0  0  0
  194.4430  171.1610  137.9140 C   0  0  0  0  0  0  0  0  0  0  0  0
  192.0110  172.0850  138.4940 S   0  0  0  0  0  0  0  0  0  0  0  0
  189.6870  170.8440  138.5480 O   0  0  0  0  0  0  0  0  0  0  0  0
  188.5190  172.6620  139.5360 C   0  0  0  0  0  1  0  0  0  0  0  0
  189.7280  171.7540  139.6050 C   0  0  0  0  0  2  0  0  0  0  0  0
  1  8  2  0  0  0  0
  1 19  1  0  0  0  0
  2  5  1  0  0  0  0
  3 17  1  0  0  0  0
  4  2  2  0  0  0  0
  4 15  1  0  0  0  0
  5 11  1  0  0  0  0
  5 22  2  0  0  0  0
  6  1  1  0  0  0  0
  7 14  2  0  0  0  0
  7  3  1  0  0  0  0
  8 21  1  0  0  0  0
 10 18  1  0  0  0  0
 10  8  1  0  0  0  0
 11  7  1  0  0  0  0
 12 13  1  0  0  0  0
 14 12  1  0  0  0  0
 15 11  2  0  0  0  0
 16  6  1  0  0  0  0
 16 10  2  0  0  0  0
 17 13  2  0  0  0  0
 17 18  1  0  0  0  0
 19 20  1  0  0  0  0
 20  9  1  0  0  0  0
 21 20  2  0  0  0  0
 22 14  1  0  0  0  0
 23 24  1  6  0  0  0
 24 25  1  0  0  0  0
 25 23  1  0  0  0  0
 25  4  1  1  0  0  0
 26 28  1  6  0  0  0
 26 27  1  0  0  0  0
 26 23  1  0  0  0  0
 27 29  1  6  0  0  0
 28 27  1  0  0  0  0
 29 30  1  0  0  0  0
 31 30  1  0  0  0  0
 32  2  1  0  0  0  0
 33 35  1  0  0  0  0
 34 32  1  0  0  0  0
 34 38  2  0  0  0  0
 36 35  1  0  0  0  0
 37 39  1  0  0  0  0
 37 40  1  1  0  0  0
 37 33  1  0  0  0  0
 38 36  2  0  0  0  0
 39 36  1  0  0  0  0
 40 42  1  0  0  0  0
 41 42  1  0  0  0  0
M  END
>  <MODEL>
8

>  <REMARK>
 VINA RESULT:      -5.7      4.325      9.633
  Name = 
  8 active torsions:
  status: ('A' for Active; 'I' for Inactive)
    1  A    between atoms: C_2  and  O_13
    2  A    between atoms: C_5  and  C_6
    3  A    between atoms: C_7  and  O_13
    4  A    between atoms: C_10  and  O_12
    5  A    between atoms: C_11  and  C_30
    6  A    between atoms: O_12  and  C_41
    7  A    between atoms: C_20  and  C_24
    8  A    between atoms: C_20  and  C_31
                            x       y       z     vdW  Elec       q    Type
                         _______ _______ _______ _____ _____    ______ ____

>  <TORSDO>
F 8

$$$$
=
 OpenBabel11042413393D

 42 49  0  0  1  0  0  0  0  0999 V2000
  190.7300  176.5520  144.5000 C   0  0  0  0  0  0  0  0  0  0  0  0
  197.2350  173.7020  139.0920 C   0  0  0  0  0  0  0  0  0  0  0  0
  195.8000  176.3780  143.2750 S   0  0  0  0  0  0  0  0  0  0  0  0
  196.4320  174.6710  138.6300 C   0  0  0  0  0  0  0  0  0  0  0  0
  197.4110  173.9630  140.5030 C   0  0  0  0  0  0  0  0  0  0  0  0
  191.6390  177.5900  143.9460 C   0  0  0  0  0  2  0  0  0  0  0  0
  196.8010  175.3470  142.2060 C   0  0  0  0  0  0  0  0  0  0  0  0
  191.4410  175.4470  144.8190 C   0  0  0  0  0  0  0  0  0  0  0  0
  189.0010  174.5670  147.3640 C   0  0  0  0  0  1  0  0  0  0  0  0
  192.8080  175.7050  144.4460 C   0  0  0  0  0  0  0  0  0  0  0  0
  196.6800  175.1190  140.7910 C   0  0  0  0  0  0  0  0  0  0  0  0
  197.5020  174.0070  144.1330 C   0  0  0  0  0  2  0  0  0  0  0  0
  196.1080  174.0160  144.5870 N   0  0  0  0  0  0  0  0  0  0  0  0
  197.5390  174.3370  142.6740 C   0  0  0  0  0  0  0  0  0  0  0  0
  196.0470  175.6050  139.7340 C   0  0  0  0  0  3  0  0  0  0  0  0
  192.9380  176.9000  143.9560 N   0  0  0  0  0  0  0  0  0  0  0  0
  195.2600  174.9590  144.2770 C   0  0  0  0  0  0  0  0  0  0  0  0
  193.8920  174.7950  144.6700 N   0  0  0  0  0  2  0  0  0  0  0  0
  189.3960  176.6540  145.5150 S   0  0  0  0  0  0  0  0  0  0  0  0
  189.7800  175.1700  146.2500 C   0  0  0  0  0  0  0  0  0  0  0  0
  190.9650  174.6680  145.8190 N   0  0  0  0  0  0  0  0  0  0  0  0
  197.9410  173.4070  141.5850 C   0  0  0  0  0  3  0  0  0  0  0  0
  194.5690  175.1630  137.0750 C   0  0  1  0  0  3  0  0  0  0  0  0
  194.9810  173.8220  136.9640 O   0  0  0  0  0  0  0  0  0  0  0  0
  195.9940  174.7710  137.1990 C   0  0  2  0  0  3  0  0  0  0  0  0
  194.3140  175.7180  135.6900 C   0  0  2  0  0  3  0  0  0  0  0  0
  193.7010  177.0980  135.8190 C   0  0  2  0  0  3  0  0  0  0  0  0
  192.8260  175.9070  135.4930 C   0  0  0  0  0  2  0  0  0  0  0  0
  193.9760  177.8830  134.5500 C   0  0  0  0  0  2  0  0  0  0  0  0
  194.9190  179.0380  134.8330 C   0  0  0  0  0  2  0  0  0  0  0  0
  194.1690  180.3570  134.8090 C   0  0  0  0  0  1  0  0  0  0  0  0
  197.7730  172.6620  138.3320 O   0  0  0  0  0  0  0  0  0  0  0  0
  193.6740  169.0860  140.5140 C   0  0  0  0  0  2  0  0  0  0  0  0
  197.2380  171.3780  138.3660 C   0  0  0  0  0  3  0  0  0  0  0  0
  195.0480  169.7230  140.6450 C   0  0  0  0  0  2  0  0  0  0  0  0
  195.0760  170.9000  139.7380 C   0  0  0  0  0  0  0  0  0  0  0  0
  193.0590  169.5610  139.2070 C   0  0  2  0  0  3  0  0  0  0  0  0
  196.1590  171.1400  139.0540 C   0  0  0  0  0  0  0  0  0  0  0  0
  193.4990  171.3090  139.0210 S   0  0  0  0  0  0  0  0  0  0  0  0
  191.6710  169.4250  139.2580 O   0  0  0  0  0  0  0  0  0  0  0  0
  189.7150  169.9030  137.9960 C   0  0  0  0  0  1  0  0  0  0  0  0
  191.2020  170.1370  138.1540 C   0  0  0  0  0  2  0  0  0  0  0  0
  1  8  2  0  0  0  0
  1 19  1  0  0  0  0
  2  5  1  0  0  0  0
  3 17  1  0  0  0  0
  4  2  2  0  0  0  0
  4 15  1  0  0  0  0
  5 11  1  0  0  0  0
  5 22  2  0  0  0  0
  6 16  1  0  0  0  0
  6  1  1  0  0  0  0
  7 14  2  0  0  0  0
  7  3  1  0  0  0  0
  8 21  1  0  0  0  0
 10 18  1  0  0  0  0
 10  8  1  0  0  0  0
 11  7  1  0  0  0  0
 12 13  1  0  0  0  0
 14 12  1  0  0  0  0
 15 11  2  0  0  0  0
 16 10  2  0  0  0  0
 17 13  2  0  0  0  0
 17 18  1  0  0  0  0
 19 20  1  0  0  0  0
 20  9  1  0  0  0  0
 21 20  2  0  0  0  0
 22 14  1  0  0  0  0
 23 24  1  6  0  0  0
 23 25  1  0  0  0  0
 24 25  1  0  0  0  0
 25  4  1  1  0  0  0
 26 28  1  1  0  0  0
 26 27  1  0  0  0  0
 26 23  1  0  0  0  0
 27 29  1  6  0  0  0
 28 27  1  0  0  0  0
 29 30  1  0  0  0  0
 31 30  1  0  0  0  0
 32 34  1  0  0  0  0
 32  2  1  0  0  0  0
 33 35  1  0  0  0  0
 34 38  2  0  0  0  0
 36 35  1  0  0  0  0
 37 40  1  1  0  0  0
 37 33  1  0  0  0  0
 38 36  2  0  0  0  0
 39 37  1  0  0  0  0
 39 36  1  0  0  0  0
 41 42  1  0  0  0  0
 42 40  1  0  0  0  0
M  END
>  <MODEL>
9

>  <REMARK>
 VINA RESULT:      -5.6      4.647      9.878
  Name = 
  8 active torsions:
  status: ('A' for Active; 'I' for Inactive)
    1  A    between atoms: C_2  and  O_13
    2  A    between atoms: C_5  and  C_6
    3  A    between atoms: C_7  and  O_13
    4  A    between atoms: C_10  and  O_12
    5  A    between atoms: C_11  and  C_30
    6  A    between atoms: O_12  and  C_41
    7  A    between atoms: C_20  and  C_24
    8  A    between atoms: C_20  and  C_31
                            x       y       z     vdW  Elec       q    Type
                         _______ _______ _______ _____ _____    ______ ____

>  <TORSDO>
F 8

$$$$
