=
 OpenBabel11042414203D

 27 30  0  0  1  0  0  0  0  0999 V2000
  184.5410  177.9960  146.9020 C   0  0  0  0  0  3  0  0  0  0  0  0
  186.9430  177.7670  146.3340 C   0  0  0  0  0  0  0  0  0  0  0  0
  189.0700  176.9100  145.3220 C   0  0  0  0  0  0  0  0  0  0  0  0
  192.6660  174.7710  145.6630 C   0  0  0  0  0  0  0  0  0  0  0  0
  187.7250  177.9390  143.4110 C   0  0  2  0  0  3  0  0  0  0  0  0
  190.0100  176.2850  143.0650 S   0  0  0  0  0  0  0  0  0  0  0  0
  188.7700  177.0220  143.9640 C   0  0  0  0  0  0  0  0  0  0  0  0
  192.0890  175.0750  144.4160 C   0  0  0  0  0  3  0  0  0  0  0  0
  190.2610  176.2050  145.5560 C   0  0  0  0  0  0  0  0  0  0  0  0
  186.4020  177.7050  143.9840 N   0  0  0  0  0  0  0  0  0  0  0  0
  186.0620  177.7220  145.2410 C   0  0  0  0  0  0  0  0  0  0  0  0
  192.0270  175.1920  146.8490 C   0  0  0  0  0  3  0  0  0  0  0  0
  190.8920  175.7850  144.3970 C   0  0  0  0  0  0  0  0  0  0  0  0
  186.0140  178.0170  147.7070 S   0  0  0  0  0  0  0  0  0  0  0  0
  188.2310  177.4250  146.4150 C   0  0  0  0  0  3  0  0  0  0  0  0
  184.7470  177.8190  145.5770 N   0  0  0  0  0  0  0  0  0  0  0  0
  190.8220  175.9120  146.8020 C   0  0  0  0  0  3  0  0  0  0  0  0
  195.1770  174.7170  145.8070 N   0  0  0  0  0  2  0  0  0  0  0  0
  193.9310  174.0180  145.7320 C   0  0  0  0  0  0  0  0  0  0  0  0
  193.9160  172.7570  145.7250 O   0  0  0  0  0  0  0  0  0  0  0  0
  196.4490  174.0190  145.8760 C   0  0  0  0  0  1  0  0  0  0  0  0
  187.6370  177.8620  141.8930 C   0  0  0  0  0  2  0  0  0  0  0  0
  186.3260  177.2220  141.4710 C   0  0  0  0  0  2  0  0  0  0  0  0
  185.5060  178.1930  140.6380 C   0  0  0  0  0  2  0  0  0  0  0  0
  184.0680  178.1450  141.0330 C   0  0  0  0  0  0  0  0  0  0  0  0
  183.0910  177.9220  140.0720 O   0  0  0  0  0  0  0  0  0  0  0  0
  183.7370  178.3370  142.2320 O   0  0  0  0  0  1  0  0  0  0  0  0
  1 14  1  0  0  0  0
  2 15  2  0  0  0  0
  2 14  1  0  0  0  0
  3  9  1  0  0  0  0
  3 15  1  0  0  0  0
  4 19  1  0  0  0  0
  4 12  1  0  0  0  0
  5 22  1  6  0  0  0
  5  7  1  0  0  0  0
  5 10  1  0  0  0  0
  6  7  1  0  0  0  0
  6 13  1  0  0  0  0
  7  3  2  0  0  0  0
  8  4  2  0  0  0  0
  9 17  1  0  0  0  0
 10 11  2  0  0  0  0
 11 16  1  0  0  0  0
 11  2  1  0  0  0  0
 13  8  1  0  0  0  0
 13  9  2  0  0  0  0
 16  1  2  0  0  0  0
 17 12  2  0  0  0  0
 18 21  1  0  0  0  0
 19 18  1  0  0  0  0
 20 19  2  0  0  0  0
 23 22  1  0  0  0  0
 24 25  1  0  0  0  0
 24 23  1  0  0  0  0
 25 27  1  0  0  0  0
 26 25  2  0  0  0  0
M  END
>  <MODEL>
1

>  <REMARK>
 VINA RESULT:      -7.2      0.000      0.000
  Name = 
  5 active torsions:
  status: ('A' for Active; 'I' for Inactive)
    1  A    between atoms: C_1  and  C_14
    2  A    between atoms: C_1  and  C_18
    3  A    between atoms: C_6  and  C_7
    4  A    between atoms: C_8  and  C_11
    5  A    between atoms: C_11  and  C_14
                            x       y       z     vdW  Elec       q    Type
                         _______ _______ _______ _____ _____    ______ ____

>  <TORSDO>
F 5

$$$$
=
 OpenBabel11042414203D

 27 30  0  0  1  0  0  0  0  0999 V2000
  186.0170  178.0030  140.7540 C   0  0  0  0  0  3  0  0  0  0  0  0
  187.8160  176.8650  142.0240 C   0  0  0  0  0  0  0  0  0  0  0  0
  189.7590  176.4850  143.5600 C   0  0  0  0  0  0  0  0  0  0  0  0
  193.8530  175.7620  144.1480 C   0  0  0  0  0  0  0  0  0  0  0  0
  187.7760  177.0990  145.0450 C   0  0  2  0  0  3  0  0  0  0  0  0
  190.4780  177.0180  145.9190 S   0  0  0  0  0  0  0  0  0  0  0  0
  189.2390  176.9760  144.7570 C   0  0  0  0  0  0  0  0  0  0  0  0
  193.0220  176.2490  145.1750 C   0  0  0  0  0  3  0  0  0  0  0  0
  191.1330  176.2080  143.6410 C   0  0  0  0  0  0  0  0  0  0  0  0
  187.0690  177.9170  144.0620 N   0  0  0  0  0  0  0  0  0  0  0  0
  187.0230  177.7510  142.7710 C   0  0  0  0  0  0  0  0  0  0  0  0
  193.3080  175.5020  142.8730 C   0  0  0  0  0  3  0  0  0  0  0  0
  191.6760  176.4640  144.8890 C   0  0  0  0  0  0  0  0  0  0  0  0
  187.2060  176.8540  140.4620 S   0  0  0  0  0  0  0  0  0  0  0  0
  188.9920  176.3050  142.3180 C   0  0  0  0  0  3  0  0  0  0  0  0
  186.0610  178.3880  142.0490 N   0  0  0  0  0  0  0  0  0  0  0  0
  191.9460  175.7230  142.6130 C   0  0  0  0  0  3  0  0  0  0  0  0
  195.6960  174.3780  145.1570 N   0  0  0  0  0  2  0  0  0  0  0  0
  195.2840  175.5220  144.4040 C   0  0  0  0  0  0  0  0  0  0  0  0
  196.1480  176.3260  143.9590 O   0  0  0  0  0  0  0  0  0  0  0  0
  197.0940  174.0990  145.4350 C   0  0  0  0  0  1  0  0  0  0  0  0
  187.5080  177.6460  146.4400 C   0  0  0  0  0  2  0  0  0  0  0  0
  186.5070  176.7670  147.1700 C   0  0  0  0  0  2  0  0  0  0  0  0
  185.1840  176.7360  146.4230 C   0  0  0  0  0  2  0  0  0  0  0  0
  184.4840  178.0480  146.5340 C   0  0  0  0  0  0  0  0  0  0  0  0
  183.9530  178.6500  145.4010 O   0  0  0  0  0  0  0  0  0  0  0  0
  184.4000  178.6260  147.6490 O   0  0  0  0  0  1  0  0  0  0  0  0
  1 16  2  0  0  0  0
  2 15  2  0  0  0  0
  2 11  1  0  0  0  0
  3  9  1  0  0  0  0
  3  7  2  0  0  0  0
  4 19  1  0  0  0  0
  4  8  1  0  0  0  0
  5 22  1  1  0  0  0
  7  5  1  0  0  0  0
  7  6  1  0  0  0  0
  9 13  1  0  0  0  0
 10  5  1  0  0  0  0
 11 10  2  0  0  0  0
 12  4  2  0  0  0  0
 13  8  2  0  0  0  0
 13  6  1  0  0  0  0
 14  1  1  0  0  0  0
 14  2  1  0  0  0  0
 15  3  1  0  0  0  0
 16 11  1  0  0  0  0
 17 12  1  0  0  0  0
 17  9  2  0  0  0  0
 18 21  1  0  0  0  0
 19 18  1  0  0  0  0
 20 19  2  0  0  0  0
 22 23  1  0  0  0  0
 24 25  1  0  0  0  0
 24 23  1  0  0  0  0
 25 27  1  0  0  0  0
 26 25  2  0  0  0  0
M  END
>  <MODEL>
2

>  <REMARK>
 VINA RESULT:      -7.0      2.271      3.990
  Name = 
  5 active torsions:
  status: ('A' for Active; 'I' for Inactive)
    1  A    between atoms: C_1  and  C_14
    2  A    between atoms: C_1  and  C_18
    3  A    between atoms: C_6  and  C_7
    4  A    between atoms: C_8  and  C_11
    5  A    between atoms: C_11  and  C_14
                            x       y       z     vdW  Elec       q    Type
                         _______ _______ _______ _____ _____    ______ ____

>  <TORSDO>
F 5

$$$$
=
 OpenBabel11042414203D

 27 30  0  0  1  0  0  0  0  0999 V2000
  184.9260  177.1700  146.7420 C   0  0  0  0  0  3  0  0  0  0  0  0
  187.3260  177.4970  146.2130 C   0  0  0  0  0  0  0  0  0  0  0  0
  189.5880  177.2000  145.1750 C   0  0  0  0  0  0  0  0  0  0  0  0
  193.5480  175.8220  145.3960 C   0  0  0  0  0  0  0  0  0  0  0  0
  188.0660  178.1130  143.3400 C   0  0  2  0  0  3  0  0  0  0  0  0
  190.6450  177.0070  142.8920 S   0  0  0  0  0  0  0  0  0  0  0  0
  189.2760  177.3810  143.8280 C   0  0  0  0  0  0  0  0  0  0  0  0
  192.9250  176.1220  144.1700 C   0  0  0  0  0  3  0  0  0  0  0  0
  190.8980  176.7350  145.3690 C   0  0  0  0  0  0  0  0  0  0  0  0
  186.8180  177.5570  143.8560 N   0  0  0  0  0  0  0  0  0  0  0  0
  186.4780  177.3800  145.1000 C   0  0  0  0  0  0  0  0  0  0  0  0
  192.8300  175.9840  146.6010 C   0  0  0  0  0  3  0  0  0  0  0  0
  191.6070  176.5700  144.1910 C   0  0  0  0  0  0  0  0  0  0  0  0
  186.3610  177.4140  147.5810 S   0  0  0  0  0  0  0  0  0  0  0  0
  188.6570  177.4200  146.2920 C   0  0  0  0  0  3  0  0  0  0  0  0
  185.1690  177.1710  145.4120 N   0  0  0  0  0  0  0  0  0  0  0  0
  191.5030  176.4420  146.5940 C   0  0  0  0  0  3  0  0  0  0  0  0
  195.7050  175.2960  144.2150 N   0  0  0  0  0  2  0  0  0  0  0  0
  194.9410  175.3420  145.4230 C   0  0  0  0  0  0  0  0  0  0  0  0
  195.4600  174.9730  146.5110 O   0  0  0  0  0  0  0  0  0  0  0  0
  197.0820  174.8320  144.1910 C   0  0  0  0  0  1  0  0  0  0  0  0
  188.0020  178.1700  141.8200 C   0  0  0  0  0  2  0  0  0  0  0  0
  186.9790  177.1770  141.2960 C   0  0  0  0  0  2  0  0  0  0  0  0
  187.6430  176.1690  140.3740 C   0  0  0  0  0  2  0  0  0  0  0  0
  188.1060  174.9750  141.1390 C   0  0  0  0  0  0  0  0  0  0  0  0
  187.4850  174.6330  142.3340 O   0  0  0  0  0  1  0  0  0  0  0  0
  189.0790  174.2960  140.7200 O   0  0  0  0  0  0  0  0  0  0  0  0
  1 14  1  0  0  0  0
  2 15  2  0  0  0  0
  2 14  1  0  0  0  0
  3  9  1  0  0  0  0
  3 15  1  0  0  0  0
  4 19  1  0  0  0  0
  4 12  1  0  0  0  0
  5 22  1  6  0  0  0
  5  7  1  0  0  0  0
  5 10  1  0  0  0  0
  6  7  1  0  0  0  0
  6 13  1  0  0  0  0
  7  3  2  0  0  0  0
  8 13  1  0  0  0  0
  8  4  2  0  0  0  0
  9 17  1  0  0  0  0
 10 11  2  0  0  0  0
 11 16  1  0  0  0  0
 11  2  1  0  0  0  0
 13  9  2  0  0  0  0
 16  1  2  0  0  0  0
 17 12  2  0  0  0  0
 18 19  1  0  0  0  0
 19 20  2  0  0  0  0
 21 18  1  0  0  0  0
 23 22  1  0  0  0  0
 24 25  1  0  0  0  0
 24 23  1  0  0  0  0
 25 26  1  0  0  0  0
 27 25  2  0  0  0  0
M  END
>  <MODEL>
3

>  <REMARK>
 VINA RESULT:      -6.8      2.095      2.346
  Name = 
  5 active torsions:
  status: ('A' for Active; 'I' for Inactive)
    1  A    between atoms: C_1  and  C_14
    2  A    between atoms: C_1  and  C_18
    3  A    between atoms: C_6  and  C_7
    4  A    between atoms: C_8  and  C_11
    5  A    between atoms: C_11  and  C_14
                            x       y       z     vdW  Elec       q    Type
                         _______ _______ _______ _____ _____    ______ ____

>  <TORSDO>
F 5

$$$$
=
 OpenBabel11042414203D

 27 30  0  0  1  0  0  0  0  0999 V2000
  184.7280  178.4670  147.4730 C   0  0  0  0  0  3  0  0  0  0  0  0
  186.4760  177.9220  145.8010 C   0  0  0  0  0  0  0  0  0  0  0  0
  187.6670  176.8330  143.8840 C   0  0  0  0  0  0  0  0  0  0  0  0
  190.5630  174.1600  142.4370 C   0  0  0  0  0  0  0  0  0  0  0  0
  185.7570  178.1890  142.8700 C   0  0  2  0  0  3  0  0  0  0  0  0
  187.2740  176.2420  141.4630 S   0  0  0  0  0  0  0  0  0  0  0  0
  186.7700  177.0880  142.8470 C   0  0  0  0  0  0  0  0  0  0  0  0
  189.5130  174.6370  141.6300 C   0  0  0  0  0  3  0  0  0  0  0  0
  188.6860  175.9430  143.5100 C   0  0  0  0  0  0  0  0  0  0  0  0
  184.8600  178.1150  144.0210 N   0  0  0  0  0  0  0  0  0  0  0  0
  185.1820  178.0900  145.2820 C   0  0  0  0  0  0  0  0  0  0  0  0
  190.6600  174.5840  143.7800 C   0  0  0  0  0  3  0  0  0  0  0  0
  188.5950  175.5190  142.1940 C   0  0  0  0  0  0  0  0  0  0  0  0
  186.3880  178.2080  147.4510 S   0  0  0  0  0  0  0  0  0  0  0  0
  187.5640  177.3860  145.2420 C   0  0  0  0  0  3  0  0  0  0  0  0
  184.2330  178.3590  146.2200 N   0  0  0  0  0  0  0  0  0  0  0  0
  189.7230  175.4780  144.3230 C   0  0  0  0  0  3  0  0  0  0  0  0
  191.1760  172.2960  140.8630 N   0  0  0  0  0  2  0  0  0  0  0  0
  191.5570  173.2230  141.8830 C   0  0  0  0  0  0  0  0  0  0  0  0
  192.7440  173.2390  142.3070 O   0  0  0  0  0  0  0  0  0  0  0  0
  192.1200  171.3540  140.2860 C   0  0  0  0  0  1  0  0  0  0  0  0
  184.9310  178.2380  141.5910 C   0  0  0  0  0  2  0  0  0  0  0  0
  183.4500  178.1540  141.9140 C   0  0  0  0  0  2  0  0  0  0  0  0
  182.6220  178.2990  140.6480 C   0  0  0  0  0  2  0  0  0  0  0  0
  181.2200  178.6920  140.9750 C   0  0  0  0  0  0  0  0  0  0  0  0
  180.4430  177.8780  141.7890 O   0  0  0  0  0  1  0  0  0  0  0  0
  180.7310  179.7440  140.4880 O   0  0  0  0  0  0  0  0  0  0  0  0
  2 14  1  0  0  0  0
  3 15  1  0  0  0  0
  4 12  1  0  0  0  0
  5 22  1  6  0  0  0
  5 10  1  0  0  0  0
  6 13  1  0  0  0  0
  6  7  1  0  0  0  0
  7  5  1  0  0  0  0
  7  3  2  0  0  0  0
  8 13  1  0  0  0  0
  8  4  2  0  0  0  0
  9  3  1  0  0  0  0
  9 17  1  0  0  0  0
 10 11  2  0  0  0  0
 11  2  1  0  0  0  0
 11 16  1  0  0  0  0
 12 17  2  0  0  0  0
 13  9  2  0  0  0  0
 14  1  1  0  0  0  0
 15  2  2  0  0  0  0
 16  1  2  0  0  0  0
 18 19  1  0  0  0  0
 19 20  2  0  0  0  0
 19  4  1  0  0  0  0
 21 18  1  0  0  0  0
 22 23  1  0  0  0  0
 24 25  1  0  0  0  0
 24 23  1  0  0  0  0
 25 26  1  0  0  0  0
 27 25  2  0  0  0  0
M  END
>  <MODEL>
4

>  <REMARK>
 VINA RESULT:      -6.5      2.690      3.291
  Name = 
  5 active torsions:
  status: ('A' for Active; 'I' for Inactive)
    1  A    between atoms: C_1  and  C_14
    2  A    between atoms: C_1  and  C_18
    3  A    between atoms: C_6  and  C_7
    4  A    between atoms: C_8  and  C_11
    5  A    between atoms: C_11  and  C_14
                            x       y       z     vdW  Elec       q    Type
                         _______ _______ _______ _____ _____    ______ ____

>  <TORSDO>
F 5

$$$$
=
 OpenBabel11042414203D

 27 30  0  0  1  0  0  0  0  0999 V2000
  191.3080  176.5110  147.7720 C   0  0  0  0  0  3  0  0  0  0  0  0
  190.8550  176.3190  145.3420 C   0  0  0  0  0  0  0  0  0  0  0  0
  189.7310  175.7450  143.1760 C   0  0  0  0  0  0  0  0  0  0  0  0
  189.4460  173.3480  139.7410 C   0  0  0  0  0  0  0  0  0  0  0  0
  188.2900  177.5380  144.2840 C   0  0  2  0  0  3  0  0  0  0  0  0
  187.4770  175.9620  142.0640 S   0  0  0  0  0  0  0  0  0  0  0  0
  188.5090  176.3950  143.3430 C   0  0  0  0  0  0  0  0  0  0  0  0
  188.3810  174.1560  140.1830 C   0  0  0  0  0  3  0  0  0  0  0  0
  189.7490  174.9080  142.0500 C   0  0  0  0  0  0  0  0  0  0  0  0
  188.6380  177.2120  145.6650 N   0  0  0  0  0  0  0  0  0  0  0  0
  189.7760  176.7720  146.1180 C   0  0  0  0  0  0  0  0  0  0  0  0
  190.6570  173.3320  140.4660 C   0  0  0  0  0  3  0  0  0  0  0  0
  188.5630  174.9160  141.3350 C   0  0  0  0  0  0  0  0  0  0  0  0
  192.1530  176.0970  146.3800 S   0  0  0  0  0  0  0  0  0  0  0  0
  190.8800  175.8660  144.0860 C   0  0  0  0  0  3  0  0  0  0  0  0
  190.0360  176.8410  147.4530 N   0  0  0  0  0  0  0  0  0  0  0  0
  190.8150  174.1120  141.6230 C   0  0  0  0  0  3  0  0  0  0  0  0
  189.8190  171.1930  138.4980 N   0  0  0  0  0  2  0  0  0  0  0  0
  189.2980  172.5250  138.5280 C   0  0  0  0  0  0  0  0  0  0  0  0
  188.7110  172.9940  137.5150 O   0  0  0  0  0  0  0  0  0  0  0  0
  189.6970  170.3440  137.3260 C   0  0  0  0  0  1  0  0  0  0  0  0
  186.8600  178.0590  144.2340 C   0  0  0  0  0  2  0  0  0  0  0  0
  185.9520  177.1940  145.0890 C   0  0  0  0  0  2  0  0  0  0  0  0
  185.0370  178.0620  145.9370 C   0  0  0  0  0  2  0  0  0  0  0  0
  185.6550  178.3420  147.2650 C   0  0  0  0  0  0  0  0  0  0  0  0
  185.9430  179.6490  147.6350 O   0  0  0  0  0  0  0  0  0  0  0  0
  185.9450  177.3920  148.0390 O   0  0  0  0  0  1  0  0  0  0  0  0
  2 11  1  0  0  0  0
  2 14  1  0  0  0  0
  3  7  2  0  0  0  0
  3 15  1  0  0  0  0
  4  8  2  0  0  0  0
  4 12  1  0  0  0  0
  5 22  1  1  0  0  0
  5 10  1  0  0  0  0
  6  7  1  0  0  0  0
  7  5  1  0  0  0  0
  8 13  1  0  0  0  0
  9  3  1  0  0  0  0
 10 11  2  0  0  0  0
 11 16  1  0  0  0  0
 12 17  2  0  0  0  0
 13  9  2  0  0  0  0
 13  6  1  0  0  0  0
 14  1  1  0  0  0  0
 15  2  2  0  0  0  0
 16  1  2  0  0  0  0
 17  9  1  0  0  0  0
 18 19  1  0  0  0  0
 19  4  1  0  0  0  0
 20 19  2  0  0  0  0
 21 18  1  0  0  0  0
 22 23  1  0  0  0  0
 23 24  1  0  0  0  0
 24 25  1  0  0  0  0
 25 26  2  0  0  0  0
 25 27  1  0  0  0  0
M  END
>  <MODEL>
5

>  <REMARK>
 VINA RESULT:      -6.4      4.293      6.015
  Name = 
  5 active torsions:
  status: ('A' for Active; 'I' for Inactive)
    1  A    between atoms: C_1  and  C_14
    2  A    between atoms: C_1  and  C_18
    3  A    between atoms: C_6  and  C_7
    4  A    between atoms: C_8  and  C_11
    5  A    between atoms: C_11  and  C_14
                            x       y       z     vdW  Elec       q    Type
                         _______ _______ _______ _____ _____    ______ ____

>  <TORSDO>
F 5

$$$$
=
 OpenBabel11042414203D

 27 30  0  0  1  0  0  0  0  0999 V2000
  189.2750  174.1090  141.8620 C   0  0  0  0  0  3  0  0  0  0  0  0
  187.6630  175.9920  141.8700 C   0  0  0  0  0  0  0  0  0  0  0  0
  185.7020  177.4330  142.4700 C   0  0  0  0  0  0  0  0  0  0  0  0
  181.8540  178.8870  141.6270 C   0  0  0  0  0  0  0  0  0  0  0  0
  187.3030  177.5320  144.4550 C   0  0  2  0  0  3  0  0  0  0  0  0
  184.6140  178.4490  144.5060 S   0  0  0  0  0  0  0  0  0  0  0  0
  185.9530  177.6560  143.8230 C   0  0  0  0  0  0  0  0  0  0  0  0
  182.4250  178.9740  142.9110 C   0  0  0  0  0  3  0  0  0  0  0  0
  184.4320  177.8820  142.0740 C   0  0  0  0  0  0  0  0  0  0  0  0
  187.9040  176.2150  144.2590 N   0  0  0  0  0  0  0  0  0  0  0  0
  188.1340  175.6020  143.1340 C   0  0  0  0  0  0  0  0  0  0  0  0
  182.5860  178.2940  140.5760 C   0  0  0  0  0  3  0  0  0  0  0  0
  183.7050  178.4620  143.1010 C   0  0  0  0  0  0  0  0  0  0  0  0
  188.4310  175.0250  140.7360 S   0  0  0  0  0  0  0  0  0  0  0  0
  186.6260  176.7670  141.5400 C   0  0  0  0  0  3  0  0  0  0  0  0
  188.9950  174.5480  143.1100 N   0  0  0  0  0  0  0  0  0  0  0  0
  183.8790  177.7900  140.7940 C   0  0  0  0  0  3  0  0  0  0  0  0
  179.3760  178.8460  142.0590 N   0  0  0  0  0  2  0  0  0  0  0  0
  180.5000  179.4140  141.3810 C   0  0  0  0  0  0  0  0  0  0  0  0
  180.3310  180.3660  140.5720 O   0  0  0  0  0  0  0  0  0  0  0  0
  178.0230  179.3310  141.8490 C   0  0  0  0  0  1  0  0  0  0  0  0
  187.2740  177.8560  145.9430 C   0  0  0  0  0  2  0  0  0  0  0  0
  188.1350  176.8720  146.7150 C   0  0  0  0  0  2  0  0  0  0  0  0
  189.4560  177.5140  147.1040 C   0  0  0  0  0  2  0  0  0  0  0  0
  190.5450  176.4960  147.1540 C   0  0  0  0  0  0  0  0  0  0  0  0
  190.4120  175.3030  146.4560 O   0  0  0  0  0  0  0  0  0  0  0  0
  191.5710  176.7040  147.8520 O   0  0  0  0  0  1  0  0  0  0  0  0
  1 16  2  0  0  0  0
  2 11  1  0  0  0  0
  3  7  2  0  0  0  0
  4  8  1  0  0  0  0
  5 22  1  1  0  0  0
  7  5  1  0  0  0  0
  7  6  1  0  0  0  0
  8 13  2  0  0  0  0
  9  3  1  0  0  0  0
  9 13  1  0  0  0  0
 10  5  1  0  0  0  0
 11 10  2  0  0  0  0
 12 17  1  0  0  0  0
 12  4  2  0  0  0  0
 13  6  1  0  0  0  0
 14  1  1  0  0  0  0
 14  2  1  0  0  0  0
 15  2  2  0  0  0  0
 15  3  1  0  0  0  0
 16 11  1  0  0  0  0
 17  9  2  0  0  0  0
 19  4  1  0  0  0  0
 19 18  1  0  0  0  0
 20 19  2  0  0  0  0
 21 18  1  0  0  0  0
 22 23  1  0  0  0  0
 23 24  1  0  0  0  0
 24 25  1  0  0  0  0
 25 27  1  0  0  0  0
 26 25  2  0  0  0  0
M  END
>  <MODEL>
6

>  <REMARK>
 VINA RESULT:      -6.4      3.108      9.501
  Name = 
  5 active torsions:
  status: ('A' for Active; 'I' for Inactive)
    1  A    between atoms: C_1  and  C_14
    2  A    between atoms: C_1  and  C_18
    3  A    between atoms: C_6  and  C_7
    4  A    between atoms: C_8  and  C_11
    5  A    between atoms: C_11  and  C_14
                            x       y       z     vdW  Elec       q    Type
                         _______ _______ _______ _____ _____    ______ ____

>  <TORSDO>
F 5

$$$$
=
 OpenBabel11042414203D

 27 30  0  0  1  0  0  0  0  0999 V2000
  192.8710  176.4100  146.9980 C   0  0  0  0  0  3  0  0  0  0  0  0
  190.6480  176.0710  145.9550 C   0  0  0  0  0  0  0  0  0  0  0  0
  188.7520  176.1890  144.3200 C   0  0  0  0  0  0  0  0  0  0  0  0
  185.0420  177.7680  143.1480 C   0  0  0  0  0  0  0  0  0  0  0  0
  190.5540  174.7440  143.2320 C   0  0  2  0  0  3  0  0  0  0  0  0
  188.3040  175.8150  141.8660 S   0  0  0  0  0  0  0  0  0  0  0  0
  189.3550  175.6390  143.1900 C   0  0  0  0  0  0  0  0  0  0  0  0
  185.9020  177.1200  142.2410 C   0  0  0  0  0  3  0  0  0  0  0  0
  187.4970  176.7520  144.0430 C   0  0  0  0  0  0  0  0  0  0  0  0
  191.6970  175.3570  143.9040 N   0  0  0  0  0  0  0  0  0  0  0  0
  191.7470  175.8440  145.1100 C   0  0  0  0  0  0  0  0  0  0  0  0
  185.4250  177.9000  144.5000 C   0  0  0  0  0  3  0  0  0  0  0  0
  187.1160  176.6300  142.7170 C   0  0  0  0  0  0  0  0  0  0  0  0
  191.2590  176.4700  147.4650 S   0  0  0  0  0  0  0  0  0  0  0  0
  189.3550  176.2310  145.6610 C   0  0  0  0  0  3  0  0  0  0  0  0
  192.9570  176.0650  145.6940 N   0  0  0  0  0  0  0  0  0  0  0  0
  186.6530  177.3930  144.9550 C   0  0  0  0  0  3  0  0  0  0  0  0
  183.2610  177.9790  141.3840 N   0  0  0  0  0  2  0  0  0  0  0  0
  183.7490  178.3040  142.6890 C   0  0  0  0  0  0  0  0  0  0  0  0
  183.0710  179.0500  143.4470 O   0  0  0  0  0  0  0  0  0  0  0  0
  181.9920  178.4830  140.8880 C   0  0  0  0  0  1  0  0  0  0  0  0
  190.9750  174.2790  141.8450 C   0  0  0  0  0  2  0  0  0  0  0  0
  191.0120  172.7620  141.7850 C   0  0  0  0  0  2  0  0  0  0  0  0
  189.6410  172.2110  141.4310 C   0  0  0  0  0  2  0  0  0  0  0  0
  189.3770  172.3470  139.9690 C   0  0  0  0  0  0  0  0  0  0  0  0
  188.1670  172.8650  139.5280 O   0  0  0  0  0  1  0  0  0  0  0  0
  190.2380  171.9640  139.1350 O   0  0  0  0  0  0  0  0  0  0  0  0
  1 14  1  0  0  0  0
  2 14  1  0  0  0  0
  3 15  1  0  0  0  0
  4 12  1  0  0  0  0
  5 22  1  6  0  0  0
  5 10  1  0  0  0  0
  6 13  1  0  0  0  0
  6  7  1  0  0  0  0
  7  5  1  0  0  0  0
  7  3  2  0  0  0  0
  8 13  1  0  0  0  0
  8  4  2  0  0  0  0
  9  3  1  0  0  0  0
  9 17  1  0  0  0  0
 10 11  2  0  0  0  0
 11 16  1  0  0  0  0
 11  2  1  0  0  0  0
 12 17  2  0  0  0  0
 13  9  2  0  0  0  0
 15  2  2  0  0  0  0
 16  1  2  0  0  0  0
 18 19  1  0  0  0  0
 19  4  1  0  0  0  0
 19 20  2  0  0  0  0
 21 18  1  0  0  0  0
 23 22  1  0  0  0  0
 24 23  1  0  0  0  0
 25 24  1  0  0  0  0
 26 25  1  0  0  0  0
 27 25  2  0  0  0  0
M  END
>  <MODEL>
7

>  <REMARK>
 VINA RESULT:      -6.4      3.247      7.609
  Name = 
  5 active torsions:
  status: ('A' for Active; 'I' for Inactive)
    1  A    between atoms: C_1  and  C_14
    2  A    between atoms: C_1  and  C_18
    3  A    between atoms: C_6  and  C_7
    4  A    between atoms: C_8  and  C_11
    5  A    between atoms: C_11  and  C_14
                            x       y       z     vdW  Elec       q    Type
                         _______ _______ _______ _____ _____    ______ ____

>  <TORSDO>
F 5

$$$$
=
 OpenBabel11042414203D

 27 30  0  0  1  0  0  0  0  0999 V2000
  191.8930  171.2300  143.2620 C   0  0  0  0  0  3  0  0  0  0  0  0
  190.7320  173.4180  143.1590 C   0  0  0  0  0  0  0  0  0  0  0  0
  189.3470  175.4010  143.8150 C   0  0  0  0  0  0  0  0  0  0  0  0
  185.7590  177.5710  143.6030 C   0  0  0  0  0  0  0  0  0  0  0  0
  191.4700  175.5050  145.2290 C   0  0  2  0  0  3  0  0  0  0  0  0
  189.1410  177.0630  145.7020 S   0  0  0  0  0  0  0  0  0  0  0  0
  190.0370  175.8310  144.9470 C   0  0  0  0  0  0  0  0  0  0  0  0
  186.7020  177.7780  144.6280 C   0  0  0  0  0  3  0  0  0  0  0  0
  188.1210  176.0630  143.6440 C   0  0  0  0  0  0  0  0  0  0  0  0
  191.7310  174.0680  145.2560 N   0  0  0  0  0  0  0  0  0  0  0  0
  191.4890  173.1950  144.3210 C   0  0  0  0  0  0  0  0  0  0  0  0
  186.0130  176.6050  142.6060 C   0  0  0  0  0  3  0  0  0  0  0  0
  187.8630  177.0110  144.6220 C   0  0  0  0  0  0  0  0  0  0  0  0
  190.9250  172.0720  142.1780 S   0  0  0  0  0  0  0  0  0  0  0  0
  189.8030  174.3420  142.9020 C   0  0  0  0  0  3  0  0  0  0  0  0
  192.0930  171.9760  144.3710 N   0  0  0  0  0  0  0  0  0  0  0  0
  187.1950  175.8480  142.6210 C   0  0  0  0  0  3  0  0  0  0  0  0
  183.5730  178.1680  142.5120 N   0  0  0  0  0  2  0  0  0  0  0  0
  184.5150  178.3600  143.5710 C   0  0  0  0  0  0  0  0  0  0  0  0
  184.2790  179.2040  144.4780 O   0  0  0  0  0  0  0  0  0  0  0  0
  182.3330  178.9210  142.4380 C   0  0  0  0  0  1  0  0  0  0  0  0
  191.9590  176.1310  146.5280 C   0  0  0  0  0  2  0  0  0  0  0  0
  193.4730  176.2490  146.5210 C   0  0  0  0  0  2  0  0  0  0  0  0
  193.9460  176.9200  145.2430 C   0  0  0  0  0  2  0  0  0  0  0  0
  195.0790  176.1630  144.6360 C   0  0  0  0  0  0  0  0  0  0  0  0
  196.0660  176.8370  143.9300 O   0  0  0  0  0  0  0  0  0  0  0  0
  195.1240  174.9090  144.7360 O   0  0  0  0  0  1  0  0  0  0  0  0
  1 16  2  0  0  0  0
  2 11  1  0  0  0  0
  3  7  2  0  0  0  0
  4  8  1  0  0  0  0
  5 10  1  0  0  0  0
  5 22  1  1  0  0  0
  7  5  1  0  0  0  0
  7  6  1  0  0  0  0
  9  3  1  0  0  0  0
  9 13  1  0  0  0  0
 11 16  1  0  0  0  0
 11 10  2  0  0  0  0
 12 17  1  0  0  0  0
 12  4  2  0  0  0  0
 13  8  2  0  0  0  0
 13  6  1  0  0  0  0
 14  2  1  0  0  0  0
 14  1  1  0  0  0  0
 15  2  2  0  0  0  0
 15  3  1  0  0  0  0
 17  9  2  0  0  0  0
 18 19  1  0  0  0  0
 19  4  1  0  0  0  0
 19 20  2  0  0  0  0
 21 18  1  0  0  0  0
 23 22  1  0  0  0  0
 24 23  1  0  0  0  0
 25 27  1  0  0  0  0
 25 24  1  0  0  0  0
 26 25  2  0  0  0  0
M  END
>  <MODEL>
8

>  <REMARK>
 VINA RESULT:      -6.3      2.615      8.654
  Name = 
  5 active torsions:
  status: ('A' for Active; 'I' for Inactive)
    1  A    between atoms: C_1  and  C_14
    2  A    between atoms: C_1  and  C_18
    3  A    between atoms: C_6  and  C_7
    4  A    between atoms: C_8  and  C_11
    5  A    between atoms: C_11  and  C_14
                            x       y       z     vdW  Elec       q    Type
                         _______ _______ _______ _____ _____    ______ ____

>  <TORSDO>
F 5

$$$$
=
 OpenBabel11042414203D

 27 30  0  0  1  0  0  0  0  0999 V2000
  189.1630  174.3370  141.3670 C   0  0  0  0  0  3  0  0  0  0  0  0
  187.4940  176.1700  141.4320 C   0  0  0  0  0  0  0  0  0  0  0  0
  185.5310  177.5660  142.1220 C   0  0  0  0  0  0  0  0  0  0  0  0
  181.5920  178.8790  141.4950 C   0  0  0  0  0  0  0  0  0  0  0  0
  187.2520  177.7670  143.9960 C   0  0  2  0  0  3  0  0  0  0  0  0
  184.5440  178.6040  144.1990 S   0  0  0  0  0  0  0  0  0  0  0  0
  185.8610  177.8330  143.4500 C   0  0  0  0  0  0  0  0  0  0  0  0
  182.2410  179.0180  142.7370 C   0  0  0  0  0  3  0  0  0  0  0  0
  184.2240  177.9650  141.7980 C   0  0  0  0  0  0  0  0  0  0  0  0
  187.8810  176.4650  143.7940 N   0  0  0  0  0  0  0  0  0  0  0  0
  188.0580  175.8290  142.6720 C   0  0  0  0  0  0  0  0  0  0  0  0
  182.2740  178.2800  140.4140 C   0  0  0  0  0  3  0  0  0  0  0  0
  183.5470  178.5510  142.8550 C   0  0  0  0  0  0  0  0  0  0  0  0
  188.2180  175.1960  140.2750 S   0  0  0  0  0  0  0  0  0  0  0  0
  186.4140  176.9030  141.1510 C   0  0  0  0  0  3  0  0  0  0  0  0
  188.9490  174.8000  142.6190 N   0  0  0  0  0  0  0  0  0  0  0  0
  183.5930  177.8210  140.5600 C   0  0  0  0  0  3  0  0  0  0  0  0
  179.9370  180.4770  140.4770 N   0  0  0  0  0  2  0  0  0  0  0  0
  180.2080  179.3570  141.3240 C   0  0  0  0  0  0  0  0  0  0  0  0
  179.2620  178.7780  141.9240 O   0  0  0  0  0  0  0  0  0  0  0  0
  178.5910  180.9840  140.2770 C   0  0  0  0  0  1  0  0  0  0  0  0
  187.3090  178.1310  145.4730 C   0  0  0  0  0  2  0  0  0  0  0  0
  187.4680  176.8810  146.3200 C   0  0  0  0  0  2  0  0  0  0  0  0
  186.3630  176.8000  147.3600 C   0  0  0  0  0  2  0  0  0  0  0  0
  186.0000  178.1610  147.8540 C   0  0  0  0  0  0  0  0  0  0  0  0
  186.9530  178.9450  148.4900 O   0  0  0  0  0  1  0  0  0  0  0  0
  184.8230  178.5860  147.7210 O   0  0  0  0  0  0  0  0  0  0  0  0
  1 16  2  0  0  0  0
  2 11  1  0  0  0  0
  3  7  2  0  0  0  0
  4  8  1  0  0  0  0
  5 22  1  1  0  0  0
  7  5  1  0  0  0  0
  7  6  1  0  0  0  0
  8 13  2  0  0  0  0
  9  3  1  0  0  0  0
  9 13  1  0  0  0  0
 10  5  1  0  0  0  0
 11 10  2  0  0  0  0
 12 17  1  0  0  0  0
 12  4  2  0  0  0  0
 13  6  1  0  0  0  0
 14  1  1  0  0  0  0
 14  2  1  0  0  0  0
 15  2  2  0  0  0  0
 15  3  1  0  0  0  0
 16 11  1  0  0  0  0
 17  9  2  0  0  0  0
 18 19  1  0  0  0  0
 19  4  1  0  0  0  0
 19 20  2  0  0  0  0
 21 18  1  0  0  0  0
 22 23  1  0  0  0  0
 23 24  1  0  0  0  0
 24 25  1  0  0  0  0
 25 26  1  0  0  0  0
 27 25  2  0  0  0  0
M  END
>  <MODEL>
9

>  <REMARK>
 VINA RESULT:      -6.3      4.168      9.416
  Name = 
  5 active torsions:
  status: ('A' for Active; 'I' for Inactive)
    1  A    between atoms: C_1  and  C_14
    2  A    between atoms: C_1  and  C_18
    3  A    between atoms: C_6  and  C_7
    4  A    between atoms: C_8  and  C_11
    5  A    between atoms: C_11  and  C_14
                            x       y       z     vdW  Elec       q    Type
                         _______ _______ _______ _____ _____    ______ ____

>  <TORSDO>
F 5

$$$$
