=
 OpenBabel11042419343D

 32 36  0  0  1  0  0  0  0  0999 V2000
  185.2530  177.1080  143.0790 C   0  0  0  0  0  2  0  0  0  0  0  0
  190.2840  174.7090  143.1950 C   0  0  1  0  0  3  0  0  0  0  0  0
  187.4270  176.6020  142.1980 C   0  0  0  0  0  0  0  0  0  0  0  0
  188.9510  173.9950  147.5280 O   0  0  0  0  0  0  0  0  0  0  0  0
  193.3220  175.9600  145.0830 C   0  0  1  0  0  3  0  0  0  0  0  0
  188.6000  176.0990  146.5200 C   0  0  0  0  0  0  0  0  0  0  0  0
  189.1290  173.5720  141.4670 C   0  0  0  0  0  2  0  0  0  0  0  0
  187.3510  178.2780  140.4800 O   0  0  0  0  0  0  0  0  0  0  0  0
  186.5260  176.2700  143.3490 C   0  0  1  0  0  3  0  0  0  0  0  0
  187.2220  178.0150  145.0600 C   0  0  0  0  0  3  0  0  0  0  0  0
  190.9720  173.4940  142.9970 O   0  0  0  0  0  0  0  0  0  0  0  0
  188.4990  175.9190  141.7960 C   0  0  0  0  0  3  0  0  0  0  0  0
  193.5470  175.5560  143.6460 C   0  0  0  0  0  3  0  0  0  0  0  0
  194.0570  177.2660  145.3560 C   0  0  0  0  0  1  0  0  0  0  0  0
  191.1670  175.9470  142.9130 C   0  0  2  0  0  3  0  0  0  0  0  0
  191.8360  176.0560  145.4330 C   0  0  2  0  0  3  0  0  0  0  0  0
  185.5790  178.0520  142.0140 N   0  0  0  0  0  2  0  0  0  0  0  0
  186.8430  177.7080  141.4840 C   0  0  0  0  0  0  0  0  0  0  0  0
  192.6230  175.6100  142.6680 C   0  0  0  0  0  0  0  0  0  0  0  0
  190.2770  172.7580  142.0150 C   0  0  1  0  0  3  0  0  0  0  0  0
  190.9690  177.1560  144.2670 S   0  0  0  0  0  0  0  0  0  0  0  0
  187.8740  175.7200  145.3880 C   0  0  0  0  0  3  0  0  0  0  0  0
  188.6030  177.4460  146.9030 C   0  0  0  0  0  3  0  0  0  0  0  0
  190.8040  175.3980  147.5420 N   0  0  0  0  0  2  0  0  0  0  0  0
  187.1770  176.6740  144.6440 C   0  0  0  0  0  0  0  0  0  0  0  0
  189.4330  175.1190  147.2300 C   0  0  0  0  0  0  0  0  0  0  0  0
  191.5810  176.4430  146.8850 C   0  0  0  0  0  2  0  0  0  0  0  0
  187.9130  178.3650  146.1770 N   0  0  0  0  0  0  0  0  0  0  0  0
  192.9940  175.2520  141.4130 F   0  0  0  0  0  0  0  0  0  0  0  0
  188.9460  174.6590  142.4700 C   0  0  2  0  0  3  0  0  0  0  0  0
  190.4940  170.3880  142.1320 O   0  0  0  0  0  1  0  0  0  0  0  0
  189.7530  171.4670  142.6160 C   0  0  0  0  0  2  0  0  0  0  0  0
  2 11  1  6  0  0  0
  3  9  1  0  0  0  0
  5 14  1  6  0  0  0
  5 16  1  0  0  0  0
  6 23  1  0  0  0  0
  6 26  1  0  0  0  0
  7 20  1  0  0  0  0
  8 18  2  0  0  0  0
  9  1  1  6  0  0  0
  9 25  1  0  0  0  0
 10 28  1  0  0  0  0
 12  3  2  0  0  0  0
 12 30  1  0  0  0  0
 13  5  1  0  0  0  0
 15 19  1  1  0  0  0
 15  2  1  0  0  0  0
 15 21  1  0  0  0  0
 16 27  1  1  0  0  0
 17  1  1  0  0  0  0
 18 17  1  0  0  0  0
 18  3  1  0  0  0  0
 19 13  2  0  0  0  0
 20 32  1  1  0  0  0
 20 11  1  0  0  0  0
 21 16  1  0  0  0  0
 22  6  2  0  0  0  0
 25 10  2  0  0  0  0
 25 22  1  0  0  0  0
 26  4  2  0  0  0  0
 26 24  1  0  0  0  0
 27 24  1  0  0  0  0
 28 23  2  0  0  0  0
 29 19  1  0  0  0  0
 30  7  1  6  0  0  0
 30  2  1  0  0  0  0
 31 32  1  0  0  0  0
M  END
>  <MODEL>
1

>  <REMARK>
 VINA RESULT:      -7.6      0.000      0.000
  Name = 
  1 active torsions:
  status: ('A' for Active; 'I' for Inactive)
    1  A    between atoms: C_21  and  C_25
                            x       y       z     vdW  Elec       q    Type
                         _______ _______ _______ _____ _____    ______ ____

>  <TORSDO>
F 1

$$$$
=
 OpenBabel11042419343D

 32 36  0  0  1  0  0  0  0  0999 V2000
  189.7320  177.5080  144.9140 C   0  0  0  0  0  2  0  0  0  0  0  0
  194.3980  174.5620  144.1230 C   0  0  1  0  0  3  0  0  0  0  0  0
  191.7190  176.3720  145.6350 C   0  0  0  0  0  0  0  0  0  0  0  0
  192.4920  174.1830  139.9660 O   0  0  0  0  0  0  0  0  0  0  0  0
  194.6220  170.8180  143.5830 C   0  0  1  0  0  3  0  0  0  0  0  0
  191.1650  173.9150  141.8990 C   0  0  0  0  0  0  0  0  0  0  0  0
  195.1590  176.6970  144.8150 C   0  0  0  0  0  2  0  0  0  0  0  0
  191.1250  176.3690  147.9620 O   0  0  0  0  0  0  0  0  0  0  0  0
  190.9870  176.7700  144.3890 C   0  0  1  0  0  3  0  0  0  0  0  0
  189.5270  174.7300  143.9850 C   0  0  0  0  0  3  0  0  0  0  0  0
  195.7460  174.6490  143.7160 O   0  0  0  0  0  0  0  0  0  0  0  0
  192.9950  175.9960  145.7300 C   0  0  0  0  0  3  0  0  0  0  0  0
  195.5790  171.4070  144.5910 C   0  0  0  0  0  3  0  0  0  0  0  0
  194.0330  169.5310  144.1470 C   0  0  0  0  0  1  0  0  0  0  0  0
  194.1530  173.4140  145.1310 C   0  0  2  0  0  3  0  0  0  0  0  0
  193.5350  171.8100  143.1670 C   0  0  2  0  0  3  0  0  0  0  0  0
  189.6540  177.2530  146.3500 N   0  0  0  0  0  2  0  0  0  0  0  0
  190.8520  176.6220  146.7570 C   0  0  0  0  0  0  0  0  0  0  0  0
  195.3540  172.5120  145.3260 C   0  0  0  0  0  0  0  0  0  0  0  0
  196.2190  175.9330  144.0570 C   0  0  1  0  0  3  0  0  0  0  0  0
  192.6720  172.4720  144.6290 S   0  0  0  0  0  0  0  0  0  0  0  0
  191.4230  175.1220  142.5520 C   0  0  0  0  0  3  0  0  0  0  0  0
  190.0690  173.1450  142.3050 C   0  0  0  0  0  3  0  0  0  0  0  0
  192.5990  172.0710  140.9310 N   0  0  0  0  0  2  0  0  0  0  0  0
  190.6060  175.5430  143.6040 C   0  0  0  0  0  0  0  0  0  0  0  0
  192.0940  173.4110  140.8770 C   0  0  0  0  0  0  0  0  0  0  0  0
  192.5670  171.2470  142.1340 C   0  0  0  0  0  2  0  0  0  0  0  0
  189.2750  173.5690  143.3240 N   0  0  0  0  0  0  0  0  0  0  0  0
  196.2980  172.8910  146.2240 F   0  0  0  0  0  0  0  0  0  0  0  0
  193.9050  175.9400  144.5420 C   0  0  2  0  0  3  0  0  0  0  0  0
  196.8530  175.7880  141.7640 O   0  0  0  0  0  1  0  0  0  0  0  0
  196.5980  176.6900  142.7970 C   0  0  0  0  0  2  0  0  0  0  0  0
  1 17  1  0  0  0  0
  2 11  1  1  0  0  0
  2 30  1  0  0  0  0
  2 15  1  0  0  0  0
  3 12  2  0  0  0  0
  3 18  1  0  0  0  0
  4 26  2  0  0  0  0
  5 14  1  1  0  0  0
  5 13  1  0  0  0  0
  6 23  2  0  0  0  0
  6 22  1  0  0  0  0
  9  1  1  1  0  0  0
  9  3  1  0  0  0  0
 11 20  1  0  0  0  0
 13 19  2  0  0  0  0
 15 21  1  6  0  0  0
 15 19  1  0  0  0  0
 16 27  1  6  0  0  0
 16  5  1  0  0  0  0
 16 21  1  0  0  0  0
 17 18  1  0  0  0  0
 18  8  2  0  0  0  0
 19 29  1  0  0  0  0
 20 32  1  6  0  0  0
 20  7  1  0  0  0  0
 22 25  2  0  0  0  0
 23 28  1  0  0  0  0
 24 27  1  0  0  0  0
 25 10  1  0  0  0  0
 25  9  1  0  0  0  0
 26 24  1  0  0  0  0
 26  6  1  0  0  0  0
 28 10  2  0  0  0  0
 30  7  1  1  0  0  0
 30 12  1  0  0  0  0
 31 32  1  0  0  0  0
M  END
>  <MODEL>
2

>  <REMARK>
 VINA RESULT:      -7.0      3.511      6.192
  Name = 
  1 active torsions:
  status: ('A' for Active; 'I' for Inactive)
    1  A    between atoms: C_21  and  C_25
                            x       y       z     vdW  Elec       q    Type
                         _______ _______ _______ _____ _____    ______ ____

>  <TORSDO>
F 1

$$$$
=
 OpenBabel11042419343D

 32 36  0  0  1  0  0  0  0  0999 V2000
  190.0020  176.7590  144.9560 C   0  0  0  0  0  2  0  0  0  0  0  0
  195.0330  174.4630  144.2530 C   0  0  1  0  0  3  0  0  0  0  0  0
  192.2360  176.2020  145.6300 C   0  0  0  0  0  0  0  0  0  0  0  0
  192.7940  172.5990  140.7060 O   0  0  0  0  0  0  0  0  0  0  0  0
  195.9120  170.8050  144.7070 C   0  0  1  0  0  3  0  0  0  0  0  0
  191.7620  172.7070  142.8260 C   0  0  0  0  0  0  0  0  0  0  0  0
  195.4400  176.7970  144.2170 C   0  0  0  0  0  2  0  0  0  0  0  0
  191.9110  176.7870  147.9360 O   0  0  0  0  0  0  0  0  0  0  0  0
  191.3100  176.1010  144.4560 C   0  0  1  0  0  3  0  0  0  0  0  0
  190.2340  173.8340  144.8500 C   0  0  0  0  0  3  0  0  0  0  0  0
  196.2860  174.6330  143.6290 O   0  0  0  0  0  0  0  0  0  0  0  0
  193.5630  176.0700  145.6180 C   0  0  0  0  0  3  0  0  0  0  0  0
  196.8420  171.8020  145.3550 C   0  0  0  0  0  3  0  0  0  0  0  0
  195.6460  169.6640  145.6810 C   0  0  0  0  0  1  0  0  0  0  0  0
  195.1240  173.6360  145.5560 C   0  0  2  0  0  3  0  0  0  0  0  0
  194.6160  171.4530  144.2180 C   0  0  2  0  0  3  0  0  0  0  0  0
  190.1310  176.9260  146.4010 N   0  0  0  0  0  2  0  0  0  0  0  0
  191.4640  176.6330  146.7660 C   0  0  0  0  0  0  0  0  0  0  0  0
  196.4900  173.0250  145.7930 C   0  0  0  0  0  0  0  0  0  0  0  0
  196.5380  176.0170  143.5330 C   0  0  1  0  0  3  0  0  0  0  0  0
  193.8060  172.3730  145.5670 S   0  0  0  0  0  0  0  0  0  0  0  0
  191.8520  174.0760  143.0820 C   0  0  0  0  0  3  0  0  0  0  0  0
  190.8850  171.9300  143.5920 C   0  0  0  0  0  3  0  0  0  0  0  0
  193.4090  170.9030  142.1720 N   0  0  0  0  0  2  0  0  0  0  0  0
  191.0890  174.6560  144.0980 C   0  0  0  0  0  0  0  0  0  0  0  0
  192.6530  172.0750  141.8430 C   0  0  0  0  0  0  0  0  0  0  0  0
  193.6670  170.4710  143.5420 C   0  0  0  0  0  2  0  0  0  0  0  0
  190.1390  172.5060  144.5720 N   0  0  0  0  0  0  0  0  0  0  0  0
  197.4360  173.7900  146.3950 F   0  0  0  0  0  0  0  0  0  0  0  0
  194.3330  175.8100  144.3600 C   0  0  2  0  0  3  0  0  0  0  0  0
  197.6110  175.6710  141.4330 O   0  0  0  0  0  1  0  0  0  0  0  0
  196.6250  176.4230  142.0720 C   0  0  0  0  0  2  0  0  0  0  0  0
  1 17  1  0  0  0  0
  2 11  1  1  0  0  0
  2 30  1  0  0  0  0
  2 15  1  0  0  0  0
  3 18  1  0  0  0  0
  4 26  2  0  0  0  0
  5 13  1  0  0  0  0
  5 14  1  1  0  0  0
  6 22  2  0  0  0  0
  6 23  1  0  0  0  0
  9  1  1  1  0  0  0
  9  3  1  0  0  0  0
 12  3  2  0  0  0  0
 13 19  2  0  0  0  0
 15 21  1  6  0  0  0
 15 19  1  0  0  0  0
 16 27  1  1  0  0  0
 16  5  1  0  0  0  0
 16 21  1  0  0  0  0
 17 18  1  0  0  0  0
 18  8  2  0  0  0  0
 19 29  1  0  0  0  0
 20 32  1  6  0  0  0
 20 11  1  0  0  0  0
 20  7  1  0  0  0  0
 22 25  1  0  0  0  0
 23 28  2  0  0  0  0
 24 27  1  0  0  0  0
 25  9  1  0  0  0  0
 25 10  2  0  0  0  0
 26 24  1  0  0  0  0
 26  6  1  0  0  0  0
 28 10  1  0  0  0  0
 30  7  1  1  0  0  0
 30 12  1  0  0  0  0
 31 32  1  0  0  0  0
M  END
>  <MODEL>
3

>  <REMARK>
 VINA RESULT:      -7.0      3.887      6.490
  Name = 
  1 active torsions:
  status: ('A' for Active; 'I' for Inactive)
    1  A    between atoms: C_21  and  C_25
                            x       y       z     vdW  Elec       q    Type
                         _______ _______ _______ _____ _____    ______ ____

>  <TORSDO>
F 1

$$$$
=
 OpenBabel11042419343D

 32 36  0  0  1  0  0  0  0  0999 V2000
  189.9470  176.1390  146.7340 C   0  0  0  0  0  2  0  0  0  0  0  0
  192.3190  173.6310  142.3560 C   0  0  1  0  0  3  0  0  0  0  0  0
  190.3650  175.8160  144.3930 C   0  0  0  0  0  0  0  0  0  0  0  0
  194.8070  171.8260  145.7640 O   0  0  0  0  0  0  0  0  0  0  0  0
  195.8290  174.2280  141.0600 C   0  0  1  0  0  3  0  0  0  0  0  0
  194.3160  174.1340  145.7590 C   0  0  0  0  0  0  0  0  0  0  0  0
  190.0300  173.0370  142.2060 C   0  0  0  0  0  2  0  0  0  0  0  0
  189.3680  177.8920  143.7140 O   0  0  0  0  0  0  0  0  0  0  0  0
  190.6820  175.2180  145.7300 C   0  0  1  0  0  3  0  0  0  0  0  0
  192.8420  176.4160  146.3250 C   0  0  0  0  0  3  0  0  0  0  0  0
  192.2620  172.4910  141.5270 O   0  0  0  0  0  0  0  0  0  0  0  0
  190.4930  175.2300  143.2020 C   0  0  0  0  0  3  0  0  0  0  0  0
  194.7280  174.2170  140.0280 C   0  0  0  0  0  3  0  0  0  0  0  0
  196.7730  175.3880  140.7710 C   0  0  0  0  0  1  0  0  0  0  0  0
  192.8930  174.8690  141.6290 C   0  0  2  0  0  3  0  0  0  0  0  0
  195.2850  174.2760  142.4890 C   0  0  2  0  0  3  0  0  0  0  0  0
  189.5180  177.3230  145.9940 N   0  0  0  0  0  2  0  0  0  0  0  0
  189.7360  177.0910  144.6170 C   0  0  0  0  0  0  0  0  0  0  0  0
  193.4460  174.5610  140.2530 C   0  0  0  0  0  0  0  0  0  0  0  0
  190.9180  172.0690  141.4620 C   0  0  1  0  0  3  0  0  0  0  0  0
  194.1370  175.6760  142.6940 S   0  0  0  0  0  0  0  0  0  0  0  0
  192.9220  174.0960  145.6810 C   0  0  0  0  0  3  0  0  0  0  0  0
  194.9410  175.3280  146.1380 C   0  0  0  0  0  3  0  0  0  0  0  0
  196.2040  173.1110  144.4240 N   0  0  0  0  0  2  0  0  0  0  0  0
  192.1680  175.2380  145.9630 C   0  0  0  0  0  0  0  0  0  0  0  0
  195.1140  172.9720  145.3440 C   0  0  0  0  0  0  0  0  0  0  0  0
  196.3770  174.2680  143.5510 C   0  0  0  0  0  2  0  0  0  0  0  0
  194.1980  176.4310  146.4190 N   0  0  0  0  0  0  0  0  0  0  0  0
  192.5810  174.5410  139.2070 F   0  0  0  0  0  0  0  0  0  0  0  0
  190.9770  173.8210  143.0490 C   0  0  2  0  0  3  0  0  0  0  0  0
  190.8160  169.7240  141.0500 O   0  0  0  0  0  1  0  0  0  0  0  0
  190.7870  170.6810  142.0640 C   0  0  0  0  0  2  0  0  0  0  0  0
  2 11  1  6  0  0  0
  2 30  1  0  0  0  0
  3 18  1  0  0  0  0
  3  9  1  0  0  0  0
  5 14  1  6  0  0  0
  5 16  1  0  0  0  0
  6 23  1  0  0  0  0
  8 18  2  0  0  0  0
  9 25  1  0  0  0  0
  9  1  1  1  0  0  0
 10 28  1  0  0  0  0
 12  3  2  0  0  0  0
 13 19  2  0  0  0  0
 13  5  1  0  0  0  0
 15 19  1  6  0  0  0
 15  2  1  0  0  0  0
 15 21  1  0  0  0  0
 16 21  1  0  0  0  0
 16 27  1  1  0  0  0
 17  1  1  0  0  0  0
 18 17  1  0  0  0  0
 20 11  1  0  0  0  0
 20 32  1  1  0  0  0
 20  7  1  0  0  0  0
 22  6  2  0  0  0  0
 22 25  1  0  0  0  0
 23 28  2  0  0  0  0
 24 26  1  0  0  0  0
 25 10  2  0  0  0  0
 26  6  1  0  0  0  0
 26  4  2  0  0  0  0
 27 24  1  0  0  0  0
 29 19  1  0  0  0  0
 30  7  1  6  0  0  0
 30 12  1  0  0  0  0
 31 32  1  0  0  0  0
M  END
>  <MODEL>
4

>  <REMARK>
 VINA RESULT:      -6.8      2.785      4.621
  Name = 
  1 active torsions:
  status: ('A' for Active; 'I' for Inactive)
    1  A    between atoms: C_21  and  C_25
                            x       y       z     vdW  Elec       q    Type
                         _______ _______ _______ _____ _____    ______ ____

>  <TORSDO>
F 1

$$$$
=
 OpenBabel11042419343D

 32 36  0  0  1  0  0  0  0  0999 V2000
  188.3480  174.0370  142.0370 C   0  0  0  0  0  2  0  0  0  0  0  0
  193.6770  173.0230  143.3230 C   0  0  1  0  0  3  0  0  0  0  0  0
  190.6130  173.4240  141.5360 C   0  0  0  0  0  0  0  0  0  0  0  0
  192.2670  174.9840  147.2250 O   0  0  0  0  0  0  0  0  0  0  0  0
  196.3940  175.6150  143.8320 C   0  0  1  0  0  3  0  0  0  0  0  0
  191.6440  175.9140  145.1470 C   0  0  0  0  0  0  0  0  0  0  0  0
  192.7940  170.8990  142.7540 C   0  0  0  0  0  2  0  0  0  0  0  0
  190.3620  173.6240  139.1560 O   0  0  0  0  0  0  0  0  0  0  0  0
  189.7210  173.7540  142.6940 C   0  0  1  0  0  3  0  0  0  0  0  0
  190.0590  176.2640  142.8970 C   0  0  0  0  0  3  0  0  0  0  0  0
  194.5530  172.0710  143.8850 O   0  0  0  0  0  0  0  0  0  0  0  0
  191.7960  172.8090  141.5840 C   0  0  0  0  0  3  0  0  0  0  0  0
  196.7460  174.4420  142.9510 C   0  0  0  0  0  3  0  0  0  0  0  0
  196.9050  176.8970  143.1860 C   0  0  0  0  0  1  0  0  0  0  0  0
  194.3720  173.9270  142.2780 C   0  0  2  0  0  3  0  0  0  0  0  0
  194.8960  175.6860  144.1340 C   0  0  2  0  0  3  0  0  0  0  0  0
  188.5750  174.1440  140.5980 N   0  0  0  0  0  2  0  0  0  0  0  0
  189.9010  173.7390  140.3240 C   0  0  0  0  0  0  0  0  0  0  0  0
  195.8730  173.7340  142.2100 C   0  0  0  0  0  0  0  0  0  0  0  0
  194.0270  170.7890  143.6200 C   0  0  1  0  0  3  0  0  0  0  0  0
  193.9260  175.6700  142.5910 S   0  0  0  0  0  0  0  0  0  0  0  0
  191.0400  174.8080  144.5460 C   0  0  0  0  0  3  0  0  0  0  0  0
  191.4220  177.1860  144.6060 C   0  0  0  0  0  3  0  0  0  0  0  0
  193.8790  176.3440  146.2490 N   0  0  0  0  0  2  0  0  0  0  0  0
  190.2400  174.9710  143.4120 C   0  0  0  0  0  0  0  0  0  0  0  0
  192.5840  175.7310  146.2620 C   0  0  0  0  0  0  0  0  0  0  0  0
  194.5170  176.8510  145.0390 C   0  0  0  0  0  2  0  0  0  0  0  0
  190.6340  177.3340  143.5080 N   0  0  0  0  0  0  0  0  0  0  0  0
  196.3530  172.7300  141.4330 F   0  0  0  0  0  0  0  0  0  0  0  0
  192.4000  172.3320  142.8690 C   0  0  2  0  0  3  0  0  0  0  0  0
  194.5510  170.5220  145.9290 O   0  0  0  0  0  1  0  0  0  0  0  0
  193.6800  170.0970  144.9260 C   0  0  0  0  0  2  0  0  0  0  0  0
  2 11  1  6  0  0  0
  3 12  2  0  0  0  0
  3  9  1  0  0  0  0
  5 14  1  6  0  0  0
  5 16  1  0  0  0  0
  6 26  1  0  0  0  0
  7 30  1  0  0  0  0
  7 20  1  0  0  0  0
  8 18  2  0  0  0  0
  9  1  1  6  0  0  0
  9 25  1  0  0  0  0
 10 25  2  0  0  0  0
 10 28  1  0  0  0  0
 13  5  1  0  0  0  0
 15 19  1  1  0  0  0
 15 21  1  0  0  0  0
 15  2  1  0  0  0  0
 16 27  1  6  0  0  0
 17  1  1  0  0  0  0
 18 17  1  0  0  0  0
 18  3  1  0  0  0  0
 19 13  2  0  0  0  0
 20 11  1  0  0  0  0
 20 32  1  1  0  0  0
 21 16  1  0  0  0  0
 22  6  2  0  0  0  0
 23  6  1  0  0  0  0
 24 26  1  0  0  0  0
 25 22  1  0  0  0  0
 26  4  2  0  0  0  0
 27 24  1  0  0  0  0
 28 23  2  0  0  0  0
 29 19  1  0  0  0  0
 30 12  1  6  0  0  0
 30  2  1  0  0  0  0
 32 31  1  0  0  0  0
M  END
>  <MODEL>
5

>  <REMARK>
 VINA RESULT:      -6.6      3.132      4.122
  Name = 
  1 active torsions:
  status: ('A' for Active; 'I' for Inactive)
    1  A    between atoms: C_21  and  C_25
                            x       y       z     vdW  Elec       q    Type
                         _______ _______ _______ _____ _____    ______ ____

>  <TORSDO>
F 1

$$$$
=
 OpenBabel11042419343D

 32 36  0  0  1  0  0  0  0  0999 V2000
  195.8250  172.7140  143.3550 C   0  0  0  0  0  2  0  0  0  0  0  0
  191.3530  175.7200  144.7870 C   0  0  1  0  0  3  0  0  0  0  0  0
  194.6030  174.7560  143.6680 C   0  0  0  0  0  0  0  0  0  0  0  0
  189.5170  171.5140  144.7430 O   0  0  0  0  0  0  0  0  0  0  0  0
  188.2760  176.3150  142.6570 C   0  0  1  0  0  3  0  0  0  0  0  0
  190.9620  172.1860  143.0030 C   0  0  0  0  0  0  0  0  0  0  0  0
  192.9590  176.2220  146.4540 C   0  0  0  0  0  2  0  0  0  0  0  0
  196.1580  176.1200  142.4490 O   0  0  0  0  0  0  0  0  0  0  0  0
  194.4850  173.2770  143.8860 C   0  0  1  0  0  3  0  0  0  0  0  0
  193.3960  172.5300  141.7160 C   0  0  0  0  0  3  0  0  0  0  0  0
  190.6320  176.2390  145.8820 O   0  0  0  0  0  0  0  0  0  0  0  0
  193.8630  175.7110  144.2330 C   0  0  0  0  0  3  0  0  0  0  0  0
  188.8740  177.5300  143.3230 C   0  0  0  0  0  3  0  0  0  0  0  0
  187.9150  176.6610  141.2180 C   0  0  0  0  0  1  0  0  0  0  0  0
  191.2010  176.5800  143.5110 C   0  0  2  0  0  3  0  0  0  0  0  0
  189.1970  175.0970  142.7380 C   0  0  2  0  0  3  0  0  0  0  0  0
  196.4860  173.7950  142.6270 N   0  0  0  0  0  2  0  0  0  0  0  0
  195.7720  174.9920  142.8610 C   0  0  0  0  0  0  0  0  0  0  0  0
  190.1720  177.6840  143.6430 C   0  0  0  0  0  0  0  0  0  0  0  0
  191.5490  176.4950  146.9220 C   0  0  1  0  0  3  0  0  0  0  0  0
  190.8510  175.4950  142.0840 S   0  0  0  0  0  0  0  0  0  0  0  0
  192.0890  172.5580  143.7390 C   0  0  0  0  0  3  0  0  0  0  0  0
  191.0900  171.9800  141.6240 C   0  0  0  0  0  3  0  0  0  0  0  0
  188.5060  172.7840  143.0800 N   0  0  0  0  0  2  0  0  0  0  0  0
  193.3200  172.7350  143.1020 C   0  0  0  0  0  0  0  0  0  0  0  0
  189.6430  172.1210  143.6470 C   0  0  0  0  0  0  0  0  0  0  0  0
  188.6090  173.8500  142.0890 C   0  0  0  0  0  2  0  0  0  0  0  0
  192.2950  172.1450  141.0160 N   0  0  0  0  0  0  0  0  0  0  0  0
  190.5630  178.8580  144.2010 F   0  0  0  0  0  0  0  0  0  0  0  0
  192.7780  175.4070  145.2200 C   0  0  2  0  0  3  0  0  0  0  0  0
  190.0590  174.8950  147.8690 O   0  0  0  0  0  1  0  0  0  0  0  0
  191.2250  175.6190  148.1190 C   0  0  0  0  0  2  0  0  0  0  0  0
  2 30  1  0  0  0  0
  2 11  1  1  0  0  0
  3  9  1  0  0  0  0
  3 12  2  0  0  0  0
  5 14  1  6  0  0  0
  5 16  1  0  0  0  0
  5 13  1  0  0  0  0
  6 26  1  0  0  0  0
  6 22  1  0  0  0  0
  7 20  1  0  0  0  0
  8 18  2  0  0  0  0
  9  1  1  6  0  0  0
 10 25  1  0  0  0  0
 11 20  1  0  0  0  0
 13 19  2  0  0  0  0
 15 21  1  6  0  0  0
 15 19  1  0  0  0  0
 15  2  1  0  0  0  0
 16 27  1  6  0  0  0
 17 18  1  0  0  0  0
 17  1  1  0  0  0  0
 18  3  1  0  0  0  0
 19 29  1  0  0  0  0
 20 32  1  1  0  0  0
 21 16  1  0  0  0  0
 23  6  2  0  0  0  0
 24 26  1  0  0  0  0
 25 22  2  0  0  0  0
 25  9  1  0  0  0  0
 26  4  2  0  0  0  0
 27 24  1  0  0  0  0
 28 23  1  0  0  0  0
 28 10  2  0  0  0  0
 30 12  1  6  0  0  0
 30  7  1  0  0  0  0
 31 32  1  0  0  0  0
M  END
>  <MODEL>
6

>  <REMARK>
 VINA RESULT:      -6.6      3.121      6.775
  Name = 
  1 active torsions:
  status: ('A' for Active; 'I' for Inactive)
    1  A    between atoms: C_21  and  C_25
                            x       y       z     vdW  Elec       q    Type
                         _______ _______ _______ _____ _____    ______ ____

>  <TORSDO>
F 1

$$$$
=
 OpenBabel11042419343D

 32 36  0  0  1  0  0  0  0  0999 V2000
  188.9500  175.9160  145.3730 C   0  0  0  0  0  2  0  0  0  0  0  0
  192.8240  173.9080  141.9030 C   0  0  1  0  0  3  0  0  0  0  0  0
  190.1440  175.8120  143.2950 C   0  0  0  0  0  0  0  0  0  0  0  0
  194.1690  171.9520  145.8310 O   0  0  0  0  0  0  0  0  0  0  0  0
  196.5090  174.7890  141.9050 C   0  0  1  0  0  3  0  0  0  0  0  0
  193.5330  174.2240  145.8040 C   0  0  0  0  0  0  0  0  0  0  0  0
  190.7660  173.2140  140.9550 C   0  0  0  0  0  2  0  0  0  0  0  0
  189.2750  177.8850  142.4510 O   0  0  0  0  0  0  0  0  0  0  0  0
  190.0440  175.1210  144.6210 C   0  0  1  0  0  3  0  0  0  0  0  0
  191.7860  176.3730  145.9810 C   0  0  0  0  0  3  0  0  0  0  0  0
  193.1320  172.8410  141.0350 O   0  0  0  0  0  0  0  0  0  0  0  0
  190.7050  175.3360  142.1820 C   0  0  0  0  0  3  0  0  0  0  0  0
  195.8170  174.8090  140.5640 C   0  0  0  0  0  3  0  0  0  0  0  0
  197.4050  176.0160  142.0230 C   0  0  0  0  0  1  0  0  0  0  0  0
  193.5110  175.2300  141.4900 C   0  0  2  0  0  3  0  0  0  0  0  0
  195.5190  174.6900  143.0670 C   0  0  2  0  0  3  0  0  0  0  0  0
  188.7020  177.1350  144.6070 N   0  0  0  0  0  2  0  0  0  0  0  0
  189.3810  177.0310  143.3720 C   0  0  0  0  0  0  0  0  0  0  0  0
  194.5110  175.0680  140.3650 C   0  0  0  0  0  0  0  0  0  0  0  0
  191.9230  172.3580  140.4940 C   0  0  1  0  0  3  0  0  0  0  0  0
  194.2650  176.0080  142.9600 S   0  0  0  0  0  0  0  0  0  0  0  0
  192.2520  174.1220  145.2600 C   0  0  0  0  0  3  0  0  0  0  0  0
  193.9050  175.4120  146.4450 C   0  0  0  0  0  3  0  0  0  0  0  0
  195.8290  173.4150  145.1220 N   0  0  0  0  0  2  0  0  0  0  0  0
  191.3630  175.1970  145.3410 C   0  0  0  0  0  0  0  0  0  0  0  0
  194.5100  173.1430  145.6110 C   0  0  0  0  0  0  0  0  0  0  0  0
  196.1940  174.6480  144.4320 C   0  0  0  0  0  2  0  0  0  0  0  0
  193.0290  176.4480  146.5280 N   0  0  0  0  0  0  0  0  0  0  0  0
  194.0470  175.0910  139.0890 F   0  0  0  0  0  0  0  0  0  0  0  0
  191.3180  173.9710  142.1140 C   0  0  2  0  0  3  0  0  0  0  0  0
  190.5590  170.4120  140.3170 O   0  0  0  0  0  1  0  0  0  0  0  0
  191.7040  170.9200  140.9300 C   0  0  0  0  0  2  0  0  0  0  0  0
  2 11  1  6  0  0  0
  2 30  1  0  0  0  0
  3 18  1  0  0  0  0
  3  9  1  0  0  0  0
  5 14  1  1  0  0  0
  5 16  1  0  0  0  0
  6 23  1  0  0  0  0
  8 18  2  0  0  0  0
  9 25  1  0  0  0  0
  9  1  1  1  0  0  0
 10 28  1  0  0  0  0
 12  3  2  0  0  0  0
 13  5  1  0  0  0  0
 15 19  1  6  0  0  0
 15  2  1  0  0  0  0
 15 21  1  0  0  0  0
 16 27  1  1  0  0  0
 17  1  1  0  0  0  0
 18 17  1  0  0  0  0
 19 13  2  0  0  0  0
 20 32  1  1  0  0  0
 20  7  1  0  0  0  0
 20 11  1  0  0  0  0
 21 16  1  0  0  0  0
 22 25  1  0  0  0  0
 22  6  2  0  0  0  0
 23 28  2  0  0  0  0
 24 26  1  0  0  0  0
 25 10  2  0  0  0  0
 26  6  1  0  0  0  0
 26  4  2  0  0  0  0
 27 24  1  0  0  0  0
 29 19  1  0  0  0  0
 30  7  1  6  0  0  0
 30 12  1  0  0  0  0
 31 32  1  0  0  0  0
M  END
>  <MODEL>
7

>  <REMARK>
 VINA RESULT:      -6.5      2.674      4.096
  Name = 
  1 active torsions:
  status: ('A' for Active; 'I' for Inactive)
    1  A    between atoms: C_21  and  C_25
                            x       y       z     vdW  Elec       q    Type
                         _______ _______ _______ _____ _____    ______ ____

>  <TORSDO>
F 1

$$$$
=
 OpenBabel11042419343D

 32 36  0  0  1  0  0  0  0  0999 V2000
  188.8640  173.1200  140.1110 C   0  0  0  0  0  2  0  0  0  0  0  0
  192.9660  172.9810  143.8840 C   0  0  1  0  0  3  0  0  0  0  0  0
  191.1600  173.1230  140.8090 C   0  0  0  0  0  0  0  0  0  0  0  0
  189.3620  173.6790  146.6390 O   0  0  0  0  0  0  0  0  0  0  0  0
  194.2120  175.9030  145.9510 C   0  0  1  0  0  3  0  0  0  0  0  0
  189.5620  174.8990  144.6290 C   0  0  0  0  0  0  0  0  0  0  0  0
  193.1290  170.9020  142.7600 C   0  0  0  0  0  2  0  0  0  0  0  0
  192.0270  173.7930  138.6720 O   0  0  0  0  0  0  0  0  0  0  0  0
  189.7720  172.9900  141.3580 C   0  0  1  0  0  3  0  0  0  0  0  0
  189.2170  175.4050  141.9220 C   0  0  0  0  0  3  0  0  0  0  0  0
  193.7040  172.1320  144.7350 O   0  0  0  0  0  0  0  0  0  0  0  0
  192.2980  172.7740  141.4110 C   0  0  0  0  0  3  0  0  0  0  0  0
  195.2690  175.0570  145.2830 C   0  0  0  0  0  3  0  0  0  0  0  0
  194.5660  177.3740  145.7770 C   0  0  0  0  0  1  0  0  0  0  0  0
  193.7730  174.2210  143.4340 C   0  0  2  0  0  3  0  0  0  0  0  0
  192.8060  175.5890  145.4360 C   0  0  2  0  0  3  0  0  0  0  0  0
  189.7060  173.5910  139.0150 N   0  0  0  0  0  2  0  0  0  0  0  0
  191.0540  173.5440  139.4360 C   0  0  0  0  0  0  0  0  0  0  0  0
  195.1060  174.3660  144.1400 C   0  0  0  0  0  0  0  0  0  0  0  0
  193.7710  170.8620  144.1260 C   0  0  1  0  0  3  0  0  0  0  0  0
  192.7420  175.7170  143.6190 S   0  0  0  0  0  0  0  0  0  0  0  0
  189.6730  173.8540  143.7090 C   0  0  0  0  0  3  0  0  0  0  0  0
  189.2620  176.1840  144.1620 C   0  0  0  0  0  3  0  0  0  0  0  0
  190.7620  175.5290  146.7630 N   0  0  0  0  0  2  0  0  0  0  0  0
  189.5020  174.0960  142.3430 C   0  0  0  0  0  0  0  0  0  0  0  0
  189.8630  174.6720  146.0490 C   0  0  0  0  0  0  0  0  0  0  0  0
  191.7180  176.4160  146.1080 C   0  0  0  0  0  2  0  0  0  0  0  0
  189.0880  176.4070  142.8330 N   0  0  0  0  0  0  0  0  0  0  0  0
  196.1700  173.6860  143.6420 F   0  0  0  0  0  0  0  0  0  0  0  0
  192.3270  172.1570  142.7760 C   0  0  2  0  0  3  0  0  0  0  0  0
  192.6930  168.7390  144.2230 O   0  0  0  0  0  1  0  0  0  0  0  0
  193.0660  169.8380  144.9970 C   0  0  0  0  0  2  0  0  0  0  0  0
  2 11  1  6  0  0  0
  3  9  1  0  0  0  0
  3 12  2  0  0  0  0
  5 14  1  6  0  0  0
  6 26  1  0  0  0  0
  7 30  1  0  0  0  0
  7 20  1  0  0  0  0
  8 18  2  0  0  0  0
  9  1  1  6  0  0  0
  9 25  1  0  0  0  0
 10 25  2  0  0  0  0
 10 28  1  0  0  0  0
 13  5  1  0  0  0  0
 15 21  1  1  0  0  0
 15  2  1  0  0  0  0
 15 19  1  0  0  0  0
 16  5  1  0  0  0  0
 16 27  1  1  0  0  0
 17 18  1  0  0  0  0
 17  1  1  0  0  0  0
 18  3  1  0  0  0  0
 19 13  2  0  0  0  0
 20 11  1  0  0  0  0
 20 32  1  1  0  0  0
 21 16  1  0  0  0  0
 22  6  2  0  0  0  0
 23  6  1  0  0  0  0
 25 22  1  0  0  0  0
 26  4  2  0  0  0  0
 26 24  1  0  0  0  0
 27 24  1  0  0  0  0
 28 23  2  0  0  0  0
 29 19  1  0  0  0  0
 30 12  1  6  0  0  0
 30  2  1  0  0  0  0
 31 32  1  0  0  0  0
M  END
>  <MODEL>
8

>  <REMARK>
 VINA RESULT:      -6.5      2.708      3.947
  Name = 
  1 active torsions:
  status: ('A' for Active; 'I' for Inactive)
    1  A    between atoms: C_21  and  C_25
                            x       y       z     vdW  Elec       q    Type
                         _______ _______ _______ _____ _____    ______ ____

>  <TORSDO>
F 1

$$$$
=
 OpenBabel11042419343D

 32 36  0  0  1  0  0  0  0  0999 V2000
  197.4160  169.9470  145.3880 C   0  0  0  0  0  2  0  0  0  0  0  0
  192.6590  172.0030  143.3320 C   0  0  1  0  0  3  0  0  0  0  0  0
  195.0300  170.1870  145.2870 C   0  0  0  0  0  0  0  0  0  0  0  0
  195.6870  174.7680  141.2720 O   0  0  0  0  0  0  0  0  0  0  0  0
  191.1600  175.3950  144.1090 C   0  0  1  0  0  3  0  0  0  0  0  0
  195.9320  174.2510  143.5610 C   0  0  0  0  0  0  0  0  0  0  0  0
  192.6290  169.7160  142.7120 C   0  0  0  0  0  2  0  0  0  0  0  0
  194.6230  169.1170  147.3970 O   0  0  0  0  0  0  0  0  0  0  0  0
  196.2790  170.6130  144.5750 C   0  0  1  0  0  3  0  0  0  0  0  0
  196.8150  172.7980  145.7540 C   0  0  0  0  0  3  0  0  0  0  0  0
  191.7350  171.8960  142.2720 O   0  0  0  0  0  0  0  0  0  0  0  0
  193.7830  170.2290  144.8140 C   0  0  0  0  0  3  0  0  0  0  0  0
  190.2180  174.2180  144.1720 C   0  0  0  0  0  3  0  0  0  0  0  0
  190.9080  176.3010  145.3090 C   0  0  0  0  0  1  0  0  0  0  0  0
  192.0070  172.5050  144.6420 C   0  0  2  0  0  3  0  0  0  0  0  0
  192.6250  174.9630  144.0180 C   0  0  2  0  0  3  0  0  0  0  0  0
  196.8220  169.4490  146.6260 N   0  0  0  0  0  2  0  0  0  0  0  0
  195.4170  169.5620  146.5250 C   0  0  0  0  0  0  0  0  0  0  0  0
  190.5700  172.9540  144.4710 C   0  0  0  0  0  0  0  0  0  0  0  0
  191.7330  170.5560  141.8320 C   0  0  1  0  0  3  0  0  0  0  0  0
  193.0450  173.8180  145.3720 S   0  0  0  0  0  0  0  0  0  0  0  0
  195.9570  172.8560  143.5050 C   0  0  0  0  0  3  0  0  0  0  0  0
  196.3700  174.8900  144.7270 C   0  0  0  0  0  3  0  0  0  0  0  0
  194.3690  176.0420  142.7000 N   0  0  0  0  0  2  0  0  0  0  0  0
  196.3990  172.1130  144.6020 C   0  0  0  0  0  0  0  0  0  0  0  0
  195.3520  175.0280  142.4570 C   0  0  0  0  0  0  0  0  0  0  0  0
  193.5960  176.1340  143.9340 C   0  0  0  0  0  2  0  0  0  0  0  0
  196.8080  174.1580  145.7860 N   0  0  0  0  0  0  0  0  0  0  0  0
  189.5950  172.0110  144.5290 F   0  0  0  0  0  0  0  0  0  0  0  0
  193.4650  170.7160  143.4340 C   0  0  2  0  0  3  0  0  0  0  0  0
  191.4710  171.3690  139.6080 O   0  0  0  0  0  1  0  0  0  0  0  0
  192.2130  170.4870  140.3940 C   0  0  0  0  0  2  0  0  0  0  0  0
  1 17  1  0  0  0  0
  2 11  1  6  0  0  0
  2 30  1  0  0  0  0
  2 15  1  0  0  0  0
  3 18  1  0  0  0  0
  4 26  2  0  0  0  0
  5 13  1  0  0  0  0
  5 14  1  1  0  0  0
  6 23  1  0  0  0  0
  9 25  1  0  0  0  0
  9  3  1  0  0  0  0
  9  1  1  1  0  0  0
 10 28  1  0  0  0  0
 12  3  2  0  0  0  0
 13 19  2  0  0  0  0
 15 19  1  6  0  0  0
 15 21  1  0  0  0  0
 16 27  1  1  0  0  0
 16  5  1  0  0  0  0
 16 21  1  0  0  0  0
 18 17  1  0  0  0  0
 18  8  2  0  0  0  0
 19 29  1  0  0  0  0
 20 32  1  6  0  0  0
 20 11  1  0  0  0  0
 20  7  1  0  0  0  0
 22  6  2  0  0  0  0
 22 25  1  0  0  0  0
 23 28  2  0  0  0  0
 24 27  1  0  0  0  0
 25 10  2  0  0  0  0
 26 24  1  0  0  0  0
 26  6  1  0  0  0  0
 30  7  1  1  0  0  0
 30 12  1  0  0  0  0
 31 32  1  0  0  0  0
M  END
>  <MODEL>
9

>  <REMARK>
 VINA RESULT:      -6.4      4.400      7.972
  Name = 
  1 active torsions:
  status: ('A' for Active; 'I' for Inactive)
    1  A    between atoms: C_21  and  C_25
                            x       y       z     vdW  Elec       q    Type
                         _______ _______ _______ _____ _____    ______ ____

>  <TORSDO>
F 1

$$$$
