=
 OpenBabel11042417223D

 26 28  0  0  1  0  0  0  0  0999 V2000
  186.8460  177.7570  145.8870 C   0  0  0  0  0  3  0  0  0  0  0  0
  184.1150  178.5430  145.9740 C   0  0  0  0  0  3  0  0  0  0  0  0
  184.7820  178.3550  144.7660 C   0  0  0  0  0  0  0  0  0  0  0  0
  186.6360  177.3930  140.6530 C   0  0  0  0  0  3  0  0  0  0  0  0
  186.1150  177.9720  144.7190 C   0  0  0  0  0  0  0  0  0  0  0  0
  187.7410  177.1000  142.8760 C   0  0  2  0  0  3  0  0  0  0  0  0
  184.8400  178.3390  147.1610 C   0  0  0  0  0  3  0  0  0  0  0  0
  187.7240  177.0530  141.3640 C   0  0  0  0  0  3  0  0  0  0  0  0
  184.2940  178.4440  143.3950 C   0  0  0  0  0  0  0  0  0  0  0  0
  186.5770  177.8310  143.3730 N   0  0  0  0  0  0  0  0  0  0  0  0
  183.1280  178.7240  143.0150 O   0  0  0  0  0  0  0  0  0  0  0  0
  185.4340  178.0820  142.5670 C   0  0  0  0  0  0  0  0  0  0  0  0
  186.1950  177.9490  147.1180 C   0  0  0  0  0  3  0  0  0  0  0  0
  185.4350  177.8640  141.2900 N   0  0  0  0  0  0  0  0  0  0  0  0
  188.9610  177.7460  143.3300 N   0  0  0  0  0  2  0  0  0  0  0  0
  190.0650  176.8820  142.9440 C   0  0  0  0  0  2  0  0  0  0  0  0
  190.6780  176.2430  144.1760 C   0  0  0  0  0  2  0  0  0  0  0  0
  190.5330  177.1670  145.3720 C   0  0  0  0  0  2  0  0  0  0  0  0
  190.4860  176.3660  146.6630 C   0  0  1  0  0  3  0  0  0  0  0  0
  189.2010  174.6300  147.1520 C   0  0  0  0  0  1  0  0  0  0  0  0
  190.2950  175.0130  146.3750 O   0  0  0  0  0  0  0  0  0  0  0  0
  191.7940  176.5400  147.4220 C   0  0  0  0  0  2  0  0  0  0  0  0
  194.1180  176.1000  146.5170 C   0  0  0  0  0  0  0  0  0  0  0  0
  192.8170  175.6460  146.8950 N   0  0  0  0  0  2  0  0  0  0  0  0
  195.0590  175.1740  145.9870 N   0  0  0  0  0  1  0  0  0  0  0  0
  194.4400  177.3100  146.6510 O   0  0  0  0  0  0  0  0  0  0  0  0
  1 13  1  0  0  0  0
  2  7  1  0  0  0  0
  3  2  2  0  0  0  0
  4 14  1  0  0  0  0
  4  8  2  0  0  0  0
  5  3  1  0  0  0  0
  5  1  2  0  0  0  0
  6 15  1  6  0  0  0
  6 10  1  0  0  0  0
  8  6  1  0  0  0  0
  9  3  1  0  0  0  0
 10  5  1  0  0  0  0
 11  9  2  0  0  0  0
 12 10  1  0  0  0  0
 12  9  1  0  0  0  0
 13  7  2  0  0  0  0
 14 12  2  0  0  0  0
 16 15  1  0  0  0  0
 16 17  1  0  0  0  0
 17 18  1  0  0  0  0
 19 18  1  6  0  0  0
 19 22  1  0  0  0  0
 21 19  1  0  0  0  0
 21 20  1  0  0  0  0
 23 26  2  0  0  0  0
 23 24  1  0  0  0  0
 24 22  1  0  0  0  0
 25 23  1  0  0  0  0
M  END
>  <MODEL>
1

>  <REMARK>
 VINA RESULT:      -6.8      0.000      0.000
  Name = 
  8 active torsions:
  status: ('A' for Active; 'I' for Inactive)
    1  A    between atoms: C_2  and  C_12
    2  A    between atoms: C_2  and  O_20
    3  A    between atoms: C_2  and  C_26
    4  A    between atoms: N_7  and  C_11
    5  A    between atoms: N_7  and  C_15
    6  A    between atoms: N_9  and  C_12
    7  A    between atoms: C_15  and  C_16
    8  A    between atoms: C_16  and  C_26
                            x       y       z     vdW  Elec       q    Type
                         _______ _______ _______ _____ _____    ______ ____

>  <TORSDO>
F 8

$$$$
=
 OpenBabel11042417223D

 26 28  0  0  1  0  0  0  0  0999 V2000
  186.8210  177.8050  146.2850 C   0  0  0  0  0  3  0  0  0  0  0  0
  184.0700  178.4950  146.1000 C   0  0  0  0  0  3  0  0  0  0  0  0
  184.8640  178.3510  144.9650 C   0  0  0  0  0  0  0  0  0  0  0  0
  187.1640  177.5260  141.0530 C   0  0  0  0  0  3  0  0  0  0  0  0
  186.2080  178.0160  145.0510 C   0  0  0  0  0  0  0  0  0  0  0  0
  188.0450  177.2320  143.3750 C   0  0  2  0  0  3  0  0  0  0  0  0
  184.6760  178.2960  147.3530 C   0  0  0  0  0  3  0  0  0  0  0  0
  188.1850  177.2110  141.8690 C   0  0  0  0  0  3  0  0  0  0  0  0
  184.5170  178.4470  143.5530 C   0  0  0  0  0  0  0  0  0  0  0  0
  186.8110  177.9140  143.7590 N   0  0  0  0  0  0  0  0  0  0  0  0
  183.3870  178.6940  143.0580 O   0  0  0  0  0  0  0  0  0  0  0  0
  185.7480  178.1400  142.8420 C   0  0  0  0  0  0  0  0  0  0  0  0
  186.0410  177.9530  147.4450 C   0  0  0  0  0  3  0  0  0  0  0  0
  185.8880  177.9440  141.5690 N   0  0  0  0  0  0  0  0  0  0  0  0
  189.1880  177.9120  143.9610 N   0  0  0  0  0  2  0  0  0  0  0  0
  190.2420  177.9040  142.9600 C   0  0  0  0  0  2  0  0  0  0  0  0
  191.5980  177.8090  143.6360 C   0  0  0  0  0  2  0  0  0  0  0  0
  192.2360  176.4630  143.3420 C   0  0  0  0  0  2  0  0  0  0  0  0
  193.0460  175.9840  144.5360 C   0  0  1  0  0  3  0  0  0  0  0  0
  194.5600  177.0180  145.7780 C   0  0  0  0  0  1  0  0  0  0  0  0
  194.3290  176.5350  144.4890 O   0  0  0  0  0  0  0  0  0  0  0  0
  192.3600  176.4130  145.8260 C   0  0  0  0  0  2  0  0  0  0  0  0
  190.1520  175.8800  146.9460 C   0  0  0  0  0  0  0  0  0  0  0  0
  191.2860  175.4910  146.1680 N   0  0  0  0  0  2  0  0  0  0  0  0
  189.1520  174.9190  147.2620 N   0  0  0  0  0  1  0  0  0  0  0  0
  190.0300  177.0660  147.3530 O   0  0  0  0  0  0  0  0  0  0  0  0
  1 13  1  0  0  0  0
  2  7  1  0  0  0  0
  3  5  1  0  0  0  0
  3  2  2  0  0  0  0
  4 14  1  0  0  0  0
  4  8  2  0  0  0  0
  5  1  2  0  0  0  0
  6 10  1  0  0  0  0
  6 15  1  1  0  0  0
  7 13  2  0  0  0  0
  8  6  1  0  0  0  0
  9  3  1  0  0  0  0
 10  5  1  0  0  0  0
 11  9  2  0  0  0  0
 12  9  1  0  0  0  0
 12 10  1  0  0  0  0
 14 12  2  0  0  0  0
 16 17  1  0  0  0  0
 16 15  1  0  0  0  0
 18 17  1  0  0  0  0
 19 18  1  6  0  0  0
 19 22  1  0  0  0  0
 21 19  1  0  0  0  0
 21 20  1  0  0  0  0
 22 24  1  0  0  0  0
 23 25  1  0  0  0  0
 23 26  2  0  0  0  0
 24 23  1  0  0  0  0
M  END
>  <MODEL>
2

>  <REMARK>
 VINA RESULT:      -6.7      1.366      2.507
  Name = 
  8 active torsions:
  status: ('A' for Active; 'I' for Inactive)
    1  A    between atoms: C_2  and  C_12
    2  A    between atoms: C_2  and  O_20
    3  A    between atoms: C_2  and  C_26
    4  A    between atoms: N_7  and  C_11
    5  A    between atoms: N_7  and  C_15
    6  A    between atoms: N_9  and  C_12
    7  A    between atoms: C_15  and  C_16
    8  A    between atoms: C_16  and  C_26
                            x       y       z     vdW  Elec       q    Type
                         _______ _______ _______ _____ _____    ______ ____

>  <TORSDO>
F 8

$$$$
=
 OpenBabel11042417223D

 26 28  0  0  1  0  0  0  0  0999 V2000
  187.2150  177.2460  142.1900 C   0  0  0  0  0  3  0  0  0  0  0  0
  184.9230  178.0860  140.7330 C   0  0  0  0  0  3  0  0  0  0  0  0
  184.9330  178.0580  142.1250 C   0  0  0  0  0  0  0  0  0  0  0  0
  184.8520  178.4590  146.7200 C   0  0  0  0  0  3  0  0  0  0  0  0
  186.0490  177.6480  142.8400 C   0  0  0  0  0  0  0  0  0  0  0  0
  186.8100  177.7550  145.3320 C   0  0  2  0  0  3  0  0  0  0  0  0
  186.0870  177.6740  140.0620 C   0  0  0  0  0  3  0  0  0  0  0  0
  186.1250  178.0330  146.6520 C   0  0  0  0  0  3  0  0  0  0  0  0
  183.9120  178.4620  143.0830 C   0  0  0  0  0  0  0  0  0  0  0  0
  185.8270  177.7160  144.2510 N   0  0  0  0  0  0  0  0  0  0  0  0
  182.7700  178.9290  142.8340 O   0  0  0  0  0  0  0  0  0  0  0  0
  184.5200  178.2600  144.3890 C   0  0  0  0  0  0  0  0  0  0  0  0
  187.2250  177.2580  140.7850 C   0  0  0  0  0  3  0  0  0  0  0  0
  184.0520  178.6340  145.5370 N   0  0  0  0  0  0  0  0  0  0  0  0
  187.5120  176.4850  145.4070 N   0  0  0  0  0  2  0  0  0  0  0  0
  187.7240  176.2020  146.8170 C   0  0  0  0  0  2  0  0  0  0  0  0
  189.0110  175.4190  147.0000 C   0  0  0  0  0  2  0  0  0  0  0  0
  189.5900  175.0400  145.6490 C   0  0  0  0  0  2  0  0  0  0  0  0
  190.9890  175.6120  145.4870 C   0  0  1  0  0  3  0  0  0  0  0  0
  191.5850  177.2510  144.1220 C   0  0  0  0  0  1  0  0  0  0  0  0
  190.9190  176.9970  145.3220 O   0  0  0  0  0  0  0  0  0  0  0  0
  191.8180  175.2940  146.7240 C   0  0  0  0  0  2  0  0  0  0  0  0
  194.3010  175.6110  146.3400 C   0  0  0  0  0  0  0  0  0  0  0  0
  193.1320  174.7900  146.3470 N   0  0  0  0  0  2  0  0  0  0  0  0
  195.5480  175.0580  145.9370 N   0  0  0  0  0  1  0  0  0  0  0  0
  194.2390  176.8200  146.6890 O   0  0  0  0  0  0  0  0  0  0  0  0
  1  5  1  0  0  0  0
  2  3  1  0  0  0  0
  3  5  2  0  0  0  0
  3  9  1  0  0  0  0
  5 10  1  0  0  0  0
  6 15  1  1  0  0  0
  6  8  1  0  0  0  0
  7  2  2  0  0  0  0
  7 13  1  0  0  0  0
  8  4  2  0  0  0  0
  9 12  1  0  0  0  0
 10 12  1  0  0  0  0
 10  6  1  0  0  0  0
 11  9  2  0  0  0  0
 12 14  2  0  0  0  0
 13  1  2  0  0  0  0
 14  4  1  0  0  0  0
 15 16  1  0  0  0  0
 16 17  1  0  0  0  0
 18 17  1  0  0  0  0
 19 18  1  1  0  0  0
 19 22  1  0  0  0  0
 20 21  1  0  0  0  0
 21 19  1  0  0  0  0
 23 24  1  0  0  0  0
 23 26  2  0  0  0  0
 24 22  1  0  0  0  0
 25 23  1  0  0  0  0
M  END
>  <MODEL>
3

>  <REMARK>
 VINA RESULT:      -6.6      1.366      3.578
  Name = 
  8 active torsions:
  status: ('A' for Active; 'I' for Inactive)
    1  A    between atoms: C_2  and  C_12
    2  A    between atoms: C_2  and  O_20
    3  A    between atoms: C_2  and  C_26
    4  A    between atoms: N_7  and  C_11
    5  A    between atoms: N_7  and  C_15
    6  A    between atoms: N_9  and  C_12
    7  A    between atoms: C_15  and  C_16
    8  A    between atoms: C_16  and  C_26
                            x       y       z     vdW  Elec       q    Type
                         _______ _______ _______ _____ _____    ______ ____

>  <TORSDO>
F 8

$$$$
=
 OpenBabel11042417223D

 26 28  0  0  1  0  0  0  0  0999 V2000
  186.7820  177.9580  146.6800 C   0  0  0  0  0  3  0  0  0  0  0  0
  184.1020  178.5320  145.9240 C   0  0  0  0  0  3  0  0  0  0  0  0
  185.1160  178.4080  144.9780 C   0  0  0  0  0  0  0  0  0  0  0  0
  188.1960  177.6310  141.6330 C   0  0  0  0  0  3  0  0  0  0  0  0
  186.4260  178.1280  145.3420 C   0  0  0  0  0  0  0  0  0  0  0  0
  188.5950  177.4010  144.0910 C   0  0  2  0  0  3  0  0  0  0  0  0
  184.4460  178.3730  147.2780 C   0  0  0  0  0  3  0  0  0  0  0  0
  189.0400  177.3680  142.6460 C   0  0  0  0  0  3  0  0  0  0  0  0
  185.0610  178.4730  143.5230 C   0  0  0  0  0  0  0  0  0  0  0  0
  187.2830  178.0360  144.2020 N   0  0  0  0  0  0  0  0  0  0  0  0
  184.0480  178.6680  142.8030 O   0  0  0  0  0  0  0  0  0  0  0  0
  186.4220  178.2080  143.0830 C   0  0  0  0  0  0  0  0  0  0  0  0
  185.7760  178.0870  147.6520 C   0  0  0  0  0  3  0  0  0  0  0  0
  186.8260  178.0030  141.8700 N   0  0  0  0  0  0  0  0  0  0  0  0
  189.5680  178.1340  144.8840 N   0  0  0  0  0  2  0  0  0  0  0  0
  190.5780  177.1760  145.3030 C   0  0  0  0  0  2  0  0  0  0  0  0
  190.2570  176.6580  146.6920 C   0  0  0  0  0  2  0  0  0  0  0  0
  191.5290  176.2140  147.3920 C   0  0  0  0  0  2  0  0  0  0  0  0
  192.6540  176.0270  146.3860 C   0  0  1  0  0  3  0  0  0  0  0  0
  194.4500  177.1680  145.7740 C   0  0  0  0  0  1  0  0  0  0  0  0
  193.8320  176.5890  146.8830 O   0  0  0  0  0  0  0  0  0  0  0  0
  192.8720  174.5410  146.1330 C   0  0  0  0  0  2  0  0  0  0  0  0
  191.3160  173.6400  144.3490 C   0  0  0  0  0  0  0  0  0  0  0  0
  192.5670  174.2050  144.7490 N   0  0  0  0  0  2  0  0  0  0  0  0
  191.0960  173.3150  142.9820 N   0  0  0  0  0  1  0  0  0  0  0  0
  190.4080  173.4290  145.1950 O   0  0  0  0  0  0  0  0  0  0  0  0
  1 13  1  0  0  0  0
  2  7  1  0  0  0  0
  3  5  1  0  0  0  0
  3  2  2  0  0  0  0
  4 14  1  0  0  0  0
  4  8  2  0  0  0  0
  5  1  2  0  0  0  0
  6 10  1  0  0  0  0
  6 15  1  1  0  0  0
  7 13  2  0  0  0  0
  8  6  1  0  0  0  0
  9  3  1  0  0  0  0
 10  5  1  0  0  0  0
 11  9  2  0  0  0  0
 12  9  1  0  0  0  0
 12 10  1  0  0  0  0
 14 12  2  0  0  0  0
 15 16  1  0  0  0  0
 16 17  1  0  0  0  0
 17 18  1  0  0  0  0
 19 22  1  1  0  0  0
 19 21  1  0  0  0  0
 19 18  1  0  0  0  0
 20 21  1  0  0  0  0
 23 24  1  0  0  0  0
 23 26  2  0  0  0  0
 24 22  1  0  0  0  0
 25 23  1  0  0  0  0
M  END
>  <MODEL>
4

>  <REMARK>
 VINA RESULT:      -6.5      1.596      2.695
  Name = 
  8 active torsions:
  status: ('A' for Active; 'I' for Inactive)
    1  A    between atoms: C_2  and  C_12
    2  A    between atoms: C_2  and  O_20
    3  A    between atoms: C_2  and  C_26
    4  A    between atoms: N_7  and  C_11
    5  A    between atoms: N_7  and  C_15
    6  A    between atoms: N_9  and  C_12
    7  A    between atoms: C_15  and  C_16
    8  A    between atoms: C_16  and  C_26
                            x       y       z     vdW  Elec       q    Type
                         _______ _______ _______ _____ _____    ______ ____

>  <TORSDO>
F 8

$$$$
=
 OpenBabel11042417223D

 26 28  0  0  1  0  0  0  0  0999 V2000
  186.8210  177.8750  146.5040 C   0  0  0  0  0  3  0  0  0  0  0  0
  184.0950  178.4820  145.9750 C   0  0  0  0  0  3  0  0  0  0  0  0
  185.0070  178.2670  144.9450 C   0  0  0  0  0  0  0  0  0  0  0  0
  187.7240  177.1870  141.3770 C   0  0  0  0  0  3  0  0  0  0  0  0
  186.3390  177.9720  145.1990 C   0  0  0  0  0  0  0  0  0  0  0  0
  188.3560  177.1000  143.7950 C   0  0  2  0  0  3  0  0  0  0  0  0
  184.5670  178.3980  147.2960 C   0  0  0  0  0  3  0  0  0  0  0  0
  188.6560  176.9620  142.3180 C   0  0  0  0  0  3  0  0  0  0  0  0
  184.8110  178.2420  143.5010 C   0  0  0  0  0  0  0  0  0  0  0  0
  187.0780  177.7810  143.9900 N   0  0  0  0  0  0  0  0  0  0  0  0
  183.7370  178.4220  142.8710 O   0  0  0  0  0  0  0  0  0  0  0  0
  186.1160  177.9080  142.9510 C   0  0  0  0  0  0  0  0  0  0  0  0
  185.9190  178.0960  147.5590 C   0  0  0  0  0  3  0  0  0  0  0  0
  186.3930  177.6140  141.7200 N   0  0  0  0  0  0  0  0  0  0  0  0
  189.4200  177.8510  144.4390 N   0  0  0  0  0  2  0  0  0  0  0  0
  190.6630  177.4610  143.7960 C   0  0  0  0  0  2  0  0  0  0  0  0
  191.5920  176.8170  144.8090 C   0  0  0  0  0  2  0  0  0  0  0  0
  191.6460  175.3160  144.5880 C   0  0  0  0  0  2  0  0  0  0  0  0
  191.0010  174.5820  145.7530 C   0  0  1  0  0  3  0  0  0  0  0  0
  189.4260  175.0480  147.2380 C   0  0  0  0  0  1  0  0  0  0  0  0
  190.6570  175.4920  146.7550 O   0  0  0  0  0  0  0  0  0  0  0  0
  189.7470  173.8630  145.2730 C   0  0  0  0  0  2  0  0  0  0  0  0
  189.6260  172.4600  143.1690 C   0  0  0  0  0  0  0  0  0  0  0  0
  190.0970  172.6800  144.5000 N   0  0  0  0  0  2  0  0  0  0  0  0
  189.9890  171.2690  142.4810 N   0  0  0  0  0  1  0  0  0  0  0  0
  188.8940  173.3110  142.5980 O   0  0  0  0  0  0  0  0  0  0  0  0
  1 13  1  0  0  0  0
  2  7  1  0  0  0  0
  3  5  1  0  0  0  0
  3  2  2  0  0  0  0
  4 14  1  0  0  0  0
  4  8  2  0  0  0  0
  5  1  2  0  0  0  0
  6 10  1  0  0  0  0
  6 15  1  1  0  0  0
  7 13  2  0  0  0  0
  8  6  1  0  0  0  0
  9  3  1  0  0  0  0
 10  5  1  0  0  0  0
 11  9  2  0  0  0  0
 12  9  1  0  0  0  0
 12 10  1  0  0  0  0
 14 12  2  0  0  0  0
 16 15  1  0  0  0  0
 16 17  1  0  0  0  0
 18 17  1  0  0  0  0
 19 18  1  6  0  0  0
 19 21  1  0  0  0  0
 21 20  1  0  0  0  0
 22 19  1  0  0  0  0
 23 24  1  0  0  0  0
 24 22  1  0  0  0  0
 25 23  1  0  0  0  0
 26 23  2  0  0  0  0
M  END
>  <MODEL>
5

>  <REMARK>
 VINA RESULT:      -6.5      2.183      2.928
  Name = 
  8 active torsions:
  status: ('A' for Active; 'I' for Inactive)
    1  A    between atoms: C_2  and  C_12
    2  A    between atoms: C_2  and  O_20
    3  A    between atoms: C_2  and  C_26
    4  A    between atoms: N_7  and  C_11
    5  A    between atoms: N_7  and  C_15
    6  A    between atoms: N_9  and  C_12
    7  A    between atoms: C_15  and  C_16
    8  A    between atoms: C_16  and  C_26
                            x       y       z     vdW  Elec       q    Type
                         _______ _______ _______ _____ _____    ______ ____

>  <TORSDO>
F 8

$$$$
=
 OpenBabel11042417223D

 26 28  0  0  1  0  0  0  0  0999 V2000
  187.4580  176.8310  145.9920 C   0  0  0  0  0  3  0  0  0  0  0  0
  185.5130  178.8040  146.6250 C   0  0  0  0  0  3  0  0  0  0  0  0
  185.9450  178.5990  145.3180 C   0  0  0  0  0  0  0  0  0  0  0  0
  186.8930  177.8350  140.8690 C   0  0  0  0  0  3  0  0  0  0  0  0
  186.8950  177.6380  145.0040 C   0  0  0  0  0  0  0  0  0  0  0  0
  187.7790  176.5350  142.8130 C   0  0  2  0  0  3  0  0  0  0  0  0
  186.0780  178.0050  147.6350 C   0  0  0  0  0  3  0  0  0  0  0  0
  187.6830  176.8530  141.3370 C   0  0  0  0  0  3  0  0  0  0  0  0
  185.5190  179.2280  144.0740 C   0  0  0  0  0  0  0  0  0  0  0  0
  187.1700  177.6040  143.6010 N   0  0  0  0  0  0  0  0  0  0  0  0
  184.6440  180.1220  143.9290 O   0  0  0  0  0  0  0  0  0  0  0  0
  186.2830  178.5600  143.0330 C   0  0  0  0  0  0  0  0  0  0  0  0
  187.0430  177.0260  147.3200 C   0  0  0  0  0  3  0  0  0  0  0  0
  186.1240  178.6700  141.7530 N   0  0  0  0  0  0  0  0  0  0  0  0
  189.1750  176.3790  143.1870 N   0  0  0  0  0  2  0  0  0  0  0  0
  189.8560  177.6040  142.7990 C   0  0  0  0  0  2  0  0  0  0  0  0
  190.8680  177.9930  143.8600 C   0  0  0  0  0  2  0  0  0  0  0  0
  190.8630  176.9740  144.9860 C   0  0  0  0  0  2  0  0  0  0  0  0
  192.2840  176.5620  145.3380 C   0  0  1  0  0  3  0  0  0  0  0  0
  191.2710  176.4170  147.3020 C   0  0  0  0  0  1  0  0  0  0  0  0
  192.2850  175.8420  146.5350 O   0  0  0  0  0  0  0  0  0  0  0  0
  192.8550  175.6920  144.2260 C   0  0  0  0  0  2  0  0  0  0  0  0
  195.3470  176.1350  144.1440 C   0  0  0  0  0  0  0  0  0  0  0  0
  194.0260  176.3210  143.6310 N   0  0  0  0  0  2  0  0  0  0  0  0
  196.4420  176.8010  143.5260 N   0  0  0  0  0  1  0  0  0  0  0  0
  195.5510  175.3870  145.1360 O   0  0  0  0  0  0  0  0  0  0  0  0
  1 13  1  0  0  0  0
  2  7  1  0  0  0  0
  3  2  2  0  0  0  0
  4  8  2  0  0  0  0
  4 14  1  0  0  0  0
  5  3  1  0  0  0  0
  5  1  2  0  0  0  0
  6 15  1  1  0  0  0
  6 10  1  0  0  0  0
  8  6  1  0  0  0  0
  9  3  1  0  0  0  0
 10  5  1  0  0  0  0
 11  9  2  0  0  0  0
 12 10  1  0  0  0  0
 12  9  1  0  0  0  0
 13  7  2  0  0  0  0
 14 12  2  0  0  0  0
 16 15  1  0  0  0  0
 16 17  1  0  0  0  0
 17 18  1  0  0  0  0
 18 19  1  0  0  0  0
 19 22  1  6  0  0  0
 19 21  1  0  0  0  0
 21 20  1  0  0  0  0
 23 26  2  0  0  0  0
 24 23  1  0  0  0  0
 24 22  1  0  0  0  0
 25 23  1  0  0  0  0
M  END
>  <MODEL>
6

>  <REMARK>
 VINA RESULT:      -6.5      1.618      1.900
  Name = 
  8 active torsions:
  status: ('A' for Active; 'I' for Inactive)
    1  A    between atoms: C_2  and  C_12
    2  A    between atoms: C_2  and  O_20
    3  A    between atoms: C_2  and  C_26
    4  A    between atoms: N_7  and  C_11
    5  A    between atoms: N_7  and  C_15
    6  A    between atoms: N_9  and  C_12
    7  A    between atoms: C_15  and  C_16
    8  A    between atoms: C_16  and  C_26
                            x       y       z     vdW  Elec       q    Type
                         _______ _______ _______ _____ _____    ______ ____

>  <TORSDO>
F 8

$$$$
=
 OpenBabel11042417223D

 26 28  0  0  1  0  0  0  0  0999 V2000
  186.5080  177.4650  146.8070 C   0  0  0  0  0  3  0  0  0  0  0  0
  184.4870  178.3960  145.0370 C   0  0  0  0  0  3  0  0  0  0  0  0
  185.5790  177.6640  144.5780 C   0  0  0  0  0  0  0  0  0  0  0  0
  188.8600  174.9080  142.8710 C   0  0  0  0  0  3  0  0  0  0  0  0
  186.5680  177.2080  145.4380 C   0  0  0  0  0  0  0  0  0  0  0  0
  188.5500  175.5220  145.2750 C   0  0  2  0  0  3  0  0  0  0  0  0
  184.4170  178.6730  146.4140 C   0  0  0  0  0  3  0  0  0  0  0  0
  189.2820  174.8320  144.1450 C   0  0  0  0  0  3  0  0  0  0  0  0
  185.8990  177.1890  143.2380 C   0  0  0  0  0  0  0  0  0  0  0  0
  187.5760  176.4730  144.7420 N   0  0  0  0  0  0  0  0  0  0  0  0
  185.2300  177.3580  142.1850 O   0  0  0  0  0  0  0  0  0  0  0  0
  187.1310  176.4310  143.3920 C   0  0  0  0  0  0  0  0  0  0  0  0
  185.4190  178.2100  147.2920 C   0  0  0  0  0  3  0  0  0  0  0  0
  187.7080  175.6870  142.5030 N   0  0  0  0  0  0  0  0  0  0  0  0
  189.5050  176.2150  146.1230 N   0  0  0  0  0  2  0  0  0  0  0  0
  189.8710  175.2950  147.1870 C   0  0  0  0  0  2  0  0  0  0  0  0
  191.2100  175.6930  147.7790 C   0  0  0  0  0  2  0  0  0  0  0  0
  192.3400  175.2140  146.8860 C   0  0  0  0  0  2  0  0  0  0  0  0
  193.2290  176.3790  146.4780 C   0  0  1  0  0  3  0  0  0  0  0  0
  195.0730  175.2930  145.9110 C   0  0  0  0  0  1  0  0  0  0  0  0
  194.5420  176.1380  146.8860 O   0  0  0  0  0  0  0  0  0  0  0  0
  193.1940  176.5440  144.9650 C   0  0  0  0  0  2  0  0  0  0  0  0
  191.5260  177.3900  143.2570 C   0  0  0  0  0  0  0  0  0  0  0  0
  192.0950  177.4140  144.5680 N   0  0  0  0  0  2  0  0  0  0  0  0
  190.4690  178.2860  142.9320 N   0  0  0  0  0  1  0  0  0  0  0  0
  191.9490  176.5830  142.3880 O   0  0  0  0  0  0  0  0  0  0  0  0
  1 13  1  0  0  0  0
  2  7  1  0  0  0  0
  3  2  2  0  0  0  0
  3  5  1  0  0  0  0
  4  8  2  0  0  0  0
  5  1  2  0  0  0  0
  6 15  1  1  0  0  0
  7 13  2  0  0  0  0
  8  6  1  0  0  0  0
  9 12  1  0  0  0  0
  9  3  1  0  0  0  0
 10  6  1  0  0  0  0
 10  5  1  0  0  0  0
 11  9  2  0  0  0  0
 12 10  1  0  0  0  0
 14  4  1  0  0  0  0
 14 12  2  0  0  0  0
 15 16  1  0  0  0  0
 16 17  1  0  0  0  0
 18 17  1  0  0  0  0
 19 22  1  6  0  0  0
 19 18  1  0  0  0  0
 19 21  1  0  0  0  0
 20 21  1  0  0  0  0
 23 24  1  0  0  0  0
 24 22  1  0  0  0  0
 25 23  1  0  0  0  0
 26 23  2  0  0  0  0
M  END
>  <MODEL>
7

>  <REMARK>
 VINA RESULT:      -6.4      2.028      3.387
  Name = 
  8 active torsions:
  status: ('A' for Active; 'I' for Inactive)
    1  A    between atoms: C_2  and  C_12
    2  A    between atoms: C_2  and  O_20
    3  A    between atoms: C_2  and  C_26
    4  A    between atoms: N_7  and  C_11
    5  A    between atoms: N_7  and  C_15
    6  A    between atoms: N_9  and  C_12
    7  A    between atoms: C_15  and  C_16
    8  A    between atoms: C_16  and  C_26
                            x       y       z     vdW  Elec       q    Type
                         _______ _______ _______ _____ _____    ______ ____

>  <TORSDO>
F 8

$$$$
=
 OpenBabel11042417223D

 26 28  0  0  1  0  0  0  0  0999 V2000
  187.4590  177.2380  142.5720 C   0  0  0  0  0  3  0  0  0  0  0  0
  185.2350  178.1210  141.0360 C   0  0  0  0  0  3  0  0  0  0  0  0
  185.1790  178.0470  142.4250 C   0  0  0  0  0  0  0  0  0  0  0  0
  184.8770  178.2920  147.0220 C   0  0  0  0  0  3  0  0  0  0  0  0
  186.2610  177.6150  143.1790 C   0  0  0  0  0  0  0  0  0  0  0  0
  186.9010  177.6390  145.7070 C   0  0  2  0  0  3  0  0  0  0  0  0
  186.4320  177.7350  140.4080 C   0  0  0  0  0  3  0  0  0  0  0  0
  186.1530  177.8710  147.0010 C   0  0  0  0  0  3  0  0  0  0  0  0
  184.1110  178.4150  143.3470 C   0  0  0  0  0  0  0  0  0  0  0  0
  185.9710  177.6350  144.5790 N   0  0  0  0  0  0  0  0  0  0  0  0
  182.9810  178.8880  143.0590 O   0  0  0  0  0  0  0  0  0  0  0  0
  184.6580  178.1710  144.6720 C   0  0  0  0  0  0  0  0  0  0  0  0
  187.5360  177.2970  141.1700 C   0  0  0  0  0  3  0  0  0  0  0  0
  184.1330  178.5050  145.8080 N   0  0  0  0  0  0  0  0  0  0  0  0
  187.6040  176.3690  145.7720 N   0  0  0  0  0  2  0  0  0  0  0  0
  188.6880  176.5350  146.7270 C   0  0  0  0  0  2  0  0  0  0  0  0
  189.2760  175.1820  147.0840 C   0  0  0  0  0  2  0  0  0  0  0  0
  190.7020  175.3460  147.5790 C   0  0  0  0  0  2  0  0  0  0  0  0
  191.6700  175.4090  146.4090 C   0  0  1  0  0  3  0  0  0  0  0  0
  193.5470  176.5790  146.5330 C   0  0  0  0  0  1  0  0  0  0  0  0
  192.9850  175.3480  146.8770 O   0  0  0  0  0  0  0  0  0  0  0  0
  191.4150  174.2380  145.4700 C   0  0  0  0  0  2  0  0  0  0  0  0
  190.2310  174.5520  143.2530 C   0  0  0  0  0  0  0  0  0  0  0  0
  191.3860  174.6860  144.0840 N   0  0  0  0  0  2  0  0  0  0  0  0
  190.2820  174.9910  141.9010 N   0  0  0  0  0  1  0  0  0  0  0  0
  189.1690  174.0490  143.7070 O   0  0  0  0  0  0  0  0  0  0  0  0
  1  5  1  0  0  0  0
  2  3  1  0  0  0  0
  3  5  2  0  0  0  0
  3  9  1  0  0  0  0
  5 10  1  0  0  0  0
  6 15  1  1  0  0  0
  6  8  1  0  0  0  0
  7  2  2  0  0  0  0
  7 13  1  0  0  0  0
  8  4  2  0  0  0  0
  9 12  1  0  0  0  0
 10 12  1  0  0  0  0
 10  6  1  0  0  0  0
 11  9  2  0  0  0  0
 12 14  2  0  0  0  0
 13  1  2  0  0  0  0
 14  4  1  0  0  0  0
 15 16  1  0  0  0  0
 16 17  1  0  0  0  0
 17 18  1  0  0  0  0
 19 22  1  6  0  0  0
 19 21  1  0  0  0  0
 19 18  1  0  0  0  0
 20 21  1  0  0  0  0
 23 26  2  0  0  0  0
 23 24  1  0  0  0  0
 24 22  1  0  0  0  0
 25 23  1  0  0  0  0
M  END
>  <MODEL>
8

>  <REMARK>
 VINA RESULT:      -6.3      1.849      4.222
  Name = 
  8 active torsions:
  status: ('A' for Active; 'I' for Inactive)
    1  A    between atoms: C_2  and  C_12
    2  A    between atoms: C_2  and  O_20
    3  A    between atoms: C_2  and  C_26
    4  A    between atoms: N_7  and  C_11
    5  A    between atoms: N_7  and  C_15
    6  A    between atoms: N_9  and  C_12
    7  A    between atoms: C_15  and  C_16
    8  A    between atoms: C_16  and  C_26
                            x       y       z     vdW  Elec       q    Type
                         _______ _______ _______ _____ _____    ______ ____

>  <TORSDO>
F 8

$$$$
=
 OpenBabel11042417223D

 26 28  0  0  1  0  0  0  0  0999 V2000
  186.1230  177.2270  146.6150 C   0  0  0  0  0  3  0  0  0  0  0  0
  184.7420  178.8460  144.7310 C   0  0  0  0  0  3  0  0  0  0  0  0
  185.9230  178.1880  144.4000 C   0  0  0  0  0  0  0  0  0  0  0  0
  189.5750  175.7830  142.9310 C   0  0  0  0  0  3  0  0  0  0  0  0
  186.6010  177.3970  145.3170 C   0  0  0  0  0  0  0  0  0  0  0  0
  188.5400  175.6570  145.2040 C   0  0  2  0  0  3  0  0  0  0  0  0
  184.2510  178.6930  146.0400 C   0  0  0  0  0  3  0  0  0  0  0  0
  189.5850  175.2800  144.1780 C   0  0  0  0  0  3  0  0  0  0  0  0
  186.6400  178.1180  143.1330 C   0  0  0  0  0  0  0  0  0  0  0  0
  187.7760  176.8160  144.7460 N   0  0  0  0  0  0  0  0  0  0  0  0
  186.3260  178.6650  142.0440 O   0  0  0  0  0  0  0  0  0  0  0  0
  187.7660  177.2330  143.3870 C   0  0  0  0  0  0  0  0  0  0  0  0
  184.9370  177.8890  146.9750 C   0  0  0  0  0  3  0  0  0  0  0  0
  188.5890  176.7450  142.5140 N   0  0  0  0  0  0  0  0  0  0  0  0
  189.1880  175.9620  146.4690 N   0  0  0  0  0  2  0  0  0  0  0  0
  190.1840  174.9270  146.6930 C   0  0  0  0  0  2  0  0  0  0  0  0
  191.3230  175.4770  147.5330 C   0  0  0  0  0  2  0  0  0  0  0  0
  192.2050  176.3800  146.6900 C   0  0  0  0  0  2  0  0  0  0  0  0
  193.0860  175.5550  145.7660 C   0  0  1  0  0  3  0  0  0  0  0  0
  192.4490  177.3340  144.6110 C   0  0  0  0  0  1  0  0  0  0  0  0
  193.0290  176.0730  144.4700 O   0  0  0  0  0  0  0  0  0  0  0  0
  194.5260  175.5950  146.2620 C   0  0  0  0  0  2  0  0  0  0  0  0
  196.5470  174.5420  145.1570 C   0  0  0  0  0  0  0  0  0  0  0  0
  195.4560  175.4650  145.1490 N   0  0  0  0  0  2  0  0  0  0  0  0
  197.4310  174.4870  144.0450 N   0  0  0  0  0  1  0  0  0  0  0  0
  196.7320  173.7760  146.1400 O   0  0  0  0  0  0  0  0  0  0  0  0
  1 13  1  0  0  0  0
  2  7  1  0  0  0  0
  3  2  2  0  0  0  0
  3  5  1  0  0  0  0
  4  8  2  0  0  0  0
  5  1  2  0  0  0  0
  6 15  1  1  0  0  0
  7 13  2  0  0  0  0
  8  6  1  0  0  0  0
  9 12  1  0  0  0  0
  9  3  1  0  0  0  0
 10  6  1  0  0  0  0
 10  5  1  0  0  0  0
 11  9  2  0  0  0  0
 12 10  1  0  0  0  0
 14  4  1  0  0  0  0
 14 12  2  0  0  0  0
 15 16  1  0  0  0  0
 16 17  1  0  0  0  0
 18 17  1  0  0  0  0
 19 22  1  1  0  0  0
 19 18  1  0  0  0  0
 21 20  1  0  0  0  0
 21 19  1  0  0  0  0
 23 26  2  0  0  0  0
 24 23  1  0  0  0  0
 24 22  1  0  0  0  0
 25 23  1  0  0  0  0
M  END
>  <MODEL>
9

>  <REMARK>
 VINA RESULT:      -6.2      1.967      3.037
  Name = 
  8 active torsions:
  status: ('A' for Active; 'I' for Inactive)
    1  A    between atoms: C_2  and  C_12
    2  A    between atoms: C_2  and  O_20
    3  A    between atoms: C_2  and  C_26
    4  A    between atoms: N_7  and  C_11
    5  A    between atoms: N_7  and  C_15
    6  A    between atoms: N_9  and  C_12
    7  A    between atoms: C_15  and  C_16
    8  A    between atoms: C_16  and  C_26
                            x       y       z     vdW  Elec       q    Type
                         _______ _______ _______ _____ _____    ______ ____

>  <TORSDO>
F 8

$$$$
