=
 OpenBabel11042414593D

 39 43  0  0  1  0  0  0  0  0999 V2000
  188.1150  176.8410  144.3100 C   0  0  0  0  0  3  0  0  0  0  0  0
  187.4450  176.1300  140.0600 O   0  0  0  0  0  0  0  0  0  0  0  0
  188.0880  175.3030  140.7600 C   0  0  0  0  0  0  0  0  0  0  0  0
  189.3320  173.1230  140.9070 C   0  0  0  0  0  0  0  0  0  0  0  0
  189.2640  174.7620  144.2700 C   0  0  0  0  0  0  0  0  0  0  0  0
  190.4410  172.7100  144.5580 C   0  0  0  0  0  3  0  0  0  0  0  0
  188.3210  175.5410  142.2120 C   0  0  0  0  0  0  0  0  0  0  0  0
  189.6170  171.7330  138.9340 C   0  0  0  0  0  3  0  0  0  0  0  0
  188.9130  172.6660  138.1690 C   0  0  0  0  0  3  0  0  0  0  0  0
  189.8260  171.9610  140.2960 C   0  0  0  0  0  3  0  0  0  0  0  0
  188.6190  174.0680  140.1310 C   0  0  0  0  0  0  0  0  0  0  0  0
  187.8480  176.6950  142.9260 C   0  0  0  0  0  0  0  0  0  0  0  0
  188.8430  175.8450  144.9630 C   0  0  0  0  0  0  0  0  0  0  0  0
  190.2490  172.4510  143.1790 C   0  0  0  0  0  3  0  0  0  0  0  0
  189.5480  173.3730  142.3500 C   0  0  0  0  0  0  0  0  0  0  0  0
  188.4160  173.8270  138.7650 C   0  0  0  0  0  3  0  0  0  0  0  0
  189.9550  174.4010  146.3670 O   0  0  0  0  0  0  0  0  0  0  0  0
  189.9210  173.9000  145.0710 C   0  0  0  0  0  0  0  0  0  0  0  0
  189.2750  175.6770  146.4020 C   0  0  1  0  0  3  0  0  0  0  0  0
  189.0410  174.5580  142.9240 C   0  0  0  0  0  0  0  0  0  0  0  0
  190.2510  176.7810  146.8230 C   0  0  1  0  0  3  0  0  0  0  0  0
  189.5350  177.8880  147.5820 C   0  0  0  0  0  1  0  0  0  0  0  0
  191.4000  176.2280  147.6640 C   0  0  0  0  0  2  0  0  0  0  0  0
  192.6760  176.4120  146.9900 N   0  0  0  0  0  2  0  0  0  0  0  0
  192.4000  176.6630  145.6880 O   0  0  0  0  0  0  0  0  0  0  0  0
  195.0300  176.3170  144.5690 C   0  0  0  0  0  1  0  0  0  0  0  0
  193.5160  174.2860  145.5660 O   0  0  0  0  0  1  0  0  0  0  0  0
  192.6800  175.2960  143.3070 O   0  0  0  0  0  0  0  0  0  0  0  0
  193.3850  175.5920  144.8160 P   0  0  1  0  0  0  0  0  0  0  0  0
  187.0940  177.7930  142.2540 C   0  0  0  0  0  2  0  0  0  0  0  0
  185.6650  177.5500  142.3670 N   0  0  0  0  0  2  0  0  0  0  0  0
  185.0660  178.7580  142.7490 N   0  0  0  0  0  2  0  0  0  0  0  0
  185.7020  179.6190  143.6940 C   0  0  0  0  0  3  0  0  0  0  0  0
  185.2940  179.6890  144.9600 C   0  0  0  0  0  3  0  0  0  0  0  0
  184.1460  178.8930  145.4900 C   0  0  0  0  0  2  0  0  0  0  0  0
  184.4670  178.3560  146.8730 C   0  0  0  0  0  2  0  0  0  0  0  0
  185.3130  177.1380  146.7570 C   0  0  0  0  0  0  0  0  0  0  0  0
  185.2080  176.3920  145.7490 O   0  0  0  0  0  0  0  0  0  0  0  0
  186.1980  176.8070  147.7740 O   0  0  0  0  0  1  0  0  0  0  0  0
  1 13  1  0  0  0  0
  2  3  2  0  0  0  0
  3  7  1  0  0  0  0
  4 15  1  0  0  0  0
  5 13  2  0  0  0  0
  5 18  1  0  0  0  0
  6 18  2  0  0  0  0
  7 20  2  0  0  0  0
  7 12  1  0  0  0  0
  8 10  2  0  0  0  0
  9 16  2  0  0  0  0
  9  8  1  0  0  0  0
 10  4  1  0  0  0  0
 11  3  1  0  0  0  0
 11  4  2  0  0  0  0
 12  1  2  0  0  0  0
 13 19  1  0  0  0  0
 14  6  1  0  0  0  0
 15 20  1  0  0  0  0
 15 14  2  0  0  0  0
 16 11  1  0  0  0  0
 17 19  1  0  0  0  0
 18 17  1  0  0  0  0
 19 21  1  6  0  0  0
 20  5  1  0  0  0  0
 21 22  1  1  0  0  0
 21 23  1  0  0  0  0
 24 23  1  0  0  0  0
 25 24  1  0  0  0  0
 28 29  2  0  0  0  0
 29 26  1  6  0  0  0
 29 27  1  0  0  0  0
 29 25  1  0  0  0  0
 30 31  1  0  0  0  0
 30 12  1  0  0  0  0
 31 32  1  0  0  0  0
 32 33  1  0  0  0  0
 33 34  2  0  0  0  0
 34 35  1  0  0  0  0
 35 36  1  0  0  0  0
 37 36  1  0  0  0  0
 37 39  1  0  0  0  0
 38 37  2  0  0  0  0
M  END
>  <MODEL>
1

>  <REMARK>
 VINA RESULT:      -7.4      0.000      0.000
  Name = 
  12 active torsions:
  status: ('A' for Active; 'I' for Inactive)
    1  A    between atoms: C_1  and  N_32
    2  A    between atoms: N_2  and  C_28
    3  A    between atoms: N_2  and  O_35
    4  A    between atoms: C_4  and  C_25
    5  A    between atoms: C_4  and  N_30
    6  A    between atoms: C_8  and  C_34
    7  A    between atoms: C_17  and  C_28
    8  A    between atoms: C_17  and  C_38
    9  A    between atoms: P_20  and  O_35
   10  A    between atoms: C_22  and  C_31
   11  A    between atoms: C_22  and  C_34
   12  A    between atoms: N_30  and  N_32
                            x       y       z     vdW  Elec       q    Type
                         _______ _______ _______ _____ _____    ______ ____

>  <TORSDO>
F 12

$$$$
=
 OpenBabel11042414593D

 39 43  0  0  1  0  0  0  0  0999 V2000
  188.1300  176.1990  143.5150 C   0  0  0  0  0  3  0  0  0  0  0  0
  188.0220  174.9300  139.3440 O   0  0  0  0  0  0  0  0  0  0  0  0
  188.6020  174.2310  140.2170 C   0  0  0  0  0  0  0  0  0  0  0  0
  189.8930  172.1530  140.7930 C   0  0  0  0  0  0  0  0  0  0  0  0
  189.3480  174.1920  143.8830 C   0  0  0  0  0  0  0  0  0  0  0  0
  190.5510  172.2540  144.5740 C   0  0  0  0  0  3  0  0  0  0  0  0
  188.6420  174.6590  141.6430 C   0  0  0  0  0  0  0  0  0  0  0  0
  190.4720  170.5440  139.0660 C   0  0  0  0  0  3  0  0  0  0  0  0
  189.8360  171.3370  138.1080 C   0  0  0  0  0  3  0  0  0  0  0  0
  190.5010  170.9500  140.4020 C   0  0  0  0  0  3  0  0  0  0  0  0
  189.2500  172.9560  139.8220 C   0  0  0  0  0  0  0  0  0  0  0  0
  188.0440  175.8670  142.1400 C   0  0  0  0  0  0  0  0  0  0  0  0
  188.8060  175.3300  144.3740 C   0  0  0  0  0  0  0  0  0  0  0  0
  190.5420  171.8160  143.2270 C   0  0  0  0  0  3  0  0  0  0  0  0
  189.9190  172.5910  142.2070 C   0  0  0  0  0  0  0  0  0  0  0  0
  189.2280  172.5370  138.4840 C   0  0  0  0  0  3  0  0  0  0  0  0
  189.7830  174.1310  146.0760 O   0  0  0  0  0  0  0  0  0  0  0  0
  189.9290  173.4710  144.8610 C   0  0  0  0  0  0  0  0  0  0  0  0
  189.0600  175.3650  145.8640 C   0  0  1  0  0  3  0  0  0  0  0  0
  189.3020  173.8110  142.5580 C   0  0  0  0  0  0  0  0  0  0  0  0
  189.9360  176.5610  146.2510 C   0  0  1  0  0  3  0  0  0  0  0  0
  189.1150  177.6480  146.9290 C   0  0  0  0  0  1  0  0  0  0  0  0
  191.0950  176.1420  147.1530 C   0  0  0  0  0  2  0  0  0  0  0  0
  192.3650  176.2320  146.4460 N   0  0  0  0  0  2  0  0  0  0  0  0
  192.0860  176.6530  145.1900 O   0  0  0  0  0  0  0  0  0  0  0  0
  192.4770  175.6650  142.5150 C   0  0  0  0  0  1  0  0  0  0  0  0
  194.4910  176.5080  144.1400 O   0  0  0  0  0  0  0  0  0  0  0  0
  193.3800  174.2440  144.8210 O   0  0  0  0  0  1  0  0  0  0  0  0
  193.1580  175.7980  144.1920 P   0  0  1  0  0  0  0  0  0  0  0  0
  187.3420  176.8340  141.2450 C   0  0  0  0  0  2  0  0  0  0  0  0
  187.2750  178.1390  141.8860 N   0  0  0  0  0  2  0  0  0  0  0  0
  185.9710  178.6210  141.7140 N   0  0  0  0  0  2  0  0  0  0  0  0
  184.8580  177.9310  142.2840 C   0  0  0  0  0  3  0  0  0  0  0  0
  184.3510  178.2790  143.4640 C   0  0  0  0  0  3  0  0  0  0  0  0
  184.9000  179.3980  144.2870 C   0  0  0  0  0  2  0  0  0  0  0  0
  185.9060  178.8710  145.2950 C   0  0  0  0  0  2  0  0  0  0  0  0
  185.2400  177.9160  146.2210 C   0  0  0  0  0  0  0  0  0  0  0  0
  184.3410  178.3210  147.0030 O   0  0  0  0  0  1  0  0  0  0  0  0
  185.6300  176.5840  146.2450 O   0  0  0  0  0  0  0  0  0  0  0  0
  1 13  1  0  0  0  0
  2  3  2  0  0  0  0
  3  7  1  0  0  0  0
  4 15  1  0  0  0  0
  5 13  2  0  0  0  0
  5 18  1  0  0  0  0
  6 18  2  0  0  0  0
  7 12  1  0  0  0  0
  7 20  2  0  0  0  0
  8 10  2  0  0  0  0
  9 16  2  0  0  0  0
  9  8  1  0  0  0  0
 10  4  1  0  0  0  0
 11  3  1  0  0  0  0
 11  4  2  0  0  0  0
 12  1  2  0  0  0  0
 13 19  1  0  0  0  0
 14  6  1  0  0  0  0
 15 20  1  0  0  0  0
 15 14  2  0  0  0  0
 16 11  1  0  0  0  0
 18 17  1  0  0  0  0
 19 17  1  0  0  0  0
 19 21  1  6  0  0  0
 20  5  1  0  0  0  0
 21 22  1  1  0  0  0
 21 23  1  0  0  0  0
 24 23  1  0  0  0  0
 25 24  1  0  0  0  0
 27 29  2  0  0  0  0
 29 26  1  6  0  0  0
 29 28  1  0  0  0  0
 29 25  1  0  0  0  0
 30 31  1  0  0  0  0
 30 12  1  0  0  0  0
 32 31  1  0  0  0  0
 32 33  1  0  0  0  0
 33 34  2  0  0  0  0
 34 35  1  0  0  0  0
 35 36  1  0  0  0  0
 36 37  1  0  0  0  0
 37 39  2  0  0  0  0
 37 38  1  0  0  0  0
M  END
>  <MODEL>
2

>  <REMARK>
 VINA RESULT:      -7.2      1.230      1.465
  Name = 
  12 active torsions:
  status: ('A' for Active; 'I' for Inactive)
    1  A    between atoms: C_1  and  N_32
    2  A    between atoms: N_2  and  C_28
    3  A    between atoms: N_2  and  O_35
    4  A    between atoms: C_4  and  C_25
    5  A    between atoms: C_4  and  N_30
    6  A    between atoms: C_8  and  C_34
    7  A    between atoms: C_17  and  C_28
    8  A    between atoms: C_17  and  C_38
    9  A    between atoms: P_20  and  O_35
   10  A    between atoms: C_22  and  C_31
   11  A    between atoms: C_22  and  C_34
   12  A    between atoms: N_30  and  N_32
                            x       y       z     vdW  Elec       q    Type
                         _______ _______ _______ _____ _____    ______ ____

>  <TORSDO>
F 12

$$$$
=
 OpenBabel11042414593D

 39 43  0  0  1  0  0  0  0  0999 V2000
  189.8090  177.4040  144.7380 C   0  0  0  0  0  3  0  0  0  0  0  0
  187.9760  177.9230  140.8160 O   0  0  0  0  0  0  0  0  0  0  0  0
  187.2700  177.8910  141.8600 C   0  0  0  0  0  0  0  0  0  0  0  0
  184.9930  178.0180  142.9170 C   0  0  0  0  0  0  0  0  0  0  0  0
  187.5870  177.5380  145.5700 C   0  0  0  0  0  0  0  0  0  0  0  0
  185.4960  177.6680  146.7060 C   0  0  0  0  0  3  0  0  0  0  0  0
  187.8900  177.7140  143.2020 C   0  0  0  0  0  0  0  0  0  0  0  0
  183.0120  178.3200  141.5420 C   0  0  0  0  0  3  0  0  0  0  0  0
  183.8070  178.3410  140.3930 C   0  0  0  0  0  3  0  0  0  0  0  0
  183.6020  178.1590  142.7970 C   0  0  0  0  0  3  0  0  0  0  0  0
  185.7970  178.0390  141.7530 C   0  0  0  0  0  0  0  0  0  0  0  0
  189.3020  177.5690  143.4250 C   0  0  0  0  0  0  0  0  0  0  0  0
  188.9100  177.3860  145.8070 C   0  0  0  0  0  0  0  0  0  0  0  0
  184.8660  177.8300  145.4480 C   0  0  0  0  0  3  0  0  0  0  0  0
  185.6270  177.8470  144.2440 C   0  0  0  0  0  0  0  0  0  0  0  0
  185.1920  178.2010  140.4990 C   0  0  0  0  0  3  0  0  0  0  0  0
  187.7510  177.3580  147.7940 O   0  0  0  0  0  0  0  0  0  0  0  0
  186.8850  177.5240  146.7200 C   0  0  0  0  0  0  0  0  0  0  0  0
  189.1070  177.2550  147.3000 C   0  0  1  0  0  3  0  0  0  0  0  0
  187.0290  177.7000  144.3200 C   0  0  0  0  0  0  0  0  0  0  0  0
  189.6970  175.8890  147.6660 C   0  0  1  0  0  3  0  0  0  0  0  0
  189.3360  174.8380  146.6280 C   0  0  0  0  0  1  0  0  0  0  0  0
  191.2140  175.9570  147.8360 C   0  0  0  0  0  2  0  0  0  0  0  0
  191.8880  175.1630  146.8200 N   0  0  0  0  0  2  0  0  0  0  0  0
  192.6890  176.0080  146.1280 O   0  0  0  0  0  0  0  0  0  0  0  0
  193.3630  173.2800  145.5010 C   0  0  0  0  0  1  0  0  0  0  0  0
  194.1260  175.4240  144.0060 O   0  0  0  0  0  0  0  0  0  0  0  0
  195.3200  175.1940  146.3180 O   0  0  0  0  0  1  0  0  0  0  0  0
  193.8830  175.0180  145.4420 P   0  0  1  0  0  0  0  0  0  0  0  0
  190.2880  177.5520  142.3040 C   0  0  0  0  0  2  0  0  0  0  0  0
  191.3900  176.6610  142.6320 N   0  0  0  0  0  2  0  0  0  0  0  0
  191.0450  175.3840  142.1700 N   0  0  0  0  0  2  0  0  0  0  0  0
  190.7040  174.3450  143.0880 C   0  0  0  0  0  3  0  0  0  0  0  0
  189.4970  173.7830  143.0880 C   0  0  0  0  0  3  0  0  0  0  0  0
  188.4080  174.1930  142.1510 C   0  0  0  0  0  2  0  0  0  0  0  0
  188.3350  173.2360  140.9740 C   0  0  0  0  0  2  0  0  0  0  0  0
  188.7790  173.9260  139.7340 C   0  0  0  0  0  0  0  0  0  0  0  0
  188.0390  174.7880  139.1930 O   0  0  0  0  0  1  0  0  0  0  0  0
  189.9970  173.5990  139.1540 O   0  0  0  0  0  0  0  0  0  0  0  0
  1 13  1  0  0  0  0
  2  3  2  0  0  0  0
  3  7  1  0  0  0  0
  4 15  1  0  0  0  0
  5 13  2  0  0  0  0
  5 18  1  0  0  0  0
  6 18  2  0  0  0  0
  7 12  1  0  0  0  0
  7 20  2  0  0  0  0
  8 10  2  0  0  0  0
  9 16  2  0  0  0  0
  9  8  1  0  0  0  0
 10  4  1  0  0  0  0
 11  3  1  0  0  0  0
 11  4  2  0  0  0  0
 12  1  2  0  0  0  0
 13 19  1  0  0  0  0
 14  6  1  0  0  0  0
 15 20  1  0  0  0  0
 15 14  2  0  0  0  0
 16 11  1  0  0  0  0
 18 17  1  0  0  0  0
 19 21  1  6  0  0  0
 19 17  1  0  0  0  0
 20  5  1  0  0  0  0
 21 22  1  6  0  0  0
 21 23  1  0  0  0  0
 24 23  1  0  0  0  0
 25 24  1  0  0  0  0
 27 29  2  0  0  0  0
 29 26  1  1  0  0  0
 29 25  1  0  0  0  0
 29 28  1  0  0  0  0
 30 31  1  0  0  0  0
 30 12  1  0  0  0  0
 32 31  1  0  0  0  0
 32 33  1  0  0  0  0
 34 33  2  0  0  0  0
 35 34  1  0  0  0  0
 36 35  1  0  0  0  0
 37 36  1  0  0  0  0
 38 37  1  0  0  0  0
 39 37  2  0  0  0  0
M  END
>  <MODEL>
3

>  <REMARK>
 VINA RESULT:      -7.1      2.180      5.555
  Name = 
  12 active torsions:
  status: ('A' for Active; 'I' for Inactive)
    1  A    between atoms: C_1  and  N_32
    2  A    between atoms: N_2  and  C_28
    3  A    between atoms: N_2  and  O_35
    4  A    between atoms: C_4  and  C_25
    5  A    between atoms: C_4  and  N_30
    6  A    between atoms: C_8  and  C_34
    7  A    between atoms: C_17  and  C_28
    8  A    between atoms: C_17  and  C_38
    9  A    between atoms: P_20  and  O_35
   10  A    between atoms: C_22  and  C_31
   11  A    between atoms: C_22  and  C_34
   12  A    between atoms: N_30  and  N_32
                            x       y       z     vdW  Elec       q    Type
                         _______ _______ _______ _____ _____    ______ ____

>  <TORSDO>
F 12

$$$$
=
 OpenBabel11042414593D

 39 43  0  0  1  0  0  0  0  0999 V2000
  190.0170  173.8690  145.3270 C   0  0  0  0  0  3  0  0  0  0  0  0
  187.6030  176.9930  147.1800 O   0  0  0  0  0  0  0  0  0  0  0  0
  187.5870  176.8180  145.9310 C   0  0  0  0  0  0  0  0  0  0  0  0
  186.6910  177.4910  143.6810 C   0  0  0  0  0  0  0  0  0  0  0  0
  189.0780  174.6370  143.2840 C   0  0  0  0  0  0  0  0  0  0  0  0
  188.2910  175.1500  141.0930 C   0  0  0  0  0  3  0  0  0  0  0  0
  188.4090  175.7540  145.2930 C   0  0  0  0  0  0  0  0  0  0  0  0
  185.1060  179.3220  143.4840 C   0  0  0  0  0  3  0  0  0  0  0  0
  185.1440  179.5100  144.8670 C   0  0  0  0  0  3  0  0  0  0  0  0
  185.8750  178.3180  142.8940 C   0  0  0  0  0  3  0  0  0  0  0  0
  186.7300  177.6830  145.0820 C   0  0  0  0  0  0  0  0  0  0  0  0
  189.2680  174.8550  146.0150 C   0  0  0  0  0  0  0  0  0  0  0  0
  189.9030  173.7880  143.9370 C   0  0  0  0  0  0  0  0  0  0  0  0
  187.5010  176.1790  141.6600 C   0  0  0  0  0  3  0  0  0  0  0  0
  187.5110  176.4240  143.0640 C   0  0  0  0  0  0  0  0  0  0  0  0
  185.9520  178.6950  145.6620 C   0  0  0  0  0  3  0  0  0  0  0  0
  189.9330  173.3280  141.6840 O   0  0  0  0  0  0  0  0  0  0  0  0
  189.0780  174.3890  141.9590 C   0  0  0  0  0  0  0  0  0  0  0  0
  190.5280  172.8630  142.9180 C   0  0  1  0  0  3  0  0  0  0  0  0
  188.3240  175.6190  143.8910 C   0  0  0  0  0  0  0  0  0  0  0  0
  192.0490  173.0360  142.8660 C   0  0  1  0  0  3  0  0  0  0  0  0
  192.7490  171.7000  142.6680 C   0  0  0  0  0  1  0  0  0  0  0  0
  192.4690  174.0130  141.7700 C   0  0  0  0  0  2  0  0  0  0  0  0
  193.9150  174.0160  141.5990 N   0  0  0  0  0  2  0  0  0  0  0  0
  194.3160  175.3070  141.6710 O   0  0  0  0  0  0  0  0  0  0  0  0
  196.0460  173.6440  143.2620 C   0  0  0  0  0  1  0  0  0  0  0  0
  196.9310  175.4930  141.4700 O   0  0  0  0  0  0  0  0  0  0  0  0
  195.8590  176.4690  143.6430 O   0  0  0  0  0  1  0  0  0  0  0  0
  195.8150  175.2580  142.4630 P   0  0  1  0  0  0  0  0  0  0  0  0
  189.4360  174.9340  147.4960 C   0  0  0  0  0  2  0  0  0  0  0  0
  190.8490  175.0430  147.8250 N   0  0  0  0  0  2  0  0  0  0  0  0
  191.2700  176.3220  147.4350 N   0  0  0  0  0  2  0  0  0  0  0  0
  192.6560  176.6040  147.2390 C   0  0  0  0  0  3  0  0  0  0  0  0
  193.2130  176.5630  146.0300 C   0  0  0  0  0  3  0  0  0  0  0  0
  192.4500  176.2130  144.7940 C   0  0  0  0  0  2  0  0  0  0  0  0
  192.4430  177.3820  143.8260 C   0  0  0  0  0  2  0  0  0  0  0  0
  191.0640  177.9280  143.7040 C   0  0  0  0  0  0  0  0  0  0  0  0
  190.4580  178.3420  144.7260 O   0  0  0  0  0  1  0  0  0  0  0  0
  190.4330  177.9520  142.4680 O   0  0  0  0  0  0  0  0  0  0  0  0
  1 12  1  0  0  0  0
  3  2  2  0  0  0  0
  4 11  1  0  0  0  0
  5 20  1  0  0  0  0
  5 13  1  0  0  0  0
  6 14  2  0  0  0  0
  6 18  1  0  0  0  0
  7  3  1  0  0  0  0
  7 12  2  0  0  0  0
  8  9  2  0  0  0  0
  9 16  1  0  0  0  0
 10  8  1  0  0  0  0
 10  4  2  0  0  0  0
 11 16  2  0  0  0  0
 11  3  1  0  0  0  0
 12 30  1  0  0  0  0
 13  1  2  0  0  0  0
 14 15  1  0  0  0  0
 15  4  1  0  0  0  0
 15 20  2  0  0  0  0
 17 18  1  0  0  0  0
 17 19  1  0  0  0  0
 18  5  2  0  0  0  0
 19 21  1  6  0  0  0
 19 13  1  0  0  0  0
 20  7  1  0  0  0  0
 21 22  1  6  0  0  0
 23 21  1  0  0  0  0
 24 25  1  0  0  0  0
 24 23  1  0  0  0  0
 25 29  1  0  0  0  0
 27 29  2  0  0  0  0
 29 26  1  1  0  0  0
 29 28  1  0  0  0  0
 30 31  1  0  0  0  0
 32 31  1  0  0  0  0
 33 32  1  0  0  0  0
 34 33  2  0  0  0  0
 35 34  1  0  0  0  0
 36 35  1  0  0  0  0
 37 36  1  0  0  0  0
 37 38  1  0  0  0  0
 39 37  2  0  0  0  0
M  END
>  <MODEL>
4

>  <REMARK>
 VINA RESULT:      -7.0      2.768      6.240
  Name = 
  12 active torsions:
  status: ('A' for Active; 'I' for Inactive)
    1  A    between atoms: C_1  and  N_32
    2  A    between atoms: N_2  and  C_28
    3  A    between atoms: N_2  and  O_35
    4  A    between atoms: C_4  and  C_25
    5  A    between atoms: C_4  and  N_30
    6  A    between atoms: C_8  and  C_34
    7  A    between atoms: C_17  and  C_28
    8  A    between atoms: C_17  and  C_38
    9  A    between atoms: P_20  and  O_35
   10  A    between atoms: C_22  and  C_31
   11  A    between atoms: C_22  and  C_34
   12  A    between atoms: N_30  and  N_32
                            x       y       z     vdW  Elec       q    Type
                         _______ _______ _______ _____ _____    ______ ____

>  <TORSDO>
F 12

$$$$
=
 OpenBabel11042414593D

 39 43  0  0  1  0  0  0  0  0999 V2000
  189.6780  173.4430  145.2820 C   0  0  0  0  0  3  0  0  0  0  0  0
  193.1380  171.4930  143.4810 O   0  0  0  0  0  0  0  0  0  0  0  0
  193.2780  172.5120  144.2110 C   0  0  0  0  0  0  0  0  0  0  0  0
  194.8110  174.1850  145.2930 C   0  0  0  0  0  0  0  0  0  0  0  0
  191.2650  174.9420  146.2210 C   0  0  0  0  0  0  0  0  0  0  0  0
  192.6020  176.5750  147.3280 C   0  0  0  0  0  3  0  0  0  0  0  0
  192.1000  173.1820  144.8280 C   0  0  0  0  0  0  0  0  0  0  0  0
  197.2120  174.0610  144.9430 C   0  0  0  0  0  3  0  0  0  0  0  0
  197.0400  172.9400  144.1270 C   0  0  0  0  0  3  0  0  0  0  0  0
  196.1030  174.6800  145.5230 C   0  0  0  0  0  3  0  0  0  0  0  0
  194.6370  173.0500  144.4650 C   0  0  0  0  0  0  0  0  0  0  0  0
  190.7410  172.7450  144.6570 C   0  0  0  0  0  0  0  0  0  0  0  0
  189.9770  174.5600  146.0660 C   0  0  0  0  0  0  0  0  0  0  0  0
  193.7470  175.9720  146.7530 C   0  0  0  0  0  3  0  0  0  0  0  0
  193.6290  174.8350  145.9030 C   0  0  0  0  0  0  0  0  0  0  0  0
  195.7590  172.4380  143.8900 C   0  0  0  0  0  3  0  0  0  0  0  0
  190.0890  176.3920  147.4530 O   0  0  0  0  0  0  0  0  0  0  0  0
  191.3580  176.0150  147.0300 C   0  0  0  0  0  0  0  0  0  0  0  0
  189.1100  175.4990  146.8730 C   0  0  1  0  0  3  0  0  0  0  0  0
  192.3450  174.3100  145.6400 C   0  0  0  0  0  0  0  0  0  0  0  0
  188.1510  176.2840  145.9720 C   0  0  1  0  0  3  0  0  0  0  0  0
  187.1510  177.0820  146.7960 C   0  0  0  0  0  1  0  0  0  0  0  0
  188.9030  177.2130  145.0210 C   0  0  0  0  0  2  0  0  0  0  0  0
  187.9780  178.0300  144.2490 N   0  0  0  0  0  2  0  0  0  0  0  0
  188.2290  177.7810  142.9430 O   0  0  0  0  0  0  0  0  0  0  0  0
  186.8720  177.2690  140.4560 C   0  0  0  0  0  1  0  0  0  0  0  0
  186.1010  176.2420  142.8570 O   0  0  0  0  0  1  0  0  0  0  0  0
  185.6960  178.8050  142.5570 O   0  0  0  0  0  0  0  0  0  0  0  0
  186.7090  177.4860  142.2510 P   0  0  1  0  0  0  0  0  0  0  0  0
  190.3830  171.5750  143.8030 C   0  0  0  0  0  2  0  0  0  0  0  0
  189.0200  171.7200  143.3160 N   0  0  0  0  0  2  0  0  0  0  0  0
  189.0920  172.2850  142.0360 N   0  0  0  0  0  2  0  0  0  0  0  0
  188.5560  173.5840  141.7820 C   0  0  0  0  0  3  0  0  0  0  0  0
  189.3450  174.6360  141.5700 C   0  0  0  0  0  3  0  0  0  0  0  0
  190.8360  174.5520  141.5910 C   0  0  0  0  0  2  0  0  0  0  0  0
  191.4210  175.7000  142.3940 C   0  0  0  0  0  2  0  0  0  0  0  0
  192.9040  175.6920  142.2790 C   0  0  0  0  0  0  0  0  0  0  0  0
  193.5890  176.5310  142.9200 O   0  0  0  0  0  1  0  0  0  0  0  0
  193.5320  174.7810  141.4420 O   0  0  0  0  0  0  0  0  0  0  0  0
  1 13  1  0  0  0  0
  2  3  2  0  0  0  0
  3 11  1  0  0  0  0
  3  7  1  0  0  0  0
  4 10  1  0  0  0  0
  4 15  1  0  0  0  0
  5 18  1  0  0  0  0
  7 20  2  0  0  0  0
  8 10  2  0  0  0  0
  9  8  1  0  0  0  0
 11  4  2  0  0  0  0
 12  7  1  0  0  0  0
 12  1  2  0  0  0  0
 13  5  2  0  0  0  0
 13 19  1  0  0  0  0
 14  6  1  0  0  0  0
 15 14  2  0  0  0  0
 16  9  2  0  0  0  0
 16 11  1  0  0  0  0
 18  6  2  0  0  0  0
 18 17  1  0  0  0  0
 19 21  1  6  0  0  0
 19 17  1  0  0  0  0
 20 15  1  0  0  0  0
 20  5  1  0  0  0  0
 21 22  1  1  0  0  0
 23 21  1  0  0  0  0
 24 23  1  0  0  0  0
 25 24  1  0  0  0  0
 29 26  1  6  0  0  0
 29 28  2  0  0  0  0
 29 27  1  0  0  0  0
 29 25  1  0  0  0  0
 30 12  1  0  0  0  0
 31 30  1  0  0  0  0
 32 31  1  0  0  0  0
 33 32  1  0  0  0  0
 34 35  1  0  0  0  0
 34 33  2  0  0  0  0
 35 36  1  0  0  0  0
 37 36  1  0  0  0  0
 37 38  1  0  0  0  0
 39 37  2  0  0  0  0
M  END
>  <MODEL>
5

>  <REMARK>
 VINA RESULT:      -7.0      2.982      6.807
  Name = 
  12 active torsions:
  status: ('A' for Active; 'I' for Inactive)
    1  A    between atoms: C_1  and  N_32
    2  A    between atoms: N_2  and  C_28
    3  A    between atoms: N_2  and  O_35
    4  A    between atoms: C_4  and  C_25
    5  A    between atoms: C_4  and  N_30
    6  A    between atoms: C_8  and  C_34
    7  A    between atoms: C_17  and  C_28
    8  A    between atoms: C_17  and  C_38
    9  A    between atoms: P_20  and  O_35
   10  A    between atoms: C_22  and  C_31
   11  A    between atoms: C_22  and  C_34
   12  A    between atoms: N_30  and  N_32
                            x       y       z     vdW  Elec       q    Type
                         _______ _______ _______ _____ _____    ______ ____

>  <TORSDO>
F 12

$$$$
=
 OpenBabel11042414593D

 39 43  0  0  1  0  0  0  0  0999 V2000
  190.0680  173.8020  145.4810 C   0  0  0  0  0  3  0  0  0  0  0  0
  187.7520  177.1080  147.1300 O   0  0  0  0  0  0  0  0  0  0  0  0
  187.7730  176.8900  145.8890 C   0  0  0  0  0  0  0  0  0  0  0  0
  186.9980  177.5260  143.5840 C   0  0  0  0  0  0  0  0  0  0  0  0
  189.2470  174.5420  143.3770 C   0  0  0  0  0  0  0  0  0  0  0  0
  188.5700  175.0150  141.1420 C   0  0  0  0  0  3  0  0  0  0  0  0
  188.5630  175.7630  145.3200 C   0  0  0  0  0  0  0  0  0  0  0  0
  185.5180  179.4260  143.2620 C   0  0  0  0  0  3  0  0  0  0  0  0
  185.5150  179.6620  144.6390 C   0  0  0  0  0  3  0  0  0  0  0  0
  186.2560  178.3630  142.7370 C   0  0  0  0  0  3  0  0  0  0  0  0
  186.9950  177.7660  144.9780 C   0  0  0  0  0  0  0  0  0  0  0  0
  189.3460  174.8490  146.1050 C   0  0  0  0  0  0  0  0  0  0  0  0
  190.0030  173.6770  144.0910 C   0  0  0  0  0  0  0  0  0  0  0  0
  187.8140  176.1030  141.6420 C   0  0  0  0  0  3  0  0  0  0  0  0
  187.7840  176.3960  143.0350 C   0  0  0  0  0  0  0  0  0  0  0  0
  186.2490  178.8360  145.4920 C   0  0  0  0  0  3  0  0  0  0  0  0
  190.0930  173.1350  141.8570 O   0  0  0  0  0  0  0  0  0  0  0  0
  189.2840  174.2470  142.0630 C   0  0  0  0  0  0  0  0  0  0  0  0
  190.6160  172.6850  143.1290 C   0  0  1  0  0  3  0  0  0  0  0  0
  188.5230  175.5820  143.9210 C   0  0  0  0  0  0  0  0  0  0  0  0
  192.1450  172.7790  143.1310 C   0  0  1  0  0  3  0  0  0  0  0  0
  192.7610  171.7100  144.0200 C   0  0  0  0  0  1  0  0  0  0  0  0
  192.7190  172.6780  141.7180 C   0  0  0  0  0  2  0  0  0  0  0  0
  192.7210  171.2990  141.2540 N   0  0  0  0  0  2  0  0  0  0  0  0
  193.0220  171.3280  139.9350 O   0  0  0  0  0  0  0  0  0  0  0  0
  191.8970  170.0260  137.6270 C   0  0  0  0  0  1  0  0  0  0  0  0
  190.6720  170.1560  140.0550 O   0  0  0  0  0  1  0  0  0  0  0  0
  190.7820  172.4100  138.7380 O   0  0  0  0  0  0  0  0  0  0  0  0
  191.5660  170.9660  139.1440 P   0  0  1  0  0  0  0  0  0  0  0  0
  189.4640  174.9720  147.5880 C   0  0  0  0  0  2  0  0  0  0  0  0
  190.8600  175.1420  147.9580 N   0  0  0  0  0  2  0  0  0  0  0  0
  191.2830  176.3710  147.4350 N   0  0  0  0  0  2  0  0  0  0  0  0
  192.6430  176.7870  147.5610 C   0  0  0  0  0  3  0  0  0  0  0  0
  193.5720  176.4130  146.6830 C   0  0  0  0  0  3  0  0  0  0  0  0
  193.2780  175.5300  145.5140 C   0  0  0  0  0  2  0  0  0  0  0  0
  193.5850  176.2520  144.2140 C   0  0  0  0  0  2  0  0  0  0  0  0
  192.3180  176.6620  143.5530 C   0  0  0  0  0  0  0  0  0  0  0  0
  192.0480  176.2450  142.3970 O   0  0  0  0  0  0  0  0  0  0  0  0
  191.4460  177.5290  144.1970 O   0  0  0  0  0  1  0  0  0  0  0  0
  1 12  1  0  0  0  0
  3  2  2  0  0  0  0
  4 11  1  0  0  0  0
  5 20  1  0  0  0  0
  5 13  1  0  0  0  0
  6 14  2  0  0  0  0
  6 18  1  0  0  0  0
  7  3  1  0  0  0  0
  7 12  2  0  0  0  0
  8  9  2  0  0  0  0
  9 16  1  0  0  0  0
 10  8  1  0  0  0  0
 10  4  2  0  0  0  0
 11 16  2  0  0  0  0
 11  3  1  0  0  0  0
 12 30  1  0  0  0  0
 13  1  2  0  0  0  0
 14 15  1  0  0  0  0
 15  4  1  0  0  0  0
 15 20  2  0  0  0  0
 17 18  1  0  0  0  0
 17 19  1  0  0  0  0
 18  5  2  0  0  0  0
 19 21  1  6  0  0  0
 19 13  1  0  0  0  0
 20  7  1  0  0  0  0
 21 22  1  1  0  0  0
 23 21  1  0  0  0  0
 24 23  1  0  0  0  0
 25 24  1  0  0  0  0
 28 29  2  0  0  0  0
 29 26  1  6  0  0  0
 29 25  1  0  0  0  0
 29 27  1  0  0  0  0
 30 31  1  0  0  0  0
 32 33  1  0  0  0  0
 32 31  1  0  0  0  0
 34 33  2  0  0  0  0
 35 34  1  0  0  0  0
 36 35  1  0  0  0  0
 37 39  1  0  0  0  0
 37 36  1  0  0  0  0
 38 37  2  0  0  0  0
M  END
>  <MODEL>
6

>  <REMARK>
 VINA RESULT:      -6.8      2.924      6.837
  Name = 
  12 active torsions:
  status: ('A' for Active; 'I' for Inactive)
    1  A    between atoms: C_1  and  N_32
    2  A    between atoms: N_2  and  C_28
    3  A    between atoms: N_2  and  O_35
    4  A    between atoms: C_4  and  C_25
    5  A    between atoms: C_4  and  N_30
    6  A    between atoms: C_8  and  C_34
    7  A    between atoms: C_17  and  C_28
    8  A    between atoms: C_17  and  C_38
    9  A    between atoms: P_20  and  O_35
   10  A    between atoms: C_22  and  C_31
   11  A    between atoms: C_22  and  C_34
   12  A    between atoms: N_30  and  N_32
                            x       y       z     vdW  Elec       q    Type
                         _______ _______ _______ _____ _____    ______ ____

>  <TORSDO>
F 12

$$$$
=
 OpenBabel11042414593D

 39 43  0  0  1  0  0  0  0  0999 V2000
  189.9350  173.9320  145.6250 C   0  0  0  0  0  3  0  0  0  0  0  0
  192.9540  171.5320  143.5900 O   0  0  0  0  0  0  0  0  0  0  0  0
  193.2780  172.5620  144.2400 C   0  0  0  0  0  0  0  0  0  0  0  0
  195.0860  174.1060  145.0560 C   0  0  0  0  0  0  0  0  0  0  0  0
  191.7620  175.2900  146.3030 C   0  0  0  0  0  0  0  0  0  0  0  0
  193.3750  176.8170  147.1670 C   0  0  0  0  0  3  0  0  0  0  0  0
  192.2510  173.3860  144.9360 C   0  0  0  0  0  0  0  0  0  0  0  0
  197.4080  173.7030  144.4660 C   0  0  0  0  0  3  0  0  0  0  0  0
  197.0320  172.5710  143.7390 C   0  0  0  0  0  3  0  0  0  0  0  0
  196.4400  174.4670  145.1210 C   0  0  0  0  0  3  0  0  0  0  0  0
  194.7050  172.9600  144.3190 C   0  0  0  0  0  0  0  0  0  0  0  0
  190.8440  173.0930  144.9340 C   0  0  0  0  0  0  0  0  0  0  0  0
  190.4320  175.0450  146.3050 C   0  0  0  0  0  0  0  0  0  0  0  0
  194.3810  176.0660  146.5120 C   0  0  0  0  0  3  0  0  0  0  0  0
  194.0520  174.9100  145.7480 C   0  0  0  0  0  0  0  0  0  0  0  0
  195.6870  172.2010  143.6670 C   0  0  0  0  0  3  0  0  0  0  0  0
  190.8850  176.9160  147.5640 O   0  0  0  0  0  0  0  0  0  0  0  0
  192.0540  176.3840  147.0340 C   0  0  0  0  0  0  0  0  0  0  0  0
  189.7610  176.1100  147.1430 C   0  0  1  0  0  3  0  0  0  0  0  0
  192.7000  174.5170  145.6510 C   0  0  0  0  0  0  0  0  0  0  0  0
  188.7960  176.9520  146.3020 C   0  0  1  0  0  3  0  0  0  0  0  0
  189.4950  177.5410  145.0860 C   0  0  0  0  0  1  0  0  0  0  0  0
  187.5760  176.1440  145.8640 C   0  0  0  0  0  2  0  0  0  0  0  0
  186.3460  176.7510  146.3500 N   0  0  0  0  0  2  0  0  0  0  0  0
  185.6910  177.2330  145.2680 O   0  0  0  0  0  0  0  0  0  0  0  0
  185.9410  179.2390  147.3180 C   0  0  0  0  0  1  0  0  0  0  0  0
  185.9410  179.7750  144.6490 O   0  0  0  0  0  0  0  0  0  0  0  0
  183.6380  179.0410  145.6400 O   0  0  0  0  0  1  0  0  0  0  0  0
  185.3180  178.8410  145.6600 P   0  0  1  0  0  0  0  0  0  0  0  0
  190.2740  171.9300  144.1910 C   0  0  0  0  0  2  0  0  0  0  0  0
  189.2390  172.3890  143.2790 N   0  0  0  0  0  2  0  0  0  0  0  0
  189.8810  172.9220  142.1540 N   0  0  0  0  0  2  0  0  0  0  0  0
  189.1300  173.3290  141.0100 C   0  0  0  0  0  3  0  0  0  0  0  0
  188.5800  174.5400  140.9300 C   0  0  0  0  0  3  0  0  0  0  0  0
  188.6910  175.5570  142.0180 C   0  0  0  0  0  2  0  0  0  0  0  0
  187.3540  176.2410  142.2430 C   0  0  0  0  0  2  0  0  0  0  0  0
  187.4390  177.6650  141.8200 C   0  0  0  0  0  0  0  0  0  0  0  0
  188.5620  178.2040  141.6470 O   0  0  0  0  0  1  0  0  0  0  0  0
  186.2800  178.4090  141.6460 O   0  0  0  0  0  0  0  0  0  0  0  0
  1 13  1  0  0  0  0
  2  3  2  0  0  0  0
  3 11  1  0  0  0  0
  3  7  1  0  0  0  0
  4 10  1  0  0  0  0
  4 15  1  0  0  0  0
  5 13  2  0  0  0  0
  5 18  1  0  0  0  0
  7 20  2  0  0  0  0
  8 10  2  0  0  0  0
  9  8  1  0  0  0  0
 11  4  2  0  0  0  0
 12  7  1  0  0  0  0
 12  1  2  0  0  0  0
 13 19  1  0  0  0  0
 14  6  1  0  0  0  0
 15 14  2  0  0  0  0
 16  9  2  0  0  0  0
 16 11  1  0  0  0  0
 18  6  2  0  0  0  0
 18 17  1  0  0  0  0
 19 21  1  6  0  0  0
 19 17  1  0  0  0  0
 20 15  1  0  0  0  0
 20  5  1  0  0  0  0
 21 22  1  6  0  0  0
 23 21  1  0  0  0  0
 23 24  1  0  0  0  0
 25 29  1  0  0  0  0
 25 24  1  0  0  0  0
 27 29  2  0  0  0  0
 28 29  1  0  0  0  0
 29 26  1  1  0  0  0
 30 12  1  0  0  0  0
 31 30  1  0  0  0  0
 32 31  1  0  0  0  0
 33 32  1  0  0  0  0
 34 33  2  0  0  0  0
 34 35  1  0  0  0  0
 35 36  1  0  0  0  0
 37 36  1  0  0  0  0
 38 37  1  0  0  0  0
 39 37  2  0  0  0  0
M  END
>  <MODEL>
7

>  <REMARK>
 VINA RESULT:      -6.7      3.027      6.626
  Name = 
  12 active torsions:
  status: ('A' for Active; 'I' for Inactive)
    1  A    between atoms: C_1  and  N_32
    2  A    between atoms: N_2  and  C_28
    3  A    between atoms: N_2  and  O_35
    4  A    between atoms: C_4  and  C_25
    5  A    between atoms: C_4  and  N_30
    6  A    between atoms: C_8  and  C_34
    7  A    between atoms: C_17  and  C_28
    8  A    between atoms: C_17  and  C_38
    9  A    between atoms: P_20  and  O_35
   10  A    between atoms: C_22  and  C_31
   11  A    between atoms: C_22  and  C_34
   12  A    between atoms: N_30  and  N_32
                            x       y       z     vdW  Elec       q    Type
                         _______ _______ _______ _____ _____    ______ ____

>  <TORSDO>
F 12

$$$$
=
 OpenBabel11042414593D

 39 43  0  0  1  0  0  0  0  0999 V2000
  190.6660  174.0750  145.0770 C   0  0  0  0  0  3  0  0  0  0  0  0
  188.2940  177.1730  147.0250 O   0  0  0  0  0  0  0  0  0  0  0  0
  188.1410  176.9170  145.8000 C   0  0  0  0  0  0  0  0  0  0  0  0
  186.9450  177.3900  143.6400 C   0  0  0  0  0  0  0  0  0  0  0  0
  189.4450  174.6540  143.1220 C   0  0  0  0  0  0  0  0  0  0  0  0
  188.3740  174.9770  141.0180 C   0  0  0  0  0  3  0  0  0  0  0  0
  188.9490  175.8610  145.1290 C   0  0  0  0  0  0  0  0  0  0  0  0
  185.2340  179.1110  143.5310 C   0  0  0  0  0  3  0  0  0  0  0  0
  185.4240  179.3920  144.8860 C   0  0  0  0  0  3  0  0  0  0  0  0
  185.9910  178.1150  142.9110 C   0  0  0  0  0  3  0  0  0  0  0  0
  187.1370  177.6750  145.0120 C   0  0  0  0  0  0  0  0  0  0  0  0
  189.9420  175.0610  145.7920 C   0  0  0  0  0  0  0  0  0  0  0  0
  190.3940  173.8970  143.7190 C   0  0  0  0  0  0  0  0  0  0  0  0
  187.5930  175.9960  141.6160 C   0  0  0  0  0  3  0  0  0  0  0  0
  187.7520  176.3310  142.9910 C   0  0  0  0  0  0  0  0  0  0  0  0
  186.3700  178.6770  145.6230 C   0  0  0  0  0  3  0  0  0  0  0  0
  190.1870  173.2930  141.5090 O   0  0  0  0  0  0  0  0  0  0  0  0
  189.3050  174.3200  141.8240 C   0  0  0  0  0  0  0  0  0  0  0  0
  190.9520  172.9440  142.6860 C   0  0  1  0  0  3  0  0  0  0  0  0
  188.7070  175.6300  143.7580 C   0  0  0  0  0  0  0  0  0  0  0  0
  192.4420  173.1980  142.4390 C   0  0  1  0  0  3  0  0  0  0  0  0
  193.2590  171.9320  142.6480 C   0  0  0  0  0  1  0  0  0  0  0  0
  192.6950  173.7590  141.0410 C   0  0  0  0  0  2  0  0  0  0  0  0
  193.4480  175.0040  141.1070 N   0  0  0  0  0  2  0  0  0  0  0  0
  194.1970  175.0700  139.9820 O   0  0  0  0  0  0  0  0  0  0  0  0
  195.9700  176.7530  141.5030 C   0  0  0  0  0  1  0  0  0  0  0  0
  196.1740  174.0410  141.3750 O   0  0  0  0  0  1  0  0  0  0  0  0
  196.8300  175.3140  139.1900 O   0  0  0  0  0  0  0  0  0  0  0  0
  195.7950  175.2330  140.5260 P   0  0  1  0  0  0  0  0  0  0  0  0
  190.2790  175.2460  147.2350 C   0  0  0  0  0  2  0  0  0  0  0  0
  191.7240  175.2800  147.4020 N   0  0  0  0  0  2  0  0  0  0  0  0
  192.1900  176.4330  146.7560 N   0  0  0  0  0  2  0  0  0  0  0  0
  193.5510  176.8430  146.8910 C   0  0  0  0  0  3  0  0  0  0  0  0
  194.5010  176.3930  146.0740 C   0  0  0  0  0  3  0  0  0  0  0  0
  194.2300  175.4240  144.9690 C   0  0  0  0  0  2  0  0  0  0  0  0
  194.8060  174.0610  145.3060 C   0  0  0  0  0  2  0  0  0  0  0  0
  196.2800  174.1630  145.4740 C   0  0  0  0  0  0  0  0  0  0  0  0
  196.8290  173.7120  146.5120 O   0  0  0  0  0  1  0  0  0  0  0  0
  197.0490  174.7830  144.4980 O   0  0  0  0  0  0  0  0  0  0  0  0
  1 12  1  0  0  0  0
  3  2  2  0  0  0  0
  4 11  1  0  0  0  0
  5 13  1  0  0  0  0
  5 20  1  0  0  0  0
  6 14  2  0  0  0  0
  6 18  1  0  0  0  0
  7 12  2  0  0  0  0
  7  3  1  0  0  0  0
  8  9  2  0  0  0  0
  9 16  1  0  0  0  0
 10  8  1  0  0  0  0
 10  4  2  0  0  0  0
 11 16  2  0  0  0  0
 11  3  1  0  0  0  0
 12 30  1  0  0  0  0
 13  1  2  0  0  0  0
 14 15  1  0  0  0  0
 15  4  1  0  0  0  0
 15 20  2  0  0  0  0
 17 18  1  0  0  0  0
 17 19  1  0  0  0  0
 18  5  2  0  0  0  0
 19 21  1  6  0  0  0
 19 13  1  0  0  0  0
 20  7  1  0  0  0  0
 21 22  1  6  0  0  0
 23 24  1  0  0  0  0
 23 21  1  0  0  0  0
 25 29  1  0  0  0  0
 25 24  1  0  0  0  0
 28 29  2  0  0  0  0
 29 27  1  0  0  0  0
 29 26  1  1  0  0  0
 30 31  1  0  0  0  0
 32 33  1  0  0  0  0
 32 31  1  0  0  0  0
 34 33  2  0  0  0  0
 35 36  1  0  0  0  0
 35 34  1  0  0  0  0
 36 37  1  0  0  0  0
 37 38  1  0  0  0  0
 39 37  2  0  0  0  0
M  END
>  <MODEL>
8

>  <REMARK>
 VINA RESULT:      -6.6      2.933      7.131
  Name = 
  12 active torsions:
  status: ('A' for Active; 'I' for Inactive)
    1  A    between atoms: C_1  and  N_32
    2  A    between atoms: N_2  and  C_28
    3  A    between atoms: N_2  and  O_35
    4  A    between atoms: C_4  and  C_25
    5  A    between atoms: C_4  and  N_30
    6  A    between atoms: C_8  and  C_34
    7  A    between atoms: C_17  and  C_28
    8  A    between atoms: C_17  and  C_38
    9  A    between atoms: P_20  and  O_35
   10  A    between atoms: C_22  and  C_31
   11  A    between atoms: C_22  and  C_34
   12  A    between atoms: N_30  and  N_32
                            x       y       z     vdW  Elec       q    Type
                         _______ _______ _______ _____ _____    ______ ____

>  <TORSDO>
F 12

$$$$
=
 OpenBabel11042414593D

 39 43  0  0  1  0  0  0  0  0999 V2000
  189.8080  173.2070  143.5850 C   0  0  0  0  0  3  0  0  0  0  0  0
  193.4840  170.8850  143.9140 O   0  0  0  0  0  0  0  0  0  0  0  0
  193.4210  172.0630  144.3590 C   0  0  0  0  0  0  0  0  0  0  0  0
  194.5540  173.9800  145.5250 C   0  0  0  0  0  0  0  0  0  0  0  0
  191.0290  174.9190  144.6910 C   0  0  0  0  0  0  0  0  0  0  0  0
  191.9680  176.8030  145.8080 C   0  0  0  0  0  3  0  0  0  0  0  0
  192.1690  172.8610  144.2490 C   0  0  0  0  0  0  0  0  0  0  0  0
  196.8690  173.7930  146.2390 C   0  0  0  0  0  3  0  0  0  0  0  0
  196.9260  172.4940  145.7300 C   0  0  0  0  0  3  0  0  0  0  0  0
  195.6890  174.5330  146.1370 C   0  0  0  0  0  3  0  0  0  0  0  0
  194.6120  172.6640  145.0090 C   0  0  0  0  0  0  0  0  0  0  0  0
  190.9560  172.3790  143.6470 C   0  0  0  0  0  0  0  0  0  0  0  0
  189.8790  174.4960  144.1180 C   0  0  0  0  0  0  0  0  0  0  0  0
  193.1800  176.0810  145.9240 C   0  0  0  0  0  3  0  0  0  0  0  0
  193.2980  174.7570  145.4130 C   0  0  0  0  0  0  0  0  0  0  0  0
  195.8030  171.9320  145.1190 C   0  0  0  0  0  3  0  0  0  0  0  0
  189.6100  176.6320  144.9270 O   0  0  0  0  0  0  0  0  0  0  0  0
  190.8980  176.1710  145.1720 C   0  0  0  0  0  0  0  0  0  0  0  0
  188.8600  175.6070  144.2360 C   0  0  1  0  0  3  0  0  0  0  0  0
  192.1810  174.1670  144.7830 C   0  0  0  0  0  0  0  0  0  0  0  0
  188.4260  176.1130  142.8560 C   0  0  1  0  0  3  0  0  0  0  0  0
  187.0670  175.5490  142.4660 C   0  0  0  0  0  1  0  0  0  0  0  0
  188.3950  177.6390  142.7990 C   0  0  0  0  0  2  0  0  0  0  0  0
  187.0400  178.1400  142.9790 N   0  0  0  0  0  2  0  0  0  0  0  0
  186.9810  178.6750  144.2220 O   0  0  0  0  0  0  0  0  0  0  0  0
  185.5540  176.7940  145.8690 C   0  0  0  0  0  1  0  0  0  0  0  0
  184.8640  179.4130  145.5930 O   0  0  0  0  0  1  0  0  0  0  0  0
  184.4280  177.9170  143.4970 O   0  0  0  0  0  0  0  0  0  0  0  0
  185.4430  178.2610  144.8060 P   0  0  1  0  0  0  0  0  0  0  0  0
  190.8540  171.0200  143.0400 C   0  0  0  0  0  2  0  0  0  0  0  0
  190.1860  171.1060  141.7500 N   0  0  0  0  0  2  0  0  0  0  0  0
  191.1390  171.5290  140.8150 N   0  0  0  0  0  2  0  0  0  0  0  0
  190.8260  172.5500  139.8670 C   0  0  0  0  0  3  0  0  0  0  0  0
  191.6850  173.5260  139.5830 C   0  0  0  0  0  3  0  0  0  0  0  0
  193.0260  173.6440  140.2310 C   0  0  0  0  0  2  0  0  0  0  0  0
  193.0170  174.7520  141.2700 C   0  0  0  0  0  2  0  0  0  0  0  0
  194.3700  174.8880  141.8740 C   0  0  0  0  0  0  0  0  0  0  0  0
  194.7060  175.9660  142.4280 O   0  0  0  0  0  1  0  0  0  0  0  0
  195.2730  173.8360  141.8000 O   0  0  0  0  0  0  0  0  0  0  0  0
  1 12  2  0  0  0  0
  1 13  1  0  0  0  0
  2  3  2  0  0  0  0
  3 11  1  0  0  0  0
  4 10  1  0  0  0  0
  5 20  1  0  0  0  0
  5 18  1  0  0  0  0
  6 14  1  0  0  0  0
  7  3  1  0  0  0  0
  7 20  2  0  0  0  0
  9  8  1  0  0  0  0
 10  8  2  0  0  0  0
 11 16  1  0  0  0  0
 11  4  2  0  0  0  0
 12  7  1  0  0  0  0
 13 19  1  0  0  0  0
 13  5  2  0  0  0  0
 15  4  1  0  0  0  0
 15 14  2  0  0  0  0
 16  9  2  0  0  0  0
 17 18  1  0  0  0  0
 18  6  2  0  0  0  0
 19 21  1  6  0  0  0
 19 17  1  0  0  0  0
 20 15  1  0  0  0  0
 21 22  1  1  0  0  0
 23 21  1  0  0  0  0
 23 24  1  0  0  0  0
 24 25  1  0  0  0  0
 25 29  1  0  0  0  0
 28 29  2  0  0  0  0
 29 27  1  0  0  0  0
 29 26  1  1  0  0  0
 30 12  1  0  0  0  0
 31 30  1  0  0  0  0
 32 31  1  0  0  0  0
 33 32  1  0  0  0  0
 34 33  2  0  0  0  0
 34 35  1  0  0  0  0
 35 36  1  0  0  0  0
 36 37  1  0  0  0  0
 37 38  1  0  0  0  0
 39 37  2  0  0  0  0
M  END
>  <MODEL>
9

>  <REMARK>
 VINA RESULT:      -6.4      3.351      7.769
  Name = 
  12 active torsions:
  status: ('A' for Active; 'I' for Inactive)
    1  A    between atoms: C_1  and  N_32
    2  A    between atoms: N_2  and  C_28
    3  A    between atoms: N_2  and  O_35
    4  A    between atoms: C_4  and  C_25
    5  A    between atoms: C_4  and  N_30
    6  A    between atoms: C_8  and  C_34
    7  A    between atoms: C_17  and  C_28
    8  A    between atoms: C_17  and  C_38
    9  A    between atoms: P_20  and  O_35
   10  A    between atoms: C_22  and  C_31
   11  A    between atoms: C_22  and  C_34
   12  A    between atoms: N_30  and  N_32
                            x       y       z     vdW  Elec       q    Type
                         _______ _______ _______ _____ _____    ______ ____

>  <TORSDO>
F 12

$$$$
