=
 OpenBabel11042416213D

 66 75  0  0  1  0  0  0  0  0999 V2000
  186.2830  177.6540  142.2230 C   0  0  0  0  0  0  0  0  0  0  0  0
  183.9920  178.3890  142.5690 C   0  0  0  0  0  0  0  0  0  0  0  0
  181.4750  179.0200  141.4540 C   0  0  0  0  0  0  0  0  0  0  0  0
  185.2520  178.0650  143.1060 C   0  0  0  0  0  0  0  0  0  0  0  0
  181.6990  179.1370  142.8370 C   0  0  0  0  0  3  0  0  0  0  0  0
  183.7730  178.2570  141.1790 C   0  0  0  0  0  0  0  0  0  0  0  0
  184.7760  177.8350  140.3680 N   0  0  0  0  0  0  0  0  0  0  0  0
  182.9430  178.8250  143.3890 C   0  0  0  0  0  3  0  0  0  0  0  0
  182.5240  178.5670  140.6360 C   0  0  0  0  0  3  0  0  0  0  0  0
  186.0090  177.5440  140.8550 C   0  0  0  0  0  3  0  0  0  0  0  0
  177.6920  180.0210  139.6690 C   0  0  0  0  0  3  0  0  0  0  0  0
  178.7880  180.8750  139.5490 C   0  0  0  0  0  3  0  0  0  0  0  0
  180.0040  180.5320  140.1400 C   0  0  0  0  0  3  0  0  0  0  0  0
  179.0300  178.4710  140.9870 C   0  0  0  0  0  0  0  0  0  0  0  0
  177.8120  178.8310  140.3840 C   0  0  0  0  0  3  0  0  0  0  0  0
  180.1490  179.3320  140.8580 C   0  0  0  0  0  0  0  0  0  0  0  0
  179.1290  177.2830  141.7230 O   0  0  0  0  0  0  0  0  0  0  0  0
  178.3090  176.9980  142.8480 C   0  0  0  0  0  1  0  0  0  0  0  0
  185.4460  178.1730  144.5270 N   0  0  0  0  0  2  0  0  0  0  0  0
  185.9330  177.3940  147.5010 C   0  0  0  0  0  2  0  0  0  0  0  0
  186.0620  177.1590  145.3700 C   0  0  2  0  0  3  0  0  0  0  0  0
  185.0760  176.7250  146.4400 C   0  0  0  0  0  2  0  0  0  0  0  0
  186.9200  177.8250  146.4340 C   0  0  2  0  0  3  0  0  0  0  0  0
  188.2180  177.0990  146.6150 C   0  0  0  0  0  0  0  0  0  0  0  0
  189.3010  177.7320  146.4710 O   0  0  0  0  0  0  0  0  0  0  0  0
  188.2280  175.7470  146.9740 O   0  0  0  0  0  0  0  0  0  0  0  0
  190.4130  175.0410  146.2800 C   0  0  1  0  0  3  0  0  0  0  0  0
  189.5840  173.8200  146.6070 C   0  0  0  0  0  2  0  0  0  0  0  0
  189.4070  175.0890  147.4120 C   0  0  2  0  0  3  0  0  0  0  0  0
  191.8160  174.8280  146.8340 C   0  0  0  0  0  2  0  0  0  0  0  0
  192.3180  177.1620  144.1190 C   0  0  0  0  0  2  0  0  0  0  0  0
  192.9270  175.3460  145.9230 C   0  0  2  0  0  0  0  0  0  0  0  0
  195.1710  174.8640  144.8290 C   0  0  0  0  0  2  0  0  0  0  0  0
  194.7360  177.1310  145.7290 C   0  0  0  0  0  2  0  0  0  0  0  0
  194.0510  174.3010  145.7440 C   0  0  0  0  0  2  0  0  0  0  0  0
  194.8650  176.3210  144.4240 C   0  0  2  0  0  3  0  0  0  0  0  0
  193.5810  176.5760  146.5970 C   0  0  0  0  0  2  0  0  0  0  0  0
  193.5080  176.3230  143.6750 C   0  0  2  0  0  0  0  0  0  0  0  0
  193.4940  175.9020  142.3470 O   0  0  0  0  0  1  0  0  0  0  0  0
  192.3820  175.6780  144.4980 C   0  0  2  0  0  3  0  0  0  0  0  0
  187.6870  177.4190  142.6820 C   0  0  0  0  0  2  0  0  0  0  0  0
  188.5040  176.7240  141.6040 C   0  0  0  0  0  2  0  0  0  0  0  0
  188.4990  175.2840  141.8200 N   0  0  0  0  0  0  0  0  0  0  0  0
  189.2840  173.4350  143.1400 C   0  0  0  0  0  0  0  0  0  0  0  0
  189.0090  174.7070  143.0300 C   0  0  0  0  0  3  0  0  0  0  0  0
  189.5640  172.1660  143.2690 C   0  0  0  0  0  3  0  0  0  0  0  0
  190.9410  171.6670  143.1940 C   0  0  0  0  0  0  0  0  0  0  0  0
  191.9430  172.2460  143.7740 N   0  0  0  0  0  0  0  0  0  0  0  0
  191.2830  170.4810  142.4890 N   0  0  0  0  0  0  0  0  0  0  0  0
  192.5530  170.3600  142.6630 C   0  0  0  0  0  0  0  0  0  0  0  0
  193.1280  171.4550  143.4880 C   0  0  0  0  0  2  0  0  0  0  0  0
  193.3030  169.2790  142.1220 N   0  0  0  0  0  1  0  0  0  0  0  0
  187.7750  174.4670  140.9370 N   0  0  0  0  0  2  0  0  0  0  0  0
  188.4620  174.4650  139.7140 N   0  0  0  0  0  2  0  0  0  0  0  0
  188.9080  173.1050  139.4830 C   0  0  0  0  0  2  0  0  0  0  0  0
  190.1320  173.1220  138.6960 N   0  0  0  0  0  2  0  0  0  0  0  0
  191.0080  172.1120  139.2640 C   0  0  1  0  0  3  0  0  0  0  0  0
  191.9200  169.9380  138.8750 O   0  0  0  0  0  1  0  0  0  0  0  0
  191.2170  170.9800  138.2690 C   0  0  0  0  0  2  0  0  0  0  0  0
  192.3300  172.7400  139.7020 C   0  0  0  0  0  2  0  0  0  0  0  0
  193.1690  173.2070  138.5220 C   0  0  2  0  0  3  0  0  0  0  0  0
  194.5010  173.3570  138.9430 O   0  0  0  0  0  0  0  0  0  0  0  0
  193.7460  174.5380  138.8140 C   0  0  1  0  0  3  0  0  0  0  0  0
  193.1350  175.8070  136.7170 N   0  0  0  0  0  1  0  0  0  0  0  0
  194.1350  175.2330  137.5520 C   0  0  0  0  0  0  0  0  0  0  0  0
  195.3450  175.2870  137.2080 O   0  0  0  0  0  0  0  0  0  0  0  0
  1 41  1  0  0  0  0
  1  4  1  0  0  0  0
  2  4  2  0  0  0  0
  2  8  1  0  0  0  0
  3  5  1  0  0  0  0
  4 19  1  0  0  0  0
  5  8  2  0  0  0  0
  6  2  1  0  0  0  0
  7 10  1  0  0  0  0
  7  6  2  0  0  0  0
  9  6  1  0  0  0  0
  9  3  2  0  0  0  0
 10  1  2  0  0  0  0
 11 15  1  0  0  0  0
 12 11  2  0  0  0  0
 12 13  1  0  0  0  0
 13 16  2  0  0  0  0
 14 17  1  0  0  0  0
 15 14  2  0  0  0  0
 16 14  1  0  0  0  0
 16  3  1  0  0  0  0
 17 18  1  0  0  0  0
 21 19  1  6  0  0  0
 21 23  1  0  0  0  0
 21 22  1  0  0  0  0
 22 20  1  0  0  0  0
 23 24  1  1  0  0  0
 23 20  1  0  0  0  0
 24 26  1  0  0  0  0
 25 24  2  0  0  0  0
 27 28  1  0  0  0  0
 27 30  1  1  0  0  0
 27 29  1  0  0  0  0
 28 29  1  0  0  0  0
 29 26  1  6  0  0  0
 32 37  1  0  0  0  0
 32 30  1  1  0  0  0
 33 35  1  0  0  0  0
 34 37  1  0  0  0  0
 35 32  1  0  0  0  0
 36 33  1  1  0  0  0
 36 34  1  0  0  0  0
 38 39  1  6  0  0  0
 38 31  1  0  0  0  0
 38 36  1  0  0  0  0
 38 40  1  0  0  0  0
 40 31  1  1  0  0  0
 40 32  1  0  0  0  0
 42 43  1  0  0  0  0
 42 41  1  0  0  0  0
 43 45  1  0  0  0  0
 44 46  2  0  0  0  0
 45 44  2  0  0  0  0
 47 46  1  0  0  0  0
 47 48  2  0  0  0  0
 49 50  2  0  0  0  0
 49 47  1  0  0  0  0
 50 51  1  0  0  0  0
 51 48  1  0  0  0  0
 52 50  1  0  0  0  0
 53 43  1  0  0  0  0
 54 53  1  0  0  0  0
 55 54  1  0  0  0  0
 56 57  1  0  0  0  0
 56 55  1  0  0  0  0
 57 59  1  6  0  0  0
 57 60  1  0  0  0  0
 59 58  1  0  0  0  0
 61 63  1  0  0  0  0
 61 62  1  0  0  0  0
 61 60  1  1  0  0  0
 63 65  1  6  0  0  0
 63 62  1  0  0  0  0
 64 65  1  0  0  0  0
 66 65  2  0  0  0  0
M  END
>  <MODEL>
1

>  <REMARK>
 VINA RESULT:      -7.4      0.000      0.000
  Name = 
  23 active torsions:
  status: ('A' for Active; 'I' for Inactive)
    1  A    between atoms: C_1  and  C_19
    2  A    between atoms: C_3  and  C_45
    3  A    between atoms: C_4  and  C_45
    4  A    between atoms: C_5  and  C_6
    5  A    between atoms: C_6  and  CA_58
    6  A    between atoms: C_8  and  O_18
    7  A    between atoms: C_8  and  C_62
    8  A    between atoms: C_11  and  C_53
    9  A    between atoms: C_12  and  N_61
   10  A    between atoms: C_14  and  N_33
   11  A    between atoms: C_15  and  C_43
   12  A    between atoms: O_18  and  C_28
   13  A    between atoms: C_19  and  C_22
   14  A    between atoms: C_22  and  N_33
   15  A    between atoms: C_24  and  N_61
   16  A    between atoms: C_25  and  C_60
   17  A    between atoms: C_30  and  N_31
   18  A    between atoms: C_30  and  N_39
   19  A    between atoms: N_31  and  CA_58
   20  A    between atoms: N_33  and  N_57
   21  A    between atoms: O_36  and  C_42
   22  A    between atoms: N_39  and  N_57
   23  A    between atoms: C_54  and  CA_58
                            x       y       z     vdW  Elec       q    Type
                         _______ _______ _______ _____ _____    ______ ____

>  <TORSDO>
F 23

$$$$
=
 OpenBabel11042416213D

 66 75  0  0  1  0  0  0  0  0999 V2000
  186.3730  177.5740  142.0880 C   0  0  0  0  0  0  0  0  0  0  0  0
  184.1140  178.3310  142.5650 C   0  0  0  0  0  0  0  0  0  0  0  0
  181.5500  179.0100  141.5940 C   0  0  0  0  0  0  0  0  0  0  0  0
  185.3960  177.9830  143.0300 C   0  0  0  0  0  0  0  0  0  0  0  0
  181.8480  179.1020  142.9650 C   0  0  0  0  0  3  0  0  0  0  0  0
  183.8210  178.2250  141.1870 C   0  0  0  0  0  0  0  0  0  0  0  0
  184.7750  177.8040  140.3170 N   0  0  0  0  0  0  0  0  0  0  0  0
  183.1150  178.7660  143.4460 C   0  0  0  0  0  3  0  0  0  0  0  0
  182.5490  178.5590  140.7150 C   0  0  0  0  0  3  0  0  0  0  0  0
  186.0270  177.4910  140.7340 C   0  0  0  0  0  3  0  0  0  0  0  0
  177.6930  180.0850  140.0240 C   0  0  0  0  0  3  0  0  0  0  0  0
  178.7960  180.9170  139.8420 C   0  0  0  0  0  3  0  0  0  0  0  0
  180.0370  180.5510  140.3630 C   0  0  0  0  0  3  0  0  0  0  0  0
  179.0720  178.5090  141.2660 C   0  0  0  0  0  0  0  0  0  0  0  0
  177.8290  178.8930  140.7330 C   0  0  0  0  0  3  0  0  0  0  0  0
  180.1990  179.3490  141.0740 C   0  0  0  0  0  0  0  0  0  0  0  0
  179.1890  177.3200  141.9970 O   0  0  0  0  0  0  0  0  0  0  0  0
  178.1760  176.8440  142.8720 C   0  0  0  0  0  1  0  0  0  0  0  0
  185.6650  178.0640  144.4400 N   0  0  0  0  0  2  0  0  0  0  0  0
  186.4330  177.3310  147.3660 C   0  0  0  0  0  2  0  0  0  0  0  0
  186.0750  176.9500  145.2830 C   0  0  2  0  0  3  0  0  0  0  0  0
  185.2230  176.9300  146.5400 C   0  0  0  0  0  2  0  0  0  0  0  0
  187.2860  177.3490  146.1120 C   0  0  2  0  0  3  0  0  0  0  0  0
  188.2940  176.2420  146.1630 C   0  0  0  0  0  0  0  0  0  0  0  0
  188.3840  175.4480  145.1860 O   0  0  0  0  0  0  0  0  0  0  0  0
  189.1470  176.1130  147.2640 O   0  0  0  0  0  0  0  0  0  0  0  0
  191.4900  175.8090  146.8510 C   0  0  1  0  0  3  0  0  0  0  0  0
  191.2790  176.0390  148.3310 C   0  0  0  0  0  2  0  0  0  0  0  0
  190.4090  176.7600  147.3230 C   0  0  2  0  0  3  0  0  0  0  0  0
  192.7230  176.5900  146.4180 C   0  0  0  0  0  2  0  0  0  0  0  0
  195.7740  175.2080  145.0570 C   0  0  0  0  0  2  0  0  0  0  0  0
  193.3110  176.1310  145.0840 C   0  0  2  0  0  0  0  0  0  0  0  0
  193.2590  176.3600  142.5530 C   0  0  0  0  0  2  0  0  0  0  0  0
  193.5460  174.1090  143.5500 C   0  0  0  0  0  2  0  0  0  0  0  0
  192.6530  176.8600  143.8910 C   0  0  0  0  0  2  0  0  0  0  0  0
  194.2870  175.2370  142.8040 C   0  0  2  0  0  3  0  0  0  0  0  0
  192.9960  174.6270  144.9010 C   0  0  0  0  0  2  0  0  0  0  0  0
  195.4000  175.8170  143.7130 C   0  0  2  0  0  0  0  0  0  0  0  0
  196.3650  176.6330  143.1250 O   0  0  0  0  0  1  0  0  0  0  0  0
  194.8430  176.4240  145.0100 C   0  0  2  0  0  3  0  0  0  0  0  0
  187.7960  177.3150  142.4680 C   0  0  0  0  0  2  0  0  0  0  0  0
  188.6010  176.8320  141.2720 C   0  0  0  0  0  2  0  0  0  0  0  0
  188.9280  175.4210  141.4230 N   0  0  0  0  0  0  0  0  0  0  0  0
  189.8850  173.8230  142.9430 C   0  0  0  0  0  0  0  0  0  0  0  0
  189.9390  174.9810  142.3400 C   0  0  0  0  0  3  0  0  0  0  0  0
  189.8480  172.6700  143.5550 C   0  0  0  0  0  3  0  0  0  0  0  0
  190.6520  171.5290  143.1030 C   0  0  0  0  0  0  0  0  0  0  0  0
  191.7310  171.1360  143.6990 N   0  0  0  0  0  0  0  0  0  0  0  0
  190.2910  170.7430  141.9760 N   0  0  0  0  0  0  0  0  0  0  0  0
  191.2090  169.8430  141.9060 C   0  0  0  0  0  0  0  0  0  0  0  0
  192.2310  169.9790  142.9760 C   0  0  0  0  0  2  0  0  0  0  0  0
  191.2170  168.8290  140.9080 N   0  0  0  0  0  1  0  0  0  0  0  0
  188.0870  174.4620  140.8370 N   0  0  0  0  0  2  0  0  0  0  0  0
  188.1090  174.6800  139.4510 N   0  0  0  0  0  2  0  0  0  0  0  0
  189.1370  173.8160  138.9050 C   0  0  0  0  0  2  0  0  0  0  0  0
  188.5200  172.7890  138.0780 N   0  0  0  0  0  2  0  0  0  0  0  0
  189.1880  172.8320  136.7900 C   0  0  1  0  0  3  0  0  0  0  0  0
  189.7020  174.9780  135.8720 O   0  0  0  0  0  1  0  0  0  0  0  0
  190.1680  173.9950  136.7460 C   0  0  0  0  0  2  0  0  0  0  0  0
  189.8710  171.4960  136.5010 C   0  0  0  0  0  2  0  0  0  0  0  0
  191.3750  171.5550  136.7240 C   0  0  2  0  0  3  0  0  0  0  0  0
  191.9340  170.3130  136.3790 O   0  0  0  0  0  0  0  0  0  0  0  0
  191.7670  170.5660  137.7540 C   0  0  1  0  0  3  0  0  0  0  0  0
  194.2900  170.6250  137.6490 N   0  0  0  0  0  1  0  0  0  0  0  0
  193.0870  170.9210  138.3510 C   0  0  0  0  0  0  0  0  0  0  0  0
  193.1420  171.4560  139.4900 O   0  0  0  0  0  0  0  0  0  0  0  0
  1 41  1  0  0  0  0
  1  4  1  0  0  0  0
  2  4  2  0  0  0  0
  2  8  1  0  0  0  0
  3  5  1  0  0  0  0
  4 19  1  0  0  0  0
  5  8  2  0  0  0  0
  6  2  1  0  0  0  0
  7 10  1  0  0  0  0
  7  6  2  0  0  0  0
  9  6  1  0  0  0  0
  9  3  2  0  0  0  0
 10  1  2  0  0  0  0
 11 15  1  0  0  0  0
 12 11  2  0  0  0  0
 12 13  1  0  0  0  0
 13 16  2  0  0  0  0
 14 17  1  0  0  0  0
 15 14  2  0  0  0  0
 16 14  1  0  0  0  0
 16  3  1  0  0  0  0
 17 18  1  0  0  0  0
 21 19  1  6  0  0  0
 21 23  1  0  0  0  0
 21 22  1  0  0  0  0
 22 20  1  0  0  0  0
 23 24  1  1  0  0  0
 23 20  1  0  0  0  0
 24 26  1  0  0  0  0
 25 24  2  0  0  0  0
 27 30  1  6  0  0  0
 27 29  1  0  0  0  0
 27 28  1  0  0  0  0
 29 26  1  1  0  0  0
 29 28  1  0  0  0  0
 32 30  1  1  0  0  0
 33 35  1  0  0  0  0
 34 37  1  0  0  0  0
 35 32  1  0  0  0  0
 36 33  1  1  0  0  0
 36 34  1  0  0  0  0
 36 38  1  0  0  0  0
 37 32  1  0  0  0  0
 38 39  1  6  0  0  0
 38 40  1  0  0  0  0
 38 31  1  0  0  0  0
 40 31  1  1  0  0  0
 40 32  1  0  0  0  0
 42 43  1  0  0  0  0
 42 41  1  0  0  0  0
 43 45  1  0  0  0  0
 44 46  2  0  0  0  0
 45 44  2  0  0  0  0
 47 46  1  0  0  0  0
 47 48  2  0  0  0  0
 49 47  1  0  0  0  0
 50 49  2  0  0  0  0
 50 51  1  0  0  0  0
 51 48  1  0  0  0  0
 52 50  1  0  0  0  0
 53 43  1  0  0  0  0
 54 53  1  0  0  0  0
 55 54  1  0  0  0  0
 56 55  1  0  0  0  0
 57 60  1  1  0  0  0
 57 56  1  0  0  0  0
 58 59  1  0  0  0  0
 59 57  1  0  0  0  0
 61 60  1  6  0  0  0
 61 63  1  0  0  0  0
 62 61  1  0  0  0  0
 62 63  1  0  0  0  0
 63 65  1  1  0  0  0
 64 65  1  0  0  0  0
 65 66  2  0  0  0  0
M  END
>  <MODEL>
2

>  <REMARK>
 VINA RESULT:      -7.2      1.613      2.296
  Name = 
  23 active torsions:
  status: ('A' for Active; 'I' for Inactive)
    1  A    between atoms: C_1  and  C_19
    2  A    between atoms: C_3  and  C_45
    3  A    between atoms: C_4  and  C_45
    4  A    between atoms: C_5  and  C_6
    5  A    between atoms: C_6  and  CA_58
    6  A    between atoms: C_8  and  O_18
    7  A    between atoms: C_8  and  C_62
    8  A    between atoms: C_11  and  C_53
    9  A    between atoms: C_12  and  N_61
   10  A    between atoms: C_14  and  N_33
   11  A    between atoms: C_15  and  C_43
   12  A    between atoms: O_18  and  C_28
   13  A    between atoms: C_19  and  C_22
   14  A    between atoms: C_22  and  N_33
   15  A    between atoms: C_24  and  N_61
   16  A    between atoms: C_25  and  C_60
   17  A    between atoms: C_30  and  N_31
   18  A    between atoms: C_30  and  N_39
   19  A    between atoms: N_31  and  CA_58
   20  A    between atoms: N_33  and  N_57
   21  A    between atoms: O_36  and  C_42
   22  A    between atoms: N_39  and  N_57
   23  A    between atoms: C_54  and  CA_58
                            x       y       z     vdW  Elec       q    Type
                         _______ _______ _______ _____ _____    ______ ____

>  <TORSDO>
F 23

$$$$
=
 OpenBabel11042416213D

 66 75  0  0  1  0  0  0  0  0999 V2000
  190.3130  175.5070  142.6780 C   0  0  0  0  0  0  0  0  0  0  0  0
  191.7330  174.3700  141.0660 C   0  0  0  0  0  0  0  0  0  0  0  0
  191.9530  172.5510  138.9180 C   0  0  0  0  0  0  0  0  0  0  0  0
  191.6020  175.2780  142.1340 C   0  0  0  0  0  0  0  0  0  0  0  0
  193.0920  173.1850  139.4420 C   0  0  0  0  0  3  0  0  0  0  0  0
  190.5810  173.7460  140.5380 C   0  0  0  0  0  0  0  0  0  0  0  0
  189.3590  174.0100  141.0680 N   0  0  0  0  0  0  0  0  0  0  0  0
  192.9840  174.0860  140.5040 C   0  0  0  0  0  3  0  0  0  0  0  0
  190.6970  172.8500  139.4720 C   0  0  0  0  0  3  0  0  0  0  0  0
  189.2070  174.8570  142.1170 C   0  0  0  0  0  3  0  0  0  0  0  0
  192.2650  169.7190  135.6950 C   0  0  0  0  0  3  0  0  0  0  0  0
  192.5760  169.3510  137.0030 C   0  0  0  0  0  3  0  0  0  0  0  0
  192.4720  170.2870  138.0320 C   0  0  0  0  0  3  0  0  0  0  0  0
  191.7480  171.9780  136.4420 C   0  0  0  0  0  0  0  0  0  0  0  0
  191.8570  171.0220  135.4170 C   0  0  0  0  0  3  0  0  0  0  0  0
  192.0540  171.6050  137.7750 C   0  0  0  0  0  0  0  0  0  0  0  0
  191.3600  173.2910  136.1440 O   0  0  0  0  0  0  0  0  0  0  0  0
  192.1210  174.1540  135.3080 C   0  0  0  0  0  1  0  0  0  0  0  0
  192.7820  175.9300  142.6350 N   0  0  0  0  0  2  0  0  0  0  0  0
  194.8710  176.5580  144.8550 C   0  0  0  0  0  2  0  0  0  0  0  0
  193.7890  175.3100  143.4830 C   0  0  2  0  0  3  0  0  0  0  0  0
  193.5830  175.7560  144.9190 C   0  0  0  0  0  2  0  0  0  0  0  0
  195.0800  176.1110  143.4210 C   0  0  2  0  0  3  0  0  0  0  0  0
  196.2730  175.2090  143.3350 C   0  0  0  0  0  0  0  0  0  0  0  0
  197.0620  175.1410  144.3180 O   0  0  0  0  0  0  0  0  0  0  0  0
  196.4890  174.4280  142.1950 O   0  0  0  0  0  0  0  0  0  0  0  0
  197.1920  174.0770  139.9290 C   0  0  1  0  0  3  0  0  0  0  0  0
  197.8200  175.3520  140.4450 C   0  0  0  0  0  2  0  0  0  0  0  0
  196.4240  174.9680  140.8840 C   0  0  2  0  0  3  0  0  0  0  0  0
  196.7290  174.3190  138.4990 C   0  0  0  0  0  2  0  0  0  0  0  0
  195.9140  170.7990  138.5990 C   0  0  0  0  0  2  0  0  0  0  0  0
  196.7830  173.0770  137.6110 C   0  0  2  0  0  0  0  0  0  0  0  0
  197.9190  171.9140  135.6560 C   0  0  0  0  0  2  0  0  0  0  0  0
  195.4580  171.7440  135.8900 C   0  0  0  0  0  2  0  0  0  0  0  0
  197.9020  173.1820  136.5510 C   0  0  0  0  0  2  0  0  0  0  0  0
  196.7740  170.9560  136.0450 C   0  0  2  0  0  3  0  0  0  0  0  0
  195.4510  172.9740  136.8290 C   0  0  0  0  0  2  0  0  0  0  0  0
  196.9740  170.5660  137.5320 C   0  0  2  0  0  0  0  0  0  0  0  0
  197.9400  169.6080  137.8320 O   0  0  0  0  0  1  0  0  0  0  0  0
  197.0710  171.7920  138.4520 C   0  0  2  0  0  3  0  0  0  0  0  0
  190.0930  176.3470  143.8960 C   0  0  0  0  0  2  0  0  0  0  0  0
  188.7870  175.9790  144.5830 C   0  0  0  0  0  2  0  0  0  0  0  0
  189.0270  175.6690  145.9850 N   0  0  0  0  0  0  0  0  0  0  0  0
  189.6610  173.3750  145.6440 C   0  0  0  0  0  0  0  0  0  0  0  0
  189.6770  174.4530  146.3820 C   0  0  0  0  0  3  0  0  0  0  0  0
  189.6560  172.2880  144.9200 C   0  0  0  0  0  3  0  0  0  0  0  0
  190.8100  171.8990  144.1030 C   0  0  0  0  0  0  0  0  0  0  0  0
  190.7080  171.2540  142.9850 N   0  0  0  0  0  0  0  0  0  0  0  0
  192.1450  172.2230  144.4670 N   0  0  0  0  0  0  0  0  0  0  0  0
  192.8630  171.7410  143.5140 C   0  0  0  0  0  0  0  0  0  0  0  0
  192.0530  171.0680  142.4660 C   0  0  0  0  0  2  0  0  0  0  0  0
  194.2810  171.8620  143.4830 N   0  0  0  0  0  1  0  0  0  0  0  0
  188.8320  176.6730  146.9460 N   0  0  0  0  0  2  0  0  0  0  0  0
  187.4550  176.9390  146.9960 N   0  0  0  0  0  2  0  0  0  0  0  0
  187.2880  178.1500  147.7760 C   0  0  0  0  0  2  0  0  0  0  0  0
  186.1600  178.9100  147.2570 N   0  0  0  0  0  2  0  0  0  0  0  0
  185.6970  178.2120  146.0710 C   0  0  1  0  0  3  0  0  0  0  0  0
  183.5120  179.0260  145.5490 O   0  0  0  0  0  1  0  0  0  0  0  0
  184.1960  177.9730  146.1560 C   0  0  0  0  0  2  0  0  0  0  0  0
  186.0820  178.9890  144.8130 C   0  0  0  0  0  2  0  0  0  0  0  0
  186.0500  178.1200  143.5640 C   0  0  2  0  0  3  0  0  0  0  0  0
  187.0970  178.5110  142.7120 O   0  0  0  0  0  0  0  0  0  0  0  0
  185.8090  178.9650  142.3730 C   0  0  1  0  0  3  0  0  0  0  0  0
  186.1840  177.4730  140.3700 N   0  0  0  0  0  1  0  0  0  0  0  0
  185.2820  178.1460  141.2430 C   0  0  0  0  0  0  0  0  0  0  0  0
  184.0410  178.0710  141.0410 O   0  0  0  0  0  0  0  0  0  0  0  0
  1 41  1  0  0  0  0
  2  4  2  0  0  0  0
  3  5  1  0  0  0  0
  3  9  2  0  0  0  0
  4 19  1  0  0  0  0
  4  1  1  0  0  0  0
  5  8  2  0  0  0  0
  6  2  1  0  0  0  0
  6  7  2  0  0  0  0
  7 10  1  0  0  0  0
  8  2  1  0  0  0  0
  9  6  1  0  0  0  0
 10  1  2  0  0  0  0
 11 12  1  0  0  0  0
 12 13  2  0  0  0  0
 14 16  2  0  0  0  0
 15 11  2  0  0  0  0
 15 14  1  0  0  0  0
 16 13  1  0  0  0  0
 16  3  1  0  0  0  0
 17 14  1  0  0  0  0
 18 17  1  0  0  0  0
 20 22  1  0  0  0  0
 21 19  1  6  0  0  0
 21 22  1  0  0  0  0
 23 24  1  1  0  0  0
 23 21  1  0  0  0  0
 23 20  1  0  0  0  0
 24 25  2  0  0  0  0
 26 24  1  0  0  0  0
 27 30  1  6  0  0  0
 27 28  1  0  0  0  0
 27 29  1  0  0  0  0
 28 29  1  0  0  0  0
 29 26  1  1  0  0  0
 32 40  1  0  0  0  0
 32 30  1  1  0  0  0
 33 35  1  0  0  0  0
 34 36  1  0  0  0  0
 34 37  1  0  0  0  0
 35 32  1  0  0  0  0
 36 33  1  1  0  0  0
 36 38  1  0  0  0  0
 37 32  1  0  0  0  0
 38 39  1  1  0  0  0
 38 40  1  0  0  0  0
 38 31  1  0  0  0  0
 40 31  1  1  0  0  0
 41 42  1  0  0  0  0
 42 43  1  0  0  0  0
 43 45  1  0  0  0  0
 43 53  1  0  0  0  0
 44 45  2  0  0  0  0
 46 44  2  0  0  0  0
 47 49  1  0  0  0  0
 47 46  1  0  0  0  0
 48 47  2  0  0  0  0
 50 49  2  0  0  0  0
 51 48  1  0  0  0  0
 51 50  1  0  0  0  0
 52 50  1  0  0  0  0
 53 54  1  0  0  0  0
 54 55  1  0  0  0  0
 56 55  1  0  0  0  0
 57 60  1  6  0  0  0
 57 59  1  0  0  0  0
 57 56  1  0  0  0  0
 58 59  1  0  0  0  0
 61 60  1  1  0  0  0
 62 61  1  0  0  0  0
 63 65  1  6  0  0  0
 63 62  1  0  0  0  0
 63 61  1  0  0  0  0
 64 65  1  0  0  0  0
 66 65  2  0  0  0  0
M  END
>  <MODEL>
3

>  <REMARK>
 VINA RESULT:      -7.2      3.171      9.900
  Name = 
  23 active torsions:
  status: ('A' for Active; 'I' for Inactive)
    1  A    between atoms: C_1  and  C_19
    2  A    between atoms: C_3  and  C_45
    3  A    between atoms: C_4  and  C_45
    4  A    between atoms: C_5  and  C_6
    5  A    between atoms: C_6  and  CA_58
    6  A    between atoms: C_8  and  O_18
    7  A    between atoms: C_8  and  C_62
    8  A    between atoms: C_11  and  C_53
    9  A    between atoms: C_12  and  N_61
   10  A    between atoms: C_14  and  N_33
   11  A    between atoms: C_15  and  C_43
   12  A    between atoms: O_18  and  C_28
   13  A    between atoms: C_19  and  C_22
   14  A    between atoms: C_22  and  N_33
   15  A    between atoms: C_24  and  N_61
   16  A    between atoms: C_25  and  C_60
   17  A    between atoms: C_30  and  N_31
   18  A    between atoms: C_30  and  N_39
   19  A    between atoms: N_31  and  CA_58
   20  A    between atoms: N_33  and  N_57
   21  A    between atoms: O_36  and  C_42
   22  A    between atoms: N_39  and  N_57
   23  A    between atoms: C_54  and  CA_58
                            x       y       z     vdW  Elec       q    Type
                         _______ _______ _______ _____ _____    ______ ____

>  <TORSDO>
F 23

$$$$
=
 OpenBabel11042416213D

 66 75  0  0  1  0  0  0  0  0999 V2000
  193.1130  175.5930  144.0780 C   0  0  0  0  0  0  0  0  0  0  0  0
  190.7800  175.4620  144.7480 C   0  0  0  0  0  0  0  0  0  0  0  0
  188.4040  176.8100  145.4610 C   0  0  0  0  0  0  0  0  0  0  0  0
  191.9730  174.8080  144.3840 C   0  0  0  0  0  0  0  0  0  0  0  0
  188.4540  175.4050  145.4380 C   0  0  0  0  0  3  0  0  0  0  0  0
  190.7350  176.8730  144.7570 C   0  0  0  0  0  0  0  0  0  0  0  0
  191.8400  177.5930  144.4320 N   0  0  0  0  0  0  0  0  0  0  0  0
  189.6290  174.7380  145.0850 C   0  0  0  0  0  3  0  0  0  0  0  0
  189.5550  177.5330  145.1070 C   0  0  0  0  0  3  0  0  0  0  0  0
  193.0110  176.9890  144.1070 C   0  0  0  0  0  3  0  0  0  0  0  0
  184.8220  178.8940  146.6150 C   0  0  0  0  0  3  0  0  0  0  0  0
  185.6820  178.3630  147.5760 C   0  0  0  0  0  3  0  0  0  0  0  0
  186.8360  177.6870  147.1780 C   0  0  0  0  0  3  0  0  0  0  0  0
  186.2710  178.0630  144.8430 C   0  0  0  0  0  0  0  0  0  0  0  0
  185.1140  178.7430  145.2600 C   0  0  0  0  0  3  0  0  0  0  0  0
  187.1530  177.5310  145.8180 C   0  0  0  0  0  0  0  0  0  0  0  0
  186.5390  177.8980  143.4780 O   0  0  0  0  0  0  0  0  0  0  0  0
  185.8310  176.9810  142.6550 C   0  0  0  0  0  1  0  0  0  0  0  0
  191.9890  173.3700  144.3470 N   0  0  0  0  0  2  0  0  0  0  0  0
  190.2810  171.7270  142.3300 C   0  0  0  0  0  2  0  0  0  0  0  0
  192.0860  172.5620  143.1410 C   0  0  2  0  0  3  0  0  0  0  0  0
  191.0440  173.0260  142.1380 C   0  0  0  0  0  2  0  0  0  0  0  0
  191.3220  171.2610  143.3290 C   0  0  2  0  0  3  0  0  0  0  0  0
  192.0850  170.1000  142.7680 C   0  0  0  0  0  0  0  0  0  0  0  0
  193.0060  169.5800  143.4580 O   0  0  0  0  0  0  0  0  0  0  0  0
  191.7570  169.5780  141.5130 O   0  0  0  0  0  0  0  0  0  0  0  0
  191.6560  169.6940  139.1190 C   0  0  1  0  0  3  0  0  0  0  0  0
  192.6250  168.6030  139.5170 C   0  0  0  0  0  2  0  0  0  0  0  0
  192.5220  169.8620  140.3510 C   0  0  2  0  0  3  0  0  0  0  0  0
  192.2560  170.4610  137.9490 C   0  0  0  0  0  2  0  0  0  0  0  0
  190.5570  173.6110  138.4620 C   0  0  0  0  0  2  0  0  0  0  0  0
  191.2680  171.3900  137.2440 C   0  0  2  0  0  0  0  0  0  0  0  0
  189.3760  171.5870  135.5580 C   0  0  0  0  0  2  0  0  0  0  0  0
  191.1160  173.3510  135.6230 C   0  0  0  0  0  2  0  0  0  0  0  0
  190.3550  170.6150  136.2690 C   0  0  0  0  0  2  0  0  0  0  0  0
  189.6480  173.0450  135.9840 C   0  0  2  0  0  3  0  0  0  0  0  0
  192.0680  172.3970  136.3840 C   0  0  0  0  0  2  0  0  0  0  0  0
  189.4640  173.1260  137.5210 C   0  0  2  0  0  0  0  0  0  0  0  0
  188.1640  173.1740  138.0210 O   0  0  0  0  0  1  0  0  0  0  0  0
  190.3350  172.1070  138.2710 C   0  0  2  0  0  3  0  0  0  0  0  0
  194.4560  174.9900  143.8140 C   0  0  0  0  0  2  0  0  0  0  0  0
  195.5690  175.9600  144.1750 C   0  0  0  0  0  2  0  0  0  0  0  0
  196.7910  175.6110  143.4630 N   0  0  0  0  0  0  0  0  0  0  0  0
  197.4330  173.8660  144.9860 C   0  0  0  0  0  0  0  0  0  0  0  0
  197.7330  174.6770  144.0070 C   0  0  0  0  0  3  0  0  0  0  0  0
  197.1510  173.0470  145.9640 C   0  0  0  0  0  3  0  0  0  0  0  0
  196.8430  171.6330  145.7240 C   0  0  0  0  0  0  0  0  0  0  0  0
  197.6180  170.8370  145.0610 N   0  0  0  0  0  0  0  0  0  0  0  0
  195.6670  171.0150  146.2270 N   0  0  0  0  0  0  0  0  0  0  0  0
  195.7560  169.7920  145.8350 C   0  0  0  0  0  0  0  0  0  0  0  0
  196.9900  169.5260  145.0500 C   0  0  0  0  0  2  0  0  0  0  0  0
  194.7710  168.8120  146.1430 N   0  0  0  0  0  1  0  0  0  0  0  0
  196.9360  176.0120  142.1260 N   0  0  0  0  0  2  0  0  0  0  0  0
  196.9820  174.8480  141.3440 N   0  0  0  0  0  2  0  0  0  0  0  0
  197.4530  175.2400  140.0300 C   0  0  0  0  0  2  0  0  0  0  0  0
  196.3380  175.2340  139.0940 N   0  0  0  0  0  2  0  0  0  0  0  0
  196.4980  174.0550  138.2620 C   0  0  1  0  0  3  0  0  0  0  0  0
  195.4560  172.0020  137.6240 O   0  0  0  0  0  1  0  0  0  0  0  0
  195.3380  173.0960  138.4810 C   0  0  0  0  0  2  0  0  0  0  0  0
  196.6390  174.4560  136.7940 C   0  0  0  0  0  2  0  0  0  0  0  0
  195.6230  175.5110  136.3820 C   0  0  2  0  0  3  0  0  0  0  0  0
  194.9570  175.0720  135.2250 O   0  0  0  0  0  0  0  0  0  0  0  0
  195.9640  176.0380  135.0410 C   0  0  1  0  0  3  0  0  0  0  0  0
  193.9430  177.4590  134.5190 N   0  0  0  0  0  1  0  0  0  0  0  0
  195.3310  177.3710  134.8220 C   0  0  0  0  0  0  0  0  0  0  0  0
  196.0280  178.4190  134.8760 O   0  0  0  0  0  0  0  0  0  0  0  0
  1 10  2  0  0  0  0
  1  4  1  0  0  0  0
  2  6  1  0  0  0  0
  2  8  1  0  0  0  0
  3 16  1  0  0  0  0
  4  2  2  0  0  0  0
  5  3  1  0  0  0  0
  6  9  1  0  0  0  0
  7  6  2  0  0  0  0
  8  5  2  0  0  0  0
  9  3  2  0  0  0  0
 10  7  1  0  0  0  0
 11 12  1  0  0  0  0
 13 12  2  0  0  0  0
 14 15  1  0  0  0  0
 14 16  2  0  0  0  0
 15 11  2  0  0  0  0
 16 13  1  0  0  0  0
 17 14  1  0  0  0  0
 18 17  1  0  0  0  0
 19  4  1  0  0  0  0
 20 23  1  0  0  0  0
 21 23  1  0  0  0  0
 21 19  1  1  0  0  0
 22 20  1  0  0  0  0
 22 21  1  0  0  0  0
 23 24  1  6  0  0  0
 24 25  2  0  0  0  0
 26 24  1  0  0  0  0
 27 30  1  6  0  0  0
 27 28  1  0  0  0  0
 27 29  1  0  0  0  0
 28 29  1  0  0  0  0
 29 26  1  1  0  0  0
 32 30  1  1  0  0  0
 32 40  1  0  0  0  0
 33 35  1  0  0  0  0
 34 36  1  0  0  0  0
 34 37  1  0  0  0  0
 35 32  1  0  0  0  0
 36 33  1  1  0  0  0
 36 38  1  0  0  0  0
 37 32  1  0  0  0  0
 38 39  1  1  0  0  0
 38 40  1  0  0  0  0
 38 31  1  0  0  0  0
 40 31  1  1  0  0  0
 41  1  1  0  0  0  0
 41 42  1  0  0  0  0
 43 45  1  0  0  0  0
 43 42  1  0  0  0  0
 44 46  2  0  0  0  0
 45 44  2  0  0  0  0
 47 46  1  0  0  0  0
 47 49  1  0  0  0  0
 48 47  2  0  0  0  0
 50 52  1  0  0  0  0
 50 49  2  0  0  0  0
 51 48  1  0  0  0  0
 51 50  1  0  0  0  0
 53 43  1  0  0  0  0
 54 53  1  0  0  0  0
 55 54  1  0  0  0  0
 56 55  1  0  0  0  0
 57 60  1  6  0  0  0
 57 59  1  0  0  0  0
 57 56  1  0  0  0  0
 58 59  1  0  0  0  0
 61 60  1  6  0  0  0
 62 61  1  0  0  0  0
 63 65  1  1  0  0  0
 63 62  1  0  0  0  0
 63 61  1  0  0  0  0
 64 65  1  0  0  0  0
 65 66  2  0  0  0  0
M  END
>  <MODEL>
4

>  <REMARK>
 VINA RESULT:      -6.9      3.973      7.986
  Name = 
  23 active torsions:
  status: ('A' for Active; 'I' for Inactive)
    1  A    between atoms: C_1  and  C_19
    2  A    between atoms: C_3  and  C_45
    3  A    between atoms: C_4  and  C_45
    4  A    between atoms: C_5  and  C_6
    5  A    between atoms: C_6  and  CA_58
    6  A    between atoms: C_8  and  O_18
    7  A    between atoms: C_8  and  C_62
    8  A    between atoms: C_11  and  C_53
    9  A    between atoms: C_12  and  N_61
   10  A    between atoms: C_14  and  N_33
   11  A    between atoms: C_15  and  C_43
   12  A    between atoms: O_18  and  C_28
   13  A    between atoms: C_19  and  C_22
   14  A    between atoms: C_22  and  N_33
   15  A    between atoms: C_24  and  N_61
   16  A    between atoms: C_25  and  C_60
   17  A    between atoms: C_30  and  N_31
   18  A    between atoms: C_30  and  N_39
   19  A    between atoms: N_31  and  CA_58
   20  A    between atoms: N_33  and  N_57
   21  A    between atoms: O_36  and  C_42
   22  A    between atoms: N_39  and  N_57
   23  A    between atoms: C_54  and  CA_58
                            x       y       z     vdW  Elec       q    Type
                         _______ _______ _______ _____ _____    ______ ____

>  <TORSDO>
F 23

$$$$
=
 OpenBabel11042416213D

 66 75  0  0  1  0  0  0  0  0999 V2000
  192.1500  172.9220  140.4520 C   0  0  0  0  0  0  0  0  0  0  0  0
  189.9520  173.7290  141.1020 C   0  0  0  0  0  0  0  0  0  0  0  0
  188.4000  175.7090  142.3860 C   0  0  0  0  0  0  0  0  0  0  0  0
  190.7410  172.7560  140.4630 C   0  0  0  0  0  0  0  0  0  0  0  0
  187.7910  174.5860  141.8010 C   0  0  0  0  0  3  0  0  0  0  0  0
  190.5710  174.8610  141.6770 C   0  0  0  0  0  0  0  0  0  0  0  0
  191.9210  175.0000  141.6250 N   0  0  0  0  0  0  0  0  0  0  0  0
  188.5570  173.6060  141.1660 C   0  0  0  0  0  3  0  0  0  0  0  0
  189.7970  175.8390  142.3070 C   0  0  0  0  0  3  0  0  0  0  0  0
  192.7090  174.0620  141.0410 C   0  0  0  0  0  3  0  0  0  0  0  0
  186.0930  178.7190  144.4170 C   0  0  0  0  0  3  0  0  0  0  0  0
  186.6120  177.6260  145.1100 C   0  0  0  0  0  3  0  0  0  0  0  0
  187.3540  176.6600  144.4300 C   0  0  0  0  0  3  0  0  0  0  0  0
  187.0540  177.8740  142.3450 C   0  0  0  0  0  0  0  0  0  0  0  0
  186.3100  178.8400  143.0450 C   0  0  0  0  0  3  0  0  0  0  0  0
  187.5920  176.7670  143.0490 C   0  0  0  0  0  0  0  0  0  0  0  0
  187.2440  177.9960  140.9620 O   0  0  0  0  0  0  0  0  0  0  0  0
  186.2430  177.6600  140.0100 C   0  0  0  0  0  1  0  0  0  0  0  0
  190.0890  171.6280  139.8530 N   0  0  0  0  0  2  0  0  0  0  0  0
  190.6510  170.5120  137.0030 C   0  0  0  0  0  2  0  0  0  0  0  0
  189.5570  171.5960  138.4990 C   0  0  2  0  0  3  0  0  0  0  0  0
  189.5520  170.1650  137.9930 C   0  0  0  0  0  2  0  0  0  0  0  0
  190.6550  171.9430  137.5050 C   0  0  2  0  0  3  0  0  0  0  0  0
  190.1470  172.8610  136.4360 C   0  0  0  0  0  0  0  0  0  0  0  0
  189.2850  172.4330  135.6190 O   0  0  0  0  0  0  0  0  0  0  0  0
  190.5970  174.1830  136.3670 O   0  0  0  0  0  0  0  0  0  0  0  0
  192.7000  175.3330  136.2810 C   0  0  1  0  0  3  0  0  0  0  0  0
  191.6910  176.0940  135.4510 C   0  0  0  0  0  2  0  0  0  0  0  0
  191.6440  174.5820  135.4960 C   0  0  2  0  0  3  0  0  0  0  0  0
  194.0230  175.3180  135.5270 C   0  0  0  0  0  2  0  0  0  0  0  0
  196.9520  173.1990  135.5250 C   0  0  0  0  0  2  0  0  0  0  0  0
  195.2310  174.9840  136.4020 C   0  0  2  0  0  0  0  0  0  0  0  0
  196.1870  174.9000  138.7560 C   0  0  0  0  0  2  0  0  0  0  0  0
  197.6370  175.6660  136.8980 C   0  0  0  0  0  2  0  0  0  0  0  0
  194.9370  175.2310  137.8980 C   0  0  0  0  0  2  0  0  0  0  0  0
  197.3730  174.4890  137.8580 C   0  0  2  0  0  3  0  0  0  0  0  0
  196.3890  175.9390  136.0240 C   0  0  0  0  0  2  0  0  0  0  0  0
  196.9340  173.2440  137.0460 C   0  0  2  0  0  0  0  0  0  0  0  0
  196.9350  172.0090  137.6920 O   0  0  0  0  0  1  0  0  0  0  0  0
  195.6380  173.4830  136.2580 C   0  0  2  0  0  3  0  0  0  0  0  0
  193.0770  171.8780  139.9180 C   0  0  0  0  0  2  0  0  0  0  0  0
  194.5240  172.2150  140.2430 C   0  0  0  0  0  2  0  0  0  0  0  0
  195.0580  171.2620  141.2070 N   0  0  0  0  0  0  0  0  0  0  0  0
  193.8360  171.1680  143.2750 C   0  0  0  0  0  0  0  0  0  0  0  0
  194.2090  170.6040  142.1570 C   0  0  0  0  0  3  0  0  0  0  0  0
  193.4540  171.7150  144.3980 C   0  0  0  0  0  3  0  0  0  0  0  0
  192.1190  172.3000  144.5570 C   0  0  0  0  0  0  0  0  0  0  0  0
  191.0320  171.7130  144.1720 N   0  0  0  0  0  0  0  0  0  0  0  0
  191.9100  173.5630  145.1740 N   0  0  0  0  0  0  0  0  0  0  0  0
  190.6340  173.7260  145.1480 C   0  0  0  0  0  0  0  0  0  0  0  0
  189.9210  172.5860  144.5120 C   0  0  0  0  0  2  0  0  0  0  0  0
  189.9940  174.8760  145.6860 N   0  0  0  0  0  1  0  0  0  0  0  0
  196.3760  170.8070  141.0520 N   0  0  0  0  0  2  0  0  0  0  0  0
  196.7730  170.2570  142.2810 N   0  0  0  0  0  2  0  0  0  0  0  0
  197.9400  170.9970  142.7170 C   0  0  0  0  0  2  0  0  0  0  0  0
  197.6160  172.4140  142.7950 N   0  0  0  0  0  2  0  0  0  0  0  0
  196.9130  172.6130  144.0510 C   0  0  1  0  0  3  0  0  0  0  0  0
  196.9190  172.0060  146.3610 O   0  0  0  0  0  1  0  0  0  0  0  0
  197.4940  171.7070  145.1260 C   0  0  0  0  0  2  0  0  0  0  0  0
  196.9580  174.0850  144.4570 C   0  0  0  0  0  2  0  0  0  0  0  0
  195.5750  174.6470  144.7510 C   0  0  2  0  0  3  0  0  0  0  0  0
  194.9600  174.9980  143.5370 O   0  0  0  0  0  0  0  0  0  0  0  0
  195.5000  176.0540  144.2960 C   0  0  1  0  0  3  0  0  0  0  0  0
  194.6240  177.3930  146.2500 N   0  0  0  0  0  1  0  0  0  0  0  0
  194.3920  176.7730  144.9900 C   0  0  0  0  0  0  0  0  0  0  0  0
  193.2430  176.8100  144.4760 O   0  0  0  0  0  0  0  0  0  0  0  0
  1  4  2  0  0  0  0
  1 10  1  0  0  0  0
  2  8  2  0  0  0  0
  2  6  1  0  0  0  0
  3 16  1  0  0  0  0
  4  2  1  0  0  0  0
  5  3  2  0  0  0  0
  6  9  2  0  0  0  0
  7  6  1  0  0  0  0
  8  5  1  0  0  0  0
  9  3  1  0  0  0  0
 10  7  2  0  0  0  0
 11 12  1  0  0  0  0
 13 12  2  0  0  0  0
 14 15  1  0  0  0  0
 14 16  2  0  0  0  0
 15 11  2  0  0  0  0
 16 13  1  0  0  0  0
 17 14  1  0  0  0  0
 18 17  1  0  0  0  0
 19  4  1  0  0  0  0
 20 23  1  0  0  0  0
 20 22  1  0  0  0  0
 21 19  1  1  0  0  0
 22 21  1  0  0  0  0
 23 24  1  6  0  0  0
 23 21  1  0  0  0  0
 25 24  2  0  0  0  0
 26 24  1  0  0  0  0
 27 30  1  6  0  0  0
 28 29  1  0  0  0  0
 28 27  1  0  0  0  0
 29 27  1  0  0  0  0
 29 26  1  1  0  0  0
 31 38  1  0  0  0  0
 32 30  1  6  0  0  0
 32 35  1  0  0  0  0
 35 33  1  0  0  0  0
 36 34  1  6  0  0  0
 36 33  1  0  0  0  0
 37 32  1  0  0  0  0
 37 34  1  0  0  0  0
 38 39  1  1  0  0  0
 38 36  1  0  0  0  0
 40 31  1  6  0  0  0
 40 32  1  0  0  0  0
 40 38  1  0  0  0  0
 41 42  1  0  0  0  0
 41  1  1  0  0  0  0
 42 43  1  0  0  0  0
 43 45  1  0  0  0  0
 44 46  2  0  0  0  0
 45 44  2  0  0  0  0
 46 47  1  0  0  0  0
 47 49  1  0  0  0  0
 48 51  1  0  0  0  0
 48 47  2  0  0  0  0
 50 49  2  0  0  0  0
 50 52  1  0  0  0  0
 51 50  1  0  0  0  0
 53 43  1  0  0  0  0
 53 54  1  0  0  0  0
 54 55  1  0  0  0  0
 55 56  1  0  0  0  0
 56 57  1  0  0  0  0
 57 60  1  1  0  0  0
 57 59  1  0  0  0  0
 59 58  1  0  0  0  0
 61 60  1  6  0  0  0
 62 63  1  0  0  0  0
 62 61  1  0  0  0  0
 63 61  1  0  0  0  0
 63 65  1  1  0  0  0
 65 64  1  0  0  0  0
 66 65  2  0  0  0  0
M  END
>  <MODEL>
5

>  <REMARK>
 VINA RESULT:      -6.5      3.806      8.588
  Name = 
  23 active torsions:
  status: ('A' for Active; 'I' for Inactive)
    1  A    between atoms: C_1  and  C_19
    2  A    between atoms: C_3  and  C_45
    3  A    between atoms: C_4  and  C_45
    4  A    between atoms: C_5  and  C_6
    5  A    between atoms: C_6  and  CA_58
    6  A    between atoms: C_8  and  O_18
    7  A    between atoms: C_8  and  C_62
    8  A    between atoms: C_11  and  C_53
    9  A    between atoms: C_12  and  N_61
   10  A    between atoms: C_14  and  N_33
   11  A    between atoms: C_15  and  C_43
   12  A    between atoms: O_18  and  C_28
   13  A    between atoms: C_19  and  C_22
   14  A    between atoms: C_22  and  N_33
   15  A    between atoms: C_24  and  N_61
   16  A    between atoms: C_25  and  C_60
   17  A    between atoms: C_30  and  N_31
   18  A    between atoms: C_30  and  N_39
   19  A    between atoms: N_31  and  CA_58
   20  A    between atoms: N_33  and  N_57
   21  A    between atoms: O_36  and  C_42
   22  A    between atoms: N_39  and  N_57
   23  A    between atoms: C_54  and  CA_58
                            x       y       z     vdW  Elec       q    Type
                         _______ _______ _______ _____ _____    ______ ____

>  <TORSDO>
F 23

$$$$
=
 OpenBabel11042416213D

 66 75  0  0  1  0  0  0  0  0999 V2000
  191.4290  173.7560  141.7160 C   0  0  0  0  0  0  0  0  0  0  0  0
  193.4520  174.5740  140.6460 C   0  0  0  0  0  0  0  0  0  0  0  0
  195.2580  174.4190  138.4810 C   0  0  0  0  0  0  0  0  0  0  0  0
  192.5380  174.6390  141.7140 C   0  0  0  0  0  0  0  0  0  0  0  0
  195.4720  175.3270  139.5310 C   0  0  0  0  0  3  0  0  0  0  0  0
  193.2230  173.6650  139.5880 C   0  0  0  0  0  0  0  0  0  0  0  0
  192.1350  172.8530  139.6110 N   0  0  0  0  0  0  0  0  0  0  0  0
  194.5790  175.4050  140.6020 C   0  0  0  0  0  3  0  0  0  0  0  0
  194.1180  173.5980  138.5180 C   0  0  0  0  0  3  0  0  0  0  0  0
  191.2540  172.8740  140.6420 C   0  0  0  0  0  3  0  0  0  0  0  0
  197.9410  174.3150  135.1200 C   0  0  0  0  0  3  0  0  0  0  0  0
  197.1640  175.4430  135.3800 C   0  0  0  0  0  3  0  0  0  0  0  0
  196.2970  175.4530  136.4730 C   0  0  0  0  0  3  0  0  0  0  0  0
  196.9770  173.1910  137.0530 C   0  0  0  0  0  0  0  0  0  0  0  0
  197.8470  173.1980  135.9480 C   0  0  0  0  0  3  0  0  0  0  0  0
  196.1920  174.3400  137.3260 C   0  0  0  0  0  0  0  0  0  0  0  0
  196.8750  172.0530  137.8630 O   0  0  0  0  0  0  0  0  0  0  0  0
  197.5080  171.9430  139.1300 C   0  0  0  0  0  1  0  0  0  0  0  0
  192.7690  175.5940  142.7640 N   0  0  0  0  0  2  0  0  0  0  0  0
  193.9490  177.0430  145.2530 C   0  0  0  0  0  2  0  0  0  0  0  0
  193.7140  175.4270  143.8590 C   0  0  2  0  0  3  0  0  0  0  0  0
  193.0470  175.8240  145.1640 C   0  0  0  0  0  2  0  0  0  0  0  0
  194.6170  176.6460  143.9500 C   0  0  2  0  0  3  0  0  0  0  0  0
  196.0390  176.2480  144.2060 C   0  0  0  0  0  0  0  0  0  0  0  0
  196.9560  176.7660  143.5110 O   0  0  0  0  0  0  0  0  0  0  0  0
  196.3470  175.3410  145.2250 O   0  0  0  0  0  0  0  0  0  0  0  0
  195.7970  173.0060  145.2580 C   0  0  1  0  0  3  0  0  0  0  0  0
  196.9100  173.2620  146.2500 C   0  0  0  0  0  2  0  0  0  0  0  0
  196.8580  174.0450  144.9560 C   0  0  2  0  0  3  0  0  0  0  0  0
  196.1050  171.7110  144.5190 C   0  0  0  0  0  2  0  0  0  0  0  0
  195.0950  168.9660  142.3950 C   0  0  0  0  0  2  0  0  0  0  0  0
  194.8690  170.8760  144.1900 C   0  0  2  0  0  0  0  0  0  0  0  0
  192.3290  170.7830  144.1190 C   0  0  0  0  0  2  0  0  0  0  0  0
  193.5840  168.7820  144.8700 C   0  0  0  0  0  2  0  0  0  0  0  0
  193.5650  171.6630  144.4470 C   0  0  0  0  0  2  0  0  0  0  0  0
  192.7650  169.3630  143.7000 C   0  0  2  0  0  3  0  0  0  0  0  0
  194.8330  169.6550  145.1400 C   0  0  0  0  0  2  0  0  0  0  0  0
  193.6720  169.5020  142.4500 C   0  0  2  0  0  0  0  0  0  0  0  0
  193.0580  169.7280  141.2200 O   0  0  0  0  0  1  0  0  0  0  0  0
  194.8570  170.4510  142.6870 C   0  0  2  0  0  3  0  0  0  0  0  0
  190.4810  173.6580  142.8690 C   0  0  0  0  0  2  0  0  0  0  0  0
  189.8540  175.0090  143.1750 C   0  0  0  0  0  2  0  0  0  0  0  0
  188.9910  175.4230  142.0760 N   0  0  0  0  0  0  0  0  0  0  0  0
  188.1740  174.5080  140.0090 C   0  0  0  0  0  0  0  0  0  0  0  0
  188.2420  174.4680  141.3130 C   0  0  0  0  0  3  0  0  0  0  0  0
  188.0950  174.5320  138.7050 C   0  0  0  0  0  3  0  0  0  0  0  0
  188.8950  173.6340  137.8660 C   0  0  0  0  0  0  0  0  0  0  0  0
  188.9240  172.3500  138.0200 N   0  0  0  0  0  0  0  0  0  0  0  0
  189.6930  174.1090  136.7890 N   0  0  0  0  0  0  0  0  0  0  0  0
  190.2190  173.0460  136.2880 C   0  0  0  0  0  0  0  0  0  0  0  0
  189.8060  171.8080  137.0000 C   0  0  0  0  0  2  0  0  0  0  0  0
  191.0910  173.0770  135.1640 N   0  0  0  0  0  1  0  0  0  0  0  0
  188.7080  176.7870  141.9120 N   0  0  0  0  0  2  0  0  0  0  0  0
  188.3230  177.2870  143.1660 N   0  0  0  0  0  2  0  0  0  0  0  0
  186.8890  177.1040  143.2700 C   0  0  0  0  0  2  0  0  0  0  0  0
  186.2840  178.3120  143.8120 N   0  0  0  0  0  2  0  0  0  0  0  0
  186.4220  178.2370  145.2550 C   0  0  1  0  0  3  0  0  0  0  0  0
  184.2780  178.3520  146.3040 O   0  0  0  0  0  1  0  0  0  0  0  0
  185.3810  179.1200  145.9280 C   0  0  0  0  0  2  0  0  0  0  0  0
  186.3310  176.7860  145.7240 C   0  0  0  0  0  2  0  0  0  0  0  0
  187.3050  176.4790  146.8520 C   0  0  2  0  0  3  0  0  0  0  0  0
  188.4050  177.3470  146.7490 O   0  0  0  0  0  0  0  0  0  0  0  0
  188.5980  176.0310  146.2870 C   0  0  1  0  0  3  0  0  0  0  0  0
  190.6330  175.7620  147.7590 N   0  0  0  0  0  1  0  0  0  0  0  0
  189.3790  175.2660  147.3010 C   0  0  0  0  0  0  0  0  0  0  0  0
  188.9470  174.1650  147.7330 O   0  0  0  0  0  0  0  0  0  0  0  0
  1 41  1  0  0  0  0
  2  4  2  0  0  0  0
  3  9  2  0  0  0  0
  3  5  1  0  0  0  0
  4  1  1  0  0  0  0
  4 19  1  0  0  0  0
  5  8  2  0  0  0  0
  6  7  2  0  0  0  0
  6  2  1  0  0  0  0
  7 10  1  0  0  0  0
  8  2  1  0  0  0  0
  9  6  1  0  0  0  0
 10  1  2  0  0  0  0
 11 12  2  0  0  0  0
 11 15  1  0  0  0  0
 12 13  1  0  0  0  0
 13 16  2  0  0  0  0
 14 16  1  0  0  0  0
 14 17  1  0  0  0  0
 15 14  2  0  0  0  0
 16  3  1  0  0  0  0
 17 18  1  0  0  0  0
 21 19  1  6  0  0  0
 21 23  1  0  0  0  0
 21 22  1  0  0  0  0
 22 20  1  0  0  0  0
 23 24  1  1  0  0  0
 23 20  1  0  0  0  0
 24 26  1  0  0  0  0
 25 24  2  0  0  0  0
 27 30  1  6  0  0  0
 27 28  1  0  0  0  0
 29 26  1  1  0  0  0
 29 27  1  0  0  0  0
 29 28  1  0  0  0  0
 31 38  1  0  0  0  0
 32 35  1  0  0  0  0
 32 30  1  1  0  0  0
 32 37  1  0  0  0  0
 33 35  1  0  0  0  0
 34 37  1  0  0  0  0
 36 33  1  1  0  0  0
 36 34  1  0  0  0  0
 38 39  1  6  0  0  0
 38 40  1  0  0  0  0
 38 36  1  0  0  0  0
 40 31  1  1  0  0  0
 40 32  1  0  0  0  0
 41 42  1  0  0  0  0
 43 42  1  0  0  0  0
 44 45  2  0  0  0  0
 45 43  1  0  0  0  0
 46 44  2  0  0  0  0
 47 48  2  0  0  0  0
 47 46  1  0  0  0  0
 49 47  1  0  0  0  0
 50 49  2  0  0  0  0
 50 51  1  0  0  0  0
 51 48  1  0  0  0  0
 52 50  1  0  0  0  0
 53 43  1  0  0  0  0
 53 54  1  0  0  0  0
 54 55  1  0  0  0  0
 55 56  1  0  0  0  0
 56 57  1  0  0  0  0
 57 60  1  1  0  0  0
 57 59  1  0  0  0  0
 59 58  1  0  0  0  0
 61 60  1  6  0  0  0
 62 61  1  0  0  0  0
 63 62  1  0  0  0  0
 63 61  1  0  0  0  0
 63 65  1  1  0  0  0
 65 66  2  0  0  0  0
 65 64  1  0  0  0  0
M  END
>  <MODEL>
6

>  <REMARK>
 VINA RESULT:      -6.4      3.722     10.404
  Name = 
  23 active torsions:
  status: ('A' for Active; 'I' for Inactive)
    1  A    between atoms: C_1  and  C_19
    2  A    between atoms: C_3  and  C_45
    3  A    between atoms: C_4  and  C_45
    4  A    between atoms: C_5  and  C_6
    5  A    between atoms: C_6  and  CA_58
    6  A    between atoms: C_8  and  O_18
    7  A    between atoms: C_8  and  C_62
    8  A    between atoms: C_11  and  C_53
    9  A    between atoms: C_12  and  N_61
   10  A    between atoms: C_14  and  N_33
   11  A    between atoms: C_15  and  C_43
   12  A    between atoms: O_18  and  C_28
   13  A    between atoms: C_19  and  C_22
   14  A    between atoms: C_22  and  N_33
   15  A    between atoms: C_24  and  N_61
   16  A    between atoms: C_25  and  C_60
   17  A    between atoms: C_30  and  N_31
   18  A    between atoms: C_30  and  N_39
   19  A    between atoms: N_31  and  CA_58
   20  A    between atoms: N_33  and  N_57
   21  A    between atoms: O_36  and  C_42
   22  A    between atoms: N_39  and  N_57
   23  A    between atoms: C_54  and  CA_58
                            x       y       z     vdW  Elec       q    Type
                         _______ _______ _______ _____ _____    ______ ____

>  <TORSDO>
F 23

$$$$
=
 OpenBabel11042416213D

 66 75  0  0  1  0  0  0  0  0999 V2000
  190.9220  175.9860  143.0440 C   0  0  0  0  0  0  0  0  0  0  0  0
  191.8650  174.6660  141.2340 C   0  0  0  0  0  0  0  0  0  0  0  0
  191.4650  172.7750  139.1750 C   0  0  0  0  0  0  0  0  0  0  0  0
  192.0440  175.6110  142.2620 C   0  0  0  0  0  0  0  0  0  0  0  0
  192.7420  173.3030  139.4280 C   0  0  0  0  0  3  0  0  0  0  0  0
  190.5750  174.1490  140.9800 C   0  0  0  0  0  0  0  0  0  0  0  0
  189.5190  174.5520  141.7320 N   0  0  0  0  0  0  0  0  0  0  0  0
  192.9410  174.2380  140.4460 C   0  0  0  0  0  3  0  0  0  0  0  0
  190.3840  173.2180  139.9560 C   0  0  0  0  0  3  0  0  0  0  0  0
  189.6670  175.4390  142.7480 C   0  0  0  0  0  3  0  0  0  0  0  0
  190.8210  169.8400  136.0980 C   0  0  0  0  0  3  0  0  0  0  0  0
  191.2240  169.4590  137.3770 C   0  0  0  0  0  3  0  0  0  0  0  0
  191.4310  170.4280  138.3580 C   0  0  0  0  0  3  0  0  0  0  0  0
  190.8380  172.1780  136.7770 C   0  0  0  0  0  0  0  0  0  0  0  0
  190.6320  171.1880  135.8000 C   0  0  0  0  0  3  0  0  0  0  0  0
  191.2380  171.7930  138.0820 C   0  0  0  0  0  0  0  0  0  0  0  0
  190.6680  173.5310  136.4570 O   0  0  0  0  0  0  0  0  0  0  0  0
  190.9580  174.0670  135.1730 C   0  0  0  0  0  1  0  0  0  0  0  0
  193.3580  176.1510  142.4830 N   0  0  0  0  0  2  0  0  0  0  0  0
  195.2570  176.1620  144.9490 C   0  0  0  0  0  2  0  0  0  0  0  0
  194.4710  175.4340  143.0890 C   0  0  2  0  0  3  0  0  0  0  0  0
  194.1680  175.1790  144.5550 C   0  0  0  0  0  2  0  0  0  0  0  0
  195.5620  176.4150  143.4850 C   0  0  2  0  0  3  0  0  0  0  0  0
  196.9200  175.8810  143.1470 C   0  0  0  0  0  0  0  0  0  0  0  0
  197.9190  176.6480  143.2280 O   0  0  0  0  0  0  0  0  0  0  0  0
  197.0810  174.5410  142.7800 O   0  0  0  0  0  0  0  0  0  0  0  0
  197.4590  173.1100  140.8920 C   0  0  1  0  0  3  0  0  0  0  0  0
  197.1900  174.5130  140.3970 C   0  0  0  0  0  2  0  0  0  0  0  0
  196.4690  173.9940  141.6220 C   0  0  2  0  0  3  0  0  0  0  0  0
  196.7220  172.1350  139.9840 C   0  0  0  0  0  2  0  0  0  0  0  0
  194.0660  169.8210  140.7950 C   0  0  0  0  0  2  0  0  0  0  0  0
  196.5190  170.7500  140.5970 C   0  0  2  0  0  0  0  0  0  0  0  0
  197.4290  168.9720  142.1700 C   0  0  0  0  0  2  0  0  0  0  0  0
  196.3990  168.2680  140.0280 C   0  0  0  0  0  2  0  0  0  0  0  0
  197.6560  170.3890  141.5780 C   0  0  0  0  0  2  0  0  0  0  0  0
  196.1750  168.3160  141.5530 C   0  0  2  0  0  3  0  0  0  0  0  0
  196.5730  169.6980  139.4630 C   0  0  0  0  0  2  0  0  0  0  0  0
  194.9650  169.2310  141.8720 C   0  0  2  0  0  0  0  0  0  0  0  0
  194.4230  169.1730  143.1540 O   0  0  0  0  0  1  0  0  0  0  0  0
  195.1820  170.6770  141.4010 C   0  0  2  0  0  3  0  0  0  0  0  0
  191.0380  176.8770  144.2390 C   0  0  0  0  0  2  0  0  0  0  0  0
  189.6800  177.1010  144.8860 C   0  0  0  0  0  2  0  0  0  0  0  0
  189.7040  176.6550  146.2720 N   0  0  0  0  0  0  0  0  0  0  0  0
  189.9960  174.2710  146.1670 C   0  0  0  0  0  0  0  0  0  0  0  0
  190.3480  175.4310  146.6530 C   0  0  0  0  0  3  0  0  0  0  0  0
  189.6580  173.1020  145.6910 C   0  0  0  0  0  3  0  0  0  0  0  0
  190.4320  172.4450  144.6330 C   0  0  0  0  0  0  0  0  0  0  0  0
  191.7120  172.5850  144.4930 N   0  0  0  0  0  0  0  0  0  0  0  0
  189.8350  171.5750  143.6820 N   0  0  0  0  0  0  0  0  0  0  0  0
  190.8150  171.1860  142.9430 C   0  0  0  0  0  0  0  0  0  0  0  0
  192.1160  171.7740  143.3570 C   0  0  0  0  0  2  0  0  0  0  0  0
  190.6490  170.2800  141.8590 N   0  0  0  0  0  1  0  0  0  0  0  0
  189.2970  177.5440  147.2790 N   0  0  0  0  0  2  0  0  0  0  0  0
  187.8990  177.4630  147.3660 N   0  0  0  0  0  2  0  0  0  0  0  0
  187.4140  178.8040  147.6240 C   0  0  0  0  0  2  0  0  0  0  0  0
  185.9720  178.8440  147.4310 N   0  0  0  0  0  2  0  0  0  0  0  0
  185.6850  178.0440  146.2540 C   0  0  1  0  0  3  0  0  0  0  0  0
  183.5560  179.0400  145.8250 O   0  0  0  0  0  1  0  0  0  0  0  0
  184.1840  177.8300  146.1180 C   0  0  0  0  0  2  0  0  0  0  0  0
  186.2850  178.6950  145.0090 C   0  0  0  0  0  2  0  0  0  0  0  0
  185.9890  177.9050  143.7430 C   0  0  2  0  0  3  0  0  0  0  0  0
  187.0670  178.0540  142.8530 O   0  0  0  0  0  0  0  0  0  0  0  0
  185.9190  178.8250  142.5850 C   0  0  1  0  0  3  0  0  0  0  0  0
  185.7920  178.0030  140.2000 N   0  0  0  0  0  1  0  0  0  0  0  0
  185.1620  178.2010  141.4610 C   0  0  0  0  0  0  0  0  0  0  0  0
  183.9560  177.8740  141.6170 O   0  0  0  0  0  0  0  0  0  0  0  0
  1 41  1  0  0  0  0
  2  4  1  0  0  0  0
  3  5  2  0  0  0  0
  3  9  1  0  0  0  0
  4 19  1  0  0  0  0
  4  1  2  0  0  0  0
  5  8  1  0  0  0  0
  6  2  1  0  0  0  0
  6  7  1  0  0  0  0
  7 10  2  0  0  0  0
  8  2  2  0  0  0  0
  9  6  2  0  0  0  0
 10  1  1  0  0  0  0
 11 12  1  0  0  0  0
 12 13  2  0  0  0  0
 14 16  2  0  0  0  0
 15 11  2  0  0  0  0
 15 14  1  0  0  0  0
 16 13  1  0  0  0  0
 16  3  1  0  0  0  0
 17 14  1  0  0  0  0
 18 17  1  0  0  0  0
 21 19  1  6  0  0  0
 21 23  1  0  0  0  0
 21 22  1  0  0  0  0
 22 20  1  0  0  0  0
 23 24  1  1  0  0  0
 23 20  1  0  0  0  0
 24 25  2  0  0  0  0
 26 24  1  0  0  0  0
 27 30  1  6  0  0  0
 27 29  1  0  0  0  0
 28 27  1  0  0  0  0
 28 29  1  0  0  0  0
 29 26  1  1  0  0  0
 31 38  1  0  0  0  0
 32 30  1  6  0  0  0
 32 40  1  0  0  0  0
 32 35  1  0  0  0  0
 35 33  1  0  0  0  0
 36 34  1  6  0  0  0
 36 38  1  0  0  0  0
 36 33  1  0  0  0  0
 37 34  1  0  0  0  0
 37 32  1  0  0  0  0
 38 39  1  1  0  0  0
 40 31  1  6  0  0  0
 40 38  1  0  0  0  0
 41 42  1  0  0  0  0
 42 43  1  0  0  0  0
 43 45  1  0  0  0  0
 43 53  1  0  0  0  0
 44 45  2  0  0  0  0
 46 44  2  0  0  0  0
 47 46  1  0  0  0  0
 48 47  2  0  0  0  0
 49 47  1  0  0  0  0
 50 51  1  0  0  0  0
 50 49  2  0  0  0  0
 51 48  1  0  0  0  0
 52 50  1  0  0  0  0
 53 54  1  0  0  0  0
 54 55  1  0  0  0  0
 56 55  1  0  0  0  0
 57 60  1  6  0  0  0
 57 56  1  0  0  0  0
 58 59  1  0  0  0  0
 59 57  1  0  0  0  0
 61 60  1  1  0  0  0
 62 61  1  0  0  0  0
 63 65  1  6  0  0  0
 63 62  1  0  0  0  0
 63 61  1  0  0  0  0
 64 65  1  0  0  0  0
 65 66  2  0  0  0  0
M  END
>  <MODEL>
7

>  <REMARK>
 VINA RESULT:      -6.1      3.180      9.526
  Name = 
  23 active torsions:
  status: ('A' for Active; 'I' for Inactive)
    1  A    between atoms: C_1  and  C_19
    2  A    between atoms: C_3  and  C_45
    3  A    between atoms: C_4  and  C_45
    4  A    between atoms: C_5  and  C_6
    5  A    between atoms: C_6  and  CA_58
    6  A    between atoms: C_8  and  O_18
    7  A    between atoms: C_8  and  C_62
    8  A    between atoms: C_11  and  C_53
    9  A    between atoms: C_12  and  N_61
   10  A    between atoms: C_14  and  N_33
   11  A    between atoms: C_15  and  C_43
   12  A    between atoms: O_18  and  C_28
   13  A    between atoms: C_19  and  C_22
   14  A    between atoms: C_22  and  N_33
   15  A    between atoms: C_24  and  N_61
   16  A    between atoms: C_25  and  C_60
   17  A    between atoms: C_30  and  N_31
   18  A    between atoms: C_30  and  N_39
   19  A    between atoms: N_31  and  CA_58
   20  A    between atoms: N_33  and  N_57
   21  A    between atoms: O_36  and  C_42
   22  A    between atoms: N_39  and  N_57
   23  A    between atoms: C_54  and  CA_58
                            x       y       z     vdW  Elec       q    Type
                         _______ _______ _______ _____ _____    ______ ____

>  <TORSDO>
F 23

$$$$
=
 OpenBabel11042416213D

 66 75  0  0  1  0  0  0  0  0999 V2000
  188.8200  177.1120  143.0240 C   0  0  0  0  0  0  0  0  0  0  0  0
  190.1650  175.7710  144.5410 C   0  0  0  0  0  0  0  0  0  0  0  0
  192.6600  174.5910  145.1390 C   0  0  0  0  0  0  0  0  0  0  0  0
  188.9300  176.3710  144.2290 C   0  0  0  0  0  0  0  0  0  0  0  0
  191.5610  174.4240  145.9990 C   0  0  0  0  0  3  0  0  0  0  0  0
  191.2670  175.9550  143.6770 C   0  0  0  0  0  0  0  0  0  0  0  0
  191.1310  176.6930  142.5450 N   0  0  0  0  0  0  0  0  0  0  0  0
  190.3270  175.0070  145.7040 C   0  0  0  0  0  3  0  0  0  0  0  0
  192.4990  175.3720  143.9810 C   0  0  0  0  0  3  0  0  0  0  0  0
  189.9450  177.2580  142.2040 C   0  0  0  0  0  3  0  0  0  0  0  0
  196.5270  172.9650  146.0860 C   0  0  0  0  0  3  0  0  0  0  0  0
  196.2950  174.3380  146.1460 C   0  0  0  0  0  3  0  0  0  0  0  0
  195.0340  174.8440  145.8300 C   0  0  0  0  0  3  0  0  0  0  0  0
  194.2260  172.5940  145.3830 C   0  0  0  0  0  0  0  0  0  0  0  0
  195.5020  172.1010  145.7050 C   0  0  0  0  0  3  0  0  0  0  0  0
  193.9830  173.9900  145.4520 C   0  0  0  0  0  0  0  0  0  0  0  0
  193.2120  171.7170  144.9780 O   0  0  0  0  0  0  0  0  0  0  0  0
  193.4550  170.3630  144.6200 C   0  0  0  0  0  1  0  0  0  0  0  0
  187.8290  176.2020  145.1380 N   0  0  0  0  0  2  0  0  0  0  0  0
  185.0940  176.7430  146.5200 C   0  0  0  0  0  2  0  0  0  0  0  0
  186.9770  177.2720  145.6340 C   0  0  2  0  0  3  0  0  0  0  0  0
  186.5090  176.9340  147.0380 C   0  0  0  0  0  2  0  0  0  0  0  0
  185.5590  177.0840  145.1180 C   0  0  2  0  0  3  0  0  0  0  0  0
  184.9640  178.3880  144.6840 C   0  0  0  0  0  0  0  0  0  0  0  0
  185.6330  179.4480  144.8340 O   0  0  0  0  0  0  0  0  0  0  0  0
  183.6980  178.4250  144.0900 O   0  0  0  0  0  0  0  0  0  0  0  0
  182.5590  177.9980  142.0220 C   0  0  1  0  0  3  0  0  0  0  0  0
  184.0510  177.9250  141.7850 C   0  0  0  0  0  2  0  0  0  0  0  0
  183.4930  178.9230  142.7760 C   0  0  2  0  0  3  0  0  0  0  0  0
  181.9250  178.7340  140.8500 C   0  0  0  0  0  2  0  0  0  0  0  0
  179.1770  179.0370  143.1800 C   0  0  0  0  0  2  0  0  0  0  0  0
  180.3970  178.7290  140.8690 C   0  0  2  0  0  0  0  0  0  0  0  0
  178.2640  177.9450  139.7300 C   0  0  0  0  0  2  0  0  0  0  0  0
  178.3530  180.2390  140.6660 C   0  0  0  0  0  2  0  0  0  0  0  0
  179.8150  177.9160  139.6920 C   0  0  0  0  0  2  0  0  0  0  0  0
  177.7620  178.8320  140.8900 C   0  0  2  0  0  3  0  0  0  0  0  0
  179.8990  180.1830  140.6810 C   0  0  0  0  0  2  0  0  0  0  0  0
  178.3210  178.2380  142.2080 C   0  0  2  0  0  0  0  0  0  0  0  0
  177.6910  177.1120  142.7350 O   0  0  0  0  0  1  0  0  0  0  0  0
  179.8490  178.0870  142.1830 C   0  0  2  0  0  3  0  0  0  0  0  0
  187.5190  177.6710  142.5420 C   0  0  0  0  0  2  0  0  0  0  0  0
  187.6470  178.2010  141.1220 C   0  0  0  0  0  2  0  0  0  0  0  0
  187.1350  177.2230  140.1720 N   0  0  0  0  0  0  0  0  0  0  0  0
  186.5270  176.6810  137.9100 C   0  0  0  0  0  0  0  0  0  0  0  0
  186.9260  177.5570  138.7940 C   0  0  0  0  0  3  0  0  0  0  0  0
  186.1280  175.8190  137.0140 C   0  0  0  0  0  3  0  0  0  0  0  0
  184.7350  175.7650  136.5600 C   0  0  0  0  0  0  0  0  0  0  0  0
  184.3930  175.6760  135.3150 N   0  0  0  0  0  0  0  0  0  0  0  0
  183.6390  175.7840  137.4640 N   0  0  0  0  0  0  0  0  0  0  0  0
  182.5990  175.7040  136.7090 C   0  0  0  0  0  0  0  0  0  0  0  0
  182.9410  175.6300  135.2640 C   0  0  0  0  0  2  0  0  0  0  0  0
  181.2740  175.6780  137.2250 N   0  0  0  0  0  1  0  0  0  0  0  0
  187.0670  175.8750  140.5560 N   0  0  0  0  0  2  0  0  0  0  0  0
  188.2180  175.2430  140.0640 N   0  0  0  0  0  2  0  0  0  0  0  0
  188.1550  173.8590  140.4920 C   0  0  0  0  0  2  0  0  0  0  0  0
  188.5700  173.7610  141.8830 N   0  0  0  0  0  2  0  0  0  0  0  0
  189.9450  173.2940  141.8780 C   0  0  1  0  0  3  0  0  0  0  0  0
  189.0230  172.1280  143.7480 O   0  0  0  0  0  1  0  0  0  0  0  0
  190.1220  172.1720  142.8900 C   0  0  0  0  0  2  0  0  0  0  0  0
  190.3550  172.8640  140.4700 C   0  0  0  0  0  2  0  0  0  0  0  0
  191.8300  172.5010  140.3820 C   0  0  2  0  0  3  0  0  0  0  0  0
  192.5670  173.6650  140.1030 O   0  0  0  0  0  0  0  0  0  0  0  0
  192.3360  172.7940  139.0210 C   0  0  1  0  0  3  0  0  0  0  0  0
  194.8520  172.5690  139.0660 N   0  0  0  0  0  1  0  0  0  0  0  0
  193.5790  172.0170  138.7430 C   0  0  0  0  0  0  0  0  0  0  0  0
  193.5080  170.8850  138.1970 O   0  0  0  0  0  0  0  0  0  0  0  0
  1  4  1  0  0  0  0
  2  8  1  0  0  0  0
  3 16  1  0  0  0  0
  3  5  1  0  0  0  0
  4  2  2  0  0  0  0
  4 19  1  0  0  0  0
  6  9  1  0  0  0  0
  6  2  1  0  0  0  0
  7  6  2  0  0  0  0
  8  5  2  0  0  0  0
  9  3  2  0  0  0  0
 10  7  1  0  0  0  0
 10  1  2  0  0  0  0
 11 12  1  0  0  0  0
 13 12  2  0  0  0  0
 14 16  2  0  0  0  0
 14 15  1  0  0  0  0
 15 11  2  0  0  0  0
 16 13  1  0  0  0  0
 17 14  1  0  0  0  0
 18 17  1  0  0  0  0
 20 22  1  0  0  0  0
 21 19  1  6  0  0  0
 21 22  1  0  0  0  0
 23 24  1  1  0  0  0
 23 21  1  0  0  0  0
 23 20  1  0  0  0  0
 24 25  2  0  0  0  0
 26 24  1  0  0  0  0
 27 30  1  6  0  0  0
 27 29  1  0  0  0  0
 28 27  1  0  0  0  0
 28 29  1  0  0  0  0
 29 26  1  1  0  0  0
 32 30  1  6  0  0  0
 32 40  1  0  0  0  0
 34 37  1  0  0  0  0
 34 36  1  0  0  0  0
 35 33  1  0  0  0  0
 35 32  1  0  0  0  0
 36 33  1  6  0  0  0
 36 38  1  0  0  0  0
 37 32  1  0  0  0  0
 38 39  1  1  0  0  0
 38 31  1  0  0  0  0
 40 38  1  0  0  0  0
 40 31  1  1  0  0  0
 41  1  1  0  0  0  0
 42 41  1  0  0  0  0
 43 53  1  0  0  0  0
 43 42  1  0  0  0  0
 44 45  2  0  0  0  0
 45 43  1  0  0  0  0
 46 44  2  0  0  0  0
 47 46  1  0  0  0  0
 47 49  1  0  0  0  0
 48 47  2  0  0  0  0
 50 52  1  0  0  0  0
 50 49  2  0  0  0  0
 51 48  1  0  0  0  0
 51 50  1  0  0  0  0
 54 55  1  0  0  0  0
 54 53  1  0  0  0  0
 55 56  1  0  0  0  0
 57 60  1  6  0  0  0
 57 56  1  0  0  0  0
 57 59  1  0  0  0  0
 59 58  1  0  0  0  0
 61 60  1  6  0  0  0
 62 61  1  0  0  0  0
 63 65  1  1  0  0  0
 63 62  1  0  0  0  0
 63 61  1  0  0  0  0
 65 64  1  0  0  0  0
 66 65  2  0  0  0  0
M  END
>  <MODEL>
8

>  <REMARK>
 VINA RESULT:      -5.8      2.535     10.586
  Name = 
  23 active torsions:
  status: ('A' for Active; 'I' for Inactive)
    1  A    between atoms: C_1  and  C_19
    2  A    between atoms: C_3  and  C_45
    3  A    between atoms: C_4  and  C_45
    4  A    between atoms: C_5  and  C_6
    5  A    between atoms: C_6  and  CA_58
    6  A    between atoms: C_8  and  O_18
    7  A    between atoms: C_8  and  C_62
    8  A    between atoms: C_11  and  C_53
    9  A    between atoms: C_12  and  N_61
   10  A    between atoms: C_14  and  N_33
   11  A    between atoms: C_15  and  C_43
   12  A    between atoms: O_18  and  C_28
   13  A    between atoms: C_19  and  C_22
   14  A    between atoms: C_22  and  N_33
   15  A    between atoms: C_24  and  N_61
   16  A    between atoms: C_25  and  C_60
   17  A    between atoms: C_30  and  N_31
   18  A    between atoms: C_30  and  N_39
   19  A    between atoms: N_31  and  CA_58
   20  A    between atoms: N_33  and  N_57
   21  A    between atoms: O_36  and  C_42
   22  A    between atoms: N_39  and  N_57
   23  A    between atoms: C_54  and  CA_58
                            x       y       z     vdW  Elec       q    Type
                         _______ _______ _______ _____ _____    ______ ____

>  <TORSDO>
F 23

$$$$
=
 OpenBabel11042416213D

 66 75  0  0  1  0  0  0  0  0999 V2000
  189.7440  172.2640  140.3360 C   0  0  0  0  0  0  0  0  0  0  0  0
  189.7200  173.0440  142.6380 C   0  0  0  0  0  0  0  0  0  0  0  0
  188.9750  175.0370  144.4940 C   0  0  0  0  0  0  0  0  0  0  0  0
  190.0790  172.0590  141.6980 C   0  0  0  0  0  0  0  0  0  0  0  0
  189.6780  173.8930  144.9110 C   0  0  0  0  0  3  0  0  0  0  0  0
  189.0040  174.1840  142.2120 C   0  0  0  0  0  0  0  0  0  0  0  0
  188.6770  174.3340  140.9030 N   0  0  0  0  0  0  0  0  0  0  0  0
  190.0470  172.9070  143.9940 C   0  0  0  0  0  3  0  0  0  0  0  0
  188.6340  175.1640  143.1370 C   0  0  0  0  0  3  0  0  0  0  0  0
  189.0350  173.4150  139.9710 C   0  0  0  0  0  3  0  0  0  0  0  0
  187.6570  178.0400  147.2770 C   0  0  0  0  0  3  0  0  0  0  0  0
  186.7500  177.3990  146.4340 C   0  0  0  0  0  3  0  0  0  0  0  0
  187.2010  176.4310  145.5360 C   0  0  0  0  0  3  0  0  0  0  0  0
  189.4820  176.7450  146.3170 C   0  0  0  0  0  0  0  0  0  0  0  0
  189.0110  177.7170  147.2180 C   0  0  0  0  0  3  0  0  0  0  0  0
  188.5610  176.0840  145.4650 C   0  0  0  0  0  0  0  0  0  0  0  0
  190.8490  176.4480  146.2510 O   0  0  0  0  0  0  0  0  0  0  0  0
  191.4810  175.5070  147.1090 C   0  0  0  0  0  1  0  0  0  0  0  0
  190.7780  170.8880  142.1570 N   0  0  0  0  0  2  0  0  0  0  0  0
  193.6820  169.8690  141.6900 C   0  0  0  0  0  2  0  0  0  0  0  0
  192.1090  170.8810  142.7460 C   0  0  2  0  0  3  0  0  0  0  0  0
  193.1280  171.2840  141.6940 C   0  0  0  0  0  2  0  0  0  0  0  0
  192.6670  169.4670  142.7420 C   0  0  2  0  0  3  0  0  0  0  0  0
  193.3630  169.1570  144.0320 C   0  0  0  0  0  0  0  0  0  0  0  0
  192.6970  168.6730  144.9880 O   0  0  0  0  0  0  0  0  0  0  0  0
  194.7400  169.3690  144.1610 O   0  0  0  0  0  0  0  0  0  0  0  0
  195.6730  171.5640  144.4180 C   0  0  1  0  0  3  0  0  0  0  0  0
  196.7290  170.5380  144.7630 C   0  0  0  0  0  2  0  0  0  0  0  0
  195.2800  170.2750  145.1110 C   0  0  2  0  0  3  0  0  0  0  0  0
  195.7600  172.6980  145.4300 C   0  0  0  0  0  2  0  0  0  0  0  0
  195.7780  174.7170  142.4310 C   0  0  0  0  0  2  0  0  0  0  0  0
  195.2280  174.0330  144.9120 C   0  0  2  0  0  0  0  0  0  0  0  0
  194.4680  176.3870  145.5010 C   0  0  0  0  0  2  0  0  0  0  0  0
  193.2290  175.1230  143.7660 C   0  0  0  0  0  2  0  0  0  0  0  0
  195.0240  175.0490  146.0580 C   0  0  0  0  0  2  0  0  0  0  0  0
  194.2190  176.2850  143.9810 C   0  0  2  0  0  3  0  0  0  0  0  0
  193.8320  173.7960  144.2870 C   0  0  0  0  0  2  0  0  0  0  0  0
  195.5730  175.9450  143.3080 C   0  0  2  0  0  0  0  0  0  0  0  0
  196.4940  176.9760  143.1350 O   0  0  0  0  0  1  0  0  0  0  0  0
  196.2220  174.6830  143.8970 C   0  0  2  0  0  3  0  0  0  0  0  0
  190.1990  171.3430  139.2500 C   0  0  0  0  0  2  0  0  0  0  0  0
  191.4080  171.9110  138.5240 C   0  0  0  0  0  2  0  0  0  0  0  0
  191.2980  171.6640  137.0930 N   0  0  0  0  0  0  0  0  0  0  0  0
  192.6720  170.1640  135.8110 C   0  0  0  0  0  0  0  0  0  0  0  0
  191.6020  170.3800  136.5300 C   0  0  0  0  0  3  0  0  0  0  0  0
  193.7360  169.9290  135.0910 C   0  0  0  0  0  3  0  0  0  0  0  0
  194.9160  169.2620  135.6510 C   0  0  0  0  0  0  0  0  0  0  0  0
  195.8280  168.6980  134.9270 N   0  0  0  0  0  0  0  0  0  0  0  0
  195.1660  169.2050  137.0490 N   0  0  0  0  0  0  0  0  0  0  0  0
  196.2810  168.5700  137.1490 C   0  0  0  0  0  0  0  0  0  0  0  0
  196.8360  168.1680  135.8300 C   0  0  0  0  0  2  0  0  0  0  0  0
  196.9050  168.3030  138.4000 N   0  0  0  0  0  1  0  0  0  0  0  0
  190.6640  172.6200  136.2850 N   0  0  0  0  0  2  0  0  0  0  0  0
  191.1580  173.8780  136.6630 N   0  0  0  0  0  2  0  0  0  0  0  0
  191.5280  174.5700  135.4440 C   0  0  0  0  0  2  0  0  0  0  0  0
  192.9270  174.3070  135.1420 N   0  0  0  0  0  2  0  0  0  0  0  0
  193.4550  175.5110  134.5250 C   0  0  1  0  0  3  0  0  0  0  0  0
  193.1580  177.7400  135.3330 O   0  0  0  0  0  1  0  0  0  0  0  0
  192.4920  176.6720  134.7320 C   0  0  0  0  0  2  0  0  0  0  0  0
  194.8490  175.8200  135.0700 C   0  0  0  0  0  2  0  0  0  0  0  0
  195.0510  175.2840  136.4790 C   0  0  2  0  0  3  0  0  0  0  0  0
  196.3250  175.6700  136.9330 O   0  0  0  0  0  0  0  0  0  0  0  0
  196.1900  174.3380  136.4950 C   0  0  1  0  0  3  0  0  0  0  0  0
  195.0990  172.4400  137.7540 N   0  0  0  0  0  1  0  0  0  0  0  0
  196.1120  173.4380  137.6820 C   0  0  0  0  0  0  0  0  0  0  0  0
  196.9220  173.5770  138.6360 O   0  0  0  0  0  0  0  0  0  0  0  0
  1  4  1  0  0  0  0
  2  8  1  0  0  0  0
  3  5  1  0  0  0  0
  3 16  1  0  0  0  0
  4 19  1  0  0  0  0
  4  2  2  0  0  0  0
  6  2  1  0  0  0  0
  6  9  1  0  0  0  0
  7  6  2  0  0  0  0
  8  5  2  0  0  0  0
  9  3  2  0  0  0  0
 10  1  2  0  0  0  0
 10  7  1  0  0  0  0
 12 11  2  0  0  0  0
 13 12  1  0  0  0  0
 14 15  2  0  0  0  0
 15 11  1  0  0  0  0
 16 13  2  0  0  0  0
 16 14  1  0  0  0  0
 17 14  1  0  0  0  0
 17 18  1  0  0  0  0
 20 22  1  0  0  0  0
 20 23  1  0  0  0  0
 21 19  1  6  0  0  0
 22 21  1  0  0  0  0
 23 21  1  0  0  0  0
 23 24  1  1  0  0  0
 24 26  1  0  0  0  0
 24 25  2  0  0  0  0
 27 28  1  0  0  0  0
 27 29  1  0  0  0  0
 27 30  1  1  0  0  0
 28 29  1  0  0  0  0
 29 26  1  6  0  0  0
 31 38  1  0  0  0  0
 32 30  1  1  0  0  0
 32 35  1  0  0  0  0
 33 35  1  0  0  0  0
 34 37  1  0  0  0  0
 36 34  1  1  0  0  0
 36 33  1  0  0  0  0
 37 32  1  0  0  0  0
 38 39  1  6  0  0  0
 38 40  1  0  0  0  0
 38 36  1  0  0  0  0
 40 31  1  6  0  0  0
 40 32  1  0  0  0  0
 41  1  1  0  0  0  0
 42 41  1  0  0  0  0
 43 42  1  0  0  0  0
 44 45  2  0  0  0  0
 45 43  1  0  0  0  0
 46 47  1  0  0  0  0
 46 44  2  0  0  0  0
 47 49  1  0  0  0  0
 48 47  2  0  0  0  0
 48 51  1  0  0  0  0
 49 50  2  0  0  0  0
 50 52  1  0  0  0  0
 51 50  1  0  0  0  0
 53 54  1  0  0  0  0
 53 43  1  0  0  0  0
 55 54  1  0  0  0  0
 56 55  1  0  0  0  0
 57 59  1  1  0  0  0
 57 60  1  0  0  0  0
 57 56  1  0  0  0  0
 59 58  1  0  0  0  0
 61 60  1  6  0  0  0
 61 63  1  0  0  0  0
 61 62  1  0  0  0  0
 63 62  1  0  0  0  0
 63 65  1  1  0  0  0
 65 64  1  0  0  0  0
 65 66  2  0  0  0  0
M  END
>  <MODEL>
9

>  <REMARK>
 VINA RESULT:      -5.8      4.586      7.765
  Name = 
  23 active torsions:
  status: ('A' for Active; 'I' for Inactive)
    1  A    between atoms: C_1  and  C_19
    2  A    between atoms: C_3  and  C_45
    3  A    between atoms: C_4  and  C_45
    4  A    between atoms: C_5  and  C_6
    5  A    between atoms: C_6  and  CA_58
    6  A    between atoms: C_8  and  O_18
    7  A    between atoms: C_8  and  C_62
    8  A    between atoms: C_11  and  C_53
    9  A    between atoms: C_12  and  N_61
   10  A    between atoms: C_14  and  N_33
   11  A    between atoms: C_15  and  C_43
   12  A    between atoms: O_18  and  C_28
   13  A    between atoms: C_19  and  C_22
   14  A    between atoms: C_22  and  N_33
   15  A    between atoms: C_24  and  N_61
   16  A    between atoms: C_25  and  C_60
   17  A    between atoms: C_30  and  N_31
   18  A    between atoms: C_30  and  N_39
   19  A    between atoms: N_31  and  CA_58
   20  A    between atoms: N_33  and  N_57
   21  A    between atoms: O_36  and  C_42
   22  A    between atoms: N_39  and  N_57
   23  A    between atoms: C_54  and  CA_58
                            x       y       z     vdW  Elec       q    Type
                         _______ _______ _______ _____ _____    ______ ____

>  <TORSDO>
F 23

$$$$
