=
 OpenBabel11042416453D

 48 53  0  0  1  0  0  0  0  0999 V2000
  193.0510  171.5740  141.6960 C   0  0  0  0  0  2  0  0  0  0  0  0
  192.5490  171.2720  140.3690 N   0  0  0  0  0  0  0  0  0  0  0  0
  193.3100  169.8150  143.3050 O   0  0  0  0  0  0  0  0  0  0  0  0
  191.8100  168.3370  141.8010 F   0  0  0  0  0  0  0  0  0  0  0  0
  190.1290  169.8070  142.2030 F   0  0  0  0  0  0  0  0  0  0  0  0
  191.4320  169.6690  141.7620 C   0  0  0  0  0  0  0  0  0  0  0  0
  192.3640  170.5560  142.5710 C   0  0  2  0  0  0  0  0  0  0  0  0
  192.3710  170.5510  144.0610 C   0  0  2  0  0  3  0  0  0  0  0  0
  191.5560  170.2020  140.3400 C   0  0  0  0  0  2  0  0  0  0  0  0
  193.8540  174.6510  136.0570 O   0  0  0  0  0  1  0  0  0  0  0  0
  192.0660  173.3080  139.0030 C   0  0  0  0  0  0  0  0  0  0  0  0
  193.5060  173.8120  137.1050 C   0  0  0  0  0  0  0  0  0  0  0  0
  192.4360  174.1430  137.9380 C   0  0  0  0  0  3  0  0  0  0  0  0
  192.8110  172.1240  139.2420 C   0  0  0  0  0  0  0  0  0  0  0  0
  194.2170  172.6340  137.3210 C   0  0  0  0  0  3  0  0  0  0  0  0
  193.8730  171.7970  138.3830 C   0  0  0  0  0  3  0  0  0  0  0  0
  188.4560  173.9180  139.9680 C   0  0  0  0  0  3  0  0  0  0  0  0
  188.5900  174.4200  141.2730 C   0  0  0  0  0  0  0  0  0  0  0  0
  191.0000  174.1810  141.0860 C   0  0  0  0  0  3  0  0  0  0  0  0
  190.8650  173.6700  139.7880 C   0  0  0  0  0  0  0  0  0  0  0  0
  189.8700  174.5460  141.8230 C   0  0  0  0  0  3  0  0  0  0  0  0
  189.5830  173.5540  139.2300 C   0  0  0  0  0  3  0  0  0  0  0  0
  187.4860  174.7720  142.0650 O   0  0  0  0  0  0  0  0  0  0  0  0
  186.3750  176.2340  143.5750 N   0  0  0  0  0  0  0  0  0  0  0  0
  185.9680  177.4610  144.0040 C   0  0  0  0  0  0  0  0  0  0  0  0
  187.4360  177.1990  141.6690 C   0  0  0  0  0  3  0  0  0  0  0  0
  186.2880  178.6010  143.2640 C   0  0  0  0  0  3  0  0  0  0  0  0
  187.0910  176.0690  142.4290 C   0  0  0  0  0  0  0  0  0  0  0  0
  187.0280  178.4650  142.0900 C   0  0  0  0  0  3  0  0  0  0  0  0
  185.7060  178.5810  146.0590 F   0  0  0  0  0  0  0  0  0  0  0  0
  185.1640  176.3890  145.9370 F   0  0  0  0  0  0  0  0  0  0  0  0
  185.1690  177.5920  145.2550 C   0  0  0  0  0  3  0  0  0  0  0  0
  194.1920  171.7560  145.0120 O   0  0  0  0  0  0  0  0  0  0  0  0
  192.2390  173.0020  144.7160 N   0  0  0  0  0  2  0  0  0  0  0  0
  192.9960  171.7920  144.6170 C   0  0  0  0  0  0  0  0  0  0  0  0
  192.7130  174.1620  145.4570 C   0  0  2  0  0  3  0  0  0  0  0  0
  189.7150  176.3480  145.9670 C   0  0  0  0  0  0  0  0  0  0  0  0
  190.3470  175.1010  145.3770 C   0  0  0  0  0  2  0  0  0  0  0  0
  188.3510  176.0190  146.5370 C   0  0  0  0  0  1  0  0  0  0  0  0
  191.5520  174.7830  146.2460 C   0  0  2  0  0  3  0  0  0  0  0  0
  191.9350  176.0780  146.9250 C   0  0  0  0  0  2  0  0  0  0  0  0
  189.5790  177.4090  144.8940 C   0  0  0  0  0  1  0  0  0  0  0  0
  190.6350  176.8400  147.0720 C   0  0  0  0  0  2  0  0  0  0  0  0
  196.5940  176.7270  143.4880 C   0  0  0  0  0  1  0  0  0  0  0  0
  194.7000  175.3820  144.4620 C   0  0  0  0  0  0  0  0  0  0  0  0
  195.5050  174.7230  145.1760 O   0  0  0  0  0  0  0  0  0  0  0  0
  193.2970  175.1220  144.5270 N   0  0  0  0  0  2  0  0  0  0  0  0
  195.1830  176.3930  143.5790 N   0  0  0  0  0  2  0  0  0  0  0  0
  2  1  1  0  0  0  0
  3  8  1  0  0  0  0
  6  4  1  0  0  0  0
  6  5  1  0  0  0  0
  6  7  1  0  0  0  0
  7  1  1  6  0  0  0
  7  3  1  0  0  0  0
  7  8  1  0  0  0  0
  8 35  1  6  0  0  0
  9  2  1  0  0  0  0
  9  6  1  0  0  0  0
 10 12  1  0  0  0  0
 11 14  1  0  0  0  0
 11 20  1  0  0  0  0
 12 15  2  0  0  0  0
 12 13  1  0  0  0  0
 13 11  2  0  0  0  0
 14  2  1  0  0  0  0
 15 16  1  0  0  0  0
 16 14  2  0  0  0  0
 17 18  1  0  0  0  0
 18 21  2  0  0  0  0
 18 23  1  0  0  0  0
 19 21  1  0  0  0  0
 20 19  2  0  0  0  0
 22 20  1  0  0  0  0
 22 17  2  0  0  0  0
 23 28  1  0  0  0  0
 24 25  1  0  0  0  0
 25 32  1  0  0  0  0
 26 29  2  0  0  0  0
 26 28  1  0  0  0  0
 27 25  2  0  0  0  0
 28 24  2  0  0  0  0
 29 27  1  0  0  0  0
 32 31  1  0  0  0  0
 32 30  1  0  0  0  0
 34 36  1  0  0  0  0
 35 34  1  0  0  0  0
 35 33  2  0  0  0  0
 36 47  1  6  0  0  0
 37 39  1  0  0  0  0
 37 43  1  0  0  0  0
 38 37  1  0  0  0  0
 38 40  1  0  0  0  0
 40 36  1  6  0  0  0
 40 41  1  0  0  0  0
 41 43  1  0  0  0  0
 42 37  1  0  0  0  0
 44 48  1  0  0  0  0
 45 47  1  0  0  0  0
 45 46  2  0  0  0  0
 48 45  1  0  0  0  0
M  END
>  <MODEL>
1

>  <REMARK>
 VINA RESULT:      -7.7      0.000      0.000
  Name = 
  9 active torsions:
  status: ('A' for Active; 'I' for Inactive)
    1  A    between atoms: O_3  and  C_16
    2  A    between atoms: O_3  and  C_29
    3  A    between atoms: N_7  and  C_38
    4  A    between atoms: C_12  and  C_30
    5  A    between atoms: C_15  and  C_20
    6  A    between atoms: C_26  and  C_46
    7  A    between atoms: C_33  and  N_35
    8  A    between atoms: C_33  and  C_36
    9  A    between atoms: C_33  and  N_44
                            x       y       z     vdW  Elec       q    Type
                         _______ _______ _______ _____ _____    ______ ____

>  <TORSDO>
F 9

$$$$
=
 OpenBabel11042416453D

 48 53  0  0  1  0  0  0  0  0999 V2000
  195.5010  173.4330  141.8170 C   0  0  0  0  0  2  0  0  0  0  0  0
  196.5430  173.5680  142.8180 N   0  0  0  0  0  0  0  0  0  0  0  0
  195.6910  174.5940  139.7280 O   0  0  0  0  0  0  0  0  0  0  0  0
  197.5260  176.0620  140.8110 F   0  0  0  0  0  0  0  0  0  0  0  0
  195.9340  176.8320  142.2310 F   0  0  0  0  0  0  0  0  0  0  0  0
  196.5450  175.7030  141.7210 C   0  0  0  0  0  0  0  0  0  0  0  0
  195.5130  174.7660  141.1140 C   0  0  2  0  0  0  0  0  0  0  0  0
  194.4980  175.2340  140.1300 C   0  0  2  0  0  3  0  0  0  0  0  0
  197.1610  174.8910  142.8530 C   0  0  0  0  0  2  0  0  0  0  0  0
  197.3110  169.4870  146.6210 O   0  0  0  0  0  1  0  0  0  0  0  0
  195.9490  172.5250  145.0090 C   0  0  0  0  0  0  0  0  0  0  0  0
  197.1320  170.5130  145.7050 C   0  0  0  0  0  0  0  0  0  0  0  0
  196.1470  171.4780  145.9220 C   0  0  0  0  0  3  0  0  0  0  0  0
  196.7530  172.5820  143.8400 C   0  0  0  0  0  0  0  0  0  0  0  0
  197.9410  170.5880  144.5740 C   0  0  0  0  0  3  0  0  0  0  0  0
  197.7510  171.6130  143.6480 C   0  0  0  0  0  3  0  0  0  0  0  0
  194.3870  175.6940  146.3690 C   0  0  0  0  0  3  0  0  0  0  0  0
  193.0350  175.5110  146.0370 C   0  0  0  0  0  0  0  0  0  0  0  0
  193.6020  173.3780  145.0250 C   0  0  0  0  0  3  0  0  0  0  0  0
  194.9540  173.5660  145.3470 C   0  0  0  0  0  0  0  0  0  0  0  0
  192.6530  174.3470  145.3620 C   0  0  0  0  0  3  0  0  0  0  0  0
  195.3350  174.7270  146.0340 C   0  0  0  0  0  3  0  0  0  0  0  0
  192.0490  176.4680  146.3260 O   0  0  0  0  0  0  0  0  0  0  0  0
  189.7720  177.1140  146.1000 N   0  0  0  0  0  0  0  0  0  0  0  0
  188.4340  176.9420  146.2850 C   0  0  0  0  0  0  0  0  0  0  0  0
  190.2440  175.0880  147.2650 C   0  0  0  0  0  3  0  0  0  0  0  0
  187.9630  175.8240  146.9770 C   0  0  0  0  0  3  0  0  0  0  0  0
  190.6890  176.2260  146.5740 C   0  0  0  0  0  0  0  0  0  0  0  0
  188.8770  174.8920  147.4680 C   0  0  0  0  0  3  0  0  0  0  0  0
  186.1820  177.4420  145.8100 F   0  0  0  0  0  0  0  0  0  0  0  0
  187.7910  178.2820  144.4620 F   0  0  0  0  0  0  0  0  0  0  0  0
  187.4680  177.9500  145.7650 C   0  0  0  0  0  3  0  0  0  0  0  0
  193.2440  173.5210  139.0490 O   0  0  0  0  0  0  0  0  0  0  0  0
  192.3340  174.2830  141.0600 N   0  0  0  0  0  2  0  0  0  0  0  0
  193.3370  174.2930  140.0410 C   0  0  0  0  0  0  0  0  0  0  0  0
  191.0750  173.5660  140.9110 C   0  0  2  0  0  3  0  0  0  0  0  0
  188.1710  175.7120  141.9060 C   0  0  0  0  0  0  0  0  0  0  0  0
  188.7190  174.4920  141.1880 C   0  0  0  0  0  2  0  0  0  0  0  0
  186.8970  175.3530  142.6420 C   0  0  0  0  0  1  0  0  0  0  0  0
  190.0300  174.1480  141.8730 C   0  0  2  0  0  3  0  0  0  0  0  0
  190.5000  175.4190  142.5440 C   0  0  0  0  0  2  0  0  0  0  0  0
  187.8910  176.8130  140.9030 C   0  0  0  0  0  1  0  0  0  0  0  0
  189.2320  176.1670  142.8950 C   0  0  0  0  0  2  0  0  0  0  0  0
  190.8030  168.6810  139.6560 C   0  0  0  0  0  1  0  0  0  0  0  0
  190.9700  171.1320  140.2120 C   0  0  0  0  0  0  0  0  0  0  0  0
  190.5350  171.4440  139.0690 O   0  0  0  0  0  0  0  0  0  0  0  0
  191.2960  172.1460  141.1630 N   0  0  0  0  0  2  0  0  0  0  0  0
  191.1440  169.7610  140.5660 N   0  0  0  0  0  2  0  0  0  0  0  0
  1  2  1  0  0  0  0
  2  9  1  0  0  0  0
  2 14  1  0  0  0  0
  3  8  1  0  0  0  0
  3  7  1  0  0  0  0
  4  6  1  0  0  0  0
  6  5  1  0  0  0  0
  6  9  1  0  0  0  0
  7  6  1  0  0  0  0
  7  1  1  1  0  0  0
  8 35  1  1  0  0  0
  8  7  1  0  0  0  0
 11 20  1  0  0  0  0
 11 13  1  0  0  0  0
 12 13  2  0  0  0  0
 12 10  1  0  0  0  0
 14 11  2  0  0  0  0
 15 12  1  0  0  0  0
 16 14  1  0  0  0  0
 16 15  2  0  0  0  0
 18 23  1  0  0  0  0
 18 17  1  0  0  0  0
 19 20  2  0  0  0  0
 19 21  1  0  0  0  0
 20 22  1  0  0  0  0
 21 18  2  0  0  0  0
 22 17  2  0  0  0  0
 23 28  1  0  0  0  0
 24 25  1  0  0  0  0
 24 28  2  0  0  0  0
 25 27  2  0  0  0  0
 26 29  2  0  0  0  0
 27 29  1  0  0  0  0
 28 26  1  0  0  0  0
 31 32  1  0  0  0  0
 32 30  1  0  0  0  0
 32 25  1  0  0  0  0
 33 35  2  0  0  0  0
 35 34  1  0  0  0  0
 36 34  1  1  0  0  0
 36 47  1  0  0  0  0
 37 39  1  0  0  0  0
 37 43  1  0  0  0  0
 38 40  1  0  0  0  0
 38 37  1  0  0  0  0
 40 36  1  6  0  0  0
 40 41  1  0  0  0  0
 41 43  1  0  0  0  0
 42 37  1  0  0  0  0
 44 48  1  0  0  0  0
 45 48  1  0  0  0  0
 45 47  1  0  0  0  0
 46 45  2  0  0  0  0
M  END
>  <MODEL>
2

>  <REMARK>
 VINA RESULT:      -7.7      3.251      6.595
  Name = 
  9 active torsions:
  status: ('A' for Active; 'I' for Inactive)
    1  A    between atoms: O_3  and  C_16
    2  A    between atoms: O_3  and  C_29
    3  A    between atoms: N_7  and  C_38
    4  A    between atoms: C_12  and  C_30
    5  A    between atoms: C_15  and  C_20
    6  A    between atoms: C_26  and  C_46
    7  A    between atoms: C_33  and  N_35
    8  A    between atoms: C_33  and  C_36
    9  A    between atoms: C_33  and  N_44
                            x       y       z     vdW  Elec       q    Type
                         _______ _______ _______ _____ _____    ______ ____

>  <TORSDO>
F 9

$$$$
=
 OpenBabel11042416453D

 48 53  0  0  1  0  0  0  0  0999 V2000
  191.2130  174.1210  141.5100 C   0  0  0  0  0  2  0  0  0  0  0  0
  191.9700  174.0120  142.7430 N   0  0  0  0  0  0  0  0  0  0  0  0
  188.8860  173.5450  141.4810 O   0  0  0  0  0  0  0  0  0  0  0  0
  189.2440  172.3470  143.7470 F   0  0  0  0  0  0  0  0  0  0  0  0
  190.6320  170.9180  142.6600 F   0  0  0  0  0  0  0  0  0  0  0  0
  190.3550  172.2460  142.9260 C   0  0  0  0  0  0  0  0  0  0  0  0
  190.1850  173.0240  141.6310 C   0  0  2  0  0  0  0  0  0  0  0  0
  189.2790  172.5660  140.5420 C   0  0  2  0  0  3  0  0  0  0  0  0
  191.5560  172.9010  143.5960 C   0  0  0  0  0  2  0  0  0  0  0  0
  196.8320  176.6910  143.6890 O   0  0  0  0  0  1  0  0  0  0  0  0
  193.2620  175.7620  143.9710 C   0  0  0  0  0  0  0  0  0  0  0  0
  195.6220  176.0580  143.4460 C   0  0  0  0  0  0  0  0  0  0  0  0
  194.4960  176.3890  144.2010 C   0  0  0  0  0  3  0  0  0  0  0  0
  193.1750  174.7610  142.9680 C   0  0  0  0  0  0  0  0  0  0  0  0
  195.5270  175.0980  142.4410 C   0  0  0  0  0  3  0  0  0  0  0  0
  194.3130  174.4540  142.2060 C   0  0  0  0  0  3  0  0  0  0  0  0
  190.6570  176.0910  146.6980 C   0  0  0  0  0  3  0  0  0  0  0  0
  189.8160  177.0840  146.1710 C   0  0  0  0  0  0  0  0  0  0  0  0
  191.2430  177.2110  144.2100 C   0  0  0  0  0  3  0  0  0  0  0  0
  192.0890  176.2280  144.7420 C   0  0  0  0  0  0  0  0  0  0  0  0
  190.1190  177.6390  144.9240 C   0  0  0  0  0  3  0  0  0  0  0  0
  191.7790  175.6620  145.9870 C   0  0  0  0  0  3  0  0  0  0  0  0
  188.6930  177.5680  146.8610 O   0  0  0  0  0  0  0  0  0  0  0  0
  187.0830  178.3950  145.3190 N   0  0  0  0  0  0  0  0  0  0  0  0
  185.8280  178.4760  144.7960 C   0  0  0  0  0  0  0  0  0  0  0  0
  186.3460  176.8460  146.9760 C   0  0  0  0  0  3  0  0  0  0  0  0
  184.7880  177.7360  145.3610 C   0  0  0  0  0  3  0  0  0  0  0  0
  187.3700  177.6090  146.3930 C   0  0  0  0  0  0  0  0  0  0  0  0
  185.0520  176.9150  146.4570 C   0  0  0  0  0  3  0  0  0  0  0  0
  186.5310  179.1930  142.6660 F   0  0  0  0  0  0  0  0  0  0  0  0
  185.5360  180.6850  144.0430 F   0  0  0  0  0  0  0  0  0  0  0  0
  185.5560  179.3650  143.6320 C   0  0  0  0  0  3  0  0  0  0  0  0
  188.9160  174.1500  138.8000 O   0  0  0  0  0  0  0  0  0  0  0  0
  190.7310  172.7190  138.4620 N   0  0  0  0  0  2  0  0  0  0  0  0
  189.6230  173.1990  139.2300 C   0  0  0  0  0  0  0  0  0  0  0  0
  190.9670  173.1340  137.0870 C   0  0  2  0  0  3  0  0  0  0  0  0
  191.5350  169.5620  136.1190 C   0  0  0  0  0  0  0  0  0  0  0  0
  190.6690  170.8080  136.0950 C   0  0  0  0  0  2  0  0  0  0  0  0
  191.5410  168.9080  134.7530 C   0  0  0  0  0  1  0  0  0  0  0  0
  191.6100  171.9830  136.3020 C   0  0  2  0  0  3  0  0  0  0  0  0
  192.8370  171.4250  136.9850 C   0  0  0  0  0  2  0  0  0  0  0  0
  191.0010  168.5870  137.1500 C   0  0  0  0  0  1  0  0  0  0  0  0
  192.9420  169.9970  136.4940 C   0  0  0  0  0  2  0  0  0  0  0  0
  192.6310  177.4620  135.0830 C   0  0  0  0  0  1  0  0  0  0  0  0
  191.7280  175.3300  136.0730 C   0  0  0  0  0  0  0  0  0  0  0  0
  190.8450  175.2600  135.1750 O   0  0  0  0  0  0  0  0  0  0  0  0
  191.8160  174.3210  137.0810 N   0  0  0  0  0  2  0  0  0  0  0  0
  192.6480  176.4200  136.0950 N   0  0  0  0  0  2  0  0  0  0  0  0
  1  2  1  0  0  0  0
  2 14  1  0  0  0  0
  2  9  1  0  0  0  0
  3  7  1  0  0  0  0
  5  6  1  0  0  0  0
  6  9  1  0  0  0  0
  6  4  1  0  0  0  0
  7  1  1  6  0  0  0
  7  6  1  0  0  0  0
  8 35  1  6  0  0  0
  8  3  1  0  0  0  0
  8  7  1  0  0  0  0
 11 13  1  0  0  0  0
 11 20  1  0  0  0  0
 12 10  1  0  0  0  0
 12 13  2  0  0  0  0
 14 11  2  0  0  0  0
 15 12  1  0  0  0  0
 16 15  2  0  0  0  0
 16 14  1  0  0  0  0
 18 17  1  0  0  0  0
 18 23  1  0  0  0  0
 19 20  2  0  0  0  0
 19 21  1  0  0  0  0
 20 22  1  0  0  0  0
 21 18  2  0  0  0  0
 22 17  2  0  0  0  0
 24 28  2  0  0  0  0
 25 24  1  0  0  0  0
 25 27  2  0  0  0  0
 27 29  1  0  0  0  0
 28 23  1  0  0  0  0
 28 26  1  0  0  0  0
 29 26  2  0  0  0  0
 30 32  1  0  0  0  0
 32 31  1  0  0  0  0
 32 25  1  0  0  0  0
 33 35  2  0  0  0  0
 34 35  1  0  0  0  0
 36 47  1  1  0  0  0
 36 34  1  0  0  0  0
 37 43  1  0  0  0  0
 37 42  1  0  0  0  0
 38 37  1  0  0  0  0
 38 40  1  0  0  0  0
 39 37  1  0  0  0  0
 40 41  1  0  0  0  0
 40 36  1  1  0  0  0
 43 41  1  0  0  0  0
 44 48  1  0  0  0  0
 45 48  1  0  0  0  0
 45 47  1  0  0  0  0
 46 45  2  0  0  0  0
M  END
>  <MODEL>
3

>  <REMARK>
 VINA RESULT:      -7.6      2.762      7.114
  Name = 
  9 active torsions:
  status: ('A' for Active; 'I' for Inactive)
    1  A    between atoms: O_3  and  C_16
    2  A    between atoms: O_3  and  C_29
    3  A    between atoms: N_7  and  C_38
    4  A    between atoms: C_12  and  C_30
    5  A    between atoms: C_15  and  C_20
    6  A    between atoms: C_26  and  C_46
    7  A    between atoms: C_33  and  N_35
    8  A    between atoms: C_33  and  C_36
    9  A    between atoms: C_33  and  N_44
                            x       y       z     vdW  Elec       q    Type
                         _______ _______ _______ _____ _____    ______ ____

>  <TORSDO>
F 9

$$$$
=
 OpenBabel11042416453D

 48 53  0  0  1  0  0  0  0  0999 V2000
  195.6400  173.8260  142.3740 C   0  0  0  0  0  2  0  0  0  0  0  0
  196.1390  173.8820  143.7340 N   0  0  0  0  0  0  0  0  0  0  0  0
  196.2900  175.5040  140.7900 O   0  0  0  0  0  0  0  0  0  0  0  0
  197.0960  176.9460  142.7820 F   0  0  0  0  0  0  0  0  0  0  0  0
  194.9370  177.0210  143.4740 F   0  0  0  0  0  0  0  0  0  0  0  0
  195.9800  176.1930  143.1050 C   0  0  0  0  0  0  0  0  0  0  0  0
  195.5560  175.2760  141.9690 C   0  0  2  0  0  0  0  0  0  0  0  0
  194.9090  175.7920  140.7310 C   0  0  2  0  0  3  0  0  0  0  0  0
  196.3110  175.2390  144.2460 C   0  0  0  0  0  2  0  0  0  0  0  0
  196.4600  169.1580  146.7820 O   0  0  0  0  0  1  0  0  0  0  0  0
  195.0750  172.2500  145.2990 C   0  0  0  0  0  0  0  0  0  0  0  0
  196.3770  170.3380  146.0580 C   0  0  0  0  0  0  0  0  0  0  0  0
  195.1800  171.0540  146.0240 C   0  0  0  0  0  3  0  0  0  0  0  0
  196.2020  172.7180  144.5740 C   0  0  0  0  0  0  0  0  0  0  0  0
  197.4920  170.8140  145.3720 C   0  0  0  0  0  3  0  0  0  0  0  0
  197.4040  171.9950  144.6340 C   0  0  0  0  0  3  0  0  0  0  0  0
  191.4990  173.3440  144.7060 C   0  0  0  0  0  3  0  0  0  0  0  0
  191.4170  174.4950  145.5060 C   0  0  0  0  0  0  0  0  0  0  0  0
  193.7280  174.1630  146.1720 C   0  0  0  0  0  3  0  0  0  0  0  0
  193.8070  173.0070  145.3820 C   0  0  0  0  0  0  0  0  0  0  0  0
  192.5400  174.8960  146.2370 C   0  0  0  0  0  3  0  0  0  0  0  0
  192.6860  172.6120  144.6390 C   0  0  0  0  0  3  0  0  0  0  0  0
  190.2380  175.2480  145.6290 O   0  0  0  0  0  0  0  0  0  0  0  0
  188.4440  176.6000  144.8500 N   0  0  0  0  0  0  0  0  0  0  0  0
  187.8810  177.5040  144.0010 C   0  0  0  0  0  0  0  0  0  0  0  0
  190.5020  176.6780  143.6460 C   0  0  0  0  0  3  0  0  0  0  0  0
  188.6240  178.0200  142.9380 C   0  0  0  0  0  3  0  0  0  0  0  0
  189.7270  176.1680  144.7000 C   0  0  0  0  0  0  0  0  0  0  0  0
  189.9440  177.6040  142.7630 C   0  0  0  0  0  3  0  0  0  0  0  0
  185.6220  177.1140  143.4640 F   0  0  0  0  0  0  0  0  0  0  0  0
  186.3140  179.2430  143.7780 F   0  0  0  0  0  0  0  0  0  0  0  0
  186.4670  177.9320  144.1910 C   0  0  0  0  0  3  0  0  0  0  0  0
  194.7090  174.1790  138.9900 O   0  0  0  0  0  0  0  0  0  0  0  0
  192.8710  174.3060  140.4250 N   0  0  0  0  0  2  0  0  0  0  0  0
  194.1740  174.7130  139.9980 C   0  0  0  0  0  0  0  0  0  0  0  0
  192.0200  173.4390  139.6210 C   0  0  2  0  0  3  0  0  0  0  0  0
  188.7620  173.4030  141.4670 C   0  0  0  0  0  0  0  0  0  0  0  0
  190.1950  173.8870  141.3390 C   0  0  0  0  0  2  0  0  0  0  0  0
  187.8630  174.5470  141.8860 C   0  0  0  0  0  1  0  0  0  0  0  0
  190.5460  173.7900  139.8640 C   0  0  2  0  0  3  0  0  0  0  0  0
  189.5990  172.7730  139.2720 C   0  0  0  0  0  2  0  0  0  0  0  0
  188.6880  172.2910  142.4940 C   0  0  0  0  0  1  0  0  0  0  0  0
  188.3390  172.8810  140.1030 C   0  0  0  0  0  2  0  0  0  0  0  0
  193.3860  168.7200  138.4500 C   0  0  0  0  0  1  0  0  0  0  0  0
  192.7680  171.0990  138.9950 C   0  0  0  0  0  0  0  0  0  0  0  0
  193.0310  171.4620  137.8160 O   0  0  0  0  0  0  0  0  0  0  0  0
  192.2980  172.0470  139.9560 N   0  0  0  0  0  2  0  0  0  0  0  0
  192.9400  169.7380  139.3850 N   0  0  0  0  0  2  0  0  0  0  0  0
  1  2  1  0  0  0  0
  2  9  1  0  0  0  0
  2 14  1  0  0  0  0
  3  7  1  0  0  0  0
  4  6  1  0  0  0  0
  6  5  1  0  0  0  0
  6  9  1  0  0  0  0
  7  1  1  1  0  0  0
  7  6  1  0  0  0  0
  8 35  1  6  0  0  0
  8  3  1  0  0  0  0
  8  7  1  0  0  0  0
 11 20  1  0  0  0  0
 11 13  1  0  0  0  0
 12 10  1  0  0  0  0
 13 12  2  0  0  0  0
 14 16  1  0  0  0  0
 14 11  2  0  0  0  0
 15 12  1  0  0  0  0
 16 15  2  0  0  0  0
 17 18  1  0  0  0  0
 18 23  1  0  0  0  0
 18 21  2  0  0  0  0
 19 21  1  0  0  0  0
 20 19  2  0  0  0  0
 22 17  2  0  0  0  0
 22 20  1  0  0  0  0
 25 32  1  0  0  0  0
 25 24  1  0  0  0  0
 26 28  1  0  0  0  0
 27 25  2  0  0  0  0
 28 24  2  0  0  0  0
 28 23  1  0  0  0  0
 29 27  1  0  0  0  0
 29 26  2  0  0  0  0
 30 32  1  0  0  0  0
 31 32  1  0  0  0  0
 33 35  2  0  0  0  0
 35 34  1  0  0  0  0
 36 47  1  1  0  0  0
 36 34  1  0  0  0  0
 37 39  1  0  0  0  0
 37 42  1  0  0  0  0
 38 37  1  0  0  0  0
 40 36  1  1  0  0  0
 40 38  1  0  0  0  0
 41 40  1  0  0  0  0
 41 43  1  0  0  0  0
 43 37  1  0  0  0  0
 44 48  1  0  0  0  0
 45 48  1  0  0  0  0
 45 47  1  0  0  0  0
 46 45  2  0  0  0  0
M  END
>  <MODEL>
4

>  <REMARK>
 VINA RESULT:      -7.4      3.084      6.566
  Name = 
  9 active torsions:
  status: ('A' for Active; 'I' for Inactive)
    1  A    between atoms: O_3  and  C_16
    2  A    between atoms: O_3  and  C_29
    3  A    between atoms: N_7  and  C_38
    4  A    between atoms: C_12  and  C_30
    5  A    between atoms: C_15  and  C_20
    6  A    between atoms: C_26  and  C_46
    7  A    between atoms: C_33  and  N_35
    8  A    between atoms: C_33  and  C_36
    9  A    between atoms: C_33  and  N_44
                            x       y       z     vdW  Elec       q    Type
                         _______ _______ _______ _____ _____    ______ ____

>  <TORSDO>
F 9

$$$$
=
 OpenBabel11042416453D

 48 53  0  0  1  0  0  0  0  0999 V2000
  192.2370  174.4690  144.8430 C   0  0  0  0  0  2  0  0  0  0  0  0
  190.9660  173.9710  144.3520 N   0  0  0  0  0  0  0  0  0  0  0  0
  192.5880  174.7310  147.2000 O   0  0  0  0  0  0  0  0  0  0  0  0
  190.0260  174.5460  147.5140 F   0  0  0  0  0  0  0  0  0  0  0  0
  189.8410  176.4660  146.3210 F   0  0  0  0  0  0  0  0  0  0  0  0
  190.3590  175.1850  146.3310 C   0  0  0  0  0  0  0  0  0  0  0  0
  191.8610  175.2160  146.0970 C   0  0  2  0  0  0  0  0  0  0  0  0
  192.7690  176.0950  146.8850 C   0  0  2  0  0  3  0  0  0  0  0  0
  189.8160  174.3980  145.1460 C   0  0  0  0  0  2  0  0  0  0  0  0
  190.7550  171.5390  139.2770 O   0  0  0  0  0  1  0  0  0  0  0  0
  190.0680  173.9240  142.0210 C   0  0  0  0  0  0  0  0  0  0  0  0
  190.7760  172.1320  140.5310 C   0  0  0  0  0  0  0  0  0  0  0  0
  190.0610  173.3080  140.7600 C   0  0  0  0  0  3  0  0  0  0  0  0
  190.8360  173.3460  143.0660 C   0  0  0  0  0  0  0  0  0  0  0  0
  191.5040  171.5490  141.5650 C   0  0  0  0  0  3  0  0  0  0  0  0
  191.5350  172.1530  142.8220 C   0  0  0  0  0  3  0  0  0  0  0  0
  188.9670  177.5040  142.5740 C   0  0  0  0  0  3  0  0  0  0  0  0
  187.5730  177.3630  142.6610 C   0  0  0  0  0  0  0  0  0  0  0  0
  187.8210  174.9720  142.3190 C   0  0  0  0  0  3  0  0  0  0  0  0
  189.2120  175.1140  142.2210 C   0  0  0  0  0  0  0  0  0  0  0  0
  187.0090  176.0900  142.5310 C   0  0  0  0  0  3  0  0  0  0  0  0
  189.7800  176.3880  142.3640 C   0  0  0  0  0  3  0  0  0  0  0  0
  186.7130  178.4580  142.8430 O   0  0  0  0  0  0  0  0  0  0  0  0
  186.2620  178.6560  145.1700 N   0  0  0  0  0  0  0  0  0  0  0  0
  185.4390  178.8470  146.2380 C   0  0  0  0  0  0  0  0  0  0  0  0
  184.4260  178.8440  143.6590 C   0  0  0  0  0  3  0  0  0  0  0  0
  184.0710  179.0390  146.0390 C   0  0  0  0  0  3  0  0  0  0  0  0
  185.7960  178.6430  143.8900 C   0  0  0  0  0  0  0  0  0  0  0  0
  183.5640  179.0390  144.7390 C   0  0  0  0  0  3  0  0  0  0  0  0
  186.3130  180.1200  148.0150 F   0  0  0  0  0  0  0  0  0  0  0  0
  187.1180  178.0350  147.6710 F   0  0  0  0  0  0  0  0  0  0  0  0
  185.9900  178.8340  147.6220 C   0  0  0  0  0  3  0  0  0  0  0  0
  194.3690  177.4580  145.7630 O   0  0  0  0  0  0  0  0  0  0  0  0
  194.9770  175.2140  145.9880 N   0  0  0  0  0  2  0  0  0  0  0  0
  194.0770  176.3080  146.1880 C   0  0  0  0  0  0  0  0  0  0  0  0
  196.1430  175.3090  145.1200 C   0  0  2  0  0  3  0  0  0  0  0  0
  196.2790  174.9870  141.3920 C   0  0  0  0  0  0  0  0  0  0  0  0
  195.9590  174.3930  142.7510 C   0  0  0  0  0  2  0  0  0  0  0  0
  195.1910  174.6310  140.4010 C   0  0  0  0  0  1  0  0  0  0  0  0
  195.6920  175.5680  143.6760 C   0  0  2  0  0  3  0  0  0  0  0  0
  196.3850  176.7590  143.0540 C   0  0  0  0  0  2  0  0  0  0  0  0
  197.6110  174.4550  140.9020 C   0  0  0  0  0  1  0  0  0  0  0  0
  196.3530  176.4950  141.5640 C   0  0  0  0  0  2  0  0  0  0  0  0
  196.6630  170.3880  146.1300 C   0  0  0  0  0  1  0  0  0  0  0  0
  196.3410  172.8240  145.5820 C   0  0  0  0  0  0  0  0  0  0  0  0
  195.0960  172.7240  145.7590 O   0  0  0  0  0  0  0  0  0  0  0  0
  196.9210  174.0800  145.2220 N   0  0  0  0  0  2  0  0  0  0  0  0
  197.1860  171.6850  145.7360 N   0  0  0  0  0  2  0  0  0  0  0  0
  2  1  1  0  0  0  0
  2  9  1  0  0  0  0
  5  6  1  0  0  0  0
  6  4  1  0  0  0  0
  7  1  1  6  0  0  0
  7  6  1  0  0  0  0
  7  8  1  0  0  0  0
  7  3  1  0  0  0  0
  8 35  1  6  0  0  0
  8  3  1  0  0  0  0
  9  6  1  0  0  0  0
 10 12  1  0  0  0  0
 11 20  1  0  0  0  0
 11 14  1  0  0  0  0
 12 13  1  0  0  0  0
 12 15  2  0  0  0  0
 13 11  2  0  0  0  0
 14  2  1  0  0  0  0
 15 16  1  0  0  0  0
 16 14  2  0  0  0  0
 17 18  1  0  0  0  0
 18 23  1  0  0  0  0
 19 21  1  0  0  0  0
 20 19  2  0  0  0  0
 20 22  1  0  0  0  0
 21 18  2  0  0  0  0
 22 17  2  0  0  0  0
 23 28  1  0  0  0  0
 24 25  1  0  0  0  0
 25 32  1  0  0  0  0
 26 28  1  0  0  0  0
 26 29  2  0  0  0  0
 27 25  2  0  0  0  0
 28 24  2  0  0  0  0
 29 27  1  0  0  0  0
 32 31  1  0  0  0  0
 32 30  1  0  0  0  0
 33 35  2  0  0  0  0
 34 35  1  0  0  0  0
 36 47  1  6  0  0  0
 36 34  1  0  0  0  0
 37 43  1  0  0  0  0
 37 38  1  0  0  0  0
 38 40  1  0  0  0  0
 39 37  1  0  0  0  0
 40 36  1  1  0  0  0
 41 40  1  0  0  0  0
 42 37  1  0  0  0  0
 43 41  1  0  0  0  0
 45 48  1  0  0  0  0
 45 46  2  0  0  0  0
 47 45  1  0  0  0  0
 48 44  1  0  0  0  0
M  END
>  <MODEL>
5

>  <REMARK>
 VINA RESULT:      -7.2      2.838      5.268
  Name = 
  9 active torsions:
  status: ('A' for Active; 'I' for Inactive)
    1  A    between atoms: O_3  and  C_16
    2  A    between atoms: O_3  and  C_29
    3  A    between atoms: N_7  and  C_38
    4  A    between atoms: C_12  and  C_30
    5  A    between atoms: C_15  and  C_20
    6  A    between atoms: C_26  and  C_46
    7  A    between atoms: C_33  and  N_35
    8  A    between atoms: C_33  and  C_36
    9  A    between atoms: C_33  and  N_44
                            x       y       z     vdW  Elec       q    Type
                         _______ _______ _______ _____ _____    ______ ____

>  <TORSDO>
F 9

$$$$
=
 OpenBabel11042416453D

 48 53  0  0  1  0  0  0  0  0999 V2000
  191.6240  173.5020  143.9340 C   0  0  0  0  0  2  0  0  0  0  0  0
  192.9900  173.6260  144.4050 N   0  0  0  0  0  0  0  0  0  0  0  0
  190.3870  171.4930  144.3630 O   0  0  0  0  0  0  0  0  0  0  0  0
  192.6310  170.3400  144.9400 F   0  0  0  0  0  0  0  0  0  0  0  0
  193.2480  170.6810  142.7840 F   0  0  0  0  0  0  0  0  0  0  0  0
  192.7750  171.2820  143.9350 C   0  0  0  0  0  0  0  0  0  0  0  0
  191.4800  172.0270  143.6550 C   0  0  2  0  0  0  0  0  0  0  0  0
  190.3310  171.3870  142.9560 C   0  0  2  0  0  3  0  0  0  0  0  0
  193.7400  172.3720  144.3820 C   0  0  0  0  0  2  0  0  0  0  0  0
  195.6320  178.4950  145.4140 O   0  0  0  0  0  1  0  0  0  0  0  0
  192.9260  175.9790  145.2430 C   0  0  0  0  0  0  0  0  0  0  0  0
  194.9630  177.3100  145.1450 C   0  0  0  0  0  0  0  0  0  0  0  0
  193.6230  177.1680  145.5070 C   0  0  0  0  0  3  0  0  0  0  0  0
  193.6120  174.9030  144.6190 C   0  0  0  0  0  0  0  0  0  0  0  0
  195.6250  176.2660  144.5050 C   0  0  0  0  0  3  0  0  0  0  0  0
  194.9550  175.0700  144.2460 C   0  0  0  0  0  3  0  0  0  0  0  0
  189.1820  176.5050  145.0490 C   0  0  0  0  0  3  0  0  0  0  0  0
  188.7450  175.8780  146.2260 C   0  0  0  0  0  0  0  0  0  0  0  0
  191.0480  175.3130  146.7480 C   0  0  0  0  0  3  0  0  0  0  0  0
  191.4840  175.9290  145.5660 C   0  0  0  0  0  0  0  0  0  0  0  0
  189.6880  175.2830  147.0700 C   0  0  0  0  0  3  0  0  0  0  0  0
  190.5400  176.5370  144.7260 C   0  0  0  0  0  3  0  0  0  0  0  0
  187.3890  175.7950  146.5790 O   0  0  0  0  0  0  0  0  0  0  0  0
  185.9250  177.1590  145.2940 N   0  0  0  0  0  0  0  0  0  0  0  0
  184.9860  178.1350  145.1480 C   0  0  0  0  0  0  0  0  0  0  0  0
  185.9750  177.4960  147.6550 C   0  0  0  0  0  3  0  0  0  0  0  0
  184.5160  178.8260  146.2660 C   0  0  0  0  0  3  0  0  0  0  0  0
  186.4360  176.8250  146.5110 C   0  0  0  0  0  0  0  0  0  0  0  0
  185.0150  178.5000  147.5270 C   0  0  0  0  0  3  0  0  0  0  0  0
  183.1860  178.9910  143.8930 F   0  0  0  0  0  0  0  0  0  0  0  0
  184.4610  177.3550  142.9920 F   0  0  0  0  0  0  0  0  0  0  0  0
  184.4690  178.4810  143.7940 C   0  0  0  0  0  3  0  0  0  0  0  0
  188.4960  172.8970  143.1230 O   0  0  0  0  0  0  0  0  0  0  0  0
  189.4990  172.8000  141.0150 N   0  0  0  0  0  2  0  0  0  0  0  0
  189.3930  172.4050  142.3860 C   0  0  0  0  0  0  0  0  0  0  0  0
  188.4780  173.5980  140.3510 C   0  0  2  0  0  3  0  0  0  0  0  0
  189.8430  172.7440  136.9700 C   0  0  0  0  0  0  0  0  0  0  0  0
  189.5780  172.3630  138.4140 C   0  0  0  0  0  2  0  0  0  0  0  0
  189.5370  171.5730  136.0590 C   0  0  0  0  0  1  0  0  0  0  0  0
  188.4010  173.2090  138.8680 C   0  0  2  0  0  3  0  0  0  0  0  0
  188.3670  174.4100  137.9510 C   0  0  0  0  0  2  0  0  0  0  0  0
  191.2930  173.1540  136.8060 C   0  0  0  0  0  1  0  0  0  0  0  0
  188.9300  173.9130  136.6370 C   0  0  0  0  0  2  0  0  0  0  0  0
  187.6030  178.2150  142.2040 C   0  0  0  0  0  1  0  0  0  0  0  0
  188.0310  175.8840  141.3520 C   0  0  0  0  0  0  0  0  0  0  0  0
  187.0840  175.4300  142.0500 O   0  0  0  0  0  0  0  0  0  0  0  0
  188.7930  175.0140  140.5130 N   0  0  0  0  0  2  0  0  0  0  0  0
  188.3570  177.2720  141.3950 N   0  0  0  0  0  2  0  0  0  0  0  0
  1  2  1  0  0  0  0
  2 14  1  0  0  0  0
  5  6  1  0  0  0  0
  6  9  1  0  0  0  0
  6  4  1  0  0  0  0
  7  1  1  6  0  0  0
  7  6  1  0  0  0  0
  7  3  1  0  0  0  0
  8 35  1  6  0  0  0
  8  7  1  0  0  0  0
  8  3  1  0  0  0  0
  9  2  1  0  0  0  0
 11 13  1  0  0  0  0
 11 20  1  0  0  0  0
 12 10  1  0  0  0  0
 12 13  2  0  0  0  0
 14 11  2  0  0  0  0
 15 12  1  0  0  0  0
 16 15  2  0  0  0  0
 16 14  1  0  0  0  0
 17 18  1  0  0  0  0
 18 23  1  0  0  0  0
 18 21  2  0  0  0  0
 19 21  1  0  0  0  0
 20 19  2  0  0  0  0
 22 17  2  0  0  0  0
 22 20  1  0  0  0  0
 24 28  2  0  0  0  0
 25 24  1  0  0  0  0
 25 27  2  0  0  0  0
 27 29  1  0  0  0  0
 28 23  1  0  0  0  0
 28 26  1  0  0  0  0
 29 26  2  0  0  0  0
 31 32  1  0  0  0  0
 32 30  1  0  0  0  0
 32 25  1  0  0  0  0
 34 35  1  0  0  0  0
 35 33  2  0  0  0  0
 36 47  1  6  0  0  0
 36 34  1  0  0  0  0
 37 38  1  0  0  0  0
 38 40  1  0  0  0  0
 39 37  1  0  0  0  0
 40 36  1  1  0  0  0
 41 40  1  0  0  0  0
 42 37  1  0  0  0  0
 43 37  1  0  0  0  0
 43 41  1  0  0  0  0
 45 48  1  0  0  0  0
 45 46  2  0  0  0  0
 47 45  1  0  0  0  0
 48 44  1  0  0  0  0
M  END
>  <MODEL>
6

>  <REMARK>
 VINA RESULT:      -7.1      2.542      6.457
  Name = 
  9 active torsions:
  status: ('A' for Active; 'I' for Inactive)
    1  A    between atoms: O_3  and  C_16
    2  A    between atoms: O_3  and  C_29
    3  A    between atoms: N_7  and  C_38
    4  A    between atoms: C_12  and  C_30
    5  A    between atoms: C_15  and  C_20
    6  A    between atoms: C_26  and  C_46
    7  A    between atoms: C_33  and  N_35
    8  A    between atoms: C_33  and  C_36
    9  A    between atoms: C_33  and  N_44
                            x       y       z     vdW  Elec       q    Type
                         _______ _______ _______ _____ _____    ______ ____

>  <TORSDO>
F 9

$$$$
=
 OpenBabel11042416453D

 48 53  0  0  1  0  0  0  0  0999 V2000
  192.4570  173.2010  141.8840 C   0  0  0  0  0  2  0  0  0  0  0  0
  192.4950  173.1010  143.3310 N   0  0  0  0  0  0  0  0  0  0  0  0
  190.3750  173.6090  140.7680 O   0  0  0  0  0  0  0  0  0  0  0  0
  189.1710  172.9540  142.9630 F   0  0  0  0  0  0  0  0  0  0  0  0
  190.0420  170.8750  142.7040 F   0  0  0  0  0  0  0  0  0  0  0  0
  190.3330  172.2250  142.7710 C   0  0  0  0  0  0  0  0  0  0  0  0
  191.0920  172.6680  141.5310 C   0  0  2  0  0  0  0  0  0  0  0  0
  190.6140  172.3590  140.1540 C   0  0  2  0  0  3  0  0  0  0  0  0
  191.3040  172.4890  143.9140 C   0  0  0  0  0  2  0  0  0  0  0  0
  197.2090  173.7460  146.3440 O   0  0  0  0  0  1  0  0  0  0  0  0
  193.7310  174.2340  145.1840 C   0  0  0  0  0  0  0  0  0  0  0  0
  196.0510  173.6160  145.5920 C   0  0  0  0  0  0  0  0  0  0  0  0
  194.9120  174.3490  145.9310 C   0  0  0  0  0  3  0  0  0  0  0  0
  193.6970  173.3400  144.0810 C   0  0  0  0  0  0  0  0  0  0  0  0
  196.0260  172.7630  144.4910 C   0  0  0  0  0  3  0  0  0  0  0  0
  194.8560  172.6250  143.7430 C   0  0  0  0  0  3  0  0  0  0  0  0
  191.1720  177.0230  145.0740 C   0  0  0  0  0  3  0  0  0  0  0  0
  190.4600  176.8040  146.2630 C   0  0  0  0  0  0  0  0  0  0  0  0
  191.8880  174.8970  146.7340 C   0  0  0  0  0  3  0  0  0  0  0  0
  192.5920  175.1090  145.5400 C   0  0  0  0  0  0  0  0  0  0  0  0
  190.8270  175.7350  147.0870 C   0  0  0  0  0  3  0  0  0  0  0  0
  192.2340  176.1880  144.7200 C   0  0  0  0  0  3  0  0  0  0  0  0
  189.3680  177.5970  146.6480 O   0  0  0  0  0  0  0  0  0  0  0  0
  187.6910  177.2140  145.0060 N   0  0  0  0  0  0  0  0  0  0  0  0
  186.4090  176.9940  144.6050 C   0  0  0  0  0  0  0  0  0  0  0  0
  187.0080  177.3360  147.2880 C   0  0  0  0  0  3  0  0  0  0  0  0
  185.3810  176.9430  145.5490 C   0  0  0  0  0  3  0  0  0  0  0  0
  188.0200  177.3920  146.3160 C   0  0  0  0  0  0  0  0  0  0  0  0
  185.6870  177.1130  146.8990 C   0  0  0  0  0  3  0  0  0  0  0  0
  184.7850  177.1980  142.9120 F   0  0  0  0  0  0  0  0  0  0  0  0
  186.2760  175.5040  142.7900 F   0  0  0  0  0  0  0  0  0  0  0  0
  186.0930  176.8240  143.1590 C   0  0  0  0  0  3  0  0  0  0  0  0
  192.1800  171.4170  138.6270 O   0  0  0  0  0  0  0  0  0  0  0  0
  192.2520  173.7450  138.7940 N   0  0  0  0  0  2  0  0  0  0  0  0
  191.7160  172.4670  139.1470 C   0  0  0  0  0  0  0  0  0  0  0  0
  193.4690  173.8930  138.0070 C   0  0  2  0  0  3  0  0  0  0  0  0
  196.8530  174.3470  139.5440 C   0  0  0  0  0  0  0  0  0  0  0  0
  195.3750  174.6880  139.4960 C   0  0  0  0  0  2  0  0  0  0  0  0
  197.3040  174.1890  140.9810 C   0  0  0  0  0  1  0  0  0  0  0  0
  194.6840  173.4970  138.8560 C   0  0  2  0  0  3  0  0  0  0  0  0
  195.7440  172.7760  138.0550 C   0  0  0  0  0  2  0  0  0  0  0  0
  197.6540  175.4450  138.8740 C   0  0  0  0  0  1  0  0  0  0  0  0
  197.0380  173.0370  138.7950 C   0  0  0  0  0  2  0  0  0  0  0  0
  192.4520  177.6260  134.7600 C   0  0  0  0  0  1  0  0  0  0  0  0
  192.8820  175.7490  136.3820 C   0  0  0  0  0  0  0  0  0  0  0  0
  192.0840  174.9960  135.7590 O   0  0  0  0  0  0  0  0  0  0  0  0
  193.5740  175.2700  137.5370 N   0  0  0  0  0  2  0  0  0  0  0  0
  193.1010  177.0880  135.9430 N   0  0  0  0  0  2  0  0  0  0  0  0
  1  2  1  0  0  0  0
  2  9  1  0  0  0  0
  2 14  1  0  0  0  0
  3  7  1  0  0  0  0
  5  6  1  0  0  0  0
  6  4  1  0  0  0  0
  6  9  1  0  0  0  0
  7  1  1  1  0  0  0
  7  6  1  0  0  0  0
  8 35  1  6  0  0  0
  8  3  1  0  0  0  0
  8  7  1  0  0  0  0
 11 20  1  0  0  0  0
 11 13  1  0  0  0  0
 12 13  2  0  0  0  0
 12 10  1  0  0  0  0
 14 11  2  0  0  0  0
 15 12  1  0  0  0  0
 16 14  1  0  0  0  0
 16 15  2  0  0  0  0
 17 18  1  0  0  0  0
 18 23  1  0  0  0  0
 18 21  2  0  0  0  0
 19 21  1  0  0  0  0
 20 19  2  0  0  0  0
 22 17  2  0  0  0  0
 22 20  1  0  0  0  0
 24 28  2  0  0  0  0
 25 24  1  0  0  0  0
 25 27  2  0  0  0  0
 27 29  1  0  0  0  0
 28 23  1  0  0  0  0
 28 26  1  0  0  0  0
 29 26  2  0  0  0  0
 30 32  1  0  0  0  0
 31 32  1  0  0  0  0
 32 25  1  0  0  0  0
 33 35  2  0  0  0  0
 34 35  1  0  0  0  0
 36 47  1  1  0  0  0
 36 34  1  0  0  0  0
 37 39  1  0  0  0  0
 38 37  1  0  0  0  0
 40 36  1  6  0  0  0
 40 38  1  0  0  0  0
 41 43  1  0  0  0  0
 41 40  1  0  0  0  0
 42 37  1  0  0  0  0
 43 37  1  0  0  0  0
 44 48  1  0  0  0  0
 45 47  1  0  0  0  0
 46 45  2  0  0  0  0
 48 45  1  0  0  0  0
M  END
>  <MODEL>
7

>  <REMARK>
 VINA RESULT:      -6.9      2.788      6.678
  Name = 
  9 active torsions:
  status: ('A' for Active; 'I' for Inactive)
    1  A    between atoms: O_3  and  C_16
    2  A    between atoms: O_3  and  C_29
    3  A    between atoms: N_7  and  C_38
    4  A    between atoms: C_12  and  C_30
    5  A    between atoms: C_15  and  C_20
    6  A    between atoms: C_26  and  C_46
    7  A    between atoms: C_33  and  N_35
    8  A    between atoms: C_33  and  C_36
    9  A    between atoms: C_33  and  N_44
                            x       y       z     vdW  Elec       q    Type
                         _______ _______ _______ _____ _____    ______ ____

>  <TORSDO>
F 9

$$$$
=
 OpenBabel11042416453D

 48 53  0  0  1  0  0  0  0  0999 V2000
  192.4940  172.5980  141.6520 C   0  0  0  0  0  2  0  0  0  0  0  0
  192.5050  172.2820  143.0670 N   0  0  0  0  0  0  0  0  0  0  0  0
  190.4070  172.8440  140.4970 O   0  0  0  0  0  0  0  0  0  0  0  0
  189.2610  171.6750  142.5020 F   0  0  0  0  0  0  0  0  0  0  0  0
  190.4670  169.8240  141.9850 F   0  0  0  0  0  0  0  0  0  0  0  0
  190.5320  171.1760  142.2670 C   0  0  0  0  0  0  0  0  0  0  0  0
  191.2450  171.9190  141.1490 C   0  0  2  0  0  0  0  0  0  0  0  0
  190.8640  171.7570  139.7190 C   0  0  2  0  0  3  0  0  0  0  0  0
  191.4130  171.4080  143.4880 C   0  0  0  0  0  2  0  0  0  0  0  0
  196.8640  173.2140  146.5090 O   0  0  0  0  0  1  0  0  0  0  0  0
  193.6580  173.7370  144.7390 C   0  0  0  0  0  0  0  0  0  0  0  0
  195.7980  173.0100  145.6450 C   0  0  0  0  0  0  0  0  0  0  0  0
  194.7450  173.9240  145.6070 C   0  0  0  0  0  3  0  0  0  0  0  0
  193.6290  172.5860  143.9090 C   0  0  0  0  0  0  0  0  0  0  0  0
  195.7840  171.8970  144.8070 C   0  0  0  0  0  3  0  0  0  0  0  0
  194.7060  171.6870  143.9470 C   0  0  0  0  0  3  0  0  0  0  0  0
  190.4850  175.6960  145.3950 C   0  0  0  0  0  3  0  0  0  0  0  0
  190.6320  176.7800  144.5150 C   0  0  0  0  0  0  0  0  0  0  0  0
  192.7640  175.8690  143.7940 C   0  0  0  0  0  3  0  0  0  0  0  0
  192.6230  174.7930  144.6810 C   0  0  0  0  0  0  0  0  0  0  0  0
  191.7790  176.8570  143.7180 C   0  0  0  0  0  3  0  0  0  0  0  0
  191.4680  174.7070  145.4710 C   0  0  0  0  0  3  0  0  0  0  0  0
  189.6850  177.8120  144.4230 O   0  0  0  0  0  0  0  0  0  0  0  0
  187.4430  177.7760  145.2140 N   0  0  0  0  0  0  0  0  0  0  0  0
  186.0960  177.6700  145.0470 C   0  0  0  0  0  0  0  0  0  0  0  0
  187.8050  177.4690  142.8760 C   0  0  0  0  0  3  0  0  0  0  0  0
  185.5650  177.4550  143.7740 C   0  0  0  0  0  3  0  0  0  0  0  0
  188.3110  177.6750  144.1700 C   0  0  0  0  0  0  0  0  0  0  0  0
  186.4280  177.3560  142.6830 C   0  0  0  0  0  3  0  0  0  0  0  0
  184.6620  176.5220  146.5210 F   0  0  0  0  0  0  0  0  0  0  0  0
  184.1550  178.6490  145.9460 F   0  0  0  0  0  0  0  0  0  0  0  0
  185.1840  177.7670  146.2220 C   0  0  0  0  0  3  0  0  0  0  0  0
  192.5350  171.3330  138.0750 O   0  0  0  0  0  0  0  0  0  0  0  0
  192.3750  173.5610  138.7590 N   0  0  0  0  0  2  0  0  0  0  0  0
  191.9640  172.1910  138.8000 C   0  0  0  0  0  0  0  0  0  0  0  0
  193.5810  173.9940  138.0680 C   0  0  2  0  0  3  0  0  0  0  0  0
  195.6200  175.3570  140.8990 C   0  0  0  0  0  0  0  0  0  0  0  0
  194.3840  174.6320  140.3990 C   0  0  0  0  0  2  0  0  0  0  0  0
  196.1640  174.6680  142.1320 C   0  0  0  0  0  1  0  0  0  0  0  0
  194.7570  174.0330  139.0540 C   0  0  2  0  0  3  0  0  0  0  0  0
  195.9220  174.8460  138.5400 C   0  0  0  0  0  2  0  0  0  0  0  0
  195.2710  176.7950  141.2270 C   0  0  0  0  0  1  0  0  0  0  0  0
  196.6500  175.3140  139.7820 C   0  0  0  0  0  2  0  0  0  0  0  0
  191.6720  177.0340  134.5150 C   0  0  0  0  0  1  0  0  0  0  0  0
  192.5540  175.4850  136.2940 C   0  0  0  0  0  0  0  0  0  0  0  0
  191.9570  174.5050  135.7690 O   0  0  0  0  0  0  0  0  0  0  0  0
  193.3490  175.3030  137.4670 N   0  0  0  0  0  2  0  0  0  0  0  0
  192.4400  176.7870  135.7230 N   0  0  0  0  0  2  0  0  0  0  0  0
  1  2  1  0  0  0  0
  2  9  1  0  0  0  0
  2 14  1  0  0  0  0
  3  7  1  0  0  0  0
  5  6  1  0  0  0  0
  6  4  1  0  0  0  0
  6  9  1  0  0  0  0
  7  1  1  1  0  0  0
  7  6  1  0  0  0  0
  8 35  1  6  0  0  0
  8  3  1  0  0  0  0
  8  7  1  0  0  0  0
 11 13  1  0  0  0  0
 12 10  1  0  0  0  0
 13 12  2  0  0  0  0
 14 16  1  0  0  0  0
 14 11  2  0  0  0  0
 15 12  1  0  0  0  0
 16 15  2  0  0  0  0
 17 22  1  0  0  0  0
 18 17  2  0  0  0  0
 19 20  1  0  0  0  0
 20 11  1  0  0  0  0
 20 22  2  0  0  0  0
 21 19  2  0  0  0  0
 21 18  1  0  0  0  0
 23 18  1  0  0  0  0
 25 24  1  0  0  0  0
 25 32  1  0  0  0  0
 26 28  1  0  0  0  0
 27 25  2  0  0  0  0
 28 23  1  0  0  0  0
 28 24  2  0  0  0  0
 29 26  2  0  0  0  0
 29 27  1  0  0  0  0
 31 32  1  0  0  0  0
 32 30  1  0  0  0  0
 33 35  2  0  0  0  0
 34 35  1  0  0  0  0
 36 47  1  1  0  0  0
 36 34  1  0  0  0  0
 37 42  1  0  0  0  0
 37 39  1  0  0  0  0
 38 37  1  0  0  0  0
 40 36  1  6  0  0  0
 40 38  1  0  0  0  0
 41 40  1  0  0  0  0
 41 43  1  0  0  0  0
 43 37  1  0  0  0  0
 44 48  1  0  0  0  0
 45 47  1  0  0  0  0
 46 45  2  0  0  0  0
 48 45  1  0  0  0  0
M  END
>  <MODEL>
8

>  <REMARK>
 VINA RESULT:      -6.9      2.556      6.060
  Name = 
  9 active torsions:
  status: ('A' for Active; 'I' for Inactive)
    1  A    between atoms: O_3  and  C_16
    2  A    between atoms: O_3  and  C_29
    3  A    between atoms: N_7  and  C_38
    4  A    between atoms: C_12  and  C_30
    5  A    between atoms: C_15  and  C_20
    6  A    between atoms: C_26  and  C_46
    7  A    between atoms: C_33  and  N_35
    8  A    between atoms: C_33  and  C_36
    9  A    between atoms: C_33  and  N_44
                            x       y       z     vdW  Elec       q    Type
                         _______ _______ _______ _____ _____    ______ ____

>  <TORSDO>
F 9

$$$$
=
 OpenBabel11042416453D

 48 53  0  0  1  0  0  0  0  0999 V2000
  193.3910  170.8870  141.2340 C   0  0  0  0  0  2  0  0  0  0  0  0
  192.1100  170.2830  140.9210 N   0  0  0  0  0  0  0  0  0  0  0  0
  194.9560  169.7200  142.6240 O   0  0  0  0  0  0  0  0  0  0  0  0
  193.0180  168.1660  143.3500 F   0  0  0  0  0  0  0  0  0  0  0  0
  192.0360  169.9880  144.2790 F   0  0  0  0  0  0  0  0  0  0  0  0
  192.5870  169.4620  143.1250 C   0  0  0  0  0  0  0  0  0  0  0  0
  193.7020  170.3590  142.6110 C   0  0  2  0  0  0  0  0  0  0  0  0
  194.8110  170.8280  143.4870 C   0  0  2  0  0  3  0  0  0  0  0  0
  191.5540  169.4770  142.0050 C   0  0  0  0  0  2  0  0  0  0  0  0
  189.3880  171.7770  136.2220 O   0  0  0  0  0  1  0  0  0  0  0  0
  190.5510  171.8340  139.7340 C   0  0  0  0  0  0  0  0  0  0  0  0
  190.0310  171.4050  137.3940 C   0  0  0  0  0  0  0  0  0  0  0  0
  189.9100  172.1930  138.5380 C   0  0  0  0  0  3  0  0  0  0  0  0
  191.3500  170.6600  139.7620 C   0  0  0  0  0  0  0  0  0  0  0  0
  190.7890  170.2370  137.4310 C   0  0  0  0  0  3  0  0  0  0  0  0
  191.4450  169.8690  138.6060 C   0  0  0  0  0  3  0  0  0  0  0  0
  190.9250  174.4960  142.3990 C   0  0  0  0  0  3  0  0  0  0  0  0
  189.8560  174.1940  143.2570 C   0  0  0  0  0  0  0  0  0  0  0  0
  189.2420  172.3530  141.7960 C   0  0  0  0  0  3  0  0  0  0  0  0
  190.3040  172.6620  140.9340 C   0  0  0  0  0  0  0  0  0  0  0  0
  189.0180  173.1190  142.9440 C   0  0  0  0  0  3  0  0  0  0  0  0
  191.1520  173.7320  141.2530 C   0  0  0  0  0  3  0  0  0  0  0  0
  189.5700  174.9500  144.4050 O   0  0  0  0  0  0  0  0  0  0  0  0
  188.1800  176.3460  145.7350 N   0  0  0  0  0  0  0  0  0  0  0  0
  187.3110  177.3790  145.9180 C   0  0  0  0  0  0  0  0  0  0  0  0
  188.2670  176.7720  143.3900 C   0  0  0  0  0  3  0  0  0  0  0  0
  186.8910  178.1400  144.8260 C   0  0  0  0  0  3  0  0  0  0  0  0
  188.6640  176.0170  144.5060 C   0  0  0  0  0  0  0  0  0  0  0  0
  187.3760  177.8330  143.5550 C   0  0  0  0  0  3  0  0  0  0  0  0
  186.0050  176.6480  147.7370 F   0  0  0  0  0  0  0  0  0  0  0  0
  186.0450  178.8540  147.2430 F   0  0  0  0  0  0  0  0  0  0  0  0
  186.7910  177.6900  147.2790 C   0  0  0  0  0  3  0  0  0  0  0  0
  196.6020  171.8950  142.3340 O   0  0  0  0  0  0  0  0  0  0  0  0
  194.9070  173.3300  143.0560 N   0  0  0  0  0  2  0  0  0  0  0  0
  195.4940  172.0330  142.9190 C   0  0  0  0  0  0  0  0  0  0  0  0
  195.6290  174.5540  142.7360 C   0  0  2  0  0  3  0  0  0  0  0  0
  193.8500  176.0770  145.6580 C   0  0  0  0  0  0  0  0  0  0  0  0
  195.0310  175.3100  145.0930 C   0  0  0  0  0  2  0  0  0  0  0  0
  194.3290  177.0950  146.6720 C   0  0  0  0  0  1  0  0  0  0  0  0
  195.1280  175.6980  143.6280 C   0  0  2  0  0  3  0  0  0  0  0  0
  193.7550  176.1890  143.2310 C   0  0  0  0  0  2  0  0  0  0  0  0
  192.8830  175.1140  146.3170 C   0  0  0  0  0  1  0  0  0  0  0  0
  193.1720  176.7820  144.4950 C   0  0  0  0  0  2  0  0  0  0  0  0
  197.3520  175.3790  138.0610 C   0  0  0  0  0  1  0  0  0  0  0  0
  196.5360  174.9020  140.3950 C   0  0  0  0  0  0  0  0  0  0  0  0
  197.7020  174.5930  140.7640 O   0  0  0  0  0  0  0  0  0  0  0  0
  195.4500  174.8640  141.3220 N   0  0  0  0  0  2  0  0  0  0  0  0
  196.2870  175.2910  139.0450 N   0  0  0  0  0  2  0  0  0  0  0  0
  2  1  1  0  0  0  0
  2  9  1  0  0  0  0
  3  8  1  0  0  0  0
  6  4  1  0  0  0  0
  6  5  1  0  0  0  0
  7  1  1  6  0  0  0
  7  3  1  0  0  0  0
  7  6  1  0  0  0  0
  7  8  1  0  0  0  0
  8 35  1  6  0  0  0
  9  6  1  0  0  0  0
 10 12  1  0  0  0  0
 11 14  1  0  0  0  0
 11 20  1  0  0  0  0
 12 15  2  0  0  0  0
 12 13  1  0  0  0  0
 13 11  2  0  0  0  0
 14  2  1  0  0  0  0
 15 16  1  0  0  0  0
 16 14  2  0  0  0  0
 17 18  1  0  0  0  0
 18 23  1  0  0  0  0
 19 21  1  0  0  0  0
 20 22  1  0  0  0  0
 20 19  2  0  0  0  0
 21 18  2  0  0  0  0
 22 17  2  0  0  0  0
 23 28  1  0  0  0  0
 24 25  1  0  0  0  0
 25 32  1  0  0  0  0
 26 29  2  0  0  0  0
 26 28  1  0  0  0  0
 27 25  2  0  0  0  0
 28 24  2  0  0  0  0
 29 27  1  0  0  0  0
 31 32  1  0  0  0  0
 32 30  1  0  0  0  0
 33 35  2  0  0  0  0
 35 34  1  0  0  0  0
 36 47  1  6  0  0  0
 36 34  1  0  0  0  0
 37 42  1  0  0  0  0
 37 39  1  0  0  0  0
 38 37  1  0  0  0  0
 40 36  1  6  0  0  0
 40 38  1  0  0  0  0
 41 40  1  0  0  0  0
 41 43  1  0  0  0  0
 43 37  1  0  0  0  0
 44 48  1  0  0  0  0
 45 46  2  0  0  0  0
 45 47  1  0  0  0  0
 48 45  1  0  0  0  0
M  END
>  <MODEL>
9

>  <REMARK>
 VINA RESULT:      -6.9      2.406      3.331
  Name = 
  9 active torsions:
  status: ('A' for Active; 'I' for Inactive)
    1  A    between atoms: O_3  and  C_16
    2  A    between atoms: O_3  and  C_29
    3  A    between atoms: N_7  and  C_38
    4  A    between atoms: C_12  and  C_30
    5  A    between atoms: C_15  and  C_20
    6  A    between atoms: C_26  and  C_46
    7  A    between atoms: C_33  and  N_35
    8  A    between atoms: C_33  and  C_36
    9  A    between atoms: C_33  and  N_44
                            x       y       z     vdW  Elec       q    Type
                         _______ _______ _______ _____ _____    ______ ____

>  <TORSDO>
F 9

$$$$
