=
 OpenBabel11042418383D

 67 70  0  0  1  0  0  0  0  0999 V2000
  191.6370  175.8530  147.4630 N   0  0  0  0  0  0  0  0  0  0  0  0
  191.1340  174.4640  147.4840 C   0  0  0  0  0  2  0  0  0  0  0  0
  189.6800  174.5180  147.3700 N   0  0  0  0  0  0  0  0  0  0  0  0
  190.4620  176.6150  147.3560 N   0  0  0  0  0  2  0  0  0  0  0  0
  189.3570  175.7530  147.3000 C   0  0  0  0  0  0  0  0  0  0  0  0
  187.9520  176.2280  147.1610 C   0  0  0  0  0  2  0  0  0  0  0  0
  187.9310  177.6800  146.7070 C   0  0  0  0  0  2  0  0  0  0  0  0
  188.1350  177.7730  145.2000 C   0  0  0  0  0  2  0  0  0  0  0  0
  189.4720  177.5160  144.8790 O   0  0  0  0  0  0  0  0  0  0  0  0
  189.6630  178.0850  143.6150 C   0  0  0  0  0  2  0  0  0  0  0  0
  190.7280  177.3430  142.8710 C   0  0  0  0  0  0  0  0  0  0  0  0
  191.6060  177.9590  142.2850 O   0  0  0  0  0  0  0  0  0  0  0  0
  190.7260  175.8430  142.8390 C   0  0  0  0  0  2  0  0  0  0  0  0
  189.4110  175.2380  142.3250 C   0  0  1  0  0  3  0  0  0  0  0  0
  187.0170  177.3120  140.4810 O   0  0  0  0  0  0  0  0  0  0  0  0
  188.8000  176.0590  141.2850 N   0  0  0  0  0  2  0  0  0  0  0  0
  187.4800  176.6000  141.4090 C   0  0  0  0  0  0  0  0  0  0  0  0
  186.6460  176.3340  142.6230 C   0  0  0  0  0  2  0  0  0  0  0  0
  185.2320  176.8520  142.4070 C   0  0  0  0  0  2  0  0  0  0  0  0
  186.0300  179.3720  142.9460 O   0  0  0  0  0  0  0  0  0  0  0  0
  184.9700  178.3660  143.3110 S   0  0  0  0  0  0  0  0  0  0  0  0
  183.6140  178.9150  142.9660 O   0  0  0  0  0  0  0  0  0  0  0  0
  183.9240  178.7110  145.6480 C   0  0  0  0  0  1  0  0  0  0  0  0
  185.0420  178.0270  145.0130 N   0  0  0  0  0  2  0  0  0  0  0  0
  189.4440  172.8160  142.7990 C   0  0  0  0  0  3  0  0  0  0  0  0
  189.4960  173.7980  141.8910 C   0  0  0  0  0  0  0  0  0  0  0  0
  189.5990  173.4760  140.4990 N   0  0  0  0  0  2  0  0  0  0  0  0
  188.7050  174.0040  139.4760 C   0  0  0  0  0  2  0  0  0  0  0  0
  190.8960  173.8140  138.3250 C   0  0  0  0  0  1  0  0  0  0  0  0
  188.8540  172.9210  137.2590 C   0  0  0  0  0  1  0  0  0  0  0  0
  189.4070  174.0300  138.1290 C   0  0  0  0  0  3  0  0  0  0  0  0
  189.3320  173.0610  144.2690 C   0  0  0  0  0  2  0  0  0  0  0  0
  191.0320  171.6790  144.5050 C   0  0  0  0  0  1  0  0  0  0  0  0
  189.7410  171.9250  144.9690 O   0  0  0  0  0  0  0  0  0  0  0  0
  192.4060  176.0440  146.2250 C   0  0  1  0  0  3  0  0  0  0  0  0
  193.6120  176.8680  146.4480 C   0  0  0  0  0  0  0  0  0  0  0  0
  194.5980  177.5370  146.6280 C   0  0  0  0  0  3  0  0  0  0  0  0
  192.7480  174.7610  145.5980 N   0  0  0  0  0  2  0  0  0  0  0  0
  194.1820  174.4930  145.7150 C   0  0  0  0  0  2  0  0  0  0  0  0
  194.2250  172.9860  143.8850 O   0  0  0  0  0  0  0  0  0  0  0  0
  194.7060  174.0280  144.4000 C   0  0  0  0  0  0  0  0  0  0  0  0
  197.2470  174.3130  141.3250 C   0  0  1  0  0  3  0  0  0  0  0  0
  196.3360  174.2390  142.5090 N   0  0  0  0  0  0  0  0  0  0  0  0
  195.7960  174.7460  143.7260 C   0  0  0  0  0  0  0  0  0  0  0  0
  196.2670  175.8020  144.2260 O   0  0  0  0  0  0  0  0  0  0  0  0
  196.4510  173.1860  141.4550 C   0  0  2  0  0  3  0  0  0  0  0  0
  196.9110  174.0970  137.7450 C   0  0  0  0  0  0  0  0  0  0  0  0
  197.9380  174.8460  138.1850 C   0  0  0  0  0  3  0  0  0  0  0  0
  197.8370  175.7850  139.3580 C   0  0  0  0  0  2  0  0  0  0  0  0
  195.8620  172.5310  136.0490 C   0  0  0  0  0  0  0  0  0  0  0  0
  197.7220  173.9170  135.5110 O   0  0  0  0  0  1  0  0  0  0  0  0
  196.7350  175.3850  140.3370 C   0  0  1  0  0  3  0  0  0  0  0  0
  197.1290  173.1900  136.5540 C   0  0  1  0  0  3  0  0  0  0  0  0
  195.6370  173.9730  138.5550 C   0  0  2  0  0  3  0  0  0  0  0  0
  194.4400  173.8390  137.6400 C   0  0  0  0  0  2  0  0  0  0  0  0
  194.5800  172.5580  136.8360 C   0  0  0  0  0  2  0  0  0  0  0  0
  195.4330  175.0960  139.5720 C   0  0  0  0  0  2  0  0  0  0  0  0
  195.9630  171.6400  135.0660 C   0  0  0  0  0  2  0  0  0  0  0  0
  196.9790  170.8110  141.4330 C   0  0  0  0  0  2  0  0  0  0  0  0
  197.1800  171.9920  142.0140 C   0  0  0  0  0  0  0  0  0  0  0  0
  197.9410  172.0410  143.3160 C   0  0  0  0  0  2  0  0  0  0  0  0
  197.5940  170.8610  144.2190 C   0  0  0  0  0  2  0  0  0  0  0  0
  197.0180  171.3190  145.5230 C   0  0  0  0  0  0  0  0  0  0  0  0
  197.2250  172.4560  145.9200 O   0  0  0  0  0  0  0  0  0  0  0  0
  196.1960  170.3680  146.3410 C   0  0  2  0  0  3  0  0  0  0  0  0
  196.9980  169.3310  146.8120 O   0  0  0  0  0  1  0  0  0  0  0  0
  195.0560  169.7980  145.5150 C   0  0  0  0  0  1  0  0  0  0  0  0
  1  2  1  0  0  0  0
  3  2  1  0  0  0  0
  4  1  1  0  0  0  0
  5  4  1  0  0  0  0
  5  3  2  0  0  0  0
  6  5  1  0  0  0  0
  7  6  1  0  0  0  0
  8  7  1  0  0  0  0
  9  8  1  0  0  0  0
 10  9  1  0  0  0  0
 11 10  1  0  0  0  0
 12 11  2  0  0  0  0
 13 11  1  0  0  0  0
 14 13  1  6  0  0  0
 15 17  2  0  0  0  0
 16 17  1  0  0  0  0
 16 14  1  0  0  0  0
 17 18  1  0  0  0  0
 19 18  1  0  0  0  0
 19 21  1  0  0  0  0
 20 21  2  0  0  0  0
 21 24  1  0  0  0  0
 22 21  2  0  0  0  0
 24 23  1  0  0  0  0
 25 32  1  0  0  0  0
 26 14  1  0  0  0  0
 26 25  2  0  0  0  0
 27 26  1  0  0  0  0
 28 27  1  0  0  0  0
 30 31  1  0  0  0  0
 31 29  1  0  0  0  0
 31 28  1  0  0  0  0
 32 34  1  0  0  0  0
 33 34  1  0  0  0  0
 35 36  1  1  0  0  0
 35  1  1  0  0  0  0
 36 37  3  0  0  0  0
 38 39  1  0  0  0  0
 38 35  1  0  0  0  0
 40 41  2  0  0  0  0
 41 39  1  0  0  0  0
 42 46  1  0  0  0  0
 42 43  1  1  0  0  0
 43 44  1  0  0  0  0
 44 45  2  0  0  0  0
 44 41  1  0  0  0  0
 46 60  1  1  0  0  0
 46 43  1  0  0  0  0
 47 48  2  0  0  0  0
 47 54  1  0  0  0  0
 48 49  1  0  0  0  0
 50 53  1  0  0  0  0
 50 56  1  0  0  0  0
 52 49  1  6  0  0  0
 52 42  1  0  0  0  0
 53 51  1  6  0  0  0
 53 47  1  0  0  0  0
 54 55  1  6  0  0  0
 54 57  1  0  0  0  0
 56 55  1  0  0  0  0
 57 52  1  0  0  0  0
 58 50  2  0  0  0  0
 59 60  2  0  0  0  0
 60 61  1  0  0  0  0
 61 62  1  0  0  0  0
 62 63  1  0  0  0  0
 63 64  2  0  0  0  0
 63 65  1  0  0  0  0
 65 67  1  6  0  0  0
 65 66  1  0  0  0  0
M  END
>  <MODEL>
1

>  <REMARK>
 VINA RESULT:      -4.7      0.000      0.000
  Name = 
  31 active torsions:
  status: ('A' for Active; 'I' for Inactive)
    1  A    between atoms: C_3  and  C_5
    2  A    between atoms: C_5  and  C_46
    3  A    between atoms: N_6  and  C_20
    4  A    between atoms: C_7  and  C_37
    5  A    between atoms: O_11  and  C_40
    6  A    between atoms: O_11  and  C_50
    7  A    between atoms: N_13  and  C_63
    8  A    between atoms: C_14  and  S_22
    9  A    between atoms: C_14  and  C_64
   10  A    between atoms: C_15  and  C_32
   11  A    between atoms: C_15  and  C_46
   12  A    between atoms: C_17  and  C_57
   13  A    between atoms: C_18  and  C_38
   14  A    between atoms: C_18  and  C_50
   15  A    between atoms: C_19  and  C_39
   16  A    between atoms: C_19  and  N_62
   17  A    between atoms: C_20  and  C_24
   18  A    between atoms: C_20  and  N_28
   19  A    between atoms: S_22  and  N_65
   20  A    between atoms: C_23  and  C_40
   21  A    between atoms: C_23  and  C_42
   22  A    between atoms: C_26  and  N_62
   23  A    between atoms: C_26  and  C_63
   24  A    between atoms: N_28  and  C_60
   25  A    between atoms: C_31  and  C_44
   26  A    between atoms: C_32  and  C_48
   27  A    between atoms: C_38  and  C_67
   28  A    between atoms: C_42  and  C_63
   29  A    between atoms: C_44  and  C_60
   30  A    between atoms: C_47  and  C_64
   31  A    between atoms: O_55  and  C_57
                            x       y       z     vdW  Elec       q    Type
                         _______ _______ _______ _____ _____    ______ ____

>  <TORSDO>
F 31

$$$$
=
 OpenBabel11042418383D

 67 70  0  0  1  0  0  0  0  0999 V2000
  188.1160  177.5130  147.8910 N   0  0  0  0  0  0  0  0  0  0  0  0
  187.8020  176.1680  147.3660 C   0  0  0  0  0  2  0  0  0  0  0  0
  186.6960  176.3080  146.4230 N   0  0  0  0  0  0  0  0  0  0  0  0
  187.1790  178.3340  147.2430 N   0  0  0  0  0  2  0  0  0  0  0  0
  186.3860  177.5480  146.3930 C   0  0  0  0  0  0  0  0  0  0  0  0
  185.3040  178.1030  145.5340 C   0  0  0  0  0  2  0  0  0  0  0  0
  185.5930  179.5590  145.2000 C   0  0  0  0  0  2  0  0  0  0  0  0
  186.2330  179.6750  143.8210 C   0  0  0  0  0  2  0  0  0  0  0  0
  186.8400  178.4640  143.4690 O   0  0  0  0  0  0  0  0  0  0  0  0
  187.7370  178.7870  142.4450 C   0  0  0  0  0  2  0  0  0  0  0  0
  188.6870  177.6540  142.2160 C   0  0  0  0  0  0  0  0  0  0  0  0
  189.8900  177.8660  142.1670 O   0  0  0  0  0  0  0  0  0  0  0  0
  188.1730  176.2550  142.0450 C   0  0  0  0  0  2  0  0  0  0  0  0
  187.7220  175.9340  140.6120 C   0  0  1  0  0  3  0  0  0  0  0  0
  188.0110  172.4240  139.6000 O   0  0  0  0  0  0  0  0  0  0  0  0
  187.4370  174.5150  140.4310 N   0  0  0  0  0  2  0  0  0  0  0  0
  188.3090  173.6420  139.7070 C   0  0  0  0  0  0  0  0  0  0  0  0
  189.5670  174.1520  139.0770 C   0  0  0  0  0  2  0  0  0  0  0  0
  190.1590  173.0920  138.1600 C   0  0  0  0  0  2  0  0  0  0  0  0
  192.3700  172.4960  136.7330 O   0  0  0  0  0  0  0  0  0  0  0  0
  191.7740  173.5840  137.5880 S   0  0  0  0  0  0  0  0  0  0  0  0
  191.6460  174.8450  136.7810 O   0  0  0  0  0  0  0  0  0  0  0  0
  193.8560  172.8800  138.9470 C   0  0  0  0  0  1  0  0  0  0  0  0
  192.7950  173.8770  138.9630 N   0  0  0  0  0  2  0  0  0  0  0  0
  186.4400  176.9780  138.7780 C   0  0  0  0  0  3  0  0  0  0  0  0
  186.5880  176.7800  140.0930 C   0  0  0  0  0  0  0  0  0  0  0  0
  185.6430  177.3460  141.0100 N   0  0  0  0  0  2  0  0  0  0  0  0
  184.5380  178.2070  140.6070 C   0  0  0  0  0  2  0  0  0  0  0  0
  183.2150  178.5820  142.6740 C   0  0  0  0  0  1  0  0  0  0  0  0
  182.0690  178.1890  140.5210 C   0  0  0  0  0  1  0  0  0  0  0  0
  183.2740  177.8260  141.3590 C   0  0  0  0  0  3  0  0  0  0  0  0
  187.3760  176.4220  137.7540 C   0  0  0  0  0  2  0  0  0  0  0  0
  186.6280  176.4580  135.6810 C   0  0  0  0  0  1  0  0  0  0  0  0
  186.6620  175.6630  136.8250 O   0  0  0  0  0  0  0  0  0  0  0  0
  189.4510  177.8940  147.4070 C   0  0  1  0  0  3  0  0  0  0  0  0
  190.3890  178.1470  148.5200 C   0  0  0  0  0  0  0  0  0  0  0  0
  191.1530  178.3490  149.4280 C   0  0  0  0  0  3  0  0  0  0  0  0
  189.9910  176.8980  146.4720 N   0  0  0  0  0  2  0  0  0  0  0  0
  190.7810  175.8930  147.1860 C   0  0  0  0  0  2  0  0  0  0  0  0
  192.9310  175.2840  146.3920 O   0  0  0  0  0  0  0  0  0  0  0  0
  191.6860  175.2020  146.2260 C   0  0  0  0  0  0  0  0  0  0  0  0
  192.3180  172.9810  142.9610 C   0  0  1  0  0  3  0  0  0  0  0  0
  192.0280  173.8300  144.1580 N   0  0  0  0  0  0  0  0  0  0  0  0
  191.1440  174.4660  145.0760 C   0  0  0  0  0  0  0  0  0  0  0  0
  189.9010  174.4070  144.8870 O   0  0  0  0  0  0  0  0  0  0  0  0
  193.3960  173.5400  143.6300 C   0  0  2  0  0  3  0  0  0  0  0  0
  191.6550  170.2690  140.6850 C   0  0  0  0  0  0  0  0  0  0  0  0
  190.5860  170.7360  141.3540 C   0  0  0  0  0  3  0  0  0  0  0  0
  190.6210  171.1160  142.8120 C   0  0  0  0  0  2  0  0  0  0  0  0
  192.7200  169.2440  138.6250 C   0  0  0  0  0  0  0  0  0  0  0  0
  190.3830  169.0880  139.0530 O   0  0  0  0  0  1  0  0  0  0  0  0
  192.0210  171.5010  143.2850 C   0  0  1  0  0  3  0  0  0  0  0  0
  191.5010  169.9170  139.2220 C   0  0  1  0  0  3  0  0  0  0  0  0
  193.0390  170.3170  141.3000 C   0  0  2  0  0  3  0  0  0  0  0  0
  193.8580  169.1260  140.8500 C   0  0  0  0  0  2  0  0  0  0  0  0
  194.0410  169.1990  139.3450 C   0  0  0  0  0  2  0  0  0  0  0  0
  193.0390  170.4440  142.8240 C   0  0  0  0  0  2  0  0  0  0  0  0
  192.7200  168.9830  137.3200 C   0  0  0  0  0  2  0  0  0  0  0  0
  193.3030  175.9210  143.1430 C   0  0  0  0  0  2  0  0  0  0  0  0
  193.9500  174.7710  142.9640 C   0  0  0  0  0  0  0  0  0  0  0  0
  195.0600  174.7140  141.9440 C   0  0  0  0  0  2  0  0  0  0  0  0
  196.3440  174.1390  142.5360 C   0  0  0  0  0  2  0  0  0  0  0  0
  196.7500  174.8680  143.7790 C   0  0  0  0  0  0  0  0  0  0  0  0
  196.6130  176.0810  143.8520 O   0  0  0  0  0  0  0  0  0  0  0  0
  197.3360  174.1010  144.9260 C   0  0  2  0  0  3  0  0  0  0  0  0
  197.7320  172.8360  144.4980 O   0  0  0  0  0  1  0  0  0  0  0  0
  196.3260  173.9660  146.0520 C   0  0  0  0  0  1  0  0  0  0  0  0
  2  1  1  0  0  0  0
  3  2  1  0  0  0  0
  4  1  1  0  0  0  0
  5  3  2  0  0  0  0
  5  4  1  0  0  0  0
  6  5  1  0  0  0  0
  7  6  1  0  0  0  0
  8  7  1  0  0  0  0
  9  8  1  0  0  0  0
 10  9  1  0  0  0  0
 11 10  1  0  0  0  0
 12 11  2  0  0  0  0
 13 11  1  0  0  0  0
 14 13  1  1  0  0  0
 15 17  2  0  0  0  0
 16 14  1  0  0  0  0
 17 16  1  0  0  0  0
 18 17  1  0  0  0  0
 19 18  1  0  0  0  0
 20 21  2  0  0  0  0
 21 19  1  0  0  0  0
 21 24  1  0  0  0  0
 22 21  2  0  0  0  0
 23 24  1  0  0  0  0
 25 26  2  0  0  0  0
 26 14  1  0  0  0  0
 26 27  1  0  0  0  0
 28 27  1  0  0  0  0
 28 31  1  0  0  0  0
 30 31  1  0  0  0  0
 31 29  1  0  0  0  0
 32 25  1  0  0  0  0
 33 34  1  0  0  0  0
 34 32  1  0  0  0  0
 35  1  1  0  0  0  0
 35 36  1  1  0  0  0
 36 37  3  0  0  0  0
 38 39  1  0  0  0  0
 38 35  1  0  0  0  0
 41 40  2  0  0  0  0
 41 39  1  0  0  0  0
 42 52  1  0  0  0  0
 42 46  1  0  0  0  0
 42 43  1  1  0  0  0
 43 44  1  0  0  0  0
 44 41  1  0  0  0  0
 45 44  2  0  0  0  0
 46 60  1  6  0  0  0
 46 43  1  0  0  0  0
 47 54  1  0  0  0  0
 47 48  2  0  0  0  0
 48 49  1  0  0  0  0
 50 53  1  0  0  0  0
 50 56  1  0  0  0  0
 52 49  1  6  0  0  0
 53 51  1  1  0  0  0
 53 47  1  0  0  0  0
 54 55  1  1  0  0  0
 54 57  1  0  0  0  0
 56 55  1  0  0  0  0
 57 52  1  0  0  0  0
 58 50  2  0  0  0  0
 60 59  2  0  0  0  0
 61 62  1  0  0  0  0
 61 60  1  0  0  0  0
 62 63  1  0  0  0  0
 63 64  2  0  0  0  0
 63 65  1  0  0  0  0
 65 67  1  1  0  0  0
 66 65  1  0  0  0  0
M  END
>  <MODEL>
2

>  <REMARK>
 VINA RESULT:      -4.2      3.121      6.153
  Name = 
  31 active torsions:
  status: ('A' for Active; 'I' for Inactive)
    1  A    between atoms: C_3  and  C_5
    2  A    between atoms: C_5  and  C_46
    3  A    between atoms: N_6  and  C_20
    4  A    between atoms: C_7  and  C_37
    5  A    between atoms: O_11  and  C_40
    6  A    between atoms: O_11  and  C_50
    7  A    between atoms: N_13  and  C_63
    8  A    between atoms: C_14  and  S_22
    9  A    between atoms: C_14  and  C_64
   10  A    between atoms: C_15  and  C_32
   11  A    between atoms: C_15  and  C_46
   12  A    between atoms: C_17  and  C_57
   13  A    between atoms: C_18  and  C_38
   14  A    between atoms: C_18  and  C_50
   15  A    between atoms: C_19  and  C_39
   16  A    between atoms: C_19  and  N_62
   17  A    between atoms: C_20  and  C_24
   18  A    between atoms: C_20  and  N_28
   19  A    between atoms: S_22  and  N_65
   20  A    between atoms: C_23  and  C_40
   21  A    between atoms: C_23  and  C_42
   22  A    between atoms: C_26  and  N_62
   23  A    between atoms: C_26  and  C_63
   24  A    between atoms: N_28  and  C_60
   25  A    between atoms: C_31  and  C_44
   26  A    between atoms: C_32  and  C_48
   27  A    between atoms: C_38  and  C_67
   28  A    between atoms: C_42  and  C_63
   29  A    between atoms: C_44  and  C_60
   30  A    between atoms: C_47  and  C_64
   31  A    between atoms: O_55  and  C_57
                            x       y       z     vdW  Elec       q    Type
                         _______ _______ _______ _____ _____    ______ ____

>  <TORSDO>
F 31

$$$$
=
 OpenBabel11042418383D

 67 70  0  0  1  0  0  0  0  0999 V2000
  196.4300  172.7090  143.8460 N   0  0  0  0  0  0  0  0  0  0  0  0
  195.9290  172.5480  142.4660 C   0  0  0  0  0  2  0  0  0  0  0  0
  194.8500  171.5650  142.4990 N   0  0  0  0  0  0  0  0  0  0  0  0
  195.6350  171.8140  144.5800 N   0  0  0  0  0  2  0  0  0  0  0  0
  194.7270  171.1860  143.7130 C   0  0  0  0  0  0  0  0  0  0  0  0
  193.7160  170.1900  144.1650 C   0  0  0  0  0  2  0  0  0  0  0  0
  193.5540  169.0950  143.1210 C   0  0  0  0  0  2  0  0  0  0  0  0
  192.1060  168.6230  143.0610 C   0  0  0  0  0  2  0  0  0  0  0  0
  191.7750  168.2560  141.7520 O   0  0  0  0  0  0  0  0  0  0  0  0
  192.9490  168.4390  141.0110 C   0  0  0  0  0  2  0  0  0  0  0  0
  192.7240  169.4480  139.9300 C   0  0  0  0  0  0  0  0  0  0  0  0
  191.6230  169.9610  139.7930 O   0  0  0  0  0  0  0  0  0  0  0  0
  193.8420  169.8360  139.0090 C   0  0  0  0  0  2  0  0  0  0  0  0
  193.7510  171.2820  138.5000 C   0  0  1  0  0  3  0  0  0  0  0  0
  193.8070  174.3920  140.4370 O   0  0  0  0  0  0  0  0  0  0  0  0
  194.0110  172.2530  139.5570 N   0  0  0  0  0  2  0  0  0  0  0  0
  193.5610  173.6090  139.4830 C   0  0  0  0  0  0  0  0  0  0  0  0
  192.8010  174.1090  138.2950 C   0  0  0  0  0  2  0  0  0  0  0  0
  193.6240  175.1490  137.5500 C   0  0  0  0  0  2  0  0  0  0  0  0
  193.1340  176.8030  135.4750 O   0  0  0  0  0  0  0  0  0  0  0  0
  193.0180  175.3590  135.8870 S   0  0  0  0  0  0  0  0  0  0  0  0
  193.8320  174.5030  134.9570 O   0  0  0  0  0  0  0  0  0  0  0  0
  190.8300  175.2340  134.5180 C   0  0  0  0  0  1  0  0  0  0  0  0
  191.3550  174.8610  135.8240 N   0  0  0  0  0  2  0  0  0  0  0  0
  193.9900  171.7410  136.0860 C   0  0  0  0  0  3  0  0  0  0  0  0
  194.5790  171.5840  137.2780 C   0  0  0  0  0  0  0  0  0  0  0  0
  195.9980  171.7380  137.3970 N   0  0  0  0  0  2  0  0  0  0  0  0
  196.6460  172.9590  137.8580 C   0  0  0  0  0  2  0  0  0  0  0  0
  197.3840  175.2400  137.2160 C   0  0  0  0  0  1  0  0  0  0  0  0
  197.8100  173.3280  135.7100 C   0  0  0  0  0  1  0  0  0  0  0  0
  196.8330  173.9240  136.7000 C   0  0  0  0  0  3  0  0  0  0  0  0
  192.5180  171.6020  135.8720 C   0  0  0  0  0  2  0  0  0  0  0  0
  190.8860  170.7040  134.6950 C   0  0  0  0  0  1  0  0  0  0  0  0
  192.2750  170.7290  134.8110 O   0  0  0  0  0  0  0  0  0  0  0  0
  196.1010  174.0690  144.2980 C   0  0  1  0  0  3  0  0  0  0  0  0
  196.7240  175.0990  143.4420 C   0  0  0  0  0  0  0  0  0  0  0  0
  197.2360  175.9380  142.7460 C   0  0  0  0  0  3  0  0  0  0  0  0
  194.6490  174.2680  144.3970 N   0  0  0  0  0  2  0  0  0  0  0  0
  194.2510  174.4890  145.7890 C   0  0  0  0  0  2  0  0  0  0  0  0
  192.5400  175.6650  146.9340 O   0  0  0  0  0  0  0  0  0  0  0  0
  193.0900  175.4210  145.8290 C   0  0  0  0  0  0  0  0  0  0  0  0
  189.9550  176.3150  143.5130 C   0  0  1  0  0  3  0  0  0  0  0  0
  191.1630  175.9820  144.3290 N   0  0  0  0  0  0  0  0  0  0  0  0
  192.5610  176.0210  144.5960 C   0  0  0  0  0  0  0  0  0  0  0  0
  193.3410  176.5590  143.7660 O   0  0  0  0  0  0  0  0  0  0  0  0
  189.7740  175.5270  144.6390 C   0  0  2  0  0  3  0  0  0  0  0  0
  187.1100  178.1190  142.2390 C   0  0  0  0  0  0  0  0  0  0  0  0
  188.2730  178.3530  141.6050 C   0  0  0  0  0  3  0  0  0  0  0  0
  189.5890  178.5130  142.3210 C   0  0  0  0  0  2  0  0  0  0  0  0
  184.5840  177.8890  142.2460 C   0  0  0  0  0  0  0  0  0  0  0  0
  185.7440  179.0600  140.5270 O   0  0  0  0  0  1  0  0  0  0  0  0
  189.6080  177.8110  143.6780 C   0  0  1  0  0  3  0  0  0  0  0  0
  185.8480  177.9800  141.4150 C   0  0  1  0  0  3  0  0  0  0  0  0
  187.0840  177.7620  143.7110 C   0  0  2  0  0  3  0  0  0  0  0  0
  185.8400  178.3190  144.3680 C   0  0  0  0  0  2  0  0  0  0  0  0
  184.6210  177.6720  143.7350 C   0  0  0  0  0  2  0  0  0  0  0  0
  188.3430  178.1740  144.4740 C   0  0  0  0  0  2  0  0  0  0  0  0
  183.4310  177.6680  141.6190 C   0  0  0  0  0  2  0  0  0  0  0  0
  190.6110  173.2470  144.7640 C   0  0  0  0  0  2  0  0  0  0  0  0
  189.6460  174.0580  144.3350 C   0  0  0  0  0  0  0  0  0  0  0  0
  188.6010  173.5100  143.3940 C   0  0  0  0  0  2  0  0  0  0  0  0
  189.2320  172.8180  142.1890 C   0  0  0  0  0  2  0  0  0  0  0  0
  188.2240  172.5650  141.1110 C   0  0  0  0  0  0  0  0  0  0  0  0
  187.0940  172.2010  141.4020 O   0  0  0  0  0  0  0  0  0  0  0  0
  188.6160  172.7500  139.6760 C   0  0  2  0  0  3  0  0  0  0  0  0
  189.9840  172.5330  139.5260 O   0  0  0  0  0  1  0  0  0  0  0  0
  188.2650  174.1490  139.2000 C   0  0  0  0  0  1  0  0  0  0  0  0
  1 35  1  0  0  0  0
  1  4  1  0  0  0  0
  2  3  1  0  0  0  0
  2  1  1  0  0  0  0
  3  5  2  0  0  0  0
  5  6  1  0  0  0  0
  5  4  1  0  0  0  0
  7  6  1  0  0  0  0
  8  7  1  0  0  0  0
  9  8  1  0  0  0  0
 10  9  1  0  0  0  0
 11 10  1  0  0  0  0
 12 11  2  0  0  0  0
 13 11  1  0  0  0  0
 14 13  1  1  0  0  0
 14 16  1  0  0  0  0
 17 16  1  0  0  0  0
 17 15  2  0  0  0  0
 18 17  1  0  0  0  0
 19 18  1  0  0  0  0
 20 21  2  0  0  0  0
 21 19  1  0  0  0  0
 22 21  2  0  0  0  0
 23 24  1  0  0  0  0
 24 21  1  0  0  0  0
 25 26  2  0  0  0  0
 26 27  1  0  0  0  0
 26 14  1  0  0  0  0
 27 28  1  0  0  0  0
 30 31  1  0  0  0  0
 31 29  1  0  0  0  0
 31 28  1  0  0  0  0
 32 25  1  0  0  0  0
 33 34  1  0  0  0  0
 34 32  1  0  0  0  0
 35 36  1  6  0  0  0
 35 38  1  0  0  0  0
 37 36  3  0  0  0  0
 38 39  1  0  0  0  0
 39 41  1  0  0  0  0
 41 40  2  0  0  0  0
 42 52  1  0  0  0  0
 42 43  1  1  0  0  0
 42 46  1  0  0  0  0
 43 44  1  0  0  0  0
 43 46  1  0  0  0  0
 44 41  1  0  0  0  0
 45 44  2  0  0  0  0
 46 60  1  6  0  0  0
 47 54  1  0  0  0  0
 48 47  2  0  0  0  0
 48 49  1  0  0  0  0
 50 56  1  0  0  0  0
 52 49  1  6  0  0  0
 52 57  1  0  0  0  0
 53 51  1  6  0  0  0
 53 47  1  0  0  0  0
 53 50  1  0  0  0  0
 54 55  1  1  0  0  0
 54 57  1  0  0  0  0
 56 55  1  0  0  0  0
 58 50  2  0  0  0  0
 60 59  2  0  0  0  0
 61 60  1  0  0  0  0
 62 61  1  0  0  0  0
 63 64  2  0  0  0  0
 63 62  1  0  0  0  0
 65 67  1  1  0  0  0
 65 63  1  0  0  0  0
 66 65  1  0  0  0  0
M  END
>  <MODEL>
3

>  <REMARK>
 VINA RESULT:      -4.1      3.199      9.175
  Name = 
  31 active torsions:
  status: ('A' for Active; 'I' for Inactive)
    1  A    between atoms: C_3  and  C_5
    2  A    between atoms: C_5  and  C_46
    3  A    between atoms: N_6  and  C_20
    4  A    between atoms: C_7  and  C_37
    5  A    between atoms: O_11  and  C_40
    6  A    between atoms: O_11  and  C_50
    7  A    between atoms: N_13  and  C_63
    8  A    between atoms: C_14  and  S_22
    9  A    between atoms: C_14  and  C_64
   10  A    between atoms: C_15  and  C_32
   11  A    between atoms: C_15  and  C_46
   12  A    between atoms: C_17  and  C_57
   13  A    between atoms: C_18  and  C_38
   14  A    between atoms: C_18  and  C_50
   15  A    between atoms: C_19  and  C_39
   16  A    between atoms: C_19  and  N_62
   17  A    between atoms: C_20  and  C_24
   18  A    between atoms: C_20  and  N_28
   19  A    between atoms: S_22  and  N_65
   20  A    between atoms: C_23  and  C_40
   21  A    between atoms: C_23  and  C_42
   22  A    between atoms: C_26  and  N_62
   23  A    between atoms: C_26  and  C_63
   24  A    between atoms: N_28  and  C_60
   25  A    between atoms: C_31  and  C_44
   26  A    between atoms: C_32  and  C_48
   27  A    between atoms: C_38  and  C_67
   28  A    between atoms: C_42  and  C_63
   29  A    between atoms: C_44  and  C_60
   30  A    between atoms: C_47  and  C_64
   31  A    between atoms: O_55  and  C_57
                            x       y       z     vdW  Elec       q    Type
                         _______ _______ _______ _____ _____    ______ ____

>  <TORSDO>
F 31

$$$$
=
 OpenBabel11042418383D

 67 70  0  0  1  0  0  0  0  0999 V2000
  196.7280  174.8330  142.0150 N   0  0  0  0  0  0  0  0  0  0  0  0
  196.4010  176.1910  141.5330 C   0  0  0  0  0  2  0  0  0  0  0  0
  196.3060  176.1320  140.0780 N   0  0  0  0  0  0  0  0  0  0  0  0
  196.8180  174.0870  140.8290 N   0  0  0  0  0  2  0  0  0  0  0  0
  196.5490  174.9250  139.7360 C   0  0  0  0  0  0  0  0  0  0  0  0
  196.5360  174.4530  138.3240 C   0  0  0  0  0  2  0  0  0  0  0  0
  197.7500  173.5780  138.0500 C   0  0  0  0  0  2  0  0  0  0  0  0
  197.4140  172.5000  137.0260 C   0  0  0  0  0  2  0  0  0  0  0  0
  196.4310  171.6440  137.5340 O   0  0  0  0  0  0  0  0  0  0  0  0
  195.5430  171.4340  136.4720 C   0  0  0  0  0  2  0  0  0  0  0  0
  195.3590  169.9680  136.2380 C   0  0  0  0  0  0  0  0  0  0  0  0
  196.3280  169.2600  136.0080 O   0  0  0  0  0  0  0  0  0  0  0  0
  193.9880  169.3590  136.2810 C   0  0  0  0  0  2  0  0  0  0  0  0
  192.9620  170.2020  137.0530 C   0  0  1  0  0  3  0  0  0  0  0  0
  189.3230  169.9330  136.7160 O   0  0  0  0  0  0  0  0  0  0  0  0
  191.6160  169.6500  136.9570 N   0  0  0  0  0  2  0  0  0  0  0  0
  190.4560  170.4750  136.8070 C   0  0  0  0  0  0  0  0  0  0  0  0
  190.5680  171.9660  136.7560 C   0  0  0  0  0  2  0  0  0  0  0  0
  189.8230  172.5030  135.5430 C   0  0  0  0  0  2  0  0  0  0  0  0
  190.5060  175.0100  136.2740 O   0  0  0  0  0  0  0  0  0  0  0  0
  189.3270  174.1950  135.8070 S   0  0  0  0  0  0  0  0  0  0  0  0
  188.8040  174.7600  134.5160 O   0  0  0  0  0  0  0  0  0  0  0  0
  187.5310  175.5870  137.0370 C   0  0  0  0  0  1  0  0  0  0  0  0
  188.0730  174.2350  137.0070 N   0  0  0  0  0  2  0  0  0  0  0  0
  193.2700  171.7440  138.9570 C   0  0  0  0  0  3  0  0  0  0  0  0
  193.3230  170.4910  138.4880 C   0  0  0  0  0  0  0  0  0  0  0  0
  193.6900  169.4180  139.3630 N   0  0  0  0  0  2  0  0  0  0  0  0
  195.0650  169.1060  139.7320 C   0  0  0  0  0  2  0  0  0  0  0  0
  195.8270  169.6130  142.0390 C   0  0  0  0  0  1  0  0  0  0  0  0
  193.7110  168.3920  141.6720 C   0  0  0  0  0  1  0  0  0  0  0  0
  195.1210  168.5960  141.1620 C   0  0  0  0  0  3  0  0  0  0  0  0
  192.8930  172.9200  138.1160 C   0  0  0  0  0  2  0  0  0  0  0  0
  193.3000  173.7900  140.1000 C   0  0  0  0  0  1  0  0  0  0  0  0
  193.3060  174.0980  138.7410 O   0  0  0  0  0  0  0  0  0  0  0  0
  195.5760  174.3250  142.7740 C   0  0  1  0  0  3  0  0  0  0  0  0
  195.9200  173.1200  143.5560 C   0  0  0  0  0  0  0  0  0  0  0  0
  196.1960  172.1360  144.1940 C   0  0  0  0  0  3  0  0  0  0  0  0
  194.9930  175.3660  143.6320 N   0  0  0  0  0  2  0  0  0  0  0  0
  195.2890  175.1020  145.0400 C   0  0  0  0  0  2  0  0  0  0  0  0
  193.6900  173.6470  146.0150 O   0  0  0  0  0  0  0  0  0  0  0  0
  194.0180  174.8370  145.7710 C   0  0  0  0  0  0  0  0  0  0  0  0
  190.4040  176.5470  145.6850 C   0  0  1  0  0  3  0  0  0  0  0  0
  191.7800  175.9630  145.7270 N   0  0  0  0  0  0  0  0  0  0  0  0
  193.1340  175.9400  146.1700 C   0  0  0  0  0  0  0  0  0  0  0  0
  193.5700  176.8760  146.8900 O   0  0  0  0  0  0  0  0  0  0  0  0
  190.6540  175.4310  144.9010 C   0  0  2  0  0  3  0  0  0  0  0  0
  187.3500  178.0020  146.9210 C   0  0  0  0  0  0  0  0  0  0  0  0
  188.4780  178.4460  147.5030 C   0  0  0  0  0  3  0  0  0  0  0  0
  189.6300  177.5470  147.8720 C   0  0  0  0  0  2  0  0  0  0  0  0
  184.9750  178.3580  146.1060 C   0  0  0  0  0  0  0  0  0  0  0  0
  185.9820  179.7770  147.7320 O   0  0  0  0  0  1  0  0  0  0  0  0
  189.6800  176.2790  147.0220 C   0  0  1  0  0  3  0  0  0  0  0  0
  186.2570  178.9980  146.5990 C   0  0  1  0  0  3  0  0  0  0  0  0
  187.2580  176.5910  146.3780 C   0  0  2  0  0  3  0  0  0  0  0  0
  185.8520  176.0540  146.5360 C   0  0  0  0  0  2  0  0  0  0  0  0
  184.9070  176.9080  145.7100 C   0  0  0  0  0  2  0  0  0  0  0  0
  188.2880  175.6280  146.9700 C   0  0  0  0  0  2  0  0  0  0  0  0
  183.9870  179.1540  145.7040 C   0  0  0  0  0  2  0  0  0  0  0  0
  191.7030  176.7760  143.1660 C   0  0  0  0  0  2  0  0  0  0  0  0
  190.8990  175.7530  143.4500 C   0  0  0  0  0  0  0  0  0  0  0  0
  190.1120  175.1160  142.3320 C   0  0  0  0  0  2  0  0  0  0  0  0
  190.6940  173.7630  141.9310 C   0  0  0  0  0  2  0  0  0  0  0  0
  190.0260  172.6390  142.6610 C   0  0  0  0  0  0  0  0  0  0  0  0
  188.8210  172.6710  142.8650 O   0  0  0  0  0  0  0  0  0  0  0  0
  190.8480  171.4840  143.1480 C   0  0  2  0  0  3  0  0  0  0  0  0
  190.6190  171.2770  144.5060 O   0  0  0  0  0  1  0  0  0  0  0  0
  192.3260  171.7420  142.9130 C   0  0  0  0  0  1  0  0  0  0  0  0
  1 35  1  0  0  0  0
  2  1  1  0  0  0  0
  3  2  1  0  0  0  0
  4  1  1  0  0  0  0
  5  3  2  0  0  0  0
  5  4  1  0  0  0  0
  6  5  1  0  0  0  0
  7  6  1  0  0  0  0
  8  9  1  0  0  0  0
  8  7  1  0  0  0  0
 10  9  1  0  0  0  0
 11 13  1  0  0  0  0
 11 10  1  0  0  0  0
 12 11  2  0  0  0  0
 14 13  1  1  0  0  0
 14 26  1  0  0  0  0
 15 17  2  0  0  0  0
 16 14  1  0  0  0  0
 17 16  1  0  0  0  0
 18 17  1  0  0  0  0
 19 21  1  0  0  0  0
 19 18  1  0  0  0  0
 21 20  2  0  0  0  0
 21 24  1  0  0  0  0
 22 21  2  0  0  0  0
 24 23  1  0  0  0  0
 26 25  2  0  0  0  0
 26 27  1  0  0  0  0
 27 28  1  0  0  0  0
 28 31  1  0  0  0  0
 31 30  1  0  0  0  0
 31 29  1  0  0  0  0
 32 34  1  0  0  0  0
 32 25  1  0  0  0  0
 34 33  1  0  0  0  0
 35 36  1  1  0  0  0
 35 38  1  0  0  0  0
 36 37  3  0  0  0  0
 38 39  1  0  0  0  0
 39 41  1  0  0  0  0
 41 40  2  0  0  0  0
 41 44  1  0  0  0  0
 42 43  1  1  0  0  0
 42 52  1  0  0  0  0
 43 44  1  0  0  0  0
 44 45  2  0  0  0  0
 46 60  1  6  0  0  0
 46 42  1  0  0  0  0
 46 43  1  0  0  0  0
 47 48  2  0  0  0  0
 48 49  1  0  0  0  0
 50 53  1  0  0  0  0
 52 57  1  6  0  0  0
 52 49  1  0  0  0  0
 53 47  1  0  0  0  0
 53 51  1  1  0  0  0
 54 55  1  1  0  0  0
 54 47  1  0  0  0  0
 54 57  1  0  0  0  0
 56 50  1  0  0  0  0
 56 55  1  0  0  0  0
 58 50  2  0  0  0  0
 59 60  2  0  0  0  0
 61 60  1  0  0  0  0
 62 61  1  0  0  0  0
 62 63  1  0  0  0  0
 63 64  2  0  0  0  0
 63 65  1  0  0  0  0
 65 67  1  1  0  0  0
 65 66  1  0  0  0  0
M  END
>  <MODEL>
4

>  <REMARK>
 VINA RESULT:      -4.1      3.065      9.554
  Name = 
  31 active torsions:
  status: ('A' for Active; 'I' for Inactive)
    1  A    between atoms: C_3  and  C_5
    2  A    between atoms: C_5  and  C_46
    3  A    between atoms: N_6  and  C_20
    4  A    between atoms: C_7  and  C_37
    5  A    between atoms: O_11  and  C_40
    6  A    between atoms: O_11  and  C_50
    7  A    between atoms: N_13  and  C_63
    8  A    between atoms: C_14  and  S_22
    9  A    between atoms: C_14  and  C_64
   10  A    between atoms: C_15  and  C_32
   11  A    between atoms: C_15  and  C_46
   12  A    between atoms: C_17  and  C_57
   13  A    between atoms: C_18  and  C_38
   14  A    between atoms: C_18  and  C_50
   15  A    between atoms: C_19  and  C_39
   16  A    between atoms: C_19  and  N_62
   17  A    between atoms: C_20  and  C_24
   18  A    between atoms: C_20  and  N_28
   19  A    between atoms: S_22  and  N_65
   20  A    between atoms: C_23  and  C_40
   21  A    between atoms: C_23  and  C_42
   22  A    between atoms: C_26  and  N_62
   23  A    between atoms: C_26  and  C_63
   24  A    between atoms: N_28  and  C_60
   25  A    between atoms: C_31  and  C_44
   26  A    between atoms: C_32  and  C_48
   27  A    between atoms: C_38  and  C_67
   28  A    between atoms: C_42  and  C_63
   29  A    between atoms: C_44  and  C_60
   30  A    between atoms: C_47  and  C_64
   31  A    between atoms: O_55  and  C_57
                            x       y       z     vdW  Elec       q    Type
                         _______ _______ _______ _____ _____    ______ ____

>  <TORSDO>
F 31

$$$$
=
 OpenBabel11042418383D

 67 70  0  0  1  0  0  0  0  0999 V2000
  187.7970  177.2030  145.9560 N   0  0  0  0  0  0  0  0  0  0  0  0
  188.0730  175.8270  145.4930 C   0  0  0  0  0  2  0  0  0  0  0  0
  189.2550  175.3500  146.2050 N   0  0  0  0  0  0  0  0  0  0  0  0
  188.8280  177.4400  146.8800 N   0  0  0  0  0  2  0  0  0  0  0  0
  189.6370  176.2980  146.9720 C   0  0  0  0  0  0  0  0  0  0  0  0
  190.8130  176.1960  147.8800 C   0  0  0  0  0  2  0  0  0  0  0  0
  192.0080  175.6280  147.1310 C   0  0  0  0  0  2  0  0  0  0  0  0
  192.4640  176.5910  146.0410 C   0  0  0  0  0  2  0  0  0  0  0  0
  193.8410  176.4560  145.8260 O   0  0  0  0  0  0  0  0  0  0  0  0
  194.1550  175.1620  146.2580 C   0  0  0  0  0  2  0  0  0  0  0  0
  194.6340  174.3370  145.1060 C   0  0  0  0  0  0  0  0  0  0  0  0
  195.5620  174.7330  144.4160 O   0  0  0  0  0  0  0  0  0  0  0  0
  193.9820  173.0230  144.7900 C   0  0  0  0  0  2  0  0  0  0  0  0
  194.7350  172.1980  143.7350 C   0  0  1  0  0  3  0  0  0  0  0  0
  197.8560  173.4560  142.2850 O   0  0  0  0  0  0  0  0  0  0  0  0
  196.1200  172.6300  143.5870 N   0  0  0  0  0  2  0  0  0  0  0  0
  196.6550  173.0840  142.3400 C   0  0  0  0  0  0  0  0  0  0  0  0
  195.8100  173.1260  141.1060 C   0  0  0  0  0  2  0  0  0  0  0  0
  196.3230  172.1170  140.0890 C   0  0  0  0  0  2  0  0  0  0  0  0
  196.0540  172.4270  137.4220 O   0  0  0  0  0  0  0  0  0  0  0  0
  195.2640  172.0740  138.6550 S   0  0  0  0  0  0  0  0  0  0  0  0
  194.6930  170.6910  138.5080 O   0  0  0  0  0  0  0  0  0  0  0  0
  193.5300  173.6400  137.5520 C   0  0  0  0  0  1  0  0  0  0  0  0
  193.9720  173.2140  138.8730 N   0  0  0  0  0  2  0  0  0  0  0  0
  194.0510  169.9460  142.9910 C   0  0  0  0  0  3  0  0  0  0  0  0
  194.6540  170.7040  143.9150 C   0  0  0  0  0  0  0  0  0  0  0  0
  195.2550  170.0890  145.0610 N   0  0  0  0  0  2  0  0  0  0  0  0
  195.1700  168.6640  145.3550 C   0  0  0  0  0  2  0  0  0  0  0  0
  196.6670  169.5010  147.1490 C   0  0  0  0  0  1  0  0  0  0  0  0
  194.5900  168.2960  147.7280 C   0  0  0  0  0  1  0  0  0  0  0  0
  195.7310  168.3800  146.7380 C   0  0  0  0  0  3  0  0  0  0  0  0
  193.4030  170.5030  141.7660 C   0  0  0  0  0  2  0  0  0  0  0  0
  192.3870  168.5770  142.1020 C   0  0  0  0  0  1  0  0  0  0  0  0
  192.2080  169.8280  141.5150 O   0  0  0  0  0  0  0  0  0  0  0  0
  186.5280  177.1910  146.6970 C   0  0  1  0  0  3  0  0  0  0  0  0
  186.2460  178.4980  147.3260 C   0  0  0  0  0  0  0  0  0  0  0  0
  186.0170  179.5620  147.8430 C   0  0  0  0  0  3  0  0  0  0  0  0
  185.4100  176.7570  145.8490 N   0  0  0  0  0  2  0  0  0  0  0  0
  184.5130  177.8780  145.5620 C   0  0  0  0  0  2  0  0  0  0  0  0
  184.5080  179.5560  143.8870 O   0  0  0  0  0  0  0  0  0  0  0  0
  184.7460  178.3530  144.1700 C   0  0  0  0  0  0  0  0  0  0  0  0
  184.9970  177.3980  140.2950 C   0  0  1  0  0  3  0  0  0  0  0  0
  184.9100  177.6960  141.7580 N   0  0  0  0  0  0  0  0  0  0  0  0
  185.2080  177.4300  143.1250 C   0  0  0  0  0  0  0  0  0  0  0  0
  185.8550  176.3940  143.4320 O   0  0  0  0  0  0  0  0  0  0  0  0
  184.2190  178.4760  140.6860 C   0  0  2  0  0  3  0  0  0  0  0  0
  188.0620  175.5520  140.7090 C   0  0  0  0  0  0  0  0  0  0  0  0
  187.9530  176.6650  141.4560 C   0  0  0  0  0  3  0  0  0  0  0  0
  187.3760  177.9570  140.9380 C   0  0  0  0  0  2  0  0  0  0  0  0
  188.8890  173.1810  140.3530 C   0  0  0  0  0  0  0  0  0  0  0  0
  189.8770  174.6390  141.9560 O   0  0  0  0  0  1  0  0  0  0  0  0
  186.4100  177.7430  139.7740 C   0  0  1  0  0  3  0  0  0  0  0  0
  188.6620  174.3120  141.3360 C   0  0  1  0  0  3  0  0  0  0  0  0
  187.3880  175.4530  139.3560 C   0  0  2  0  0  3  0  0  0  0  0  0
  188.2180  174.6110  138.4120 C   0  0  0  0  0  2  0  0  0  0  0  0
  188.3070  173.2000  138.9650 C   0  0  0  0  0  2  0  0  0  0  0  0
  187.0430  176.8060  138.7330 C   0  0  0  0  0  2  0  0  0  0  0  0
  189.3220  172.0140  140.8240 C   0  0  0  0  0  2  0  0  0  0  0  0
  182.2730  177.2730  139.8620 C   0  0  0  0  0  2  0  0  0  0  0  0
  182.7440  178.1780  140.7180 C   0  0  0  0  0  0  0  0  0  0  0  0
  181.7640  179.0050  141.5120 C   0  0  0  0  0  2  0  0  0  0  0  0
  180.4230  178.2930  141.6740 C   0  0  0  0  0  2  0  0  0  0  0  0
  179.4790  178.6410  140.5640 C   0  0  0  0  0  0  0  0  0  0  0  0
  179.1610  177.7950  139.7420 O   0  0  0  0  0  0  0  0  0  0  0  0
  178.9400  180.0360  140.4650 C   0  0  2  0  0  3  0  0  0  0  0  0
  178.2340  180.3560  141.6220 O   0  0  0  0  0  1  0  0  0  0  0  0
  178.0310  180.1750  139.2570 C   0  0  0  0  0  1  0  0  0  0  0  0
  1 35  1  0  0  0  0
  1  4  1  0  0  0  0
  2  1  1  0  0  0  0
  2  3  1  0  0  0  0
  3  5  2  0  0  0  0
  4  5  1  0  0  0  0
  5  6  1  0  0  0  0
  7  6  1  0  0  0  0
  8  7  1  0  0  0  0
  9  8  1  0  0  0  0
  9 10  1  0  0  0  0
 11 10  1  0  0  0  0
 12 11  2  0  0  0  0
 13 11  1  0  0  0  0
 14 26  1  0  0  0  0
 14 13  1  1  0  0  0
 15 17  2  0  0  0  0
 16 14  1  0  0  0  0
 17 16  1  0  0  0  0
 18 17  1  0  0  0  0
 19 18  1  0  0  0  0
 20 21  2  0  0  0  0
 21 24  1  0  0  0  0
 21 19  1  0  0  0  0
 22 21  2  0  0  0  0
 23 24  1  0  0  0  0
 25 26  2  0  0  0  0
 26 27  1  0  0  0  0
 27 28  1  0  0  0  0
 28 31  1  0  0  0  0
 31 29  1  0  0  0  0
 31 30  1  0  0  0  0
 32 25  1  0  0  0  0
 34 32  1  0  0  0  0
 34 33  1  0  0  0  0
 35 36  1  6  0  0  0
 36 37  3  0  0  0  0
 38 35  1  0  0  0  0
 39 38  1  0  0  0  0
 40 41  2  0  0  0  0
 41 39  1  0  0  0  0
 42 46  1  0  0  0  0
 42 43  1  1  0  0  0
 43 44  1  0  0  0  0
 44 45  2  0  0  0  0
 44 41  1  0  0  0  0
 46 60  1  1  0  0  0
 46 43  1  0  0  0  0
 47 53  1  0  0  0  0
 47 48  2  0  0  0  0
 49 48  1  0  0  0  0
 50 58  2  0  0  0  0
 50 53  1  0  0  0  0
 52 57  1  6  0  0  0
 52 42  1  0  0  0  0
 52 49  1  0  0  0  0
 53 51  1  6  0  0  0
 54 55  1  6  0  0  0
 54 47  1  0  0  0  0
 55 56  1  0  0  0  0
 56 50  1  0  0  0  0
 57 54  1  0  0  0  0
 59 60  2  0  0  0  0
 60 61  1  0  0  0  0
 61 62  1  0  0  0  0
 63 62  1  0  0  0  0
 64 63  2  0  0  0  0
 65 67  1  6  0  0  0
 65 63  1  0  0  0  0
 65 66  1  0  0  0  0
M  END
>  <MODEL>
5

>  <REMARK>
 VINA RESULT:      -4.0      3.422     10.980
  Name = 
  31 active torsions:
  status: ('A' for Active; 'I' for Inactive)
    1  A    between atoms: C_3  and  C_5
    2  A    between atoms: C_5  and  C_46
    3  A    between atoms: N_6  and  C_20
    4  A    between atoms: C_7  and  C_37
    5  A    between atoms: O_11  and  C_40
    6  A    between atoms: O_11  and  C_50
    7  A    between atoms: N_13  and  C_63
    8  A    between atoms: C_14  and  S_22
    9  A    between atoms: C_14  and  C_64
   10  A    between atoms: C_15  and  C_32
   11  A    between atoms: C_15  and  C_46
   12  A    between atoms: C_17  and  C_57
   13  A    between atoms: C_18  and  C_38
   14  A    between atoms: C_18  and  C_50
   15  A    between atoms: C_19  and  C_39
   16  A    between atoms: C_19  and  N_62
   17  A    between atoms: C_20  and  C_24
   18  A    between atoms: C_20  and  N_28
   19  A    between atoms: S_22  and  N_65
   20  A    between atoms: C_23  and  C_40
   21  A    between atoms: C_23  and  C_42
   22  A    between atoms: C_26  and  N_62
   23  A    between atoms: C_26  and  C_63
   24  A    between atoms: N_28  and  C_60
   25  A    between atoms: C_31  and  C_44
   26  A    between atoms: C_32  and  C_48
   27  A    between atoms: C_38  and  C_67
   28  A    between atoms: C_42  and  C_63
   29  A    between atoms: C_44  and  C_60
   30  A    between atoms: C_47  and  C_64
   31  A    between atoms: O_55  and  C_57
                            x       y       z     vdW  Elec       q    Type
                         _______ _______ _______ _____ _____    ______ ____

>  <TORSDO>
F 31

$$$$
=
 OpenBabel11042418383D

 67 70  0  0  1  0  0  0  0  0999 V2000
  185.9700  178.4650  143.4580 N   0  0  0  0  0  0  0  0  0  0  0  0
  184.9450  177.5100  142.9880 C   0  0  0  0  0  2  0  0  0  0  0  0
  185.5260  176.7400  141.8920 N   0  0  0  0  0  0  0  0  0  0  0  0
  187.0580  178.2050  142.6090 N   0  0  0  0  0  2  0  0  0  0  0  0
  186.7170  177.1730  141.7220 C   0  0  0  0  0  0  0  0  0  0  0  0
  187.6500  176.6290  140.6980 C   0  0  0  0  0  2  0  0  0  0  0  0
  188.3110  175.3580  141.2110 C   0  0  0  0  0  2  0  0  0  0  0  0
  188.7980  174.5000  140.0490 C   0  0  0  0  0  2  0  0  0  0  0  0
  190.1100  174.0740  140.2830 O   0  0  0  0  0  0  0  0  0  0  0  0
  190.1400  172.7360  139.8750 C   0  0  0  0  0  2  0  0  0  0  0  0
  191.4350  172.4350  139.1880 C   0  0  0  0  0  0  0  0  0  0  0  0
  191.6580  171.3090  138.7690 O   0  0  0  0  0  0  0  0  0  0  0  0
  192.4670  173.5100  139.0110 C   0  0  0  0  0  2  0  0  0  0  0  0
  193.5180  173.1860  137.9390 C   0  0  1  0  0  3  0  0  0  0  0  0
  193.0790  176.0210  135.6590 O   0  0  0  0  0  0  0  0  0  0  0  0
  193.7980  174.3340  137.0820 N   0  0  0  0  0  2  0  0  0  0  0  0
  192.7710  175.0300  136.3700 C   0  0  0  0  0  0  0  0  0  0  0  0
  191.3400  174.6010  136.4590 C   0  0  0  0  0  2  0  0  0  0  0  0
  191.0100  173.6440  135.3230 C   0  0  0  0  0  2  0  0  0  0  0  0
  188.8630  173.2630  136.9130 O   0  0  0  0  0  0  0  0  0  0  0  0
  189.5620  172.6800  135.7120 S   0  0  0  0  0  0  0  0  0  0  0  0
  188.6320  172.6940  134.5310 O   0  0  0  0  0  0  0  0  0  0  0  0
  190.9750  170.6350  135.0040 C   0  0  0  0  0  1  0  0  0  0  0  0
  190.0460  171.0460  136.0480 N   0  0  0  0  0  2  0  0  0  0  0  0
  195.7660  173.3630  138.9430 C   0  0  0  0  0  2  0  0  0  0  0  0
  194.7960  172.5790  138.4580 C   0  0  0  0  0  0  0  0  0  0  0  0
  194.9590  171.1560  138.4640 N   0  0  0  0  0  0  0  0  0  0  0  0
  196.0550  170.4680  139.1330 C   0  0  0  0  0  2  0  0  0  0  0  0
  194.7300  168.9660  140.6010 C   0  0  0  0  0  1  0  0  0  0  0  0
  194.9840  168.4470  138.1990 C   0  0  0  0  0  1  0  0  0  0  0  0
  195.6750  169.0240  139.4140 C   0  0  0  0  0  3  0  0  0  0  0  0
  195.6770  174.8540  138.9780 C   0  0  0  0  0  2  0  0  0  0  0  0
  197.2220  175.1300  140.5260 C   0  0  0  0  0  1  0  0  0  0  0  0
  195.8600  175.3070  140.2860 O   0  0  0  0  0  0  0  0  0  0  0  0
  186.3650  178.0800  144.8200 C   0  0  1  0  0  3  0  0  0  0  0  0
  185.6390  178.8570  145.8450 C   0  0  0  0  0  0  0  0  0  0  0  0
  185.0450  179.4880  146.6810 C   0  0  0  0  0  3  0  0  0  0  0  0
  186.2110  176.6360  145.0400 N   0  0  0  0  0  2  0  0  0  0  0  0
  187.4930  176.0250  145.3910 C   0  0  0  0  0  2  0  0  0  0  0  0
  188.4430  178.1660  145.7630 O   0  0  0  0  0  0  0  0  0  0  0  0
  188.5800  177.0330  145.2330 C   0  0  0  0  0  0  0  0  0  0  0  0
  191.9140  174.8840  144.7280 C   0  0  1  0  0  3  0  0  0  0  0  0
  190.6920  175.7320  144.8830 N   0  0  0  0  0  0  0  0  0  0  0  0
  189.7790  176.7310  144.4400 C   0  0  0  0  0  0  0  0  0  0  0  0
  190.0120  177.3630  143.3760 O   0  0  0  0  0  0  0  0  0  0  0  0
  191.1840  174.7520  145.8990 C   0  0  2  0  0  3  0  0  0  0  0  0
  194.2450  172.5150  143.3400 C   0  0  0  0  0  0  0  0  0  0  0  0
  193.9090  173.5350  142.5310 C   0  0  0  0  0  3  0  0  0  0  0  0
  192.5050  174.0690  142.4100 C   0  0  0  0  0  2  0  0  0  0  0  0
  195.9100  170.8010  144.1900 C   0  0  0  0  0  0  0  0  0  0  0  0
  196.1510  171.8580  142.0700 O   0  0  0  0  0  1  0  0  0  0  0  0
  191.6650  173.7990  143.6570 C   0  0  1  0  0  3  0  0  0  0  0  0
  195.6880  172.0610  143.3770 C   0  0  1  0  0  3  0  0  0  0  0  0
  193.2680  171.9830  144.3690 C   0  0  2  0  0  3  0  0  0  0  0  0
  193.4530  170.4930  144.5530 C   0  0  0  0  0  2  0  0  0  0  0  0
  194.8480  170.2370  145.0950 C   0  0  0  0  0  2  0  0  0  0  0  0
  191.8070  172.3270  144.0760 C   0  0  0  0  0  2  0  0  0  0  0  0
  197.1590  170.3750  144.3640 C   0  0  0  0  0  2  0  0  0  0  0  0
  191.0720  175.5430  148.1970 C   0  0  0  0  0  2  0  0  0  0  0  0
  191.7770  175.4940  147.0670 C   0  0  0  0  0  0  0  0  0  0  0  0
  193.0110  176.3520  146.9440 C   0  0  0  0  0  2  0  0  0  0  0  0
  193.9780  175.8060  145.8970 C   0  0  0  0  0  2  0  0  0  0  0  0
  194.9890  176.8340  145.4940 C   0  0  0  0  0  0  0  0  0  0  0  0
  195.1830  177.8140  146.1990 O   0  0  0  0  0  0  0  0  0  0  0  0
  195.7500  176.6580  144.2140 C   0  0  2  0  0  3  0  0  0  0  0  0
  194.8680  176.3840  143.1710 O   0  0  0  0  0  1  0  0  0  0  0  0
  196.7580  175.5280  144.3410 C   0  0  0  0  0  1  0  0  0  0  0  0
  1 35  1  0  0  0  0
  2  1  1  0  0  0  0
  3  2  1  0  0  0  0
  4  1  1  0  0  0  0
  5  3  2  0  0  0  0
  5  4  1  0  0  0  0
  6  7  1  0  0  0  0
  6  5  1  0  0  0  0
  8  9  1  0  0  0  0
  8  7  1  0  0  0  0
 10  9  1  0  0  0  0
 11 10  1  0  0  0  0
 12 11  2  0  0  0  0
 13 11  1  0  0  0  0
 14 26  1  0  0  0  0
 14 13  1  1  0  0  0
 15 17  2  0  0  0  0
 16 14  1  0  0  0  0
 17 18  1  0  0  0  0
 17 16  1  0  0  0  0
 19 21  1  0  0  0  0
 19 18  1  0  0  0  0
 21 24  1  0  0  0  0
 21 20  2  0  0  0  0
 22 21  2  0  0  0  0
 23 24  1  0  0  0  0
 25 32  1  0  0  0  0
 26 27  2  0  0  0  0
 26 25  1  0  0  0  0
 27 28  1  0  0  0  0
 28 31  1  0  0  0  0
 30 31  1  0  0  0  0
 31 29  1  0  0  0  0
 32 34  1  0  0  0  0
 34 33  1  0  0  0  0
 35 38  1  0  0  0  0
 35 36  1  1  0  0  0
 36 37  3  0  0  0  0
 38 39  1  0  0  0  0
 41 39  1  0  0  0  0
 41 40  2  0  0  0  0
 42 43  1  6  0  0  0
 42 46  1  0  0  0  0
 43 46  1  0  0  0  0
 44 43  1  0  0  0  0
 44 41  1  0  0  0  0
 45 44  2  0  0  0  0
 46 60  1  1  0  0  0
 47 53  1  0  0  0  0
 47 54  1  0  0  0  0
 48 47  2  0  0  0  0
 49 48  1  0  0  0  0
 50 58  2  0  0  0  0
 50 56  1  0  0  0  0
 52 49  1  6  0  0  0
 52 57  1  0  0  0  0
 52 42  1  0  0  0  0
 53 51  1  6  0  0  0
 53 50  1  0  0  0  0
 54 57  1  6  0  0  0
 54 55  1  0  0  0  0
 55 56  1  0  0  0  0
 60 59  2  0  0  0  0
 61 60  1  0  0  0  0
 62 61  1  0  0  0  0
 63 62  1  0  0  0  0
 63 64  2  0  0  0  0
 65 67  1  1  0  0  0
 65 63  1  0  0  0  0
 66 65  1  0  0  0  0
M  END
>  <MODEL>
6

>  <REMARK>
 VINA RESULT:      -3.7      3.028      7.678
  Name = 
  31 active torsions:
  status: ('A' for Active; 'I' for Inactive)
    1  A    between atoms: C_3  and  C_5
    2  A    between atoms: C_5  and  C_46
    3  A    between atoms: N_6  and  C_20
    4  A    between atoms: C_7  and  C_37
    5  A    between atoms: O_11  and  C_40
    6  A    between atoms: O_11  and  C_50
    7  A    between atoms: N_13  and  C_63
    8  A    between atoms: C_14  and  S_22
    9  A    between atoms: C_14  and  C_64
   10  A    between atoms: C_15  and  C_32
   11  A    between atoms: C_15  and  C_46
   12  A    between atoms: C_17  and  C_57
   13  A    between atoms: C_18  and  C_38
   14  A    between atoms: C_18  and  C_50
   15  A    between atoms: C_19  and  C_39
   16  A    between atoms: C_19  and  N_62
   17  A    between atoms: C_20  and  C_24
   18  A    between atoms: C_20  and  N_28
   19  A    between atoms: S_22  and  N_65
   20  A    between atoms: C_23  and  C_40
   21  A    between atoms: C_23  and  C_42
   22  A    between atoms: C_26  and  N_62
   23  A    between atoms: C_26  and  C_63
   24  A    between atoms: N_28  and  C_60
   25  A    between atoms: C_31  and  C_44
   26  A    between atoms: C_32  and  C_48
   27  A    between atoms: C_38  and  C_67
   28  A    between atoms: C_42  and  C_63
   29  A    between atoms: C_44  and  C_60
   30  A    between atoms: C_47  and  C_64
   31  A    between atoms: O_55  and  C_57
                            x       y       z     vdW  Elec       q    Type
                         _______ _______ _______ _____ _____    ______ ____

>  <TORSDO>
F 31

$$$$
=
 OpenBabel11042418383D

 67 70  0  0  1  0  0  0  0  0999 V2000
  196.2320  172.6410  144.2590 N   0  0  0  0  0  0  0  0  0  0  0  0
  195.9300  172.6970  142.8140 C   0  0  0  0  0  2  0  0  0  0  0  0
  194.9230  171.6780  142.5320 N   0  0  0  0  0  0  0  0  0  0  0  0
  195.4070  171.6000  144.7160 N   0  0  0  0  0  2  0  0  0  0  0  0
  194.6660  171.0920  143.6380 C   0  0  0  0  0  0  0  0  0  0  0  0
  193.6710  169.9920  143.7730 C   0  0  0  0  0  2  0  0  0  0  0  0
  193.8500  168.9800  142.6510 C   0  0  0  0  0  2  0  0  0  0  0  0
  192.4980  168.5570  142.0890 C   0  0  0  0  0  2  0  0  0  0  0  0
  192.6060  168.3040  140.7170 O   0  0  0  0  0  0  0  0  0  0  0  0
  193.8140  168.8940  140.3290 C   0  0  0  0  0  2  0  0  0  0  0  0
  193.5510  170.0800  139.4550 C   0  0  0  0  0  0  0  0  0  0  0  0
  192.4030  170.4450  139.2500 O   0  0  0  0  0  0  0  0  0  0  0  0
  194.6910  170.8270  138.8270 C   0  0  0  0  0  2  0  0  0  0  0  0
  194.2740  172.1540  138.1750 C   0  0  1  0  0  3  0  0  0  0  0  0
  193.3690  175.2690  139.8790 O   0  0  0  0  0  0  0  0  0  0  0  0
  194.2460  173.2520  139.1340 N   0  0  0  0  0  2  0  0  0  0  0  0
  193.3510  174.3610  139.0080 C   0  0  0  0  0  0  0  0  0  0  0  0
  192.3950  174.4570  137.8600 C   0  0  0  0  0  2  0  0  0  0  0  0
  191.3240  173.3840  137.9840 C   0  0  0  0  0  2  0  0  0  0  0  0
  188.8520  174.2930  137.3940 O   0  0  0  0  0  0  0  0  0  0  0  0
  190.0470  173.6250  136.7640 S   0  0  0  0  0  0  0  0  0  0  0  0
  190.5820  174.4920  135.6580 O   0  0  0  0  0  0  0  0  0  0  0  0
  189.8530  171.0760  137.1350 C   0  0  0  0  0  1  0  0  0  0  0  0
  189.5840  172.0810  136.1170 N   0  0  0  0  0  2  0  0  0  0  0  0
  194.7200  172.0380  135.7490 C   0  0  0  0  0  3  0  0  0  0  0  0
  195.0570  172.5350  136.9450 C   0  0  0  0  0  0  0  0  0  0  0  0
  196.1460  173.4610  137.0500 N   0  0  0  0  0  2  0  0  0  0  0  0
  196.6840  174.2120  135.9230 C   0  0  0  0  0  2  0  0  0  0  0  0
  196.9080  176.6780  135.7510 C   0  0  0  0  0  1  0  0  0  0  0  0
  197.2720  175.5470  137.9180 C   0  0  0  0  0  1  0  0  0  0  0  0
  197.4490  175.4270  136.4200 C   0  0  0  0  0  3  0  0  0  0  0  0
  193.5980  171.0720  135.5490 C   0  0  0  0  0  2  0  0  0  0  0  0
  195.4440  169.8850  135.3560 C   0  0  0  0  0  1  0  0  0  0  0  0
  194.0810  169.7650  135.6200 O   0  0  0  0  0  0  0  0  0  0  0  0
  195.7570  173.8880  144.8750 C   0  0  1  0  0  3  0  0  0  0  0  0
  196.3110  175.0810  144.2020 C   0  0  0  0  0  0  0  0  0  0  0  0
  196.7600  176.0550  143.6550 C   0  0  0  0  0  3  0  0  0  0  0  0
  194.2900  173.9410  144.9280 N   0  0  0  0  0  2  0  0  0  0  0  0
  193.8430  174.8900  145.9470 C   0  0  0  0  0  2  0  0  0  0  0  0
  192.0770  176.4510  146.2080 O   0  0  0  0  0  0  0  0  0  0  0  0
  192.6070  175.5760  145.4750 C   0  0  0  0  0  0  0  0  0  0  0  0
  189.3500  175.4090  143.1620 C   0  0  1  0  0  3  0  0  0  0  0  0
  190.5920  175.4250  143.9950 N   0  0  0  0  0  0  0  0  0  0  0  0
  191.9870  175.2150  144.1940 C   0  0  0  0  0  0  0  0  0  0  0  0
  192.6790  174.7050  143.2740 O   0  0  0  0  0  0  0  0  0  0  0  0
  189.2300  175.7940  144.4880 C   0  0  2  0  0  3  0  0  0  0  0  0
  186.6240  177.3570  141.8390 C   0  0  0  0  0  0  0  0  0  0  0  0
  187.1430  176.4440  140.9980 C   0  0  0  0  0  3  0  0  0  0  0  0
  188.6210  176.1810  140.8690 C   0  0  0  0  0  2  0  0  0  0  0  0
  184.6720  178.7050  142.7350 C   0  0  0  0  0  0  0  0  0  0  0  0
  184.6310  177.6970  140.5780 O   0  0  0  0  0  1  0  0  0  0  0  0
  189.3970  176.5570  142.1310 C   0  0  1  0  0  3  0  0  0  0  0  0
  185.1230  177.5370  141.8810 C   0  0  1  0  0  3  0  0  0  0  0  0
  187.4860  178.0220  142.8920 C   0  0  2  0  0  3  0  0  0  0  0  0
  187.0300  179.4460  143.1260 C   0  0  0  0  0  2  0  0  0  0  0  0
  185.6110  179.4230  143.6660 C   0  0  0  0  0  2  0  0  0  0  0  0
  188.9860  177.9630  142.5990 C   0  0  0  0  0  2  0  0  0  0  0  0
  183.3660  178.8880  142.9140 C   0  0  0  0  0  2  0  0  0  0  0  0
  188.6250  173.4740  144.8940 C   0  0  0  0  0  2  0  0  0  0  0  0
  188.7100  174.7070  145.3900 C   0  0  0  0  0  0  0  0  0  0  0  0
  188.0870  174.9940  146.7330 C   0  0  0  0  0  2  0  0  0  0  0  0
  187.7610  176.4750  146.9020 C   0  0  0  0  0  2  0  0  0  0  0  0
  186.4320  176.8170  146.3020 C   0  0  0  0  0  0  0  0  0  0  0  0
  185.9370  176.0890  145.4540 O   0  0  0  0  0  0  0  0  0  0  0  0
  185.7230  178.0620  146.7410 C   0  0  2  0  0  3  0  0  0  0  0  0
  185.7410  178.1530  148.1310 O   0  0  0  0  0  1  0  0  0  0  0  0
  184.2860  178.0640  146.2480 C   0  0  0  0  0  1  0  0  0  0  0  0
  1  4  1  0  0  0  0
  1 35  1  0  0  0  0
  2  1  1  0  0  0  0
  3  2  1  0  0  0  0
  3  5  2  0  0  0  0
  5  6  1  0  0  0  0
  5  4  1  0  0  0  0
  7  6  1  0  0  0  0
  8  7  1  0  0  0  0
  9  8  1  0  0  0  0
 10  9  1  0  0  0  0
 11 10  1  0  0  0  0
 12 11  2  0  0  0  0
 13 11  1  0  0  0  0
 14 13  1  1  0  0  0
 14 16  1  0  0  0  0
 17 16  1  0  0  0  0
 17 15  2  0  0  0  0
 18 19  1  0  0  0  0
 18 17  1  0  0  0  0
 21 20  2  0  0  0  0
 21 19  1  0  0  0  0
 22 21  2  0  0  0  0
 24 21  1  0  0  0  0
 24 23  1  0  0  0  0
 25 26  2  0  0  0  0
 26 27  1  0  0  0  0
 26 14  1  0  0  0  0
 28 31  1  0  0  0  0
 28 27  1  0  0  0  0
 29 31  1  0  0  0  0
 31 30  1  0  0  0  0
 32 34  1  0  0  0  0
 32 25  1  0  0  0  0
 33 34  1  0  0  0  0
 35 36  1  6  0  0  0
 35 38  1  0  0  0  0
 37 36  3  0  0  0  0
 38 39  1  0  0  0  0
 41 39  1  0  0  0  0
 41 40  2  0  0  0  0
 42 43  1  1  0  0  0
 42 46  1  0  0  0  0
 43 44  1  0  0  0  0
 43 46  1  0  0  0  0
 44 41  1  0  0  0  0
 45 44  2  0  0  0  0
 46 60  1  1  0  0  0
 47 53  1  0  0  0  0
 47 54  1  0  0  0  0
 48 47  2  0  0  0  0
 49 48  1  0  0  0  0
 50 58  2  0  0  0  0
 50 56  1  0  0  0  0
 52 49  1  6  0  0  0
 52 57  1  0  0  0  0
 52 42  1  0  0  0  0
 53 51  1  6  0  0  0
 53 50  1  0  0  0  0
 54 57  1  6  0  0  0
 54 55  1  0  0  0  0
 55 56  1  0  0  0  0
 59 60  2  0  0  0  0
 60 61  1  0  0  0  0
 61 62  1  0  0  0  0
 63 65  1  0  0  0  0
 63 62  1  0  0  0  0
 64 63  2  0  0  0  0
 65 67  1  1  0  0  0
 65 66  1  0  0  0  0
M  END
>  <MODEL>
7

>  <REMARK>
 VINA RESULT:      -3.0      3.050      9.450
  Name = 
  31 active torsions:
  status: ('A' for Active; 'I' for Inactive)
    1  A    between atoms: C_3  and  C_5
    2  A    between atoms: C_5  and  C_46
    3  A    between atoms: N_6  and  C_20
    4  A    between atoms: C_7  and  C_37
    5  A    between atoms: O_11  and  C_40
    6  A    between atoms: O_11  and  C_50
    7  A    between atoms: N_13  and  C_63
    8  A    between atoms: C_14  and  S_22
    9  A    between atoms: C_14  and  C_64
   10  A    between atoms: C_15  and  C_32
   11  A    between atoms: C_15  and  C_46
   12  A    between atoms: C_17  and  C_57
   13  A    between atoms: C_18  and  C_38
   14  A    between atoms: C_18  and  C_50
   15  A    between atoms: C_19  and  C_39
   16  A    between atoms: C_19  and  N_62
   17  A    between atoms: C_20  and  C_24
   18  A    between atoms: C_20  and  N_28
   19  A    between atoms: S_22  and  N_65
   20  A    between atoms: C_23  and  C_40
   21  A    between atoms: C_23  and  C_42
   22  A    between atoms: C_26  and  N_62
   23  A    between atoms: C_26  and  C_63
   24  A    between atoms: N_28  and  C_60
   25  A    between atoms: C_31  and  C_44
   26  A    between atoms: C_32  and  C_48
   27  A    between atoms: C_38  and  C_67
   28  A    between atoms: C_42  and  C_63
   29  A    between atoms: C_44  and  C_60
   30  A    between atoms: C_47  and  C_64
   31  A    between atoms: O_55  and  C_57
                            x       y       z     vdW  Elec       q    Type
                         _______ _______ _______ _____ _____    ______ ____

>  <TORSDO>
F 31

$$$$
=
 OpenBabel11042418383D

 67 70  0  0  1  0  0  0  0  0999 V2000
  196.4910  172.7850  143.1740 N   0  0  0  0  0  0  0  0  0  0  0  0
  195.8170  172.6090  141.8710 C   0  0  0  0  0  2  0  0  0  0  0  0
  194.7500  171.6290  142.0540 N   0  0  0  0  0  0  0  0  0  0  0  0
  195.7960  171.8990  144.0140 N   0  0  0  0  0  2  0  0  0  0  0  0
  194.7840  171.2640  143.2790 C   0  0  0  0  0  0  0  0  0  0  0  0
  193.8380  170.2770  143.8680 C   0  0  0  0  0  2  0  0  0  0  0  0
  193.4800  169.2130  142.8400 C   0  0  0  0  0  2  0  0  0  0  0  0
  191.9700  169.0140  142.7800 C   0  0  0  0  0  2  0  0  0  0  0  0
  191.5710  168.7690  141.4610 O   0  0  0  0  0  0  0  0  0  0  0  0
  192.7580  168.7310  140.7190 C   0  0  0  0  0  2  0  0  0  0  0  0
  192.7730  169.8390  139.7140 C   0  0  0  0  0  0  0  0  0  0  0  0
  191.8660  170.6580  139.6950 O   0  0  0  0  0  0  0  0  0  0  0  0
  193.8950  169.9510  138.7250 C   0  0  0  0  0  2  0  0  0  0  0  0
  193.9950  171.3310  138.0580 C   0  0  1  0  0  3  0  0  0  0  0  0
  192.8030  174.5100  139.4360 O   0  0  0  0  0  0  0  0  0  0  0  0
  193.6930  172.4120  138.9890 N   0  0  0  0  0  2  0  0  0  0  0  0
  193.0470  173.6220  138.5790 C   0  0  0  0  0  0  0  0  0  0  0  0
  192.6560  173.8440  137.1520 C   0  0  0  0  0  2  0  0  0  0  0  0
  191.1400  173.8400  137.0200 C   0  0  0  0  0  2  0  0  0  0  0  0
  190.0280  171.4130  137.4180 O   0  0  0  0  0  0  0  0  0  0  0  0
  190.5730  172.2980  136.3270 S   0  0  0  0  0  0  0  0  0  0  0  0
  189.4930  172.5810  135.3210 O   0  0  0  0  0  0  0  0  0  0  0  0
  191.3550  170.5980  134.5450 C   0  0  0  0  0  1  0  0  0  0  0  0
  191.9050  171.5090  135.5400 N   0  0  0  0  0  2  0  0  0  0  0  0
  195.6170  170.8640  136.2560 C   0  0  0  0  0  3  0  0  0  0  0  0
  195.2860  171.5960  137.3270 C   0  0  0  0  0  0  0  0  0  0  0  0
  196.1470  172.6570  137.7590 N   0  0  0  0  0  2  0  0  0  0  0  0
  196.8090  173.5850  136.8510 C   0  0  0  0  0  2  0  0  0  0  0  0
  196.2410  175.4830  138.3460 C   0  0  0  0  0  1  0  0  0  0  0  0
  196.8730  175.9020  135.9950 C   0  0  0  0  0  1  0  0  0  0  0  0
  196.1520  174.9520  136.9270 C   0  0  0  0  0  3  0  0  0  0  0  0
  194.7780  169.7430  135.7360 C   0  0  0  0  0  2  0  0  0  0  0  0
  196.8650  169.1680  135.3240 C   0  0  0  0  0  1  0  0  0  0  0  0
  195.5530  168.9060  134.9320 O   0  0  0  0  0  0  0  0  0  0  0  0
  196.2240  174.1500  143.6480 C   0  0  1  0  0  3  0  0  0  0  0  0
  196.7790  175.1690  142.7330 C   0  0  0  0  0  0  0  0  0  0  0  0
  197.2310  176.0030  141.9910 C   0  0  0  0  0  3  0  0  0  0  0  0
  194.7910  174.3700  143.8820 N   0  0  0  0  0  2  0  0  0  0  0  0
  194.5210  174.5440  145.3100 C   0  0  0  0  0  2  0  0  0  0  0  0
  192.8520  175.5810  146.6380 O   0  0  0  0  0  0  0  0  0  0  0  0
  193.3300  175.4220  145.4840 C   0  0  0  0  0  0  0  0  0  0  0  0
  190.0050  176.3000  143.4440 C   0  0  1  0  0  3  0  0  0  0  0  0
  191.2810  175.9770  144.1550 N   0  0  0  0  0  0  0  0  0  0  0  0
  192.6910  176.0660  144.3280 C   0  0  0  0  0  0  0  0  0  0  0  0
  193.3870  176.6830  143.4800 O   0  0  0  0  0  0  0  0  0  0  0  0
  189.9370  175.4430  144.5310 C   0  0  2  0  0  3  0  0  0  0  0  0
  186.8060  177.6150  144.4500 C   0  0  0  0  0  0  0  0  0  0  0  0
  187.1460  177.8400  143.1680 C   0  0  0  0  0  3  0  0  0  0  0  0
  188.5360  178.2290  142.7360 C   0  0  0  0  0  2  0  0  0  0  0  0
  185.0770  177.1720  146.2520 C   0  0  0  0  0  0  0  0  0  0  0  0
  184.5000  178.1370  144.1520 O   0  0  0  0  0  1  0  0  0  0  0  0
  189.6090  177.7670  143.7200 C   0  0  1  0  0  3  0  0  0  0  0  0
  185.3770  177.2320  144.7670 C   0  0  1  0  0  3  0  0  0  0  0  0
  187.8650  177.5060  145.5280 C   0  0  2  0  0  3  0  0  0  0  0  0
  187.3440  178.0550  146.8380 C   0  0  0  0  0  2  0  0  0  0  0  0
  186.1670  177.2080  147.2890 C   0  0  0  0  0  2  0  0  0  0  0  0
  189.2030  178.1460  145.1540 C   0  0  0  0  0  2  0  0  0  0  0  0
  183.8740  176.7500  146.6350 C   0  0  0  0  0  2  0  0  0  0  0  0
  190.8470  173.1870  144.5180 C   0  0  0  0  0  2  0  0  0  0  0  0
  189.8490  173.9880  144.1500 C   0  0  0  0  0  0  0  0  0  0  0  0
  188.8050  173.4580  143.1990 C   0  0  0  0  0  2  0  0  0  0  0  0
  188.3440  174.5270  142.2120 C   0  0  0  0  0  2  0  0  0  0  0  0
  188.4590  174.0530  140.7960 C   0  0  0  0  0  0  0  0  0  0  0  0
  188.6960  174.8500  139.9000 O   0  0  0  0  0  0  0  0  0  0  0  0
  188.2700  172.5990  140.4880 C   0  0  2  0  0  3  0  0  0  0  0  0
  187.1370  172.1190  141.1410 O   0  0  0  0  0  1  0  0  0  0  0  0
  189.4860  171.7970  140.9170 C   0  0  0  0  0  1  0  0  0  0  0  0
  1 35  1  0  0  0  0
  1  4  1  0  0  0  0
  2  3  1  0  0  0  0
  2  1  1  0  0  0  0
  3  5  2  0  0  0  0
  5  6  1  0  0  0  0
  5  4  1  0  0  0  0
  7  6  1  0  0  0  0
  8  7  1  0  0  0  0
  9  8  1  0  0  0  0
 10  9  1  0  0  0  0
 11 10  1  0  0  0  0
 12 11  2  0  0  0  0
 13 11  1  0  0  0  0
 14 13  1  1  0  0  0
 14 16  1  0  0  0  0
 17 16  1  0  0  0  0
 17 15  2  0  0  0  0
 18 17  1  0  0  0  0
 19 18  1  0  0  0  0
 21 19  1  0  0  0  0
 21 20  2  0  0  0  0
 22 21  2  0  0  0  0
 23 24  1  0  0  0  0
 24 21  1  0  0  0  0
 25 26  2  0  0  0  0
 26 27  1  0  0  0  0
 26 14  1  0  0  0  0
 28 31  1  0  0  0  0
 28 27  1  0  0  0  0
 30 31  1  0  0  0  0
 31 29  1  0  0  0  0
 32 25  1  0  0  0  0
 34 33  1  0  0  0  0
 34 32  1  0  0  0  0
 35 36  1  6  0  0  0
 35 38  1  0  0  0  0
 37 36  3  0  0  0  0
 38 39  1  0  0  0  0
 39 41  1  0  0  0  0
 41 40  2  0  0  0  0
 42 52  1  0  0  0  0
 42 43  1  1  0  0  0
 42 46  1  0  0  0  0
 43 44  1  0  0  0  0
 43 46  1  0  0  0  0
 44 41  1  0  0  0  0
 45 44  2  0  0  0  0
 46 60  1  6  0  0  0
 47 53  1  0  0  0  0
 47 54  1  0  0  0  0
 48 47  2  0  0  0  0
 49 48  1  0  0  0  0
 50 58  2  0  0  0  0
 50 56  1  0  0  0  0
 52 49  1  6  0  0  0
 52 57  1  0  0  0  0
 53 51  1  6  0  0  0
 53 50  1  0  0  0  0
 54 57  1  6  0  0  0
 54 55  1  0  0  0  0
 55 56  1  0  0  0  0
 60 59  2  0  0  0  0
 61 60  1  0  0  0  0
 62 61  1  0  0  0  0
 63 62  1  0  0  0  0
 64 63  2  0  0  0  0
 65 63  1  0  0  0  0
 65 67  1  1  0  0  0
 65 66  1  0  0  0  0
M  END
>  <MODEL>
8

>  <REMARK>
 VINA RESULT:      -3.0      3.229      9.523
  Name = 
  31 active torsions:
  status: ('A' for Active; 'I' for Inactive)
    1  A    between atoms: C_3  and  C_5
    2  A    between atoms: C_5  and  C_46
    3  A    between atoms: N_6  and  C_20
    4  A    between atoms: C_7  and  C_37
    5  A    between atoms: O_11  and  C_40
    6  A    between atoms: O_11  and  C_50
    7  A    between atoms: N_13  and  C_63
    8  A    between atoms: C_14  and  S_22
    9  A    between atoms: C_14  and  C_64
   10  A    between atoms: C_15  and  C_32
   11  A    between atoms: C_15  and  C_46
   12  A    between atoms: C_17  and  C_57
   13  A    between atoms: C_18  and  C_38
   14  A    between atoms: C_18  and  C_50
   15  A    between atoms: C_19  and  C_39
   16  A    between atoms: C_19  and  N_62
   17  A    between atoms: C_20  and  C_24
   18  A    between atoms: C_20  and  N_28
   19  A    between atoms: S_22  and  N_65
   20  A    between atoms: C_23  and  C_40
   21  A    between atoms: C_23  and  C_42
   22  A    between atoms: C_26  and  N_62
   23  A    between atoms: C_26  and  C_63
   24  A    between atoms: N_28  and  C_60
   25  A    between atoms: C_31  and  C_44
   26  A    between atoms: C_32  and  C_48
   27  A    between atoms: C_38  and  C_67
   28  A    between atoms: C_42  and  C_63
   29  A    between atoms: C_44  and  C_60
   30  A    between atoms: C_47  and  C_64
   31  A    between atoms: O_55  and  C_57
                            x       y       z     vdW  Elec       q    Type
                         _______ _______ _______ _____ _____    ______ ____

>  <TORSDO>
F 31

$$$$
=
 OpenBabel11042418383D

 67 70  0  0  1  0  0  0  0  0999 V2000
  196.8590  175.0100  141.6980 N   0  0  0  0  0  0  0  0  0  0  0  0
  196.5670  176.2240  140.9080 C   0  0  0  0  0  2  0  0  0  0  0  0
  196.5290  175.8390  139.5010 N   0  0  0  0  0  0  0  0  0  0  0  0
  196.9860  174.0150  140.7150 N   0  0  0  0  0  2  0  0  0  0  0  0
  196.7720  174.5840  139.4510 C   0  0  0  0  0  0  0  0  0  0  0  0
  196.8090  173.8050  138.1830 C   0  0  0  0  0  2  0  0  0  0  0  0
  197.9370  172.7850  138.2250 C   0  0  0  0  0  2  0  0  0  0  0  0
  197.5560  171.5320  137.4460 C   0  0  0  0  0  2  0  0  0  0  0  0
  196.2610  171.1280  137.7910 O   0  0  0  0  0  0  0  0  0  0  0  0
  195.6420  170.8040  136.5780 C   0  0  0  0  0  2  0  0  0  0  0  0
  195.4540  169.3230  136.4740 C   0  0  0  0  0  0  0  0  0  0  0  0
  196.4190  168.5970  136.2910 O   0  0  0  0  0  0  0  0  0  0  0  0
  194.0840  168.7230  136.5940 C   0  0  0  0  0  2  0  0  0  0  0  0
  193.0130  169.7160  137.0680 C   0  0  1  0  0  3  0  0  0  0  0  0
  189.4030  169.2660  137.5100 O   0  0  0  0  0  0  0  0  0  0  0  0
  191.6860  169.1120  137.1120 N   0  0  0  0  0  2  0  0  0  0  0  0
  190.5210  169.8440  137.5070 C   0  0  0  0  0  0  0  0  0  0  0  0
  190.6110  171.2810  137.9150 C   0  0  0  0  0  2  0  0  0  0  0  0
  190.0400  171.4630  139.3130 C   0  0  0  0  0  2  0  0  0  0  0  0
  189.8900  174.0640  140.0170 O   0  0  0  0  0  0  0  0  0  0  0  0
  189.0700  172.9560  139.4070 S   0  0  0  0  0  0  0  0  0  0  0  0
  188.6420  173.3510  138.0220 O   0  0  0  0  0  0  0  0  0  0  0  0
  187.9890  173.0390  141.7530 C   0  0  0  0  0  1  0  0  0  0  0  0
  187.6660  172.6570  140.3850 N   0  0  0  0  0  2  0  0  0  0  0  0
  193.4780  171.7520  138.3860 C   0  0  0  0  0  3  0  0  0  0  0  0
  193.3250  170.4220  138.3620 C   0  0  0  0  0  0  0  0  0  0  0  0
  193.4240  169.6720  139.5790 N   0  0  0  0  0  2  0  0  0  0  0  0
  193.3020  170.2610  140.9070 C   0  0  0  0  0  2  0  0  0  0  0  0
  191.4150  168.6650  141.1390 C   0  0  0  0  0  1  0  0  0  0  0  0
  193.5710  168.2080  142.2560 C   0  0  0  0  0  1  0  0  0  0  0  0
  192.6010  169.2950  141.8470 C   0  0  0  0  0  3  0  0  0  0  0  0
  193.3870  172.6100  137.1660 C   0  0  0  0  0  2  0  0  0  0  0  0
  193.1430  174.1390  138.7350 C   0  0  0  0  0  1  0  0  0  0  0  0
  192.6910  173.7830  137.4650 O   0  0  0  0  0  0  0  0  0  0  0  0
  195.6710  174.6900  142.5030 C   0  0  1  0  0  3  0  0  0  0  0  0
  195.2900  173.2680  142.3810 C   0  0  0  0  0  0  0  0  0  0  0  0
  194.9790  172.1090  142.2850 C   0  0  0  0  0  3  0  0  0  0  0  0
  195.8540  175.0720  143.9100 N   0  0  0  0  0  2  0  0  0  0  0  0
  195.8420  173.8900  144.7730 C   0  0  0  0  0  2  0  0  0  0  0  0
  193.9920  172.6540  145.5940 O   0  0  0  0  0  0  0  0  0  0  0  0
  194.5200  173.7880  145.4530 C   0  0  0  0  0  0  0  0  0  0  0  0
  191.1110  175.8410  145.8380 C   0  0  1  0  0  3  0  0  0  0  0  0
  192.4170  175.1260  145.6970 N   0  0  0  0  0  0  0  0  0  0  0  0
  193.8170  174.9900  145.9190 C   0  0  0  0  0  0  0  0  0  0  0  0
  194.4490  175.9100  146.5030 O   0  0  0  0  0  0  0  0  0  0  0  0
  191.1270  174.6710  145.0940 C   0  0  2  0  0  3  0  0  0  0  0  0
  188.4270  177.6260  147.4460 C   0  0  0  0  0  0  0  0  0  0  0  0
  189.6670  177.9950  147.8130 C   0  0  0  0  0  3  0  0  0  0  0  0
  190.7870  177.0150  148.0520 C   0  0  0  0  0  2  0  0  0  0  0  0
  185.9870  178.1530  146.9950 C   0  0  0  0  0  0  0  0  0  0  0  0
  187.3580  179.5560  148.3470 O   0  0  0  0  0  1  0  0  0  0  0  0
  190.5950  175.7070  147.2880 C   0  0  1  0  0  3  0  0  0  0  0  0
  187.3810  178.6980  147.2370 C   0  0  1  0  0  3  0  0  0  0  0  0
  188.1340  176.2030  147.0160 C   0  0  2  0  0  3  0  0  0  0  0  0
  186.7340  175.8040  147.4280 C   0  0  0  0  0  2  0  0  0  0  0  0
  185.7390  176.6970  146.7080 C   0  0  0  0  0  2  0  0  0  0  0  0
  189.1650  175.1820  147.4980 C   0  0  0  0  0  2  0  0  0  0  0  0
  185.0150  179.0130  146.7040 C   0  0  0  0  0  2  0  0  0  0  0  0
  192.3140  174.7180  142.9720 C   0  0  0  0  0  2  0  0  0  0  0  0
  191.1580  174.9010  143.6070 C   0  0  0  0  0  0  0  0  0  0  0  0
  190.0110  175.5310  142.8570 C   0  0  0  0  0  2  0  0  0  0  0  0
  189.3520  176.6470  143.6640 C   0  0  0  0  0  2  0  0  0  0  0  0
  187.9120  176.8200  143.2890 C   0  0  0  0  0  0  0  0  0  0  0  0
  187.0630  176.0780  143.7610 O   0  0  0  0  0  0  0  0  0  0  0  0
  187.5260  177.9000  142.3250 C   0  0  2  0  0  3  0  0  0  0  0  0
  188.6570  178.6080  141.9270 O   0  0  0  0  0  1  0  0  0  0  0  0
  186.5240  178.8500  142.9570 C   0  0  0  0  0  1  0  0  0  0  0  0
  1 35  1  0  0  0  0
  2  1  1  0  0  0  0
  3  2  1  0  0  0  0
  4  1  1  0  0  0  0
  5  3  2  0  0  0  0
  5  4  1  0  0  0  0
  6  7  1  0  0  0  0
  6  5  1  0  0  0  0
  8  9  1  0  0  0  0
  8  7  1  0  0  0  0
 10  9  1  0  0  0  0
 11 10  1  0  0  0  0
 11 13  1  0  0  0  0
 12 11  2  0  0  0  0
 14 13  1  1  0  0  0
 14 16  1  0  0  0  0
 14 26  1  0  0  0  0
 16 17  1  0  0  0  0
 17 15  2  0  0  0  0
 17 18  1  0  0  0  0
 18 19  1  0  0  0  0
 19 21  1  0  0  0  0
 21 20  2  0  0  0  0
 21 24  1  0  0  0  0
 22 21  2  0  0  0  0
 24 23  1  0  0  0  0
 26 25  2  0  0  0  0
 26 27  1  0  0  0  0
 27 28  1  0  0  0  0
 28 31  1  0  0  0  0
 29 31  1  0  0  0  0
 31 30  1  0  0  0  0
 32 34  1  0  0  0  0
 32 25  1  0  0  0  0
 34 33  1  0  0  0  0
 35 36  1  1  0  0  0
 35 38  1  0  0  0  0
 37 36  3  0  0  0  0
 38 39  1  0  0  0  0
 39 41  1  0  0  0  0
 41 40  2  0  0  0  0
 41 44  1  0  0  0  0
 42 43  1  1  0  0  0
 42 52  1  0  0  0  0
 43 44  1  0  0  0  0
 44 45  2  0  0  0  0
 46 60  1  6  0  0  0
 46 43  1  0  0  0  0
 46 42  1  0  0  0  0
 47 48  2  0  0  0  0
 48 49  1  0  0  0  0
 50 53  1  0  0  0  0
 52 57  1  6  0  0  0
 52 49  1  0  0  0  0
 53 47  1  0  0  0  0
 53 51  1  1  0  0  0
 54 55  1  1  0  0  0
 54 47  1  0  0  0  0
 54 57  1  0  0  0  0
 56 50  1  0  0  0  0
 56 55  1  0  0  0  0
 58 50  2  0  0  0  0
 59 60  2  0  0  0  0
 61 60  1  0  0  0  0
 61 62  1  0  0  0  0
 63 62  1  0  0  0  0
 63 64  2  0  0  0  0
 65 67  1  1  0  0  0
 65 63  1  0  0  0  0
 66 65  1  0  0  0  0
M  END
>  <MODEL>
9

>  <REMARK>
 VINA RESULT:      -3.0      2.988      9.761
  Name = 
  31 active torsions:
  status: ('A' for Active; 'I' for Inactive)
    1  A    between atoms: C_3  and  C_5
    2  A    between atoms: C_5  and  C_46
    3  A    between atoms: N_6  and  C_20
    4  A    between atoms: C_7  and  C_37
    5  A    between atoms: O_11  and  C_40
    6  A    between atoms: O_11  and  C_50
    7  A    between atoms: N_13  and  C_63
    8  A    between atoms: C_14  and  S_22
    9  A    between atoms: C_14  and  C_64
   10  A    between atoms: C_15  and  C_32
   11  A    between atoms: C_15  and  C_46
   12  A    between atoms: C_17  and  C_57
   13  A    between atoms: C_18  and  C_38
   14  A    between atoms: C_18  and  C_50
   15  A    between atoms: C_19  and  C_39
   16  A    between atoms: C_19  and  N_62
   17  A    between atoms: C_20  and  C_24
   18  A    between atoms: C_20  and  N_28
   19  A    between atoms: S_22  and  N_65
   20  A    between atoms: C_23  and  C_40
   21  A    between atoms: C_23  and  C_42
   22  A    between atoms: C_26  and  N_62
   23  A    between atoms: C_26  and  C_63
   24  A    between atoms: N_28  and  C_60
   25  A    between atoms: C_31  and  C_44
   26  A    between atoms: C_32  and  C_48
   27  A    between atoms: C_38  and  C_67
   28  A    between atoms: C_42  and  C_63
   29  A    between atoms: C_44  and  C_60
   30  A    between atoms: C_47  and  C_64
   31  A    between atoms: O_55  and  C_57
                            x       y       z     vdW  Elec       q    Type
                         _______ _______ _______ _____ _____    ______ ____

>  <TORSDO>
F 31

$$$$
