=
 OpenBabel11042416103D

 34 37  0  0  1  0  0  0  0  0999 V2000
  191.3290  174.0440  144.7100 C   0  0  1  0  0  3  0  0  0  0  0  0
  191.9640  176.4350  147.2440 N   0  0  0  0  0  0  0  0  0  0  0  0
  193.1340  175.8710  146.9640 N   0  0  0  0  0  0  0  0  0  0  0  0
  192.6050  173.2250  144.7840 C   0  0  0  0  0  3  0  0  0  0  0  0
  193.5400  173.9310  145.4220 C   0  0  0  0  0  0  0  0  0  0  0  0
  192.9550  175.2000  145.8100 C   0  0  0  0  0  0  0  0  0  0  0  0
  191.0920  176.0380  146.2910 C   0  0  0  0  0  0  0  0  0  0  0  0
  191.7130  175.2890  145.3630 N   0  0  0  0  0  0  0  0  0  0  0  0
  188.9850  177.5590  145.8690 C   0  0  0  0  0  2  0  0  0  0  0  0
  185.1050  177.8550  146.2560 C   0  0  0  0  0  0  0  0  0  0  0  0
  189.6440  176.3030  146.3290 C   0  0  0  0  0  0  0  0  0  0  0  0
  187.4190  176.0510  146.7210 N   0  0  0  0  0  0  0  0  0  0  0  0
  186.4790  178.1220  145.9560 N   0  0  0  0  0  2  0  0  0  0  0  0
  184.0840  178.9000  145.9900 C   0  0  0  0  0  1  0  0  0  0  0  0
  187.5670  177.2220  146.1930 C   0  0  0  0  0  0  0  0  0  0  0  0
  188.7160  175.4850  146.8030 C   0  0  0  0  0  0  0  0  0  0  0  0
  188.9560  174.2540  147.3190 F   0  0  0  0  0  0  0  0  0  0  0  0
  184.7500  176.7540  146.7560 O   0  0  0  0  0  0  0  0  0  0  0  0
  194.8360  173.4220  145.7520 N   0  0  0  0  0  2  0  0  0  0  0  0
  197.2760  173.5420  146.0710 N   0  0  0  0  0  1  0  0  0  0  0  0
  196.0760  174.1090  145.5580 C   0  0  0  0  0  0  0  0  0  0  0  0
  196.1270  175.1890  144.9120 O   0  0  0  0  0  0  0  0  0  0  0  0
  190.8840  174.2860  143.2670 C   0  0  0  0  0  2  0  0  0  0  0  0
  189.6480  173.4860  142.8870 C   0  0  0  0  0  2  0  0  0  0  0  0
  188.7210  174.3520  142.0610 C   0  0  0  0  0  2  0  0  0  0  0  0
  188.5480  175.6920  142.7480 C   0  0  0  0  0  2  0  0  0  0  0  0
  188.0730  176.6900  141.7910 N   0  0  0  0  0  0  0  0  0  0  0  0
  186.0030  176.2540  143.1500 C   0  0  0  0  0  1  0  0  0  0  0  0
  186.6050  176.8040  141.8590 C   0  0  1  0  0  3  0  0  0  0  0  0
  185.2680  178.2750  140.4390 N   0  0  0  0  0  2  0  0  0  0  0  0
  186.1500  178.2370  141.6160 C   0  0  1  0  0  3  0  0  0  0  0  0
  184.7070  178.3390  141.7970 C   0  0  0  0  0  2  0  0  0  0  0  0
  188.7710  177.9830  141.9260 C   0  0  0  0  0  2  0  0  0  0  0  0
  190.0910  177.9000  142.6940 C   0  0  0  0  0  1  0  0  0  0  0  0
  1 23  1  6  0  0  0
  1  4  1  0  0  0  0
  1  8  1  0  0  0  0
  3  2  1  0  0  0  0
  4  5  2  0  0  0  0
  5 19  1  0  0  0  0
  5  6  1  0  0  0  0
  6  3  2  0  0  0  0
  7 11  1  0  0  0  0
  7  2  2  0  0  0  0
  8  6  1  0  0  0  0
  8  7  1  0  0  0  0
  9 15  1  0  0  0  0
  9 11  1  0  0  0  0
 10 18  2  0  0  0  0
 11 16  2  0  0  0  0
 12 16  1  0  0  0  0
 13 15  1  0  0  0  0
 13 10  1  0  0  0  0
 14 10  1  0  0  0  0
 15 12  2  0  0  0  0
 16 17  1  0  0  0  0
 21 19  1  0  0  0  0
 21 20  1  0  0  0  0
 22 21  2  0  0  0  0
 24 23  1  0  0  0  0
 25 26  1  0  0  0  0
 25 24  1  0  0  0  0
 27 29  1  0  0  0  0
 27 33  1  0  0  0  0
 27 26  1  0  0  0  0
 29 28  1  1  0  0  0
 30 31  1  0  0  0  0
 30 32  1  0  0  0  0
 31 32  1  0  0  0  0
 31 29  1  1  0  0  0
 33 34  1  0  0  0  0
M  END
>  <MODEL>
1

>  <REMARK>
 VINA RESULT:      -7.3      0.000      0.000
  Name = 
  10 active torsions:
  status: ('A' for Active; 'I' for Inactive)
    1  A    between atoms: C_1  and  C_2
    2  A    between atoms: C_1  and  C_24
    3  A    between atoms: C_6  and  C_11
    4  A    between atoms: C_6  and  N_15
    5  A    between atoms: N_8  and  C_17
    6  A    between atoms: C_9  and  C_31
    7  A    between atoms: C_11  and  C_24
    8  A    between atoms: N_15  and  C_16
    9  A    between atoms: N_15  and  C_30
   10  A    between atoms: C_27  and  C_30
                            x       y       z     vdW  Elec       q    Type
                         _______ _______ _______ _____ _____    ______ ____

>  <TORSDO>
F 10

$$$$
=
 OpenBabel11042416103D

 34 37  0  0  1  0  0  0  0  0999 V2000
  191.7160  174.8680  144.1270 C   0  0  1  0  0  3  0  0  0  0  0  0
  192.0960  176.4370  147.2800 N   0  0  0  0  0  0  0  0  0  0  0  0
  193.3100  176.0430  146.9120 N   0  0  0  0  0  0  0  0  0  0  0  0
  193.0410  174.1330  144.0290 C   0  0  0  0  0  3  0  0  0  0  0  0
  193.9020  174.6680  144.8960 C   0  0  0  0  0  0  0  0  0  0  0  0
  193.2200  175.7340  145.6040 C   0  0  0  0  0  0  0  0  0  0  0  0
  191.2890  176.2930  146.2050 C   0  0  0  0  0  0  0  0  0  0  0  0
  191.9920  175.8850  145.1350 N   0  0  0  0  0  0  0  0  0  0  0  0
  189.0950  177.7290  145.9690 C   0  0  0  0  0  2  0  0  0  0  0  0
  185.1970  177.7170  146.2740 C   0  0  0  0  0  0  0  0  0  0  0  0
  189.8250  176.4580  146.2380 C   0  0  0  0  0  0  0  0  0  0  0  0
  187.6150  176.0080  146.5120 N   0  0  0  0  0  0  0  0  0  0  0  0
  186.5560  178.1150  146.0660 N   0  0  0  0  0  2  0  0  0  0  0  0
  184.1140  178.7270  146.1490 C   0  0  0  0  0  1  0  0  0  0  0  0
  187.6950  177.2570  146.1880 C   0  0  0  0  0  0  0  0  0  0  0  0
  188.9440  175.5170  146.5420 C   0  0  0  0  0  0  0  0  0  0  0  0
  189.2530  174.2350  146.8580 F   0  0  0  0  0  0  0  0  0  0  0  0
  184.9040  176.5290  146.5750 O   0  0  0  0  0  0  0  0  0  0  0  0
  195.2160  174.1540  145.1330 N   0  0  0  0  0  2  0  0  0  0  0  0
  197.6790  174.2040  145.1120 N   0  0  0  0  0  1  0  0  0  0  0  0
  196.4370  174.7410  144.6720 C   0  0  0  0  0  0  0  0  0  0  0  0
  196.4310  175.7020  143.8590 O   0  0  0  0  0  0  0  0  0  0  0  0
  191.3110  175.5010  142.7950 C   0  0  0  0  0  2  0  0  0  0  0  0
  190.9690  176.9770  142.9220 C   0  0  0  0  0  2  0  0  0  0  0  0
  189.5700  177.2180  142.3960 C   0  0  0  0  0  2  0  0  0  0  0  0
  188.6940  176.0330  142.7510 C   0  0  0  0  0  2  0  0  0  0  0  0
  187.6620  175.8470  141.7320 N   0  0  0  0  0  0  0  0  0  0  0  0
  186.6540  177.2900  139.9370 C   0  0  0  0  0  1  0  0  0  0  0  0
  187.0240  177.1360  141.4100 C   0  0  1  0  0  3  0  0  0  0  0  0
  185.8440  178.7900  142.7660 N   0  0  0  0  0  2  0  0  0  0  0  0
  185.8180  177.3930  142.3030 C   0  0  1  0  0  3  0  0  0  0  0  0
  184.9400  178.3780  141.6810 C   0  0  0  0  0  2  0  0  0  0  0  0
  188.1590  175.1220  140.5460 C   0  0  0  0  0  2  0  0  0  0  0  0
  188.6400  173.7010  140.8420 C   0  0  0  0  0  1  0  0  0  0  0  0
  1 23  1  6  0  0  0
  1  8  1  0  0  0  0
  3  2  1  0  0  0  0
  4  1  1  0  0  0  0
  4  5  2  0  0  0  0
  5 19  1  0  0  0  0
  5  6  1  0  0  0  0
  6  3  2  0  0  0  0
  7 11  1  0  0  0  0
  7  2  2  0  0  0  0
  8  6  1  0  0  0  0
  8  7  1  0  0  0  0
  9 15  1  0  0  0  0
  9 11  1  0  0  0  0
 10 18  2  0  0  0  0
 11 16  2  0  0  0  0
 12 16  1  0  0  0  0
 13 15  1  0  0  0  0
 13 10  1  0  0  0  0
 14 10  1  0  0  0  0
 15 12  2  0  0  0  0
 16 17  1  0  0  0  0
 21 20  1  0  0  0  0
 21 19  1  0  0  0  0
 22 21  2  0  0  0  0
 23 24  1  0  0  0  0
 25 26  1  0  0  0  0
 25 24  1  0  0  0  0
 27 26  1  0  0  0  0
 29 28  1  6  0  0  0
 29 27  1  0  0  0  0
 31 29  1  6  0  0  0
 31 30  1  0  0  0  0
 32 31  1  0  0  0  0
 32 30  1  0  0  0  0
 33 34  1  0  0  0  0
 33 27  1  0  0  0  0
M  END
>  <MODEL>
2

>  <REMARK>
 VINA RESULT:      -7.1      0.988      1.629
  Name = 
  10 active torsions:
  status: ('A' for Active; 'I' for Inactive)
    1  A    between atoms: C_1  and  C_2
    2  A    between atoms: C_1  and  C_24
    3  A    between atoms: C_6  and  C_11
    4  A    between atoms: C_6  and  N_15
    5  A    between atoms: N_8  and  C_17
    6  A    between atoms: C_9  and  C_31
    7  A    between atoms: C_11  and  C_24
    8  A    between atoms: N_15  and  C_16
    9  A    between atoms: N_15  and  C_30
   10  A    between atoms: C_27  and  C_30
                            x       y       z     vdW  Elec       q    Type
                         _______ _______ _______ _____ _____    ______ ____

>  <TORSDO>
F 10

$$$$
=
 OpenBabel11042416103D

 34 37  0  0  1  0  0  0  0  0999 V2000
  191.6040  174.7240  144.1250 C   0  0  1  0  0  3  0  0  0  0  0  0
  192.0390  176.4290  147.1990 N   0  0  0  0  0  0  0  0  0  0  0  0
  193.2420  175.9920  146.8420 N   0  0  0  0  0  0  0  0  0  0  0  0
  192.9120  173.9560  144.0530 C   0  0  0  0  0  3  0  0  0  0  0  0
  193.7910  174.5130  144.8890 C   0  0  0  0  0  0  0  0  0  0  0  0
  193.1360  175.6250  145.5510 C   0  0  0  0  0  0  0  0  0  0  0  0
  191.2220  176.2520  146.1370 C   0  0  0  0  0  0  0  0  0  0  0  0
  191.9090  175.7800  145.0820 N   0  0  0  0  0  0  0  0  0  0  0  0
  189.0430  177.6470  145.6480 C   0  0  0  0  0  2  0  0  0  0  0  0
  185.1550  177.7810  146.0490 C   0  0  0  0  0  0  0  0  0  0  0  0
  189.7630  176.4500  146.1710 C   0  0  0  0  0  0  0  0  0  0  0  0
  187.5550  176.1160  146.5950 N   0  0  0  0  0  0  0  0  0  0  0  0
  186.5130  178.0960  145.7240 N   0  0  0  0  0  2  0  0  0  0  0  0
  184.0840  178.7610  145.7350 C   0  0  0  0  0  1  0  0  0  0  0  0
  187.6440  177.2620  146.0020 C   0  0  0  0  0  0  0  0  0  0  0  0
  188.8770  175.6170  146.6970 C   0  0  0  0  0  0  0  0  0  0  0  0
  189.1780  174.4300  147.2780 F   0  0  0  0  0  0  0  0  0  0  0  0
  184.8550  176.6940  146.6120 O   0  0  0  0  0  0  0  0  0  0  0  0
  195.0950  173.9820  145.1420 N   0  0  0  0  0  2  0  0  0  0  0  0
  197.5540  174.0510  145.2860 N   0  0  0  0  0  1  0  0  0  0  0  0
  196.3340  174.6320  144.8400 C   0  0  0  0  0  0  0  0  0  0  0  0
  196.3630  175.6900  144.1590 O   0  0  0  0  0  0  0  0  0  0  0  0
  191.2030  175.3030  142.7670 C   0  0  0  0  0  2  0  0  0  0  0  0
  189.7380  175.7050  142.7060 C   0  0  0  0  0  2  0  0  0  0  0  0
  189.0800  175.0310  141.5210 C   0  0  0  0  0  2  0  0  0  0  0  0
  188.2740  173.8440  142.0080 C   0  0  0  0  0  2  0  0  0  0  0  0
  188.7910  172.6090  141.4190 N   0  0  0  0  0  0  0  0  0  0  0  0
  190.7030  172.1510  139.8530 C   0  0  0  0  0  1  0  0  0  0  0  0
  189.3860  172.8830  140.0990 C   0  0  1  0  0  3  0  0  0  0  0  0
  188.1360  173.8530  138.2380 N   0  0  0  0  0  2  0  0  0  0  0  0
  188.3930  172.6070  138.9780 C   0  0  1  0  0  3  0  0  0  0  0  0
  189.0310  172.8250  137.6840 C   0  0  0  0  0  2  0  0  0  0  0  0
  189.6910  171.8780  142.3320 C   0  0  0  0  0  2  0  0  0  0  0  0
  189.3140  172.0020  143.8090 C   0  0  0  0  0  1  0  0  0  0  0  0
  1 23  1  6  0  0  0
  1  8  1  0  0  0  0
  3  2  1  0  0  0  0
  4  1  1  0  0  0  0
  4  5  2  0  0  0  0
  5 19  1  0  0  0  0
  5  6  1  0  0  0  0
  6  3  2  0  0  0  0
  7 11  1  0  0  0  0
  7  2  2  0  0  0  0
  8  6  1  0  0  0  0
  8  7  1  0  0  0  0
  9 15  1  0  0  0  0
  9 11  1  0  0  0  0
 10 18  2  0  0  0  0
 11 16  2  0  0  0  0
 12 16  1  0  0  0  0
 13 15  1  0  0  0  0
 13 10  1  0  0  0  0
 14 10  1  0  0  0  0
 15 12  2  0  0  0  0
 16 17  1  0  0  0  0
 21 19  1  0  0  0  0
 21 20  1  0  0  0  0
 22 21  2  0  0  0  0
 24 23  1  0  0  0  0
 25 26  1  0  0  0  0
 25 24  1  0  0  0  0
 27 26  1  0  0  0  0
 27 33  1  0  0  0  0
 29 28  1  6  0  0  0
 29 27  1  0  0  0  0
 30 31  1  0  0  0  0
 31 29  1  1  0  0  0
 32 30  1  0  0  0  0
 32 31  1  0  0  0  0
 33 34  1  0  0  0  0
M  END
>  <MODEL>
3

>  <REMARK>
 VINA RESULT:      -6.8      1.939      3.112
  Name = 
  10 active torsions:
  status: ('A' for Active; 'I' for Inactive)
    1  A    between atoms: C_1  and  C_2
    2  A    between atoms: C_1  and  C_24
    3  A    between atoms: C_6  and  C_11
    4  A    between atoms: C_6  and  N_15
    5  A    between atoms: N_8  and  C_17
    6  A    between atoms: C_9  and  C_31
    7  A    between atoms: C_11  and  C_24
    8  A    between atoms: N_15  and  C_16
    9  A    between atoms: N_15  and  C_30
   10  A    between atoms: C_27  and  C_30
                            x       y       z     vdW  Elec       q    Type
                         _______ _______ _______ _____ _____    ______ ____

>  <TORSDO>
F 10

$$$$
=
 OpenBabel11042416103D

 34 37  0  0  1  0  0  0  0  0999 V2000
  191.9090  175.0560  144.3040 C   0  0  1  0  0  3  0  0  0  0  0  0
  192.1090  176.5650  147.5020 N   0  0  0  0  0  0  0  0  0  0  0  0
  193.3490  176.2140  147.1780 N   0  0  0  0  0  0  0  0  0  0  0  0
  193.2580  174.3600  144.2480 C   0  0  0  0  0  3  0  0  0  0  0  0
  194.0650  174.9010  145.1620 C   0  0  0  0  0  0  0  0  0  0  0  0
  193.3230  175.9310  145.8620 C   0  0  0  0  0  0  0  0  0  0  0  0
  191.3530  176.4210  146.3920 C   0  0  0  0  0  0  0  0  0  0  0  0
  192.1120  176.0570  145.3440 N   0  0  0  0  0  0  0  0  0  0  0  0
  189.1300  177.8010  146.0960 C   0  0  0  0  0  2  0  0  0  0  0  0
  185.2240  177.6710  146.2320 C   0  0  0  0  0  0  0  0  0  0  0  0
  189.8850  176.5440  146.3650 C   0  0  0  0  0  0  0  0  0  0  0  0
  187.6790  176.0250  146.5320 N   0  0  0  0  0  0  0  0  0  0  0  0
  186.5790  178.1120  146.0930 N   0  0  0  0  0  2  0  0  0  0  0  0
  184.1190  178.6530  146.0850 C   0  0  0  0  0  1  0  0  0  0  0  0
  187.7370  177.2840  146.2420 C   0  0  0  0  0  0  0  0  0  0  0  0
  189.0200  175.5710  146.6080 C   0  0  0  0  0  0  0  0  0  0  0  0
  189.3530  174.2910  146.9050 F   0  0  0  0  0  0  0  0  0  0  0  0
  184.9540  176.4680  146.4910 O   0  0  0  0  0  0  0  0  0  0  0  0
  195.3830  174.4190  145.4440 N   0  0  0  0  0  2  0  0  0  0  0  0
  197.8020  174.1530  145.0600 N   0  0  0  0  0  1  0  0  0  0  0  0
  196.5190  174.5440  144.5840 C   0  0  0  0  0  0  0  0  0  0  0  0
  196.3980  174.9650  143.4040 O   0  0  0  0  0  0  0  0  0  0  0  0
  191.5420  175.7060  142.9700 C   0  0  0  0  0  2  0  0  0  0  0  0
  191.2580  177.1940  143.0960 C   0  0  0  0  0  2  0  0  0  0  0  0
  189.8840  177.4950  142.5340 C   0  0  0  0  0  2  0  0  0  0  0  0
  189.0000  176.2760  142.7020 C   0  0  0  0  0  2  0  0  0  0  0  0
  188.2260  176.0440  141.4840 N   0  0  0  0  0  0  0  0  0  0  0  0
  189.1350  174.2630  139.9600 C   0  0  0  0  0  1  0  0  0  0  0  0
  188.2320  174.6100  141.1410 C   0  0  1  0  0  3  0  0  0  0  0  0
  187.7740  172.5180  142.3170 N   0  0  0  0  0  2  0  0  0  0  0  0
  188.5720  173.7540  142.3540 C   0  0  1  0  0  3  0  0  0  0  0  0
  189.1920  172.5060  141.9240 C   0  0  0  0  0  2  0  0  0  0  0  0
  186.8720  176.6280  141.5510 C   0  0  0  0  0  2  0  0  0  0  0  0
  186.1840  176.4480  142.9040 C   0  0  0  0  0  1  0  0  0  0  0  0
  1 23  1  6  0  0  0
  1  8  1  0  0  0  0
  3  2  1  0  0  0  0
  4  1  1  0  0  0  0
  4  5  2  0  0  0  0
  5 19  1  0  0  0  0
  5  6  1  0  0  0  0
  6  3  2  0  0  0  0
  7  2  2  0  0  0  0
  8  6  1  0  0  0  0
  8  7  1  0  0  0  0
  9 15  1  0  0  0  0
  9 11  1  0  0  0  0
 10 18  2  0  0  0  0
 11  7  1  0  0  0  0
 11 16  2  0  0  0  0
 12 16  1  0  0  0  0
 13 10  1  0  0  0  0
 13 15  1  0  0  0  0
 14 10  1  0  0  0  0
 15 12  2  0  0  0  0
 16 17  1  0  0  0  0
 21 20  1  0  0  0  0
 21 19  1  0  0  0  0
 22 21  2  0  0  0  0
 23 24  1  0  0  0  0
 25 26  1  0  0  0  0
 25 24  1  0  0  0  0
 27 33  1  0  0  0  0
 27 26  1  0  0  0  0
 29 28  1  6  0  0  0
 29 27  1  0  0  0  0
 30 31  1  0  0  0  0
 31 29  1  6  0  0  0
 32 30  1  0  0  0  0
 32 31  1  0  0  0  0
 33 34  1  0  0  0  0
M  END
>  <MODEL>
4

>  <REMARK>
 VINA RESULT:      -6.7      1.184      2.571
  Name = 
  10 active torsions:
  status: ('A' for Active; 'I' for Inactive)
    1  A    between atoms: C_1  and  C_2
    2  A    between atoms: C_1  and  C_24
    3  A    between atoms: C_6  and  C_11
    4  A    between atoms: C_6  and  N_15
    5  A    between atoms: N_8  and  C_17
    6  A    between atoms: C_9  and  C_31
    7  A    between atoms: C_11  and  C_24
    8  A    between atoms: N_15  and  C_16
    9  A    between atoms: N_15  and  C_30
   10  A    between atoms: C_27  and  C_30
                            x       y       z     vdW  Elec       q    Type
                         _______ _______ _______ _____ _____    ______ ____

>  <TORSDO>
F 10

$$$$
=
 OpenBabel11042416103D

 34 37  0  0  1  0  0  0  0  0999 V2000
  191.6300  174.8350  143.9780 C   0  0  1  0  0  3  0  0  0  0  0  0
  192.0190  176.3820  147.1410 N   0  0  0  0  0  0  0  0  0  0  0  0
  193.2270  175.9590  146.7820 N   0  0  0  0  0  0  0  0  0  0  0  0
  192.9370  174.0670  143.8900 C   0  0  0  0  0  3  0  0  0  0  0  0
  193.8030  174.5780  144.7670 C   0  0  0  0  0  0  0  0  0  0  0  0
  193.1410  175.6580  145.4730 C   0  0  0  0  0  0  0  0  0  0  0  0
  191.2190  176.2620  146.0580 C   0  0  0  0  0  0  0  0  0  0  0  0
  191.9220  175.8410  144.9930 N   0  0  0  0  0  0  0  0  0  0  0  0
  189.0330  177.5710  145.3940 C   0  0  0  0  0  2  0  0  0  0  0  0
  185.1500  177.7640  145.8120 C   0  0  0  0  0  0  0  0  0  0  0  0
  189.7600  176.4630  146.0790 C   0  0  0  0  0  0  0  0  0  0  0  0
  187.5570  176.1960  146.5700 N   0  0  0  0  0  0  0  0  0  0  0  0
  186.5040  178.0270  145.4300 N   0  0  0  0  0  2  0  0  0  0  0  0
  184.0740  178.6870  145.3690 C   0  0  0  0  0  1  0  0  0  0  0  0
  187.6390  177.2420  145.8150 C   0  0  0  0  0  0  0  0  0  0  0  0
  188.8810  175.7170  146.7300 C   0  0  0  0  0  0  0  0  0  0  0  0
  189.1890  174.6270  147.4760 F   0  0  0  0  0  0  0  0  0  0  0  0
  184.8570  176.7710  146.5310 O   0  0  0  0  0  0  0  0  0  0  0  0
  195.1020  174.0300  145.0140 N   0  0  0  0  0  2  0  0  0  0  0  0
  197.5650  174.0320  145.0480 N   0  0  0  0  0  1  0  0  0  0  0  0
  196.3440  174.6090  144.6020 C   0  0  0  0  0  0  0  0  0  0  0  0
  196.3730  175.5990  143.8240 O   0  0  0  0  0  0  0  0  0  0  0  0
  191.2530  175.4830  142.6450 C   0  0  0  0  0  2  0  0  0  0  0  0
  189.7830  175.3070  142.2980 C   0  0  0  0  0  2  0  0  0  0  0  0
  189.1830  174.2300  143.1760 C   0  0  0  0  0  2  0  0  0  0  0  0
  188.6110  173.1340  142.2990 C   0  0  0  0  0  2  0  0  0  0  0  0
  189.3160  173.0950  141.0180 N   0  0  0  0  0  0  0  0  0  0  0  0
  190.3290  171.1660  142.2720 C   0  0  0  0  0  1  0  0  0  0  0  0
  190.3950  172.0920  141.0610 C   0  0  1  0  0  3  0  0  0  0  0  0
  191.7340  171.5560  139.0890 N   0  0  0  0  0  2  0  0  0  0  0  0
  190.4550  171.2910  139.7670 C   0  0  1  0  0  3  0  0  0  0  0  0
  191.5290  170.3070  139.8400 C   0  0  0  0  0  2  0  0  0  0  0  0
  188.4010  172.9290  139.8720 C   0  0  0  0  0  2  0  0  0  0  0  0
  188.2910  174.1660  138.9790 C   0  0  0  0  0  1  0  0  0  0  0  0
  1 23  1  6  0  0  0
  1  8  1  0  0  0  0
  3  2  1  0  0  0  0
  4  1  1  0  0  0  0
  4  5  2  0  0  0  0
  5 19  1  0  0  0  0
  5  6  1  0  0  0  0
  6  3  2  0  0  0  0
  7 11  1  0  0  0  0
  7  2  2  0  0  0  0
  8  6  1  0  0  0  0
  8  7  1  0  0  0  0
  9 15  1  0  0  0  0
  9 11  1  0  0  0  0
 10 18  2  0  0  0  0
 11 16  2  0  0  0  0
 12 16  1  0  0  0  0
 13 10  1  0  0  0  0
 13 15  1  0  0  0  0
 14 10  1  0  0  0  0
 15 12  2  0  0  0  0
 16 17  1  0  0  0  0
 21 19  1  0  0  0  0
 21 20  1  0  0  0  0
 22 21  2  0  0  0  0
 24 23  1  0  0  0  0
 24 25  1  0  0  0  0
 26 25  1  0  0  0  0
 27 29  1  0  0  0  0
 27 26  1  0  0  0  0
 29 28  1  1  0  0  0
 30 31  1  0  0  0  0
 30 32  1  0  0  0  0
 31 32  1  0  0  0  0
 31 29  1  1  0  0  0
 33 27  1  0  0  0  0
 34 33  1  0  0  0  0
M  END
>  <MODEL>
5

>  <REMARK>
 VINA RESULT:      -6.5      2.078      3.670
  Name = 
  10 active torsions:
  status: ('A' for Active; 'I' for Inactive)
    1  A    between atoms: C_1  and  C_2
    2  A    between atoms: C_1  and  C_24
    3  A    between atoms: C_6  and  C_11
    4  A    between atoms: C_6  and  N_15
    5  A    between atoms: N_8  and  C_17
    6  A    between atoms: C_9  and  C_31
    7  A    between atoms: C_11  and  C_24
    8  A    between atoms: N_15  and  C_16
    9  A    between atoms: N_15  and  C_30
   10  A    between atoms: C_27  and  C_30
                            x       y       z     vdW  Elec       q    Type
                         _______ _______ _______ _____ _____    ______ ____

>  <TORSDO>
F 10

$$$$
=
 OpenBabel11042416103D

 34 37  0  0  1  0  0  0  0  0999 V2000
  189.0730  176.4110  143.7990 C   0  0  1  0  0  3  0  0  0  0  0  0
  189.9750  177.3740  147.0860 N   0  0  0  0  0  0  0  0  0  0  0  0
  188.6790  177.6430  146.9610 N   0  0  0  0  0  0  0  0  0  0  0  0
  187.7410  177.1270  143.6620 C   0  0  0  0  0  3  0  0  0  0  0  0
  187.2940  177.4510  144.8760 C   0  0  0  0  0  0  0  0  0  0  0  0
  188.2730  177.0030  145.8480 C   0  0  0  0  0  0  0  0  0  0  0  0
  190.3320  176.6370  146.0110 C   0  0  0  0  0  0  0  0  0  0  0  0
  189.2630  176.3670  145.2430 N   0  0  0  0  0  0  0  0  0  0  0  0
  192.5100  175.1920  146.3330 C   0  0  0  0  0  2  0  0  0  0  0  0
  196.2100  174.6560  145.1860 C   0  0  0  0  0  0  0  0  0  0  0  0
  191.7210  176.2750  145.6780 C   0  0  0  0  0  0  0  0  0  0  0  0
  193.7810  176.3020  144.7190 N   0  0  0  0  0  0  0  0  0  0  0  0
  194.9490  174.5390  145.8540 N   0  0  0  0  0  2  0  0  0  0  0  0
  197.3310  173.7670  145.5840 C   0  0  0  0  0  1  0  0  0  0  0  0
  193.7990  175.3520  145.5960 C   0  0  0  0  0  0  0  0  0  0  0  0
  192.4850  176.8720  144.7760 C   0  0  0  0  0  0  0  0  0  0  0  0
  192.0990  177.9120  143.9970 F   0  0  0  0  0  0  0  0  0  0  0  0
  196.3890  175.5100  144.2770 O   0  0  0  0  0  0  0  0  0  0  0  0
  186.1100  178.2200  145.1100 N   0  0  0  0  0  2  0  0  0  0  0  0
  183.9590  178.7510  146.1880 N   0  0  0  0  0  1  0  0  0  0  0  0
  185.0030  177.8210  145.9240 C   0  0  0  0  0  0  0  0  0  0  0  0
  184.9220  176.6520  146.3830 O   0  0  0  0  0  0  0  0  0  0  0  0
  189.0330  175.0050  143.1990 C   0  0  0  0  0  2  0  0  0  0  0  0
  188.2440  174.9380  141.9010 C   0  0  0  0  0  2  0  0  0  0  0  0
  188.8520  173.8890  140.9950 C   0  0  0  0  0  2  0  0  0  0  0  0
  189.4800  172.8020  141.8440 C   0  0  0  0  0  2  0  0  0  0  0  0
  190.7330  172.3510  141.2380 N   0  0  0  0  0  0  0  0  0  0  0  0
  192.4160  173.8710  142.3220 C   0  0  0  0  0  1  0  0  0  0  0  0
  191.8370  172.4630  142.2070 C   0  0  1  0  0  3  0  0  0  0  0  0
  192.1870  170.7060  143.8690 N   0  0  0  0  0  2  0  0  0  0  0  0
  191.4280  171.9320  143.5750 C   0  0  1  0  0  3  0  0  0  0  0  0
  192.5620  171.9860  144.4900 C   0  0  0  0  0  2  0  0  0  0  0  0
  190.6180  171.0130  140.6270 C   0  0  0  0  0  2  0  0  0  0  0  0
  190.6200  171.0250  139.0970 C   0  0  0  0  0  1  0  0  0  0  0  0
  1 23  1  1  0  0  0
  1  8  1  0  0  0  0
  3  2  1  0  0  0  0
  4  1  1  0  0  0  0
  4  5  2  0  0  0  0
  5 19  1  0  0  0  0
  5  6  1  0  0  0  0
  6  3  2  0  0  0  0
  7  2  2  0  0  0  0
  8  6  1  0  0  0  0
  8  7  1  0  0  0  0
 10 14  1  0  0  0  0
 10 13  1  0  0  0  0
 11  7  1  0  0  0  0
 11  9  1  0  0  0  0
 12 16  1  0  0  0  0
 12 15  2  0  0  0  0
 15 13  1  0  0  0  0
 15  9  1  0  0  0  0
 16 11  2  0  0  0  0
 17 16  1  0  0  0  0
 18 10  2  0  0  0  0
 19 21  1  0  0  0  0
 21 20  1  0  0  0  0
 21 22  2  0  0  0  0
 24 23  1  0  0  0  0
 25 26  1  0  0  0  0
 25 24  1  0  0  0  0
 27 26  1  0  0  0  0
 27 29  1  0  0  0  0
 29 28  1  1  0  0  0
 30 32  1  0  0  0  0
 31 29  1  6  0  0  0
 31 30  1  0  0  0  0
 31 32  1  0  0  0  0
 33 27  1  0  0  0  0
 34 33  1  0  0  0  0
M  END
>  <MODEL>
6

>  <REMARK>
 VINA RESULT:      -6.4      2.291      7.701
  Name = 
  10 active torsions:
  status: ('A' for Active; 'I' for Inactive)
    1  A    between atoms: C_1  and  C_2
    2  A    between atoms: C_1  and  C_24
    3  A    between atoms: C_6  and  C_11
    4  A    between atoms: C_6  and  N_15
    5  A    between atoms: N_8  and  C_17
    6  A    between atoms: C_9  and  C_31
    7  A    between atoms: C_11  and  C_24
    8  A    between atoms: N_15  and  C_16
    9  A    between atoms: N_15  and  C_30
   10  A    between atoms: C_27  and  C_30
                            x       y       z     vdW  Elec       q    Type
                         _______ _______ _______ _____ _____    ______ ____

>  <TORSDO>
F 10

$$$$
=
 OpenBabel11042416103D

 34 37  0  0  1  0  0  0  0  0999 V2000
  189.1420  176.4100  143.7170 C   0  0  1  0  0  3  0  0  0  0  0  0
  189.9710  177.2990  147.0430 N   0  0  0  0  0  0  0  0  0  0  0  0
  188.6780  177.5670  146.8980 N   0  0  0  0  0  0  0  0  0  0  0  0
  187.8110  177.1260  143.5680 C   0  0  0  0  0  3  0  0  0  0  0  0
  187.3380  177.4210  144.7800 C   0  0  0  0  0  0  0  0  0  0  0  0
  188.2970  176.9530  145.7620 C   0  0  0  0  0  0  0  0  0  0  0  0
  190.3530  176.5870  145.9600 C   0  0  0  0  0  0  0  0  0  0  0  0
  189.3010  176.3330  145.1640 N   0  0  0  0  0  0  0  0  0  0  0  0
  192.5140  175.1130  146.2640 C   0  0  0  0  0  2  0  0  0  0  0  0
  196.2440  174.6200  145.1990 C   0  0  0  0  0  0  0  0  0  0  0  0
  191.7490  176.2360  145.6490 C   0  0  0  0  0  0  0  0  0  0  0  0
  193.8380  176.3050  144.7540 N   0  0  0  0  0  0  0  0  0  0  0  0
  194.9630  174.4730  145.8220 N   0  0  0  0  0  2  0  0  0  0  0  0
  197.3490  173.7020  145.5790 C   0  0  0  0  0  1  0  0  0  0  0  0
  193.8250  175.3060  145.5760 C   0  0  0  0  0  0  0  0  0  0  0  0
  192.5430  176.8780  144.8050 C   0  0  0  0  0  0  0  0  0  0  0  0
  192.1850  177.9630  144.0750 F   0  0  0  0  0  0  0  0  0  0  0  0
  196.4540  175.5230  144.3460 O   0  0  0  0  0  0  0  0  0  0  0  0
  186.1470  178.1820  145.0060 N   0  0  0  0  0  2  0  0  0  0  0  0
  183.9940  178.7080  146.0820 N   0  0  0  0  0  1  0  0  0  0  0  0
  185.0460  177.7840  145.8290 C   0  0  0  0  0  0  0  0  0  0  0  0
  184.9770  176.6210  146.3050 O   0  0  0  0  0  0  0  0  0  0  0  0
  189.1190  175.0180  143.0840 C   0  0  0  0  0  2  0  0  0  0  0  0
  189.3460  173.9060  144.0960 C   0  0  0  0  0  2  0  0  0  0  0  0
  190.3030  172.8860  143.5180 C   0  0  0  0  0  2  0  0  0  0  0  0
  189.6970  172.2900  142.2630 C   0  0  0  0  0  2  0  0  0  0  0  0
  190.7210  172.1470  141.2290 N   0  0  0  0  0  0  0  0  0  0  0  0
  190.1410  170.9870  139.0750 C   0  0  0  0  0  1  0  0  0  0  0  0
  190.1170  172.2770  139.8910 C   0  0  1  0  0  3  0  0  0  0  0  0
  188.7020  174.2290  139.4960 N   0  0  0  0  0  2  0  0  0  0  0  0
  188.7030  172.8380  139.9760 C   0  0  1  0  0  3  0  0  0  0  0  0
  188.2070  173.1410  138.6380 C   0  0  0  0  0  2  0  0  0  0  0  0
  191.8740  173.0430  141.4440 C   0  0  0  0  0  2  0  0  0  0  0  0
  192.3250  173.7900  140.1880 C   0  0  0  0  0  1  0  0  0  0  0  0
  1 23  1  1  0  0  0
  1  8  1  0  0  0  0
  3  2  1  0  0  0  0
  4  1  1  0  0  0  0
  4  5  2  0  0  0  0
  5 19  1  0  0  0  0
  5  6  1  0  0  0  0
  6  3  2  0  0  0  0
  7  2  2  0  0  0  0
  8  6  1  0  0  0  0
  8  7  1  0  0  0  0
 10 14  1  0  0  0  0
 10 13  1  0  0  0  0
 11  7  1  0  0  0  0
 11  9  1  0  0  0  0
 12 16  1  0  0  0  0
 12 15  2  0  0  0  0
 15 13  1  0  0  0  0
 15  9  1  0  0  0  0
 16 11  2  0  0  0  0
 17 16  1  0  0  0  0
 18 10  2  0  0  0  0
 19 21  1  0  0  0  0
 21 20  1  0  0  0  0
 21 22  2  0  0  0  0
 23 24  1  0  0  0  0
 25 24  1  0  0  0  0
 26 25  1  0  0  0  0
 27 33  1  0  0  0  0
 27 26  1  0  0  0  0
 29 28  1  1  0  0  0
 29 27  1  0  0  0  0
 30 31  1  0  0  0  0
 31 29  1  6  0  0  0
 32 30  1  0  0  0  0
 32 31  1  0  0  0  0
 34 33  1  0  0  0  0
M  END
>  <MODEL>
7

>  <REMARK>
 VINA RESULT:      -6.3      2.403      7.263
  Name = 
  10 active torsions:
  status: ('A' for Active; 'I' for Inactive)
    1  A    between atoms: C_1  and  C_2
    2  A    between atoms: C_1  and  C_24
    3  A    between atoms: C_6  and  C_11
    4  A    between atoms: C_6  and  N_15
    5  A    between atoms: N_8  and  C_17
    6  A    between atoms: C_9  and  C_31
    7  A    between atoms: C_11  and  C_24
    8  A    between atoms: N_15  and  C_16
    9  A    between atoms: N_15  and  C_30
   10  A    between atoms: C_27  and  C_30
                            x       y       z     vdW  Elec       q    Type
                         _______ _______ _______ _____ _____    ______ ____

>  <TORSDO>
F 10

$$$$
=
 OpenBabel11042416103D

 34 37  0  0  1  0  0  0  0  0999 V2000
  186.0150  177.3700  143.9100 C   0  0  1  0  0  3  0  0  0  0  0  0
  186.3010  177.5320  140.3840 N   0  0  0  0  0  0  0  0  0  0  0  0
  185.2420  178.2670  140.7050 N   0  0  0  0  0  0  0  0  0  0  0  0
  184.5950  177.8770  144.0910 C   0  0  0  0  0  3  0  0  0  0  0  0
  184.2170  178.5180  142.9830 C   0  0  0  0  0  0  0  0  0  0  0  0
  185.3140  178.4590  142.0360 C   0  0  0  0  0  0  0  0  0  0  0  0
  186.9480  177.2430  141.5340 C   0  0  0  0  0  0  0  0  0  0  0  0
  186.3560  177.8510  142.5770 N   0  0  0  0  0  0  0  0  0  0  0  0
  188.0180  174.8450  141.3470 C   0  0  0  0  0  2  0  0  0  0  0  0
  191.2630  172.7240  141.8590 C   0  0  0  0  0  0  0  0  0  0  0  0
  188.0800  176.3060  141.6380 C   0  0  0  0  0  0  0  0  0  0  0  0
  190.1540  175.4730  142.0510 N   0  0  0  0  0  0  0  0  0  0  0  0
  189.9250  173.1350  141.5600 N   0  0  0  0  0  2  0  0  0  0  0  0
  191.6280  171.2890  141.7440 C   0  0  0  0  0  1  0  0  0  0  0  0
  189.4300  174.4750  141.6620 C   0  0  0  0  0  0  0  0  0  0  0  0
  189.3060  176.6090  142.0330 C   0  0  0  0  0  0  0  0  0  0  0  0
  189.7220  177.8490  142.3930 F   0  0  0  0  0  0  0  0  0  0  0  0
  192.1320  173.5560  142.2330 O   0  0  0  0  0  0  0  0  0  0  0  0
  182.9010  179.0410  142.7760 N   0  0  0  0  0  2  0  0  0  0  0  0
  180.6360  179.0880  141.8080 N   0  0  0  0  0  1  0  0  0  0  0  0
  181.9630  178.5760  141.8010 C   0  0  0  0  0  0  0  0  0  0  0  0
  182.3020  177.7450  140.9170 O   0  0  0  0  0  0  0  0  0  0  0  0
  186.9650  177.9360  144.9660 C   0  0  0  0  0  2  0  0  0  0  0  0
  187.9970  176.9230  145.4360 C   0  0  0  0  0  2  0  0  0  0  0  0
  189.3330  177.6100  145.6170 C   0  0  0  0  0  2  0  0  0  0  0  0
  190.2600  176.7000  146.3970 C   0  0  0  0  0  2  0  0  0  0  0  0
  190.8460  175.6970  145.5090 N   0  0  0  0  0  0  0  0  0  0  0  0
  192.3760  177.1560  144.1480 C   0  0  0  0  0  1  0  0  0  0  0  0
  192.2420  176.0500  145.1910 C   0  0  1  0  0  3  0  0  0  0  0  0
  194.2380  175.5660  146.5140 N   0  0  0  0  0  2  0  0  0  0  0  0
  193.0240  176.3950  146.4520 C   0  0  1  0  0  3  0  0  0  0  0  0
  194.3140  176.9740  146.0930 C   0  0  0  0  0  2  0  0  0  0  0  0
  190.6880  174.3230  146.0220 C   0  0  0  0  0  2  0  0  0  0  0  0
  189.7760  173.4410  145.1680 C   0  0  0  0  0  1  0  0  0  0  0  0
  1  4  1  0  0  0  0
  1 23  1  1  0  0  0
  2  3  1  0  0  0  0
  2  7  2  0  0  0  0
  3  6  2  0  0  0  0
  5  4  2  0  0  0  0
  6  8  1  0  0  0  0
  6  5  1  0  0  0  0
  7 11  1  0  0  0  0
  7  8  1  0  0  0  0
  8  1  1  0  0  0  0
  9 11  1  0  0  0  0
  9 15  1  0  0  0  0
 10 18  2  0  0  0  0
 11 16  2  0  0  0  0
 13 15  1  0  0  0  0
 13 10  1  0  0  0  0
 14 10  1  0  0  0  0
 15 12  2  0  0  0  0
 16 12  1  0  0  0  0
 16 17  1  0  0  0  0
 19  5  1  0  0  0  0
 21 20  1  0  0  0  0
 21 19  1  0  0  0  0
 22 21  2  0  0  0  0
 23 24  1  0  0  0  0
 24 25  1  0  0  0  0
 25 26  1  0  0  0  0
 27 33  1  0  0  0  0
 27 26  1  0  0  0  0
 29 28  1  6  0  0  0
 29 27  1  0  0  0  0
 31 29  1  6  0  0  0
 31 30  1  0  0  0  0
 32 31  1  0  0  0  0
 32 30  1  0  0  0  0
 34 33  1  0  0  0  0
M  END
>  <MODEL>
8

>  <REMARK>
 VINA RESULT:      -6.3      2.617      8.842
  Name = 
  10 active torsions:
  status: ('A' for Active; 'I' for Inactive)
    1  A    between atoms: C_1  and  C_2
    2  A    between atoms: C_1  and  C_24
    3  A    between atoms: C_6  and  C_11
    4  A    between atoms: C_6  and  N_15
    5  A    between atoms: N_8  and  C_17
    6  A    between atoms: C_9  and  C_31
    7  A    between atoms: C_11  and  C_24
    8  A    between atoms: N_15  and  C_16
    9  A    between atoms: N_15  and  C_30
   10  A    between atoms: C_27  and  C_30
                            x       y       z     vdW  Elec       q    Type
                         _______ _______ _______ _____ _____    ______ ____

>  <TORSDO>
F 10

$$$$
=
 OpenBabel11042416103D

 34 37  0  0  1  0  0  0  0  0999 V2000
  189.3480  176.1940  145.5370 C   0  0  1  0  0  3  0  0  0  0  0  0
  187.8840  174.9370  142.5670 N   0  0  0  0  0  0  0  0  0  0  0  0
  187.2170  176.0450  142.8700 N   0  0  0  0  0  0  0  0  0  0  0  0
  188.2730  177.1730  145.9760 C   0  0  0  0  0  3  0  0  0  0  0  0
  187.4820  177.4460  144.9370 C   0  0  0  0  0  0  0  0  0  0  0  0
  187.9560  176.6800  143.8000 C   0  0  0  0  0  0  0  0  0  0  0  0
  188.9720  174.8960  143.3680 C   0  0  0  0  0  0  0  0  0  0  0  0
  189.0470  176.0060  144.1230 N   0  0  0  0  0  0  0  0  0  0  0  0
  190.7990  173.2710  142.3920 C   0  0  0  0  0  2  0  0  0  0  0  0
  192.9750  170.0970  143.0810 C   0  0  0  0  0  0  0  0  0  0  0  0
  189.8850  173.7450  143.4700 C   0  0  0  0  0  0  0  0  0  0  0  0
  190.9520  171.9100  144.2820 N   0  0  0  0  0  0  0  0  0  0  0  0
  192.3740  171.2410  142.4680 N   0  0  0  0  0  2  0  0  0  0  0  0
  193.9440  169.2790  142.3070 C   0  0  0  0  0  1  0  0  0  0  0  0
  191.4020  172.0940  143.0840 C   0  0  0  0  0  0  0  0  0  0  0  0
  190.0080  172.9410  144.5150 C   0  0  0  0  0  0  0  0  0  0  0  0
  189.3160  173.0640  145.6750 F   0  0  0  0  0  0  0  0  0  0  0  0
  192.6860  169.7620  144.2610 O   0  0  0  0  0  0  0  0  0  0  0  0
  186.3080  178.2600  145.0220 N   0  0  0  0  0  2  0  0  0  0  0  0
  184.0850  178.9050  145.8660 N   0  0  0  0  0  1  0  0  0  0  0  0
  185.1170  177.9330  145.7440 C   0  0  0  0  0  0  0  0  0  0  0  0
  184.9530  176.7900  146.2450 O   0  0  0  0  0  0  0  0  0  0  0  0
  190.7550  176.7600  145.7350 C   0  0  0  0  0  2  0  0  0  0  0  0
  191.3930  176.3110  147.0400 C   0  0  0  0  0  2  0  0  0  0  0  0
  192.4900  175.3100  146.7470 C   0  0  0  0  0  2  0  0  0  0  0  0
  193.2910  175.7850  145.5510 C   0  0  0  0  0  2  0  0  0  0  0  0
  193.5920  174.6590  144.6670 N   0  0  0  0  0  0  0  0  0  0  0  0
  193.6230  175.6240  142.3460 C   0  0  0  0  0  1  0  0  0  0  0  0
  194.4250  175.1070  143.5370 C   0  0  1  0  0  3  0  0  0  0  0  0
  196.8020  175.5490  143.8880 N   0  0  0  0  0  2  0  0  0  0  0  0
  195.4560  176.1350  143.9850 C   0  0  1  0  0  3  0  0  0  0  0  0
  196.3210  176.4910  142.8660 C   0  0  0  0  0  2  0  0  0  0  0  0
  194.1530  173.5030  145.3920 C   0  0  0  0  0  2  0  0  0  0  0  0
  195.0160  172.5850  144.5260 C   0  0  0  0  0  1  0  0  0  0  0  0
  1 23  1  6  0  0  0
  1  4  1  0  0  0  0
  2  3  1  0  0  0  0
  2  7  2  0  0  0  0
  3  6  2  0  0  0  0
  5 19  1  0  0  0  0
  5  4  2  0  0  0  0
  6  8  1  0  0  0  0
  6  5  1  0  0  0  0
  7 11  1  0  0  0  0
  7  8  1  0  0  0  0
  8  1  1  0  0  0  0
  9 15  1  0  0  0  0
  9 11  1  0  0  0  0
 10 18  2  0  0  0  0
 11 16  2  0  0  0  0
 12 16  1  0  0  0  0
 13 10  1  0  0  0  0
 13 15  1  0  0  0  0
 14 10  1  0  0  0  0
 15 12  2  0  0  0  0
 16 17  1  0  0  0  0
 19 21  1  0  0  0  0
 21 20  1  0  0  0  0
 21 22  2  0  0  0  0
 23 24  1  0  0  0  0
 25 24  1  0  0  0  0
 26 25  1  0  0  0  0
 27 33  1  0  0  0  0
 27 26  1  0  0  0  0
 29 28  1  6  0  0  0
 29 27  1  0  0  0  0
 30 31  1  0  0  0  0
 31 29  1  6  0  0  0
 32 30  1  0  0  0  0
 32 31  1  0  0  0  0
 34 33  1  0  0  0  0
M  END
>  <MODEL>
9

>  <REMARK>
 VINA RESULT:      -6.3      2.496      8.202
  Name = 
  10 active torsions:
  status: ('A' for Active; 'I' for Inactive)
    1  A    between atoms: C_1  and  C_2
    2  A    between atoms: C_1  and  C_24
    3  A    between atoms: C_6  and  C_11
    4  A    between atoms: C_6  and  N_15
    5  A    between atoms: N_8  and  C_17
    6  A    between atoms: C_9  and  C_31
    7  A    between atoms: C_11  and  C_24
    8  A    between atoms: N_15  and  C_16
    9  A    between atoms: N_15  and  C_30
   10  A    between atoms: C_27  and  C_30
                            x       y       z     vdW  Elec       q    Type
                         _______ _______ _______ _____ _____    ______ ____

>  <TORSDO>
F 10

$$$$
