=
 OpenBabel11042413443D

 30 36  0  0  1  0  0  0  0  0999 V2000
  184.1820  178.6650  146.1260 C   0  0  0  0  0  3  0  0  0  0  0  0
  187.5460  176.8510  144.2880 C   0  0  0  0  0  0  0  0  0  0  0  0
  186.3810  177.7110  142.3690 C   0  0  0  0  0  0  0  0  0  0  0  0
  188.4980  174.9080  141.3140 C   0  0  0  0  0  0  0  0  0  0  0  0
  185.3200  177.9590  146.8890 C   0  0  0  0  0  3  0  0  0  0  0  0
  187.3360  176.7920  145.7590 C   0  0  1  0  0  3  0  0  0  0  0  0
  189.7250  174.0850  143.2030 N   0  0  0  0  0  0  0  0  0  0  0  0
  189.2320  175.0550  144.0220 C   0  0  0  0  0  0  0  0  0  0  0  0
  188.2590  175.9470  143.5020 C   0  0  0  0  0  0  0  0  0  0  0  0
  184.6790  178.9660  144.7050 C   0  0  0  0  0  2  0  0  0  0  0  0
  186.6490  177.7370  143.7390 C   0  0  0  0  0  0  0  0  0  0  0  0
  188.6130  176.9570  146.4950 C   0  0  0  0  0  3  0  0  0  0  0  0
  189.3810  173.9770  141.8930 C   0  0  0  0  0  0  0  0  0  0  0  0
  189.6020  172.8880  139.7560 C   0  0  0  0  0  3  0  0  0  0  0  0
  189.9370  172.9650  141.1090 C   0  0  0  0  0  3  0  0  0  0  0  0
  185.5490  178.4990  141.8470 O   0  0  0  0  0  0  0  0  0  0  0  0
  188.1920  174.7900  139.9520 C   0  0  0  0  0  3  0  0  0  0  0  0
  186.4480  177.9280  145.9790 N   0  0  0  0  0  0  0  0  0  0  0  0
  188.7460  173.7940  139.2090 N   0  0  0  0  0  0  0  0  0  0  0  0
  187.0240  176.7890  141.5980 N   0  0  0  0  0  2  0  0  0  0  0  0
  189.6990  176.2020  146.2940 C   0  0  0  0  0  0  0  0  0  0  0  0
  189.8230  175.1700  145.2260 C   0  0  0  0  0  2  0  0  0  0  0  0
  187.9300  175.9020  142.1200 C   0  0  0  0  0  0  0  0  0  0  0  0
  186.0320  178.3810  144.7160 C   0  0  2  0  0  3  0  0  0  0  0  0
  190.8160  177.2730  148.1060 O   0  0  0  0  0  0  0  0  0  0  0  0
  190.8580  176.4020  147.1940 C   0  0  0  0  0  0  0  0  0  0  0  0
  192.0910  175.5670  147.0630 C   0  0  0  0  0  2  0  0  0  0  0  0
  193.0120  176.7820  145.2810 O   0  0  0  0  0  0  0  0  0  0  0  0
  193.2470  176.4160  146.5680 C   0  0  2  0  0  3  0  0  0  0  0  0
  193.9120  175.7470  145.4790 N   0  0  0  0  0  2  0  0  0  0  0  0
  1  5  2  0  0  0  0
  2  6  1  0  0  0  0
  3 11  1  0  0  0  0
  4 13  1  0  0  0  0
  4 23  2  0  0  0  0
  6 18  1  0  0  0  0
  6 12  1  1  0  0  0
  7  8  1  0  0  0  0
  8 22  1  0  0  0  0
  9  8  2  0  0  0  0
  9  2  1  0  0  0  0
 10  1  1  0  0  0  0
 11  2  2  0  0  0  0
 11 24  1  0  0  0  0
 13  7  2  0  0  0  0
 14 15  2  0  0  0  0
 15 13  1  0  0  0  0
 16  3  2  0  0  0  0
 17  4  1  0  0  0  0
 18  5  1  0  0  0  0
 19 14  1  0  0  0  0
 19 17  2  0  0  0  0
 20 23  1  0  0  0  0
 20  3  1  0  0  0  0
 21 12  2  0  0  0  0
 21 26  1  0  0  0  0
 22 21  1  0  0  0  0
 23  9  1  0  0  0  0
 24 10  1  6  0  0  0
 24 18  1  0  0  0  0
 26 25  2  0  0  0  0
 27 26  1  0  0  0  0
 28 30  1  0  0  0  0
 28 29  1  0  0  0  0
 29 27  1  6  0  0  0
 30 29  1  0  0  0  0
M  END
>  <MODEL>
1

>  <REMARK>
 VINA RESULT:      -8.5      0.000      0.000
  Name = 
  3 active torsions:
  status: ('A' for Active; 'I' for Inactive)
    1  A    between atoms: C_7  and  C_13
    2  A    between atoms: C_7  and  C_23
    3  A    between atoms: C_23  and  C_26
                            x       y       z     vdW  Elec       q    Type
                         _______ _______ _______ _____ _____    ______ ____

>  <TORSDO>
F 3

$$$$
=
 OpenBabel11042413443D

 30 36  0  0  1  0  0  0  0  0999 V2000
  183.9610  179.0130  144.0420 C   0  0  0  0  0  3  0  0  0  0  0  0
  187.5730  176.8030  144.2800 C   0  0  0  0  0  0  0  0  0  0  0  0
  187.0850  177.1390  146.6100 C   0  0  0  0  0  0  0  0  0  0  0  0
  190.6890  176.5880  146.2210 C   0  0  0  0  0  0  0  0  0  0  0  0
  184.7430  178.4820  142.8240 C   0  0  0  0  0  3  0  0  0  0  0  0
  186.9840  177.1940  142.9720 C   0  0  1  0  0  3  0  0  0  0  0  0
  191.1840  176.1760  143.9110 N   0  0  0  0  0  0  0  0  0  0  0  0
  189.8700  176.2170  143.5600 C   0  0  0  0  0  0  0  0  0  0  0  0
  188.9140  176.5450  144.5560 C   0  0  0  0  0  0  0  0  0  0  0  0
  184.4550  178.2630  145.2860 C   0  0  0  0  0  2  0  0  0  0  0  0
  186.6650  177.0650  145.2810 C   0  0  0  0  0  0  0  0  0  0  0  0
  187.1150  176.1050  141.9730 C   0  0  0  0  0  3  0  0  0  0  0  0
  191.6160  176.3650  145.1850 C   0  0  0  0  0  0  0  0  0  0  0  0
  193.4050  176.4540  146.7960 C   0  0  0  0  0  3  0  0  0  0  0  0
  192.9800  176.2950  145.4760 C   0  0  0  0  0  3  0  0  0  0  0  0
  186.2750  177.3980  147.5400 O   0  0  0  0  0  0  0  0  0  0  0  0
  191.1640  176.7420  147.5300 C   0  0  0  0  0  3  0  0  0  0  0  0
  185.5860  177.4170  143.3290 N   0  0  0  0  0  0  0  0  0  0  0  0
  192.4990  176.6710  147.7870 N   0  0  0  0  0  0  0  0  0  0  0  0
  188.4060  176.9520  146.8870 N   0  0  0  0  0  2  0  0  0  0  0  0
  188.2740  175.5240  141.6430 C   0  0  0  0  0  0  0  0  0  0  0  0
  189.5760  175.8010  142.3130 C   0  0  0  0  0  2  0  0  0  0  0  0
  189.3270  176.6800  145.9090 C   0  0  0  0  0  0  0  0  0  0  0  0
  185.5080  177.3930  144.7310 C   0  0  2  0  0  3  0  0  0  0  0  0
  188.0270  174.9100  139.3540 O   0  0  0  0  0  0  0  0  0  0  0  0
  188.2660  174.5400  140.5360 C   0  0  0  0  0  0  0  0  0  0  0  0
  188.5610  173.0960  140.7860 C   0  0  0  0  0  2  0  0  0  0  0  0
  189.6870  171.6220  139.3510 O   0  0  0  0  0  0  0  0  0  0  0  0
  189.8790  172.7120  140.1390 C   0  0  2  0  0  3  0  0  0  0  0  0
  190.2790  171.4030  140.5850 N   0  0  0  0  0  2  0  0  0  0  0  0
  1 10  1  0  0  0  0
  2  9  1  0  0  0  0
  2 11  2  0  0  0  0
  3 20  1  0  0  0  0
  3 16  2  0  0  0  0
  4 17  1  0  0  0  0
  5 18  1  0  0  0  0
  5  1  2  0  0  0  0
  6 12  1  6  0  0  0
  6 18  1  0  0  0  0
  6  2  1  0  0  0  0
  7 13  1  0  0  0  0
  8  7  2  0  0  0  0
  8  9  1  0  0  0  0
  9 23  2  0  0  0  0
 11  3  1  0  0  0  0
 13 15  1  0  0  0  0
 13  4  2  0  0  0  0
 14 19  1  0  0  0  0
 15 14  2  0  0  0  0
 17 19  2  0  0  0  0
 18 24  1  0  0  0  0
 21 12  2  0  0  0  0
 21 22  1  0  0  0  0
 22  8  1  0  0  0  0
 23  4  1  0  0  0  0
 23 20  1  0  0  0  0
 24 11  1  0  0  0  0
 24 10  1  1  0  0  0
 25 26  2  0  0  0  0
 26 27  1  0  0  0  0
 26 21  1  0  0  0  0
 28 29  1  0  0  0  0
 28 30  1  0  0  0  0
 29 30  1  0  0  0  0
 29 27  1  1  0  0  0
M  END
>  <MODEL>
2

>  <REMARK>
 VINA RESULT:      -7.9      2.452      5.606
  Name = 
  3 active torsions:
  status: ('A' for Active; 'I' for Inactive)
    1  A    between atoms: C_7  and  C_13
    2  A    between atoms: C_7  and  C_23
    3  A    between atoms: C_23  and  C_26
                            x       y       z     vdW  Elec       q    Type
                         _______ _______ _______ _____ _____    ______ ____

>  <TORSDO>
F 3

$$$$
=
 OpenBabel11042413443D

 30 36  0  0  1  0  0  0  0  0999 V2000
  184.0550  178.7290  144.0010 C   0  0  0  0  0  3  0  0  0  0  0  0
  187.6780  176.5460  144.3190 C   0  0  0  0  0  0  0  0  0  0  0  0
  187.2660  177.0920  146.6230 C   0  0  0  0  0  0  0  0  0  0  0  0
  190.8570  176.5050  146.1670 C   0  0  0  0  0  0  0  0  0  0  0  0
  184.7980  178.0890  142.8110 C   0  0  0  0  0  3  0  0  0  0  0  0
  187.0450  176.8180  143.0010 C   0  0  1  0  0  3  0  0  0  0  0  0
  191.2760  175.8850  143.8890 N   0  0  0  0  0  0  0  0  0  0  0  0
  189.9510  175.8960  143.5790 C   0  0  0  0  0  0  0  0  0  0  0  0
  189.0280  176.3130  144.5720 C   0  0  0  0  0  0  0  0  0  0  0  0
  184.5910  178.0930  145.2910 C   0  0  0  0  0  2  0  0  0  0  0  0
  186.8030  176.8980  145.3210 C   0  0  0  0  0  0  0  0  0  0  0  0
  187.1460  175.6440  142.1000 C   0  0  0  0  0  3  0  0  0  0  0  0
  191.7500  176.1880  145.1250 C   0  0  0  0  0  0  0  0  0  0  0  0
  193.5900  176.4210  146.6620 C   0  0  0  0  0  3  0  0  0  0  0  0
  193.1220  176.1440  145.3760 C   0  0  0  0  0  3  0  0  0  0  0  0
  186.4860  177.4340  147.5520 O   0  0  0  0  0  0  0  0  0  0  0  0
  191.3740  176.7760  147.4410 C   0  0  0  0  0  3  0  0  0  0  0  0
  185.6600  177.0740  143.3820 N   0  0  0  0  0  0  0  0  0  0  0  0
  192.7170  176.7280  147.6580 N   0  0  0  0  0  0  0  0  0  0  0  0
  188.5950  176.9300  146.8730 N   0  0  0  0  0  2  0  0  0  0  0  0
  188.2950  175.0340  141.7860 C   0  0  0  0  0  0  0  0  0  0  0  0
  189.6180  175.3690  142.3850 C   0  0  0  0  0  2  0  0  0  0  0  0
  189.4840  176.5690  145.8930 C   0  0  0  0  0  0  0  0  0  0  0  0
  185.6270  177.1770  144.7820 C   0  0  2  0  0  3  0  0  0  0  0  0
  187.9700  172.7720  141.1130 O   0  0  0  0  0  0  0  0  0  0  0  0
  188.2520  173.9540  140.7730 C   0  0  0  0  0  0  0  0  0  0  0  0
  188.5160  174.2380  139.3300 C   0  0  0  0  0  2  0  0  0  0  0  0
  190.7580  173.6050  139.0700 O   0  0  0  0  0  0  0  0  0  0  0  0
  189.4910  173.2220  138.7660 C   0  0  2  0  0  3  0  0  0  0  0  0
  190.3290  173.8470  137.7750 N   0  0  0  0  0  2  0  0  0  0  0  0
  1 10  1  0  0  0  0
  2  9  1  0  0  0  0
  2 11  2  0  0  0  0
  3 20  1  0  0  0  0
  3 16  2  0  0  0  0
  4 17  1  0  0  0  0
  5 18  1  0  0  0  0
  5  1  2  0  0  0  0
  6 12  1  6  0  0  0
  6 18  1  0  0  0  0
  6  2  1  0  0  0  0
  7 13  1  0  0  0  0
  8  7  2  0  0  0  0
  8  9  1  0  0  0  0
  9 23  2  0  0  0  0
 11  3  1  0  0  0  0
 13 15  1  0  0  0  0
 13  4  2  0  0  0  0
 14 19  1  0  0  0  0
 15 14  2  0  0  0  0
 17 19  2  0  0  0  0
 18 24  1  0  0  0  0
 21 12  2  0  0  0  0
 21 22  1  0  0  0  0
 22  8  1  0  0  0  0
 23  4  1  0  0  0  0
 23 20  1  0  0  0  0
 24 10  1  6  0  0  0
 24 11  1  0  0  0  0
 26 25  2  0  0  0  0
 26 21  1  0  0  0  0
 27 26  1  0  0  0  0
 29 28  1  0  0  0  0
 29 27  1  1  0  0  0
 30 29  1  0  0  0  0
 30 28  1  0  0  0  0
M  END
>  <MODEL>
3

>  <REMARK>
 VINA RESULT:      -7.9      2.369      5.664
  Name = 
  3 active torsions:
  status: ('A' for Active; 'I' for Inactive)
    1  A    between atoms: C_7  and  C_13
    2  A    between atoms: C_7  and  C_23
    3  A    between atoms: C_23  and  C_26
                            x       y       z     vdW  Elec       q    Type
                         _______ _______ _______ _____ _____    ______ ____

>  <TORSDO>
F 3

$$$$
=
 OpenBabel11042413443D

 30 36  0  0  1  0  0  0  0  0999 V2000
  185.9960  178.3670  146.2000 C   0  0  0  0  0  3  0  0  0  0  0  0
  188.5900  176.2010  143.6370 C   0  0  0  0  0  0  0  0  0  0  0  0
  187.2590  177.4030  142.0360 C   0  0  0  0  0  0  0  0  0  0  0  0
  188.6180  174.3980  140.4310 C   0  0  0  0  0  0  0  0  0  0  0  0
  187.1140  177.4210  146.6830 C   0  0  0  0  0  3  0  0  0  0  0  0
  188.6490  176.0480  145.1150 C   0  0  1  0  0  3  0  0  0  0  0  0
  190.0110  173.2260  141.9930 N   0  0  0  0  0  0  0  0  0  0  0  0
  189.8550  174.1860  142.9450 C   0  0  0  0  0  0  0  0  0  0  0  0
  188.9750  175.2660  142.6780 C   0  0  0  0  0  0  0  0  0  0  0  0
  186.2660  178.7060  144.7270 C   0  0  0  0  0  2  0  0  0  0  0  0
  187.7760  177.2650  143.3250 C   0  0  0  0  0  0  0  0  0  0  0  0
  190.0490  175.9390  145.5920 C   0  0  0  0  0  3  0  0  0  0  0  0
  189.4160  173.2890  140.7730 C   0  0  0  0  0  0  0  0  0  0  0  0
  189.0430  172.3720  138.5770 C   0  0  0  0  0  3  0  0  0  0  0  0
  189.6310  172.2740  139.8400 C   0  0  0  0  0  3  0  0  0  0  0  0
  186.4960  178.3580  141.7330 O   0  0  0  0  0  0  0  0  0  0  0  0
  188.0500  174.4520  139.1520 C   0  0  0  0  0  3  0  0  0  0  0  0
  188.0300  177.2890  145.5680 N   0  0  0  0  0  0  0  0  0  0  0  0
  188.2730  173.4480  138.2610 N   0  0  0  0  0  0  0  0  0  0  0  0
  187.5760  176.4600  141.1040 N   0  0  0  0  0  2  0  0  0  0  0  0
  190.9290  175.0390  145.1400 C   0  0  0  0  0  0  0  0  0  0  0  0
  190.6700  174.0980  144.0130 C   0  0  0  0  0  2  0  0  0  0  0  0
  188.3930  175.3970  141.3870 C   0  0  0  0  0  0  0  0  0  0  0  0
  187.4740  177.9120  144.4390 C   0  0  2  0  0  3  0  0  0  0  0  0
  192.8760  173.8760  145.8700 O   0  0  0  0  0  0  0  0  0  0  0  0
  192.2520  174.9700  145.8030 C   0  0  0  0  0  0  0  0  0  0  0  0
  192.8880  176.1900  146.3850 C   0  0  0  0  0  2  0  0  0  0  0  0
  194.9860  176.4320  145.3660 O   0  0  0  0  0  0  0  0  0  0  0  0
  193.7120  176.9050  145.3310 C   0  0  2  0  0  3  0  0  0  0  0  0
  194.7610  177.6630  145.9630 N   0  0  0  0  0  2  0  0  0  0  0  0
  1  5  2  0  0  0  0
  2  6  1  0  0  0  0
  3 11  1  0  0  0  0
  4 13  1  0  0  0  0
  4 23  2  0  0  0  0
  6 18  1  0  0  0  0
  6 12  1  1  0  0  0
  7  8  1  0  0  0  0
  8 22  1  0  0  0  0
  9  8  2  0  0  0  0
  9  2  1  0  0  0  0
 10  1  1  0  0  0  0
 11  2  2  0  0  0  0
 11 24  1  0  0  0  0
 13  7  2  0  0  0  0
 14 15  2  0  0  0  0
 15 13  1  0  0  0  0
 16  3  2  0  0  0  0
 17  4  1  0  0  0  0
 18  5  1  0  0  0  0
 19 14  1  0  0  0  0
 19 17  2  0  0  0  0
 20 23  1  0  0  0  0
 20  3  1  0  0  0  0
 21 12  2  0  0  0  0
 21 26  1  0  0  0  0
 22 21  1  0  0  0  0
 23  9  1  0  0  0  0
 24 10  1  1  0  0  0
 24 18  1  0  0  0  0
 26 25  2  0  0  0  0
 26 27  1  0  0  0  0
 28 30  1  0  0  0  0
 29 28  1  0  0  0  0
 29 30  1  0  0  0  0
 29 27  1  1  0  0  0
M  END
>  <MODEL>
4

>  <REMARK>
 VINA RESULT:      -7.9      1.469      1.735
  Name = 
  3 active torsions:
  status: ('A' for Active; 'I' for Inactive)
    1  A    between atoms: C_7  and  C_13
    2  A    between atoms: C_7  and  C_23
    3  A    between atoms: C_23  and  C_26
                            x       y       z     vdW  Elec       q    Type
                         _______ _______ _______ _____ _____    ______ ____

>  <TORSDO>
F 3

$$$$
=
 OpenBabel11042413443D

 30 36  0  0  1  0  0  0  0  0999 V2000
  191.1710  176.3150  147.4870 C   0  0  0  0  0  3  0  0  0  0  0  0
  188.8070  175.5990  144.0380 C   0  0  0  0  0  0  0  0  0  0  0  0
  189.7100  173.4080  144.4410 C   0  0  0  0  0  0  0  0  0  0  0  0
  188.8110  173.6880  140.8970 C   0  0  0  0  0  0  0  0  0  0  0  0
  190.3140  177.3820  146.7770 C   0  0  0  0  0  3  0  0  0  0  0  0
  188.9280  176.9580  144.6320 C   0  0  1  0  0  3  0  0  0  0  0  0
  187.8390  175.8430  140.4920 N   0  0  0  0  0  0  0  0  0  0  0  0
  187.8980  176.1830  141.8090 C   0  0  0  0  0  0  0  0  0  0  0  0
  188.5180  175.2830  142.7130 C   0  0  0  0  0  0  0  0  0  0  0  0
  190.6930  174.9340  147.0160 C   0  0  0  0  0  2  0  0  0  0  0  0
  189.3620  174.6800  144.8990 C   0  0  0  0  0  0  0  0  0  0  0  0
  187.6320  177.6770  144.6050 C   0  0  0  0  0  3  0  0  0  0  0  0
  188.2840  174.6520  140.0150 C   0  0  0  0  0  0  0  0  0  0  0  0
  188.6070  173.1210  138.1830 C   0  0  0  0  0  3  0  0  0  0  0  0
  188.1800  174.3640  138.6540 C   0  0  0  0  0  3  0  0  0  0  0  0
  190.2370  172.5570  145.2060 O   0  0  0  0  0  0  0  0  0  0  0  0
  189.2270  172.4550  140.3780 C   0  0  0  0  0  3  0  0  0  0  0  0
  189.3340  176.6500  146.0000 N   0  0  0  0  0  0  0  0  0  0  0  0
  189.1160  172.2000  139.0460 N   0  0  0  0  0  0  0  0  0  0  0  0
  189.4920  173.1060  143.1300 N   0  0  0  0  0  2  0  0  0  0  0  0
  186.9030  177.8720  143.5000 C   0  0  0  0  0  0  0  0  0  0  0  0
  187.2280  177.2960  142.1640 C   0  0  0  0  0  2  0  0  0  0  0  0
  188.9310  174.0010  142.2570 C   0  0  0  0  0  0  0  0  0  0  0  0
  189.6410  175.2810  146.0440 C   0  0  2  0  0  3  0  0  0  0  0  0
  184.9630  178.9220  142.5990 O   0  0  0  0  0  0  0  0  0  0  0  0
  185.6930  178.7190  143.6080 C   0  0  0  0  0  0  0  0  0  0  0  0
  185.2940  179.3330  144.9110 C   0  0  0  0  0  2  0  0  0  0  0  0
  184.0810  178.7700  146.8370 O   0  0  0  0  0  0  0  0  0  0  0  0
  184.0970  178.6020  145.4890 C   0  0  2  0  0  3  0  0  0  0  0  0
  184.5430  177.5520  146.3670 N   0  0  0  0  0  2  0  0  0  0  0  0
  2  6  1  0  0  0  0
  2 11  2  0  0  0  0
  3 11  1  0  0  0  0
  3 16  2  0  0  0  0
  4 23  2  0  0  0  0
  5  1  2  0  0  0  0
  6 12  1  1  0  0  0
  6 18  1  0  0  0  0
  7  8  1  0  0  0  0
  8 22  1  0  0  0  0
  8  9  2  0  0  0  0
  9  2  1  0  0  0  0
 10  1  1  0  0  0  0
 11 24  1  0  0  0  0
 13  7  2  0  0  0  0
 13  4  1  0  0  0  0
 14 15  2  0  0  0  0
 14 19  1  0  0  0  0
 15 13  1  0  0  0  0
 17  4  1  0  0  0  0
 18 24  1  0  0  0  0
 18  5  1  0  0  0  0
 19 17  2  0  0  0  0
 20  3  1  0  0  0  0
 21 26  1  0  0  0  0
 21 12  2  0  0  0  0
 22 21  1  0  0  0  0
 23  9  1  0  0  0  0
 23 20  1  0  0  0  0
 24 10  1  6  0  0  0
 25 26  2  0  0  0  0
 26 27  1  0  0  0  0
 29 27  1  6  0  0  0
 29 30  1  0  0  0  0
 29 28  1  0  0  0  0
 30 28  1  0  0  0  0
M  END
>  <MODEL>
5

>  <REMARK>
 VINA RESULT:      -7.8      1.979      5.388
  Name = 
  3 active torsions:
  status: ('A' for Active; 'I' for Inactive)
    1  A    between atoms: C_7  and  C_13
    2  A    between atoms: C_7  and  C_23
    3  A    between atoms: C_23  and  C_26
                            x       y       z     vdW  Elec       q    Type
                         _______ _______ _______ _____ _____    ______ ____

>  <TORSDO>
F 3

$$$$
=
 OpenBabel11042413443D

 30 36  0  0  1  0  0  0  0  0999 V2000
  185.4240  179.4710  143.8900 C   0  0  0  0  0  3  0  0  0  0  0  0
  188.6430  176.7120  144.0110 C   0  0  0  0  0  0  0  0  0  0  0  0
  188.5470  177.4090  146.3100 C   0  0  0  0  0  0  0  0  0  0  0  0
  191.9300  176.1970  145.5770 C   0  0  0  0  0  0  0  0  0  0  0  0
  185.9330  178.6670  142.6770 C   0  0  0  0  0  3  0  0  0  0  0  0
  187.9420  177.0360  142.7400 C   0  0  1  0  0  3  0  0  0  0  0  0
  192.0220  175.4260  143.3080 N   0  0  0  0  0  0  0  0  0  0  0  0
  190.6940  175.6520  143.1140 C   0  0  0  0  0  0  0  0  0  0  0  0
  189.9520  176.2590  144.1590 C   0  0  0  0  0  0  0  0  0  0  0  0
  185.9650  178.8030  145.1610 C   0  0  0  0  0  2  0  0  0  0  0  0
  187.9380  177.2470  145.0650 C   0  0  0  0  0  0  0  0  0  0  0  0
  187.7590  175.8280  141.9000 C   0  0  0  0  0  3  0  0  0  0  0  0
  192.6550  175.6900  144.4810 C   0  0  0  0  0  0  0  0  0  0  0  0
  194.6450  175.6630  145.8370 C   0  0  0  0  0  3  0  0  0  0  0  0
  194.0170  175.4210  144.6150 C   0  0  0  0  0  3  0  0  0  0  0  0
  187.9280  177.9160  147.2830 O   0  0  0  0  0  0  0  0  0  0  0  0
  192.6030  176.4240  146.7850 C   0  0  0  0  0  3  0  0  0  0  0  0
  186.6620  177.5410  143.2260 N   0  0  0  0  0  0  0  0  0  0  0  0
  193.9330  176.1540  146.8880 N   0  0  0  0  0  0  0  0  0  0  0  0
  189.8490  177.0310  146.4520 N   0  0  0  0  0  2  0  0  0  0  0  0
  188.7550  175.0190  141.5210 C   0  0  0  0  0  0  0  0  0  0  0  0
  190.1660  175.1440  141.9840 C   0  0  0  0  0  2  0  0  0  0  0  0
  190.5680  176.4850  145.4200 C   0  0  0  0  0  0  0  0  0  0  0  0
  186.7800  177.7030  144.6160 C   0  0  2  0  0  3  0  0  0  0  0  0
  188.1790  172.7650  141.0050 O   0  0  0  0  0  0  0  0  0  0  0  0
  188.4360  173.9230  140.5760 C   0  0  0  0  0  0  0  0  0  0  0  0
  188.3870  174.1650  139.1020 C   0  0  0  0  0  2  0  0  0  0  0  0
  189.8270  174.1660  137.2520 O   0  0  0  0  0  0  0  0  0  0  0  0
  189.5880  173.5290  138.4270 C   0  0  2  0  0  3  0  0  0  0  0  0
  189.1880  172.9390  137.1760 N   0  0  0  0  0  2  0  0  0  0  0  0
  1 10  1  0  0  0  0
  2  9  1  0  0  0  0
  2 11  2  0  0  0  0
  3 20  1  0  0  0  0
  3 16  2  0  0  0  0
  4 17  1  0  0  0  0
  5 18  1  0  0  0  0
  5  1  2  0  0  0  0
  6 12  1  6  0  0  0
  6 18  1  0  0  0  0
  6  2  1  0  0  0  0
  7 13  1  0  0  0  0
  8  7  2  0  0  0  0
  8  9  1  0  0  0  0
  9 23  2  0  0  0  0
 11  3  1  0  0  0  0
 13 15  1  0  0  0  0
 13  4  2  0  0  0  0
 14 19  1  0  0  0  0
 15 14  2  0  0  0  0
 17 19  2  0  0  0  0
 18 24  1  0  0  0  0
 21 12  2  0  0  0  0
 21 22  1  0  0  0  0
 22  8  1  0  0  0  0
 23  4  1  0  0  0  0
 23 20  1  0  0  0  0
 24 11  1  0  0  0  0
 24 10  1  6  0  0  0
 26 25  2  0  0  0  0
 26 21  1  0  0  0  0
 27 26  1  0  0  0  0
 28 29  1  0  0  0  0
 29 27  1  1  0  0  0
 30 28  1  0  0  0  0
 30 29  1  0  0  0  0
M  END
>  <MODEL>
6

>  <REMARK>
 VINA RESULT:      -7.6      2.425      5.853
  Name = 
  3 active torsions:
  status: ('A' for Active; 'I' for Inactive)
    1  A    between atoms: C_7  and  C_13
    2  A    between atoms: C_7  and  C_23
    3  A    between atoms: C_23  and  C_26
                            x       y       z     vdW  Elec       q    Type
                         _______ _______ _______ _____ _____    ______ ____

>  <TORSDO>
F 3

$$$$
=
 OpenBabel11042413443D

 30 36  0  0  1  0  0  0  0  0999 V2000
  185.2310  178.0740  147.4050 C   0  0  0  0  0  3  0  0  0  0  0  0
  187.4490  176.9050  143.9850 C   0  0  0  0  0  0  0  0  0  0  0  0
  186.1980  178.7620  143.1100 C   0  0  0  0  0  0  0  0  0  0  0  0
  187.1360  176.5520  140.3380 C   0  0  0  0  0  0  0  0  0  0  0  0
  186.2520  176.9190  147.3780 C   0  0  0  0  0  3  0  0  0  0  0  0
  187.5520  176.1650  145.2700 C   0  0  1  0  0  3  0  0  0  0  0  0
  188.4500  174.7330  141.1830 N   0  0  0  0  0  0  0  0  0  0  0  0
  188.4450  175.2380  142.4470 C   0  0  0  0  0  0  0  0  0  0  0  0
  187.6840  176.4060  142.7050 C   0  0  0  0  0  0  0  0  0  0  0  0
  185.4760  178.9520  146.1710 C   0  0  0  0  0  2  0  0  0  0  0  0
  186.7500  178.0720  144.1910 C   0  0  0  0  0  0  0  0  0  0  0  0
  188.9500  175.7510  145.5460 C   0  0  0  0  0  3  0  0  0  0  0  0
  187.8160  175.3340  140.1430 C   0  0  0  0  0  0  0  0  0  0  0  0
  187.2480  175.4160  137.8040 C   0  0  0  0  0  3  0  0  0  0  0  0
  187.8730  174.7670  138.8700 C   0  0  0  0  0  3  0  0  0  0  0  0
  185.5370  179.8220  143.2760 O   0  0  0  0  0  0  0  0  0  0  0  0
  186.5240  177.1670  139.2370 C   0  0  0  0  0  3  0  0  0  0  0  0
  187.1000  177.1680  146.2290 N   0  0  0  0  0  0  0  0  0  0  0  0
  186.5930  176.5910  138.0060 N   0  0  0  0  0  0  0  0  0  0  0  0
  186.3650  178.2510  141.8580 N   0  0  0  0  0  2  0  0  0  0  0  0
  189.7020  175.0360  144.7010 C   0  0  0  0  0  0  0  0  0  0  0  0
  189.2890  174.6560  143.3200 C   0  0  0  0  0  2  0  0  0  0  0  0
  187.0670  177.0960  141.6270 C   0  0  0  0  0  0  0  0  0  0  0  0
  186.5710  178.2390  145.4910 C   0  0  2  0  0  3  0  0  0  0  0  0
  191.3300  173.3630  145.1790 O   0  0  0  0  0  0  0  0  0  0  0  0
  191.0350  174.5890  145.1680 C   0  0  0  0  0  0  0  0  0  0  0  0
  192.0660  175.5750  145.6130 C   0  0  0  0  0  2  0  0  0  0  0  0
  191.2970  176.0120  147.7840 O   0  0  0  0  0  0  0  0  0  0  0  0
  192.3190  175.4330  147.1020 C   0  0  2  0  0  3  0  0  0  0  0  0
  192.4760  176.7350  147.6970 N   0  0  0  0  0  2  0  0  0  0  0  0
  2 11  2  0  0  0  0
  2  6  1  0  0  0  0
  3 16  2  0  0  0  0
  3 11  1  0  0  0  0
  4 23  2  0  0  0  0
  5  1  2  0  0  0  0
  6 12  1  1  0  0  0
  6 18  1  0  0  0  0
  7  8  1  0  0  0  0
  8  9  2  0  0  0  0
  8 22  1  0  0  0  0
  9  2  1  0  0  0  0
 10  1  1  0  0  0  0
 11 24  1  0  0  0  0
 13  4  1  0  0  0  0
 13  7  2  0  0  0  0
 14 19  1  0  0  0  0
 14 15  2  0  0  0  0
 15 13  1  0  0  0  0
 17  4  1  0  0  0  0
 18  5  1  0  0  0  0
 19 17  2  0  0  0  0
 20  3  1  0  0  0  0
 21 26  1  0  0  0  0
 21 12  2  0  0  0  0
 22 21  1  0  0  0  0
 23 20  1  0  0  0  0
 23  9  1  0  0  0  0
 24 10  1  6  0  0  0
 24 18  1  0  0  0  0
 26 25  2  0  0  0  0
 26 27  1  0  0  0  0
 29 27  1  6  0  0  0
 29 30  1  0  0  0  0
 29 28  1  0  0  0  0
 30 28  1  0  0  0  0
M  END
>  <MODEL>
7

>  <REMARK>
 VINA RESULT:      -7.4      1.707      2.311
  Name = 
  3 active torsions:
  status: ('A' for Active; 'I' for Inactive)
    1  A    between atoms: C_7  and  C_13
    2  A    between atoms: C_7  and  C_23
    3  A    between atoms: C_23  and  C_26
                            x       y       z     vdW  Elec       q    Type
                         _______ _______ _______ _____ _____    ______ ____

>  <TORSDO>
F 3

$$$$
=
 OpenBabel11042413443D

 30 36  0  0  1  0  0  0  0  0999 V2000
  193.3190  173.8560  145.6290 C   0  0  0  0  0  3  0  0  0  0  0  0
  189.6590  174.9120  143.7630 C   0  0  0  0  0  0  0  0  0  0  0  0
  190.3840  173.0990  142.3610 C   0  0  0  0  0  0  0  0  0  0  0  0
  188.1180  175.2500  140.4410 C   0  0  0  0  0  0  0  0  0  0  0  0
  192.3740  174.9690  146.1240 C   0  0  0  0  0  3  0  0  0  0  0  0
  190.1760  175.6570  144.9420 C   0  0  1  0  0  3  0  0  0  0  0  0
  187.3250  177.0230  141.8490 N   0  0  0  0  0  0  0  0  0  0  0  0
  187.9720  176.5280  142.9390 C   0  0  0  0  0  0  0  0  0  0  0  0
  188.8040  175.3920  142.7730 C   0  0  0  0  0  0  0  0  0  0  0  0
  192.5300  172.9600  144.6640 C   0  0  0  0  0  2  0  0  0  0  0  0
  190.4120  173.7750  143.5820 C   0  0  0  0  0  0  0  0  0  0  0  0
  189.0820  176.0180  145.8760 C   0  0  0  0  0  3  0  0  0  0  0  0
  187.3850  176.4390  140.6230 C   0  0  0  0  0  0  0  0  0  0  0  0
  186.7270  176.3630  138.3080 C   0  0  0  0  0  3  0  0  0  0  0  0
  186.6860  176.9950  139.5520 C   0  0  0  0  0  3  0  0  0  0  0  0
  191.0800  172.0680  142.1660 O   0  0  0  0  0  0  0  0  0  0  0  0
  188.1300  174.6520  139.1740 C   0  0  0  0  0  3  0  0  0  0  0  0
  191.0800  174.6800  145.5390 N   0  0  0  0  0  0  0  0  0  0  0  0
  187.4400  175.2160  138.1450 N   0  0  0  0  0  0  0  0  0  0  0  0
  189.6020  173.5940  141.3610 N   0  0  0  0  0  2  0  0  0  0  0  0
  187.9850  176.6970  145.5220 C   0  0  0  0  0  0  0  0  0  0  0  0
  187.6480  177.0830  144.1220 C   0  0  0  0  0  2  0  0  0  0  0  0
  188.8340  174.7190  141.5210 C   0  0  0  0  0  0  0  0  0  0  0  0
  191.2150  173.6250  144.6230 C   0  0  2  0  0  3  0  0  0  0  0  0
  186.9480  176.4120  147.6490 O   0  0  0  0  0  0  0  0  0  0  0  0
  187.0400  177.0940  146.5920 C   0  0  0  0  0  0  0  0  0  0  0  0
  186.1940  178.3190  146.4580 C   0  0  0  0  0  2  0  0  0  0  0  0
  184.4390  177.9740  144.9420 O   0  0  0  0  0  0  0  0  0  0  0  0
  184.7400  177.9320  146.2660 C   0  0  2  0  0  3  0  0  0  0  0  0
  184.0090  179.0420  145.7120 N   0  0  0  0  0  2  0  0  0  0  0  0
  1  5  2  0  0  0  0
  2  6  1  0  0  0  0
  3 11  1  0  0  0  0
  4 13  1  0  0  0  0
  4 23  2  0  0  0  0
  6 18  1  0  0  0  0
  6 12  1  1  0  0  0
  7  8  1  0  0  0  0
  8 22  1  0  0  0  0
  9  8  2  0  0  0  0
  9  2  1  0  0  0  0
 10  1  1  0  0  0  0
 11  2  2  0  0  0  0
 11 24  1  0  0  0  0
 13  7  2  0  0  0  0
 14 15  2  0  0  0  0
 15 13  1  0  0  0  0
 16  3  2  0  0  0  0
 17  4  1  0  0  0  0
 18  5  1  0  0  0  0
 19 14  1  0  0  0  0
 19 17  2  0  0  0  0
 20 23  1  0  0  0  0
 20  3  1  0  0  0  0
 21 12  2  0  0  0  0
 21 26  1  0  0  0  0
 22 21  1  0  0  0  0
 23  9  1  0  0  0  0
 24 10  1  6  0  0  0
 24 18  1  0  0  0  0
 26 25  2  0  0  0  0
 27 26  1  0  0  0  0
 28 30  1  0  0  0  0
 28 29  1  0  0  0  0
 29 27  1  6  0  0  0
 30 29  1  0  0  0  0
M  END
>  <MODEL>
8

>  <REMARK>
 VINA RESULT:      -7.2      2.171      5.664
  Name = 
  3 active torsions:
  status: ('A' for Active; 'I' for Inactive)
    1  A    between atoms: C_7  and  C_13
    2  A    between atoms: C_7  and  C_23
    3  A    between atoms: C_23  and  C_26
                            x       y       z     vdW  Elec       q    Type
                         _______ _______ _______ _____ _____    ______ ____

>  <TORSDO>
F 3

$$$$
=
 OpenBabel11042413443D

 30 36  0  0  1  0  0  0  0  0999 V2000
  192.8820  175.8980  146.6370 C   0  0  0  0  0  3  0  0  0  0  0  0
  189.9330  174.9250  143.7480 C   0  0  0  0  0  0  0  0  0  0  0  0
  191.2610  172.9210  143.7430 C   0  0  0  0  0  0  0  0  0  0  0  0
  189.5240  173.2010  140.5250 C   0  0  0  0  0  0  0  0  0  0  0  0
  191.7150  176.8220  146.2330 C   0  0  0  0  0  3  0  0  0  0  0  0
  189.9580  176.2520  144.4190 C   0  0  1  0  0  3  0  0  0  0  0  0
  188.1340  175.1560  140.5410 N   0  0  0  0  0  0  0  0  0  0  0  0
  188.4420  175.4370  141.8370 C   0  0  0  0  0  0  0  0  0  0  0  0
  189.3990  174.6250  142.4960 C   0  0  0  0  0  0  0  0  0  0  0  0
  192.5470  174.4770  146.1620 C   0  0  0  0  0  2  0  0  0  0  0  0
  190.8200  174.0830  144.3780 C   0  0  0  0  0  0  0  0  0  0  0  0
  188.5890  176.7200  144.7440 C   0  0  0  0  0  3  0  0  0  0  0  0
  188.6500  174.0920  139.8720 C   0  0  0  0  0  0  0  0  0  0  0  0
  188.7890  172.7370  137.8850 C   0  0  0  0  0  3  0  0  0  0  0  0
  188.2800  173.8550  138.5480 C   0  0  0  0  0  3  0  0  0  0  0  0
  192.0880  172.1470  144.2930 O   0  0  0  0  0  0  0  0  0  0  0  0
  190.0090  172.0920  139.8190 C   0  0  0  0  0  3  0  0  0  0  0  0
  190.7180  175.9600  145.6290 N   0  0  0  0  0  0  0  0  0  0  0  0
  189.6340  171.8860  138.5280 N   0  0  0  0  0  0  0  0  0  0  0  0
  190.7970  172.6480  142.4910 N   0  0  0  0  0  2  0  0  0  0  0  0
  187.6000  176.8300  143.8500 C   0  0  0  0  0  0  0  0  0  0  0  0
  187.6950  176.3880  142.4290 C   0  0  0  0  0  2  0  0  0  0  0  0
  189.9040  173.4650  141.8470 C   0  0  0  0  0  0  0  0  0  0  0  0
  191.2540  174.6700  145.4820 C   0  0  2  0  0  3  0  0  0  0  0  0
  185.2860  177.3330  143.5880 O   0  0  0  0  0  0  0  0  0  0  0  0
  186.3230  177.4330  144.2990 C   0  0  0  0  0  0  0  0  0  0  0  0
  186.2260  178.1480  145.6070 C   0  0  0  0  0  2  0  0  0  0  0  0
  184.0730  178.1540  146.5370 O   0  0  0  0  0  0  0  0  0  0  0  0
  185.2330  177.4470  146.5150 C   0  0  2  0  0  3  0  0  0  0  0  0
  184.9090  178.2950  147.6330 N   0  0  0  0  0  2  0  0  0  0  0  0
  2 11  2  0  0  0  0
  2  6  1  0  0  0  0
  3 16  2  0  0  0  0
  3 11  1  0  0  0  0
  4 23  2  0  0  0  0
  5  1  2  0  0  0  0
  6 12  1  1  0  0  0
  6 18  1  0  0  0  0
  7  8  1  0  0  0  0
  8 22  1  0  0  0  0
  8  9  2  0  0  0  0
  9  2  1  0  0  0  0
 10  1  1  0  0  0  0
 11 24  1  0  0  0  0
 13  4  1  0  0  0  0
 13  7  2  0  0  0  0
 14 19  1  0  0  0  0
 14 15  2  0  0  0  0
 15 13  1  0  0  0  0
 17  4  1  0  0  0  0
 18  5  1  0  0  0  0
 19 17  2  0  0  0  0
 20  3  1  0  0  0  0
 21 26  1  0  0  0  0
 21 12  2  0  0  0  0
 22 21  1  0  0  0  0
 23 20  1  0  0  0  0
 23  9  1  0  0  0  0
 24 18  1  0  0  0  0
 24 10  1  6  0  0  0
 25 26  2  0  0  0  0
 26 27  1  0  0  0  0
 28 30  1  0  0  0  0
 29 27  1  6  0  0  0
 29 28  1  0  0  0  0
 29 30  1  0  0  0  0
M  END
>  <MODEL>
9

>  <REMARK>
 VINA RESULT:      -7.2      2.084      5.645
  Name = 
  3 active torsions:
  status: ('A' for Active; 'I' for Inactive)
    1  A    between atoms: C_7  and  C_13
    2  A    between atoms: C_7  and  C_23
    3  A    between atoms: C_23  and  C_26
                            x       y       z     vdW  Elec       q    Type
                         _______ _______ _______ _____ _____    ______ ____

>  <TORSDO>
F 3

$$$$
