=
 OpenBabel11042414063D

 49 56  0  0  1  0  0  0  0  0999 V2000
  187.1090  177.3920  142.4230 C   0  0  0  0  0  0  0  0  0  0  0  0
  190.1020  176.0250  146.9580 O   0  0  0  0  0  0  0  0  0  0  0  0
  190.0430  174.2310  142.2280 C   0  0  0  0  0  0  0  0  0  0  0  0
  189.5730  175.8350  144.6720 C   0  0  0  0  0  0  0  0  0  0  0  0
  193.0270  172.0110  142.1620 C   0  0  0  0  0  2  0  0  0  0  0  0
  187.6440  176.9330  143.7580 C   0  0  0  0  0  2  0  0  0  0  0  0
  190.1850  173.5550  140.9180 C   0  0  0  0  0  0  0  0  0  0  0  0
  191.1810  175.9670  147.8130 N   0  0  0  0  0  2  0  0  0  0  0  0
  191.9940  173.8860  145.2340 O   0  0  0  0  0  0  0  0  0  0  0  0
  191.7320  173.3140  143.9800 C   0  0  0  0  0  0  0  0  0  0  0  0
  192.3520  171.9840  143.5590 C   0  0  2  0  0  3  0  0  0  0  0  0
  190.4020  175.6750  145.6700 C   0  0  0  0  0  0  0  0  0  0  0  0
  189.0310  173.6010  139.9720 C   0  0  0  0  0  2  0  0  0  0  0  0
  188.7230  174.9010  142.5530 C   0  0  1  0  0  3  0  0  0  0  0  0
  192.3110  175.5040  146.9850 C   0  0  1  0  0  3  0  0  0  0  0  0
  188.2820  174.8500  140.1370 N   0  0  0  0  0  0  0  0  0  0  0  0
  191.1130  172.6320  140.8080 C   0  0  0  0  0  0  0  0  0  0  0  0
  190.8640  173.8450  143.1710 C   0  0  0  0  0  0  0  0  0  0  0  0
  188.7860  175.9720  143.6320 C   0  0  0  0  0  0  0  0  0  0  0  0
  191.8200  175.2730  145.5530 C   0  0  1  0  0  3  0  0  0  0  0  0
  192.0880  171.7860  140.9980 C   0  0  0  0  0  3  0  0  0  0  0  0
  187.3120  176.6870  141.3070 C   0  0  0  0  0  3  0  0  0  0  0  0
  188.0990  175.4460  141.2820 C   0  0  0  0  0  0  0  0  0  0  0  0
  193.3360  171.4090  144.5860 C   0  0  1  0  0  3  0  0  0  0  0  0
  193.2870  170.0120  144.5870 O   0  0  0  0  0  1  0  0  0  0  0  0
  194.7680  171.8730  144.3550 C   0  0  0  0  0  2  0  0  0  0  0  0
  196.8130  172.9260  145.4800 C   0  0  2  0  0  3  0  0  0  0  0  0
  195.4680  172.2290  145.6700 C   0  0  2  0  0  3  0  0  0  0  0  0
  197.1980  172.9760  144.1220 O   0  0  0  0  0  0  0  0  0  0  0  0
  197.5060  170.7450  144.8630 C   0  0  2  0  0  3  0  0  0  0  0  0
  197.8920  171.7860  143.8430 C   0  0  0  0  0  2  0  0  0  0  0  0
  196.6780  169.7060  144.2780 N   0  0  0  0  0  1  0  0  0  0  0  0
  196.7830  171.4880  145.9640 C   0  0  1  0  0  3  0  0  0  0  0  0
  186.3490  178.5600  142.3280 O   0  0  0  0  0  0  0  0  0  0  0  0
  185.8210  179.2230  143.4690 C   0  0  0  0  0  2  0  0  0  0  0  0
  183.5640  178.4400  142.7630 O   0  0  0  0  0  0  0  0  0  0  0  0
  184.1820  178.3640  144.9710 O   0  0  0  0  0  1  0  0  0  0  0  0
  184.4770  178.6680  143.7860 C   0  0  0  0  0  0  0  0  0  0  0  0
  193.4150  176.5440  146.9750 C   0  0  0  0  0  2  0  0  0  0  0  0
  194.6300  175.9800  146.4160 N   0  0  0  0  0  2  0  0  0  0  0  0
  194.8830  176.6780  145.1680 C   0  0  0  0  0  2  0  0  0  0  0  0
  195.5840  176.3940  142.8160 C   0  0  1  0  0  3  0  0  0  0  0  0
  194.1300  175.9790  142.9030 C   0  0  0  0  0  2  0  0  0  0  0  0
  195.0760  175.6700  144.0480 C   0  0  2  0  0  3  0  0  0  0  0  0
  196.2820  175.4780  141.9930 O   0  0  0  0  0  0  0  0  0  0  0  0
  196.1810  175.2740  139.6560 N   0  0  0  0  0  0  0  0  0  0  0  0
  196.6760  175.8520  140.7110 C   0  0  0  0  0  3  0  0  0  0  0  0
  195.1920  174.2060  139.7300 C   0  0  0  0  0  2  0  0  0  0  0  0
  193.8080  174.7460  139.4010 C   0  0  0  0  0  1  0  0  0  0  0  0
  1  6  1  0  0  0  0
  2  8  1  0  0  0  0
  3 14  1  0  0  0  0
  3 18  2  0  0  0  0
  4 12  2  0  0  0  0
  5 11  1  0  0  0  0
  7  3  1  0  0  0  0
 10  9  1  0  0  0  0
 11 10  1  0  0  0  0
 11 24  1  1  0  0  0
 12  2  1  0  0  0  0
 13 16  1  0  0  0  0
 13  7  1  0  0  0  0
 14 23  1  6  0  0  0
 14 19  1  0  0  0  0
 15 39  1  6  0  0  0
 15  8  1  0  0  0  0
 16 23  2  0  0  0  0
 17  7  2  0  0  0  0
 17 21  2  0  0  0  0
 18 10  2  0  0  0  0
 19  6  1  0  0  0  0
 19  4  2  0  0  0  0
 20  9  1  1  0  0  0
 20 12  1  0  0  0  0
 20 15  1  0  0  0  0
 21  5  1  0  0  0  0
 22  1  2  0  0  0  0
 23 22  1  0  0  0  0
 24 25  1  6  0  0  0
 26 24  1  0  0  0  0
 27 29  1  6  0  0  0
 27 28  1  0  0  0  0
 27 33  1  0  0  0  0
 28 26  1  6  0  0  0
 28 33  1  0  0  0  0
 30 32  1  6  0  0  0
 30 33  1  0  0  0  0
 31 29  1  0  0  0  0
 31 30  1  0  0  0  0
 34  1  1  0  0  0  0
 34 35  1  0  0  0  0
 35 38  1  0  0  0  0
 36 38  2  0  0  0  0
 38 37  1  0  0  0  0
 40 39  1  0  0  0  0
 41 40  1  0  0  0  0
 42 43  1  0  0  0  0
 42 44  1  0  0  0  0
 43 44  1  0  0  0  0
 44 41  1  0  0  0  0
 45 42  1  0  0  0  0
 46 48  1  0  0  0  0
 46 47  2  0  0  0  0
 47 45  1  0  0  0  0
 49 48  1  0  0  0  0
M  END
>  <MODEL>
1

>  <REMARK>
 VINA RESULT:      -7.2      0.000      0.000
  Name = 
  13 active torsions:
  status: ('A' for Active; 'I' for Inactive)
    1  A    between atoms: C_1  and  O_9
    2  A    between atoms: C_2  and  O_15
    3  A    between atoms: C_3  and  N_29
    4  A    between atoms: C_5  and  C_22
    5  A    between atoms: C_5  and  C_38
    6  A    between atoms: C_6  and  N_17
    7  A    between atoms: C_6  and  C_33
    8  A    between atoms: O_9  and  C_49
    9  A    between atoms: O_15  and  C_31
   10  A    between atoms: N_17  and  C_32
   11  A    between atoms: C_25  and  C_38
   12  A    between atoms: C_31  and  C_34
   13  A    between atoms: C_32  and  C_36
                            x       y       z     vdW  Elec       q    Type
                         _______ _______ _______ _____ _____    ______ ____

>  <TORSDO>
F 13

$$$$
=
 OpenBabel11042414063D

 49 56  0  0  1  0  0  0  0  0999 V2000
  195.0180  174.4950  141.3290 C   0  0  0  0  0  0  0  0  0  0  0  0
  189.4350  174.3070  140.8930 O   0  0  0  0  0  0  0  0  0  0  0  0
  192.5310  175.6120  144.6760 C   0  0  0  0  0  0  0  0  0  0  0  0
  191.4220  174.8190  142.0470 C   0  0  0  0  0  0  0  0  0  0  0  0
  190.1970  177.1000  147.1600 C   0  0  0  0  0  2  0  0  0  0  0  0
  193.5580  174.1410  141.1860 C   0  0  0  0  0  2  0  0  0  0  0  0
  193.2430  176.0250  145.9060 C   0  0  0  0  0  0  0  0  0  0  0  0
  188.1450  174.7630  140.7330 N   0  0  0  0  0  2  0  0  0  0  0  0
  189.0170  175.6920  143.8980 O   0  0  0  0  0  0  0  0  0  0  0  0
  189.9510  175.8030  144.9390 C   0  0  0  0  0  0  0  0  0  0  0  0
  189.5160  175.9330  146.3970 C   0  0  2  0  0  3  0  0  0  0  0  0
  190.1370  174.9710  141.8610 C   0  0  0  0  0  0  0  0  0  0  0  0
  194.6430  175.5450  146.1070 C   0  0  0  0  0  2  0  0  0  0  0  0
  193.2450  174.6940  143.7040 C   0  0  1  0  0  3  0  0  0  0  0  0
  187.9850  175.8380  141.7300 C   0  0  1  0  0  3  0  0  0  0  0  0
  195.3210  175.3910  144.8170 N   0  0  0  0  0  0  0  0  0  0  0  0
  192.5160  176.4320  146.9220 C   0  0  0  0  0  0  0  0  0  0  0  0
  191.2240  175.6890  144.7090 C   0  0  0  0  0  0  0  0  0  0  0  0
  192.7080  174.7090  142.2810 C   0  0  0  0  0  0  0  0  0  0  0  0
  189.2880  175.9850  142.5210 C   0  0  1  0  0  3  0  0  0  0  0  0
  191.5570  176.7750  147.7380 C   0  0  0  0  0  3  0  0  0  0  0  0
  195.5390  174.8590  142.5030 C   0  0  0  0  0  3  0  0  0  0  0  0
  194.7340  174.9850  143.7260 C   0  0  0  0  0  0  0  0  0  0  0  0
  187.9970  176.0250  146.5820 C   0  0  1  0  0  3  0  0  0  0  0  0
  187.6360  175.6570  147.8820 O   0  0  0  0  0  1  0  0  0  0  0  0
  187.4460  177.4110  146.2700 C   0  0  0  0  0  2  0  0  0  0  0  0
  185.3140  177.7330  147.6500 C   0  0  2  0  0  3  0  0  0  0  0  0
  186.7990  178.0550  147.4990 C   0  0  2  0  0  3  0  0  0  0  0  0
  184.8110  177.0160  146.5430 O   0  0  0  0  0  0  0  0  0  0  0  0
  185.1180  179.2620  145.8490 C   0  0  2  0  0  3  0  0  0  0  0  0
  184.4040  177.9610  145.5850 C   0  0  0  0  0  2  0  0  0  0  0  0
  186.1170  179.5380  144.8340 N   0  0  0  0  0  1  0  0  0  0  0  0
  185.7330  179.1280  147.2240 C   0  0  1  0  0  3  0  0  0  0  0  0
  195.8770  174.4140  140.2300 O   0  0  0  0  0  0  0  0  0  0  0  0
  197.1300  173.7460  140.2860 C   0  0  0  0  0  2  0  0  0  0  0  0
  196.0720  171.7520  139.2340 O   0  0  0  0  0  0  0  0  0  0  0  0
  197.5160  171.5050  140.9990 O   0  0  0  0  0  1  0  0  0  0  0  0
  196.9110  172.2760  140.2090 C   0  0  0  0  0  0  0  0  0  0  0  0
  187.6650  177.1510  141.0410 C   0  0  0  0  0  2  0  0  0  0  0  0
  186.8790  178.0000  141.9180 N   0  0  0  0  0  2  0  0  0  0  0  0
  185.5630  177.3930  142.0210 C   0  0  0  0  0  2  0  0  0  0  0  0
  183.1500  177.7670  141.6430 C   0  0  1  0  0  3  0  0  0  0  0  0
  183.8810  178.2970  140.4270 C   0  0  0  0  0  2  0  0  0  0  0  0
  184.4940  178.4510  141.8060 C   0  0  2  0  0  3  0  0  0  0  0  0
  182.1210  178.6710  141.9990 O   0  0  0  0  0  0  0  0  0  0  0  0
  180.0110  178.8290  140.9820 N   0  0  0  0  0  0  0  0  0  0  0  0
  181.2640  179.1730  141.0230 C   0  0  0  0  0  3  0  0  0  0  0  0
  179.4120  177.9060  141.9390 C   0  0  0  0  0  2  0  0  0  0  0  0
  178.6520  178.6760  143.0080 C   0  0  0  0  0  1  0  0  0  0  0  0
  1 22  2  0  0  0  0
  2 12  1  0  0  0  0
  3 18  2  0  0  0  0
  3  7  1  0  0  0  0
  4 19  2  0  0  0  0
  5 21  1  0  0  0  0
  6  1  1  0  0  0  0
  6 19  1  0  0  0  0
  7 13  1  0  0  0  0
  7 17  2  0  0  0  0
  8  2  1  0  0  0  0
  8 15  1  0  0  0  0
  9 10  1  0  0  0  0
 10 11  1  0  0  0  0
 11 24  1  6  0  0  0
 11  5  1  0  0  0  0
 12  4  2  0  0  0  0
 14 19  1  6  0  0  0
 14 23  1  0  0  0  0
 14  3  1  0  0  0  0
 15 39  1  6  0  0  0
 15 20  1  0  0  0  0
 16 13  1  0  0  0  0
 17 21  2  0  0  0  0
 18 10  2  0  0  0  0
 20 12  1  6  0  0  0
 20  9  1  0  0  0  0
 22 23  1  0  0  0  0
 23 16  2  0  0  0  0
 24 25  1  1  0  0  0
 26 24  1  0  0  0  0
 27 29  1  6  0  0  0
 28 26  1  6  0  0  0
 28 27  1  0  0  0  0
 30 32  1  6  0  0  0
 30 33  1  0  0  0  0
 31 30  1  0  0  0  0
 31 29  1  0  0  0  0
 33 28  1  0  0  0  0
 33 27  1  0  0  0  0
 34 35  1  0  0  0  0
 34  1  1  0  0  0  0
 36 38  2  0  0  0  0
 38 35  1  0  0  0  0
 38 37  1  0  0  0  0
 39 40  1  0  0  0  0
 40 41  1  0  0  0  0
 42 44  1  0  0  0  0
 42 45  1  0  0  0  0
 43 42  1  0  0  0  0
 43 44  1  0  0  0  0
 44 41  1  0  0  0  0
 46 47  2  0  0  0  0
 46 48  1  0  0  0  0
 47 45  1  0  0  0  0
 48 49  1  0  0  0  0
M  END
>  <MODEL>
2

>  <REMARK>
 VINA RESULT:      -6.5      3.077     10.378
  Name = 
  13 active torsions:
  status: ('A' for Active; 'I' for Inactive)
    1  A    between atoms: C_1  and  O_9
    2  A    between atoms: C_2  and  O_15
    3  A    between atoms: C_3  and  N_29
    4  A    between atoms: C_5  and  C_22
    5  A    between atoms: C_5  and  C_38
    6  A    between atoms: C_6  and  N_17
    7  A    between atoms: C_6  and  C_33
    8  A    between atoms: O_9  and  C_49
    9  A    between atoms: O_15  and  C_31
   10  A    between atoms: N_17  and  C_32
   11  A    between atoms: C_25  and  C_38
   12  A    between atoms: C_31  and  C_34
   13  A    between atoms: C_32  and  C_36
                            x       y       z     vdW  Elec       q    Type
                         _______ _______ _______ _____ _____    ______ ____

>  <TORSDO>
F 13

$$$$
=
 OpenBabel11042414063D

 49 56  0  0  1  0  0  0  0  0999 V2000
  183.7040  178.4480  143.0330 C   0  0  0  0  0  0  0  0  0  0  0  0
  187.3780  176.1240  139.4970 O   0  0  0  0  0  0  0  0  0  0  0  0
  187.5680  177.1430  144.4490 C   0  0  0  0  0  0  0  0  0  0  0  0
  186.6810  176.7820  141.6470 C   0  0  0  0  0  0  0  0  0  0  0  0
  190.6670  175.3890  145.5220 C   0  0  0  0  0  2  0  0  0  0  0  0
  184.6980  178.1010  141.9510 C   0  0  0  0  0  2  0  0  0  0  0  0
  187.8400  177.3590  145.8890 C   0  0  0  0  0  0  0  0  0  0  0  0
  188.1000  175.1360  138.8650 N   0  0  0  0  0  2  0  0  0  0  0  0
  189.5000  175.3950  141.9650 O   0  0  0  0  0  0  0  0  0  0  0  0
  189.5370  175.9290  143.2620 C   0  0  0  0  0  0  0  0  0  0  0  0
  190.8230  175.9510  144.0840 C   0  0  2  0  0  3  0  0  0  0  0  0
  187.4330  176.0570  140.8620 C   0  0  0  0  0  0  0  0  0  0  0  0
  187.0730  178.4240  146.6000 C   0  0  0  0  0  2  0  0  0  0  0  0
  186.5540  178.0390  143.7660 C   0  0  1  0  0  3  0  0  0  0  0  0
  188.7140  174.3460  139.9490 C   0  0  1  0  0  3  0  0  0  0  0  0
  185.7330  178.5640  146.0210 N   0  0  0  0  0  0  0  0  0  0  0  0
  188.9810  176.9160  146.3640 C   0  0  0  0  0  0  0  0  0  0  0  0
  188.5000  176.5230  143.7700 C   0  0  0  0  0  0  0  0  0  0  0  0
  185.9530  177.4810  142.4850 C   0  0  0  0  0  0  0  0  0  0  0  0
  188.3120  174.9510  141.2980 C   0  0  1  0  0  3  0  0  0  0  0  0
  190.1600  176.3840  146.5420 C   0  0  0  0  0  3  0  0  0  0  0  0
  184.0810  178.6120  144.3030 C   0  0  0  0  0  3  0  0  0  0  0  0
  185.4690  178.4280  144.7520 C   0  0  0  0  0  0  0  0  0  0  0  0
  192.0070  175.2600  143.3970 C   0  0  1  0  0  3  0  0  0  0  0  0
  192.5670  176.0920  142.4230 O   0  0  0  0  0  1  0  0  0  0  0  0
  193.0870  174.8210  144.3790 C   0  0  0  0  0  2  0  0  0  0  0  0
  194.9760  176.5240  144.6660 C   0  0  2  0  0  3  0  0  0  0  0  0
  193.6370  176.0040  145.1820 C   0  0  2  0  0  3  0  0  0  0  0  0
  195.4990  175.7150  143.6340 O   0  0  0  0  0  0  0  0  0  0  0  0
  195.7840  174.5340  145.6700 C   0  0  2  0  0  3  0  0  0  0  0  0
  196.2480  174.6940  144.2440 C   0  0  0  0  0  2  0  0  0  0  0  0
  195.0480  173.2970  145.8570 N   0  0  0  0  0  1  0  0  0  0  0  0
  194.9330  175.7470  145.9700 C   0  0  1  0  0  3  0  0  0  0  0  0
  182.3570  178.6440  142.7200 O   0  0  0  0  0  0  0  0  0  0  0  0
  181.8250  178.3780  141.4290 C   0  0  0  0  0  2  0  0  0  0  0  0
  179.7030  178.9880  142.5820 O   0  0  0  0  0  1  0  0  0  0  0  0
  179.6560  177.9440  140.5400 O   0  0  0  0  0  0  0  0  0  0  0  0
  180.3380  178.4070  141.4920 C   0  0  0  0  0  0  0  0  0  0  0  0
  188.2400  172.9070  139.8830 C   0  0  0  0  0  2  0  0  0  0  0  0
  188.3580  172.4010  138.5270 N   0  0  0  0  0  2  0  0  0  0  0  0
  189.7770  172.2880  138.2420 C   0  0  0  0  0  2  0  0  0  0  0  0
  191.6710  171.7340  139.7290 C   0  0  1  0  0  3  0  0  0  0  0  0
  191.7340  170.7840  138.5510 C   0  0  0  0  0  2  0  0  0  0  0  0
  190.3890  171.2050  139.1140 C   0  0  2  0  0  3  0  0  0  0  0  0
  191.9450  171.0200  140.9200 O   0  0  0  0  0  0  0  0  0  0  0  0
  190.1900  170.7220  142.4510 N   0  0  0  0  0  0  0  0  0  0  0  0
  190.9510  170.2440  141.5120 C   0  0  0  0  0  3  0  0  0  0  0  0
  190.3120  172.0870  142.9510 C   0  0  0  0  0  2  0  0  0  0  0  0
  189.7440  172.1830  144.3590 C   0  0  0  0  0  1  0  0  0  0  0  0
  1 22  2  0  0  0  0
  2 12  1  0  0  0  0
  3  7  1  0  0  0  0
  4 19  2  0  0  0  0
  5 21  1  0  0  0  0
  6 19  1  0  0  0  0
  6  1  1  0  0  0  0
  7 17  2  0  0  0  0
  7 13  1  0  0  0  0
  8  2  1  0  0  0  0
  8 15  1  0  0  0  0
  9 10  1  0  0  0  0
 10 18  2  0  0  0  0
 10 11  1  0  0  0  0
 11 24  1  6  0  0  0
 11  5  1  0  0  0  0
 12  4  2  0  0  0  0
 14 19  1  6  0  0  0
 14  3  1  0  0  0  0
 14 23  1  0  0  0  0
 15 39  1  1  0  0  0
 15 20  1  0  0  0  0
 16 13  1  0  0  0  0
 17 21  2  0  0  0  0
 18  3  2  0  0  0  0
 20 12  1  6  0  0  0
 20  9  1  0  0  0  0
 22 23  1  0  0  0  0
 23 16  2  0  0  0  0
 24 25  1  6  0  0  0
 24 26  1  0  0  0  0
 27 29  1  6  0  0  0
 27 28  1  0  0  0  0
 27 33  1  0  0  0  0
 28 26  1  6  0  0  0
 28 33  1  0  0  0  0
 29 31  1  0  0  0  0
 30 32  1  6  0  0  0
 30 33  1  0  0  0  0
 31 30  1  0  0  0  0
 34  1  1  0  0  0  0
 35 38  1  0  0  0  0
 35 34  1  0  0  0  0
 37 38  2  0  0  0  0
 38 36  1  0  0  0  0
 40 39  1  0  0  0  0
 41 40  1  0  0  0  0
 41 44  1  0  0  0  0
 42 45  1  0  0  0  0
 43 44  1  0  0  0  0
 43 42  1  0  0  0  0
 44 42  1  0  0  0  0
 45 47  1  0  0  0  0
 46 48  1  0  0  0  0
 47 46  2  0  0  0  0
 48 49  1  0  0  0  0
M  END
>  <MODEL>
3

>  <REMARK>
 VINA RESULT:      -6.5      2.741      6.082
  Name = 
  13 active torsions:
  status: ('A' for Active; 'I' for Inactive)
    1  A    between atoms: C_1  and  O_9
    2  A    between atoms: C_2  and  O_15
    3  A    between atoms: C_3  and  N_29
    4  A    between atoms: C_5  and  C_22
    5  A    between atoms: C_5  and  C_38
    6  A    between atoms: C_6  and  N_17
    7  A    between atoms: C_6  and  C_33
    8  A    between atoms: O_9  and  C_49
    9  A    between atoms: O_15  and  C_31
   10  A    between atoms: N_17  and  C_32
   11  A    between atoms: C_25  and  C_38
   12  A    between atoms: C_31  and  C_34
   13  A    between atoms: C_32  and  C_36
                            x       y       z     vdW  Elec       q    Type
                         _______ _______ _______ _____ _____    ______ ____

>  <TORSDO>
F 13

$$$$
=
 OpenBabel11042414063D

 49 56  0  0  1  0  0  0  0  0999 V2000
  183.5940  178.3380  141.8110 C   0  0  0  0  0  0  0  0  0  0  0  0
  188.2050  175.5320  140.3060 O   0  0  0  0  0  0  0  0  0  0  0  0
  186.4140  177.0140  144.8000 C   0  0  0  0  0  0  0  0  0  0  0  0
  186.7360  176.4230  141.9160 C   0  0  0  0  0  0  0  0  0  0  0  0
  188.6450  175.2420  147.1900 C   0  0  0  0  0  2  0  0  0  0  0  0
  184.9150  177.8470  141.2700 C   0  0  0  0  0  2  0  0  0  0  0  0
  186.0830  177.3560  146.2020 C   0  0  0  0  0  0  0  0  0  0  0  0
  189.0430  174.4580  140.1040 N   0  0  0  0  0  2  0  0  0  0  0  0
  189.0550  174.9550  143.4800 O   0  0  0  0  0  0  0  0  0  0  0  0
  188.5950  175.6090  144.6330 C   0  0  0  0  0  0  0  0  0  0  0  0
  189.4250  175.6560  145.9130 C   0  0  2  0  0  3  0  0  0  0  0  0
  187.6860  175.5950  141.5710 C   0  0  0  0  0  0  0  0  0  0  0  0
  185.1770  178.5160  146.4520 C   0  0  0  0  0  2  0  0  0  0  0  0
  185.8450  177.8820  143.6940 C   0  0  1  0  0  3  0  0  0  0  0  0
  189.0910  173.7510  141.3980 C   0  0  1  0  0  3  0  0  0  0  0  0
  184.2110  178.6560  145.3570 N   0  0  0  0  0  0  0  0  0  0  0  0
  186.8880  176.9130  147.1410 C   0  0  0  0  0  0  0  0  0  0  0  0
  187.4910  176.2930  144.6170 C   0  0  0  0  0  0  0  0  0  0  0  0
  185.7850  177.2290  142.3220 C   0  0  0  0  0  0  0  0  0  0  0  0
  188.2170  174.4990  142.4100 C   0  0  1  0  0  3  0  0  0  0  0  0
  187.8420  176.3520  147.8320 C   0  0  0  0  0  3  0  0  0  0  0  0
  183.4240  178.6080  143.1070 C   0  0  0  0  0  3  0  0  0  0  0  0
  184.4840  178.4090  144.1070 C   0  0  0  0  0  0  0  0  0  0  0  0
  190.7290  174.8530  145.8340 C   0  0  1  0  0  3  0  0  0  0  0  0
  190.5040  173.6040  145.2470 O   0  0  0  0  0  1  0  0  0  0  0  0
  191.8290  175.5850  145.0770 C   0  0  0  0  0  2  0  0  0  0  0  0
  193.9090  177.0500  145.3590 C   0  0  2  0  0  3  0  0  0  0  0  0
  192.6330  176.5090  145.9970 C   0  0  2  0  0  3  0  0  0  0  0  0
  194.1560  176.4740  144.0930 O   0  0  0  0  0  0  0  0  0  0  0  0
  194.6640  174.8330  145.7270 C   0  0  2  0  0  3  0  0  0  0  0  0
  194.8870  175.2930  144.3080 C   0  0  0  0  0  2  0  0  0  0  0  0
  193.8440  173.6360  145.7770 N   0  0  0  0  0  1  0  0  0  0  0  0
  194.0110  175.9930  146.4440 C   0  0  1  0  0  3  0  0  0  0  0  0
  182.5160  178.5600  140.9510 O   0  0  0  0  0  0  0  0  0  0  0  0
  181.1680  178.3360  141.3410 C   0  0  0  0  0  2  0  0  0  0  0  0
  179.2740  178.5640  139.7380 O   0  0  0  0  0  0  0  0  0  0  0  0
  180.3700  180.4240  140.5130 O   0  0  0  0  0  1  0  0  0  0  0  0
  180.2650  179.1700  140.5010 C   0  0  0  0  0  0  0  0  0  0  0  0
  188.5750  172.3330  141.2410 C   0  0  0  0  0  2  0  0  0  0  0  0
  189.5770  171.3820  141.6890 N   0  0  0  0  0  2  0  0  0  0  0  0
  190.8480  172.0840  141.6990 C   0  0  0  0  0  2  0  0  0  0  0  0
  192.0330  171.1360  143.6490 C   0  0  1  0  0  3  0  0  0  0  0  0
  193.0520  171.9090  142.8370 C   0  0  0  0  0  2  0  0  0  0  0  0
  191.9520  171.1360  142.1340 C   0  0  2  0  0  3  0  0  0  0  0  0
  192.6090  169.9190  144.0840 O   0  0  0  0  0  0  0  0  0  0  0  0
  194.6750  168.8460  144.3940 N   0  0  0  0  0  0  0  0  0  0  0  0
  193.8800  169.5530  143.6460 C   0  0  0  0  0  3  0  0  0  0  0  0
  194.3060  168.3870  145.7280 C   0  0  0  0  0  2  0  0  0  0  0  0
  194.8950  169.3110  146.7830 C   0  0  0  0  0  1  0  0  0  0  0  0
  1 22  2  0  0  0  0
  2 12  1  0  0  0  0
  3  7  1  0  0  0  0
  4 19  2  0  0  0  0
  5 21  1  0  0  0  0
  6  1  1  0  0  0  0
  6 19  1  0  0  0  0
  7 13  1  0  0  0  0
  7 17  2  0  0  0  0
  8  2  1  0  0  0  0
  8 15  1  0  0  0  0
  9 10  1  0  0  0  0
 10 11  1  0  0  0  0
 11 24  1  6  0  0  0
 11  5  1  0  0  0  0
 12  4  2  0  0  0  0
 14 19  1  6  0  0  0
 14 23  1  0  0  0  0
 14  3  1  0  0  0  0
 15 39  1  6  0  0  0
 15 20  1  0  0  0  0
 16 13  1  0  0  0  0
 17 21  2  0  0  0  0
 18 10  2  0  0  0  0
 18  3  2  0  0  0  0
 20 12  1  6  0  0  0
 20  9  1  0  0  0  0
 22 23  1  0  0  0  0
 23 16  2  0  0  0  0
 24 25  1  6  0  0  0
 26 24  1  0  0  0  0
 27 29  1  6  0  0  0
 27 28  1  0  0  0  0
 27 33  1  0  0  0  0
 28 26  1  6  0  0  0
 28 33  1  0  0  0  0
 29 31  1  0  0  0  0
 30 32  1  6  0  0  0
 30 33  1  0  0  0  0
 31 30  1  0  0  0  0
 34 35  1  0  0  0  0
 34  1  1  0  0  0  0
 36 38  2  0  0  0  0
 38 37  1  0  0  0  0
 38 35  1  0  0  0  0
 39 40  1  0  0  0  0
 40 41  1  0  0  0  0
 41 44  1  0  0  0  0
 42 45  1  0  0  0  0
 43 42  1  0  0  0  0
 44 43  1  0  0  0  0
 44 42  1  0  0  0  0
 46 48  1  0  0  0  0
 47 45  1  0  0  0  0
 47 46  2  0  0  0  0
 48 49  1  0  0  0  0
M  END
>  <MODEL>
4

>  <REMARK>
 VINA RESULT:      -6.5      2.626      6.129
  Name = 
  13 active torsions:
  status: ('A' for Active; 'I' for Inactive)
    1  A    between atoms: C_1  and  O_9
    2  A    between atoms: C_2  and  O_15
    3  A    between atoms: C_3  and  N_29
    4  A    between atoms: C_5  and  C_22
    5  A    between atoms: C_5  and  C_38
    6  A    between atoms: C_6  and  N_17
    7  A    between atoms: C_6  and  C_33
    8  A    between atoms: O_9  and  C_49
    9  A    between atoms: O_15  and  C_31
   10  A    between atoms: N_17  and  C_32
   11  A    between atoms: C_25  and  C_38
   12  A    between atoms: C_31  and  C_34
   13  A    between atoms: C_32  and  C_36
                            x       y       z     vdW  Elec       q    Type
                         _______ _______ _______ _____ _____    ______ ____

>  <TORSDO>
F 13

$$$$
=
 OpenBabel11042414063D

 49 56  0  0  1  0  0  0  0  0999 V2000
  186.1360  177.0270  139.4170 C   0  0  0  0  0  0  0  0  0  0  0  0
  190.7390  174.5950  141.4880 O   0  0  0  0  0  0  0  0  0  0  0  0
  187.0320  177.2890  143.6320 C   0  0  0  0  0  0  0  0  0  0  0  0
  188.7120  175.7680  141.7260 C   0  0  0  0  0  0  0  0  0  0  0  0
  187.6940  176.8360  147.2650 C   0  0  0  0  0  2  0  0  0  0  0  0
  187.5250  176.5800  139.8050 C   0  0  0  0  0  2  0  0  0  0  0  0
  186.0670  178.0520  144.4570 C   0  0  0  0  0  0  0  0  0  0  0  0
  191.5130  173.6580  142.1370 N   0  0  0  0  0  2  0  0  0  0  0  0
  189.8740  175.3160  144.6280 O   0  0  0  0  0  0  0  0  0  0  0  0
  188.9360  176.2600  145.0730 C   0  0  0  0  0  0  0  0  0  0  0  0
  189.0230  176.8810  146.4650 C   0  0  2  0  0  3  0  0  0  0  0  0
  189.6660  175.0240  142.2200 C   0  0  0  0  0  0  0  0  0  0  0  0
  185.2160  179.0750  143.7810 C   0  0  0  0  0  2  0  0  0  0  0  0
  187.1310  177.6120  142.1550 C   0  0  1  0  0  3  0  0  0  0  0  0
  190.8770  173.4710  143.4550 C   0  0  1  0  0  3  0  0  0  0  0  0
  184.9280  178.6720  142.4010 N   0  0  0  0  0  0  0  0  0  0  0  0
  186.2770  178.0970  145.7520 C   0  0  0  0  0  0  0  0  0  0  0  0
  188.0210  176.7200  144.2750 C   0  0  0  0  0  0  0  0  0  0  0  0
  187.7270  176.5140  141.2880 C   0  0  0  0  0  0  0  0  0  0  0  0
  189.6560  174.3900  143.5560 C   0  0  1  0  0  3  0  0  0  0  0  0
  186.7340  177.9670  146.9680 C   0  0  0  0  0  3  0  0  0  0  0  0
  185.3590  177.7110  140.2610 C   0  0  0  0  0  3  0  0  0  0  0  0
  185.7720  178.0410  141.6340 C   0  0  0  0  0  0  0  0  0  0  0  0
  190.1530  176.3080  147.3290 C   0  0  1  0  0  3  0  0  0  0  0  0
  190.0040  174.9260  147.4810 O   0  0  0  0  0  1  0  0  0  0  0  0
  191.5370  176.6170  146.7720 C   0  0  0  0  0  2  0  0  0  0  0  0
  193.8890  175.6080  146.8050 C   0  0  2  0  0  3  0  0  0  0  0  0
  192.3920  175.3530  146.6460 C   0  0  2  0  0  3  0  0  0  0  0  0
  194.1870  176.9850  146.9010 O   0  0  0  0  0  0  0  0  0  0  0  0
  193.6470  176.5340  144.6360 C   0  0  2  0  0  3  0  0  0  0  0  0
  194.3490  177.4670  145.5900 C   0  0  0  0  0  2  0  0  0  0  0  0
  192.4500  177.1380  144.0810 N   0  0  0  0  0  1  0  0  0  0  0  0
  193.3320  175.2860  145.4300 C   0  0  1  0  0  3  0  0  0  0  0  0
  185.6380  176.7660  138.1390 O   0  0  0  0  0  0  0  0  0  0  0  0
  186.3890  176.0680  137.1540 C   0  0  0  0  0  2  0  0  0  0  0  0
  184.2830  175.6960  135.8780 O   0  0  0  0  0  1  0  0  0  0  0  0
  186.1880  176.3820  134.8000 O   0  0  0  0  0  0  0  0  0  0  0  0
  185.6270  176.0450  135.8760 C   0  0  0  0  0  0  0  0  0  0  0  0
  190.4380  172.0300  143.6270 C   0  0  0  0  0  2  0  0  0  0  0  0
  191.3600  171.1400  142.9440 N   0  0  0  0  0  2  0  0  0  0  0  0
  192.1740  170.5110  143.9700 C   0  0  0  0  0  2  0  0  0  0  0  0
  194.4170  170.4230  145.0010 C   0  0  1  0  0  3  0  0  0  0  0  0
  193.8040  171.7550  145.3780 C   0  0  0  0  0  2  0  0  0  0  0  0
  193.5460  171.1640  144.0050 C   0  0  2  0  0  3  0  0  0  0  0  0
  195.7780  170.6160  144.6610 O   0  0  0  0  0  0  0  0  0  0  0  0
  197.2870  172.2680  145.3720 N   0  0  0  0  0  0  0  0  0  0  0  0
  196.6610  171.1510  145.5960 C   0  0  0  0  0  3  0  0  0  0  0  0
  197.1200  173.0370  144.1450 C   0  0  0  0  0  2  0  0  0  0  0  0
  197.2770  174.5230  144.4290 C   0  0  0  0  0  1  0  0  0  0  0  0
  1  6  1  0  0  0  0
  1 22  2  0  0  0  0
  2  8  1  0  0  0  0
  2 12  1  0  0  0  0
  3 18  2  0  0  0  0
  3  7  1  0  0  0  0
  4 12  2  0  0  0  0
  6 19  1  0  0  0  0
  7 17  2  0  0  0  0
  8 15  1  0  0  0  0
  9 10  1  0  0  0  0
 10 11  1  0  0  0  0
 11  5  1  0  0  0  0
 11 24  1  1  0  0  0
 13  7  1  0  0  0  0
 14 19  1  6  0  0  0
 14  3  1  0  0  0  0
 15 20  1  0  0  0  0
 15 39  1  6  0  0  0
 16 13  1  0  0  0  0
 17 21  2  0  0  0  0
 18 10  2  0  0  0  0
 19  4  2  0  0  0  0
 20 12  1  6  0  0  0
 20  9  1  0  0  0  0
 21  5  1  0  0  0  0
 22 23  1  0  0  0  0
 23 14  1  0  0  0  0
 23 16  2  0  0  0  0
 24 25  1  6  0  0  0
 26 24  1  0  0  0  0
 27 29  1  6  0  0  0
 28 26  1  6  0  0  0
 28 27  1  0  0  0  0
 30 32  1  1  0  0  0
 30 33  1  0  0  0  0
 30 31  1  0  0  0  0
 31 29  1  0  0  0  0
 33 28  1  0  0  0  0
 33 27  1  0  0  0  0
 34  1  1  0  0  0  0
 35 34  1  0  0  0  0
 37 38  2  0  0  0  0
 38 36  1  0  0  0  0
 38 35  1  0  0  0  0
 40 39  1  0  0  0  0
 40 41  1  0  0  0  0
 41 44  1  0  0  0  0
 42 43  1  0  0  0  0
 44 42  1  0  0  0  0
 44 43  1  0  0  0  0
 45 42  1  0  0  0  0
 45 47  1  0  0  0  0
 46 47  2  0  0  0  0
 48 49  1  0  0  0  0
 48 46  1  0  0  0  0
M  END
>  <MODEL>
5

>  <REMARK>
 VINA RESULT:      -6.5      2.924      6.041
  Name = 
  13 active torsions:
  status: ('A' for Active; 'I' for Inactive)
    1  A    between atoms: C_1  and  O_9
    2  A    between atoms: C_2  and  O_15
    3  A    between atoms: C_3  and  N_29
    4  A    between atoms: C_5  and  C_22
    5  A    between atoms: C_5  and  C_38
    6  A    between atoms: C_6  and  N_17
    7  A    between atoms: C_6  and  C_33
    8  A    between atoms: O_9  and  C_49
    9  A    between atoms: O_15  and  C_31
   10  A    between atoms: N_17  and  C_32
   11  A    between atoms: C_25  and  C_38
   12  A    between atoms: C_31  and  C_34
   13  A    between atoms: C_32  and  C_36
                            x       y       z     vdW  Elec       q    Type
                         _______ _______ _______ _____ _____    ______ ____

>  <TORSDO>
F 13

$$$$
=
 OpenBabel11042414063D

 49 56  0  0  1  0  0  0  0  0999 V2000
  186.1480  177.0290  139.3090 C   0  0  0  0  0  0  0  0  0  0  0  0
  190.6760  174.4950  141.4250 O   0  0  0  0  0  0  0  0  0  0  0  0
  186.9850  177.2360  143.5390 C   0  0  0  0  0  0  0  0  0  0  0  0
  188.6670  175.7030  141.6440 C   0  0  0  0  0  0  0  0  0  0  0  0
  187.5840  176.7380  147.1760 C   0  0  0  0  0  2  0  0  0  0  0  0
  187.5230  176.5530  139.7120 C   0  0  0  0  0  2  0  0  0  0  0  0
  186.0220  178.0090  144.3560 C   0  0  0  0  0  0  0  0  0  0  0  0
  191.4220  173.5390  142.0760 N   0  0  0  0  0  2  0  0  0  0  0  0
  189.7770  175.2040  144.5580 O   0  0  0  0  0  0  0  0  0  0  0  0
  188.8490  176.1600  144.9980 C   0  0  0  0  0  0  0  0  0  0  0  0
  188.9260  176.7670  146.3970 C   0  0  2  0  0  3  0  0  0  0  0  0
  189.5990  174.9370  142.1450 C   0  0  0  0  0  0  0  0  0  0  0  0
  185.1990  179.0530  143.6760 C   0  0  0  0  0  2  0  0  0  0  0  0
  187.1120  177.5710  142.0660 C   0  0  1  0  0  3  0  0  0  0  0  0
  190.7640  173.3520  143.3830 C   0  0  1  0  0  3  0  0  0  0  0  0
  184.9250  178.6670  142.2890 N   0  0  0  0  0  0  0  0  0  0  0  0
  186.2130  178.0380  145.6540 C   0  0  0  0  0  0  0  0  0  0  0  0
  187.9540  176.6440  144.1910 C   0  0  0  0  0  0  0  0  0  0  0  0
  187.7010  176.4700  141.1970 C   0  0  0  0  0  0  0  0  0  0  0  0
  189.5580  174.2910  143.4740 C   0  0  1  0  0  3  0  0  0  0  0  0
  186.6490  177.8900  146.8760 C   0  0  0  0  0  3  0  0  0  0  0  0
  185.3710  177.7180  140.1470 C   0  0  0  0  0  3  0  0  0  0  0  0
  185.7690  178.0290  141.5280 C   0  0  0  0  0  0  0  0  0  0  0  0
  190.0320  176.1660  147.2720 C   0  0  1  0  0  3  0  0  0  0  0  0
  189.8830  174.7790  147.3710 O   0  0  0  0  0  1  0  0  0  0  0  0
  191.4310  176.4970  146.7660 C   0  0  0  0  0  2  0  0  0  0  0  0
  193.7910  175.5050  146.7810 C   0  0  2  0  0  3  0  0  0  0  0  0
  192.2950  175.2400  146.6260 C   0  0  2  0  0  3  0  0  0  0  0  0
  194.0780  176.8830  146.8870 O   0  0  0  0  0  0  0  0  0  0  0  0
  193.5330  176.4470  144.6210 C   0  0  2  0  0  3  0  0  0  0  0  0
  194.2320  177.3780  145.5800 C   0  0  0  0  0  2  0  0  0  0  0  0
  192.3300  177.0480  144.0750 N   0  0  0  0  0  1  0  0  0  0  0  0
  193.2300  175.1910  145.4060 C   0  0  1  0  0  3  0  0  0  0  0  0
  185.6650  176.7870  138.0200 O   0  0  0  0  0  0  0  0  0  0  0  0
  186.2710  175.8510  137.1390 C   0  0  0  0  0  2  0  0  0  0  0  0
  185.6010  176.4110  134.8070 O   0  0  0  0  0  0  0  0  0  0  0  0
  187.5870  177.1780  135.6600 O   0  0  0  0  0  1  0  0  0  0  0  0
  186.5360  176.5050  135.8290 C   0  0  0  0  0  0  0  0  0  0  0  0
  190.2960  171.9170  143.5350 C   0  0  0  0  0  2  0  0  0  0  0  0
  189.9410  171.3650  142.2390 N   0  0  0  0  0  2  0  0  0  0  0  0
  190.8170  170.2290  142.0120 C   0  0  0  0  0  2  0  0  0  0  0  0
  190.4910  170.1350  139.5650 C   0  0  1  0  0  3  0  0  0  0  0  0
  191.4850  169.0510  139.9260 C   0  0  0  0  0  2  0  0  0  0  0  0
  191.5060  170.3760  140.6660 C   0  0  2  0  0  3  0  0  0  0  0  0
  190.9220  170.7890  138.3850 O   0  0  0  0  0  0  0  0  0  0  0  0
  189.3300  171.9720  137.1280 N   0  0  0  0  0  0  0  0  0  0  0  0
  190.0580  170.9080  137.2990 C   0  0  0  0  0  3  0  0  0  0  0  0
  189.3590  173.1060  138.0440 C   0  0  0  0  0  2  0  0  0  0  0  0
  188.2320  172.9910  139.0600 C   0  0  0  0  0  1  0  0  0  0  0  0
  1  6  1  0  0  0  0
  1 22  2  0  0  0  0
  2  8  1  0  0  0  0
  2 12  1  0  0  0  0
  3 18  2  0  0  0  0
  3  7  1  0  0  0  0
  4 12  2  0  0  0  0
  6 19  1  0  0  0  0
  7 17  2  0  0  0  0
  8 15  1  0  0  0  0
  9 10  1  0  0  0  0
 10 11  1  0  0  0  0
 11  5  1  0  0  0  0
 11 24  1  1  0  0  0
 13  7  1  0  0  0  0
 14 19  1  6  0  0  0
 14  3  1  0  0  0  0
 15 20  1  0  0  0  0
 15 39  1  6  0  0  0
 16 13  1  0  0  0  0
 17 21  2  0  0  0  0
 18 10  2  0  0  0  0
 19  4  2  0  0  0  0
 20 12  1  6  0  0  0
 20  9  1  0  0  0  0
 21  5  1  0  0  0  0
 22 23  1  0  0  0  0
 23 14  1  0  0  0  0
 23 16  2  0  0  0  0
 24 25  1  6  0  0  0
 26 24  1  0  0  0  0
 27 29  1  6  0  0  0
 28 26  1  6  0  0  0
 28 27  1  0  0  0  0
 30 32  1  1  0  0  0
 30 33  1  0  0  0  0
 30 31  1  0  0  0  0
 31 29  1  0  0  0  0
 33 28  1  0  0  0  0
 33 27  1  0  0  0  0
 34  1  1  0  0  0  0
 35 34  1  0  0  0  0
 36 38  2  0  0  0  0
 37 38  1  0  0  0  0
 38 35  1  0  0  0  0
 40 39  1  0  0  0  0
 41 40  1  0  0  0  0
 42 43  1  0  0  0  0
 42 44  1  0  0  0  0
 43 44  1  0  0  0  0
 44 41  1  0  0  0  0
 45 42  1  0  0  0  0
 46 47  2  0  0  0  0
 46 48  1  0  0  0  0
 47 45  1  0  0  0  0
 48 49  1  0  0  0  0
M  END
>  <MODEL>
6

>  <REMARK>
 VINA RESULT:      -6.3      3.539      6.444
  Name = 
  13 active torsions:
  status: ('A' for Active; 'I' for Inactive)
    1  A    between atoms: C_1  and  O_9
    2  A    between atoms: C_2  and  O_15
    3  A    between atoms: C_3  and  N_29
    4  A    between atoms: C_5  and  C_22
    5  A    between atoms: C_5  and  C_38
    6  A    between atoms: C_6  and  N_17
    7  A    between atoms: C_6  and  C_33
    8  A    between atoms: O_9  and  C_49
    9  A    between atoms: O_15  and  C_31
   10  A    between atoms: N_17  and  C_32
   11  A    between atoms: C_25  and  C_38
   12  A    between atoms: C_31  and  C_34
   13  A    between atoms: C_32  and  C_36
                            x       y       z     vdW  Elec       q    Type
                         _______ _______ _______ _____ _____    ______ ____

>  <TORSDO>
F 13

$$$$
=
 OpenBabel11042414063D

 49 56  0  0  1  0  0  0  0  0999 V2000
  183.5190  178.3890  141.8260 C   0  0  0  0  0  0  0  0  0  0  0  0
  188.1900  175.6490  140.3870 O   0  0  0  0  0  0  0  0  0  0  0  0
  186.3200  177.1140  144.8530 C   0  0  0  0  0  0  0  0  0  0  0  0
  186.6890  176.5210  141.9760 C   0  0  0  0  0  0  0  0  0  0  0  0
  188.5480  175.3810  147.2760 C   0  0  0  0  0  2  0  0  0  0  0  0
  184.8540  177.9160  141.3030 C   0  0  0  0  0  2  0  0  0  0  0  0
  185.9670  177.4540  146.2510 C   0  0  0  0  0  0  0  0  0  0  0  0
  189.0470  174.5870  140.1980 N   0  0  0  0  0  2  0  0  0  0  0  0
  189.0090  175.0920  143.5720 O   0  0  0  0  0  0  0  0  0  0  0  0
  188.5240  175.7420  144.7180 C   0  0  0  0  0  0  0  0  0  0  0  0
  189.3370  175.8040  146.0080 C   0  0  2  0  0  3  0  0  0  0  0  0
  187.6550  175.7070  141.6440 C   0  0  0  0  0  0  0  0  0  0  0  0
  185.0400  178.6010  146.4860 C   0  0  0  0  0  2  0  0  0  0  0  0
  185.7530  177.9710  143.7390 C   0  0  1  0  0  3  0  0  0  0  0  0
  189.0890  173.8840  141.4940 C   0  0  1  0  0  3  0  0  0  0  0  0
  184.0870  178.7240  145.3790 N   0  0  0  0  0  0  0  0  0  0  0  0
  186.7660  177.0250  147.2010 C   0  0  0  0  0  0  0  0  0  0  0  0
  187.4100  176.4090  144.6860 C   0  0  0  0  0  0  0  0  0  0  0  0
  185.7200  177.3140  142.3670 C   0  0  0  0  0  0  0  0  0  0  0  0
  188.1920  174.6210  142.4930 C   0  0  1  0  0  3  0  0  0  0  0  0
  187.7200  176.4800  147.9050 C   0  0  0  0  0  3  0  0  0  0  0  0
  183.3290  178.6590  143.1190 C   0  0  0  0  0  3  0  0  0  0  0  0
  184.3790  178.4780  144.1330 C   0  0  0  0  0  0  0  0  0  0  0  0
  190.6540  175.0200  145.9480 C   0  0  1  0  0  3  0  0  0  0  0  0
  190.4640  173.7840  145.3240 O   0  0  0  0  0  1  0  0  0  0  0  0
  191.7650  175.7860  145.2410 C   0  0  0  0  0  2  0  0  0  0  0  0
  193.9610  177.0570  145.5820 C   0  0  2  0  0  3  0  0  0  0  0  0
  192.7340  176.4290  146.2380 C   0  0  2  0  0  3  0  0  0  0  0  0
  194.0160  176.7950  144.1960 O   0  0  0  0  0  0  0  0  0  0  0  0
  194.5980  174.7890  145.3180 C   0  0  2  0  0  3  0  0  0  0  0  0
  194.6830  175.5690  144.0310 C   0  0  0  0  0  2  0  0  0  0  0  0
  193.7090  173.6480  145.1940 N   0  0  0  0  0  1  0  0  0  0  0  0
  194.1160  175.7670  146.3660 C   0  0  1  0  0  3  0  0  0  0  0  0
  182.4490  178.5920  140.9520 O   0  0  0  0  0  0  0  0  0  0  0  0
  181.1110  178.2500  141.2880 C   0  0  0  0  0  2  0  0  0  0  0  0
  179.1000  178.5410  139.8470 O   0  0  0  0  0  0  0  0  0  0  0  0
  180.3230  180.3630  140.5160 O   0  0  0  0  0  1  0  0  0  0  0  0
  180.1720  179.1130  140.5210 C   0  0  0  0  0  0  0  0  0  0  0  0
  188.5970  172.4580  141.3340 C   0  0  0  0  0  2  0  0  0  0  0  0
  189.7180  171.5620  141.1140 N   0  0  0  0  0  2  0  0  0  0  0  0
  190.1780  171.1350  142.4230 C   0  0  0  0  0  2  0  0  0  0  0  0
  192.4010  171.8540  141.6200 C   0  0  1  0  0  3  0  0  0  0  0  0
  192.6280  170.9470  142.8110 C   0  0  0  0  0  2  0  0  0  0  0  0
  191.4420  171.8930  142.7940 C   0  0  2  0  0  3  0  0  0  0  0  0
  193.2810  172.9600  141.7020 O   0  0  0  0  0  0  0  0  0  0  0  0
  193.7230  174.9160  140.4810 N   0  0  0  0  0  0  0  0  0  0  0  0
  192.9000  174.1940  141.1820 C   0  0  0  0  0  3  0  0  0  0  0  0
  195.0890  174.4980  140.1870 C   0  0  0  0  0  2  0  0  0  0  0  0
  196.0690  175.5950  140.5750 C   0  0  0  0  0  1  0  0  0  0  0  0
  1 22  2  0  0  0  0
  2 12  1  0  0  0  0
  3  7  1  0  0  0  0
  4 19  2  0  0  0  0
  5 21  1  0  0  0  0
  6  1  1  0  0  0  0
  6 19  1  0  0  0  0
  7 13  1  0  0  0  0
  7 17  2  0  0  0  0
  8  2  1  0  0  0  0
  8 15  1  0  0  0  0
  9 10  1  0  0  0  0
 10 11  1  0  0  0  0
 11 24  1  6  0  0  0
 11  5  1  0  0  0  0
 12  4  2  0  0  0  0
 14 19  1  6  0  0  0
 14 23  1  0  0  0  0
 14  3  1  0  0  0  0
 15 39  1  6  0  0  0
 15 20  1  0  0  0  0
 16 13  1  0  0  0  0
 17 21  2  0  0  0  0
 18 10  2  0  0  0  0
 18  3  2  0  0  0  0
 20 12  1  6  0  0  0
 20  9  1  0  0  0  0
 22 23  1  0  0  0  0
 23 16  2  0  0  0  0
 24 25  1  6  0  0  0
 26 24  1  0  0  0  0
 27 29  1  6  0  0  0
 27 28  1  0  0  0  0
 27 33  1  0  0  0  0
 28 26  1  6  0  0  0
 28 33  1  0  0  0  0
 30 32  1  6  0  0  0
 30 33  1  0  0  0  0
 31 29  1  0  0  0  0
 31 30  1  0  0  0  0
 34 35  1  0  0  0  0
 34  1  1  0  0  0  0
 36 38  2  0  0  0  0
 37 38  1  0  0  0  0
 38 35  1  0  0  0  0
 40 39  1  0  0  0  0
 40 41  1  0  0  0  0
 41 44  1  0  0  0  0
 42 45  1  0  0  0  0
 42 44  1  0  0  0  0
 42 43  1  0  0  0  0
 44 43  1  0  0  0  0
 46 47  2  0  0  0  0
 47 45  1  0  0  0  0
 48 46  1  0  0  0  0
 48 49  1  0  0  0  0
M  END
>  <MODEL>
7

>  <REMARK>
 VINA RESULT:      -6.3      2.660      5.714
  Name = 
  13 active torsions:
  status: ('A' for Active; 'I' for Inactive)
    1  A    between atoms: C_1  and  O_9
    2  A    between atoms: C_2  and  O_15
    3  A    between atoms: C_3  and  N_29
    4  A    between atoms: C_5  and  C_22
    5  A    between atoms: C_5  and  C_38
    6  A    between atoms: C_6  and  N_17
    7  A    between atoms: C_6  and  C_33
    8  A    between atoms: O_9  and  C_49
    9  A    between atoms: O_15  and  C_31
   10  A    between atoms: N_17  and  C_32
   11  A    between atoms: C_25  and  C_38
   12  A    between atoms: C_31  and  C_34
   13  A    between atoms: C_32  and  C_36
                            x       y       z     vdW  Elec       q    Type
                         _______ _______ _______ _____ _____    ______ ____

>  <TORSDO>
F 13

$$$$
=
 OpenBabel11042414063D

 49 56  0  0  1  0  0  0  0  0999 V2000
  186.5010  177.0690  145.4790 C   0  0  0  0  0  0  0  0  0  0  0  0
  188.8430  174.9420  140.8540 O   0  0  0  0  0  0  0  0  0  0  0  0
  190.7060  176.0940  145.4150 C   0  0  0  0  0  0  0  0  0  0  0  0
  188.9090  175.5990  143.1140 C   0  0  0  0  0  0  0  0  0  0  0  0
  194.1130  174.6060  145.3020 C   0  0  0  0  0  2  0  0  0  0  0  0
  187.0670  176.7710  144.1120 C   0  0  0  0  0  2  0  0  0  0  0  0
  191.4560  176.3650  146.6630 C   0  0  0  0  0  0  0  0  0  0  0  0
  189.3680  173.9960  140.0020 N   0  0  0  0  0  2  0  0  0  0  0  0
  191.7570  174.4360  142.3970 O   0  0  0  0  0  0  0  0  0  0  0  0
  192.2120  175.0030  143.5980 C   0  0  0  0  0  0  0  0  0  0  0  0
  193.7000  175.1420  143.9060 C   0  0  2  0  0  3  0  0  0  0  0  0
  189.3870  174.9140  142.1090 C   0  0  0  0  0  0  0  0  0  0  0  0
  190.9110  177.3870  147.6060 C   0  0  0  0  0  2  0  0  0  0  0  0
  189.4470  176.8940  145.1430 C   0  0  1  0  0  3  0  0  0  0  0  0
  190.3880  173.2810  140.7920 C   0  0  1  0  0  3  0  0  0  0  0  0
  189.4460  177.4110  147.5450 N   0  0  0  0  0  0  0  0  0  0  0  0
  192.7230  176.0210  146.6970 C   0  0  0  0  0  0  0  0  0  0  0  0
  191.3800  175.5300  144.4450 C   0  0  0  0  0  0  0  0  0  0  0  0
  188.4750  176.2610  144.1590 C   0  0  0  0  0  0  0  0  0  0  0  0
  190.4480  173.8870  142.1970 C   0  0  1  0  0  3  0  0  0  0  0  0
  193.9260  175.5850  146.4400 C   0  0  0  0  0  3  0  0  0  0  0  0
  187.2910  177.2920  146.5320 C   0  0  0  0  0  3  0  0  0  0  0  0
  188.7580  177.2240  146.4540 C   0  0  0  0  0  0  0  0  0  0  0  0
  194.6120  174.5260  142.8380 C   0  0  1  0  0  3  0  0  0  0  0  0
  195.7370  175.3290  142.6260 O   0  0  0  0  0  1  0  0  0  0  0  0
  195.0520  173.1080  143.1820 C   0  0  0  0  0  2  0  0  0  0  0  0
  193.2900  171.2800  142.8520 C   0  0  2  0  0  3  0  0  0  0  0  0
  194.4350  172.0770  142.2330 C   0  0  2  0  0  3  0  0  0  0  0  0
  193.1260  171.5670  144.2250 O   0  0  0  0  0  0  0  0  0  0  0  0
  195.0660  170.2210  144.0120 C   0  0  2  0  0  3  0  0  0  0  0  0
  193.9750  170.7010  144.9360 C   0  0  0  0  0  2  0  0  0  0  0  0
  196.3500  170.8060  144.3520 N   0  0  0  0  0  1  0  0  0  0  0  0
  194.6260  170.6000  142.6160 C   0  0  1  0  0  3  0  0  0  0  0  0
  185.1200  177.1550  145.6700 O   0  0  0  0  0  0  0  0  0  0  0  0
  184.4390  178.3980  145.7810 C   0  0  0  0  0  2  0  0  0  0  0  0
  185.3100  180.1760  144.2700 O   0  0  0  0  0  1  0  0  0  0  0  0
  183.7440  178.6770  143.5190 O   0  0  0  0  0  0  0  0  0  0  0  0
  184.4610  179.0930  144.4660 C   0  0  0  0  0  0  0  0  0  0  0  0
  190.0380  171.8090  140.8940 C   0  0  0  0  0  2  0  0  0  0  0  0
  190.9670  171.0170  140.1080 N   0  0  0  0  0  2  0  0  0  0  0  0
  190.2300  170.5240  138.9580 C   0  0  0  0  0  2  0  0  0  0  0  0
  189.5900  172.0290  137.1060 C   0  0  1  0  0  3  0  0  0  0  0  0
  189.9680  170.6980  136.4900 C   0  0  0  0  0  2  0  0  0  0  0  0
  190.7250  171.2160  137.6990 C   0  0  2  0  0  3  0  0  0  0  0  0
  190.1290  173.0760  136.3200 O   0  0  0  0  0  0  0  0  0  0  0  0
  189.0060  174.2890  134.6530 N   0  0  0  0  0  0  0  0  0  0  0  0
  189.7040  173.2500  135.0050 C   0  0  0  0  0  3  0  0  0  0  0  0
  188.6180  175.3370  135.5890 C   0  0  0  0  0  2  0  0  0  0  0  0
  187.6960  176.3370  134.9080 C   0  0  0  0  0  1  0  0  0  0  0  0
  1 34  1  0  0  0  0
  1 22  2  0  0  0  0
  2 12  1  0  0  0  0
  3  7  1  0  0  0  0
  4 19  2  0  0  0  0
  5 21  1  0  0  0  0
  6 19  1  0  0  0  0
  6  1  1  0  0  0  0
  7 17  2  0  0  0  0
  7 13  1  0  0  0  0
  8 15  1  0  0  0  0
  8  2  1  0  0  0  0
  9 10  1  0  0  0  0
 10 11  1  0  0  0  0
 10 18  2  0  0  0  0
 11 24  1  6  0  0  0
 11  5  1  0  0  0  0
 12  4  2  0  0  0  0
 14 19  1  6  0  0  0
 14  3  1  0  0  0  0
 14 23  1  0  0  0  0
 15 39  1  1  0  0  0
 15 20  1  0  0  0  0
 16 13  1  0  0  0  0
 18  3  2  0  0  0  0
 20 12  1  6  0  0  0
 20  9  1  0  0  0  0
 21 17  2  0  0  0  0
 23 22  1  0  0  0  0
 23 16  2  0  0  0  0
 24 25  1  1  0  0  0
 24 26  1  0  0  0  0
 27 29  1  1  0  0  0
 28 33  1  0  0  0  0
 28 27  1  0  0  0  0
 28 26  1  1  0  0  0
 29 31  1  0  0  0  0
 30 32  1  1  0  0  0
 30 31  1  0  0  0  0
 33 27  1  0  0  0  0
 33 30  1  0  0  0  0
 34 35  1  0  0  0  0
 36 38  1  0  0  0  0
 37 38  2  0  0  0  0
 38 35  1  0  0  0  0
 40 39  1  0  0  0  0
 41 40  1  0  0  0  0
 42 44  1  0  0  0  0
 43 42  1  0  0  0  0
 43 44  1  0  0  0  0
 44 41  1  0  0  0  0
 45 42  1  0  0  0  0
 46 47  2  0  0  0  0
 46 48  1  0  0  0  0
 47 45  1  0  0  0  0
 49 48  1  0  0  0  0
M  END
>  <MODEL>
8

>  <REMARK>
 VINA RESULT:      -6.3      2.783      5.809
  Name = 
  13 active torsions:
  status: ('A' for Active; 'I' for Inactive)
    1  A    between atoms: C_1  and  O_9
    2  A    between atoms: C_2  and  O_15
    3  A    between atoms: C_3  and  N_29
    4  A    between atoms: C_5  and  C_22
    5  A    between atoms: C_5  and  C_38
    6  A    between atoms: C_6  and  N_17
    7  A    between atoms: C_6  and  C_33
    8  A    between atoms: O_9  and  C_49
    9  A    between atoms: O_15  and  C_31
   10  A    between atoms: N_17  and  C_32
   11  A    between atoms: C_25  and  C_38
   12  A    between atoms: C_31  and  C_34
   13  A    between atoms: C_32  and  C_36
                            x       y       z     vdW  Elec       q    Type
                         _______ _______ _______ _____ _____    ______ ____

>  <TORSDO>
F 13

$$$$
=
 OpenBabel11042414063D

 49 56  0  0  1  0  0  0  0  0999 V2000
  192.2000  175.9360  146.0350 C   0  0  0  0  0  0  0  0  0  0  0  0
  188.6700  178.3440  142.4090 O   0  0  0  0  0  0  0  0  0  0  0  0
  190.8000  173.7580  142.5810 C   0  0  0  0  0  0  0  0  0  0  0  0
  189.8990  176.5060  143.2170 C   0  0  0  0  0  0  0  0  0  0  0  0
  188.9800  171.9160  139.9110 C   0  0  0  0  0  2  0  0  0  0  0  0
  191.4870  176.7710  144.9990 C   0  0  0  0  0  2  0  0  0  0  0  0
  191.3140  172.3770  142.4290 C   0  0  0  0  0  0  0  0  0  0  0  0
  187.4800  178.6400  141.7840 N   0  0  0  0  0  2  0  0  0  0  0  0
  188.2890  175.5120  140.6890 O   0  0  0  0  0  0  0  0  0  0  0  0
  189.1050  174.3710  140.7060 C   0  0  0  0  0  0  0  0  0  0  0  0
  189.1620  173.4070  139.5230 C   0  0  2  0  0  3  0  0  0  0  0  0
  188.9220  177.0030  142.5060 C   0  0  0  0  0  0  0  0  0  0  0  0
  192.6040  172.0280  143.0960 C   0  0  0  0  0  2  0  0  0  0  0  0
  191.6270  174.7520  143.3710 C   0  0  1  0  0  3  0  0  0  0  0  0
  186.8990  177.3360  141.4120 C   0  0  1  0  0  3  0  0  0  0  0  0
  192.7680  172.7990  144.3320 N   0  0  0  0  0  0  0  0  0  0  0  0
  190.8580  171.6660  141.4240 C   0  0  0  0  0  0  0  0  0  0  0  0
  189.9270  174.1520  141.6880 C   0  0  0  0  0  0  0  0  0  0  0  0
  190.8610  175.9480  143.9140 C   0  0  0  0  0  0  0  0  0  0  0  0
  187.8500  176.2200  141.8550 C   0  0  1  0  0  3  0  0  0  0  0  0
  190.2430  171.2170  140.3640 C   0  0  0  0  0  3  0  0  0  0  0  0
  192.6120  174.6940  145.7710 C   0  0  0  0  0  3  0  0  0  0  0  0
  192.3690  174.0310  144.4810 C   0  0  0  0  0  0  0  0  0  0  0  0
  188.1870  173.7590  138.3930 C   0  0  1  0  0  3  0  0  0  0  0  0
  187.8490  175.1150  138.4370 O   0  0  0  0  0  1  0  0  0  0  0  0
  188.7320  173.4100  137.0130 C   0  0  0  0  0  2  0  0  0  0  0  0
  190.7180  173.7580  135.4360 C   0  0  2  0  0  3  0  0  0  0  0  0
  190.2100  173.7880  136.8750 C   0  0  2  0  0  3  0  0  0  0  0  0
  189.7500  173.2520  134.5410 O   0  0  0  0  0  0  0  0  0  0  0  0
  190.6020  171.4140  135.7720 C   0  0  2  0  0  3  0  0  0  0  0  0
  189.8980  171.8550  134.5140 C   0  0  0  0  0  2  0  0  0  0  0  0
  189.7030  170.7100  136.6690 N   0  0  0  0  0  1  0  0  0  0  0  0
  191.1560  172.6720  136.4020 C   0  0  1  0  0  3  0  0  0  0  0  0
  192.4820  176.4630  147.2970 O   0  0  0  0  0  0  0  0  0  0  0  0
  191.5930  176.3280  148.3990 C   0  0  0  0  0  2  0  0  0  0  0  0
  191.5670  178.3010  149.9190 O   0  0  0  0  0  1  0  0  0  0  0  0
  190.2240  178.2490  148.0600 O   0  0  0  0  0  0  0  0  0  0  0  0
  191.0750  177.6690  148.7840 C   0  0  0  0  0  0  0  0  0  0  0  0
  185.5540  177.1480  142.0890 C   0  0  0  0  0  2  0  0  0  0  0  0
  184.6670  178.2490  141.7570 N   0  0  0  0  0  2  0  0  0  0  0  0
  183.9080  178.5540  142.9570 C   0  0  0  0  0  2  0  0  0  0  0  0
  184.0730  178.9170  145.3950 C   0  0  1  0  0  3  0  0  0  0  0  0
  185.2020  179.6930  144.7500 C   0  0  0  0  0  2  0  0  0  0  0  0
  184.7840  178.3500  144.1820 C   0  0  2  0  0  3  0  0  0  0  0  0
  184.5550  178.2740  146.5600 O   0  0  0  0  0  0  0  0  0  0  0  0
  186.7220  177.9310  147.3960 N   0  0  0  0  0  0  0  0  0  0  0  0
  185.7190  178.7270  147.1760 C   0  0  0  0  0  3  0  0  0  0  0  0
  186.7100  176.5210  147.0210 C   0  0  0  0  0  2  0  0  0  0  0  0
  188.0610  176.1170  146.4500 C   0  0  0  0  0  1  0  0  0  0  0  0
  1 34  1  0  0  0  0
  2 12  1  0  0  0  0
  4 19  2  0  0  0  0
  5 21  1  0  0  0  0
  6  1  1  0  0  0  0
  7  3  1  0  0  0  0
  7 13  1  0  0  0  0
  8  2  1  0  0  0  0
  9 10  1  0  0  0  0
 10 18  2  0  0  0  0
 11 24  1  6  0  0  0
 11  5  1  0  0  0  0
 11 10  1  0  0  0  0
 12  4  2  0  0  0  0
 13 16  1  0  0  0  0
 14  3  1  1  0  0  0
 14 19  1  0  0  0  0
 14 23  1  0  0  0  0
 15  8  1  0  0  0  0
 15 20  1  0  0  0  0
 15 39  1  1  0  0  0
 16 23  2  0  0  0  0
 17  7  2  0  0  0  0
 18  3  2  0  0  0  0
 19  6  1  0  0  0  0
 20  9  1  6  0  0  0
 20 12  1  0  0  0  0
 21 17  2  0  0  0  0
 22  1  2  0  0  0  0
 23 22  1  0  0  0  0
 24 25  1  6  0  0  0
 26 24  1  0  0  0  0
 27 29  1  6  0  0  0
 27 33  1  0  0  0  0
 27 28  1  0  0  0  0
 28 26  1  6  0  0  0
 30 33  1  0  0  0  0
 30 32  1  1  0  0  0
 31 29  1  0  0  0  0
 31 30  1  0  0  0  0
 33 28  1  0  0  0  0
 34 35  1  0  0  0  0
 35 38  1  0  0  0  0
 37 38  2  0  0  0  0
 38 36  1  0  0  0  0
 40 39  1  0  0  0  0
 40 41  1  0  0  0  0
 41 44  1  0  0  0  0
 42 45  1  0  0  0  0
 43 42  1  0  0  0  0
 44 43  1  0  0  0  0
 44 42  1  0  0  0  0
 45 47  1  0  0  0  0
 47 46  2  0  0  0  0
 48 46  1  0  0  0  0
 49 48  1  0  0  0  0
M  END
>  <MODEL>
9

>  <REMARK>
 VINA RESULT:      -6.3      3.447      8.413
  Name = 
  13 active torsions:
  status: ('A' for Active; 'I' for Inactive)
    1  A    between atoms: C_1  and  O_9
    2  A    between atoms: C_2  and  O_15
    3  A    between atoms: C_3  and  N_29
    4  A    between atoms: C_5  and  C_22
    5  A    between atoms: C_5  and  C_38
    6  A    between atoms: C_6  and  N_17
    7  A    between atoms: C_6  and  C_33
    8  A    between atoms: O_9  and  C_49
    9  A    between atoms: O_15  and  C_31
   10  A    between atoms: N_17  and  C_32
   11  A    between atoms: C_25  and  C_38
   12  A    between atoms: C_31  and  C_34
   13  A    between atoms: C_32  and  C_36
                            x       y       z     vdW  Elec       q    Type
                         _______ _______ _______ _____ _____    ______ ____

>  <TORSDO>
F 13

$$$$
