=
 OpenBabel11042415433D

 59 62  0  0  1  0  0  0  0  0999 V2000
  189.3100  174.7520  143.9030 C   0  0  0  0  0  2  0  0  0  0  0  0
  191.4670  173.6710  143.2170 C   0  0  0  0  0  3  0  0  0  0  0  0
  191.1510  174.1150  145.5890 C   0  0  0  0  0  2  0  0  0  0  0  0
  192.0480  173.8820  144.4020 C   0  0  0  0  0  0  0  0  0  0  0  0
  189.9700  173.6110  143.1150 C   0  0  2  0  0  3  0  0  0  0  0  0
  190.0280  175.0990  145.2240 C   0  0  2  0  0  3  0  0  0  0  0  0
  193.5270  173.9650  144.5550 C   0  0  0  0  0  0  0  0  0  0  0  0
  193.7690  171.5460  145.3350 C   0  0  0  0  0  1  0  0  0  0  0  0
  194.1380  175.1980  144.2820 C   0  0  0  0  0  3  0  0  0  0  0  0
  196.5510  171.9860  145.4560 O   0  0  0  0  0  1  0  0  0  0  0  0
  194.3460  172.8760  144.9580 C   0  0  0  0  0  0  0  0  0  0  0  0
  195.7400  173.0480  145.0610 C   0  0  0  0  0  0  0  0  0  0  0  0
  197.7000  174.4450  144.8770 O   0  0  0  0  0  1  0  0  0  0  0  0
  196.3230  174.2880  144.7720 C   0  0  0  0  0  0  0  0  0  0  0  0
  195.5240  175.3690  144.3860 C   0  0  0  0  0  0  0  0  0  0  0  0
  196.8160  176.8660  142.8960 C   0  0  0  0  0  1  0  0  0  0  0  0
  196.1260  176.6020  144.1120 O   0  0  0  0  0  0  0  0  0  0  0  0
  189.0980  175.1760  146.2610 O   0  0  0  0  0  0  0  0  0  0  0  0
  189.0850  176.5250  146.6370 C   0  0  0  0  0  2  0  0  0  0  0  0
  187.9700  177.2610  145.9130 C   0  0  0  0  0  2  0  0  0  0  0  0
  186.7680  177.2640  146.7320 N   0  0  0  0  0  2  0  0  0  0  0  0
  185.6810  176.7970  145.8870 C   0  0  0  0  0  2  0  0  0  0  0  0
  184.8530  177.9610  145.4370 C   0  0  0  0  0  0  0  0  0  0  0  0
  184.3520  178.7030  146.2670 O   0  0  0  0  0  0  0  0  0  0  0  0
  184.6200  178.2320  143.9810 C   0  0  1  0  0  3  0  0  0  0  0  0
  183.3360  178.8910  143.7730 N   0  0  0  0  0  2  0  0  0  0  0  0
  182.5460  178.6870  142.5980 C   0  0  0  0  0  0  0  0  0  0  0  0
  182.9140  177.8790  141.7060 O   0  0  0  0  0  0  0  0  0  0  0  0
  181.2510  179.4110  142.4470 C   0  0  0  0  0  2  0  0  0  0  0  0
  180.0120  180.2040  140.4320 C   0  0  0  0  0  1  0  0  0  0  0  0
  179.3820  178.0760  141.5200 C   0  0  0  0  0  1  0  0  0  0  0  0
  180.5410  178.9860  141.1690 C   0  0  0  0  0  3  0  0  0  0  0  0
  185.7270  179.0760  143.4210 C   0  0  0  0  0  3  0  0  0  0  0  0
  186.4530  178.7150  142.3520 C   0  0  0  0  0  3  0  0  0  0  0  0
  186.2440  177.4250  141.6160 C   0  0  1  0  0  3  0  0  0  0  0  0
  185.9240  177.7050  140.1800 C   0  0  0  0  0  2  0  0  0  0  0  0
  186.9680  177.0470  139.4160 N   0  0  0  0  0  2  0  0  0  0  0  0
  187.5800  176.1320  140.2940 N   0  0  0  0  0  2  0  0  0  0  0  0
  187.4770  176.6630  141.5930 N   0  0  0  0  0  2  0  0  0  0  0  0
  189.5800  173.6650  141.7760 O   0  0  0  0  0  0  0  0  0  0  0  0
  189.6570  172.3430  141.3280 C   0  0  0  0  0  2  0  0  0  0  0  0
  191.2620  171.3810  139.8640 O   0  0  0  0  0  1  0  0  0  0  0  0
  190.2200  172.3100  139.9130 C   0  0  1  0  0  3  0  0  0  0  0  0
  189.1360  171.9330  138.8960 C   0  0  1  0  0  3  0  0  0  0  0  0
  187.8960  172.4140  139.3270 O   0  0  0  0  0  1  0  0  0  0  0  0
  189.4410  172.5100  137.5080 C   0  0  2  0  0  3  0  0  0  0  0  0
  189.8200  170.1630  137.1350 O   0  0  0  0  0  1  0  0  0  0  0  0
  189.9560  171.4290  136.5600 C   0  0  0  0  0  2  0  0  0  0  0  0
  190.3760  173.5510  137.5830 O   0  0  0  0  0  0  0  0  0  0  0  0
  190.7710  173.7860  136.2600 C   0  0  2  0  0  3  0  0  0  0  0  0
  193.2240  172.2620  137.1030 O   0  0  0  0  0  1  0  0  0  0  0  0
  194.2810  174.3510  137.5530 C   0  0  0  0  0  2  0  0  0  0  0  0
  193.7310  176.1210  136.2760 C   0  0  0  0  0  2  0  0  0  0  0  0
  192.1910  174.1740  136.2150 N   0  0  0  0  0  0  0  0  0  0  0  0
  192.2740  175.6390  136.1800 C   0  0  0  0  0  2  0  0  0  0  0  0
  194.6320  175.0440  136.3820 O   0  0  0  0  0  0  0  0  0  0  0  0
  192.9560  173.6080  137.3460 C   0  0  1  0  0  3  0  0  0  0  0  0
  189.8250  174.8000  135.6090 C   0  0  0  0  0  2  0  0  0  0  0  0
  189.0160  174.1730  134.6600 O   0  0  0  0  0  1  0  0  0  0  0  0
  1  6  1  0  0  0  0
  2  4  2  0  0  0  0
  4  7  1  0  0  0  0
  4  3  1  0  0  0  0
  5 40  1  6  0  0  0
  5  2  1  0  0  0  0
  5  1  1  0  0  0  0
  6  3  1  0  0  0  0
  6 18  1  1  0  0  0
  7 11  1  0  0  0  0
  9 15  1  0  0  0  0
  9  7  2  0  0  0  0
 11 12  2  0  0  0  0
 11  8  1  0  0  0  0
 12 10  1  0  0  0  0
 14 13  1  0  0  0  0
 14 12  1  0  0  0  0
 15 14  2  0  0  0  0
 16 17  1  0  0  0  0
 17 15  1  0  0  0  0
 18 19  1  0  0  0  0
 20 19  1  0  0  0  0
 20 21  1  0  0  0  0
 22 21  1  0  0  0  0
 23 22  1  0  0  0  0
 23 24  2  0  0  0  0
 25 33  1  1  0  0  0
 25 23  1  0  0  0  0
 26 25  1  0  0  0  0
 27 26  1  0  0  0  0
 28 27  2  0  0  0  0
 29 27  1  0  0  0  0
 30 32  1  0  0  0  0
 32 31  1  0  0  0  0
 32 29  1  0  0  0  0
 34 33  2  0  0  0  0
 35 34  1  1  0  0  0
 36 35  1  0  0  0  0
 37 36  1  0  0  0  0
 37 38  1  0  0  0  0
 38 39  1  0  0  0  0
 39 35  1  0  0  0  0
 41 40  1  0  0  0  0
 43 42  1  1  0  0  0
 43 41  1  0  0  0  0
 44 45  1  1  0  0  0
 44 43  1  0  0  0  0
 46 48  1  6  0  0  0
 46 49  1  0  0  0  0
 46 44  1  0  0  0  0
 48 47  1  0  0  0  0
 50 58  1  1  0  0  0
 50 49  1  0  0  0  0
 53 56  1  0  0  0  0
 54 50  1  0  0  0  0
 54 57  1  0  0  0  0
 55 54  1  0  0  0  0
 55 53  1  0  0  0  0
 56 52  1  0  0  0  0
 57 51  1  6  0  0  0
 57 52  1  0  0  0  0
 59 58  1  0  0  0  0
M  END
>  <MODEL>
1

>  <REMARK>
 VINA RESULT:      -6.2      0.000      0.000
  Name = 
  24 active torsions:
  status: ('A' for Active; 'I' for Inactive)
    1  A    between atoms: C_3  and  C_17
    2  A    between atoms: C_6  and  N_24
    3  A    between atoms: C_6  and  C_48
    4  A    between atoms: C_7  and  C_56
    5  A    between atoms: N_10  and  C_43
    6  A    between atoms: C_12  and  C_16
    7  A    between atoms: C_13  and  C_32
    8  A    between atoms: C_14  and  N_24
    9  A    between atoms: C_14  and  C_55
   10  A    between atoms: O_15  and  C_48
   11  A    between atoms: O_15  and  C_52
   12  A    between atoms: C_16  and  O_29
   13  A    between atoms: C_16  and  N_34
   14  A    between atoms: C_21  and  C_33
   15  A    between atoms: C_21  and  C_46
   16  A    between atoms: O_23  and  C_31
   17  A    between atoms: O_23  and  C_40
   18  A    between atoms: O_29  and  C_33
   19  A    between atoms: C_31  and  C_46
   20  A    between atoms: C_32  and  C_58
   21  A    between atoms: C_33  and  C_35
   22  A    between atoms: C_38  and  C_43
   23  A    between atoms: C_43  and  C_55
   24  A    between atoms: C_45  and  O_49
                            x       y       z     vdW  Elec       q    Type
                         _______ _______ _______ _____ _____    ______ ____

>  <TORSDO>
F 24

$$$$
=
 OpenBabel11042415433D

 59 62  0  0  1  0  0  0  0  0999 V2000
  190.4110  175.6000  142.0350 C   0  0  0  0  0  2  0  0  0  0  0  0
  189.5210  176.9500  143.9530 C   0  0  0  0  0  3  0  0  0  0  0  0
  188.2070  175.0280  143.2410 C   0  0  0  0  0  2  0  0  0  0  0  0
  188.3160  176.3730  143.9100 C   0  0  0  0  0  0  0  0  0  0  0  0
  190.7180  176.2290  143.4020 C   0  0  2  0  0  3  0  0  0  0  0  0
  188.9840  175.0280  141.9140 C   0  0  2  0  0  3  0  0  0  0  0  0
  187.0940  177.0500  144.4290 C   0  0  0  0  0  0  0  0  0  0  0  0
  187.5930  176.4880  146.8690 C   0  0  0  0  0  1  0  0  0  0  0  0
  186.2290  177.6300  143.4900 C   0  0  0  0  0  3  0  0  0  0  0  0
  185.2540  177.9070  147.5510 O   0  0  0  0  0  1  0  0  0  0  0  0
  186.7610  177.1390  145.8070 C   0  0  0  0  0  0  0  0  0  0  0  0
  185.5900  177.8140  146.2020 C   0  0  0  0  0  0  0  0  0  0  0  0
  183.5960  179.0560  145.6460 O   0  0  0  0  0  1  0  0  0  0  0  0
  184.7500  178.3930  145.2430 C   0  0  0  0  0  0  0  0  0  0  0  0
  185.0620  178.2990  143.8840 C   0  0  0  0  0  0  0  0  0  0  0  0
  183.5810  178.1230  141.9060 C   0  0  0  0  0  1  0  0  0  0  0  0
  184.2040  178.8760  142.9410 O   0  0  0  0  0  0  0  0  0  0  0  0
  189.0340  173.7380  141.3850 O   0  0  0  0  0  0  0  0  0  0  0  0
  189.9540  173.0520  142.1890 C   0  0  0  0  0  2  0  0  0  0  0  0
  190.1640  171.6430  141.6630 C   0  0  0  0  0  2  0  0  0  0  0  0
  190.1090  171.6450  140.2090 N   0  0  0  0  0  2  0  0  0  0  0  0
  190.9640  170.5610  139.7540 C   0  0  0  0  0  2  0  0  0  0  0  0
  191.6480  170.9580  138.4810 C   0  0  0  0  0  0  0  0  0  0  0  0
  192.4620  170.2030  137.9720 O   0  0  0  0  0  0  0  0  0  0  0  0
  191.3570  172.2710  137.8200 C   0  0  1  0  0  3  0  0  0  0  0  0
  192.5900  172.9860  137.5150 N   0  0  0  0  0  2  0  0  0  0  0  0
  193.1860  173.9190  138.4210 C   0  0  0  0  0  0  0  0  0  0  0  0
  192.6830  174.1270  139.5560 O   0  0  0  0  0  0  0  0  0  0  0  0
  194.4400  174.6260  138.0310 C   0  0  0  0  0  2  0  0  0  0  0  0
  196.0740  174.9720  139.8850 C   0  0  0  0  0  1  0  0  0  0  0  0
  196.7850  173.8700  137.7900 C   0  0  0  0  0  1  0  0  0  0  0  0
  195.6390  174.0430  138.7650 C   0  0  0  0  0  3  0  0  0  0  0  0
  190.5610  172.0610  136.5650 C   0  0  0  0  0  3  0  0  0  0  0  0
  189.6510  172.9420  136.1210 C   0  0  0  0  0  3  0  0  0  0  0  0
  189.3230  174.2160  136.8390 C   0  0  1  0  0  3  0  0  0  0  0  0
  188.8330  175.2390  135.8600 C   0  0  0  0  0  2  0  0  0  0  0  0
  187.4930  175.5830  136.2990 N   0  0  0  0  0  2  0  0  0  0  0  0
  187.3850  175.1260  137.6270 N   0  0  0  0  0  2  0  0  0  0  0  0
  188.2190  173.9990  137.7530 N   0  0  0  0  0  2  0  0  0  0  0  0
  191.7960  177.1080  143.2940 O   0  0  0  0  0  0  0  0  0  0  0  0
  192.7270  176.6480  144.2310 C   0  0  0  0  0  2  0  0  0  0  0  0
  193.9560  176.3980  142.2140 O   0  0  0  0  0  1  0  0  0  0  0  0
  193.8550  175.9120  143.5190 C   0  0  1  0  0  3  0  0  0  0  0  0
  195.1880  176.1020  144.2510 C   0  0  1  0  0  3  0  0  0  0  0  0
  194.9720  176.7760  145.4580 O   0  0  0  0  0  1  0  0  0  0  0  0
  195.8660  174.7580  144.5450 C   0  0  2  0  0  3  0  0  0  0  0  0
  197.5150  175.8090  143.1430 O   0  0  0  0  0  1  0  0  0  0  0  0
  197.2910  174.7260  143.9960 C   0  0  0  0  0  2  0  0  0  0  0  0
  195.1340  173.6900  144.0100 O   0  0  0  0  0  0  0  0  0  0  0  0
  195.9580  172.5680  144.1610 C   0  0  2  0  0  3  0  0  0  0  0  0
  197.9310  170.7010  142.8660 O   0  0  0  0  0  1  0  0  0  0  0  0
  196.7420  170.9800  140.8180 C   0  0  0  0  0  2  0  0  0  0  0  0
  194.5180  171.3080  140.9120 C   0  0  0  0  0  2  0  0  0  0  0  0
  195.7920  171.6570  143.0150 N   0  0  0  0  0  0  0  0  0  0  0  0
  194.6620  172.1290  142.2050 C   0  0  0  0  0  2  0  0  0  0  0  0
  195.5070  170.3110  140.8130 O   0  0  0  0  0  0  0  0  0  0  0  0
  197.0300  171.5420  142.2160 C   0  0  1  0  0  3  0  0  0  0  0  0
  195.6990  171.9140  145.5210 C   0  0  0  0  0  2  0  0  0  0  0  0
  194.3290  171.8730  145.7890 O   0  0  0  0  0  1  0  0  0  0  0  0
  1  5  1  0  0  0  0
  3  4  1  0  0  0  0
  4  2  2  0  0  0  0
  4  7  1  0  0  0  0
  5 40  1  6  0  0  0
  5  2  1  0  0  0  0
  6 18  1  1  0  0  0
  6  1  1  0  0  0  0
  6  3  1  0  0  0  0
  7 11  1  0  0  0  0
  9 15  1  0  0  0  0
  9  7  2  0  0  0  0
 11 12  2  0  0  0  0
 11  8  1  0  0  0  0
 12 10  1  0  0  0  0
 14 13  1  0  0  0  0
 14 12  1  0  0  0  0
 15 14  2  0  0  0  0
 16 17  1  0  0  0  0
 17 15  1  0  0  0  0
 18 19  1  0  0  0  0
 20 19  1  0  0  0  0
 21 20  1  0  0  0  0
 22 21  1  0  0  0  0
 23 22  1  0  0  0  0
 24 23  2  0  0  0  0
 25 33  1  6  0  0  0
 25 23  1  0  0  0  0
 26 25  1  0  0  0  0
 26 27  1  0  0  0  0
 27 28  2  0  0  0  0
 29 27  1  0  0  0  0
 29 32  1  0  0  0  0
 31 32  1  0  0  0  0
 32 30  1  0  0  0  0
 34 33  2  0  0  0  0
 35 34  1  6  0  0  0
 35 39  1  0  0  0  0
 36 37  1  0  0  0  0
 36 35  1  0  0  0  0
 37 38  1  0  0  0  0
 38 39  1  0  0  0  0
 40 41  1  0  0  0  0
 43 42  1  6  0  0  0
 43 41  1  0  0  0  0
 43 44  1  0  0  0  0
 44 46  1  0  0  0  0
 44 45  1  1  0  0  0
 46 48  1  6  0  0  0
 47 48  1  0  0  0  0
 49 50  1  0  0  0  0
 49 46  1  0  0  0  0
 50 58  1  1  0  0  0
 52 57  1  0  0  0  0
 53 55  1  0  0  0  0
 54 50  1  0  0  0  0
 55 54  1  0  0  0  0
 56 52  1  0  0  0  0
 56 53  1  0  0  0  0
 57 51  1  1  0  0  0
 57 54  1  0  0  0  0
 58 59  1  0  0  0  0
M  END
>  <MODEL>
2

>  <REMARK>
 VINA RESULT:      -6.1      2.846      9.671
  Name = 
  24 active torsions:
  status: ('A' for Active; 'I' for Inactive)
    1  A    between atoms: C_3  and  C_17
    2  A    between atoms: C_6  and  N_24
    3  A    between atoms: C_6  and  C_48
    4  A    between atoms: C_7  and  C_56
    5  A    between atoms: N_10  and  C_43
    6  A    between atoms: C_12  and  C_16
    7  A    between atoms: C_13  and  C_32
    8  A    between atoms: C_14  and  N_24
    9  A    between atoms: C_14  and  C_55
   10  A    between atoms: O_15  and  C_48
   11  A    between atoms: O_15  and  C_52
   12  A    between atoms: C_16  and  O_29
   13  A    between atoms: C_16  and  N_34
   14  A    between atoms: C_21  and  C_33
   15  A    between atoms: C_21  and  C_46
   16  A    between atoms: O_23  and  C_31
   17  A    between atoms: O_23  and  C_40
   18  A    between atoms: O_29  and  C_33
   19  A    between atoms: C_31  and  C_46
   20  A    between atoms: C_32  and  C_58
   21  A    between atoms: C_33  and  C_35
   22  A    between atoms: C_38  and  C_43
   23  A    between atoms: C_43  and  C_55
   24  A    between atoms: C_45  and  O_49
                            x       y       z     vdW  Elec       q    Type
                         _______ _______ _______ _____ _____    ______ ____

>  <TORSDO>
F 24

$$$$
=
 OpenBabel11042415433D

 59 62  0  0  1  0  0  0  0  0999 V2000
  190.8850  175.1240  142.2390 C   0  0  0  0  0  2  0  0  0  0  0  0
  189.4530  176.6570  143.6140 C   0  0  0  0  0  3  0  0  0  0  0  0
  188.3830  174.6840  142.6720 C   0  0  0  0  0  2  0  0  0  0  0  0
  188.3120  176.0860  143.2160 C   0  0  0  0  0  0  0  0  0  0  0  0
  190.7370  175.8800  143.5680 C   0  0  2  0  0  3  0  0  0  0  0  0
  189.5610  174.5520  141.6920 C   0  0  2  0  0  3  0  0  0  0  0  0
  187.0140  176.8180  143.2280 C   0  0  0  0  0  0  0  0  0  0  0  0
  187.0220  177.2520  140.7120 C   0  0  0  0  0  1  0  0  0  0  0  0
  186.3840  176.9980  144.4680 C   0  0  0  0  0  3  0  0  0  0  0  0
  184.5250  178.5190  141.0410 O   0  0  0  0  0  1  0  0  0  0  0  0
  186.3850  177.3390  142.0650 C   0  0  0  0  0  0  0  0  0  0  0  0
  185.1500  178.0040  142.1750 C   0  0  0  0  0  0  0  0  0  0  0  0
  183.3190  178.8180  143.5220 O   0  0  0  0  0  1  0  0  0  0  0  0
  184.5390  178.1600  143.4260 C   0  0  0  0  0  0  0  0  0  0  0  0
  185.1550  177.6620  144.5770 C   0  0  0  0  0  0  0  0  0  0  0  0
  185.0620  178.6850  146.8310 C   0  0  0  0  0  1  0  0  0  0  0  0
  184.5330  177.8360  145.8180 O   0  0  0  0  0  0  0  0  0  0  0  0
  189.7370  173.2170  141.3280 O   0  0  0  0  0  0  0  0  0  0  0  0
  189.8070  172.5170  142.5390 C   0  0  0  0  0  2  0  0  0  0  0  0
  190.1950  171.0690  142.2890 C   0  0  0  0  0  2  0  0  0  0  0  0
  191.1390  170.9950  141.1850 N   0  0  0  0  0  2  0  0  0  0  0  0
  190.7150  169.8880  140.3430 C   0  0  0  0  0  2  0  0  0  0  0  0
  191.5000  169.8940  139.0660 C   0  0  0  0  0  0  0  0  0  0  0  0
  192.0790  168.8810  138.7070 O   0  0  0  0  0  0  0  0  0  0  0  0
  191.5940  171.1280  138.2200 C   0  0  1  0  0  3  0  0  0  0  0  0
  192.9720  171.3770  137.8140 N   0  0  0  0  0  2  0  0  0  0  0  0
  193.5760  172.6720  137.8840 C   0  0  0  0  0  0  0  0  0  0  0  0
  192.9430  173.6530  138.3520 O   0  0  0  0  0  0  0  0  0  0  0  0
  194.9860  172.8530  137.4330 C   0  0  0  0  0  2  0  0  0  0  0  0
  196.1100  172.8280  139.6600 C   0  0  0  0  0  1  0  0  0  0  0  0
  197.2940  171.9860  137.6600 C   0  0  0  0  0  1  0  0  0  0  0  0
  195.9450  172.0950  138.3400 C   0  0  0  0  0  3  0  0  0  0  0  0
  190.7170  171.0010  137.0090 C   0  0  0  0  0  3  0  0  0  0  0  0
  189.8770  171.9680  136.6110 C   0  0  0  0  0  3  0  0  0  0  0  0
  189.7140  173.2670  137.3420 C   0  0  1  0  0  3  0  0  0  0  0  0
  189.4700  174.3740  136.3620 C   0  0  0  0  0  2  0  0  0  0  0  0
  188.1780  174.9300  136.7210 N   0  0  0  0  0  2  0  0  0  0  0  0
  187.9040  174.4750  138.0250 N   0  0  0  0  0  2  0  0  0  0  0  0
  188.5290  173.2230  138.1740 N   0  0  0  0  0  2  0  0  0  0  0  0
  191.8210  176.7370  143.7550 O   0  0  0  0  0  0  0  0  0  0  0  0
  192.6760  176.0480  144.6200 C   0  0  0  0  0  2  0  0  0  0  0  0
  194.0620  176.3490  142.7150 O   0  0  0  0  0  1  0  0  0  0  0  0
  193.9010  175.5620  143.8570 C   0  0  1  0  0  3  0  0  0  0  0  0
  195.1610  175.6400  144.7260 C   0  0  1  0  0  3  0  0  0  0  0  0
  194.8010  175.6820  146.0770 O   0  0  0  0  0  1  0  0  0  0  0  0
  196.0820  174.4360  144.4930 C   0  0  2  0  0  3  0  0  0  0  0  0
  197.3360  176.1470  143.3560 O   0  0  0  0  0  1  0  0  0  0  0  0
  197.4290  174.8720  143.9210 C   0  0  0  0  0  2  0  0  0  0  0  0
  195.4910  173.5000  143.6340 O   0  0  0  0  0  0  0  0  0  0  0  0
  195.8160  172.2490  144.1730 C   0  0  2  0  0  3  0  0  0  0  0  0
  192.8320  171.9820  144.4560 O   0  0  0  0  0  1  0  0  0  0  0  0
  193.0970  169.6200  144.2660 C   0  0  0  0  0  2  0  0  0  0  0  0
  194.7610  168.8350  142.9700 C   0  0  0  0  0  2  0  0  0  0  0  0
  194.9010  171.2190  143.6510 N   0  0  0  0  0  0  0  0  0  0  0  0
  195.6750  170.0000  143.3840 C   0  0  0  0  0  2  0  0  0  0  0  0
  193.4050  169.2130  142.9570 O   0  0  0  0  0  0  0  0  0  0  0  0
  193.7740  170.9610  144.5720 C   0  0  1  0  0  3  0  0  0  0  0  0
  195.8520  172.3370  145.7010 C   0  0  0  0  0  2  0  0  0  0  0  0
  196.8790  171.5400  146.2110 O   0  0  0  0  0  1  0  0  0  0  0  0
  1  5  1  0  0  0  0
  3  4  1  0  0  0  0
  4  7  1  0  0  0  0
  4  2  2  0  0  0  0
  5  2  1  0  0  0  0
  5 40  1  6  0  0  0
  6 18  1  1  0  0  0
  6  1  1  0  0  0  0
  6  3  1  0  0  0  0
  7  9  1  0  0  0  0
  8 11  1  0  0  0  0
  9 15  2  0  0  0  0
 10 12  1  0  0  0  0
 11 12  1  0  0  0  0
 11  7  2  0  0  0  0
 12 14  2  0  0  0  0
 14 13  1  0  0  0  0
 14 15  1  0  0  0  0
 15 17  1  0  0  0  0
 17 16  1  0  0  0  0
 18 19  1  0  0  0  0
 20 19  1  0  0  0  0
 21 20  1  0  0  0  0
 22 21  1  0  0  0  0
 23 22  1  0  0  0  0
 24 23  2  0  0  0  0
 25 33  1  6  0  0  0
 25 23  1  0  0  0  0
 26 27  1  0  0  0  0
 26 25  1  0  0  0  0
 27 28  2  0  0  0  0
 29 27  1  0  0  0  0
 29 32  1  0  0  0  0
 31 32  1  0  0  0  0
 32 30  1  0  0  0  0
 34 33  2  0  0  0  0
 35 34  1  6  0  0  0
 35 39  1  0  0  0  0
 36 37  1  0  0  0  0
 36 35  1  0  0  0  0
 37 38  1  0  0  0  0
 38 39  1  0  0  0  0
 40 41  1  0  0  0  0
 43 42  1  6  0  0  0
 43 41  1  0  0  0  0
 43 44  1  0  0  0  0
 44 45  1  1  0  0  0
 46 48  1  6  0  0  0
 46 44  1  0  0  0  0
 47 48  1  0  0  0  0
 49 50  1  0  0  0  0
 49 46  1  0  0  0  0
 50 58  1  1  0  0  0
 52 57  1  0  0  0  0
 53 55  1  0  0  0  0
 54 50  1  0  0  0  0
 54 57  1  0  0  0  0
 55 54  1  0  0  0  0
 56 53  1  0  0  0  0
 56 52  1  0  0  0  0
 57 51  1  6  0  0  0
 58 59  1  0  0  0  0
M  END
>  <MODEL>
3

>  <REMARK>
 VINA RESULT:      -6.0      2.959     10.179
  Name = 
  24 active torsions:
  status: ('A' for Active; 'I' for Inactive)
    1  A    between atoms: C_3  and  C_17
    2  A    between atoms: C_6  and  N_24
    3  A    between atoms: C_6  and  C_48
    4  A    between atoms: C_7  and  C_56
    5  A    between atoms: N_10  and  C_43
    6  A    between atoms: C_12  and  C_16
    7  A    between atoms: C_13  and  C_32
    8  A    between atoms: C_14  and  N_24
    9  A    between atoms: C_14  and  C_55
   10  A    between atoms: O_15  and  C_48
   11  A    between atoms: O_15  and  C_52
   12  A    between atoms: C_16  and  O_29
   13  A    between atoms: C_16  and  N_34
   14  A    between atoms: C_21  and  C_33
   15  A    between atoms: C_21  and  C_46
   16  A    between atoms: O_23  and  C_31
   17  A    between atoms: O_23  and  C_40
   18  A    between atoms: O_29  and  C_33
   19  A    between atoms: C_31  and  C_46
   20  A    between atoms: C_32  and  C_58
   21  A    between atoms: C_33  and  C_35
   22  A    between atoms: C_38  and  C_43
   23  A    between atoms: C_43  and  C_55
   24  A    between atoms: C_45  and  O_49
                            x       y       z     vdW  Elec       q    Type
                         _______ _______ _______ _____ _____    ______ ____

>  <TORSDO>
F 24

$$$$
=
 OpenBabel11042415433D

 59 62  0  0  1  0  0  0  0  0999 V2000
  190.5930  173.3080  144.1010 C   0  0  0  0  0  2  0  0  0  0  0  0
  189.6180  173.9280  141.8750 C   0  0  0  0  0  3  0  0  0  0  0  0
  190.8340  171.8250  142.0080 C   0  0  0  0  0  2  0  0  0  0  0  0
  190.3080  172.9920  141.2160 C   0  0  0  0  0  0  0  0  0  0  0  0
  189.3380  173.7630  143.3410 C   0  0  2  0  0  3  0  0  0  0  0  0
  191.4740  172.3130  143.3170 C   0  0  2  0  0  3  0  0  0  0  0  0
  190.6250  173.1150  139.7660 C   0  0  0  0  0  0  0  0  0  0  0  0
  192.9870  172.1800  140.0110 C   0  0  0  0  0  1  0  0  0  0  0  0
  189.6390  173.6650  138.9330 C   0  0  0  0  0  3  0  0  0  0  0  0
  193.2630  172.4610  137.2200 O   0  0  0  0  0  1  0  0  0  0  0  0
  191.8570  172.7120  139.1850 C   0  0  0  0  0  0  0  0  0  0  0  0
  192.0580  172.8540  137.7990 C   0  0  0  0  0  0  0  0  0  0  0  0
  191.2620  173.5330  135.6230 O   0  0  0  0  0  1  0  0  0  0  0  0
  191.0520  173.3970  136.9900 C   0  0  0  0  0  0  0  0  0  0  0  0
  189.8410  173.8090  137.5540 C   0  0  0  0  0  0  0  0  0  0  0  0
  187.6780  174.9760  137.2450 C   0  0  0  0  0  1  0  0  0  0  0  0
  188.8520  174.3580  136.7300 O   0  0  0  0  0  0  0  0  0  0  0  0
  191.7990  171.2260  144.1300 O   0  0  0  0  0  0  0  0  0  0  0  0
  193.1000  171.4860  144.5800 C   0  0  0  0  0  2  0  0  0  0  0  0
  194.0650  170.4560  144.0190 C   0  0  0  0  0  2  0  0  0  0  0  0
  195.4350  170.8800  144.2600 N   0  0  0  0  0  2  0  0  0  0  0  0
  195.9330  171.4280  143.0090 C   0  0  0  0  0  2  0  0  0  0  0  0
  196.7580  172.6480  143.2840 C   0  0  0  0  0  0  0  0  0  0  0  0
  197.7260  172.5690  144.0250 O   0  0  0  0  0  0  0  0  0  0  0  0
  196.4140  173.9720  142.6710 C   0  0  1  0  0  3  0  0  0  0  0  0
  196.9910  174.0940  141.3380 N   0  0  0  0  0  2  0  0  0  0  0  0
  197.1160  175.3490  140.6630 C   0  0  0  0  0  0  0  0  0  0  0  0
  196.7700  176.4200  141.2250 O   0  0  0  0  0  0  0  0  0  0  0  0
  197.7000  175.3930  139.2910 C   0  0  0  0  0  2  0  0  0  0  0  0
  196.3510  173.6470  138.1260 C   0  0  0  0  0  1  0  0  0  0  0  0
  197.1080  175.6560  136.9010 C   0  0  0  0  0  1  0  0  0  0  0  0
  196.6290  175.1360  138.2400 C   0  0  0  0  0  3  0  0  0  0  0  0
  194.9260  174.1470  142.6050 C   0  0  0  0  0  3  0  0  0  0  0  0
  194.2130  174.7220  143.5860 C   0  0  0  0  0  3  0  0  0  0  0  0
  194.8260  175.2310  144.8560 C   0  0  1  0  0  3  0  0  0  0  0  0
  195.2090  176.6700  144.6930 C   0  0  0  0  0  2  0  0  0  0  0  0
  194.4590  177.3870  145.7080 N   0  0  0  0  0  2  0  0  0  0  0  0
  194.0190  176.4180  146.6290 N   0  0  0  0  0  2  0  0  0  0  0  0
  193.8440  175.2130  145.9220 N   0  0  0  0  0  2  0  0  0  0  0  0
  188.8630  174.9610  143.8750 O   0  0  0  0  0  0  0  0  0  0  0  0
  189.6500  175.1840  145.0090 C   0  0  0  0  0  2  0  0  0  0  0  0
  189.4400  175.4000  147.3640 O   0  0  0  0  0  1  0  0  0  0  0  0
  188.7730  175.6500  146.1630 C   0  0  1  0  0  3  0  0  0  0  0  0
  188.4530  177.1450  146.0450 C   0  0  1  0  0  3  0  0  0  0  0  0
  189.1770  177.7010  144.9850 O   0  0  0  0  0  1  0  0  0  0  0  0
  186.9570  177.3840  145.8070 C   0  0  2  0  0  3  0  0  0  0  0  0
  186.0120  177.4840  148.0180 O   0  0  0  0  0  1  0  0  0  0  0  0
  186.1100  176.6910  146.8720 C   0  0  0  0  0  2  0  0  0  0  0  0
  186.5650  176.9410  144.5370 O   0  0  0  0  0  0  0  0  0  0  0  0
  185.4870  177.7590  144.1780 C   0  0  2  0  0  3  0  0  0  0  0  0
  187.2880  177.1630  141.8420 O   0  0  0  0  0  1  0  0  0  0  0  0
  185.7300  178.3030  140.4420 C   0  0  0  0  0  2  0  0  0  0  0  0
  183.5470  178.2060  140.9760 C   0  0  0  0  0  2  0  0  0  0  0  0
  185.1640  177.5760  142.7530 N   0  0  0  0  0  0  0  0  0  0  0  0
  183.8800  178.2340  142.4770 C   0  0  0  0  0  2  0  0  0  0  0  0
  184.5530  177.5670  140.2280 O   0  0  0  0  0  0  0  0  0  0  0  0
  186.2380  178.0800  141.8720 C   0  0  1  0  0  3  0  0  0  0  0  0
  185.7850  179.2100  144.5700 C   0  0  0  0  0  2  0  0  0  0  0  0
  184.8070  179.6890  145.4430 O   0  0  0  0  0  1  0  0  0  0  0  0
  2  5  1  0  0  0  0
  3  6  1  0  0  0  0
  4  2  2  0  0  0  0
  4  3  1  0  0  0  0
  5 40  1  1  0  0  0
  5  1  1  0  0  0  0
  6  1  1  0  0  0  0
  6 18  1  1  0  0  0
  7  4  1  0  0  0  0
  9  7  2  0  0  0  0
 10 12  1  0  0  0  0
 11  7  1  0  0  0  0
 11  8  1  0  0  0  0
 12 11  2  0  0  0  0
 13 14  1  0  0  0  0
 14 15  2  0  0  0  0
 14 12  1  0  0  0  0
 15  9  1  0  0  0  0
 17 16  1  0  0  0  0
 17 15  1  0  0  0  0
 18 19  1  0  0  0  0
 20 21  1  0  0  0  0
 20 19  1  0  0  0  0
 22 23  1  0  0  0  0
 22 21  1  0  0  0  0
 23 24  2  0  0  0  0
 25 33  1  6  0  0  0
 25 23  1  0  0  0  0
 26 25  1  0  0  0  0
 27 28  2  0  0  0  0
 27 26  1  0  0  0  0
 29 27  1  0  0  0  0
 30 32  1  0  0  0  0
 31 32  1  0  0  0  0
 32 29  1  0  0  0  0
 33 34  2  0  0  0  0
 35 34  1  6  0  0  0
 35 39  1  0  0  0  0
 36 35  1  0  0  0  0
 36 37  1  0  0  0  0
 37 38  1  0  0  0  0
 39 38  1  0  0  0  0
 40 41  1  0  0  0  0
 41 43  1  0  0  0  0
 43 42  1  1  0  0  0
 44 45  1  6  0  0  0
 44 43  1  0  0  0  0
 46 44  1  0  0  0  0
 46 48  1  1  0  0  0
 48 47  1  0  0  0  0
 49 46  1  0  0  0  0
 50 49  1  0  0  0  0
 50 58  1  6  0  0  0
 52 57  1  0  0  0  0
 53 55  1  0  0  0  0
 54 50  1  0  0  0  0
 55 54  1  0  0  0  0
 56 52  1  0  0  0  0
 56 53  1  0  0  0  0
 57 51  1  6  0  0  0
 57 54  1  0  0  0  0
 58 59  1  0  0  0  0
M  END
>  <MODEL>
4

>  <REMARK>
 VINA RESULT:      -5.8      2.985     10.323
  Name = 
  24 active torsions:
  status: ('A' for Active; 'I' for Inactive)
    1  A    between atoms: C_3  and  C_17
    2  A    between atoms: C_6  and  N_24
    3  A    between atoms: C_6  and  C_48
    4  A    between atoms: C_7  and  C_56
    5  A    between atoms: N_10  and  C_43
    6  A    between atoms: C_12  and  C_16
    7  A    between atoms: C_13  and  C_32
    8  A    between atoms: C_14  and  N_24
    9  A    between atoms: C_14  and  C_55
   10  A    between atoms: O_15  and  C_48
   11  A    between atoms: O_15  and  C_52
   12  A    between atoms: C_16  and  O_29
   13  A    between atoms: C_16  and  N_34
   14  A    between atoms: C_21  and  C_33
   15  A    between atoms: C_21  and  C_46
   16  A    between atoms: O_23  and  C_31
   17  A    between atoms: O_23  and  C_40
   18  A    between atoms: O_29  and  C_33
   19  A    between atoms: C_31  and  C_46
   20  A    between atoms: C_32  and  C_58
   21  A    between atoms: C_33  and  C_35
   22  A    between atoms: C_38  and  C_43
   23  A    between atoms: C_43  and  C_55
   24  A    between atoms: C_45  and  O_49
                            x       y       z     vdW  Elec       q    Type
                         _______ _______ _______ _____ _____    ______ ____

>  <TORSDO>
F 24

$$$$
=
 OpenBabel11042415433D

 59 62  0  0  1  0  0  0  0  0999 V2000
  191.3590  175.2640  143.4410 C   0  0  0  0  0  2  0  0  0  0  0  0
  188.8670  175.4950  143.2720 C   0  0  0  0  0  3  0  0  0  0  0  0
  190.1150  177.4420  144.0300 C   0  0  0  0  0  2  0  0  0  0  0  0
  188.8410  176.6420  143.9580 C   0  0  0  0  0  0  0  0  0  0  0  0
  190.1180  175.0770  142.5550 C   0  0  2  0  0  3  0  0  0  0  0  0
  191.3070  176.5210  144.3340 C   0  0  2  0  0  3  0  0  0  0  0  0
  187.6310  177.0960  144.6980 C   0  0  0  0  0  0  0  0  0  0  0  0
  188.3440  176.0170  146.8990 C   0  0  0  0  0  1  0  0  0  0  0  0
  186.6670  177.8180  143.9800 C   0  0  0  0  0  3  0  0  0  0  0  0
  185.9950  177.0770  148.0430 O   0  0  0  0  0  1  0  0  0  0  0  0
  187.4000  176.8390  146.0760 C   0  0  0  0  0  0  0  0  0  0  0  0
  186.2300  177.3230  146.6920 C   0  0  0  0  0  0  0  0  0  0  0  0
  184.1390  178.5230  146.5720 O   0  0  0  0  0  1  0  0  0  0  0  0
  185.2900  178.0500  145.9520 C   0  0  0  0  0  0  0  0  0  0  0  0
  185.5020  178.2970  144.5930 C   0  0  0  0  0  0  0  0  0  0  0  0
  183.7940  178.4450  142.8040 C   0  0  0  0  0  1  0  0  0  0  0  0
  184.5450  179.0180  143.8690 O   0  0  0  0  0  0  0  0  0  0  0  0
  192.5040  177.2290  144.2240 O   0  0  0  0  0  0  0  0  0  0  0  0
  193.3630  176.3800  143.5130 C   0  0  0  0  0  2  0  0  0  0  0  0
  194.7700  176.4600  144.0820 C   0  0  0  0  0  2  0  0  0  0  0  0
  194.7840  175.9400  145.4400 N   0  0  0  0  0  2  0  0  0  0  0  0
  195.7560  174.8600  145.4670 C   0  0  0  0  0  2  0  0  0  0  0  0
  195.1080  173.5850  145.0200 C   0  0  0  0  0  0  0  0  0  0  0  0
  193.9150  173.4130  145.2150 O   0  0  0  0  0  0  0  0  0  0  0  0
  195.9000  172.5090  144.3420 C   0  0  1  0  0  3  0  0  0  0  0  0
  196.5620  173.0210  143.1480 N   0  0  0  0  0  2  0  0  0  0  0  0
  196.0440  172.8170  141.8310 C   0  0  0  0  0  0  0  0  0  0  0  0
  194.9520  172.2150  141.6540 O   0  0  0  0  0  0  0  0  0  0  0  0
  196.7860  173.3560  140.6550 C   0  0  0  0  0  2  0  0  0  0  0  0
  195.3570  175.0450  139.5010 C   0  0  0  0  0  1  0  0  0  0  0  0
  197.7450  175.5200  139.9290 C   0  0  0  0  0  1  0  0  0  0  0  0
  196.5060  174.8410  140.4740 C   0  0  0  0  0  3  0  0  0  0  0  0
  196.9160  171.9330  145.2850 C   0  0  0  0  0  3  0  0  0  0  0  0
  196.6370  170.9410  146.1440 C   0  0  0  0  0  3  0  0  0  0  0  0
  195.2800  170.3160  146.2630 C   0  0  1  0  0  3  0  0  0  0  0  0
  194.8300  169.8170  144.9240 C   0  0  0  0  0  2  0  0  0  0  0  0
  194.6220  168.3910  145.0930 N   0  0  0  0  0  2  0  0  0  0  0  0
  194.5490  168.1660  146.4800 N   0  0  0  0  0  2  0  0  0  0  0  0
  195.3480  169.1400  147.1080 N   0  0  0  0  0  2  0  0  0  0  0  0
  190.0150  173.7460  142.1500 O   0  0  0  0  0  0  0  0  0  0  0  0
  189.6830  173.8090  140.7940 C   0  0  0  0  0  2  0  0  0  0  0  0
  191.8710  172.8880  140.7370 O   0  0  0  0  0  1  0  0  0  0  0  0
  190.9180  173.5350  139.9470 C   0  0  1  0  0  3  0  0  0  0  0  0
  190.5740  172.6690  138.7300 C   0  0  1  0  0  3  0  0  0  0  0  0
  189.6070  173.3130  137.9500 O   0  0  0  0  0  1  0  0  0  0  0  0
  191.8100  172.3930  137.8650 C   0  0  2  0  0  3  0  0  0  0  0  0
  192.6200  174.4050  136.8220 O   0  0  0  0  0  1  0  0  0  0  0  0
  191.8220  173.2760  136.6190 C   0  0  0  0  0  2  0  0  0  0  0  0
  191.8760  171.0460  137.4850 O   0  0  0  0  0  0  0  0  0  0  0  0
  191.1190  170.3570  138.4400 C   0  0  2  0  0  3  0  0  0  0  0  0
  190.7390  169.2470  141.2110 O   0  0  0  0  0  1  0  0  0  0  0  0
  193.1120  169.1940  141.4380 C   0  0  0  0  0  2  0  0  0  0  0  0
  194.3500  168.7980  139.6010 C   0  0  0  0  0  2  0  0  0  0  0  0
  191.9880  169.4730  139.2360 N   0  0  0  0  0  0  0  0  0  0  0  0
  193.3600  169.5850  138.7260 C   0  0  0  0  0  2  0  0  0  0  0  0
  193.7060  168.1680  140.6820 O   0  0  0  0  0  0  0  0  0  0  0  0
  191.9140  169.7780  140.6800 C   0  0  1  0  0  3  0  0  0  0  0  0
  189.9540  169.6360  137.7560 C   0  0  0  0  0  2  0  0  0  0  0  0
  190.2290  168.2730  137.6340 O   0  0  0  0  0  1  0  0  0  0  0  0
  1  6  1  0  0  0  0
  2  4  2  0  0  0  0
  3  6  1  0  0  0  0
  4  3  1  0  0  0  0
  4  7  1  0  0  0  0
  5 40  1  1  0  0  0
  5  2  1  0  0  0  0
  5  1  1  0  0  0  0
  6 18  1  6  0  0  0
  7 11  1  0  0  0  0
  9 15  1  0  0  0  0
  9  7  2  0  0  0  0
 11 12  2  0  0  0  0
 11  8  1  0  0  0  0
 12 10  1  0  0  0  0
 14 13  1  0  0  0  0
 14 12  1  0  0  0  0
 15 14  2  0  0  0  0
 16 17  1  0  0  0  0
 17 15  1  0  0  0  0
 19 20  1  0  0  0  0
 19 18  1  0  0  0  0
 20 21  1  0  0  0  0
 21 22  1  0  0  0  0
 23 24  2  0  0  0  0
 23 22  1  0  0  0  0
 25 23  1  0  0  0  0
 25 33  1  1  0  0  0
 26 25  1  0  0  0  0
 27 26  1  0  0  0  0
 28 27  2  0  0  0  0
 29 27  1  0  0  0  0
 30 32  1  0  0  0  0
 31 32  1  0  0  0  0
 32 29  1  0  0  0  0
 33 34  2  0  0  0  0
 35 34  1  6  0  0  0
 35 39  1  0  0  0  0
 36 37  1  0  0  0  0
 36 35  1  0  0  0  0
 37 38  1  0  0  0  0
 38 39  1  0  0  0  0
 41 40  1  0  0  0  0
 43 42  1  1  0  0  0
 43 41  1  0  0  0  0
 44 45  1  6  0  0  0
 44 43  1  0  0  0  0
 46 48  1  6  0  0  0
 46 44  1  0  0  0  0
 48 47  1  0  0  0  0
 49 46  1  0  0  0  0
 49 50  1  0  0  0  0
 50 58  1  6  0  0  0
 50 54  1  0  0  0  0
 53 56  1  0  0  0  0
 54 57  1  0  0  0  0
 55 54  1  0  0  0  0
 55 53  1  0  0  0  0
 56 52  1  0  0  0  0
 57 51  1  1  0  0  0
 57 52  1  0  0  0  0
 59 58  1  0  0  0  0
M  END
>  <MODEL>
5

>  <REMARK>
 VINA RESULT:      -5.6      3.848      9.520
  Name = 
  24 active torsions:
  status: ('A' for Active; 'I' for Inactive)
    1  A    between atoms: C_3  and  C_17
    2  A    between atoms: C_6  and  N_24
    3  A    between atoms: C_6  and  C_48
    4  A    between atoms: C_7  and  C_56
    5  A    between atoms: N_10  and  C_43
    6  A    between atoms: C_12  and  C_16
    7  A    between atoms: C_13  and  C_32
    8  A    between atoms: C_14  and  N_24
    9  A    between atoms: C_14  and  C_55
   10  A    between atoms: O_15  and  C_48
   11  A    between atoms: O_15  and  C_52
   12  A    between atoms: C_16  and  O_29
   13  A    between atoms: C_16  and  N_34
   14  A    between atoms: C_21  and  C_33
   15  A    between atoms: C_21  and  C_46
   16  A    between atoms: O_23  and  C_31
   17  A    between atoms: O_23  and  C_40
   18  A    between atoms: O_29  and  C_33
   19  A    between atoms: C_31  and  C_46
   20  A    between atoms: C_32  and  C_58
   21  A    between atoms: C_33  and  C_35
   22  A    between atoms: C_38  and  C_43
   23  A    between atoms: C_43  and  C_55
   24  A    between atoms: C_45  and  O_49
                            x       y       z     vdW  Elec       q    Type
                         _______ _______ _______ _____ _____    ______ ____

>  <TORSDO>
F 24

$$$$
=
 OpenBabel11042415433D

 59 62  0  0  1  0  0  0  0  0999 V2000
  191.0320  170.0050  141.2510 C   0  0  0  0  0  2  0  0  0  0  0  0
  193.1710  169.6100  142.5010 C   0  0  0  0  0  3  0  0  0  0  0  0
  191.5220  171.0620  143.5490 C   0  0  0  0  0  2  0  0  0  0  0  0
  192.9440  170.5990  143.3710 C   0  0  0  0  0  0  0  0  0  0  0  0
  192.0200  168.9590  141.7890 C   0  0  2  0  0  3  0  0  0  0  0  0
  190.8370  171.2190  142.1820 C   0  0  2  0  0  3  0  0  0  0  0  0
  194.0500  171.2880  144.0930 C   0  0  0  0  0  0  0  0  0  0  0  0
  193.5810  173.5600  143.0270 C   0  0  0  0  0  1  0  0  0  0  0  0
  194.8480  170.5110  144.9460 C   0  0  0  0  0  3  0  0  0  0  0  0
  195.6900  174.5950  144.5870 O   0  0  0  0  0  1  0  0  0  0  0  0
  194.3390  172.6730  143.9670 C   0  0  0  0  0  0  0  0  0  0  0  0
  195.3980  173.2370  144.7030 C   0  0  0  0  0  0  0  0  0  0  0  0
  197.2150  173.0080  146.2770 O   0  0  0  0  0  1  0  0  0  0  0  0
  196.1710  172.4390  145.5550 C   0  0  0  0  0  0  0  0  0  0  0  0
  195.9030  171.0730  145.6770 C   0  0  0  0  0  0  0  0  0  0  0  0
  196.1700  169.2020  147.2780 C   0  0  0  0  0  1  0  0  0  0  0  0
  196.6940  170.2910  146.5260 O   0  0  0  0  0  0  0  0  0  0  0  0
  189.4750  171.4720  142.3520 O   0  0  0  0  0  0  0  0  0  0  0  0
  189.3070  172.8130  141.9850 C   0  0  0  0  0  2  0  0  0  0  0  0
  188.5030  172.9100  140.7000 C   0  0  0  0  0  2  0  0  0  0  0  0
  188.1710  174.3000  140.4270 N   0  0  0  0  0  2  0  0  0  0  0  0
  188.8530  175.1000  141.4310 C   0  0  0  0  0  2  0  0  0  0  0  0
  187.8450  175.7940  142.2940 C   0  0  0  0  0  0  0  0  0  0  0  0
  186.7350  176.0420  141.8490 O   0  0  0  0  0  0  0  0  0  0  0  0
  188.1740  176.2000  143.6990 C   0  0  1  0  0  3  0  0  0  0  0  0
  189.5280  175.7940  144.0550 N   0  0  0  0  0  2  0  0  0  0  0  0
  189.8800  175.3460  145.3670 C   0  0  0  0  0  0  0  0  0  0  0  0
  189.0070  175.2400  146.2680 O   0  0  0  0  0  0  0  0  0  0  0  0
  191.2910  174.9640  145.6620 C   0  0  0  0  0  2  0  0  0  0  0  0
  192.7080  176.7360  144.6220 C   0  0  0  0  0  1  0  0  0  0  0  0
  193.2830  175.8320  146.8500 C   0  0  0  0  0  1  0  0  0  0  0  0
  192.1410  176.1990  145.9250 C   0  0  0  0  0  3  0  0  0  0  0  0
  188.0230  177.6840  143.8650 C   0  0  0  0  0  3  0  0  0  0  0  0
  187.1750  178.2390  144.7440 C   0  0  0  0  0  3  0  0  0  0  0  0
  186.2780  177.4370  145.6380 C   0  0  1  0  0  3  0  0  0  0  0  0
  186.4770  177.8540  147.0630 C   0  0  0  0  0  2  0  0  0  0  0  0
  185.1790  178.3200  147.5140 N   0  0  0  0  0  2  0  0  0  0  0  0
  184.2410  177.8280  146.5870 N   0  0  0  0  0  2  0  0  0  0  0  0
  184.8900  177.7320  145.3420 N   0  0  0  0  0  2  0  0  0  0  0  0
  192.4940  168.1660  140.7430 O   0  0  0  0  0  0  0  0  0  0  0  0
  193.4760  168.9430  140.1210 C   0  0  0  0  0  2  0  0  0  0  0  0
  192.9570  168.2720  137.9030 O   0  0  0  0  0  1  0  0  0  0  0  0
  193.9710  168.2410  138.8640 C   0  0  1  0  0  3  0  0  0  0  0  0
  195.2320  168.9160  138.3140 C   0  0  1  0  0  3  0  0  0  0  0  0
  195.7430  168.1660  137.2490 O   0  0  0  0  0  1  0  0  0  0  0  0
  194.9420  170.3410  137.8260 C   0  0  2  0  0  3  0  0  0  0  0  0
  194.2800  170.5000  135.5180 O   0  0  0  0  0  1  0  0  0  0  0  0
  195.3820  170.5300  136.3760 C   0  0  0  0  0  2  0  0  0  0  0  0
  195.5750  171.2940  138.6350 O   0  0  0  0  0  0  0  0  0  0  0  0
  194.7460  172.4220  138.5900 C   0  0  2  0  0  3  0  0  0  0  0  0
  194.4200  175.4130  138.6150 O   0  0  0  0  0  1  0  0  0  0  0  0
  196.4280  175.5500  139.8930 C   0  0  0  0  0  2  0  0  0  0  0  0
  196.8980  173.8770  141.3220 C   0  0  0  0  0  2  0  0  0  0  0  0
  195.1870  173.4170  139.5830 N   0  0  0  0  0  0  0  0  0  0  0  0
  196.2920  172.8420  140.3600 C   0  0  0  0  0  2  0  0  0  0  0  0
  196.2560  175.1250  141.2210 O   0  0  0  0  0  0  0  0  0  0  0  0
  195.5670  174.6980  138.9520 C   0  0  1  0  0  3  0  0  0  0  0  0
  193.2820  171.9960  138.7400 C   0  0  0  0  0  2  0  0  0  0  0  0
  192.5980  172.8860  139.5690 O   0  0  0  0  0  1  0  0  0  0  0  0
  1  5  1  0  0  0  0
  1  6  1  0  0  0  0
  2  4  2  0  0  0  0
  4  3  1  0  0  0  0
  4  7  1  0  0  0  0
  5 40  1  6  0  0  0
  5  2  1  0  0  0  0
  6 18  1  1  0  0  0
  6  3  1  0  0  0  0
  7  9  1  0  0  0  0
  8 11  1  0  0  0  0
  9 15  2  0  0  0  0
 10 12  1  0  0  0  0
 11  7  2  0  0  0  0
 11 12  1  0  0  0  0
 12 14  2  0  0  0  0
 14 15  1  0  0  0  0
 14 13  1  0  0  0  0
 15 17  1  0  0  0  0
 17 16  1  0  0  0  0
 19 18  1  0  0  0  0
 20 19  1  0  0  0  0
 21 20  1  0  0  0  0
 21 22  1  0  0  0  0
 22 23  1  0  0  0  0
 23 25  1  0  0  0  0
 24 23  2  0  0  0  0
 25 33  1  6  0  0  0
 25 26  1  0  0  0  0
 26 27  1  0  0  0  0
 27 29  1  0  0  0  0
 27 28  2  0  0  0  0
 29 32  1  0  0  0  0
 30 32  1  0  0  0  0
 32 31  1  0  0  0  0
 33 34  2  0  0  0  0
 35 34  1  6  0  0  0
 35 36  1  0  0  0  0
 36 37  1  0  0  0  0
 38 37  1  0  0  0  0
 39 35  1  0  0  0  0
 39 38  1  0  0  0  0
 41 40  1  0  0  0  0
 43 42  1  6  0  0  0
 43 41  1  0  0  0  0
 44 45  1  6  0  0  0
 44 43  1  0  0  0  0
 46 48  1  6  0  0  0
 46 44  1  0  0  0  0
 46 49  1  0  0  0  0
 47 48  1  0  0  0  0
 50 49  1  0  0  0  0
 50 58  1  1  0  0  0
 50 54  1  0  0  0  0
 52 56  1  0  0  0  0
 54 55  1  0  0  0  0
 55 53  1  0  0  0  0
 56 53  1  0  0  0  0
 57 51  1  1  0  0  0
 57 54  1  0  0  0  0
 57 52  1  0  0  0  0
 58 59  1  0  0  0  0
M  END
>  <MODEL>
6

>  <REMARK>
 VINA RESULT:      -5.6      3.382      6.306
  Name = 
  24 active torsions:
  status: ('A' for Active; 'I' for Inactive)
    1  A    between atoms: C_3  and  C_17
    2  A    between atoms: C_6  and  N_24
    3  A    between atoms: C_6  and  C_48
    4  A    between atoms: C_7  and  C_56
    5  A    between atoms: N_10  and  C_43
    6  A    between atoms: C_12  and  C_16
    7  A    between atoms: C_13  and  C_32
    8  A    between atoms: C_14  and  N_24
    9  A    between atoms: C_14  and  C_55
   10  A    between atoms: O_15  and  C_48
   11  A    between atoms: O_15  and  C_52
   12  A    between atoms: C_16  and  O_29
   13  A    between atoms: C_16  and  N_34
   14  A    between atoms: C_21  and  C_33
   15  A    between atoms: C_21  and  C_46
   16  A    between atoms: O_23  and  C_31
   17  A    between atoms: O_23  and  C_40
   18  A    between atoms: O_29  and  C_33
   19  A    between atoms: C_31  and  C_46
   20  A    between atoms: C_32  and  C_58
   21  A    between atoms: C_33  and  C_35
   22  A    between atoms: C_38  and  C_43
   23  A    between atoms: C_43  and  C_55
   24  A    between atoms: C_45  and  O_49
                            x       y       z     vdW  Elec       q    Type
                         _______ _______ _______ _____ _____    ______ ____

>  <TORSDO>
F 24

$$$$
=
 OpenBabel11042415433D

 59 62  0  0  1  0  0  0  0  0999 V2000
  191.5770  170.4980  143.0370 C   0  0  0  0  0  2  0  0  0  0  0  0
  190.9670  170.3750  140.6070 C   0  0  0  0  0  3  0  0  0  0  0  0
  192.3500  168.5810  141.4970 C   0  0  0  0  0  2  0  0  0  0  0  0
  191.8590  169.4160  140.3440 C   0  0  0  0  0  0  0  0  0  0  0  0
  190.4420  170.5500  142.0030 C   0  0  2  0  0  3  0  0  0  0  0  0
  192.6850  169.4790  142.6990 C   0  0  2  0  0  3  0  0  0  0  0  0
  192.4210  169.2090  138.9790 C   0  0  0  0  0  0  0  0  0  0  0  0
  190.1410  169.2470  137.8310 C   0  0  0  0  0  1  0  0  0  0  0  0
  193.8100  169.0550  138.8690 C   0  0  0  0  0  3  0  0  0  0  0  0
  191.5000  168.9250  135.3820 O   0  0  0  0  0  1  0  0  0  0  0  0
  191.6360  169.1600  137.7960 C   0  0  0  0  0  0  0  0  0  0  0  0
  192.2610  168.9750  136.5490 C   0  0  0  0  0  0  0  0  0  0  0  0
  194.2570  168.6510  135.2300 O   0  0  0  0  0  1  0  0  0  0  0  0
  193.6510  168.8340  136.4680 C   0  0  0  0  0  0  0  0  0  0  0  0
  194.4320  168.8680  137.6270 C   0  0  0  0  0  0  0  0  0  0  0  0
  196.7000  169.8150  137.3220 C   0  0  0  0  0  1  0  0  0  0  0  0
  195.8190  168.7150  137.5260 O   0  0  0  0  0  0  0  0  0  0  0  0
  192.9670  168.6970  143.8200 O   0  0  0  0  0  0  0  0  0  0  0  0
  193.9600  169.4010  144.5130 C   0  0  0  0  0  2  0  0  0  0  0  0
  195.2990  169.2480  143.8110 C   0  0  0  0  0  2  0  0  0  0  0  0
  196.0370  170.5000  143.8740 N   0  0  0  0  0  2  0  0  0  0  0  0
  195.9610  171.1010  142.5530 C   0  0  0  0  0  2  0  0  0  0  0  0
  196.2150  172.5740  142.6530 C   0  0  0  0  0  0  0  0  0  0  0  0
  197.3390  172.9780  142.9020 O   0  0  0  0  0  0  0  0  0  0  0  0
  195.1090  173.5670  142.4590 C   0  0  1  0  0  3  0  0  0  0  0  0
  194.6040  173.5240  141.0910 N   0  0  0  0  0  2  0  0  0  0  0  0
  193.9980  174.6540  140.4560 C   0  0  0  0  0  0  0  0  0  0  0  0
  193.9190  175.7610  141.0490 O   0  0  0  0  0  0  0  0  0  0  0  0
  193.4880  174.5290  139.0600 C   0  0  0  0  0  2  0  0  0  0  0  0
  193.6240  172.4820  137.6400 C   0  0  0  0  0  1  0  0  0  0  0  0
  191.4410  173.2480  138.5100 C   0  0  0  0  0  1  0  0  0  0  0  0
  192.9210  173.1370  138.8150 C   0  0  0  0  0  3  0  0  0  0  0  0
  193.9920  173.3040  143.4260 C   0  0  0  0  0  3  0  0  0  0  0  0
  193.8070  174.0250  144.5420 C   0  0  0  0  0  3  0  0  0  0  0  0
  194.7040  175.1560  144.9470 C   0  0  1  0  0  3  0  0  0  0  0  0
  194.2470  176.4250  144.2940 C   0  0  0  0  0  2  0  0  0  0  0  0
  193.9420  177.3320  145.3850 N   0  0  0  0  0  2  0  0  0  0  0  0
  194.5580  176.7930  146.5300 N   0  0  0  0  0  2  0  0  0  0  0  0
  194.5880  175.3940  146.3720 N   0  0  0  0  0  2  0  0  0  0  0  0
  189.7550  171.7600  142.1070 O   0  0  0  0  0  0  0  0  0  0  0  0
  190.5780  172.5720  142.8940 C   0  0  0  0  0  2  0  0  0  0  0  0
  190.1530  173.3290  145.1040 O   0  0  0  0  0  1  0  0  0  0  0  0
  189.7250  173.4670  143.7820 C   0  0  1  0  0  3  0  0  0  0  0  0
  189.8270  174.9340  143.3500 C   0  0  1  0  0  3  0  0  0  0  0  0
  190.3760  175.0110  142.0660 O   0  0  0  0  0  1  0  0  0  0  0  0
  188.4540  175.6180  143.3480 C   0  0  2  0  0  3  0  0  0  0  0  0
  187.9700  177.0650  141.4870 O   0  0  0  0  0  1  0  0  0  0  0  0
  187.9000  175.7420  141.9300 C   0  0  0  0  0  2  0  0  0  0  0  0
  188.5160  176.8870  143.9380 O   0  0  0  0  0  0  0  0  0  0  0  0
  188.0580  176.7060  145.2490 C   0  0  2  0  0  3  0  0  0  0  0  0
  186.0360  176.7440  147.4770 O   0  0  0  0  0  1  0  0  0  0  0  0
  184.5840  177.9760  146.0420 C   0  0  0  0  0  2  0  0  0  0  0  0
  185.5040  179.3920  144.5550 C   0  0  0  0  0  2  0  0  0  0  0  0
  187.0080  177.6910  145.5610 N   0  0  0  0  0  0  0  0  0  0  0  0
  186.6940  178.4410  144.3390 C   0  0  0  0  0  2  0  0  0  0  0  0
  184.9980  179.3070  145.8650 O   0  0  0  0  0  0  0  0  0  0  0  0
  185.8050  177.0540  146.1380 C   0  0  1  0  0  3  0  0  0  0  0  0
  189.2430  176.7270  146.2190 C   0  0  0  0  0  2  0  0  0  0  0  0
  189.1210  177.7920  147.1140 O   0  0  0  0  0  1  0  0  0  0  0  0
  2  5  1  0  0  0  0
  3  6  1  0  0  0  0
  4  2  2  0  0  0  0
  4  3  1  0  0  0  0
  5 40  1  6  0  0  0
  5  1  1  0  0  0  0
  6  1  1  0  0  0  0
  6 18  1  1  0  0  0
  7  4  1  0  0  0  0
  9  7  1  0  0  0  0
 10 12  1  0  0  0  0
 11  8  1  0  0  0  0
 11  7  2  0  0  0  0
 12 11  1  0  0  0  0
 13 14  1  0  0  0  0
 14 12  2  0  0  0  0
 14 15  1  0  0  0  0
 15  9  2  0  0  0  0
 16 17  1  0  0  0  0
 17 15  1  0  0  0  0
 18 19  1  0  0  0  0
 20 21  1  0  0  0  0
 20 19  1  0  0  0  0
 22 23  1  0  0  0  0
 22 21  1  0  0  0  0
 23 24  2  0  0  0  0
 25 23  1  0  0  0  0
 25 33  1  1  0  0  0
 26 25  1  0  0  0  0
 27 28  2  0  0  0  0
 27 26  1  0  0  0  0
 29 27  1  0  0  0  0
 30 32  1  0  0  0  0
 31 32  1  0  0  0  0
 32 29  1  0  0  0  0
 33 34  2  0  0  0  0
 35 34  1  6  0  0  0
 35 39  1  0  0  0  0
 36 35  1  0  0  0  0
 36 37  1  0  0  0  0
 37 38  1  0  0  0  0
 39 38  1  0  0  0  0
 40 41  1  0  0  0  0
 41 43  1  0  0  0  0
 43 42  1  1  0  0  0
 44 45  1  6  0  0  0
 44 43  1  0  0  0  0
 46 48  1  6  0  0  0
 46 44  1  0  0  0  0
 46 49  1  0  0  0  0
 47 48  1  0  0  0  0
 49 50  1  0  0  0  0
 50 54  1  0  0  0  0
 50 58  1  1  0  0  0
 52 57  1  0  0  0  0
 53 56  1  0  0  0  0
 54 57  1  0  0  0  0
 55 53  1  0  0  0  0
 55 54  1  0  0  0  0
 56 52  1  0  0  0  0
 57 51  1  1  0  0  0
 58 59  1  0  0  0  0
M  END
>  <MODEL>
7

>  <REMARK>
 VINA RESULT:      -5.5      3.493     10.016
  Name = 
  24 active torsions:
  status: ('A' for Active; 'I' for Inactive)
    1  A    between atoms: C_3  and  C_17
    2  A    between atoms: C_6  and  N_24
    3  A    between atoms: C_6  and  C_48
    4  A    between atoms: C_7  and  C_56
    5  A    between atoms: N_10  and  C_43
    6  A    between atoms: C_12  and  C_16
    7  A    between atoms: C_13  and  C_32
    8  A    between atoms: C_14  and  N_24
    9  A    between atoms: C_14  and  C_55
   10  A    between atoms: O_15  and  C_48
   11  A    between atoms: O_15  and  C_52
   12  A    between atoms: C_16  and  O_29
   13  A    between atoms: C_16  and  N_34
   14  A    between atoms: C_21  and  C_33
   15  A    between atoms: C_21  and  C_46
   16  A    between atoms: O_23  and  C_31
   17  A    between atoms: O_23  and  C_40
   18  A    between atoms: O_29  and  C_33
   19  A    between atoms: C_31  and  C_46
   20  A    between atoms: C_32  and  C_58
   21  A    between atoms: C_33  and  C_35
   22  A    between atoms: C_38  and  C_43
   23  A    between atoms: C_43  and  C_55
   24  A    between atoms: C_45  and  O_49
                            x       y       z     vdW  Elec       q    Type
                         _______ _______ _______ _____ _____    ______ ____

>  <TORSDO>
F 24

$$$$
=
 OpenBabel11042415433D

 59 62  0  0  1  0  0  0  0  0999 V2000
  190.5790  171.6180  141.4970 C   0  0  0  0  0  2  0  0  0  0  0  0
  192.9150  172.1070  140.7240 C   0  0  0  0  0  3  0  0  0  0  0  0
  191.0920  173.0470  139.4150 C   0  0  0  0  0  2  0  0  0  0  0  0
  192.5160  172.5740  139.5380 C   0  0  0  0  0  0  0  0  0  0  0  0
  191.9730  172.1260  141.8940 C   0  0  2  0  0  3  0  0  0  0  0  0
  190.1370  172.0440  140.0810 C   0  0  2  0  0  3  0  0  0  0  0  0
  193.4060  172.5640  138.3430 C   0  0  0  0  0  0  0  0  0  0  0  0
  193.2390  170.0380  138.0070 C   0  0  0  0  0  1  0  0  0  0  0  0
  193.9550  173.7890  137.9350 C   0  0  0  0  0  3  0  0  0  0  0  0
  194.8870  170.3490  135.7410 O   0  0  0  0  0  1  0  0  0  0  0  0
  193.7270  171.3950  137.6010 C   0  0  0  0  0  0  0  0  0  0  0  0
  194.5660  171.4890  136.4750 C   0  0  0  0  0  0  0  0  0  0  0  0
  195.9200  172.8070  134.9720 O   0  0  0  0  0  1  0  0  0  0  0  0
  195.0920  172.7270  136.0860 C   0  0  0  0  0  0  0  0  0  0  0  0
  194.7920  173.8810  136.8170 C   0  0  0  0  0  0  0  0  0  0  0  0
  196.5320  175.6370  136.9760 C   0  0  0  0  0  1  0  0  0  0  0  0
  195.3360  175.1070  136.4160 O   0  0  0  0  0  0  0  0  0  0  0  0
  188.8440  172.5660  140.1270 O   0  0  0  0  0  0  0  0  0  0  0  0
  188.9360  173.6910  140.9560 C   0  0  0  0  0  2  0  0  0  0  0  0
  187.7680  173.7260  141.9270 C   0  0  0  0  0  2  0  0  0  0  0  0
  187.5480  175.0880  142.3870 N   0  0  0  0  0  2  0  0  0  0  0  0
  187.7310  175.9560  141.2350 C   0  0  0  0  0  2  0  0  0  0  0  0
  187.4980  177.3810  141.6340 C   0  0  0  0  0  0  0  0  0  0  0  0
  188.4430  178.1500  141.7130 O   0  0  0  0  0  0  0  0  0  0  0  0
  186.1200  177.8840  141.9460 C   0  0  1  0  0  3  0  0  0  0  0  0
  186.1280  178.7170  143.1430 N   0  0  0  0  0  2  0  0  0  0  0  0
  185.7120  178.2340  144.4230 C   0  0  0  0  0  0  0  0  0  0  0  0
  185.3610  177.0350  144.5760 O   0  0  0  0  0  0  0  0  0  0  0  0
  185.7300  179.1510  145.5980 C   0  0  0  0  0  2  0  0  0  0  0  0
  184.3160  178.3040  147.4710 C   0  0  0  0  0  1  0  0  0  0  0  0
  186.6370  179.0370  147.9000 C   0  0  0  0  0  1  0  0  0  0  0  0
  185.7220  178.3610  146.9000 C   0  0  0  0  0  3  0  0  0  0  0  0
  185.5690  178.6580  140.7850 C   0  0  0  0  0  3  0  0  0  0  0  0
  184.2620  178.6940  140.4840 C   0  0  0  0  0  3  0  0  0  0  0  0
  183.2200  177.9520  141.2650 C   0  0  1  0  0  3  0  0  0  0  0  0
  182.6900  178.8240  142.3620 C   0  0  0  0  0  2  0  0  0  0  0  0
  181.2670  178.9450  142.1060 N   0  0  0  0  0  2  0  0  0  0  0  0
  180.9400  177.9120  141.2070 N   0  0  0  0  0  2  0  0  0  0  0  0
  182.0790  177.6630  140.4190 N   0  0  0  0  0  2  0  0  0  0  0  0
  192.4870  171.3510  142.9340 O   0  0  0  0  0  0  0  0  0  0  0  0
  193.7880  171.8260  143.1250 C   0  0  0  0  0  2  0  0  0  0  0  0
  194.2920  171.9330  145.4440 O   0  0  0  0  0  1  0  0  0  0  0  0
  193.8390  172.7030  144.3690 C   0  0  1  0  0  3  0  0  0  0  0  0
  194.7680  173.9050  144.1610 C   0  0  1  0  0  3  0  0  0  0  0  0
  194.9440  174.1340  142.7930 O   0  0  0  0  0  1  0  0  0  0  0  0
  194.2010  175.1730  144.8100 C   0  0  2  0  0  3  0  0  0  0  0  0
  194.5950  176.7900  146.5480 O   0  0  0  0  0  1  0  0  0  0  0  0
  194.9450  175.5140  146.1000 C   0  0  0  0  0  2  0  0  0  0  0  0
  192.8330  175.0400  145.0820 O   0  0  0  0  0  0  0  0  0  0  0  0
  192.2960  176.3210  144.9020 C   0  0  2  0  0  3  0  0  0  0  0  0
  191.5370  175.2810  147.6210 O   0  0  0  0  0  1  0  0  0  0  0  0
  189.2730  175.1950  146.8780 C   0  0  0  0  0  2  0  0  0  0  0  0
  188.5800  176.7340  145.3910 C   0  0  0  0  0  2  0  0  0  0  0  0
  191.0340  176.4520  145.6500 N   0  0  0  0  0  0  0  0  0  0  0  0
  189.9520  176.7270  144.6960 C   0  0  0  0  0  2  0  0  0  0  0  0
  188.6900  176.4690  146.7680 O   0  0  0  0  0  0  0  0  0  0  0  0
  190.7500  175.2560  146.4710 C   0  0  1  0  0  3  0  0  0  0  0  0
  192.1710  176.6260  143.4070 C   0  0  0  0  0  2  0  0  0  0  0  0
  191.9260  175.4530  142.6890 O   0  0  0  0  0  1  0  0  0  0  0  0
  1  5  1  0  0  0  0
  2  5  1  0  0  0  0
  3  4  1  0  0  0  0
  3  6  1  0  0  0  0
  4  2  2  0  0  0  0
  5 40  1  1  0  0  0
  6 18  1  1  0  0  0
  6  1  1  0  0  0  0
  7  4  1  0  0  0  0
  9  7  1  0  0  0  0
 10 12  1  0  0  0  0
 11  8  1  0  0  0  0
 11  7  2  0  0  0  0
 12 11  1  0  0  0  0
 13 14  1  0  0  0  0
 14 12  2  0  0  0  0
 14 15  1  0  0  0  0
 15  9  2  0  0  0  0
 17 15  1  0  0  0  0
 17 16  1  0  0  0  0
 18 19  1  0  0  0  0
 19 20  1  0  0  0  0
 20 21  1  0  0  0  0
 22 23  1  0  0  0  0
 22 21  1  0  0  0  0
 23 24  2  0  0  0  0
 23 25  1  0  0  0  0
 25 33  1  6  0  0  0
 25 26  1  0  0  0  0
 26 27  1  0  0  0  0
 27 28  2  0  0  0  0
 27 29  1  0  0  0  0
 29 32  1  0  0  0  0
 32 30  1  0  0  0  0
 32 31  1  0  0  0  0
 34 33  2  0  0  0  0
 35 34  1  6  0  0  0
 35 36  1  0  0  0  0
 37 36  1  0  0  0  0
 38 37  1  0  0  0  0
 39 38  1  0  0  0  0
 39 35  1  0  0  0  0
 40 41  1  0  0  0  0
 41 43  1  0  0  0  0
 43 42  1  1  0  0  0
 44 45  1  6  0  0  0
 44 43  1  0  0  0  0
 44 46  1  0  0  0  0
 46 49  1  0  0  0  0
 46 48  1  1  0  0  0
 48 47  1  0  0  0  0
 50 58  1  6  0  0  0
 50 49  1  0  0  0  0
 50 54  1  0  0  0  0
 53 56  1  0  0  0  0
 54 57  1  0  0  0  0
 55 53  1  0  0  0  0
 55 54  1  0  0  0  0
 56 52  1  0  0  0  0
 57 52  1  0  0  0  0
 57 51  1  1  0  0  0
 59 58  1  0  0  0  0
M  END
>  <MODEL>
8

>  <REMARK>
 VINA RESULT:      -5.5      2.607      7.359
  Name = 
  24 active torsions:
  status: ('A' for Active; 'I' for Inactive)
    1  A    between atoms: C_3  and  C_17
    2  A    between atoms: C_6  and  N_24
    3  A    between atoms: C_6  and  C_48
    4  A    between atoms: C_7  and  C_56
    5  A    between atoms: N_10  and  C_43
    6  A    between atoms: C_12  and  C_16
    7  A    between atoms: C_13  and  C_32
    8  A    between atoms: C_14  and  N_24
    9  A    between atoms: C_14  and  C_55
   10  A    between atoms: O_15  and  C_48
   11  A    between atoms: O_15  and  C_52
   12  A    between atoms: C_16  and  O_29
   13  A    between atoms: C_16  and  N_34
   14  A    between atoms: C_21  and  C_33
   15  A    between atoms: C_21  and  C_46
   16  A    between atoms: O_23  and  C_31
   17  A    between atoms: O_23  and  C_40
   18  A    between atoms: O_29  and  C_33
   19  A    between atoms: C_31  and  C_46
   20  A    between atoms: C_32  and  C_58
   21  A    between atoms: C_33  and  C_35
   22  A    between atoms: C_38  and  C_43
   23  A    between atoms: C_43  and  C_55
   24  A    between atoms: C_45  and  O_49
                            x       y       z     vdW  Elec       q    Type
                         _______ _______ _______ _____ _____    ______ ____

>  <TORSDO>
F 24

$$$$
=
 OpenBabel11042415433D

 59 62  0  0  1  0  0  0  0  0999 V2000
  190.9020  171.8600  143.1310 C   0  0  0  0  0  2  0  0  0  0  0  0
  190.3930  171.5430  140.6950 C   0  0  0  0  0  3  0  0  0  0  0  0
  191.8580  169.9080  141.7470 C   0  0  0  0  0  2  0  0  0  0  0  0
  191.3560  170.6320  140.5250 C   0  0  0  0  0  0  0  0  0  0  0  0
  189.8060  171.7690  142.0580 C   0  0  2  0  0  3  0  0  0  0  0  0
  192.0870  170.9000  142.8980 C   0  0  2  0  0  3  0  0  0  0  0  0
  191.9820  170.3780  139.1970 C   0  0  0  0  0  0  0  0  0  0  0  0
  189.7590  169.9260  138.0270 C   0  0  0  0  0  1  0  0  0  0  0  0
  193.3810  170.4410  139.1190 C   0  0  0  0  0  3  0  0  0  0  0  0
  191.2200  169.5760  135.6410 O   0  0  0  0  0  1  0  0  0  0  0  0
  191.2490  170.0790  138.0170 C   0  0  0  0  0  0  0  0  0  0  0  0
  191.9300  169.8700  136.8040 C   0  0  0  0  0  0  0  0  0  0  0  0
  193.9880  169.7390  135.5490 O   0  0  0  0  0  1  0  0  0  0  0  0
  193.3270  169.9480  136.7540 C   0  0  0  0  0  0  0  0  0  0  0  0
  194.0590  170.2290  137.9110 C   0  0  0  0  0  0  0  0  0  0  0  0
  196.2870  170.1890  138.9910 C   0  0  0  0  0  1  0  0  0  0  0  0
  195.4550  170.2940  137.8410 O   0  0  0  0  0  0  0  0  0  0  0  0
  192.3770  170.2130  144.0770 O   0  0  0  0  0  0  0  0  0  0  0  0
  192.6640  168.9030  143.6710 C   0  0  0  0  0  2  0  0  0  0  0  0
  193.5510  168.2180  144.6960 C   0  0  0  0  0  2  0  0  0  0  0  0
  194.3610  169.2070  145.3900 N   0  0  0  0  0  2  0  0  0  0  0  0
  195.6620  169.2170  144.7420 C   0  0  0  0  0  2  0  0  0  0  0  0
  196.2440  170.5960  144.7950 C   0  0  0  0  0  0  0  0  0  0  0  0
  197.2280  170.8110  145.4860 O   0  0  0  0  0  0  0  0  0  0  0  0
  195.6350  171.7250  144.0200 C   0  0  1  0  0  3  0  0  0  0  0  0
  195.7860  172.9880  144.7340 N   0  0  0  0  0  2  0  0  0  0  0  0
  194.7150  173.5970  145.4610 C   0  0  0  0  0  0  0  0  0  0  0  0
  193.5940  173.0310  145.5520 O   0  0  0  0  0  0  0  0  0  0  0  0
  194.9400  174.8990  146.1510 C   0  0  0  0  0  2  0  0  0  0  0  0
  194.6170  177.1580  145.1410 C   0  0  0  0  0  1  0  0  0  0  0  0
  193.0680  176.3440  146.8860 C   0  0  0  0  0  1  0  0  0  0  0  0
  193.9160  175.9330  145.7010 C   0  0  0  0  0  3  0  0  0  0  0  0
  196.2630  171.8260  142.6610 C   0  0  0  0  0  3  0  0  0  0  0  0
  195.7620  172.5920  141.6800 C   0  0  0  0  0  3  0  0  0  0  0  0
  194.5160  173.4120  141.8330 C   0  0  1  0  0  3  0  0  0  0  0  0
  194.8730  174.8640  141.9350 C   0  0  0  0  0  2  0  0  0  0  0  0
  194.2010  175.5060  140.8210 N   0  0  0  0  0  2  0  0  0  0  0  0
  193.2220  174.5980  140.3760 N   0  0  0  0  0  2  0  0  0  0  0  0
  193.6990  173.3000  140.6410 N   0  0  0  0  0  2  0  0  0  0  0  0
  189.0370  172.9330  142.0590 O   0  0  0  0  0  0  0  0  0  0  0  0
  189.9470  173.9630  141.7990 C   0  0  0  0  0  2  0  0  0  0  0  0
  187.9380  175.2260  141.7070 O   0  0  0  0  0  1  0  0  0  0  0  0
  189.2880  175.3110  142.0560 C   0  0  1  0  0  3  0  0  0  0  0  0
  189.4220  175.7220  143.5270 C   0  0  1  0  0  3  0  0  0  0  0  0
  190.7110  175.4290  143.9830 O   0  0  0  0  0  1  0  0  0  0  0  0
  189.1510  177.2190  143.7210 C   0  0  2  0  0  3  0  0  0  0  0  0
  191.5170  177.6520  143.6600 O   0  0  0  0  0  1  0  0  0  0  0  0
  190.2860  178.0650  143.1470 C   0  0  0  0  0  2  0  0  0  0  0  0
  188.9730  177.5330  145.0750 O   0  0  0  0  0  0  0  0  0  0  0  0
  187.8020  176.8660  145.4560 C   0  0  2  0  0  3  0  0  0  0  0  0
  186.9560  178.6740  147.7070 O   0  0  0  0  0  1  0  0  0  0  0  0
  184.7180  178.5150  146.9010 C   0  0  0  0  0  2  0  0  0  0  0  0
  184.3970  178.2920  144.6840 C   0  0  0  0  0  2  0  0  0  0  0  0
  186.6800  177.8180  145.5390 N   0  0  0  0  0  0  0  0  0  0  0  0
  185.6620  177.4270  144.5560 C   0  0  0  0  0  2  0  0  0  0  0  0
  184.5160  179.2430  145.7150 O   0  0  0  0  0  0  0  0  0  0  0  0
  186.1220  177.8980  146.9050 C   0  0  1  0  0  3  0  0  0  0  0  0
  188.0490  176.0780  146.7450 C   0  0  0  0  0  2  0  0  0  0  0  0
  189.3500  176.2920  147.2050 O   0  0  0  0  0  1  0  0  0  0  0  0
  2  5  1  0  0  0  0
  3  6  1  0  0  0  0
  4  2  2  0  0  0  0
  4  3  1  0  0  0  0
  5 40  1  6  0  0  0
  5  1  1  0  0  0  0
  6  1  1  0  0  0  0
  6 18  1  1  0  0  0
  7  4  1  0  0  0  0
  9  7  1  0  0  0  0
 10 12  1  0  0  0  0
 11  8  1  0  0  0  0
 11  7  2  0  0  0  0
 12 11  1  0  0  0  0
 13 14  1  0  0  0  0
 14 12  2  0  0  0  0
 14 15  1  0  0  0  0
 15  9  2  0  0  0  0
 17 15  1  0  0  0  0
 17 16  1  0  0  0  0
 19 18  1  0  0  0  0
 19 20  1  0  0  0  0
 20 21  1  0  0  0  0
 22 23  1  0  0  0  0
 22 21  1  0  0  0  0
 23 24  2  0  0  0  0
 25 33  1  6  0  0  0
 25 26  1  0  0  0  0
 25 23  1  0  0  0  0
 26 27  1  0  0  0  0
 27 28  2  0  0  0  0
 27 29  1  0  0  0  0
 30 32  1  0  0  0  0
 32 29  1  0  0  0  0
 32 31  1  0  0  0  0
 34 33  2  0  0  0  0
 35 34  1  6  0  0  0
 35 36  1  0  0  0  0
 37 36  1  0  0  0  0
 38 39  1  0  0  0  0
 38 37  1  0  0  0  0
 39 35  1  0  0  0  0
 41 43  1  0  0  0  0
 41 40  1  0  0  0  0
 43 42  1  1  0  0  0
 43 44  1  0  0  0  0
 44 46  1  0  0  0  0
 44 45  1  6  0  0  0
 46 48  1  1  0  0  0
 46 49  1  0  0  0  0
 48 47  1  0  0  0  0
 49 50  1  0  0  0  0
 50 54  1  0  0  0  0
 50 58  1  1  0  0  0
 52 57  1  0  0  0  0
 53 56  1  0  0  0  0
 54 57  1  0  0  0  0
 55 53  1  0  0  0  0
 55 54  1  0  0  0  0
 56 52  1  0  0  0  0
 57 51  1  1  0  0  0
 58 59  1  0  0  0  0
M  END
>  <MODEL>
9

>  <REMARK>
 VINA RESULT:      -5.4      3.404     10.182
  Name = 
  24 active torsions:
  status: ('A' for Active; 'I' for Inactive)
    1  A    between atoms: C_3  and  C_17
    2  A    between atoms: C_6  and  N_24
    3  A    between atoms: C_6  and  C_48
    4  A    between atoms: C_7  and  C_56
    5  A    between atoms: N_10  and  C_43
    6  A    between atoms: C_12  and  C_16
    7  A    between atoms: C_13  and  C_32
    8  A    between atoms: C_14  and  N_24
    9  A    between atoms: C_14  and  C_55
   10  A    between atoms: O_15  and  C_48
   11  A    between atoms: O_15  and  C_52
   12  A    between atoms: C_16  and  O_29
   13  A    between atoms: C_16  and  N_34
   14  A    between atoms: C_21  and  C_33
   15  A    between atoms: C_21  and  C_46
   16  A    between atoms: O_23  and  C_31
   17  A    between atoms: O_23  and  C_40
   18  A    between atoms: O_29  and  C_33
   19  A    between atoms: C_31  and  C_46
   20  A    between atoms: C_32  and  C_58
   21  A    between atoms: C_33  and  C_35
   22  A    between atoms: C_38  and  C_43
   23  A    between atoms: C_43  and  C_55
   24  A    between atoms: C_45  and  O_49
                            x       y       z     vdW  Elec       q    Type
                         _______ _______ _______ _____ _____    ______ ____

>  <TORSDO>
F 24

$$$$
