=
 OpenBabel11042413543D

 51 57  0  0  1  0  0  0  0  0999 V2000
  189.6700  175.2750  146.4600 C   0  0  2  0  0  3  0  0  0  0  0  0
  188.3930  175.5470  147.1120 N   0  0  0  0  0  2  0  0  0  0  0  0
  187.5740  176.2160  146.1880 N   0  0  0  0  0  0  0  0  0  0  0  0
  186.4260  176.7080  146.9350 C   0  0  0  0  0  2  0  0  0  0  0  0
  186.4090  178.2230  146.9040 C   0  0  0  0  0  1  0  0  0  0  0  0
  188.3270  177.3770  145.7330 C   0  0  0  0  0  2  0  0  0  0  0  0
  188.2840  177.4850  144.2160 C   0  0  0  0  0  2  0  0  0  0  0  0
  187.6560  176.2980  143.6480 N   0  0  0  0  0  2  0  0  0  0  0  0
  186.6530  176.7550  142.6930 C   0  0  2  0  0  3  0  0  0  0  0  0
  187.1590  177.9870  141.9630 C   0  0  0  0  0  1  0  0  0  0  0  0
  185.3510  177.1060  143.4040 C   0  0  0  0  0  2  0  0  0  0  0  0
  183.6600  178.4970  142.3250 N   0  0  0  0  0  0  0  0  0  0  0  0
  183.7090  178.8430  143.7730 C   0  0  0  0  0  2  0  0  0  0  0  0
  183.5860  177.9310  140.0780 O   0  0  0  0  0  0  0  0  0  0  0  0
  184.9040  178.5420  143.1470 C   0  0  1  0  0  3  0  0  0  0  0  0
  182.9510  178.2540  141.1120 C   0  0  0  0  0  0  0  0  0  0  0  0
  179.4040  177.8430  139.7600 C   0  0  0  0  0  2  0  0  0  0  0  0
  179.4090  178.9180  142.2870 C   0  0  0  0  0  2  0  0  0  0  0  0
  181.4850  178.3370  141.0790 C   0  0  0  0  0  0  0  0  0  0  0  0
  179.5940  180.3790  140.1470 C   0  0  0  0  0  2  0  0  0  0  0  0
  178.6800  179.2000  139.8400 C   0  0  2  0  0  3  0  0  0  0  0  0
  180.8590  178.8030  142.1230 N   0  0  0  0  0  0  0  0  0  0  0  0
  180.8200  177.9390  139.9040 O   0  0  0  0  0  0  0  0  0  0  0  0
  178.7040  179.8170  141.2440 C   0  0  1  0  0  3  0  0  0  0  0  0
  189.6600  173.9490  145.8580 N   0  0  0  0  0  2  0  0  0  0  0  0
  190.0630  173.6380  143.3020 C   0  0  0  0  0  0  0  0  0  0  0  0
  189.8800  173.7830  144.4840 C   0  0  0  0  0  0  0  0  0  0  0  0
  188.7880  174.1860  137.3250 C   0  0  0  0  0  2  0  0  0  0  0  0
  190.2680  173.4490  141.8940 C   0  0  0  0  0  0  0  0  0  0  0  0
  190.6650  173.0970  139.1430 C   0  0  0  0  0  0  0  0  0  0  0  0
  190.8320  172.9220  137.6830 C   0  0  0  0  0  0  0  0  0  0  0  0
  189.4140  173.5190  139.6300 C   0  0  0  0  0  0  0  0  0  0  0  0
  189.9250  173.3810  136.8690 N   0  0  0  0  0  0  0  0  0  0  0  0
  188.2690  173.6980  138.6790 C   0  0  0  0  0  2  0  0  0  0  0  0
  191.5140  173.0300  141.4160 C   0  0  0  0  0  3  0  0  0  0  0  0
  191.7130  172.8520  140.0420 C   0  0  0  0  0  3  0  0  0  0  0  0
  189.2160  173.6840  141.0040 C   0  0  0  0  0  3  0  0  0  0  0  0
  192.6070  172.6000  136.1340 O   0  0  0  0  0  0  0  0  0  0  0  0
  191.9840  172.1860  137.1470 C   0  0  0  0  0  3  0  0  0  0  0  0
  190.7720  175.3860  147.4180 N   0  0  0  0  0  2  0  0  0  0  0  0
  191.5620  176.4940  147.0690 N   0  0  0  0  0  2  0  0  0  0  0  0
  192.8930  176.0480  147.0220 N   0  0  0  0  0  2  0  0  0  0  0  0
  193.5980  176.0740  143.4280 C   0  0  0  0  0  3  0  0  0  0  0  0
  194.7890  176.0120  145.4660 C   0  0  2  0  0  3  0  0  0  0  0  0
  194.5450  177.4290  145.8240 N   0  0  0  0  0  2  0  0  0  0  0  0
  192.6060  176.4510  144.4660 C   0  0  0  0  0  2  0  0  0  0  0  0
  194.7840  175.8500  143.9810 C   0  0  0  0  0  0  0  0  0  0  0  0
  193.4370  176.4700  145.7410 C   0  0  2  0  0  0  0  0  0  0  0  0
  195.9490  175.4910  143.2210 N   0  0  0  0  0  0  0  0  0  0  0  0
  196.1300  174.1450  142.7000 C   0  0  0  0  0  1  0  0  0  0  0  0
  196.9300  176.5030  142.8580 C   0  0  0  0  0  1  0  0  0  0  0  0
  1 25  1  1  0  0  0
  1  2  1  0  0  0  0
  1 40  1  0  0  0  0
  3  4  1  0  0  0  0
  3  2  1  0  0  0  0
  5  4  1  0  0  0  0
  6  3  1  0  0  0  0
  7  6  1  0  0  0  0
  8  7  1  0  0  0  0
  9 10  1  1  0  0  0
  9 11  1  0  0  0  0
  9  8  1  0  0  0  0
 12 15  1  0  0  0  0
 12 13  1  0  0  0  0
 14 16  2  0  0  0  0
 15 11  1  1  0  0  0
 15 13  1  0  0  0  0
 16 12  1  0  0  0  0
 17 23  1  0  0  0  0
 19 16  1  0  0  0  0
 19 22  2  0  0  0  0
 21 17  1  1  0  0  0
 21 20  1  0  0  0  0
 21 24  1  0  0  0  0
 22 18  1  0  0  0  0
 23 19  1  0  0  0  0
 24 20  1  6  0  0  0
 24 18  1  0  0  0  0
 26 27  3  0  0  0  0
 27 25  1  0  0  0  0
 28 34  1  0  0  0  0
 29 26  1  0  0  0  0
 30 32  2  0  0  0  0
 30 36  1  0  0  0  0
 31 30  1  0  0  0  0
 32 37  1  0  0  0  0
 33 28  1  0  0  0  0
 33 31  2  0  0  0  0
 34 32  1  0  0  0  0
 35 29  1  0  0  0  0
 36 35  2  0  0  0  0
 37 29  2  0  0  0  0
 38 39  2  0  0  0  0
 39 31  1  0  0  0  0
 41 40  1  0  0  0  0
 42 41  1  0  0  0  0
 43 47  2  0  0  0  0
 43 46  1  0  0  0  0
 44 47  1  6  0  0  0
 44 48  1  0  0  0  0
 44 45  1  0  0  0  0
 46 48  1  0  0  0  0
 48 45  1  0  0  0  0
 48 42  1  1  0  0  0
 49 47  1  0  0  0  0
 50 49  1  0  0  0  0
 51 49  1  0  0  0  0
M  END
>  <MODEL>
1

>  <REMARK>
 VINA RESULT:      -7.1      0.000      0.000
  Name = 
  19 active torsions:
  status: ('A' for Active; 'I' for Inactive)
    1  A    between atoms: N_1  and  C_35
    2  A    between atoms: N_1  and  C_51
    3  A    between atoms: C_7  and  C_30
    4  A    between atoms: N_9  and  C_35
    5  A    between atoms: N_9  and  N_36
    6  A    between atoms: CA_12  and  C_22
    7  A    between atoms: N_13  and  N_21
    8  A    between atoms: N_13  and  N_46
    9  A    between atoms: C_16  and  C_43
   10  A    between atoms: N_21  and  C_48
   11  A    between atoms: C_25  and  C_38
   12  A    between atoms: C_25  and  N_40
   13  A    between atoms: N_27  and  C_47
   14  A    between atoms: C_28  and  C_33
   15  A    between atoms: C_28  and  N_36
   16  A    between atoms: C_33  and  N_40
   17  A    between atoms: C_34  and  N_36
   18  A    between atoms: C_35  and  N_46
   19  A    between atoms: C_38  and  C_42
                            x       y       z     vdW  Elec       q    Type
                         _______ _______ _______ _____ _____    ______ ____

>  <TORSDO>
F 19

$$$$
=
 OpenBabel11042413543D

 51 57  0  0  1  0  0  0  0  0999 V2000
  194.9890  176.0550  143.2040 C   0  0  2  0  0  3  0  0  0  0  0  0
  195.0090  174.9220  144.1240 N   0  0  0  0  0  2  0  0  0  0  0  0
  195.5730  175.3630  145.3320 N   0  0  0  0  0  0  0  0  0  0  0  0
  194.4630  175.5940  146.2460 C   0  0  0  0  0  2  0  0  0  0  0  0
  194.3810  177.0680  146.5880 C   0  0  0  0  0  1  0  0  0  0  0  0
  196.3450  174.2460  145.8610 C   0  0  0  0  0  2  0  0  0  0  0  0
  196.8040  173.3310  144.7350 C   0  0  0  0  0  2  0  0  0  0  0  0
  197.3440  172.0930  145.2850 N   0  0  0  0  0  2  0  0  0  0  0  0
  196.2130  171.3000  145.7550 C   0  0  2  0  0  3  0  0  0  0  0  0
  196.7070  169.9730  146.3050 C   0  0  0  0  0  1  0  0  0  0  0  0
  195.2360  171.0260  144.6170 C   0  0  0  0  0  2  0  0  0  0  0  0
  192.8040  171.1850  144.4750 N   0  0  0  0  0  0  0  0  0  0  0  0
  193.2160  169.8100  144.0770 C   0  0  0  0  0  2  0  0  0  0  0  0
  192.1860  173.3350  145.0820 O   0  0  0  0  0  0  0  0  0  0  0  0
  193.9220  170.4180  145.0970 C   0  0  1  0  0  3  0  0  0  0  0  0
  191.9980  172.3510  144.3260 C   0  0  0  0  0  0  0  0  0  0  0  0
  190.1440  171.4200  141.1200 C   0  0  0  0  0  2  0  0  0  0  0  0
  188.9030  173.4780  142.4490 C   0  0  0  0  0  2  0  0  0  0  0  0
  190.9820  172.4210  143.2670 C   0  0  0  0  0  0  0  0  0  0  0  0
  190.8050  173.8740  140.7230 C   0  0  0  0  0  2  0  0  0  0  0  0
  189.9790  172.6840  140.2550 C   0  0  2  0  0  3  0  0  0  0  0  0
  190.0210  173.2950  143.3760 N   0  0  0  0  0  0  0  0  0  0  0  0
  191.1090  171.5600  142.1610 O   0  0  0  0  0  0  0  0  0  0  0  0
  189.3110  173.8440  141.0020 C   0  0  1  0  0  3  0  0  0  0  0  0
  193.8690  175.9370  142.2810 N   0  0  0  0  0  2  0  0  0  0  0  0
  191.4600  176.6040  143.0230 C   0  0  0  0  0  0  0  0  0  0  0  0
  192.5730  176.2930  142.6780 C   0  0  0  0  0  0  0  0  0  0  0  0
  186.9950  177.7830  147.0630 C   0  0  0  0  0  2  0  0  0  0  0  0
  190.1440  176.9840  143.4490 C   0  0  0  0  0  0  0  0  0  0  0  0
  187.5810  177.7380  144.2930 C   0  0  0  0  0  0  0  0  0  0  0  0
  186.2350  178.1180  144.7780 C   0  0  0  0  0  0  0  0  0  0  0  0
  188.4590  177.0920  145.1830 C   0  0  0  0  0  0  0  0  0  0  0  0
  185.9730  178.0740  146.0530 N   0  0  0  0  0  0  0  0  0  0  0  0
  187.9880  176.7330  146.5610 C   0  0  0  0  0  2  0  0  0  0  0  0
  189.2760  177.6270  142.5590 C   0  0  0  0  0  3  0  0  0  0  0  0
  187.9950  178.0020  142.9790 C   0  0  0  0  0  3  0  0  0  0  0  0
  189.7330  176.7090  144.7560 C   0  0  0  0  0  3  0  0  0  0  0  0
  184.6250  177.6240  143.1000 O   0  0  0  0  0  0  0  0  0  0  0  0
  185.1780  178.4890  143.8300 C   0  0  0  0  0  3  0  0  0  0  0  0
  196.2490  176.1360  142.4610 N   0  0  0  0  0  2  0  0  0  0  0  0
  195.9580  176.3880  141.1090 N   0  0  0  0  0  2  0  0  0  0  0  0
  197.0490  175.9150  140.3620 N   0  0  0  0  0  2  0  0  0  0  0  0
  196.0100  175.2050  136.9220 C   0  0  0  0  0  3  0  0  0  0  0  0
  195.0570  175.2700  139.0810 C   0  0  2  0  0  3  0  0  0  0  0  0
  195.6920  174.0200  139.5620 N   0  0  0  0  0  2  0  0  0  0  0  0
  197.1660  175.2310  137.8530 C   0  0  0  0  0  2  0  0  0  0  0  0
  194.8690  175.2140  137.6010 C   0  0  0  0  0  0  0  0  0  0  0  0
  196.5020  175.1950  139.2220 C   0  0  2  0  0  0  0  0  0  0  0  0
  193.5800  175.1690  136.9690 N   0  0  0  0  0  0  0  0  0  0  0  0
  193.3330  175.8390  135.7010 C   0  0  0  0  0  1  0  0  0  0  0  0
  192.5130  174.3570  137.5330 C   0  0  0  0  0  1  0  0  0  0  0  0
  1 25  1  6  0  0  0
  1  2  1  0  0  0  0
  2  3  1  0  0  0  0
  3  6  1  0  0  0  0
  3  4  1  0  0  0  0
  4  5  1  0  0  0  0
  7  8  1  0  0  0  0
  7  6  1  0  0  0  0
  8  9  1  0  0  0  0
  9 10  1  6  0  0  0
 11  9  1  0  0  0  0
 12 15  1  0  0  0  0
 13 12  1  0  0  0  0
 13 15  1  0  0  0  0
 15 11  1  6  0  0  0
 16 12  1  0  0  0  0
 16 14  2  0  0  0  0
 17 23  1  0  0  0  0
 18 22  1  0  0  0  0
 19 22  2  0  0  0  0
 19 16  1  0  0  0  0
 21 20  1  1  0  0  0
 21 24  1  0  0  0  0
 21 17  1  0  0  0  0
 23 19  1  0  0  0  0
 24 20  1  1  0  0  0
 24 18  1  0  0  0  0
 25 27  1  0  0  0  0
 26 29  1  0  0  0  0
 27 26  3  0  0  0  0
 29 37  1  0  0  0  0
 30 31  1  0  0  0  0
 30 32  1  0  0  0  0
 31 33  2  0  0  0  0
 32 34  1  0  0  0  0
 33 28  1  0  0  0  0
 34 28  1  0  0  0  0
 35 36  1  0  0  0  0
 35 29  2  0  0  0  0
 36 30  2  0  0  0  0
 37 32  2  0  0  0  0
 38 39  2  0  0  0  0
 39 31  1  0  0  0  0
 40  1  1  0  0  0  0
 41 40  1  0  0  0  0
 42 41  1  0  0  0  0
 43 47  2  0  0  0  0
 43 46  1  0  0  0  0
 44 47  1  6  0  0  0
 44 48  1  0  0  0  0
 44 45  1  0  0  0  0
 46 48  1  0  0  0  0
 48 45  1  0  0  0  0
 48 42  1  1  0  0  0
 49 51  1  0  0  0  0
 49 47  1  0  0  0  0
 50 49  1  0  0  0  0
M  END
>  <MODEL>
2

>  <REMARK>
 VINA RESULT:      -6.9      3.450      9.357
  Name = 
  19 active torsions:
  status: ('A' for Active; 'I' for Inactive)
    1  A    between atoms: N_1  and  C_35
    2  A    between atoms: N_1  and  C_51
    3  A    between atoms: C_7  and  C_30
    4  A    between atoms: N_9  and  C_35
    5  A    between atoms: N_9  and  N_36
    6  A    between atoms: CA_12  and  C_22
    7  A    between atoms: N_13  and  N_21
    8  A    between atoms: N_13  and  N_46
    9  A    between atoms: C_16  and  C_43
   10  A    between atoms: N_21  and  C_48
   11  A    between atoms: C_25  and  C_38
   12  A    between atoms: C_25  and  N_40
   13  A    between atoms: N_27  and  C_47
   14  A    between atoms: C_28  and  C_33
   15  A    between atoms: C_28  and  N_36
   16  A    between atoms: C_33  and  N_40
   17  A    between atoms: C_34  and  N_36
   18  A    between atoms: C_35  and  N_46
   19  A    between atoms: C_38  and  C_42
                            x       y       z     vdW  Elec       q    Type
                         _______ _______ _______ _____ _____    ______ ____

>  <TORSDO>
F 19

$$$$
=
 OpenBabel11042413543D

 51 57  0  0  1  0  0  0  0  0999 V2000
  188.8790  176.4490  146.2260 C   0  0  2  0  0  3  0  0  0  0  0  0
  187.7460  177.0530  146.9210 N   0  0  0  0  0  2  0  0  0  0  0  0
  186.6930  177.1710  145.9990 N   0  0  0  0  0  0  0  0  0  0  0  0
  185.8830  178.2960  146.4410 C   0  0  0  0  0  2  0  0  0  0  0  0
  184.4310  177.8720  146.5400 C   0  0  0  0  0  1  0  0  0  0  0  0
  187.2980  177.5440  144.7270 C   0  0  0  0  0  2  0  0  0  0  0  0
  186.2290  177.7410  143.6610 C   0  0  0  0  0  2  0  0  0  0  0  0
  186.2710  176.6430  142.7030 N   0  0  0  0  0  2  0  0  0  0  0  0
  187.0520  177.0990  141.5580 C   0  0  2  0  0  3  0  0  0  0  0  0
  186.1450  177.7920  140.5570 C   0  0  0  0  0  1  0  0  0  0  0  0
  187.7360  175.9230  140.8690 C   0  0  0  0  0  2  0  0  0  0  0  0
  189.6700  174.4700  141.1920 N   0  0  0  0  0  0  0  0  0  0  0  0
  189.6480  175.4830  142.2830 C   0  0  0  0  0  2  0  0  0  0  0  0
  189.6970  172.9130  139.4750 O   0  0  0  0  0  0  0  0  0  0  0  0
  188.4340  174.9860  141.8490 C   0  0  1  0  0  3  0  0  0  0  0  0
  190.3540  173.6740  140.2270 C   0  0  0  0  0  0  0  0  0  0  0  0
  193.7210  174.1910  138.5010 C   0  0  0  0  0  2  0  0  0  0  0  0
  194.0160  173.7720  141.1990 C   0  0  0  0  0  2  0  0  0  0  0  0
  191.8120  173.7720  140.0810 C   0  0  0  0  0  0  0  0  0  0  0  0
  193.9240  171.8220  139.4840 C   0  0  0  0  0  2  0  0  0  0  0  0
  194.6370  172.9980  138.8300 C   0  0  2  0  0  3  0  0  0  0  0  0
  192.5590  173.6580  141.1440 N   0  0  0  0  0  0  0  0  0  0  0  0
  192.3440  173.9540  138.7910 O   0  0  0  0  0  0  0  0  0  0  0  0
  194.7830  172.7440  140.3350 C   0  0  1  0  0  3  0  0  0  0  0  0
  189.0720  175.0750  146.6700 N   0  0  0  0  0  2  0  0  0  0  0  0
  190.0410  173.2750  145.0530 C   0  0  0  0  0  0  0  0  0  0  0  0
  189.5900  174.1070  145.7990 C   0  0  0  0  0  0  0  0  0  0  0  0
  194.1550  169.1540  143.1170 C   0  0  0  0  0  2  0  0  0  0  0  0
  190.5960  172.2930  144.1660 C   0  0  0  0  0  0  0  0  0  0  0  0
  191.6840  170.3650  142.4490 C   0  0  0  0  0  0  0  0  0  0  0  0
  192.2980  169.3510  141.5620 C   0  0  0  0  0  0  0  0  0  0  0  0
  192.4810  170.9550  143.4470 C   0  0  0  0  0  0  0  0  0  0  0  0
  193.4630  168.8520  141.8610 N   0  0  0  0  0  0  0  0  0  0  0  0
  193.9380  170.6100  143.5340 C   0  0  0  0  0  2  0  0  0  0  0  0
  189.7980  171.7080  143.1770 C   0  0  0  0  0  3  0  0  0  0  0  0
  190.3410  170.7460  142.3170 C   0  0  0  0  0  3  0  0  0  0  0  0
  191.9380  171.9240  144.2950 C   0  0  0  0  0  3  0  0  0  0  0  0
  192.2840  168.4720  139.3520 O   0  0  0  0  0  0  0  0  0  0  0  0
  191.6300  168.9450  140.3190 C   0  0  0  0  0  3  0  0  0  0  0  0
  190.0980  177.2280  146.4550 N   0  0  0  0  0  2  0  0  0  0  0  0
  191.0620  176.8450  145.5080 N   0  0  0  0  0  2  0  0  0  0  0  0
  192.2580  176.6240  146.2080 N   0  0  0  0  0  2  0  0  0  0  0  0
  194.9070  174.2530  145.3240 C   0  0  0  0  0  3  0  0  0  0  0  0
  194.0250  176.2980  144.5370 C   0  0  2  0  0  3  0  0  0  0  0  0
  192.7810  175.7180  143.9770 N   0  0  0  0  0  2  0  0  0  0  0  0
  193.6030  174.4030  146.0160 C   0  0  0  0  0  2  0  0  0  0  0  0
  195.1200  175.2830  144.5130 C   0  0  0  0  0  0  0  0  0  0  0  0
  193.0450  175.6880  145.4210 C   0  0  2  0  0  0  0  0  0  0  0  0
  196.2910  175.4030  143.6890 N   0  0  0  0  0  0  0  0  0  0  0  0
  196.8140  176.7030  143.3000 C   0  0  0  0  0  1  0  0  0  0  0  0
  197.0500  174.2200  143.3130 C   0  0  0  0  0  1  0  0  0  0  0  0
  1 40  1  1  0  0  0
  1 25  1  0  0  0  0
  1  2  1  0  0  0  0
  3  4  1  0  0  0  0
  3  2  1  0  0  0  0
  4  5  1  0  0  0  0
  6  3  1  0  0  0  0
  7  6  1  0  0  0  0
  8  7  1  0  0  0  0
  9 10  1  6  0  0  0
  9  8  1  0  0  0  0
 11  9  1  0  0  0  0
 12 15  1  0  0  0  0
 12 13  1  0  0  0  0
 14 16  2  0  0  0  0
 15 11  1  6  0  0  0
 15 13  1  0  0  0  0
 16 12  1  0  0  0  0
 17 23  1  0  0  0  0
 19 16  1  0  0  0  0
 19 22  2  0  0  0  0
 21 17  1  1  0  0  0
 21 20  1  0  0  0  0
 21 24  1  0  0  0  0
 22 18  1  0  0  0  0
 23 19  1  0  0  0  0
 24 20  1  6  0  0  0
 24 18  1  0  0  0  0
 26 27  3  0  0  0  0
 27 25  1  0  0  0  0
 28 34  1  0  0  0  0
 29 37  1  0  0  0  0
 29 26  1  0  0  0  0
 30 32  1  0  0  0  0
 31 33  2  0  0  0  0
 31 30  1  0  0  0  0
 32 34  1  0  0  0  0
 32 37  2  0  0  0  0
 33 28  1  0  0  0  0
 35 29  2  0  0  0  0
 36 30  2  0  0  0  0
 36 35  1  0  0  0  0
 38 39  2  0  0  0  0
 39 31  1  0  0  0  0
 41 42  1  0  0  0  0
 41 40  1  0  0  0  0
 43 46  1  0  0  0  0
 44 45  1  6  0  0  0
 44 48  1  0  0  0  0
 45 48  1  0  0  0  0
 47 44  1  0  0  0  0
 47 43  2  0  0  0  0
 48 46  1  0  0  0  0
 48 42  1  1  0  0  0
 49 47  1  0  0  0  0
 50 49  1  0  0  0  0
 51 49  1  0  0  0  0
M  END
>  <MODEL>
3

>  <REMARK>
 VINA RESULT:      -6.9      3.515      7.058
  Name = 
  19 active torsions:
  status: ('A' for Active; 'I' for Inactive)
    1  A    between atoms: N_1  and  C_35
    2  A    between atoms: N_1  and  C_51
    3  A    between atoms: C_7  and  C_30
    4  A    between atoms: N_9  and  C_35
    5  A    between atoms: N_9  and  N_36
    6  A    between atoms: CA_12  and  C_22
    7  A    between atoms: N_13  and  N_21
    8  A    between atoms: N_13  and  N_46
    9  A    between atoms: C_16  and  C_43
   10  A    between atoms: N_21  and  C_48
   11  A    between atoms: C_25  and  C_38
   12  A    between atoms: C_25  and  N_40
   13  A    between atoms: N_27  and  C_47
   14  A    between atoms: C_28  and  C_33
   15  A    between atoms: C_28  and  N_36
   16  A    between atoms: C_33  and  N_40
   17  A    between atoms: C_34  and  N_36
   18  A    between atoms: C_35  and  N_46
   19  A    between atoms: C_38  and  C_42
                            x       y       z     vdW  Elec       q    Type
                         _______ _______ _______ _____ _____    ______ ____

>  <TORSDO>
F 19

$$$$
=
 OpenBabel11042413543D

 51 57  0  0  1  0  0  0  0  0999 V2000
  187.9980  174.5610  142.1250 C   0  0  2  0  0  3  0  0  0  0  0  0
  187.9790  175.8430  141.4270 N   0  0  0  0  0  2  0  0  0  0  0  0
  187.7550  176.8470  142.3820 N   0  0  0  0  0  0  0  0  0  0  0  0
  188.4950  178.0170  141.9330 C   0  0  0  0  0  2  0  0  0  0  0  0
  189.8910  177.9960  142.5230 C   0  0  0  0  0  1  0  0  0  0  0  0
  186.3370  177.1760  142.3110 C   0  0  0  0  0  2  0  0  0  0  0  0
  185.6020  176.6510  143.5360 C   0  0  0  0  0  2  0  0  0  0  0  0
  185.3420  177.7410  144.4690 N   0  0  0  0  0  2  0  0  0  0  0  0
  185.4140  177.1830  145.8150 C   0  0  2  0  0  3  0  0  0  0  0  0
  185.2650  178.2930  146.8410 C   0  0  0  0  0  1  0  0  0  0  0  0
  186.7490  176.4830  146.0390 C   0  0  0  0  0  2  0  0  0  0  0  0
  189.1210  176.7400  146.5560 N   0  0  0  0  0  0  0  0  0  0  0  0
  188.6610  177.9470  145.8140 C   0  0  0  0  0  2  0  0  0  0  0  0
  189.8210  174.8450  147.6940 O   0  0  0  0  0  0  0  0  0  0  0  0
  187.7820  177.3790  146.7160 C   0  0  1  0  0  3  0  0  0  0  0  0
  190.0830  175.7270  146.8390 C   0  0  0  0  0  0  0  0  0  0  0  0
  193.4240  174.3490  145.6050 C   0  0  0  0  0  2  0  0  0  0  0  0
  192.8480  176.7840  144.4720 C   0  0  0  0  0  2  0  0  0  0  0  0
  191.3560  175.6870  146.1080 C   0  0  0  0  0  0  0  0  0  0  0  0
  194.0860  176.5580  146.7450 C   0  0  0  0  0  2  0  0  0  0  0  0
  194.5190  175.4040  145.8510 C   0  0  2  0  0  3  0  0  0  0  0  0
  191.6540  176.6730  145.3100 N   0  0  0  0  0  0  0  0  0  0  0  0
  192.2180  174.5950  146.3260 O   0  0  0  0  0  0  0  0  0  0  0  0
  194.1890  176.7720  145.2440 C   0  0  1  0  0  3  0  0  0  0  0  0
  189.0580  174.5440  143.1240 N   0  0  0  0  0  2  0  0  0  0  0  0
  191.5330  174.1150  142.4280 C   0  0  0  0  0  0  0  0  0  0  0  0
  190.3900  174.3150  142.7520 C   0  0  0  0  0  0  0  0  0  0  0  0
  197.2120  175.5670  140.6120 C   0  0  0  0  0  2  0  0  0  0  0  0
  192.8880  173.8610  142.0310 C   0  0  0  0  0  0  0  0  0  0  0  0
  195.5400  173.3780  141.2660 C   0  0  0  0  0  0  0  0  0  0  0  0
  196.9430  173.1630  140.8450 C   0  0  0  0  0  0  0  0  0  0  0  0
  194.9520  174.6340  141.0280 C   0  0  0  0  0  0  0  0  0  0  0  0
  197.6740  174.1810  140.4930 N   0  0  0  0  0  0  0  0  0  0  0  0
  195.7220  175.6850  140.2860 C   0  0  0  0  0  2  0  0  0  0  0  0
  193.4680  172.6110  142.2710 C   0  0  0  0  0  3  0  0  0  0  0  0
  194.7920  172.3670  141.8880 C   0  0  0  0  0  3  0  0  0  0  0  0
  193.6260  174.8680  141.4020 C   0  0  0  0  0  3  0  0  0  0  0  0
  197.1360  171.0040  139.8680 O   0  0  0  0  0  0  0  0  0  0  0  0
  197.4990  171.8060  140.7680 C   0  0  0  0  0  3  0  0  0  0  0  0
  188.1820  173.4610  141.1760 N   0  0  0  0  0  2  0  0  0  0  0  0
  188.4840  174.0000  139.9150 N   0  0  0  0  0  2  0  0  0  0  0  0
  188.2880  172.9770  138.9740 N   0  0  0  0  0  2  0  0  0  0  0  0
  191.9290  172.7920  138.6170 C   0  0  0  0  0  3  0  0  0  0  0  0
  190.0730  173.6330  137.4230 C   0  0  2  0  0  3  0  0  0  0  0  0
  189.5710  172.3110  136.9780 N   0  0  0  0  0  2  0  0  0  0  0  0
  190.7450  172.1600  139.2500 C   0  0  0  0  0  2  0  0  0  0  0  0
  191.5530  173.5810  137.6170 C   0  0  0  0  0  0  0  0  0  0  0  0
  189.5900  172.6710  138.4010 C   0  0  2  0  0  0  0  0  0  0  0  0
  192.4830  174.3090  136.8000 N   0  0  0  0  0  0  0  0  0  0  0  0
  192.4960  174.1630  135.3520 C   0  0  0  0  0  1  0  0  0  0  0  0
  193.3680  175.2980  137.3960 C   0  0  0  0  0  1  0  0  0  0  0  0
  1 40  1  6  0  0  0
  1 25  1  0  0  0  0
  2  1  1  0  0  0  0
  2  3  1  0  0  0  0
  4  3  1  0  0  0  0
  4  5  1  0  0  0  0
  6  3  1  0  0  0  0
  6  7  1  0  0  0  0
  7  8  1  0  0  0  0
  8  9  1  0  0  0  0
  9 11  1  0  0  0  0
  9 10  1  1  0  0  0
 12 15  1  0  0  0  0
 12 16  1  0  0  0  0
 13 12  1  0  0  0  0
 13 15  1  0  0  0  0
 15 11  1  6  0  0  0
 16 14  2  0  0  0  0
 17 23  1  0  0  0  0
 18 22  1  0  0  0  0
 19 23  1  0  0  0  0
 19 16  1  0  0  0  0
 21 17  1  6  0  0  0
 21 20  1  0  0  0  0
 22 19  2  0  0  0  0
 24 18  1  6  0  0  0
 24 21  1  0  0  0  0
 24 20  1  0  0  0  0
 26 27  3  0  0  0  0
 27 25  1  0  0  0  0
 29 35  1  0  0  0  0
 29 26  1  0  0  0  0
 30 36  1  0  0  0  0
 31 30  1  0  0  0  0
 32 30  2  0  0  0  0
 32 37  1  0  0  0  0
 33 28  1  0  0  0  0
 33 31  2  0  0  0  0
 34 28  1  0  0  0  0
 34 32  1  0  0  0  0
 36 35  2  0  0  0  0
 37 29  2  0  0  0  0
 38 39  2  0  0  0  0
 39 31  1  0  0  0  0
 41 40  1  0  0  0  0
 42 41  1  0  0  0  0
 43 46  1  0  0  0  0
 44 45  1  6  0  0  0
 44 47  1  0  0  0  0
 44 48  1  0  0  0  0
 45 48  1  0  0  0  0
 47 43  2  0  0  0  0
 48 42  1  1  0  0  0
 48 46  1  0  0  0  0
 49 51  1  0  0  0  0
 49 47  1  0  0  0  0
 50 49  1  0  0  0  0
M  END
>  <MODEL>
4

>  <REMARK>
 VINA RESULT:      -6.8      3.892      8.305
  Name = 
  19 active torsions:
  status: ('A' for Active; 'I' for Inactive)
    1  A    between atoms: N_1  and  C_35
    2  A    between atoms: N_1  and  C_51
    3  A    between atoms: C_7  and  C_30
    4  A    between atoms: N_9  and  C_35
    5  A    between atoms: N_9  and  N_36
    6  A    between atoms: CA_12  and  C_22
    7  A    between atoms: N_13  and  N_21
    8  A    between atoms: N_13  and  N_46
    9  A    between atoms: C_16  and  C_43
   10  A    between atoms: N_21  and  C_48
   11  A    between atoms: C_25  and  C_38
   12  A    between atoms: C_25  and  N_40
   13  A    between atoms: N_27  and  C_47
   14  A    between atoms: C_28  and  C_33
   15  A    between atoms: C_28  and  N_36
   16  A    between atoms: C_33  and  N_40
   17  A    between atoms: C_34  and  N_36
   18  A    between atoms: C_35  and  N_46
   19  A    between atoms: C_38  and  C_42
                            x       y       z     vdW  Elec       q    Type
                         _______ _______ _______ _____ _____    ______ ____

>  <TORSDO>
F 19

$$$$
=
 OpenBabel11042413543D

 51 57  0  0  1  0  0  0  0  0999 V2000
  194.1320  175.0800  141.3240 C   0  0  2  0  0  3  0  0  0  0  0  0
  194.6750  175.4180  140.0120 N   0  0  0  0  0  2  0  0  0  0  0  0
  194.2750  174.4160  139.1130 N   0  0  0  0  0  0  0  0  0  0  0  0
  193.7330  175.1010  137.9480 C   0  0  0  0  0  2  0  0  0  0  0  0
  192.4980  174.3720  137.4560 C   0  0  0  0  0  1  0  0  0  0  0  0
  195.4900  173.7320  138.6880 C   0  0  0  0  0  2  0  0  0  0  0  0
  195.2780  172.2250  138.6660 C   0  0  0  0  0  2  0  0  0  0  0  0
  195.1250  171.7620  137.2930 N   0  0  0  0  0  2  0  0  0  0  0  0
  194.3610  170.5200  137.3380 C   0  0  2  0  0  3  0  0  0  0  0  0
  195.0880  169.4380  136.5580 C   0  0  0  0  0  1  0  0  0  0  0  0
  192.9760  170.7170  136.7310 C   0  0  0  0  0  2  0  0  0  0  0  0
  191.3440  170.3590  138.5100 N   0  0  0  0  0  0  0  0  0  0  0  0
  190.6520  170.2350  137.1970 C   0  0  0  0  0  2  0  0  0  0  0  0
  192.4370  170.5730  140.5440 O   0  0  0  0  0  0  0  0  0  0  0  0
  191.9410  169.7450  137.2880 C   0  0  1  0  0  3  0  0  0  0  0  0
  191.4020  170.7910  139.8680 C   0  0  0  0  0  0  0  0  0  0  0  0
  188.2610  172.9580  140.0160 C   0  0  0  0  0  2  0  0  0  0  0  0
  189.0110  172.0850  142.5090 C   0  0  0  0  0  2  0  0  0  0  0  0
  190.2770  171.5250  140.4620 C   0  0  0  0  0  0  0  0  0  0  0  0
  189.9450  174.2680  141.4530 C   0  0  0  0  0  2  0  0  0  0  0  0
  188.4960  174.1080  141.0120 C   0  0  2  0  0  3  0  0  0  0  0  0
  190.0970  171.4610  141.7510 N   0  0  0  0  0  0  0  0  0  0  0  0
  189.4570  172.2940  139.6140 O   0  0  0  0  0  0  0  0  0  0  0  0
  188.9420  173.6270  142.3980 C   0  0  1  0  0  3  0  0  0  0  0  0
  193.9270  176.2860  142.1140 N   0  0  0  0  0  2  0  0  0  0  0  0
  191.5690  176.8750  143.0570 C   0  0  0  0  0  0  0  0  0  0  0  0
  192.6590  176.6050  142.6190 C   0  0  0  0  0  0  0  0  0  0  0  0
  185.5350  177.9650  142.8390 C   0  0  0  0  0  2  0  0  0  0  0  0
  190.2720  177.1790  143.5890 C   0  0  0  0  0  0  0  0  0  0  0  0
  187.7300  177.7580  144.6150 C   0  0  0  0  0  0  0  0  0  0  0  0
  186.3740  178.0760  145.1170 C   0  0  0  0  0  0  0  0  0  0  0  0
  187.9820  177.8810  143.2360 C   0  0  0  0  0  0  0  0  0  0  0  0
  185.3920  178.2230  144.2750 N   0  0  0  0  0  0  0  0  0  0  0  0
  186.9090  178.4050  142.3290 C   0  0  0  0  0  2  0  0  0  0  0  0
  190.0270  177.0540  144.9600 C   0  0  0  0  0  3  0  0  0  0  0  0
  188.7580  177.3440  145.4750 C   0  0  0  0  0  3  0  0  0  0  0  0
  189.2530  177.6010  142.7290 C   0  0  0  0  0  3  0  0  0  0  0  0
  185.6720  179.3660  146.9870 O   0  0  0  0  0  0  0  0  0  0  0  0
  186.1390  178.2800  146.5520 C   0  0  0  0  0  3  0  0  0  0  0  0
  195.0260  174.1600  142.0300 N   0  0  0  0  0  2  0  0  0  0  0  0
  194.3550  172.9420  142.2280 N   0  0  0  0  0  2  0  0  0  0  0  0
  194.8250  172.4080  143.4390 N   0  0  0  0  0  2  0  0  0  0  0  0
  191.8270  173.8160  145.0020 C   0  0  0  0  0  3  0  0  0  0  0  0
  194.1570  173.7500  145.3810 C   0  0  2  0  0  3  0  0  0  0  0  0
  194.1960  172.3350  145.8200 N   0  0  0  0  0  2  0  0  0  0  0  0
  192.3330  172.7420  144.1110 C   0  0  0  0  0  2  0  0  0  0  0  0
  192.8250  174.3480  145.6970 C   0  0  0  0  0  0  0  0  0  0  0  0
  193.8160  172.6890  144.4480 C   0  0  2  0  0  0  0  0  0  0  0  0
  192.6390  175.3950  146.6630 N   0  0  0  0  0  0  0  0  0  0  0  0
  191.6100  175.3070  147.6880 C   0  0  0  0  0  1  0  0  0  0  0  0
  193.5510  176.5280  146.7050 C   0  0  0  0  0  1  0  0  0  0  0  0
  1  2  1  6  0  0  0
  1 40  1  0  0  0  0
  1 25  1  0  0  0  0
  3  2  1  0  0  0  0
  4  3  1  0  0  0  0
  5  4  1  0  0  0  0
  6  3  1  0  0  0  0
  7  6  1  0  0  0  0
  8  9  1  0  0  0  0
  8  7  1  0  0  0  0
  9 10  1  6  0  0  0
 11  9  1  0  0  0  0
 12 16  1  0  0  0  0
 13 15  1  0  0  0  0
 13 12  1  0  0  0  0
 15 11  1  6  0  0  0
 15 12  1  0  0  0  0
 16 19  1  0  0  0  0
 16 14  2  0  0  0  0
 19 22  2  0  0  0  0
 21 17  1  6  0  0  0
 21 20  1  0  0  0  0
 21 24  1  0  0  0  0
 22 18  1  0  0  0  0
 23 17  1  0  0  0  0
 23 19  1  0  0  0  0
 24 20  1  6  0  0  0
 24 18  1  0  0  0  0
 25 27  1  0  0  0  0
 26 29  1  0  0  0  0
 27 26  3  0  0  0  0
 28 33  1  0  0  0  0
 29 35  1  0  0  0  0
 30 31  1  0  0  0  0
 30 36  1  0  0  0  0
 31 39  1  0  0  0  0
 32 30  2  0  0  0  0
 33 31  2  0  0  0  0
 34 28  1  0  0  0  0
 34 32  1  0  0  0  0
 35 36  2  0  0  0  0
 37 32  1  0  0  0  0
 37 29  2  0  0  0  0
 39 38  2  0  0  0  0
 40 41  1  0  0  0  0
 41 42  1  0  0  0  0
 43 47  2  0  0  0  0
 44 47  1  1  0  0  0
 44 45  1  0  0  0  0
 46 48  1  0  0  0  0
 46 43  1  0  0  0  0
 47 49  1  0  0  0  0
 48 42  1  6  0  0  0
 48 44  1  0  0  0  0
 48 45  1  0  0  0  0
 49 51  1  0  0  0  0
 49 50  1  0  0  0  0
M  END
>  <MODEL>
5

>  <REMARK>
 VINA RESULT:      -6.7      3.539      9.174
  Name = 
  19 active torsions:
  status: ('A' for Active; 'I' for Inactive)
    1  A    between atoms: N_1  and  C_35
    2  A    between atoms: N_1  and  C_51
    3  A    between atoms: C_7  and  C_30
    4  A    between atoms: N_9  and  C_35
    5  A    between atoms: N_9  and  N_36
    6  A    between atoms: CA_12  and  C_22
    7  A    between atoms: N_13  and  N_21
    8  A    between atoms: N_13  and  N_46
    9  A    between atoms: C_16  and  C_43
   10  A    between atoms: N_21  and  C_48
   11  A    between atoms: C_25  and  C_38
   12  A    between atoms: C_25  and  N_40
   13  A    between atoms: N_27  and  C_47
   14  A    between atoms: C_28  and  C_33
   15  A    between atoms: C_28  and  N_36
   16  A    between atoms: C_33  and  N_40
   17  A    between atoms: C_34  and  N_36
   18  A    between atoms: C_35  and  N_46
   19  A    between atoms: C_38  and  C_42
                            x       y       z     vdW  Elec       q    Type
                         _______ _______ _______ _____ _____    ______ ____

>  <TORSDO>
F 19

$$$$
=
 OpenBabel11042413543D

 51 57  0  0  1  0  0  0  0  0999 V2000
  190.8330  173.5050  140.3760 C   0  0  2  0  0  3  0  0  0  0  0  0
  191.1850  172.1090  140.1330 N   0  0  0  0  0  2  0  0  0  0  0  0
  192.5410  171.9470  140.4620 N   0  0  0  0  0  0  0  0  0  0  0  0
  192.7660  170.5140  140.5890 C   0  0  0  0  0  2  0  0  0  0  0  0
  193.1890  170.1890  142.0070 C   0  0  0  0  0  1  0  0  0  0  0  0
  193.3030  172.4050  139.3080 C   0  0  0  0  0  2  0  0  0  0  0  0
  194.4760  173.2700  139.7480 C   0  0  0  0  0  2  0  0  0  0  0  0
  194.4800  174.5230  139.0030 N   0  0  0  0  0  2  0  0  0  0  0  0
  195.8690  174.9520  138.8880 C   0  0  2  0  0  3  0  0  0  0  0  0
  196.5520  174.1930  137.7630 C   0  0  0  0  0  1  0  0  0  0  0  0
  196.6250  174.6910  140.1860 C   0  0  0  0  0  2  0  0  0  0  0  0
  195.8140  175.9360  142.1230 N   0  0  0  0  0  0  0  0  0  0  0  0
  197.2700  175.6760  142.2990 C   0  0  0  0  0  2  0  0  0  0  0  0
  193.5450  176.3150  141.8380 O   0  0  0  0  0  0  0  0  0  0  0  0
  196.8210  175.9520  141.0220 C   0  0  1  0  0  3  0  0  0  0  0  0
  194.4830  176.0320  142.6230 C   0  0  0  0  0  0  0  0  0  0  0  0
  193.1900  174.1510  145.6850 C   0  0  0  0  0  2  0  0  0  0  0  0
  194.4860  176.4680  146.3890 C   0  0  0  0  0  2  0  0  0  0  0  0
  194.1990  175.7590  144.0380 C   0  0  0  0  0  0  0  0  0  0  0  0
  191.9530  176.4030  145.8150 C   0  0  0  0  0  2  0  0  0  0  0  0
  192.3140  175.1030  146.5210 C   0  0  2  0  0  3  0  0  0  0  0  0
  194.6330  176.5970  144.9380 N   0  0  0  0  0  0  0  0  0  0  0  0
  193.4420  174.6180  144.3610 O   0  0  0  0  0  0  0  0  0  0  0  0
  193.0250  176.4100  146.8920 C   0  0  1  0  0  3  0  0  0  0  0  0
  191.1400  173.8740  141.7500 N   0  0  0  0  0  2  0  0  0  0  0  0
  189.5090  175.3790  143.1190 C   0  0  0  0  0  0  0  0  0  0  0  0
  190.2660  174.6840  142.4880 C   0  0  0  0  0  0  0  0  0  0  0  0
  184.7210  179.1360  143.8950 C   0  0  0  0  0  2  0  0  0  0  0  0
  188.5950  176.2020  143.8560 C   0  0  0  0  0  0  0  0  0  0  0  0
  186.7940  177.8020  145.2870 C   0  0  0  0  0  0  0  0  0  0  0  0
  185.8310  178.6670  146.0050 C   0  0  0  0  0  0  0  0  0  0  0  0
  186.8740  177.9040  143.8860 C   0  0  0  0  0  0  0  0  0  0  0  0
  184.9230  179.3160  145.3360 N   0  0  0  0  0  0  0  0  0  0  0  0
  186.0520  178.9340  143.1690 C   0  0  0  0  0  2  0  0  0  0  0  0
  188.5190  176.0950  145.2490 C   0  0  0  0  0  3  0  0  0  0  0  0
  187.6210  176.8950  145.9650 C   0  0  0  0  0  3  0  0  0  0  0  0
  187.7800  177.1120  143.1760 C   0  0  0  0  0  3  0  0  0  0  0  0
  185.6570  177.8990  148.2490 O   0  0  0  0  0  0  0  0  0  0  0  0
  185.9270  178.8420  147.4600 C   0  0  0  0  0  3  0  0  0  0  0  0
  189.4130  173.7330  140.0970 N   0  0  0  0  0  2  0  0  0  0  0  0
  188.9780  172.7760  139.1650 N   0  0  0  0  0  2  0  0  0  0  0  0
  188.4800  173.4810  138.0580 N   0  0  0  0  0  2  0  0  0  0  0  0
  191.2510  172.0340  136.1490 C   0  0  0  0  0  3  0  0  0  0  0  0
  190.4620  174.1670  136.7840 C   0  0  2  0  0  3  0  0  0  0  0  0
  189.3140  174.1860  135.8480 N   0  0  0  0  0  2  0  0  0  0  0  0
  189.8630  171.8070  136.6220 C   0  0  0  0  0  2  0  0  0  0  0  0
  191.5620  173.3220  136.2300 C   0  0  0  0  0  0  0  0  0  0  0  0
  189.3770  173.2130  136.9450 C   0  0  2  0  0  0  0  0  0  0  0  0
  192.8330  173.8500  135.8190 N   0  0  0  0  0  0  0  0  0  0  0  0
  193.9130  172.9760  135.3880 C   0  0  0  0  0  1  0  0  0  0  0  0
  193.0350  175.2870  135.7200 C   0  0  0  0  0  1  0  0  0  0  0  0
  1 40  1  1  0  0  0
  1 25  1  0  0  0  0
  2  1  1  0  0  0  0
  2  3  1  0  0  0  0
  3  4  1  0  0  0  0
  4  5  1  0  0  0  0
  6  7  1  0  0  0  0
  6  3  1  0  0  0  0
  8  7  1  0  0  0  0
  9 10  1  6  0  0  0
  9  8  1  0  0  0  0
  9 11  1  0  0  0  0
 12 13  1  0  0  0  0
 12 16  1  0  0  0  0
 14 16  2  0  0  0  0
 15 11  1  6  0  0  0
 15 12  1  0  0  0  0
 15 13  1  0  0  0  0
 16 19  1  0  0  0  0
 18 24  1  0  0  0  0
 19 23  1  0  0  0  0
 19 22  2  0  0  0  0
 20 21  1  0  0  0  0
 21 17  1  6  0  0  0
 21 24  1  0  0  0  0
 22 18  1  0  0  0  0
 23 17  1  0  0  0  0
 24 20  1  6  0  0  0
 25 27  1  0  0  0  0
 26 29  1  0  0  0  0
 27 26  3  0  0  0  0
 28 33  1  0  0  0  0
 29 35  1  0  0  0  0
 30 36  1  0  0  0  0
 30 31  1  0  0  0  0
 31 39  1  0  0  0  0
 32 30  2  0  0  0  0
 33 31  2  0  0  0  0
 34 32  1  0  0  0  0
 34 28  1  0  0  0  0
 35 36  2  0  0  0  0
 37 29  2  0  0  0  0
 37 32  1  0  0  0  0
 39 38  2  0  0  0  0
 41 40  1  0  0  0  0
 42 41  1  0  0  0  0
 43 47  2  0  0  0  0
 43 46  1  0  0  0  0
 44 45  1  6  0  0  0
 44 48  1  0  0  0  0
 45 48  1  0  0  0  0
 46 48  1  0  0  0  0
 47 44  1  0  0  0  0
 48 42  1  1  0  0  0
 49 47  1  0  0  0  0
 50 49  1  0  0  0  0
 51 49  1  0  0  0  0
M  END
>  <MODEL>
6

>  <REMARK>
 VINA RESULT:      -6.6      3.677     10.532
  Name = 
  19 active torsions:
  status: ('A' for Active; 'I' for Inactive)
    1  A    between atoms: N_1  and  C_35
    2  A    between atoms: N_1  and  C_51
    3  A    between atoms: C_7  and  C_30
    4  A    between atoms: N_9  and  C_35
    5  A    between atoms: N_9  and  N_36
    6  A    between atoms: CA_12  and  C_22
    7  A    between atoms: N_13  and  N_21
    8  A    between atoms: N_13  and  N_46
    9  A    between atoms: C_16  and  C_43
   10  A    between atoms: N_21  and  C_48
   11  A    between atoms: C_25  and  C_38
   12  A    between atoms: C_25  and  N_40
   13  A    between atoms: N_27  and  C_47
   14  A    between atoms: C_28  and  C_33
   15  A    between atoms: C_28  and  N_36
   16  A    between atoms: C_33  and  N_40
   17  A    between atoms: C_34  and  N_36
   18  A    between atoms: C_35  and  N_46
   19  A    between atoms: C_38  and  C_42
                            x       y       z     vdW  Elec       q    Type
                         _______ _______ _______ _____ _____    ______ ____

>  <TORSDO>
F 19

$$$$
=
 OpenBabel11042413543D

 51 57  0  0  1  0  0  0  0  0999 V2000
  188.3430  177.1960  146.3280 C   0  0  2  0  0  3  0  0  0  0  0  0
  188.1990  176.0380  145.4500 N   0  0  0  0  0  2  0  0  0  0  0  0
  188.1020  176.5100  144.1320 N   0  0  0  0  0  0  0  0  0  0  0  0
  189.1230  177.5390  143.9860 C   0  0  0  0  0  2  0  0  0  0  0  0
  189.3360  177.8410  142.5170 C   0  0  0  0  0  1  0  0  0  0  0  0
  188.4790  175.4000  143.2670 C   0  0  0  0  0  2  0  0  0  0  0  0
  189.5500  174.5440  143.9280 C   0  0  0  0  0  2  0  0  0  0  0  0
  189.8650  173.3970  143.0840 N   0  0  0  0  0  2  0  0  0  0  0  0
  189.8700  173.8650  141.7030 C   0  0  2  0  0  3  0  0  0  0  0  0
  189.1280  172.8770  140.8200 C   0  0  0  0  0  1  0  0  0  0  0  0
  191.2980  174.0080  141.1870 C   0  0  0  0  0  2  0  0  0  0  0  0
  192.9240  173.3640  139.4840 N   0  0  0  0  0  0  0  0  0  0  0  0
  192.8390  172.2760  140.4970 C   0  0  0  0  0  2  0  0  0  0  0  0
  193.0550  175.0780  137.9280 O   0  0  0  0  0  0  0  0  0  0  0  0
  191.6700  172.9350  140.1680 C   0  0  1  0  0  3  0  0  0  0  0  0
  193.6590  174.2030  138.5960 C   0  0  0  0  0  0  0  0  0  0  0  0
  197.2910  175.2910  138.1400 C   0  0  0  0  0  2  0  0  0  0  0  0
  197.0940  172.6020  138.6650 C   0  0  0  0  0  2  0  0  0  0  0  0
  195.1180  174.0770  138.4920 C   0  0  0  0  0  0  0  0  0  0  0  0
  196.9540  173.5700  136.2580 C   0  0  0  0  0  2  0  0  0  0  0  0
  197.9410  174.4140  137.0530 C   0  0  2  0  0  3  0  0  0  0  0  0
  195.6630  172.9080  138.6840 N   0  0  0  0  0  0  0  0  0  0  0  0
  195.8670  175.2220  138.1570 O   0  0  0  0  0  0  0  0  0  0  0  0
  197.8090  172.9120  137.3290 C   0  0  1  0  0  3  0  0  0  0  0  0
  189.5280  177.0560  147.1620 N   0  0  0  0  0  2  0  0  0  0  0  0
  191.8280  176.4050  146.1210 C   0  0  0  0  0  0  0  0  0  0  0  0
  190.7630  176.7070  146.5990 C   0  0  0  0  0  0  0  0  0  0  0  0
  196.3060  176.3490  141.9260 C   0  0  0  0  0  2  0  0  0  0  0  0
  193.1040  176.0500  145.5690 C   0  0  0  0  0  0  0  0  0  0  0  0
  195.5980  175.3730  144.4870 C   0  0  0  0  0  0  0  0  0  0  0  0
  196.9010  175.0260  143.8770 C   0  0  0  0  0  0  0  0  0  0  0  0
  194.5920  175.9120  143.6650 C   0  0  0  0  0  0  0  0  0  0  0  0
  197.1790  175.4390  142.6730 N   0  0  0  0  0  0  0  0  0  0  0  0
  194.8300  176.0430  142.1900 C   0  0  0  0  0  2  0  0  0  0  0  0
  194.1010  175.5150  146.3920 C   0  0  0  0  0  3  0  0  0  0  0  0
  195.3460  175.1750  145.8530 C   0  0  0  0  0  3  0  0  0  0  0  0
  193.3450  176.2390  144.2050 C   0  0  0  0  0  3  0  0  0  0  0  0
  197.8070  172.9200  144.5060 O   0  0  0  0  0  0  0  0  0  0  0  0
  197.8590  174.1750  144.5930 C   0  0  0  0  0  3  0  0  0  0  0  0
  187.1520  177.3580  147.1660 N   0  0  0  0  0  2  0  0  0  0  0  0
  186.0490  177.6140  146.3350 N   0  0  0  0  0  2  0  0  0  0  0  0
  186.0020  179.0020  146.1340 N   0  0  0  0  0  2  0  0  0  0  0  0
  183.6350  178.3680  143.4110 C   0  0  0  0  0  3  0  0  0  0  0  0
  185.8850  179.0310  143.6830 C   0  0  2  0  0  3  0  0  0  0  0  0
  185.5800  180.4040  144.1510 N   0  0  0  0  0  2  0  0  0  0  0  0
  183.7570  178.7430  144.8420 C   0  0  0  0  0  2  0  0  0  0  0  0
  184.7950  178.5410  142.7880 C   0  0  0  0  0  0  0  0  0  0  0  0
  185.1940  179.2320  144.9460 C   0  0  2  0  0  0  0  0  0  0  0  0
  184.9780  178.2830  141.3870 N   0  0  0  0  0  0  0  0  0  0  0  0
  186.2710  177.8850  140.8520 C   0  0  0  0  0  1  0  0  0  0  0  0
  183.8410  178.3100  140.4800 C   0  0  0  0  0  1  0  0  0  0  0  0
  1  2  1  1  0  0  0
  1 25  1  0  0  0  0
  1 40  1  0  0  0  0
  3  2  1  0  0  0  0
  4  3  1  0  0  0  0
  5  4  1  0  0  0  0
  6  7  1  0  0  0  0
  6  3  1  0  0  0  0
  8  7  1  0  0  0  0
  9 10  1  6  0  0  0
  9  8  1  0  0  0  0
 11  9  1  0  0  0  0
 12 15  1  0  0  0  0
 12 13  1  0  0  0  0
 14 16  2  0  0  0  0
 15 13  1  0  0  0  0
 15 11  1  1  0  0  0
 16 12  1  0  0  0  0
 17 23  1  0  0  0  0
 18 22  1  0  0  0  0
 19 16  1  0  0  0  0
 19 22  2  0  0  0  0
 21 20  1  6  0  0  0
 21 24  1  0  0  0  0
 21 17  1  0  0  0  0
 23 19  1  0  0  0  0
 24 20  1  6  0  0  0
 24 18  1  0  0  0  0
 26 27  3  0  0  0  0
 27 25  1  0  0  0  0
 28 34  1  0  0  0  0
 28 33  1  0  0  0  0
 29 26  1  0  0  0  0
 29 35  1  0  0  0  0
 30 36  1  0  0  0  0
 31 30  1  0  0  0  0
 31 39  1  0  0  0  0
 32 37  1  0  0  0  0
 32 30  2  0  0  0  0
 33 31  2  0  0  0  0
 34 32  1  0  0  0  0
 36 35  2  0  0  0  0
 37 29  2  0  0  0  0
 38 39  2  0  0  0  0
 41 40  1  0  0  0  0
 42 41  1  0  0  0  0
 43 46  1  0  0  0  0
 44 47  1  6  0  0  0
 44 45  1  0  0  0  0
 44 48  1  0  0  0  0
 45 48  1  0  0  0  0
 46 48  1  0  0  0  0
 47 43  2  0  0  0  0
 48 42  1  1  0  0  0
 49 47  1  0  0  0  0
 50 49  1  0  0  0  0
 51 49  1  0  0  0  0
M  END
>  <MODEL>
7

>  <REMARK>
 VINA RESULT:      -6.5      3.334     10.168
  Name = 
  19 active torsions:
  status: ('A' for Active; 'I' for Inactive)
    1  A    between atoms: N_1  and  C_35
    2  A    between atoms: N_1  and  C_51
    3  A    between atoms: C_7  and  C_30
    4  A    between atoms: N_9  and  C_35
    5  A    between atoms: N_9  and  N_36
    6  A    between atoms: CA_12  and  C_22
    7  A    between atoms: N_13  and  N_21
    8  A    between atoms: N_13  and  N_46
    9  A    between atoms: C_16  and  C_43
   10  A    between atoms: N_21  and  C_48
   11  A    between atoms: C_25  and  C_38
   12  A    between atoms: C_25  and  N_40
   13  A    between atoms: N_27  and  C_47
   14  A    between atoms: C_28  and  C_33
   15  A    between atoms: C_28  and  N_36
   16  A    between atoms: C_33  and  N_40
   17  A    between atoms: C_34  and  N_36
   18  A    between atoms: C_35  and  N_46
   19  A    between atoms: C_38  and  C_42
                            x       y       z     vdW  Elec       q    Type
                         _______ _______ _______ _____ _____    ______ ____

>  <TORSDO>
F 19

$$$$
=
 OpenBabel11042413543D

 51 57  0  0  1  0  0  0  0  0999 V2000
  188.4870  177.1800  146.0050 C   0  0  2  0  0  3  0  0  0  0  0  0
  188.5780  176.0240  145.1180 N   0  0  0  0  0  2  0  0  0  0  0  0
  188.2260  176.4480  143.8260 N   0  0  0  0  0  0  0  0  0  0  0  0
  189.1130  177.5560  143.5000 C   0  0  0  0  0  2  0  0  0  0  0  0
  188.8880  177.9830  142.0640 C   0  0  0  0  0  1  0  0  0  0  0  0
  188.5550  175.3500  142.9270 C   0  0  0  0  0  2  0  0  0  0  0  0
  189.8810  174.7130  143.3190 C   0  0  0  0  0  2  0  0  0  0  0  0
  189.8220  173.2710  143.1180 N   0  0  0  0  0  2  0  0  0  0  0  0
  191.1670  172.8280  142.7690 C   0  0  2  0  0  3  0  0  0  0  0  0
  191.9610  172.5450  144.0330 C   0  0  0  0  0  1  0  0  0  0  0  0
  191.8950  173.8960  141.9610 C   0  0  0  0  0  2  0  0  0  0  0  0
  191.7600  172.9170  139.7290 N   0  0  0  0  0  0  0  0  0  0  0  0
  192.6570  174.1050  139.6750 C   0  0  0  0  0  2  0  0  0  0  0  0
  190.3450  171.0830  139.8310 O   0  0  0  0  0  0  0  0  0  0  0  0
  192.7090  173.3160  140.8090 C   0  0  1  0  0  3  0  0  0  0  0  0
  190.7380  172.0860  139.1840 C   0  0  0  0  0  0  0  0  0  0  0  0
  189.3980  171.5570  135.6480 C   0  0  0  0  0  2  0  0  0  0  0  0
  188.9680  174.1240  136.5240 C   0  0  0  0  0  2  0  0  0  0  0  0
  190.1160  172.4200  137.8970 C   0  0  0  0  0  0  0  0  0  0  0  0
  191.1630  173.4020  135.3360 C   0  0  0  0  0  2  0  0  0  0  0  0
  190.0090  172.6220  134.7190 C   0  0  2  0  0  3  0  0  0  0  0  0
  189.6550  173.6260  137.7160 N   0  0  0  0  0  0  0  0  0  0  0  0
  190.0730  171.4290  136.8980 O   0  0  0  0  0  0  0  0  0  0  0  0
  189.7960  174.0560  135.2190 C   0  0  1  0  0  3  0  0  0  0  0  0
  189.6550  177.2450  146.8730 N   0  0  0  0  0  2  0  0  0  0  0  0
  191.9810  176.4180  146.0350 C   0  0  0  0  0  0  0  0  0  0  0  0
  190.9070  176.8020  146.4250 C   0  0  0  0  0  0  0  0  0  0  0  0
  196.9900  176.4080  142.4910 C   0  0  0  0  0  2  0  0  0  0  0  0
  193.2500  175.9460  145.5590 C   0  0  0  0  0  0  0  0  0  0  0  0
  195.7330  175.0430  144.6300 C   0  0  0  0  0  0  0  0  0  0  0  0
  197.0400  174.5890  144.1030 C   0  0  0  0  0  0  0  0  0  0  0  0
  194.9740  175.9440  143.8610 C   0  0  0  0  0  0  0  0  0  0  0  0
  197.5700  175.1970  143.0800 N   0  0  0  0  0  0  0  0  0  0  0  0
  195.4610  176.3530  142.5030 C   0  0  0  0  0  2  0  0  0  0  0  0
  194.0000  175.0510  146.3290 C   0  0  0  0  0  3  0  0  0  0  0  0
  195.2400  174.5980  145.8650 C   0  0  0  0  0  3  0  0  0  0  0  0
  193.7310  176.3850  144.3220 C   0  0  0  0  0  3  0  0  0  0  0  0
  197.7050  172.3060  144.1070 O   0  0  0  0  0  0  0  0  0  0  0  0
  197.7160  173.4240  144.6870 C   0  0  0  0  0  3  0  0  0  0  0  0
  187.2650  177.1180  146.8080 N   0  0  0  0  0  2  0  0  0  0  0  0
  186.1760  177.4880  146.0010 N   0  0  0  0  0  2  0  0  0  0  0  0
  186.2330  178.8840  145.8540 N   0  0  0  0  0  2  0  0  0  0  0  0
  183.3860  178.6590  143.5590 C   0  0  0  0  0  3  0  0  0  0  0  0
  185.7360  178.8600  143.4510 C   0  0  2  0  0  3  0  0  0  0  0  0
  185.7840  180.2800  143.8740 N   0  0  0  0  0  2  0  0  0  0  0  0
  183.8040  179.0460  144.9300 C   0  0  0  0  0  2  0  0  0  0  0  0
  184.4440  178.5740  142.7610 C   0  0  0  0  0  0  0  0  0  0  0  0
  185.3070  179.2360  144.7880 C   0  0  2  0  0  0  0  0  0  0  0  0
  184.3490  178.2420  141.3670 N   0  0  0  0  0  0  0  0  0  0  0  0
  183.0780  178.2900  140.6600 C   0  0  0  0  0  1  0  0  0  0  0  0
  185.5490  177.9510  140.5970 C   0  0  0  0  0  1  0  0  0  0  0  0
  1  2  1  1  0  0  0
  1 40  1  0  0  0  0
  1 25  1  0  0  0  0
  3  2  1  0  0  0  0
  4  3  1  0  0  0  0
  5  4  1  0  0  0  0
  6  7  1  0  0  0  0
  6  3  1  0  0  0  0
  8  7  1  0  0  0  0
  9  8  1  0  0  0  0
  9 10  1  1  0  0  0
 11  9  1  0  0  0  0
 12 15  1  0  0  0  0
 13 12  1  0  0  0  0
 13 15  1  0  0  0  0
 15 11  1  1  0  0  0
 16 12  1  0  0  0  0
 16 14  2  0  0  0  0
 17 23  1  0  0  0  0
 18 22  1  0  0  0  0
 19 16  1  0  0  0  0
 21 24  1  0  0  0  0
 21 20  1  1  0  0  0
 21 17  1  0  0  0  0
 22 19  2  0  0  0  0
 23 19  1  0  0  0  0
 24 20  1  1  0  0  0
 24 18  1  0  0  0  0
 26 27  3  0  0  0  0
 27 25  1  0  0  0  0
 28 34  1  0  0  0  0
 28 33  1  0  0  0  0
 29 26  1  0  0  0  0
 29 35  1  0  0  0  0
 30 36  1  0  0  0  0
 31 30  1  0  0  0  0
 31 39  1  0  0  0  0
 32 37  1  0  0  0  0
 32 30  2  0  0  0  0
 33 31  2  0  0  0  0
 34 32  1  0  0  0  0
 36 35  2  0  0  0  0
 37 29  2  0  0  0  0
 38 39  2  0  0  0  0
 41 40  1  0  0  0  0
 42 41  1  0  0  0  0
 43 46  1  0  0  0  0
 44 47  1  6  0  0  0
 44 45  1  0  0  0  0
 44 48  1  0  0  0  0
 45 48  1  0  0  0  0
 47 43  2  0  0  0  0
 48 46  1  0  0  0  0
 48 42  1  1  0  0  0
 49 47  1  0  0  0  0
 50 49  1  0  0  0  0
 51 49  1  0  0  0  0
M  END
>  <MODEL>
8

>  <REMARK>
 VINA RESULT:      -6.5      3.043      8.891
  Name = 
  19 active torsions:
  status: ('A' for Active; 'I' for Inactive)
    1  A    between atoms: N_1  and  C_35
    2  A    between atoms: N_1  and  C_51
    3  A    between atoms: C_7  and  C_30
    4  A    between atoms: N_9  and  C_35
    5  A    between atoms: N_9  and  N_36
    6  A    between atoms: CA_12  and  C_22
    7  A    between atoms: N_13  and  N_21
    8  A    between atoms: N_13  and  N_46
    9  A    between atoms: C_16  and  C_43
   10  A    between atoms: N_21  and  C_48
   11  A    between atoms: C_25  and  C_38
   12  A    between atoms: C_25  and  N_40
   13  A    between atoms: N_27  and  C_47
   14  A    between atoms: C_28  and  C_33
   15  A    between atoms: C_28  and  N_36
   16  A    between atoms: C_33  and  N_40
   17  A    between atoms: C_34  and  N_36
   18  A    between atoms: C_35  and  N_46
   19  A    between atoms: C_38  and  C_42
                            x       y       z     vdW  Elec       q    Type
                         _______ _______ _______ _____ _____    ______ ____

>  <TORSDO>
F 19

$$$$
=
 OpenBabel11042413543D

 51 57  0  0  1  0  0  0  0  0999 V2000
  191.2660  172.9680  140.8090 C   0  0  2  0  0  3  0  0  0  0  0  0
  192.2110  173.1130  139.7060 N   0  0  0  0  0  2  0  0  0  0  0  0
  192.7050  171.8360  139.3960 N   0  0  0  0  0  0  0  0  0  0  0  0
  192.0290  171.4160  138.1770 C   0  0  0  0  0  2  0  0  0  0  0  0
  192.1040  169.9090  138.0440 C   0  0  0  0  0  1  0  0  0  0  0  0
  194.1160  172.0050  139.0730 C   0  0  0  0  0  2  0  0  0  0  0  0
  194.5280  173.4640  139.2170 C   0  0  0  0  0  2  0  0  0  0  0  0
  195.7520  173.7140  138.4660 N   0  0  0  0  0  2  0  0  0  0  0  0
  196.4210  174.8470  139.0950 C   0  0  2  0  0  3  0  0  0  0  0  0
  197.6710  175.2080  138.3120 C   0  0  0  0  0  1  0  0  0  0  0  0
  196.8190  174.5120  140.5280 C   0  0  0  0  0  2  0  0  0  0  0  0
  195.9800  175.8270  142.4050 N   0  0  0  0  0  0  0  0  0  0  0  0
  197.3910  175.4410  142.6870 C   0  0  0  0  0  2  0  0  0  0  0  0
  193.7790  176.4020  141.9560 O   0  0  0  0  0  0  0  0  0  0  0  0
  197.0620  175.7530  141.3810 C   0  0  1  0  0  3  0  0  0  0  0  0
  194.6290  176.0400  142.8070 C   0  0  0  0  0  0  0  0  0  0  0  0
  193.1000  174.2030  145.7850 C   0  0  0  0  0  2  0  0  0  0  0  0
  194.2630  176.5720  146.5420 C   0  0  0  0  0  2  0  0  0  0  0  0
  194.2200  175.7960  144.1960 C   0  0  0  0  0  0  0  0  0  0  0  0
  191.7990  176.4210  145.7340 C   0  0  0  0  0  2  0  0  0  0  0  0
  192.1240  175.1500  146.5080 C   0  0  2  0  0  3  0  0  0  0  0  0
  194.5440  176.6680  145.1090 N   0  0  0  0  0  0  0  0  0  0  0  0
  193.4640  174.6420  144.4780 O   0  0  0  0  0  0  0  0  0  0  0  0
  192.7630  176.4860  146.9070 C   0  0  1  0  0  3  0  0  0  0  0  0
  191.5710  173.9200  141.8670 N   0  0  0  0  0  2  0  0  0  0  0  0
  189.7080  175.4310  142.8870 C   0  0  0  0  0  0  0  0  0  0  0  0
  190.5680  174.7310  142.4130 C   0  0  0  0  0  0  0  0  0  0  0  0
  186.5160  178.0320  147.4370 C   0  0  0  0  0  2  0  0  0  0  0  0
  188.6950  176.2640  143.4690 C   0  0  0  0  0  0  0  0  0  0  0  0
  186.7290  177.8970  144.6170 C   0  0  0  0  0  0  0  0  0  0  0  0
  185.6950  178.7390  145.2610 C   0  0  0  0  0  0  0  0  0  0  0  0
  187.3850  176.9250  145.3940 C   0  0  0  0  0  0  0  0  0  0  0  0
  185.5790  178.7390  146.5580 N   0  0  0  0  0  0  0  0  0  0  0  0
  186.9670  176.7080  146.8180 C   0  0  0  0  0  2  0  0  0  0  0  0
  188.0480  177.2300  142.6920 C   0  0  0  0  0  3  0  0  0  0  0  0
  187.0640  178.0460  143.2630 C   0  0  0  0  0  3  0  0  0  0  0  0
  188.3570  176.1050  144.8160 C   0  0  0  0  0  3  0  0  0  0  0  0
  183.7010  179.0250  143.9980 O   0  0  0  0  0  0  0  0  0  0  0  0
  184.7640  179.5300  144.4480 C   0  0  0  0  0  3  0  0  0  0  0  0
  191.2950  171.6010  141.3350 N   0  0  0  0  0  2  0  0  0  0  0  0
  191.9570  171.6100  142.5740 N   0  0  0  0  0  2  0  0  0  0  0  0
  192.0290  170.2770  143.0090 N   0  0  0  0  0  2  0  0  0  0  0  0
  194.9350  170.1490  145.2350 C   0  0  0  0  0  3  0  0  0  0  0  0
  194.3230  171.1330  143.1780 C   0  0  2  0  0  3  0  0  0  0  0  0
  194.3810  169.8790  142.3900 N   0  0  0  0  0  2  0  0  0  0  0  0
  193.7010  169.4380  144.8200 C   0  0  0  0  0  2  0  0  0  0  0  0
  195.2710  171.0600  144.3290 C   0  0  0  0  0  0  0  0  0  0  0  0
  193.3930  170.0520  143.4620 C   0  0  2  0  0  0  0  0  0  0  0  0
  196.4380  171.8890  144.4470 N   0  0  0  0  0  0  0  0  0  0  0  0
  196.4670  173.0350  145.3430 C   0  0  0  0  0  1  0  0  0  0  0  0
  197.6640  171.5370  143.7470 C   0  0  0  0  0  1  0  0  0  0  0  0
  1  2  1  6  0  0  0
  1 40  1  0  0  0  0
  1 25  1  0  0  0  0
  3  2  1  0  0  0  0
  4  3  1  0  0  0  0
  5  4  1  0  0  0  0
  6  7  1  0  0  0  0
  6  3  1  0  0  0  0
  8  9  1  0  0  0  0
  8  7  1  0  0  0  0
  9 10  1  6  0  0  0
  9 11  1  0  0  0  0
 12 13  1  0  0  0  0
 12 16  1  0  0  0  0
 14 16  2  0  0  0  0
 15 11  1  6  0  0  0
 15 12  1  0  0  0  0
 15 13  1  0  0  0  0
 16 19  1  0  0  0  0
 17 21  1  0  0  0  0
 18 24  1  0  0  0  0
 19 23  1  0  0  0  0
 19 22  2  0  0  0  0
 21 20  1  6  0  0  0
 21 24  1  0  0  0  0
 22 18  1  0  0  0  0
 23 17  1  0  0  0  0
 24 20  1  6  0  0  0
 25 27  1  0  0  0  0
 26 29  1  0  0  0  0
 27 26  3  0  0  0  0
 29 37  1  0  0  0  0
 30 31  1  0  0  0  0
 30 32  1  0  0  0  0
 31 33  2  0  0  0  0
 32 34  1  0  0  0  0
 33 28  1  0  0  0  0
 34 28  1  0  0  0  0
 35 36  1  0  0  0  0
 35 29  2  0  0  0  0
 36 30  2  0  0  0  0
 37 32  2  0  0  0  0
 38 39  2  0  0  0  0
 39 31  1  0  0  0  0
 40 41  1  0  0  0  0
 41 42  1  0  0  0  0
 44 45  1  6  0  0  0
 44 48  1  0  0  0  0
 44 47  1  0  0  0  0
 45 48  1  0  0  0  0
 46 43  1  0  0  0  0
 47 49  1  0  0  0  0
 47 43  2  0  0  0  0
 48 42  1  6  0  0  0
 48 46  1  0  0  0  0
 49 50  1  0  0  0  0
 51 49  1  0  0  0  0
M  END
>  <MODEL>
9

>  <REMARK>
 VINA RESULT:      -6.5      3.578     10.122
  Name = 
  19 active torsions:
  status: ('A' for Active; 'I' for Inactive)
    1  A    between atoms: N_1  and  C_35
    2  A    between atoms: N_1  and  C_51
    3  A    between atoms: C_7  and  C_30
    4  A    between atoms: N_9  and  C_35
    5  A    between atoms: N_9  and  N_36
    6  A    between atoms: CA_12  and  C_22
    7  A    between atoms: N_13  and  N_21
    8  A    between atoms: N_13  and  N_46
    9  A    between atoms: C_16  and  C_43
   10  A    between atoms: N_21  and  C_48
   11  A    between atoms: C_25  and  C_38
   12  A    between atoms: C_25  and  N_40
   13  A    between atoms: N_27  and  C_47
   14  A    between atoms: C_28  and  C_33
   15  A    between atoms: C_28  and  N_36
   16  A    between atoms: C_33  and  N_40
   17  A    between atoms: C_34  and  N_36
   18  A    between atoms: C_35  and  N_46
   19  A    between atoms: C_38  and  C_42
                            x       y       z     vdW  Elec       q    Type
                         _______ _______ _______ _____ _____    ______ ____

>  <TORSDO>
F 19

$$$$
